[H]c1c([H])c([H])c2c(c1[H])c1c3c(c4c5c([H])c([H])c([H])c([H])c5n5c4c1n2[C@@]1([H])O[C@]5(C([H])([H])[H])[C@@]([H])(OC([H])([H])[H])[C@@]([H])(N([H])C([H])([H])[H])C1([H])[H])C([H])([H])N([H])C3=O
     RDKit          3D

 61 68  0  0  0  0  0  0  0  0999 V2000
   -2.5900    1.1246    2.6909 C   0  0  0  0  0  0  0  0  0  0  0  0
   -2.2701    0.1494    1.6691 N   0  0  0  0  0  0  0  0  0  0  0  0
   -2.7037    0.7256    0.3894 C   0  0  1  0  0  0  0  0  0  0  0  0
   -1.9693    1.9591    0.0600 C   0  0  0  0  0  0  0  0  0  0  0  0
   -1.0374    1.8542   -1.1025 C   0  0  2  0  0  0  0  0  0  0  0  0
   -1.1108    0.8211   -1.8978 O   0  0  0  0  0  0  0  0  0  0  0  0
   -1.4719   -0.4453   -1.4993 C   0  0  2  0  0  0  0  0  0  0  0  0
   -1.8587   -1.0747   -2.8537 C   0  0  0  0  0  0  0  0  0  0  0  0
   -2.6627   -0.3659   -0.6565 C   0  0  1  0  0  0  0  0  0  0  0  0
   -3.0555   -1.5061    0.0270 O   0  0  0  0  0  0  0  0  0  0  0  0
   -4.3079   -1.9695   -0.2639 C   0  0  0  0  0  0  0  0  0  0  0  0
   -0.3020   -1.1026   -0.9411 N   0  0  0  0  0  0  0  0  0  0  0  0
   -0.0368   -2.4107   -0.8661 C   0  0  0  0  0  0  0  0  0  0  0  0
   -0.7505   -3.5118   -1.2342 C   0  0  0  0  0  0  0  0  0  0  0  0
   -0.2313   -4.7829   -1.0386 C   0  0  0  0  0  0  0  0  0  0  0  0
    1.0025   -5.0019   -0.4761 C   0  0  0  0  0  0  0  0  0  0  0  0
    1.7444   -3.8826   -0.0939 C   0  0  0  0  0  0  0  0  0  0  0  0
    1.2038   -2.6348   -0.3003 C   0  0  0  0  0  0  0  0  0  0  0  0
    1.7282   -1.3877   -0.0109 C   0  0  0  0  0  0  0  0  0  0  0  0
    2.9250   -0.9637    0.5498 C   0  0  0  0  0  0  0  0  0  0  0  0
    4.0703   -1.7821    1.0519 C   0  0  0  0  0  0  0  0  0  0  0  0
    5.0490   -0.8360    1.5052 N   0  0  0  0  0  0  0  0  0  0  0  0
    4.5511    0.4878    1.3292 C   0  0  0  0  0  0  0  0  0  0  0  0
    5.2116    1.4752    1.6612 O   0  0  0  0  0  0  0  0  0  0  0  0
    3.2325    0.3685    0.7340 C   0  0  0  0  0  0  0  0  0  0  0  0
    2.2736    1.2731    0.3281 C   0  0  0  0  0  0  0  0  0  0  0  0
    2.1943    2.6494    0.3519 C   0  0  0  0  0  0  0  0  0  0  0  0
    3.0346    3.6410    0.7719 C   0  0  0  0  0  0  0  0  0  0  0  0
    2.6237    4.9672    0.6424 C   0  0  0  0  0  0  0  0  0  0  0  0
    1.4040    5.3207    0.1079 C   0  0  0  0  0  0  0  0  0  0  0  0
    0.5569    4.3176   -0.3154 C   0  0  0  0  0  0  0  0  0  0  0  0
    0.9564    3.0255   -0.1896 C   0  0  0  0  0  0  0  0  0  0  0  0
    0.3179    1.9031   -0.5262 N   0  0  0  0  0  0  0  0  0  0  0  0
    1.0813    0.8475   -0.2300 C   0  0  0  0  0  0  0  0  0  0  0  0
    0.8029   -0.4946   -0.4048 C   0  0  0  0  0  0  0  0  0  0  0  0
   -1.7275    1.7656    2.9459 H   0  0  0  0  0  0  0  0  0  0  0  0
   -3.4000    1.7830    2.2910 H   0  0  0  0  0  0  0  0  0  0  0  0
   -3.0290    0.6437    3.5924 H   0  0  0  0  0  0  0  0  0  0  0  0
   -2.7602   -0.7186    1.9035 H   0  0  0  0  0  0  0  0  0  0  0  0
   -3.7998    0.9480    0.5957 H   0  0  0  0  0  0  0  0  0  0  0  0
   -1.4594    2.3204    1.0029 H   0  0  0  0  0  0  0  0  0  0  0  0
   -2.7065    2.7776   -0.1658 H   0  0  0  0  0  0  0  0  0  0  0  0
   -1.0912    2.7965   -1.7221 H   0  0  0  0  0  0  0  0  0  0  0  0
   -2.0056   -0.3257   -3.6573 H   0  0  0  0  0  0  0  0  0  0  0  0
   -1.0068   -1.6950   -3.1940 H   0  0  0  0  0  0  0  0  0  0  0  0
   -2.8277   -1.6039   -2.8044 H   0  0  0  0  0  0  0  0  0  0  0  0
   -3.5358   -0.1252   -1.3381 H   0  0  0  0  0  0  0  0  0  0  0  0
   -4.4650   -2.8889    0.3782 H   0  0  0  0  0  0  0  0  0  0  0  0
   -4.4865   -2.3125   -1.2897 H   0  0  0  0  0  0  0  0  0  0  0  0
   -5.1216   -1.2643    0.0633 H   0  0  0  0  0  0  0  0  0  0  0  0
   -1.7208   -3.3825   -1.6725 H   0  0  0  0  0  0  0  0  0  0  0  0
   -0.8491   -5.6109   -1.3524 H   0  0  0  0  0  0  0  0  0  0  0  0
    1.4213   -5.9802   -0.3168 H   0  0  0  0  0  0  0  0  0  0  0  0
    2.7206   -4.0420    0.3513 H   0  0  0  0  0  0  0  0  0  0  0  0
    3.7648   -2.4865    1.8473 H   0  0  0  0  0  0  0  0  0  0  0  0
    4.5351   -2.3717    0.2322 H   0  0  0  0  0  0  0  0  0  0  0  0
    5.9960   -1.0989    1.9084 H   0  0  0  0  0  0  0  0  0  0  0  0
    3.9823    3.4684    1.1903 H   0  0  0  0  0  0  0  0  0  0  0  0
    3.2909    5.7541    0.9750 H   0  0  0  0  0  0  0  0  0  0  0  0
    1.0902    6.3566    0.0099 H   0  0  0  0  0  0  0  0  0  0  0  0
   -0.4140    4.5350   -0.7434 H   0  0  0  0  0  0  0  0  0  0  0  0
  1  2  1  0
  2  3  1  0
  3  4  1  0
  4  5  1  0
  5  6  1  0
  6  7  1  0
  7  8  1  6
  7  9  1  0
  9 10  1  0
 10 11  1  0
  7 12  1  0
 12 13  1  0
 13 14  2  0
 14 15  1  0
 15 16  2  0
 16 17  1  0
 17 18  2  0
 18 19  1  0
 19 20  2  0
 20 21  1  0
 21 22  1  0
 22 23  1  0
 23 24  2  0
 23 25  1  0
 25 26  2  0
 26 27  1  0
 27 28  2  0
 28 29  1  0
 29 30  2  0
 30 31  1  0
 31 32  2  0
 32 33  1  0
 33 34  1  0
 34 35  2  0
  9  3  1  0
 35 12  1  0
 33  5  1  0
 18 13  1  0
 35 19  1  0
 25 20  1  0
 34 26  1  0
 32 27  1  0
  1 36  1  0
  1 37  1  0
  1 38  1  0
  2 39  1  0
  3 40  1  1
  4 41  1  0
  4 42  1  0
  5 43  1  6
  8 44  1  0
  8 45  1  0
  8 46  1  0
  9 47  1  6
 11 48  1  0
 11 49  1  0
 11 50  1  0
 14 51  1  0
 15 52  1  0
 16 53  1  0
 17 54  1  0
 21 55  1  0
 21 56  1  0
 22 57  1  0
 28 58  1  0
 29 59  1  0
 30 60  1  0
 31 61  1  0
M  END
$$$$
[H]c1nc(N([H])c2c([H])c([H])c(N3C([H])([H])C([H])([H])N(C([H])([H])[H])C([H])([H])C3([H])[H])c([H])c2OC([H])([H])[H])nc(-c2c([H])n([H])c3c(C([H])([H])[H])nc([H])c([H])c23)c1[H]
     RDKit          3D

 59 63  0  0  0  0  0  0  0  0999 V2000
   -1.7371    3.2845    1.7525 C   0  0  0  0  0  0  0  0  0  0  0  0
   -0.9378    2.2879    1.1632 O   0  0  0  0  0  0  0  0  0  0  0  0
   -1.5633    1.2186    0.5245 C   0  0  0  0  0  0  0  0  0  0  0  0
   -2.9380    1.1755    0.4926 C   0  0  0  0  0  0  0  0  0  0  0  0
   -3.5819    0.1297   -0.1321 C   0  0  0  0  0  0  0  0  0  0  0  0
   -2.8093   -0.8464   -0.7092 C   0  0  0  0  0  0  0  0  0  0  0  0
   -1.4069   -0.8150   -0.6842 C   0  0  0  0  0  0  0  0  0  0  0  0
   -0.7615    0.2183   -0.0669 C   0  0  0  0  0  0  0  0  0  0  0  0
    0.6084    0.3698    0.0260 N   0  0  0  0  0  0  0  0  0  0  0  0
    1.6369   -0.4853   -0.4656 C   0  0  0  0  0  0  0  0  0  0  0  0
    1.4377   -1.6241   -1.1246 N   0  0  0  0  0  0  0  0  0  0  0  0
    2.4428   -2.3769   -1.5554 C   0  0  0  0  0  0  0  0  0  0  0  0
    3.7844   -2.0150   -1.3401 C   0  0  0  0  0  0  0  0  0  0  0  0
    4.0038   -0.8510   -0.6645 C   0  0  0  0  0  0  0  0  0  0  0  0
    2.9305   -0.1530   -0.2668 N   0  0  0  0  0  0  0  0  0  0  0  0
    5.3265   -0.2789   -0.3860 C   0  0  0  0  0  0  0  0  0  0  0  0
    5.5192    1.0914   -0.1348 C   0  0  0  0  0  0  0  0  0  0  0  0
    6.8005    1.3340    0.1236 N   0  0  0  0  0  0  0  0  0  0  0  0
    7.4392    0.1543    0.0468 C   0  0  0  0  0  0  0  0  0  0  0  0
    8.7593   -0.1948    0.2338 C   0  0  0  0  0  0  0  0  0  0  0  0
    9.7147    0.9171    0.5713 C   0  0  0  0  0  0  0  0  0  0  0  0
    9.1769   -1.4664    0.1214 N   0  0  0  0  0  0  0  0  0  0  0  0
    8.3441   -2.4679   -0.1767 C   0  0  0  0  0  0  0  0  0  0  0  0
    7.0018   -2.1574   -0.3737 C   0  0  0  0  0  0  0  0  0  0  0  0
    6.5402   -0.8542   -0.2667 C   0  0  0  0  0  0  0  0  0  0  0  0
   -5.0044    0.1407   -0.1337 N   0  0  0  0  0  0  0  0  0  0  0  0
   -5.8182   -0.9031   -0.7310 C   0  0  0  0  0  0  0  0  0  0  0  0
   -6.8164   -1.3118    0.3373 C   0  0  0  0  0  0  0  0  0  0  0  0
   -7.7177   -0.2512    0.6741 N   0  0  0  0  0  0  0  0  0  0  0  0
   -9.0452   -0.4377    0.1406 C   0  0  0  0  0  0  0  0  0  0  0  0
   -7.2043    1.0591    0.5305 C   0  0  0  0  0  0  0  0  0  0  0  0
   -5.7415    1.2335    0.4806 C   0  0  0  0  0  0  0  0  0  0  0  0
   -1.0348    4.0625    2.1465 H   0  0  0  0  0  0  0  0  0  0  0  0
   -2.4556    3.7039    1.0216 H   0  0  0  0  0  0  0  0  0  0  0  0
   -2.2709    2.8305    2.6210 H   0  0  0  0  0  0  0  0  0  0  0  0
   -3.5290    1.9538    0.9529 H   0  0  0  0  0  0  0  0  0  0  0  0
   -3.2916   -1.6822   -1.2099 H   0  0  0  0  0  0  0  0  0  0  0  0
   -0.9019   -1.6362   -1.1710 H   0  0  0  0  0  0  0  0  0  0  0  0
    0.9969    1.2423    0.5320 H   0  0  0  0  0  0  0  0  0  0  0  0
    2.2625   -3.3078   -2.0942 H   0  0  0  0  0  0  0  0  0  0  0  0
    4.5688   -2.6349   -1.7305 H   0  0  0  0  0  0  0  0  0  0  0  0
    4.7499    1.8508   -0.1461 H   0  0  0  0  0  0  0  0  0  0  0  0
    7.2542    2.2748    0.3499 H   0  0  0  0  0  0  0  0  0  0  0  0
    9.8738    1.5182   -0.3521 H   0  0  0  0  0  0  0  0  0  0  0  0
    9.2752    1.5798    1.3526 H   0  0  0  0  0  0  0  0  0  0  0  0
   10.6575    0.5090    0.9438 H   0  0  0  0  0  0  0  0  0  0  0  0
    8.6408   -3.4956   -0.2740 H   0  0  0  0  0  0  0  0  0  0  0  0
    6.3215   -2.9472   -0.5883 H   0  0  0  0  0  0  0  0  0  0  0  0
   -5.2771   -1.8032   -1.0199 H   0  0  0  0  0  0  0  0  0  0  0  0
   -6.3993   -0.4445   -1.5739 H   0  0  0  0  0  0  0  0  0  0  0  0
   -7.4139   -2.1930    0.0371 H   0  0  0  0  0  0  0  0  0  0  0  0
   -6.2204   -1.5376    1.2471 H   0  0  0  0  0  0  0  0  0  0  0  0
   -9.0654   -1.4305   -0.3546 H   0  0  0  0  0  0  0  0  0  0  0  0
   -9.7357   -0.5138    1.0059 H   0  0  0  0  0  0  0  0  0  0  0  0
   -9.3285    0.3456   -0.5802 H   0  0  0  0  0  0  0  0  0  0  0  0
   -7.6554    1.6775    1.3626 H   0  0  0  0  0  0  0  0  0  0  0  0
   -7.6456    1.5156   -0.4021 H   0  0  0  0  0  0  0  0  0  0  0  0
   -5.3616    1.2829    1.5428 H   0  0  0  0  0  0  0  0  0  0  0  0
   -5.3974    2.1550   -0.0143 H   0  0  0  0  0  0  0  0  0  0  0  0
  1  2  1  0
  2  3  1  0
  3  4  2  0
  4  5  1  0
  5  6  2  0
  6  7  1  0
  7  8  2  0
  8  9  1  0
  9 10  1  0
 10 11  2  0
 11 12  1  0
 12 13  2  0
 13 14  1  0
 14 15  2  0
 14 16  1  0
 16 17  2  0
 17 18  1  0
 18 19  1  0
 19 20  2  0
 20 21  1  0
 20 22  1  0
 22 23  2  0
 23 24  1  0
 24 25  2  0
  5 26  1  0
 26 27  1  0
 27 28  1  0
 28 29  1  0
 29 30  1  0
 29 31  1  0
 31 32  1  0
  8  3  1  0
 15 10  1  0
 25 16  1  0
 32 26  1  0
 25 19  1  0
  1 33  1  0
  1 34  1  0
  1 35  1  0
  4 36  1  0
  6 37  1  0
  7 38  1  0
  9 39  1  0
 12 40  1  0
 13 41  1  0
 17 42  1  0
 18 43  1  0
 21 44  1  0
 21 45  1  0
 21 46  1  0
 23 47  1  0
 24 48  1  0
 27 49  1  0
 27 50  1  0
 28 51  1  0
 28 52  1  0
 30 53  1  0
 30 54  1  0
 30 55  1  0
 31 56  1  0
 31 57  1  0
 32 58  1  0
 32 59  1  0
M  END
$$$$
[H]c1sc(-c2c([H])c([H])c3c(c2[H])C([H])([H])C([H])([H])O3)nc1C(=O)N([H])c1nc(C([H])([H])[H])ns1
     RDKit          3D

 35 38  0  0  0  0  0  0  0  0999 V2000
    7.3700   -1.0966    0.0734 C   0  0  0  0  0  0  0  0  0  0  0  0
    6.6023   -0.4576   -1.0658 C   0  0  0  0  0  0  0  0  0  0  0  0
    7.2582   -0.0379   -2.1483 N   0  0  0  0  0  0  0  0  0  0  0  0
    6.0222    0.5821   -3.1117 S   0  0  0  0  0  0  0  0  0  0  0  0
    4.7129    0.2679   -2.0650 C   0  0  0  0  0  0  0  0  0  0  0  0
    3.3052    0.5395   -2.2371 N   0  0  0  0  0  0  0  0  0  0  0  0
    2.4467    0.1636   -1.1892 C   0  0  0  0  0  0  0  0  0  0  0  0
    2.8672   -0.3860   -0.1403 O   0  0  0  0  0  0  0  0  0  0  0  0
    0.9844    0.4043   -1.2797 C   0  0  0  0  0  0  0  0  0  0  0  0
    0.4509    1.0030   -2.4005 C   0  0  0  0  0  0  0  0  0  0  0  0
   -1.2137    1.0438   -2.0070 S   0  0  0  0  0  0  0  0  0  0  0  0
   -1.1229    0.3103   -0.4713 C   0  0  0  0  0  0  0  0  0  0  0  0
    0.1624    0.0729   -0.3368 N   0  0  0  0  0  0  0  0  0  0  0  0
   -2.2273    0.0244    0.4562 C   0  0  0  0  0  0  0  0  0  0  0  0
   -1.9798   -0.5774    1.6664 C   0  0  0  0  0  0  0  0  0  0  0  0
   -3.0414   -0.8410    2.5342 C   0  0  0  0  0  0  0  0  0  0  0  0
   -4.3430   -0.5169    2.2197 C   0  0  0  0  0  0  0  0  0  0  0  0
   -5.5699   -0.6683    2.8975 O   0  0  0  0  0  0  0  0  0  0  0  0
   -6.4608    0.3328    2.3754 C   0  0  0  0  0  0  0  0  0  0  0  0
   -6.0419    0.3178    0.9235 C   0  0  0  0  0  0  0  0  0  0  0  0
   -4.5790    0.0853    1.0052 C   0  0  0  0  0  0  0  0  0  0  0  0
   -3.5234    0.3507    0.1353 C   0  0  0  0  0  0  0  0  0  0  0  0
    5.3177   -0.3008   -1.0288 N   0  0  0  0  0  0  0  0  0  0  0  0
    7.8033   -0.2805    0.6882 H   0  0  0  0  0  0  0  0  0  0  0  0
    6.7238   -1.7279    0.6960 H   0  0  0  0  0  0  0  0  0  0  0  0
    8.1934   -1.7241   -0.3364 H   0  0  0  0  0  0  0  0  0  0  0  0
    2.9584    0.9894   -3.0948 H   0  0  0  0  0  0  0  0  0  0  0  0
    0.9749    1.3584   -3.3086 H   0  0  0  0  0  0  0  0  0  0  0  0
   -0.9552   -0.8334    1.9158 H   0  0  0  0  0  0  0  0  0  0  0  0
   -2.8534   -1.3152    3.4898 H   0  0  0  0  0  0  0  0  0  0  0  0
   -7.5117    0.0331    2.5187 H   0  0  0  0  0  0  0  0  0  0  0  0
   -6.2047    1.2820    2.8783 H   0  0  0  0  0  0  0  0  0  0  0  0
   -6.2132    1.2941    0.4279 H   0  0  0  0  0  0  0  0  0  0  0  0
   -6.5775   -0.5116    0.4215 H   0  0  0  0  0  0  0  0  0  0  0  0
   -3.7351    0.8198   -0.8026 H   0  0  0  0  0  0  0  0  0  0  0  0
  1  2  1  0
  2  3  2  0
  3  4  1  0
  4  5  1  0
  5  6  1  0
  6  7  1  0
  7  8  2  0
  7  9  1  0
  9 10  2  0
 10 11  1  0
 11 12  1  0
 12 13  2  0
 12 14  1  0
 14 15  2  0
 15 16  1  0
 16 17  2  0
 17 18  1  0
 18 19  1  0
 19 20  1  0
 20 21  1  0
 21 22  2  0
  5 23  2  0
 23  2  1  0
 13  9  1  0
 22 14  1  0
 21 17  1  0
  1 24  1  0
  1 25  1  0
  1 26  1  0
  6 27  1  0
 10 28  1  0
 15 29  1  0
 16 30  1  0
 19 31  1  0
 19 32  1  0
 20 33  1  0
 20 34  1  0
 22 35  1  0
M  END
$$$$
[H]c1sc(-c2c([H])c([H])c3c(c2[H])C([H])([H])C([H])([H])O3)nc1C(=O)N([H])c1nc2c([H])c([H])c(C(=O)N3C([H])([H])C([H])([H])OC([H])([H])C3([H])[H])c([H])c2s1
     RDKit          3D

 54 59  0  0  0  0  0  0  0  0999 V2000
   -1.0631    0.1627   -3.7059 O   0  0  0  0  0  0  0  0  0  0  0  0
   -1.8955    0.1355   -2.7804 C   0  0  0  0  0  0  0  0  0  0  0  0
   -1.4317    0.0851   -1.4408 N   0  0  0  0  0  0  0  0  0  0  0  0
   -0.0335    0.0667   -1.1842 C   0  0  0  0  0  0  0  0  0  0  0  0
    0.5433    0.0212   -0.0055 N   0  0  0  0  0  0  0  0  0  0  0  0
    1.8463    0.0092    0.0870 C   0  0  0  0  0  0  0  0  0  0  0  0
    2.5806   -0.0380    1.2856 C   0  0  0  0  0  0  0  0  0  0  0  0
    3.9599   -0.0447    1.2146 C   0  0  0  0  0  0  0  0  0  0  0  0
    4.7102   -0.0100    0.0901 C   0  0  0  0  0  0  0  0  0  0  0  0
    3.9501    0.0373   -1.1058 C   0  0  0  0  0  0  0  0  0  0  0  0
    2.5681    0.0454   -1.0713 C   0  0  0  0  0  0  0  0  0  0  0  0
    1.3020    0.0954   -2.2487 S   0  0  0  0  0  0  0  0  0  0  0  0
    6.1342   -0.0145   -0.0876 C   0  0  0  0  0  0  0  0  0  0  0  0
    6.5847    0.0314   -1.3326 O   0  0  0  0  0  0  0  0  0  0  0  0
    7.1355   -0.0610    0.8734 N   0  0  0  0  0  0  0  0  0  0  0  0
    7.0216   -0.1176    2.2922 C   0  0  0  0  0  0  0  0  0  0  0  0
    8.4564   -0.1754    2.8674 C   0  0  0  0  0  0  0  0  0  0  0  0
    9.1073    0.9654    2.4669 O   0  0  0  0  0  0  0  0  0  0  0  0
    9.2269    1.0804    1.0990 C   0  0  0  0  0  0  0  0  0  0  0  0
    8.5503   -0.0512    0.3681 C   0  0  0  0  0  0  0  0  0  0  0  0
   -3.3511    0.1554   -3.0692 C   0  0  0  0  0  0  0  0  0  0  0  0
   -3.8179    0.2044   -4.3659 C   0  0  0  0  0  0  0  0  0  0  0  0
   -5.5055    0.2073   -4.1308 S   0  0  0  0  0  0  0  0  0  0  0  0
   -5.5275    0.1465   -2.4088 C   0  0  0  0  0  0  0  0  0  0  0  0
   -4.2372    0.1280   -2.1261 N   0  0  0  0  0  0  0  0  0  0  0  0
   -6.6797    0.1225   -1.5135 C   0  0  0  0  0  0  0  0  0  0  0  0
   -7.9465    0.1493   -2.0341 C   0  0  0  0  0  0  0  0  0  0  0  0
   -9.0291    0.1250   -1.1409 C   0  0  0  0  0  0  0  0  0  0  0  0
   -8.8230    0.0755    0.2223 C   0  0  0  0  0  0  0  0  0  0  0  0
   -9.6917    0.0423    1.3241 O   0  0  0  0  0  0  0  0  0  0  0  0
   -9.0129    0.5063    2.4797 C   0  0  0  0  0  0  0  0  0  0  0  0
   -7.6084   -0.0033    2.2246 C   0  0  0  0  0  0  0  0  0  0  0  0
   -7.5410    0.0487    0.7406 C   0  0  0  0  0  0  0  0  0  0  0  0
   -6.4970    0.0740   -0.1740 C   0  0  0  0  0  0  0  0  0  0  0  0
   -2.0924    0.0610   -0.6333 H   0  0  0  0  0  0  0  0  0  0  0  0
    2.1138   -0.0692    2.2565 H   0  0  0  0  0  0  0  0  0  0  0  0
    4.4875   -0.0807    2.1579 H   0  0  0  0  0  0  0  0  0  0  0  0
    4.3934    0.0685   -2.0729 H   0  0  0  0  0  0  0  0  0  0  0  0
    6.5076    0.7727    2.7478 H   0  0  0  0  0  0  0  0  0  0  0  0
    6.4937   -1.0410    2.6141 H   0  0  0  0  0  0  0  0  0  0  0  0
    8.9044   -1.1204    2.5548 H   0  0  0  0  0  0  0  0  0  0  0  0
    8.3528   -0.1311    3.9731 H   0  0  0  0  0  0  0  0  0  0  0  0
    8.7048    2.0181    0.7777 H   0  0  0  0  0  0  0  0  0  0  0  0
   10.2853    1.1032    0.7664 H   0  0  0  0  0  0  0  0  0  0  0  0
    8.5253    0.1112   -0.7247 H   0  0  0  0  0  0  0  0  0  0  0  0
    8.9853   -1.0353    0.5419 H   0  0  0  0  0  0  0  0  0  0  0  0
   -3.2161    0.2332   -5.2927 H   0  0  0  0  0  0  0  0  0  0  0  0
   -8.1648    0.1882   -3.0941 H   0  0  0  0  0  0  0  0  0  0  0  0
  -10.0277    0.1462   -1.5532 H   0  0  0  0  0  0  0  0  0  0  0  0
   -9.4444    0.1006    3.4042 H   0  0  0  0  0  0  0  0  0  0  0  0
   -8.9782    1.6000    2.4323 H   0  0  0  0  0  0  0  0  0  0  0  0
   -7.4900   -1.0663    2.5144 H   0  0  0  0  0  0  0  0  0  0  0  0
   -6.8315    0.6126    2.6979 H   0  0  0  0  0  0  0  0  0  0  0  0
   -5.4942    0.0534    0.2221 H   0  0  0  0  0  0  0  0  0  0  0  0
  1  2  2  0
  2  3  1  0
  3  4  1  0
  4  5  2  0
  5  6  1  0
  6  7  2  0
  7  8  1  0
  8  9  2  0
  9 10  1  0
 10 11  2  0
 11 12  1  0
  9 13  1  0
 13 14  2  0
 13 15  1  0
 15 16  1  0
 16 17  1  0
 17 18  1  0
 18 19  1  0
 19 20  1  0
  2 21  1  0
 21 22  2  0
 22 23  1  0
 23 24  1  0
 24 25  2  0
 24 26  1  0
 26 27  2  0
 27 28  1  0
 28 29  2  0
 29 30  1  0
 30 31  1  0
 31 32  1  0
 32 33  1  0
 33 34  2  0
 12  4  1  0
 20 15  1  0
 25 21  1  0
 34 26  1  0
 11  6  1  0
 33 29  1  0
  3 35  1  0
  7 36  1  0
  8 37  1  0
 10 38  1  0
 16 39  1  0
 16 40  1  0
 17 41  1  0
 17 42  1  0
 19 43  1  0
 19 44  1  0
 20 45  1  0
 20 46  1  0
 22 47  1  0
 27 48  1  0
 28 49  1  0
 31 50  1  0
 31 51  1  0
 32 52  1  0
 32 53  1  0
 34 54  1  0
M  END
$$$$
[H]c1sc(-c2c([H])c([H])c3c(c2[H])C([H])([H])C([H])([H])O3)nc1C(=O)N([H])c1nc2c([H])c(C(=O)c3sc([H])c([H])c3[H])c([H])c([H])c2n1[H]
     RDKit          3D

 49 54  0  0  0  0  0  0  0  0999 V2000
   -1.8537    2.6444    3.4475 O   0  0  0  0  0  0  0  0  0  0  0  0
   -0.8865    2.1493    2.7052 C   0  0  0  0  0  0  0  0  0  0  0  0
    0.2492    1.8140    3.4132 N   0  0  0  0  0  0  0  0  0  0  0  0
    1.4212    1.1456    2.9846 C   0  0  0  0  0  0  0  0  0  0  0  0
    1.7526    0.6410    1.8036 N   0  0  0  0  0  0  0  0  0  0  0  0
    2.9751    0.0847    1.8303 C   0  0  0  0  0  0  0  0  0  0  0  0
    3.7703   -0.5706    0.8779 C   0  0  0  0  0  0  0  0  0  0  0  0
    5.0126   -1.0613    1.1689 C   0  0  0  0  0  0  0  0  0  0  0  0
    5.4479   -0.8686    2.4893 C   0  0  0  0  0  0  0  0  0  0  0  0
    4.6849   -0.2313    3.4327 C   0  0  0  0  0  0  0  0  0  0  0  0
    3.4316    0.2562    3.1135 C   0  0  0  0  0  0  0  0  0  0  0  0
    2.4751    0.9017    3.7978 N   0  0  0  0  0  0  0  0  0  0  0  0
    5.8674   -1.7303    0.2323 C   0  0  0  0  0  0  0  0  0  0  0  0
    6.7896   -2.5287    0.5837 O   0  0  0  0  0  0  0  0  0  0  0  0
    5.7004   -1.5070   -1.2128 C   0  0  0  0  0  0  0  0  0  0  0  0
    6.0961   -2.3715   -2.2182 C   0  0  0  0  0  0  0  0  0  0  0  0
    5.8713   -1.9771   -3.4809 C   0  0  0  0  0  0  0  0  0  0  0  0
    5.2752   -0.7646   -3.6711 C   0  0  0  0  0  0  0  0  0  0  0  0
    5.0407   -0.1996   -2.0832 S   0  0  0  0  0  0  0  0  0  0  0  0
   -1.1929    2.0433    1.2678 C   0  0  0  0  0  0  0  0  0  0  0  0
   -0.3178    2.4210    0.2803 C   0  0  0  0  0  0  0  0  0  0  0  0
   -1.1853    2.0269   -1.1376 S   0  0  0  0  0  0  0  0  0  0  0  0
   -2.5955    1.4126   -0.4077 C   0  0  0  0  0  0  0  0  0  0  0  0
   -2.3362    1.5373    0.8764 N   0  0  0  0  0  0  0  0  0  0  0  0
   -3.8246    0.8732   -1.0439 C   0  0  0  0  0  0  0  0  0  0  0  0
   -3.9356    0.8538   -2.4100 C   0  0  0  0  0  0  0  0  0  0  0  0
   -5.0935    0.3383   -2.9982 C   0  0  0  0  0  0  0  0  0  0  0  0
   -6.1462   -0.1597   -2.2418 C   0  0  0  0  0  0  0  0  0  0  0  0
   -7.3602   -0.7055   -2.6097 O   0  0  0  0  0  0  0  0  0  0  0  0
   -8.0354   -1.1510   -1.4801 C   0  0  0  0  0  0  0  0  0  0  0  0
   -7.2558   -0.7194   -0.2820 C   0  0  0  0  0  0  0  0  0  0  0  0
   -6.0181   -0.1327   -0.8729 C   0  0  0  0  0  0  0  0  0  0  0  0
   -4.8573    0.3842   -0.2890 C   0  0  0  0  0  0  0  0  0  0  0  0
    0.2109    2.0179    4.4860 H   0  0  0  0  0  0  0  0  0  0  0  0
    3.3552   -0.6886   -0.1169 H   0  0  0  0  0  0  0  0  0  0  0  0
    6.4431   -1.2596    2.7287 H   0  0  0  0  0  0  0  0  0  0  0  0
    5.0360   -0.0926    4.4416 H   0  0  0  0  0  0  0  0  0  0  0  0
    2.5657    1.1653    4.8175 H   0  0  0  0  0  0  0  0  0  0  0  0
    6.5796   -3.3497   -1.9645 H   0  0  0  0  0  0  0  0  0  0  0  0
    6.1497   -2.5942   -4.3685 H   0  0  0  0  0  0  0  0  0  0  0  0
    5.0235   -0.3022   -4.6453 H   0  0  0  0  0  0  0  0  0  0  0  0
    0.6821    2.8890    0.3832 H   0  0  0  0  0  0  0  0  0  0  0  0
   -3.1395    1.2323   -3.0528 H   0  0  0  0  0  0  0  0  0  0  0  0
   -5.1737    0.3276   -4.0748 H   0  0  0  0  0  0  0  0  0  0  0  0
   -9.0551   -0.6882   -1.4276 H   0  0  0  0  0  0  0  0  0  0  0  0
   -8.1592   -2.2544   -1.4386 H   0  0  0  0  0  0  0  0  0  0  0  0
   -6.9469   -1.6107    0.3398 H   0  0  0  0  0  0  0  0  0  0  0  0
   -7.7716   -0.0412    0.4037 H   0  0  0  0  0  0  0  0  0  0  0  0
   -4.7666    0.4006    0.7886 H   0  0  0  0  0  0  0  0  0  0  0  0
  1  2  2  0
  2  3  1  0
  3  4  1  0
  4  5  2  0
  5  6  1  0
  6  7  2  0
  7  8  1  0
  8  9  2  0
  9 10  1  0
 10 11  2  0
 11 12  1  0
  8 13  1  0
 13 14  2  0
 13 15  1  0
 15 16  2  0
 16 17  1  0
 17 18  2  0
 18 19  1  0
  2 20  1  0
 20 21  2  0
 21 22  1  0
 22 23  1  0
 23 24  2  0
 23 25  1  0
 25 26  2  0
 26 27  1  0
 27 28  2  0
 28 29  1  0
 29 30  1  0
 30 31  1  0
 31 32  1  0
 32 33  2  0
 12  4  1  0
 19 15  1  0
 24 20  1  0
 33 25  1  0
 11  6  1  0
 32 28  1  0
  3 34  1  0
  7 35  1  0
  9 36  1  0
 10 37  1  0
 12 38  1  0
 16 39  1  0
 17 40  1  0
 18 41  1  0
 21 42  1  0
 26 43  1  0
 27 44  1  0
 30 45  1  0
 30 46  1  0
 31 47  1  0
 31 48  1  0
 33 49  1  0
M  END
$$$$
[H]Oc1c([H])c([H])c(-c2c([H])n([H])c3nc([H])c(-c4c([H])c([H])c5c(c4[H])c([H])c([H])n5[H])c([H])c23)c([H])c1[H]
     RDKit          3D

 40 44  0  0  0  0  0  0  0  0999 V2000
   -5.5909    2.9908   -0.8325 O   0  0  0  0  0  0  0  0  0  0  0  0
   -4.8284    1.8435   -0.6441 C   0  0  0  0  0  0  0  0  0  0  0  0
   -5.1206    0.7034   -1.3394 C   0  0  0  0  0  0  0  0  0  0  0  0
   -4.3393   -0.4136   -1.1233 C   0  0  0  0  0  0  0  0  0  0  0  0
   -3.2873   -0.4172   -0.2404 C   0  0  0  0  0  0  0  0  0  0  0  0
   -3.0117    0.7356    0.4462 C   0  0  0  0  0  0  0  0  0  0  0  0
   -3.7741    1.8945    0.2625 C   0  0  0  0  0  0  0  0  0  0  0  0
   -2.5050   -1.6134   -0.0492 C   0  0  0  0  0  0  0  0  0  0  0  0
   -3.0128   -2.9041    0.1474 C   0  0  0  0  0  0  0  0  0  0  0  0
   -1.9822   -3.7509    0.2915 N   0  0  0  0  0  0  0  0  0  0  0  0
   -0.8149   -3.0962    0.2017 C   0  0  0  0  0  0  0  0  0  0  0  0
    0.4887   -3.4717    0.2740 N   0  0  0  0  0  0  0  0  0  0  0  0
    1.4501   -2.5426    0.1379 C   0  0  0  0  0  0  0  0  0  0  0  0
    1.1857   -1.2126   -0.0736 C   0  0  0  0  0  0  0  0  0  0  0  0
   -0.1410   -0.8318   -0.1469 C   0  0  0  0  0  0  0  0  0  0  0  0
   -1.1326   -1.7730   -0.0091 C   0  0  0  0  0  0  0  0  0  0  0  0
    2.2199   -0.1956   -0.2224 C   0  0  0  0  0  0  0  0  0  0  0  0
    2.0525    0.9246   -1.0078 C   0  0  0  0  0  0  0  0  0  0  0  0
    3.0310    1.8884   -1.1489 C   0  0  0  0  0  0  0  0  0  0  0  0
    4.2282    1.7459   -0.4890 C   0  0  0  0  0  0  0  0  0  0  0  0
    5.3305    2.5147   -0.4482 N   0  0  0  0  0  0  0  0  0  0  0  0
    6.2495    1.9170    0.3660 C   0  0  0  0  0  0  0  0  0  0  0  0
    5.7005    0.7482    0.8409 C   0  0  0  0  0  0  0  0  0  0  0  0
    4.4331    0.6195    0.3182 C   0  0  0  0  0  0  0  0  0  0  0  0
    3.4265   -0.3244    0.4335 C   0  0  0  0  0  0  0  0  0  0  0  0
   -6.3991    3.1502   -0.2635 H   0  0  0  0  0  0  0  0  0  0  0  0
   -5.9435    0.7067   -2.0304 H   0  0  0  0  0  0  0  0  0  0  0  0
   -4.5963   -1.3018   -1.6893 H   0  0  0  0  0  0  0  0  0  0  0  0
   -2.2048    0.7862    1.1469 H   0  0  0  0  0  0  0  0  0  0  0  0
   -3.5555    2.7875    0.7985 H   0  0  0  0  0  0  0  0  0  0  0  0
   -4.0796   -3.0970    0.1657 H   0  0  0  0  0  0  0  0  0  0  0  0
   -2.0617   -4.7748    0.4512 H   0  0  0  0  0  0  0  0  0  0  0  0
    2.4996   -2.8194    0.1923 H   0  0  0  0  0  0  0  0  0  0  0  0
   -0.4103    0.1943   -0.3126 H   0  0  0  0  0  0  0  0  0  0  0  0
    1.1004    1.0278   -1.5264 H   0  0  0  0  0  0  0  0  0  0  0  0
    2.8492    2.7625   -1.7862 H   0  0  0  0  0  0  0  0  0  0  0  0
    5.5208    3.4189   -0.9271 H   0  0  0  0  0  0  0  0  0  0  0  0
    7.2432    2.3127    0.5904 H   0  0  0  0  0  0  0  0  0  0  0  0
    6.1672    0.0499    1.5033 H   0  0  0  0  0  0  0  0  0  0  0  0
    3.6152   -1.1827    1.0640 H   0  0  0  0  0  0  0  0  0  0  0  0
  1  2  1  0
  2  3  2  0
  3  4  1  0
  4  5  2  0
  5  6  1  0
  6  7  2  0
  5  8  1  0
  8  9  2  0
  9 10  1  0
 10 11  1  0
 11 12  2  0
 12 13  1  0
 13 14  2  0
 14 15  1  0
 15 16  2  0
 14 17  1  0
 17 18  2  0
 18 19  1  0
 19 20  2  0
 20 21  1  0
 21 22  1  0
 22 23  2  0
 23 24  1  0
 24 25  2  0
  7  2  1  0
 16  8  1  0
 25 17  1  0
 16 11  1  0
 24 20  1  0
  1 26  1  0
  3 27  1  0
  4 28  1  0
  6 29  1  0
  7 30  1  0
  9 31  1  0
 10 32  1  0
 13 33  1  0
 15 34  1  0
 18 35  1  0
 19 36  1  0
 21 37  1  0
 22 38  1  0
 23 39  1  0
 25 40  1  0
M  END
$$$$
[H]N=C(OC([H])([H])[H])c1nc2c([H])c([H])c3nc([H])nc(N([H])c4c([H])c([H])c(OC([H])([H])[H])c([H])c4[H])c3c2s1
     RDKit          3D

 41 44  0  0  0  0  0  0  0  0999 V2000
   -4.5443   -4.3985    0.3760 C   0  0  0  0  0  0  0  0  0  0  0  0
   -3.9045   -3.1358    0.6290 O   0  0  0  0  0  0  0  0  0  0  0  0
   -4.5833   -1.9435    0.4759 C   0  0  0  0  0  0  0  0  0  0  0  0
   -5.8361   -1.9058    0.5184 N   0  0  0  0  0  0  0  0  0  0  0  0
   -3.8328   -0.6886    0.2584 C   0  0  0  0  0  0  0  0  0  0  0  0
   -4.2489    0.5368    0.0901 N   0  0  0  0  0  0  0  0  0  0  0  0
   -3.3952    1.5084   -0.0883 C   0  0  0  0  0  0  0  0  0  0  0  0
   -3.7059    2.8664   -0.2872 C   0  0  0  0  0  0  0  0  0  0  0  0
   -2.7041    3.7742   -0.4678 C   0  0  0  0  0  0  0  0  0  0  0  0
   -1.3468    3.4532   -0.4711 C   0  0  0  0  0  0  0  0  0  0  0  0
   -0.4213    4.3938   -0.6609 N   0  0  0  0  0  0  0  0  0  0  0  0
    0.8551    3.9857   -0.6544 C   0  0  0  0  0  0  0  0  0  0  0  0
    1.1635    2.7047   -0.4663 N   0  0  0  0  0  0  0  0  0  0  0  0
    0.2475    1.7046   -0.2671 C   0  0  0  0  0  0  0  0  0  0  0  0
    0.6813    0.4075   -0.0196 N   0  0  0  0  0  0  0  0  0  0  0  0
    2.0837    0.0882   -0.1124 C   0  0  0  0  0  0  0  0  0  0  0  0
    2.6273   -0.8466    0.7804 C   0  0  0  0  0  0  0  0  0  0  0  0
    3.9444   -1.2327    0.7320 C   0  0  0  0  0  0  0  0  0  0  0  0
    4.7889   -0.7047   -0.2120 C   0  0  0  0  0  0  0  0  0  0  0  0
    6.1216   -1.1046   -0.2493 O   0  0  0  0  0  0  0  0  0  0  0  0
    6.5984   -2.0534    0.6863 C   0  0  0  0  0  0  0  0  0  0  0  0
    4.2657    0.2098   -1.0896 C   0  0  0  0  0  0  0  0  0  0  0  0
    2.9290    0.6054   -1.0457 C   0  0  0  0  0  0  0  0  0  0  0  0
   -1.0652    2.1198   -0.2742 C   0  0  0  0  0  0  0  0  0  0  0  0
   -2.0615    1.1799   -0.0894 C   0  0  0  0  0  0  0  0  0  0  0  0
   -2.1443   -0.5072    0.1669 S   0  0  0  0  0  0  0  0  0  0  0  0
   -3.8648   -5.2323    0.5457 H   0  0  0  0  0  0  0  0  0  0  0  0
   -5.5120   -4.4780    0.8804 H   0  0  0  0  0  0  0  0  0  0  0  0
   -4.7457   -4.3803   -0.7356 H   0  0  0  0  0  0  0  0  0  0  0  0
   -6.3520   -1.0111    0.4038 H   0  0  0  0  0  0  0  0  0  0  0  0
   -4.7571    3.2022   -0.2981 H   0  0  0  0  0  0  0  0  0  0  0  0
   -3.0008    4.8247   -0.6197 H   0  0  0  0  0  0  0  0  0  0  0  0
    1.6333    4.7289   -0.8068 H   0  0  0  0  0  0  0  0  0  0  0  0
    0.0999   -0.3778    0.2432 H   0  0  0  0  0  0  0  0  0  0  0  0
    1.9527   -1.2571    1.5212 H   0  0  0  0  0  0  0  0  0  0  0  0
    4.3154   -1.9612    1.4481 H   0  0  0  0  0  0  0  0  0  0  0  0
    5.9255   -2.9504    0.6815 H   0  0  0  0  0  0  0  0  0  0  0  0
    7.5968   -2.4338    0.4052 H   0  0  0  0  0  0  0  0  0  0  0  0
    6.6496   -1.6362    1.7109 H   0  0  0  0  0  0  0  0  0  0  0  0
    4.9339    0.6301   -1.8396 H   0  0  0  0  0  0  0  0  0  0  0  0
    2.6132    1.3148   -1.7986 H   0  0  0  0  0  0  0  0  0  0  0  0
  1  2  1  0
  2  3  1  0
  3  4  2  3
  3  5  1  0
  5  6  2  0
  6  7  1  0
  7  8  2  0
  8  9  1  0
  9 10  2  0
 10 11  1  0
 11 12  2  0
 12 13  1  0
 13 14  2  0
 14 15  1  0
 15 16  1  0
 16 17  2  0
 17 18  1  0
 18 19  2  0
 19 20  1  0
 20 21  1  0
 19 22  1  0
 22 23  2  0
 14 24  1  0
 24 25  2  0
 25 26  1  0
 26  5  1  0
 25  7  1  0
 24 10  1  0
 23 16  1  0
  1 27  1  0
  1 28  1  0
  1 29  1  0
  4 30  1  0
  8 31  1  0
  9 32  1  0
 12 33  1  0
 15 34  1  0
 17 35  1  0
 18 36  1  0
 21 37  1  0
 21 38  1  0
 21 39  1  0
 22 40  1  0
 23 41  1  0
M  END
$$$$
[H]N=C(OC([H])([H])c1c([H])c([H])c([H])c([H])c1[H])c1nc2c([H])c([H])c3nc([H])nc(N([H])c4c([H])c([H])c5c(c4[H])OC([H])([H])O5)c3c2s1
     RDKit          3D

 50 55  0  0  0  0  0  0  0  0999 V2000
    4.2464   -3.0120   -0.1594 N   0  0  0  0  0  0  0  0  0  0  0  0
    3.3608   -2.1075   -0.0773 C   0  0  0  0  0  0  0  0  0  0  0  0
    3.7098   -0.7990    0.1146 O   0  0  0  0  0  0  0  0  0  0  0  0
    4.9714   -0.2659   -0.2575 C   0  0  0  0  0  0  0  0  0  0  0  0
    5.0833    1.1649    0.0597 C   0  0  0  0  0  0  0  0  0  0  0  0
    4.0319    1.8111    0.6625 C   0  0  0  0  0  0  0  0  0  0  0  0
    4.0946    3.1645    0.9800 C   0  0  0  0  0  0  0  0  0  0  0  0
    5.2540    3.8524    0.6709 C   0  0  0  0  0  0  0  0  0  0  0  0
    6.3241    3.2348    0.0677 C   0  0  0  0  0  0  0  0  0  0  0  0
    6.2199    1.8754   -0.2340 C   0  0  0  0  0  0  0  0  0  0  0  0
    1.9479   -2.5297   -0.1980 C   0  0  0  0  0  0  0  0  0  0  0  0
    1.4542   -3.7327   -0.3825 N   0  0  0  0  0  0  0  0  0  0  0  0
    0.1696   -3.9075   -0.4657 C   0  0  0  0  0  0  0  0  0  0  0  0
   -0.4817   -5.1390   -0.6556 C   0  0  0  0  0  0  0  0  0  0  0  0
   -1.8377   -5.2163   -0.7236 C   0  0  0  0  0  0  0  0  0  0  0  0
   -2.6329   -4.1172   -0.6130 C   0  0  0  0  0  0  0  0  0  0  0  0
   -3.9565   -4.1856   -0.6713 N   0  0  0  0  0  0  0  0  0  0  0  0
   -4.7183   -3.0557   -0.5484 C   0  0  0  0  0  0  0  0  0  0  0  0
   -4.1112   -1.8943   -0.3710 N   0  0  0  0  0  0  0  0  0  0  0  0
   -2.7603   -1.7269   -0.2988 C   0  0  0  0  0  0  0  0  0  0  0  0
   -2.1982   -0.4482   -0.1687 N   0  0  0  0  0  0  0  0  0  0  0  0
   -3.0370    0.6862    0.0232 C   0  0  0  0  0  0  0  0  0  0  0  0
   -4.1468    0.6037    0.8114 C   0  0  0  0  0  0  0  0  0  0  0  0
   -4.9905    1.7066    0.9774 C   0  0  0  0  0  0  0  0  0  0  0  0
   -4.7354    2.8919    0.3643 C   0  0  0  0  0  0  0  0  0  0  0  0
   -5.4237    4.0879    0.3900 O   0  0  0  0  0  0  0  0  0  0  0  0
   -4.6595    5.0254   -0.3353 C   0  0  0  0  0  0  0  0  0  0  0  0
   -3.6054    4.2863   -0.9215 O   0  0  0  0  0  0  0  0  0  0  0  0
   -3.6091    2.9856   -0.4377 C   0  0  0  0  0  0  0  0  0  0  0  0
   -2.7764    1.8950   -0.6016 C   0  0  0  0  0  0  0  0  0  0  0  0
   -2.0208   -2.8775   -0.4243 C   0  0  0  0  0  0  0  0  0  0  0  0
   -0.6362   -2.7993   -0.3545 C   0  0  0  0  0  0  0  0  0  0  0  0
    0.5381   -1.5813   -0.1360 S   0  0  0  0  0  0  0  0  0  0  0  0
    5.2513   -2.7532   -0.0795 H   0  0  0  0  0  0  0  0  0  0  0  0
    5.8176   -0.8137    0.2016 H   0  0  0  0  0  0  0  0  0  0  0  0
    5.0076   -0.3580   -1.3823 H   0  0  0  0  0  0  0  0  0  0  0  0
    3.1331    1.2715    0.9004 H   0  0  0  0  0  0  0  0  0  0  0  0
    3.2504    3.6508    1.4556 H   0  0  0  0  0  0  0  0  0  0  0  0
    5.2646    4.9142    0.9361 H   0  0  0  0  0  0  0  0  0  0  0  0
    7.1994    3.8238   -0.1479 H   0  0  0  0  0  0  0  0  0  0  0  0
    7.0728    1.3997   -0.7106 H   0  0  0  0  0  0  0  0  0  0  0  0
    0.0780   -6.0664   -0.7538 H   0  0  0  0  0  0  0  0  0  0  0  0
   -2.3516   -6.1760   -0.8716 H   0  0  0  0  0  0  0  0  0  0  0  0
   -5.8021   -3.1011   -0.5944 H   0  0  0  0  0  0  0  0  0  0  0  0
   -1.2186   -0.2401   -0.2124 H   0  0  0  0  0  0  0  0  0  0  0  0
   -4.4474   -0.2719    1.3742 H   0  0  0  0  0  0  0  0  0  0  0  0
   -5.8521    1.5809    1.6109 H   0  0  0  0  0  0  0  0  0  0  0  0
   -4.2852    5.7798    0.3986 H   0  0  0  0  0  0  0  0  0  0  0  0
   -5.2989    5.5090   -1.1107 H   0  0  0  0  0  0  0  0  0  0  0  0
   -1.8874    1.9749   -1.2369 H   0  0  0  0  0  0  0  0  0  0  0  0
  1  2  2  3
  2  3  1  0
  3  4  1  0
  4  5  1  0
  5  6  2  0
  6  7  1  0
  7  8  2  0
  8  9  1  0
  9 10  2  0
  2 11  1  0
 11 12  2  0
 12 13  1  0
 13 14  2  0
 14 15  1  0
 15 16  2  0
 16 17  1  0
 17 18  2  0
 18 19  1  0
 19 20  2  0
 20 21  1  0
 21 22  1  0
 22 23  2  0
 23 24  1  0
 24 25  2  0
 25 26  1  0
 26 27  1  0
 27 28  1  0
 28 29  1  0
 29 30  2  0
 20 31  1  0
 31 32  2  0
 32 33  1  0
 10  5  1  0
 33 11  1  0
 32 13  1  0
 31 16  1  0
 30 22  1  0
 29 25  1  0
  1 34  1  0
  4 35  1  0
  4 36  1  0
  6 37  1  0
  7 38  1  0
  8 39  1  0
  9 40  1  0
 10 41  1  0
 14 42  1  0
 15 43  1  0
 18 44  1  0
 21 45  1  0
 23 46  1  0
 24 47  1  0
 27 48  1  0
 27 49  1  0
 30 50  1  0
M  END
$$$$
[H]c1c([H])c(Cl)c([H])c(C([H])(N([H])C(=O)c2c([H])c([H])c(Cl)c(N([H])C(=O)c3c([H])c4c([H])nc(OC([H])([H])[H])nc4n([H])c3=O)c2[H])C([H])([H])C([H])([H])N([H])[H])c1[H]
     RDKit          3D

 59 62  0  0  0  0  0  0  0  0999 V2000
   11.4839    0.8611   -0.2658 C   0  0  0  0  0  0  0  0  0  0  0  0
   10.4880    1.2772    0.6494 O   0  0  0  0  0  0  0  0  0  0  0  0
    9.1538    1.0783    0.2948 C   0  0  0  0  0  0  0  0  0  0  0  0
    8.8200    0.5211   -0.8629 N   0  0  0  0  0  0  0  0  0  0  0  0
    7.5257    0.3027   -1.2556 C   0  0  0  0  0  0  0  0  0  0  0  0
    6.5377    0.6892   -0.3887 C   0  0  0  0  0  0  0  0  0  0  0  0
    5.1831    0.4864   -0.6891 C   0  0  0  0  0  0  0  0  0  0  0  0
    4.2249    0.8645    0.2167 C   0  0  0  0  0  0  0  0  0  0  0  0
    2.7698    0.5828    0.0307 C   0  0  0  0  0  0  0  0  0  0  0  0
    2.2015    0.9917   -0.9755 O   0  0  0  0  0  0  0  0  0  0  0  0
    2.1259   -0.1692    1.0492 N   0  0  0  0  0  0  0  0  0  0  0  0
    0.7902   -0.5698    1.1073 C   0  0  0  0  0  0  0  0  0  0  0  0
   -0.2367   -0.2016    0.2750 C   0  0  0  0  0  0  0  0  0  0  0  0
   -1.5395   -0.6334    0.4150 C   0  0  0  0  0  0  0  0  0  0  0  0
   -1.8457   -1.4830    1.4386 C   0  0  0  0  0  0  0  0  0  0  0  0
   -0.8669   -1.8937    2.3154 C   0  0  0  0  0  0  0  0  0  0  0  0
    0.4143   -1.4526    2.1581 C   0  0  0  0  0  0  0  0  0  0  0  0
    1.6918   -1.9571    3.2642 Cl  0  0  0  0  0  0  0  0  0  0  0  0
   -2.5878   -0.1421   -0.5179 C   0  0  0  0  0  0  0  0  0  0  0  0
   -2.2272    0.5440   -1.4842 O   0  0  0  0  0  0  0  0  0  0  0  0
   -3.9479   -0.4511   -0.2905 N   0  0  0  0  0  0  0  0  0  0  0  0
   -5.0616   -0.0316   -1.0933 C   0  0  0  0  0  0  0  0  0  0  0  0
   -5.8852   -1.1732   -1.6164 C   0  0  0  0  0  0  0  0  0  0  0  0
   -5.0812   -2.0985   -2.4906 C   0  0  0  0  0  0  0  0  0  0  0  0
   -5.9837   -3.1595   -2.9222 N   0  0  0  0  0  0  0  0  0  0  0  0
   -5.9572    0.8867   -0.2949 C   0  0  0  0  0  0  0  0  0  0  0  0
   -6.0229    0.7790    1.0730 C   0  0  0  0  0  0  0  0  0  0  0  0
   -6.8461    1.5900    1.8380 C   0  0  0  0  0  0  0  0  0  0  0  0
   -7.6305    2.5384    1.2402 C   0  0  0  0  0  0  0  0  0  0  0  0
   -7.5621    2.6436   -0.1426 C   0  0  0  0  0  0  0  0  0  0  0  0
   -8.5670    3.8568   -0.9120 Cl  0  0  0  0  0  0  0  0  0  0  0  0
   -6.7484    1.8401   -0.8917 C   0  0  0  0  0  0  0  0  0  0  0  0
    4.5983    1.4376    1.3983 C   0  0  0  0  0  0  0  0  0  0  0  0
    3.7195    1.7966    2.2400 O   0  0  0  0  0  0  0  0  0  0  0  0
    5.8954    1.6351    1.6920 N   0  0  0  0  0  0  0  0  0  0  0  0
    6.8718    1.2674    0.8135 C   0  0  0  0  0  0  0  0  0  0  0  0
    8.1704    1.4533    1.1368 N   0  0  0  0  0  0  0  0  0  0  0  0
   11.3786   -0.2717   -0.3141 H   0  0  0  0  0  0  0  0  0  0  0  0
   12.5097    1.1027    0.0483 H   0  0  0  0  0  0  0  0  0  0  0  0
   11.2312    1.2944   -1.2376 H   0  0  0  0  0  0  0  0  0  0  0  0
    7.2694   -0.1519   -2.1914 H   0  0  0  0  0  0  0  0  0  0  0  0
    4.8750    0.0330   -1.6235 H   0  0  0  0  0  0  0  0  0  0  0  0
    2.7700   -0.4425    1.8524 H   0  0  0  0  0  0  0  0  0  0  0  0
   -0.0228    0.4755   -0.5443 H   0  0  0  0  0  0  0  0  0  0  0  0
   -2.8567   -1.8654    1.5847 H   0  0  0  0  0  0  0  0  0  0  0  0
   -1.1021   -2.5744    3.1459 H   0  0  0  0  0  0  0  0  0  0  0  0
   -4.1850   -1.0501    0.5298 H   0  0  0  0  0  0  0  0  0  0  0  0
   -4.6771    0.5767   -1.9215 H   0  0  0  0  0  0  0  0  0  0  0  0
   -6.4028   -1.7235   -0.7930 H   0  0  0  0  0  0  0  0  0  0  0  0
   -6.7436   -0.7927   -2.2427 H   0  0  0  0  0  0  0  0  0  0  0  0
   -4.8414   -1.5205   -3.4228 H   0  0  0  0  0  0  0  0  0  0  0  0
   -4.1849   -2.4841   -2.0007 H   0  0  0  0  0  0  0  0  0  0  0  0
   -5.3738   -3.9904   -3.1699 H   0  0  0  0  0  0  0  0  0  0  0  0
   -6.6126   -3.4210   -2.1250 H   0  0  0  0  0  0  0  0  0  0  0  0
   -5.4047    0.0332    1.5731 H   0  0  0  0  0  0  0  0  0  0  0  0
   -6.8711    1.4872    2.9064 H   0  0  0  0  0  0  0  0  0  0  0  0
   -8.2945    3.1929    1.8088 H   0  0  0  0  0  0  0  0  0  0  0  0
   -6.7268    1.9386   -1.9907 H   0  0  0  0  0  0  0  0  0  0  0  0
    6.1978    2.0697    2.5758 H   0  0  0  0  0  0  0  0  0  0  0  0
  1  2  1  0
  2  3  1  0
  3  4  2  0
  4  5  1  0
  5  6  2  0
  6  7  1  0
  7  8  2  0
  8  9  1  0
  9 10  2  0
  9 11  1  0
 11 12  1  0
 12 13  2  0
 13 14  1  0
 14 15  2  0
 15 16  1  0
 16 17  2  0
 17 18  1  0
 14 19  1  0
 19 20  2  0
 19 21  1  0
 21 22  1  0
 22 23  1  0
 23 24  1  0
 24 25  1  0
 22 26  1  0
 26 27  2  0
 27 28  1  0
 28 29  2  0
 29 30  1  0
 30 31  1  0
 30 32  2  0
  8 33  1  0
 33 34  2  0
 33 35  1  0
 35 36  1  0
 36 37  2  0
 37  3  1  0
 36  6  1  0
 17 12  1  0
 32 26  1  0
  1 38  1  0
  1 39  1  0
  1 40  1  0
  5 41  1  0
  7 42  1  0
 11 43  1  0
 13 44  1  0
 15 45  1  0
 16 46  1  0
 21 47  1  0
 22 48  1  0
 23 49  1  0
 23 50  1  0
 24 51  1  0
 24 52  1  0
 25 53  1  0
 25 54  1  0
 27 55  1  0
 28 56  1  0
 29 57  1  0
 32 58  1  0
 35 59  1  0
M  END
$$$$
[H]c1nc(N([H])c2c([H])c([H])c(Cl)c([H])c2Cl)c2c(n1)c([H])c([H])c1nc(C(=O)N([H])[H])sc12
     RDKit          3D

 34 37  0  0  0  0  0  0  0  0999 V2000
    5.2910    2.4672   -1.7509 N   0  0  0  0  0  0  0  0  0  0  0  0
    3.9028    2.4502   -1.5689 C   0  0  0  0  0  0  0  0  0  0  0  0
    3.2133    3.4314   -1.8949 O   0  0  0  0  0  0  0  0  0  0  0  0
    3.2071    1.2840   -0.9908 C   0  0  0  0  0  0  0  0  0  0  0  0
    3.6992    0.1409   -0.5694 N   0  0  0  0  0  0  0  0  0  0  0  0
    2.9205   -0.7801   -0.0857 C   0  0  0  0  0  0  0  0  0  0  0  0
    3.3320   -2.0301    0.4112 C   0  0  0  0  0  0  0  0  0  0  0  0
    2.3913   -2.8915    0.9084 C   0  0  0  0  0  0  0  0  0  0  0  0
    1.0399   -2.6347    0.9658 C   0  0  0  0  0  0  0  0  0  0  0  0
    0.1719   -3.5133    1.4840 N   0  0  0  0  0  0  0  0  0  0  0  0
   -1.1459   -3.1765    1.5241 C   0  0  0  0  0  0  0  0  0  0  0  0
   -1.5074   -1.9989    1.0484 N   0  0  0  0  0  0  0  0  0  0  0  0
   -0.6958   -1.0605    0.5102 C   0  0  0  0  0  0  0  0  0  0  0  0
   -1.1881    0.1140   -0.0792 N   0  0  0  0  0  0  0  0  0  0  0  0
   -2.5378    0.5375    0.0664 C   0  0  0  0  0  0  0  0  0  0  0  0
   -3.3943    0.1137    1.0299 C   0  0  0  0  0  0  0  0  0  0  0  0
   -4.6741    0.6718    1.0717 C   0  0  0  0  0  0  0  0  0  0  0  0
   -5.0976    1.6220    0.1896 C   0  0  0  0  0  0  0  0  0  0  0  0
   -6.7177    2.2597    0.3235 Cl  0  0  0  0  0  0  0  0  0  0  0  0
   -4.2537    2.0695   -0.7929 C   0  0  0  0  0  0  0  0  0  0  0  0
   -2.9911    1.5236   -0.8411 C   0  0  0  0  0  0  0  0  0  0  0  0
   -1.9267    2.1029   -2.1229 Cl  0  0  0  0  0  0  0  0  0  0  0  0
    0.6334   -1.3884    0.4679 C   0  0  0  0  0  0  0  0  0  0  0  0
    1.5726   -0.5103   -0.0349 C   0  0  0  0  0  0  0  0  0  0  0  0
    1.5500    1.0635   -0.6946 S   0  0  0  0  0  0  0  0  0  0  0  0
    5.7921    3.3726   -1.8817 H   0  0  0  0  0  0  0  0  0  0  0  0
    5.8386    1.5575   -1.7562 H   0  0  0  0  0  0  0  0  0  0  0  0
    4.3801   -2.3322    0.4113 H   0  0  0  0  0  0  0  0  0  0  0  0
    2.6925   -3.8720    1.3015 H   0  0  0  0  0  0  0  0  0  0  0  0
   -1.8943   -3.8472    1.9334 H   0  0  0  0  0  0  0  0  0  0  0  0
   -0.6071    0.7049   -0.6619 H   0  0  0  0  0  0  0  0  0  0  0  0
   -3.1115   -0.6033    1.7599 H   0  0  0  0  0  0  0  0  0  0  0  0
   -5.3378    0.3225    1.8411 H   0  0  0  0  0  0  0  0  0  0  0  0
   -4.5475    2.8296   -1.5221 H   0  0  0  0  0  0  0  0  0  0  0  0
  1  2  1  0
  2  3  2  0
  2  4  1  0
  4  5  2  0
  5  6  1  0
  6  7  2  0
  7  8  1  0
  8  9  2  0
  9 10  1  0
 10 11  2  0
 11 12  1  0
 12 13  2  0
 13 14  1  0
 14 15  1  0
 15 16  2  0
 16 17  1  0
 17 18  2  0
 18 19  1  0
 18 20  1  0
 20 21  2  0
 21 22  1  0
 13 23  1  0
 23 24  2  0
 24 25  1  0
 25  4  1  0
 24  6  1  0
 23  9  1  0
 21 15  1  0
  1 26  1  0
  1 27  1  0
  7 28  1  0
  8 29  1  0
 11 30  1  0
 14 31  1  0
 16 32  1  0
 17 33  1  0
 20 34  1  0
M  END
$$$$
[H]N=C(OC([H])([H])[H])c1nc2c([H])c([H])c3nc([H])nc(N([H])c4c([H])c([H])c(Cl)c([H])c4F)c3c2s1
     RDKit          3D

 37 40  0  0  0  0  0  0  0  0999 V2000
    5.0957    2.6392   -1.2449 C   0  0  0  0  0  0  0  0  0  0  0  0
    4.0748    1.9456   -0.5324 O   0  0  0  0  0  0  0  0  0  0  0  0
    4.2564    0.6796   -0.0249 C   0  0  0  0  0  0  0  0  0  0  0  0
    5.4414    0.2542    0.2023 N   0  0  0  0  0  0  0  0  0  0  0  0
    3.1005   -0.2016    0.2635 C   0  0  0  0  0  0  0  0  0  0  0  0
    3.0894   -1.4268    0.7451 N   0  0  0  0  0  0  0  0  0  0  0  0
    1.9561   -2.0450    0.9306 C   0  0  0  0  0  0  0  0  0  0  0  0
    1.8108   -3.3466    1.4569 C   0  0  0  0  0  0  0  0  0  0  0  0
    0.5713   -3.8547    1.6132 C   0  0  0  0  0  0  0  0  0  0  0  0
   -0.5981   -3.1984    1.2954 C   0  0  0  0  0  0  0  0  0  0  0  0
   -1.8040   -3.7061    1.4787 N   0  0  0  0  0  0  0  0  0  0  0  0
   -2.8897   -2.9542    1.1493 C   0  0  0  0  0  0  0  0  0  0  0  0
   -2.7618   -1.7281    0.6489 N   0  0  0  0  0  0  0  0  0  0  0  0
   -1.5606   -1.1462    0.4335 C   0  0  0  0  0  0  0  0  0  0  0  0
   -1.4930    0.1086   -0.2125 N   0  0  0  0  0  0  0  0  0  0  0  0
   -2.5656    0.9998   -0.4757 C   0  0  0  0  0  0  0  0  0  0  0  0
   -3.7867    0.8841    0.0813 C   0  0  0  0  0  0  0  0  0  0  0  0
   -4.7924    1.8381   -0.1998 C   0  0  0  0  0  0  0  0  0  0  0  0
   -4.5362    2.8906   -1.0403 C   0  0  0  0  0  0  0  0  0  0  0  0
   -5.8152    4.0412   -1.3536 Cl  0  0  0  0  0  0  0  0  0  0  0  0
   -3.2836    3.0290   -1.6242 C   0  0  0  0  0  0  0  0  0  0  0  0
   -2.3325    2.0788   -1.3253 C   0  0  0  0  0  0  0  0  0  0  0  0
   -1.0915    2.1709   -1.8750 F   0  0  0  0  0  0  0  0  0  0  0  0
   -0.4770   -1.9171    0.7741 C   0  0  0  0  0  0  0  0  0  0  0  0
    0.8022   -1.3758    0.6075 C   0  0  0  0  0  0  0  0  0  0  0  0
    1.4495    0.1072    0.0578 S   0  0  0  0  0  0  0  0  0  0  0  0
    4.7123    3.6341   -1.5505 H   0  0  0  0  0  0  0  0  0  0  0  0
    5.3699    2.0854   -2.1759 H   0  0  0  0  0  0  0  0  0  0  0  0
    5.9961    2.8121   -0.6278 H   0  0  0  0  0  0  0  0  0  0  0  0
    6.2928    0.8055    0.0282 H   0  0  0  0  0  0  0  0  0  0  0  0
    2.6644   -3.9453    1.7372 H   0  0  0  0  0  0  0  0  0  0  0  0
    0.4421   -4.8648    2.0216 H   0  0  0  0  0  0  0  0  0  0  0  0
   -3.8667   -3.3978    1.3122 H   0  0  0  0  0  0  0  0  0  0  0  0
   -0.5489    0.3760   -0.5606 H   0  0  0  0  0  0  0  0  0  0  0  0
   -4.0867    0.1112    0.7726 H   0  0  0  0  0  0  0  0  0  0  0  0
   -5.7725    1.7572    0.2376 H   0  0  0  0  0  0  0  0  0  0  0  0
   -3.0632    3.8601   -2.2944 H   0  0  0  0  0  0  0  0  0  0  0  0
  1  2  1  0
  2  3  1  0
  3  4  2  3
  3  5  1  0
  5  6  2  0
  6  7  1  0
  7  8  2  0
  8  9  1  0
  9 10  2  0
 10 11  1  0
 11 12  2  0
 12 13  1  0
 13 14  2  0
 14 15  1  0
 15 16  1  0
 16 17  2  0
 17 18  1  0
 18 19  2  0
 19 20  1  0
 19 21  1  0
 21 22  2  0
 22 23  1  0
 14 24  1  0
 24 25  2  0
 25 26  1  0
 26  5  1  0
 25  7  1  0
 24 10  1  0
 22 16  1  0
  1 27  1  0
  1 28  1  0
  1 29  1  0
  4 30  1  0
  8 31  1  0
  9 32  1  0
 12 33  1  0
 15 34  1  0
 17 35  1  0
 18 36  1  0
 21 37  1  0
M  END
$$$$
[H]N=C(OC([H])([H])[H])c1nc2c([H])c([H])c3nc([H])nc(N([H])c4c([H])c([H])c([H])c(C#N)c4[H])c3c2s1
     RDKit          3D

 38 41  0  0  0  0  0  0  0  0999 V2000
    5.2967    3.1282    0.8931 C   0  0  0  0  0  0  0  0  0  0  0  0
    4.2873    2.1337    0.9616 O   0  0  0  0  0  0  0  0  0  0  0  0
    4.5039    0.8151    0.6795 C   0  0  0  0  0  0  0  0  0  0  0  0
    5.6832    0.3340    0.7034 N   0  0  0  0  0  0  0  0  0  0  0  0
    3.3894   -0.0991    0.3381 C   0  0  0  0  0  0  0  0  0  0  0  0
    3.4230   -1.3750    0.0447 N   0  0  0  0  0  0  0  0  0  0  0  0
    2.3237   -2.0130   -0.2320 C   0  0  0  0  0  0  0  0  0  0  0  0
    2.2177   -3.3829   -0.5559 C   0  0  0  0  0  0  0  0  0  0  0  0
    0.9913   -3.9145   -0.8158 C   0  0  0  0  0  0  0  0  0  0  0  0
   -0.1957   -3.2165   -0.7914 C   0  0  0  0  0  0  0  0  0  0  0  0
   -1.3878   -3.7622   -1.0425 N   0  0  0  0  0  0  0  0  0  0  0  0
   -2.5268   -3.0316   -0.9975 C   0  0  0  0  0  0  0  0  0  0  0  0
   -2.4172   -1.7429   -0.6931 N   0  0  0  0  0  0  0  0  0  0  0  0
   -1.2204   -1.1055   -0.4212 C   0  0  0  0  0  0  0  0  0  0  0  0
   -1.2043    0.2715   -0.1729 N   0  0  0  0  0  0  0  0  0  0  0  0
   -2.4306    1.0215   -0.0590 C   0  0  0  0  0  0  0  0  0  0  0  0
   -2.4522    2.3446   -0.5172 C   0  0  0  0  0  0  0  0  0  0  0  0
   -3.5689    3.1464   -0.4151 C   0  0  0  0  0  0  0  0  0  0  0  0
   -4.7099    2.6440    0.1545 C   0  0  0  0  0  0  0  0  0  0  0  0
   -4.7251    1.3555    0.6139 C   0  0  0  0  0  0  0  0  0  0  0  0
   -3.5786    0.5540    0.5019 C   0  0  0  0  0  0  0  0  0  0  0  0
   -5.9221    0.8140    1.2165 C   0  0  0  0  0  0  0  0  0  0  0  0
   -6.8851    0.3780    1.6936 N   0  0  0  0  0  0  0  0  0  0  0  0
   -0.0850   -1.8629   -0.4714 C   0  0  0  0  0  0  0  0  0  0  0  0
    1.1487   -1.3077   -0.2048 C   0  0  0  0  0  0  0  0  0  0  0  0
    1.7286    0.2492    0.2259 S   0  0  0  0  0  0  0  0  0  0  0  0
    5.6506    3.1145   -0.1771 H   0  0  0  0  0  0  0  0  0  0  0  0
    6.1667    2.9128    1.5190 H   0  0  0  0  0  0  0  0  0  0  0  0
    4.8685    4.1406    1.0355 H   0  0  0  0  0  0  0  0  0  0  0  0
    5.9508   -0.6449    0.5063 H   0  0  0  0  0  0  0  0  0  0  0  0
    3.1000   -4.0149   -0.5999 H   0  0  0  0  0  0  0  0  0  0  0  0
    0.8748   -4.9830   -1.0720 H   0  0  0  0  0  0  0  0  0  0  0  0
   -3.4984   -3.4642   -1.1989 H   0  0  0  0  0  0  0  0  0  0  0  0
   -0.3698    0.8284   -0.0726 H   0  0  0  0  0  0  0  0  0  0  0  0
   -1.5531    2.7708   -0.9767 H   0  0  0  0  0  0  0  0  0  0  0  0
   -3.5935    4.1630   -0.7645 H   0  0  0  0  0  0  0  0  0  0  0  0
   -5.6168    3.2513    0.2524 H   0  0  0  0  0  0  0  0  0  0  0  0
   -3.6639   -0.4504    0.9119 H   0  0  0  0  0  0  0  0  0  0  0  0
  1  2  1  0
  2  3  1  0
  3  4  2  3
  3  5  1  0
  5  6  2  0
  6  7  1  0
  7  8  2  0
  8  9  1  0
  9 10  2  0
 10 11  1  0
 11 12  2  0
 12 13  1  0
 13 14  2  0
 14 15  1  0
 15 16  1  0
 16 17  2  0
 17 18  1  0
 18 19  2  0
 19 20  1  0
 20 21  2  0
 20 22  1  0
 22 23  3  0
 14 24  1  0
 24 25  2  0
 25 26  1  0
 26  5  1  0
 25  7  1  0
 24 10  1  0
 21 16  1  0
  1 27  1  0
  1 28  1  0
  1 29  1  0
  4 30  1  0
  8 31  1  0
  9 32  1  0
 12 33  1  0
 15 34  1  0
 17 35  1  0
 18 36  1  0
 19 37  1  0
 21 38  1  0
M  END
$$$$
[H]c1nc([H])c(N([H])C(=O)C2([H])C([H])([H])C2([H])[H])c([H])c1-c1sc([H])c(-c2c([H])nn(C([H])([H])[H])c2[H])c1[H]
     RDKit          3D

 39 42  0  0  0  0  0  0  0  0999 V2000
    5.9851   -0.4260    3.6110 C   0  0  0  0  0  0  0  0  0  0  0  0
    4.8792   -0.0194    2.7669 N   0  0  0  0  0  0  0  0  0  0  0  0
    4.7374   -0.4069    1.4668 C   0  0  0  0  0  0  0  0  0  0  0  0
    3.5931    0.1478    0.9564 C   0  0  0  0  0  0  0  0  0  0  0  0
    3.0287    0.8850    1.9611 C   0  0  0  0  0  0  0  0  0  0  0  0
    3.8460    0.7513    3.0370 N   0  0  0  0  0  0  0  0  0  0  0  0
    3.0158    0.0206   -0.4069 C   0  0  0  0  0  0  0  0  0  0  0  0
    3.8511   -0.1308   -1.4820 C   0  0  0  0  0  0  0  0  0  0  0  0
    2.7735   -0.2380   -2.7959 S   0  0  0  0  0  0  0  0  0  0  0  0
    1.2978   -0.0899   -1.9614 C   0  0  0  0  0  0  0  0  0  0  0  0
    1.6884    0.0413   -0.6606 C   0  0  0  0  0  0  0  0  0  0  0  0
   -0.0464   -0.1046   -2.5306 C   0  0  0  0  0  0  0  0  0  0  0  0
   -0.2441   -0.2540   -3.8821 C   0  0  0  0  0  0  0  0  0  0  0  0
   -1.4726   -0.2688   -4.4225 N   0  0  0  0  0  0  0  0  0  0  0  0
   -2.5635   -0.1400   -3.6786 C   0  0  0  0  0  0  0  0  0  0  0  0
   -2.4694    0.0180   -2.2858 C   0  0  0  0  0  0  0  0  0  0  0  0
   -3.6603    0.1677   -1.5543 N   0  0  0  0  0  0  0  0  0  0  0  0
   -3.8340    0.0602   -0.1664 C   0  0  0  0  0  0  0  0  0  0  0  0
   -2.8838   -0.2001    0.5941 O   0  0  0  0  0  0  0  0  0  0  0  0
   -5.1944    0.2590    0.4569 C   0  0  0  0  0  0  0  0  0  0  0  0
   -5.5543   -0.7479    1.5200 C   0  0  0  0  0  0  0  0  0  0  0  0
   -5.2894    0.7019    1.8613 C   0  0  0  0  0  0  0  0  0  0  0  0
   -1.1923    0.0292   -1.7642 C   0  0  0  0  0  0  0  0  0  0  0  0
    5.8516   -1.4601    3.9925 H   0  0  0  0  0  0  0  0  0  0  0  0
    6.1132    0.2775    4.4441 H   0  0  0  0  0  0  0  0  0  0  0  0
    6.9333   -0.3510    3.0051 H   0  0  0  0  0  0  0  0  0  0  0  0
    5.4032   -1.0393    0.9234 H   0  0  0  0  0  0  0  0  0  0  0  0
    2.1052    1.4790    1.9439 H   0  0  0  0  0  0  0  0  0  0  0  0
    4.9601   -0.1694   -1.4589 H   0  0  0  0  0  0  0  0  0  0  0  0
    0.9090    0.1594    0.1320 H   0  0  0  0  0  0  0  0  0  0  0  0
    0.6478   -0.3602   -4.4961 H   0  0  0  0  0  0  0  0  0  0  0  0
   -3.5773   -0.1540   -4.1214 H   0  0  0  0  0  0  0  0  0  0  0  0
   -4.5472    0.3997   -2.1284 H   0  0  0  0  0  0  0  0  0  0  0  0
   -6.0271    0.4897   -0.2309 H   0  0  0  0  0  0  0  0  0  0  0  0
   -4.8109   -1.5175    1.7952 H   0  0  0  0  0  0  0  0  0  0  0  0
   -6.6100   -1.0676    1.6337 H   0  0  0  0  0  0  0  0  0  0  0  0
   -6.1730    1.3344    2.1337 H   0  0  0  0  0  0  0  0  0  0  0  0
   -4.4171    0.8819    2.4933 H   0  0  0  0  0  0  0  0  0  0  0  0
   -1.0521    0.1585   -0.7015 H   0  0  0  0  0  0  0  0  0  0  0  0
  1  2  1  0
  2  3  1  0
  3  4  2  0
  4  5  1  0
  5  6  2  0
  4  7  1  0
  7  8  2  0
  8  9  1  0
  9 10  1  0
 10 11  2  0
 10 12  1  0
 12 13  2  0
 13 14  1  0
 14 15  2  0
 15 16  1  0
 16 17  1  0
 17 18  1  0
 18 19  2  0
 18 20  1  0
 20 21  1  0
 21 22  1  0
 16 23  2  0
  6  2  1  0
 11  7  1  0
 23 12  1  0
 22 20  1  0
  1 24  1  0
  1 25  1  0
  1 26  1  0
  3 27  1  0
  5 28  1  0
  8 29  1  0
 11 30  1  0
 13 31  1  0
 15 32  1  0
 17 33  1  0
 20 34  1  0
 21 35  1  0
 21 36  1  0
 22 37  1  0
 22 38  1  0
 23 39  1  0
M  END
$$$$
[H]c1sc(-c2c([H])c([H])c3c(c2[H])C([H])([H])C([H])([H])O3)nc1C(=O)N([H])c1nc(SC([H])(C([H])([H])[H])C([H])([H])[H])nn1[H]
     RDKit          3D

 43 46  0  0  0  0  0  0  0  0999 V2000
    6.8857   -1.2851    1.7583 C   0  0  0  0  0  0  0  0  0  0  0  0
    7.3217   -0.6353    0.4748 C   0  0  0  0  0  0  0  0  0  0  0  0
    8.8082   -0.3472    0.5764 C   0  0  0  0  0  0  0  0  0  0  0  0
    6.4635    0.9054    0.1251 S   0  0  0  0  0  0  0  0  0  0  0  0
    4.7331    0.6627   -0.1897 C   0  0  0  0  0  0  0  0  0  0  0  0
    3.8929    1.6604   -0.4742 N   0  0  0  0  0  0  0  0  0  0  0  0
    2.6747    1.1458   -0.6542 N   0  0  0  0  0  0  0  0  0  0  0  0
    2.6874   -0.1645   -0.4975 C   0  0  0  0  0  0  0  0  0  0  0  0
    1.7197   -1.1911   -0.5169 N   0  0  0  0  0  0  0  0  0  0  0  0
    0.3952   -1.2962   -0.7792 C   0  0  0  0  0  0  0  0  0  0  0  0
   -0.1333   -2.4811   -0.5014 O   0  0  0  0  0  0  0  0  0  0  0  0
   -0.5873   -0.3305   -1.3239 C   0  0  0  0  0  0  0  0  0  0  0  0
   -0.2927    0.5922   -2.2907 C   0  0  0  0  0  0  0  0  0  0  0  0
   -1.7643    1.4285   -2.4695 S   0  0  0  0  0  0  0  0  0  0  0  0
   -2.6802    0.5627   -1.3067 C   0  0  0  0  0  0  0  0  0  0  0  0
   -1.8159   -0.3073   -0.8534 N   0  0  0  0  0  0  0  0  0  0  0  0
   -4.0971    0.7661   -0.9222 C   0  0  0  0  0  0  0  0  0  0  0  0
   -4.8342    1.7538   -1.5261 C   0  0  0  0  0  0  0  0  0  0  0  0
   -6.1735    1.9390   -1.1550 C   0  0  0  0  0  0  0  0  0  0  0  0
   -6.7770    1.1554   -0.1966 C   0  0  0  0  0  0  0  0  0  0  0  0
   -8.0754    1.1285    0.3509 O   0  0  0  0  0  0  0  0  0  0  0  0
   -8.2911   -0.1914    0.8705 C   0  0  0  0  0  0  0  0  0  0  0  0
   -6.9069   -0.5091    1.3825 C   0  0  0  0  0  0  0  0  0  0  0  0
   -6.0292    0.1701    0.4010 C   0  0  0  0  0  0  0  0  0  0  0  0
   -4.6849   -0.0192    0.0315 C   0  0  0  0  0  0  0  0  0  0  0  0
    4.0084   -0.4504   -0.2015 N   0  0  0  0  0  0  0  0  0  0  0  0
    5.9217   -1.8034    1.6255 H   0  0  0  0  0  0  0  0  0  0  0  0
    7.6369   -2.0918    1.9761 H   0  0  0  0  0  0  0  0  0  0  0  0
    6.8988   -0.5557    2.5736 H   0  0  0  0  0  0  0  0  0  0  0  0
    7.1597   -1.3370   -0.3466 H   0  0  0  0  0  0  0  0  0  0  0  0
    9.0420    0.1375    1.5635 H   0  0  0  0  0  0  0  0  0  0  0  0
    9.4283   -1.2400    0.4560 H   0  0  0  0  0  0  0  0  0  0  0  0
    9.0921    0.3742   -0.2113 H   0  0  0  0  0  0  0  0  0  0  0  0
    1.8737    1.7547   -0.8648 H   0  0  0  0  0  0  0  0  0  0  0  0
    2.1487   -2.1493   -0.1245 H   0  0  0  0  0  0  0  0  0  0  0  0
    0.6630    0.7492   -2.8283 H   0  0  0  0  0  0  0  0  0  0  0  0
   -4.3881    2.3846   -2.2814 H   0  0  0  0  0  0  0  0  0  0  0  0
   -6.7519    2.7144   -1.6287 H   0  0  0  0  0  0  0  0  0  0  0  0
   -8.5258   -0.9160    0.0694 H   0  0  0  0  0  0  0  0  0  0  0  0
   -9.0429   -0.1685    1.6871 H   0  0  0  0  0  0  0  0  0  0  0  0
   -6.7116   -1.5992    1.3197 H   0  0  0  0  0  0  0  0  0  0  0  0
   -6.7643   -0.1193    2.4135 H   0  0  0  0  0  0  0  0  0  0  0  0
   -4.1280   -0.7968    0.5163 H   0  0  0  0  0  0  0  0  0  0  0  0
  1  2  1  0
  2  3  1  0
  2  4  1  0
  4  5  1  0
  5  6  2  0
  6  7  1  0
  7  8  1  0
  8  9  1  0
  9 10  1  0
 10 11  2  0
 10 12  1  0
 12 13  2  0
 13 14  1  0
 14 15  1  0
 15 16  2  0
 15 17  1  0
 17 18  2  0
 18 19  1  0
 19 20  2  0
 20 21  1  0
 21 22  1  0
 22 23  1  0
 23 24  1  0
 24 25  2  0
  8 26  2  0
 26  5  1  0
 16 12  1  0
 25 17  1  0
 24 20  1  0
  1 27  1  0
  1 28  1  0
  1 29  1  0
  2 30  1  0
  3 31  1  0
  3 32  1  0
  3 33  1  0
  7 34  1  0
  9 35  1  0
 13 36  1  0
 18 37  1  0
 19 38  1  0
 22 39  1  0
 22 40  1  0
 23 41  1  0
 23 42  1  0
 25 43  1  0
M  END
$$$$
[H]Oc1c([H])c([H])c(-c2c([H])nc3c(c2[H])c(-c2c([H])c([H])c(O[H])c([H])c2[H])c([H])n3[H])c([H])c1[H]
     RDKit          3D

 37 40  0  0  0  0  0  0  0  0999 V2000
    5.2877    1.7907    2.0912 O   0  0  0  0  0  0  0  0  0  0  0  0
    4.4222    0.9631    1.4287 C   0  0  0  0  0  0  0  0  0  0  0  0
    4.7184    0.5825    0.1332 C   0  0  0  0  0  0  0  0  0  0  0  0
    3.8946   -0.2405   -0.5782 C   0  0  0  0  0  0  0  0  0  0  0  0
    2.7313   -0.7188   -0.0143 C   0  0  0  0  0  0  0  0  0  0  0  0
    2.4176   -0.3470    1.2869 C   0  0  0  0  0  0  0  0  0  0  0  0
    3.2537    0.4712    1.9694 C   0  0  0  0  0  0  0  0  0  0  0  0
    1.8396   -1.6037   -0.7484 C   0  0  0  0  0  0  0  0  0  0  0  0
    2.1795   -2.7295   -1.4539 C   0  0  0  0  0  0  0  0  0  0  0  0
    1.0641   -3.2781   -1.9867 N   0  0  0  0  0  0  0  0  0  0  0  0
   -0.0066   -2.5302   -1.6430 C   0  0  0  0  0  0  0  0  0  0  0  0
   -1.3167   -2.6381   -1.9116 N   0  0  0  0  0  0  0  0  0  0  0  0
   -2.1646   -1.7145   -1.4203 C   0  0  0  0  0  0  0  0  0  0  0  0
   -1.7452   -0.6566   -0.6491 C   0  0  0  0  0  0  0  0  0  0  0  0
   -0.4051   -0.5431   -0.3720 C   0  0  0  0  0  0  0  0  0  0  0  0
    0.4841   -1.4733   -0.8612 C   0  0  0  0  0  0  0  0  0  0  0  0
   -2.6508    0.3485   -0.1148 C   0  0  0  0  0  0  0  0  0  0  0  0
   -2.4486    1.0105    1.0779 C   0  0  0  0  0  0  0  0  0  0  0  0
   -3.3069    1.9649    1.5827 C   0  0  0  0  0  0  0  0  0  0  0  0
   -4.4373    2.2855    0.8624 C   0  0  0  0  0  0  0  0  0  0  0  0
   -5.2855    3.2501    1.3926 O   0  0  0  0  0  0  0  0  0  0  0  0
   -4.6804    1.6526   -0.3308 C   0  0  0  0  0  0  0  0  0  0  0  0
   -3.8084    0.6999   -0.8181 C   0  0  0  0  0  0  0  0  0  0  0  0
    5.2498    2.8045    2.0889 H   0  0  0  0  0  0  0  0  0  0  0  0
    5.6480    0.9590   -0.3314 H   0  0  0  0  0  0  0  0  0  0  0  0
    4.1757   -0.5026   -1.5812 H   0  0  0  0  0  0  0  0  0  0  0  0
    1.4865   -0.7491    1.7063 H   0  0  0  0  0  0  0  0  0  0  0  0
    2.9993    0.7566    2.9859 H   0  0  0  0  0  0  0  0  0  0  0  0
    3.1544   -3.1511   -1.5931 H   0  0  0  0  0  0  0  0  0  0  0  0
    1.0099   -4.1297   -2.5664 H   0  0  0  0  0  0  0  0  0  0  0  0
   -3.2471   -1.7558   -1.6098 H   0  0  0  0  0  0  0  0  0  0  0  0
   -0.0637    0.2672    0.2182 H   0  0  0  0  0  0  0  0  0  0  0  0
   -1.5727    0.7665    1.6427 H   0  0  0  0  0  0  0  0  0  0  0  0
   -3.1199    2.4725    2.5318 H   0  0  0  0  0  0  0  0  0  0  0  0
   -6.1358    3.5511    0.9384 H   0  0  0  0  0  0  0  0  0  0  0  0
   -5.5873    1.9390   -0.8663 H   0  0  0  0  0  0  0  0  0  0  0  0
   -4.0338    0.2259   -1.7570 H   0  0  0  0  0  0  0  0  0  0  0  0
  1  2  1  0
  2  3  2  0
  3  4  1  0
  4  5  2  0
  5  6  1  0
  6  7  2  0
  5  8  1  0
  8  9  2  0
  9 10  1  0
 10 11  1  0
 11 12  2  0
 12 13  1  0
 13 14  2  0
 14 15  1  0
 15 16  2  0
 14 17  1  0
 17 18  2  0
 18 19  1  0
 19 20  2  0
 20 21  1  0
 20 22  1  0
 22 23  2  0
  7  2  1  0
 16  8  1  0
 23 17  1  0
 16 11  1  0
  1 24  1  0
  3 25  1  0
  4 26  1  0
  6 27  1  0
  7 28  1  0
  9 29  1  0
 10 30  1  0
 13 31  1  0
 15 32  1  0
 18 33  1  0
 19 34  1  0
 21 35  1  0
 22 36  1  0
 23 37  1  0
M  END
$$$$
[H]N=C(OC([H])([H])C([H])([H])[H])c1nc2c([H])c([H])c3nc([H])nc(N([H])c4c([H])c([H])c(Br)c([H])c4F)c3c2s1
     RDKit          3D

 40 43  0  0  0  0  0  0  0  0999 V2000
    5.6492    2.1837    0.1194 C   0  0  0  0  0  0  0  0  0  0  0  0
    5.7192    1.7738   -1.3114 C   0  0  0  0  0  0  0  0  0  0  0  0
    4.7444    0.7396   -1.5171 O   0  0  0  0  0  0  0  0  0  0  0  0
    3.4373    1.0364   -1.2703 C   0  0  0  0  0  0  0  0  0  0  0  0
    3.0063    2.2375   -1.3701 N   0  0  0  0  0  0  0  0  0  0  0  0
    2.4637   -0.0074   -0.8785 C   0  0  0  0  0  0  0  0  0  0  0  0
    2.6396   -1.3018   -0.7058 N   0  0  0  0  0  0  0  0  0  0  0  0
    1.6396   -2.0573   -0.3525 C   0  0  0  0  0  0  0  0  0  0  0  0
    1.7052   -3.4529   -0.1194 C   0  0  0  0  0  0  0  0  0  0  0  0
    0.5733   -4.1013    0.2635 C   0  0  0  0  0  0  0  0  0  0  0  0
   -0.6495   -3.4942    0.4435 C   0  0  0  0  0  0  0  0  0  0  0  0
   -1.7389   -4.1549    0.8415 N   0  0  0  0  0  0  0  0  0  0  0  0
   -2.8946   -3.4906    1.0166 C   0  0  0  0  0  0  0  0  0  0  0  0
   -2.9623   -2.1827    0.7959 N   0  0  0  0  0  0  0  0  0  0  0  0
   -1.9119   -1.4299    0.3897 C   0  0  0  0  0  0  0  0  0  0  0  0
   -2.0461   -0.0650    0.0732 N   0  0  0  0  0  0  0  0  0  0  0  0
   -3.1741    0.7644    0.3064 C   0  0  0  0  0  0  0  0  0  0  0  0
   -4.2510    0.4291    1.0607 C   0  0  0  0  0  0  0  0  0  0  0  0
   -5.3284    1.3089    1.2828 C   0  0  0  0  0  0  0  0  0  0  0  0
   -5.3309    2.5663    0.7341 C   0  0  0  0  0  0  0  0  0  0  0  0
   -6.7942    3.7582    1.0370 Br  0  0  0  0  0  0  0  0  0  0  0  0
   -4.2529    2.9289   -0.0317 C   0  0  0  0  0  0  0  0  0  0  0  0
   -3.2152    2.0621   -0.2376 C   0  0  0  0  0  0  0  0  0  0  0  0
   -2.1765    2.4662   -1.0007 F   0  0  0  0  0  0  0  0  0  0  0  0
   -0.7414   -2.1348    0.2211 C   0  0  0  0  0  0  0  0  0  0  0  0
    0.4178   -1.4583   -0.1719 C   0  0  0  0  0  0  0  0  0  0  0  0
    0.8152    0.1633   -0.5292 S   0  0  0  0  0  0  0  0  0  0  0  0
    4.6972    1.8835    0.5628 H   0  0  0  0  0  0  0  0  0  0  0  0
    5.8244    3.2667    0.2828 H   0  0  0  0  0  0  0  0  0  0  0  0
    6.4726    1.6459    0.6608 H   0  0  0  0  0  0  0  0  0  0  0  0
    5.4860    2.6598   -1.9349 H   0  0  0  0  0  0  0  0  0  0  0  0
    6.7226    1.4332   -1.5893 H   0  0  0  0  0  0  0  0  0  0  0  0
    2.0074    2.4354   -1.1767 H   0  0  0  0  0  0  0  0  0  0  0  0
    2.6161   -4.0077   -0.2356 H   0  0  0  0  0  0  0  0  0  0  0  0
    0.6469   -5.1896    0.4405 H   0  0  0  0  0  0  0  0  0  0  0  0
   -3.7861   -4.0532    1.3475 H   0  0  0  0  0  0  0  0  0  0  0  0
   -1.2763    0.4146   -0.4086 H   0  0  0  0  0  0  0  0  0  0  0  0
   -4.3273   -0.5111    1.5393 H   0  0  0  0  0  0  0  0  0  0  0  0
   -6.1751    1.0198    1.8862 H   0  0  0  0  0  0  0  0  0  0  0  0
   -4.2512    3.9155   -0.4638 H   0  0  0  0  0  0  0  0  0  0  0  0
  1  2  1  0
  2  3  1  0
  3  4  1  0
  4  5  2  3
  4  6  1  0
  6  7  2  0
  7  8  1  0
  8  9  2  0
  9 10  1  0
 10 11  2  0
 11 12  1  0
 12 13  2  0
 13 14  1  0
 14 15  2  0
 15 16  1  0
 16 17  1  0
 17 18  2  0
 18 19  1  0
 19 20  2  0
 20 21  1  0
 20 22  1  0
 22 23  2  0
 23 24  1  0
 15 25  1  0
 25 26  2  0
 26 27  1  0
 27  6  1  0
 26  8  1  0
 25 11  1  0
 23 17  1  0
  1 28  1  0
  1 29  1  0
  1 30  1  0
  2 31  1  0
  2 32  1  0
  5 33  1  0
  9 34  1  0
 10 35  1  0
 13 36  1  0
 16 37  1  0
 18 38  1  0
 19 39  1  0
 22 40  1  0
M  END
$$$$
[H]c1nc([H])c(-c2c([H])sc(-c3c([H])nc([H])c(N([H])C(=O)C4([H])C([H])([H])C4([H])[H])c3[H])c2[H])c([H])c1[H]
     RDKit          3D

 38 41  0  0  0  0  0  0  0  0999 V2000
    5.1572    1.4504   -0.2622 O   0  0  0  0  0  0  0  0  0  0  0  0
    4.8565    0.4001    0.3340 C   0  0  0  0  0  0  0  0  0  0  0  0
    3.5779   -0.1417    0.4450 N   0  0  0  0  0  0  0  0  0  0  0  0
    2.3865    0.3779   -0.0886 C   0  0  0  0  0  0  0  0  0  0  0  0
    2.3071    1.4225   -0.9636 C   0  0  0  0  0  0  0  0  0  0  0  0
    1.1148    1.8988   -1.4441 N   0  0  0  0  0  0  0  0  0  0  0  0
   -0.0264    1.3394   -1.0595 C   0  0  0  0  0  0  0  0  0  0  0  0
   -0.0034    0.2903   -0.1853 C   0  0  0  0  0  0  0  0  0  0  0  0
    1.1744   -0.1913    0.2988 C   0  0  0  0  0  0  0  0  0  0  0  0
   -1.2990   -0.3058    0.2191 C   0  0  0  0  0  0  0  0  0  0  0  0
   -2.5639    0.0368   -0.1543 C   0  0  0  0  0  0  0  0  0  0  0  0
   -3.5767   -0.6670    0.3596 C   0  0  0  0  0  0  0  0  0  0  0  0
   -3.2634   -1.6813    1.2246 C   0  0  0  0  0  0  0  0  0  0  0  0
   -1.5631   -1.6195    1.2924 S   0  0  0  0  0  0  0  0  0  0  0  0
   -5.0111   -0.4059    0.0415 C   0  0  0  0  0  0  0  0  0  0  0  0
   -6.0033   -0.6462    0.9656 C   0  0  0  0  0  0  0  0  0  0  0  0
   -7.3200   -0.3936    0.6384 C   0  0  0  0  0  0  0  0  0  0  0  0
   -7.6647    0.0996   -0.6082 C   0  0  0  0  0  0  0  0  0  0  0  0
   -6.6517    0.3123   -1.4630 N   0  0  0  0  0  0  0  0  0  0  0  0
   -5.3672    0.0850   -1.1957 C   0  0  0  0  0  0  0  0  0  0  0  0
    6.0376   -0.3078    0.9782 C   0  0  0  0  0  0  0  0  0  0  0  0
    7.2794   -0.3088    0.0882 C   0  0  0  0  0  0  0  0  0  0  0  0
    7.2154    0.4706    1.3830 C   0  0  0  0  0  0  0  0  0  0  0  0
    3.5066   -1.0694    1.0060 H   0  0  0  0  0  0  0  0  0  0  0  0
    3.2134    1.9159   -1.3208 H   0  0  0  0  0  0  0  0  0  0  0  0
   -0.9851    1.7248   -1.4478 H   0  0  0  0  0  0  0  0  0  0  0  0
    1.1805   -1.0260    0.9937 H   0  0  0  0  0  0  0  0  0  0  0  0
   -2.7096    0.8801   -0.8655 H   0  0  0  0  0  0  0  0  0  0  0  0
   -3.9484   -2.3711    1.7498 H   0  0  0  0  0  0  0  0  0  0  0  0
   -5.7304   -1.0375    1.9550 H   0  0  0  0  0  0  0  0  0  0  0  0
   -8.1028   -0.5792    1.3567 H   0  0  0  0  0  0  0  0  0  0  0  0
   -8.7014    0.2918   -0.8477 H   0  0  0  0  0  0  0  0  0  0  0  0
   -4.5676    0.2736   -1.9269 H   0  0  0  0  0  0  0  0  0  0  0  0
    5.7823   -1.2282    1.5062 H   0  0  0  0  0  0  0  0  0  0  0  0
    7.2830    0.2975   -0.8289 H   0  0  0  0  0  0  0  0  0  0  0  0
    7.9028   -1.2166    0.0571 H   0  0  0  0  0  0  0  0  0  0  0  0
    7.8148    0.0575    2.2309 H   0  0  0  0  0  0  0  0  0  0  0  0
    7.2688    1.5720    1.3369 H   0  0  0  0  0  0  0  0  0  0  0  0
  1  2  2  0
  2  3  1  0
  3  4  1  0
  4  5  2  0
  5  6  1  0
  6  7  2  0
  7  8  1  0
  8  9  2  0
  8 10  1  0
 10 11  2  0
 11 12  1  0
 12 13  2  0
 13 14  1  0
 12 15  1  0
 15 16  2  0
 16 17  1  0
 17 18  2  0
 18 19  1  0
 19 20  2  0
  2 21  1  0
 21 22  1  0
 22 23  1  0
  9  4  1  0
 14 10  1  0
 20 15  1  0
 23 21  1  0
  3 24  1  0
  5 25  1  0
  7 26  1  0
  9 27  1  0
 11 28  1  0
 13 29  1  0
 16 30  1  0
 17 31  1  0
 18 32  1  0
 20 33  1  0
 21 34  1  0
 22 35  1  0
 22 36  1  0
 23 37  1  0
 23 38  1  0
M  END
$$$$
[H]c1sc(-c2c([H])c([H])c3c(c2[H])C([H])([H])C([H])([H])O3)nc1C(=O)N([H])c1nnc(N2C([H])([H])C([H])([H])C([H])([H])C([H])([H])C2([H])[H])s1
     RDKit          3D

 47 51  0  0  0  0  0  0  0  0999 V2000
   -0.2020    2.1094    2.4387 O   0  0  0  0  0  0  0  0  0  0  0  0
    0.4055    1.3808    1.6151 C   0  0  0  0  0  0  0  0  0  0  0  0
   -0.2974    0.5054    0.7825 N   0  0  0  0  0  0  0  0  0  0  0  0
   -1.7335    0.4627    0.8952 C   0  0  0  0  0  0  0  0  0  0  0  0
   -2.5221    1.1587    1.7046 N   0  0  0  0  0  0  0  0  0  0  0  0
   -3.7703    0.9930    1.6689 N   0  0  0  0  0  0  0  0  0  0  0  0
   -4.3057    0.1195    0.8199 C   0  0  0  0  0  0  0  0  0  0  0  0
   -2.8817   -0.4749    0.0466 S   0  0  0  0  0  0  0  0  0  0  0  0
   -5.6678   -0.2224    0.6137 N   0  0  0  0  0  0  0  0  0  0  0  0
   -6.0264   -1.2064   -0.3695 C   0  0  0  0  0  0  0  0  0  0  0  0
   -6.9459   -0.6052   -1.3943 C   0  0  0  0  0  0  0  0  0  0  0  0
   -7.9348    0.3250   -0.7741 C   0  0  0  0  0  0  0  0  0  0  0  0
   -8.0479    0.2077    0.7155 C   0  0  0  0  0  0  0  0  0  0  0  0
   -6.6934    0.4162    1.3891 C   0  0  0  0  0  0  0  0  0  0  0  0
    1.8888    1.4312    1.5052 C   0  0  0  0  0  0  0  0  0  0  0  0
    2.6110    2.2822    2.3110 C   0  0  0  0  0  0  0  0  0  0  0  0
    4.2105    1.9628    1.8038 S   0  0  0  0  0  0  0  0  0  0  0  0
    3.8705    0.7862    0.6175 C   0  0  0  0  0  0  0  0  0  0  0  0
    2.5534    0.6990    0.6710 N   0  0  0  0  0  0  0  0  0  0  0  0
    4.8251    0.0629   -0.2389 C   0  0  0  0  0  0  0  0  0  0  0  0
    4.4263   -0.8693   -1.1651 C   0  0  0  0  0  0  0  0  0  0  0  0
    5.3814   -1.5227   -1.9489 C   0  0  0  0  0  0  0  0  0  0  0  0
    6.7169   -1.2431   -1.8035 C   0  0  0  0  0  0  0  0  0  0  0  0
    7.8344   -1.7545   -2.4565 O   0  0  0  0  0  0  0  0  0  0  0  0
    8.9765   -1.5377   -1.6236 C   0  0  0  0  0  0  0  0  0  0  0  0
    8.6023   -0.2337   -0.9646 C   0  0  0  0  0  0  0  0  0  0  0  0
    7.1265   -0.3109   -0.8787 C   0  0  0  0  0  0  0  0  0  0  0  0
    6.1651    0.3327   -0.1044 C   0  0  0  0  0  0  0  0  0  0  0  0
    0.1864   -0.1082    0.0920 H   0  0  0  0  0  0  0  0  0  0  0  0
   -5.1485   -1.6834   -0.8459 H   0  0  0  0  0  0  0  0  0  0  0  0
   -6.6137   -1.9954    0.1643 H   0  0  0  0  0  0  0  0  0  0  0  0
   -7.4165   -1.4290   -1.9685 H   0  0  0  0  0  0  0  0  0  0  0  0
   -6.3697   -0.0117   -2.1575 H   0  0  0  0  0  0  0  0  0  0  0  0
   -7.7204    1.3992   -1.0009 H   0  0  0  0  0  0  0  0  0  0  0  0
   -8.9466    0.1032   -1.1936 H   0  0  0  0  0  0  0  0  0  0  0  0
   -8.4846   -0.7706    0.9799 H   0  0  0  0  0  0  0  0  0  0  0  0
   -8.7215    1.0047    1.0780 H   0  0  0  0  0  0  0  0  0  0  0  0
   -6.7864   -0.0236    2.4163 H   0  0  0  0  0  0  0  0  0  0  0  0
   -6.5514    1.5135    1.4684 H   0  0  0  0  0  0  0  0  0  0  0  0
    2.2379    2.9818    3.0792 H   0  0  0  0  0  0  0  0  0  0  0  0
    3.3695   -1.0672   -1.2559 H   0  0  0  0  0  0  0  0  0  0  0  0
    5.0428   -2.2402   -2.6583 H   0  0  0  0  0  0  0  0  0  0  0  0
    9.8924   -1.4749   -2.2281 H   0  0  0  0  0  0  0  0  0  0  0  0
    9.0035   -2.3757   -0.9027 H   0  0  0  0  0  0  0  0  0  0  0  0
    9.0405   -0.1417    0.0536 H   0  0  0  0  0  0  0  0  0  0  0  0
    8.9438    0.5989   -1.6118 H   0  0  0  0  0  0  0  0  0  0  0  0
    6.4771    1.0571    0.6152 H   0  0  0  0  0  0  0  0  0  0  0  0
  1  2  2  0
  2  3  1  0
  3  4  1  0
  4  5  2  0
  5  6  1  0
  6  7  2  0
  7  8  1  0
  7  9  1  0
  9 10  1  0
 10 11  1  0
 11 12  1  0
 12 13  1  0
 13 14  1  0
  2 15  1  0
 15 16  2  0
 16 17  1  0
 17 18  1  0
 18 19  2  0
 18 20  1  0
 20 21  2  0
 21 22  1  0
 22 23  2  0
 23 24  1  0
 24 25  1  0
 25 26  1  0
 26 27  1  0
 27 28  2  0
  8  4  1  0
 14  9  1  0
 19 15  1  0
 28 20  1  0
 27 23  1  0
  3 29  1  0
 10 30  1  0
 10 31  1  0
 11 32  1  0
 11 33  1  0
 12 34  1  0
 12 35  1  0
 13 36  1  0
 13 37  1  0
 14 38  1  0
 14 39  1  0
 16 40  1  0
 21 41  1  0
 22 42  1  0
 25 43  1  0
 25 44  1  0
 26 45  1  0
 26 46  1  0
 28 47  1  0
M  END
$$$$
[H]OC([H])([H])[C@@]([H])(N([H])c1nn2c(-c3c([H])c([H])c([H])c(Cl)c3[H])c([H])nc2c([H])c1[H])C([H])([H])C([H])([H])[H]
     RDKit          3D

 39 41  0  0  0  0  0  0  0  0999 V2000
   -3.5272    2.5509    1.4212 C   0  0  0  0  0  0  0  0  0  0  0  0
   -4.0243    1.6039    0.3802 C   0  0  0  0  0  0  0  0  0  0  0  0
   -3.2713    0.2785    0.3922 C   0  0  1  0  0  0  0  0  0  0  0  0
   -3.9049   -0.5422   -0.7156 C   0  0  0  0  0  0  0  0  0  0  0  0
   -3.7266    0.0876   -1.9617 O   0  0  0  0  0  0  0  0  0  0  0  0
   -1.8738    0.4576    0.2162 N   0  0  0  0  0  0  0  0  0  0  0  0
   -0.9553   -0.5939    0.4423 C   0  0  0  0  0  0  0  0  0  0  0  0
   -1.3736   -1.8091    0.9164 C   0  0  0  0  0  0  0  0  0  0  0  0
   -0.4602   -2.8158    1.1067 C   0  0  0  0  0  0  0  0  0  0  0  0
    0.8639   -2.5657    0.8108 C   0  0  0  0  0  0  0  0  0  0  0  0
    1.9759   -3.3113    0.8820 N   0  0  0  0  0  0  0  0  0  0  0  0
    3.0103   -2.5669    0.4674 C   0  0  0  0  0  0  0  0  0  0  0  0
    2.5565   -1.3048    0.1180 C   0  0  0  0  0  0  0  0  0  0  0  0
    3.4213   -0.2355   -0.3782 C   0  0  0  0  0  0  0  0  0  0  0  0
    4.7965   -0.4731   -0.5194 C   0  0  0  0  0  0  0  0  0  0  0  0
    5.6831    0.4566   -0.9723 C   0  0  0  0  0  0  0  0  0  0  0  0
    5.2471    1.7131   -1.3223 C   0  0  0  0  0  0  0  0  0  0  0  0
    3.9034    1.9785   -1.1955 C   0  0  0  0  0  0  0  0  0  0  0  0
    3.3372    3.5660   -1.6352 Cl  0  0  0  0  0  0  0  0  0  0  0  0
    3.0057    1.0106   -0.7280 C   0  0  0  0  0  0  0  0  0  0  0  0
    1.2293   -1.3359    0.3410 N   0  0  0  0  0  0  0  0  0  0  0  0
    0.3345   -0.3935    0.1689 N   0  0  0  0  0  0  0  0  0  0  0  0
   -2.7349    3.2368    1.0302 H   0  0  0  0  0  0  0  0  0  0  0  0
   -3.1991    2.0299    2.3434 H   0  0  0  0  0  0  0  0  0  0  0  0
   -4.3672    3.2120    1.7188 H   0  0  0  0  0  0  0  0  0  0  0  0
   -5.1089    1.4383    0.5411 H   0  0  0  0  0  0  0  0  0  0  0  0
   -3.9168    2.0912   -0.6096 H   0  0  0  0  0  0  0  0  0  0  0  0
   -3.4801   -0.2137    1.3464 H   0  0  0  0  0  0  0  0  0  0  0  0
   -3.5818   -1.5765   -0.7776 H   0  0  0  0  0  0  0  0  0  0  0  0
   -5.0015   -0.5325   -0.5305 H   0  0  0  0  0  0  0  0  0  0  0  0
   -4.0724   -0.5847   -2.6314 H   0  0  0  0  0  0  0  0  0  0  0  0
   -1.5090    1.3803   -0.0853 H   0  0  0  0  0  0  0  0  0  0  0  0
   -2.4201   -2.0130    1.1686 H   0  0  0  0  0  0  0  0  0  0  0  0
   -0.7396   -3.7977    1.4798 H   0  0  0  0  0  0  0  0  0  0  0  0
    4.0251   -2.9307    0.4265 H   0  0  0  0  0  0  0  0  0  0  0  0
    5.1980   -1.4525   -0.2565 H   0  0  0  0  0  0  0  0  0  0  0  0
    6.7466    0.2018   -1.0577 H   0  0  0  0  0  0  0  0  0  0  0  0
    5.9284    2.4695   -1.6844 H   0  0  0  0  0  0  0  0  0  0  0  0
    1.9859    1.2861   -0.6565 H   0  0  0  0  0  0  0  0  0  0  0  0
  1  2  1  0
  2  3  1  0
  3  4  1  0
  4  5  1  0
  3  6  1  0
  6  7  1  0
  7  8  1  0
  8  9  2  0
  9 10  1  0
 10 11  2  0
 11 12  1  0
 12 13  2  0
 13 14  1  0
 14 15  2  0
 15 16  1  0
 16 17  2  0
 17 18  1  0
 18 19  1  0
 18 20  2  0
 13 21  1  0
 21 22  1  0
 22  7  2  0
 21 10  1  0
 20 14  1  0
  1 23  1  0
  1 24  1  0
  1 25  1  0
  2 26  1  0
  2 27  1  0
  3 28  1  1
  4 29  1  0
  4 30  1  0
  5 31  1  0
  6 32  1  0
  8 33  1  0
  9 34  1  0
 12 35  1  0
 15 36  1  0
 16 37  1  0
 17 38  1  0
 20 39  1  0
M  END
$$$$
[H]c1nc(N([H])C(=O)c2nc(-c3c([H])c([H])c4c(c3[H])C([H])([H])C([H])([H])O4)sc2[H])c([H])c(C#N)c1[H]
     RDKit          3D

 37 40  0  0  0  0  0  0  0  0999 V2000
   -2.0593    2.0493   -3.1747 O   0  0  0  0  0  0  0  0  0  0  0  0
   -2.3924    1.1354   -2.3092 C   0  0  0  0  0  0  0  0  0  0  0  0
   -3.7336    1.0857   -1.9812 N   0  0  0  0  0  0  0  0  0  0  0  0
   -4.3925    0.4082   -0.9351 C   0  0  0  0  0  0  0  0  0  0  0  0
   -3.8141   -0.0945    0.1832 C   0  0  0  0  0  0  0  0  0  0  0  0
   -4.5167   -0.8291    1.1348 C   0  0  0  0  0  0  0  0  0  0  0  0
   -5.8598   -1.0340    0.9001 C   0  0  0  0  0  0  0  0  0  0  0  0
   -6.4412   -0.5120   -0.2473 C   0  0  0  0  0  0  0  0  0  0  0  0
   -5.7364    0.1769   -1.1222 N   0  0  0  0  0  0  0  0  0  0  0  0
   -3.8779   -1.3492    2.3042 C   0  0  0  0  0  0  0  0  0  0  0  0
   -3.3671   -1.7548    3.2607 N   0  0  0  0  0  0  0  0  0  0  0  0
   -1.3056    0.2856   -1.8109 C   0  0  0  0  0  0  0  0  0  0  0  0
   -1.4230   -1.0898   -1.7441 C   0  0  0  0  0  0  0  0  0  0  0  0
    0.0895   -1.5375   -1.0977 S   0  0  0  0  0  0  0  0  0  0  0  0
    0.7742    0.0243   -0.9516 C   0  0  0  0  0  0  0  0  0  0  0  0
   -0.1793    0.7926   -1.3994 N   0  0  0  0  0  0  0  0  0  0  0  0
    2.1197    0.3948   -0.4392 C   0  0  0  0  0  0  0  0  0  0  0  0
    2.5239    1.7043   -0.3872 C   0  0  0  0  0  0  0  0  0  0  0  0
    3.7886    2.0465    0.0956 C   0  0  0  0  0  0  0  0  0  0  0  0
    4.6651    1.0765    0.5329 C   0  0  0  0  0  0  0  0  0  0  0  0
    5.9721    1.1078    1.0587 O   0  0  0  0  0  0  0  0  0  0  0  0
    6.5640   -0.1736    0.7829 C   0  0  0  0  0  0  0  0  0  0  0  0
    5.3577   -1.0595    0.9991 C   0  0  0  0  0  0  0  0  0  0  0  0
    4.2467   -0.2325    0.4752 C   0  0  0  0  0  0  0  0  0  0  0  0
    2.9893   -0.5762   -0.0045 C   0  0  0  0  0  0  0  0  0  0  0  0
   -4.4032    1.7958   -2.5035 H   0  0  0  0  0  0  0  0  0  0  0  0
   -2.7683    0.0958    0.4353 H   0  0  0  0  0  0  0  0  0  0  0  0
   -6.4787   -1.5823    1.5693 H   0  0  0  0  0  0  0  0  0  0  0  0
   -7.5049   -0.6586   -0.4581 H   0  0  0  0  0  0  0  0  0  0  0  0
   -2.2978   -1.6928   -2.0485 H   0  0  0  0  0  0  0  0  0  0  0  0
    1.8350    2.4551   -0.7299 H   0  0  0  0  0  0  0  0  0  0  0  0
    4.1157    3.0751    0.1404 H   0  0  0  0  0  0  0  0  0  0  0  0
    7.4025   -0.3948    1.4415 H   0  0  0  0  0  0  0  0  0  0  0  0
    6.8149   -0.2448   -0.3084 H   0  0  0  0  0  0  0  0  0  0  0  0
    5.4393   -2.0134    0.4442 H   0  0  0  0  0  0  0  0  0  0  0  0
    5.2088   -1.2753    2.0954 H   0  0  0  0  0  0  0  0  0  0  0  0
    2.6448   -1.6053   -0.0563 H   0  0  0  0  0  0  0  0  0  0  0  0
  1  2  2  0
  2  3  1  0
  3  4  1  0
  4  5  2  0
  5  6  1  0
  6  7  2  0
  7  8  1  0
  8  9  2  0
  6 10  1  0
 10 11  3  0
  2 12  1  0
 12 13  2  0
 13 14  1  0
 14 15  1  0
 15 16  2  0
 15 17  1  0
 17 18  2  0
 18 19  1  0
 19 20  2  0
 20 21  1  0
 21 22  1  0
 22 23  1  0
 23 24  1  0
 24 25  2  0
  9  4  1  0
 16 12  1  0
 25 17  1  0
 24 20  1  0
  3 26  1  0
  5 27  1  0
  7 28  1  0
  8 29  1  0
 13 30  1  0
 18 31  1  0
 19 32  1  0
 22 33  1  0
 22 34  1  0
 23 35  1  0
 23 36  1  0
 25 37  1  0
M  END
$$$$
[H]c1sc(-c2c([H])c([H])c3c(c2[H])C([H])([H])C([H])([H])O3)nc1C(=O)N([H])c1nc2c([H])c(C(=O)N3C([H])([H])C([H])([H])N(C([H])([H])C4([H])OC([H])([H])C([H])([H])C4([H])[H])C([H])([H])C3([H])[H])c([H])c([H])c2n1[H]
     RDKit          3D

 70 76  0  0  0  0  0  0  0  0999 V2000
    2.2531   -2.2057    0.7084 O   0  0  0  0  0  0  0  0  0  0  0  0
    3.2687   -1.4950    0.5371 C   0  0  0  0  0  0  0  0  0  0  0  0
    3.1204   -0.3193   -0.2456 N   0  0  0  0  0  0  0  0  0  0  0  0
    1.8705    0.0302   -0.8129 C   0  0  0  0  0  0  0  0  0  0  0  0
    0.7090   -0.6562   -0.7074 N   0  0  0  0  0  0  0  0  0  0  0  0
   -0.2379    0.0120   -1.3793 C   0  0  0  0  0  0  0  0  0  0  0  0
   -1.6026   -0.2965   -1.5624 C   0  0  0  0  0  0  0  0  0  0  0  0
   -2.4130    0.5071   -2.2790 C   0  0  0  0  0  0  0  0  0  0  0  0
   -1.8162    1.6583   -2.8265 C   0  0  0  0  0  0  0  0  0  0  0  0
   -0.4940    1.9601   -2.6514 C   0  0  0  0  0  0  0  0  0  0  0  0
    0.3232    1.1373   -1.9200 C   0  0  0  0  0  0  0  0  0  0  0  0
    1.6103    1.1267   -1.5612 N   0  0  0  0  0  0  0  0  0  0  0  0
   -3.8115    0.2929   -2.4846 C   0  0  0  0  0  0  0  0  0  0  0  0
   -4.3436    1.1393   -3.3626 O   0  0  0  0  0  0  0  0  0  0  0  0
   -4.7167   -0.6287   -1.9403 N   0  0  0  0  0  0  0  0  0  0  0  0
   -6.0988   -0.5230   -2.4706 C   0  0  0  0  0  0  0  0  0  0  0  0
   -7.1493   -0.7852   -1.4447 C   0  0  0  0  0  0  0  0  0  0  0  0
   -6.6466   -1.2128   -0.1857 N   0  0  0  0  0  0  0  0  0  0  0  0
   -6.2175   -0.1991    0.7116 C   0  0  0  0  0  0  0  0  0  0  0  0
   -7.3687    0.6211    1.2465 C   0  0  0  0  0  0  0  0  0  0  0  0
   -6.8165    1.5999    2.2266 C   0  0  0  0  0  0  0  0  0  0  0  0
   -7.7182    1.4856    3.4226 C   0  0  0  0  0  0  0  0  0  0  0  0
   -8.7543    0.5107    2.9877 C   0  0  0  0  0  0  0  0  0  0  0  0
   -8.2522   -0.2087    1.9185 O   0  0  0  0  0  0  0  0  0  0  0  0
   -5.6704   -2.2449   -0.3478 C   0  0  0  0  0  0  0  0  0  0  0  0
   -4.4133   -1.5928   -0.9428 C   0  0  0  0  0  0  0  0  0  0  0  0
    4.5789   -1.8679    1.1318 C   0  0  0  0  0  0  0  0  0  0  0  0
    4.6849   -2.9825    1.9331 C   0  0  0  0  0  0  0  0  0  0  0  0
    6.3435   -2.9588    2.3368 S   0  0  0  0  0  0  0  0  0  0  0  0
    6.7947   -1.5369    1.4629 C   0  0  0  0  0  0  0  0  0  0  0  0
    5.6522   -1.1803    0.9250 N   0  0  0  0  0  0  0  0  0  0  0  0
    8.1228   -0.9158    1.3714 C   0  0  0  0  0  0  0  0  0  0  0  0
    9.1918   -1.4520    2.0538 C   0  0  0  0  0  0  0  0  0  0  0  0
   10.4524   -0.8464    1.9424 C   0  0  0  0  0  0  0  0  0  0  0  0
   10.6169    0.2837    1.1494 C   0  0  0  0  0  0  0  0  0  0  0  0
   11.7713    1.0097    0.9212 O   0  0  0  0  0  0  0  0  0  0  0  0
   11.4726    2.1527    0.1815 C   0  0  0  0  0  0  0  0  0  0  0  0
   10.0535    1.9870   -0.2732 C   0  0  0  0  0  0  0  0  0  0  0  0
    9.5429    0.8125    0.4708 C   0  0  0  0  0  0  0  0  0  0  0  0
    8.3008    0.1813    0.6066 C   0  0  0  0  0  0  0  0  0  0  0  0
    3.9351    0.2981   -0.4130 H   0  0  0  0  0  0  0  0  0  0  0  0
   -1.9271   -1.2056   -1.1179 H   0  0  0  0  0  0  0  0  0  0  0  0
   -2.4397    2.3136   -3.3977 H   0  0  0  0  0  0  0  0  0  0  0  0
   -0.0416    2.8533   -3.0783 H   0  0  0  0  0  0  0  0  0  0  0  0
    2.3075    1.8589   -1.8220 H   0  0  0  0  0  0  0  0  0  0  0  0
   -6.2494    0.5037   -2.8563 H   0  0  0  0  0  0  0  0  0  0  0  0
   -6.1840   -1.1938   -3.3372 H   0  0  0  0  0  0  0  0  0  0  0  0
   -7.8287    0.0779   -1.3075 H   0  0  0  0  0  0  0  0  0  0  0  0
   -7.8509   -1.6112   -1.7993 H   0  0  0  0  0  0  0  0  0  0  0  0
   -5.5337    0.5562    0.2199 H   0  0  0  0  0  0  0  0  0  0  0  0
   -5.6276   -0.6020    1.5727 H   0  0  0  0  0  0  0  0  0  0  0  0
   -7.8823    1.0991    0.3972 H   0  0  0  0  0  0  0  0  0  0  0  0
   -5.7471    1.3776    2.4988 H   0  0  0  0  0  0  0  0  0  0  0  0
   -6.9000    2.6111    1.7733 H   0  0  0  0  0  0  0  0  0  0  0  0
   -7.1407    1.1129    4.2979 H   0  0  0  0  0  0  0  0  0  0  0  0
   -8.1621    2.4958    3.6364 H   0  0  0  0  0  0  0  0  0  0  0  0
   -9.0524   -0.1799    3.8316 H   0  0  0  0  0  0  0  0  0  0  0  0
   -9.6643    1.0710    2.6727 H   0  0  0  0  0  0  0  0  0  0  0  0
   -5.3741   -2.6408    0.6453 H   0  0  0  0  0  0  0  0  0  0  0  0
   -5.9700   -3.0503   -1.0325 H   0  0  0  0  0  0  0  0  0  0  0  0
   -3.9030   -1.1062   -0.0851 H   0  0  0  0  0  0  0  0  0  0  0  0
   -3.8156   -2.4096   -1.3459 H   0  0  0  0  0  0  0  0  0  0  0  0
    3.8866   -3.6899    2.2217 H   0  0  0  0  0  0  0  0  0  0  0  0
    9.0542   -2.3212    2.6603 H   0  0  0  0  0  0  0  0  0  0  0  0
   11.2919   -1.2651    2.4775 H   0  0  0  0  0  0  0  0  0  0  0  0
   11.5780    3.1046    0.7531 H   0  0  0  0  0  0  0  0  0  0  0  0
   12.1224    2.1857   -0.7212 H   0  0  0  0  0  0  0  0  0  0  0  0
    9.4601    2.8760    0.0265 H   0  0  0  0  0  0  0  0  0  0  0  0
    9.9726    1.8437   -1.3750 H   0  0  0  0  0  0  0  0  0  0  0  0
    7.4927    0.6367    0.0524 H   0  0  0  0  0  0  0  0  0  0  0  0
  1  2  2  0
  2  3  1  0
  3  4  1  0
  4  5  2  0
  5  6  1  0
  6  7  2  0
  7  8  1  0
  8  9  2  0
  9 10  1  0
 10 11  2  0
 11 12  1  0
  8 13  1  0
 13 14  2  0
 13 15  1  0
 15 16  1  0
 16 17  1  0
 17 18  1  0
 18 19  1  0
 19 20  1  0
 20 21  1  0
 21 22  1  0
 22 23  1  0
 23 24  1  0
 18 25  1  0
 25 26  1  0
  2 27  1  0
 27 28  2  0
 28 29  1  0
 29 30  1  0
 30 31  2  0
 30 32  1  0
 32 33  2  0
 33 34  1  0
 34 35  2  0
 35 36  1  0
 36 37  1  0
 37 38  1  0
 38 39  1  0
 39 40  2  0
 12  4  1  0
 26 15  1  0
 31 27  1  0
 40 32  1  0
 11  6  1  0
 24 20  1  0
 39 35  1  0
  3 41  1  0
  7 42  1  0
  9 43  1  0
 10 44  1  0
 12 45  1  0
 16 46  1  0
 16 47  1  0
 17 48  1  0
 17 49  1  0
 19 50  1  0
 19 51  1  0
 20 52  1  0
 21 53  1  0
 21 54  1  0
 22 55  1  0
 22 56  1  0
 23 57  1  0
 23 58  1  0
 25 59  1  0
 25 60  1  0
 26 61  1  0
 26 62  1  0
 28 63  1  0
 33 64  1  0
 34 65  1  0
 37 66  1  0
 37 67  1  0
 38 68  1  0
 38 69  1  0
 40 70  1  0
M  END
$$$$
[H]c1nc([H])c([H])c(-c2nc(N([H])C(=O)c3nc(-c4c([H])c([H])c5c(c4[H])C([H])([H])C([H])([H])O5)sc3[H])n([H])n2)c1[H]
     RDKit          3D

 42 46  0  0  0  0  0  0  0  0999 V2000
    2.1406    1.9398   -0.0257 O   0  0  0  0  0  0  0  0  0  0  0  0
    1.1074    1.2616   -0.0017 C   0  0  0  0  0  0  0  0  0  0  0  0
    1.1882   -0.1389    0.1500 N   0  0  0  0  0  0  0  0  0  0  0  0
    2.4528   -0.7757    0.2757 C   0  0  0  0  0  0  0  0  0  0  0  0
    3.6432   -0.1707    0.2667 N   0  0  0  0  0  0  0  0  0  0  0  0
    4.6272   -1.0755    0.4077 C   0  0  0  0  0  0  0  0  0  0  0  0
    4.0063   -2.2626    0.5044 N   0  0  0  0  0  0  0  0  0  0  0  0
    2.6912   -2.0926    0.4258 N   0  0  0  0  0  0  0  0  0  0  0  0
    6.0503   -0.7748    0.4416 C   0  0  0  0  0  0  0  0  0  0  0  0
    6.5078    0.5133    0.3267 C   0  0  0  0  0  0  0  0  0  0  0  0
    7.8684    0.7399    0.3655 C   0  0  0  0  0  0  0  0  0  0  0  0
    8.7644   -0.2580    0.5121 N   0  0  0  0  0  0  0  0  0  0  0  0
    8.3138   -1.5246    0.6250 C   0  0  0  0  0  0  0  0  0  0  0  0
    6.9748   -1.7840    0.5907 C   0  0  0  0  0  0  0  0  0  0  0  0
   -0.2047    1.9411   -0.1341 C   0  0  0  0  0  0  0  0  0  0  0  0
   -0.2911    3.3085   -0.2827 C   0  0  0  0  0  0  0  0  0  0  0  0
   -1.9777    3.5501   -0.3861 S   0  0  0  0  0  0  0  0  0  0  0  0
   -2.4736    1.9240   -0.2369 C   0  0  0  0  0  0  0  0  0  0  0  0
   -1.3285    1.2850   -0.1165 N   0  0  0  0  0  0  0  0  0  0  0  0
   -3.8464    1.3580   -0.2404 C   0  0  0  0  0  0  0  0  0  0  0  0
   -4.9416    2.1747   -0.3775 C   0  0  0  0  0  0  0  0  0  0  0  0
   -6.2196    1.6428   -0.3801 C   0  0  0  0  0  0  0  0  0  0  0  0
   -6.3904    0.2865   -0.2444 C   0  0  0  0  0  0  0  0  0  0  0  0
   -7.5692   -0.4681   -0.2189 O   0  0  0  0  0  0  0  0  0  0  0  0
   -7.2615   -1.8486   -0.3517 C   0  0  0  0  0  0  0  0  0  0  0  0
   -5.8007   -1.9654    0.0213 C   0  0  0  0  0  0  0  0  0  0  0  0
   -5.3010   -0.5706   -0.1033 C   0  0  0  0  0  0  0  0  0  0  0  0
   -4.0392    0.0087   -0.1064 C   0  0  0  0  0  0  0  0  0  0  0  0
    0.3016   -0.7097    0.1694 H   0  0  0  0  0  0  0  0  0  0  0  0
    1.9390   -2.8269    0.4687 H   0  0  0  0  0  0  0  0  0  0  0  0
    5.8148    1.3602    0.2053 H   0  0  0  0  0  0  0  0  0  0  0  0
    8.2288    1.7405    0.2765 H   0  0  0  0  0  0  0  0  0  0  0  0
    9.0233   -2.3478    0.7446 H   0  0  0  0  0  0  0  0  0  0  0  0
    6.6736   -2.8365    0.6879 H   0  0  0  0  0  0  0  0  0  0  0  0
    0.5391    4.0413   -0.3219 H   0  0  0  0  0  0  0  0  0  0  0  0
   -4.7747    3.2480   -0.4834 H   0  0  0  0  0  0  0  0  0  0  0  0
   -7.0683    2.2973   -0.4886 H   0  0  0  0  0  0  0  0  0  0  0  0
   -7.4190   -2.1337   -1.4050 H   0  0  0  0  0  0  0  0  0  0  0  0
   -7.8676   -2.4962    0.2788 H   0  0  0  0  0  0  0  0  0  0  0  0
   -5.2861   -2.5538   -0.7911 H   0  0  0  0  0  0  0  0  0  0  0  0
   -5.6272   -2.3886    1.0103 H   0  0  0  0  0  0  0  0  0  0  0  0
   -3.1687   -0.6178    0.0001 H   0  0  0  0  0  0  0  0  0  0  0  0
  1  2  2  0
  2  3  1  0
  3  4  1  0
  4  5  2  0
  5  6  1  0
  6  7  2  0
  7  8  1  0
  6  9  1  0
  9 10  2  0
 10 11  1  0
 11 12  2  0
 12 13  1  0
 13 14  2  0
  2 15  1  0
 15 16  2  0
 16 17  1  0
 17 18  1  0
 18 19  2  0
 18 20  1  0
 20 21  2  0
 21 22  1  0
 22 23  2  0
 23 24  1  0
 24 25  1  0
 25 26  1  0
 26 27  1  0
 27 28  2  0
  8  4  1  0
 14  9  1  0
 19 15  1  0
 28 20  1  0
 27 23  1  0
  3 29  1  0
  8 30  1  0
 10 31  1  0
 11 32  1  0
 13 33  1  0
 14 34  1  0
 16 35  1  0
 21 36  1  0
 22 37  1  0
 25 38  1  0
 25 39  1  0
 26 40  1  0
 26 41  1  0
 28 42  1  0
M  END
$$$$
[H]c1nc([H])c([H])c(-c2nnc(N([H])C(=O)c3nc(-c4c([H])c([H])c5c(c4[H])C([H])([H])C([H])([H])O5)sc3[H])s2)c1[H]
     RDKit          3D

 41 45  0  0  0  0  0  0  0  0999 V2000
   -0.6552   -0.5266   -0.3210 O   0  0  0  0  0  0  0  0  0  0  0  0
   -0.6871    0.6280    0.1820 C   0  0  0  0  0  0  0  0  0  0  0  0
   -1.9207    1.2706    0.3751 N   0  0  0  0  0  0  0  0  0  0  0  0
   -3.1131    0.5982   -0.0043 C   0  0  0  0  0  0  0  0  0  0  0  0
   -3.2804   -0.6065   -0.5435 N   0  0  0  0  0  0  0  0  0  0  0  0
   -4.4341   -1.0296   -0.8111 N   0  0  0  0  0  0  0  0  0  0  0  0
   -5.4962   -0.2733   -0.5560 C   0  0  0  0  0  0  0  0  0  0  0  0
   -4.7577    1.1216    0.1072 S   0  0  0  0  0  0  0  0  0  0  0  0
   -6.9180   -0.5752   -0.7897 C   0  0  0  0  0  0  0  0  0  0  0  0
   -7.2490   -1.7870   -1.3437 C   0  0  0  0  0  0  0  0  0  0  0  0
   -8.6040   -2.0577   -1.5589 C   0  0  0  0  0  0  0  0  0  0  0  0
   -9.5247   -1.1351   -1.2209 N   0  0  0  0  0  0  0  0  0  0  0  0
   -9.2291    0.0426   -0.6843 C   0  0  0  0  0  0  0  0  0  0  0  0
   -7.9015    0.3373   -0.4605 C   0  0  0  0  0  0  0  0  0  0  0  0
    0.5800    1.3124    0.5721 C   0  0  0  0  0  0  0  0  0  0  0  0
    0.5628    2.5715    1.1219 C   0  0  0  0  0  0  0  0  0  0  0  0
    2.2265    2.8645    1.3691 S   0  0  0  0  0  0  0  0  0  0  0  0
    2.8327    1.3774    0.7615 C   0  0  0  0  0  0  0  0  0  0  0  0
    1.7349    0.7494    0.4082 N   0  0  0  0  0  0  0  0  0  0  0  0
    4.2388    0.9252    0.6640 C   0  0  0  0  0  0  0  0  0  0  0  0
    5.2673    1.7307    1.0903 C   0  0  0  0  0  0  0  0  0  0  0  0
    6.5860    1.3079    0.9995 C   0  0  0  0  0  0  0  0  0  0  0  0
    6.8633    0.0676    0.4762 C   0  0  0  0  0  0  0  0  0  0  0  0
    8.0743   -0.5839    0.2776 O   0  0  0  0  0  0  0  0  0  0  0  0
    7.9247   -1.6891   -0.5646 C   0  0  0  0  0  0  0  0  0  0  0  0
    6.4711   -2.0173   -0.4646 C   0  0  0  0  0  0  0  0  0  0  0  0
    5.8480   -0.7647    0.0393 C   0  0  0  0  0  0  0  0  0  0  0  0
    4.5475   -0.3048    0.1476 C   0  0  0  0  0  0  0  0  0  0  0  0
   -1.9986    2.2159    0.7833 H   0  0  0  0  0  0  0  0  0  0  0  0
   -6.4763   -2.5100   -1.6049 H   0  0  0  0  0  0  0  0  0  0  0  0
   -8.8633   -3.0140   -1.9959 H   0  0  0  0  0  0  0  0  0  0  0  0
   -9.9920    0.7404   -0.4334 H   0  0  0  0  0  0  0  0  0  0  0  0
   -7.5872    1.2626   -0.0332 H   0  0  0  0  0  0  0  0  0  0  0  0
   -0.3148    3.2099    1.3387 H   0  0  0  0  0  0  0  0  0  0  0  0
    5.0464    2.7024    1.4999 H   0  0  0  0  0  0  0  0  0  0  0  0
    7.3566    1.9538    1.3373 H   0  0  0  0  0  0  0  0  0  0  0  0
    8.5667   -2.5118   -0.1360 H   0  0  0  0  0  0  0  0  0  0  0  0
    8.1756   -1.4851   -1.6164 H   0  0  0  0  0  0  0  0  0  0  0  0
    6.0788   -2.3010   -1.4629 H   0  0  0  0  0  0  0  0  0  0  0  0
    6.2827   -2.8807    0.2238 H   0  0  0  0  0  0  0  0  0  0  0  0
    3.7385   -0.9365   -0.1868 H   0  0  0  0  0  0  0  0  0  0  0  0
  1  2  2  0
  2  3  1  0
  3  4  1  0
  4  5  2  0
  5  6  1  0
  6  7  2  0
  7  8  1  0
  7  9  1  0
  9 10  2  0
 10 11  1  0
 11 12  2  0
 12 13  1  0
 13 14  2  0
  2 15  1  0
 15 16  2  0
 16 17  1  0
 17 18  1  0
 18 19  2  0
 18 20  1  0
 20 21  2  0
 21 22  1  0
 22 23  2  0
 23 24  1  0
 24 25  1  0
 25 26  1  0
 26 27  1  0
 27 28  2  0
  8  4  1  0
 14  9  1  0
 19 15  1  0
 28 20  1  0
 27 23  1  0
  3 29  1  0
 10 30  1  0
 11 31  1  0
 13 32  1  0
 14 33  1  0
 16 34  1  0
 21 35  1  0
 22 36  1  0
 25 37  1  0
 25 38  1  0
 26 39  1  0
 26 40  1  0
 28 41  1  0
M  END
$$$$
[H]C([H])=C([H])C([H])([H])Sc1nc(N([H])C(=O)c2nc(-c3c([H])c([H])c4c(c3[H])C([H])([H])C([H])([H])O4)sc2[H])n([H])n1
     RDKit          3D

 41 44  0  0  0  0  0  0  0  0999 V2000
    7.1269    1.9162   -0.2222 C   0  0  0  0  0  0  0  0  0  0  0  0
    7.4715    1.0662    0.7673 C   0  0  0  0  0  0  0  0  0  0  0  0
    7.7547   -0.3434    0.4551 C   0  0  0  0  0  0  0  0  0  0  0  0
    6.6065   -1.4394    1.3591 S   0  0  0  0  0  0  0  0  0  0  0  0
    4.9262   -1.1835    0.7393 C   0  0  0  0  0  0  0  0  0  0  0  0
    4.0766   -0.2939    1.2289 N   0  0  0  0  0  0  0  0  0  0  0  0
    2.9126   -0.3479    0.5520 N   0  0  0  0  0  0  0  0  0  0  0  0
    3.0433   -1.2869   -0.3749 C   0  0  0  0  0  0  0  0  0  0  0  0
    2.0906   -1.7677   -1.2814 N   0  0  0  0  0  0  0  0  0  0  0  0
    0.8431   -1.4195   -1.6177 C   0  0  0  0  0  0  0  0  0  0  0  0
    0.2025   -2.2952   -2.4013 O   0  0  0  0  0  0  0  0  0  0  0  0
   -0.0025   -0.2362   -1.3021 C   0  0  0  0  0  0  0  0  0  0  0  0
    0.5114    1.0368   -1.3097 C   0  0  0  0  0  0  0  0  0  0  0  0
   -0.8365    1.9786   -0.8660 S   0  0  0  0  0  0  0  0  0  0  0  0
   -1.9765    0.7105   -0.6957 C   0  0  0  0  0  0  0  0  0  0  0  0
   -1.2646   -0.3540   -0.9863 N   0  0  0  0  0  0  0  0  0  0  0  0
   -3.4047    0.7973   -0.3155 C   0  0  0  0  0  0  0  0  0  0  0  0
   -3.9770    2.0098   -0.0343 C   0  0  0  0  0  0  0  0  0  0  0  0
   -5.3338    2.0449    0.3184 C   0  0  0  0  0  0  0  0  0  0  0  0
   -6.0889    0.8971    0.3854 C   0  0  0  0  0  0  0  0  0  0  0  0
   -7.4357    0.6491    0.7042 O   0  0  0  0  0  0  0  0  0  0  0  0
   -7.5991   -0.7123    1.0449 C   0  0  0  0  0  0  0  0  0  0  0  0
   -6.5262   -1.3863    0.2439 C   0  0  0  0  0  0  0  0  0  0  0  0
   -5.5078   -0.3144    0.1018 C   0  0  0  0  0  0  0  0  0  0  0  0
   -4.1540   -0.3427   -0.2491 C   0  0  0  0  0  0  0  0  0  0  0  0
    4.3223   -1.8131   -0.2492 N   0  0  0  0  0  0  0  0  0  0  0  0
    7.0611    1.5546   -1.2418 H   0  0  0  0  0  0  0  0  0  0  0  0
    6.9089    2.9503   -0.0620 H   0  0  0  0  0  0  0  0  0  0  0  0
    7.5202    1.4842    1.7554 H   0  0  0  0  0  0  0  0  0  0  0  0
    8.7799   -0.6536    0.7739 H   0  0  0  0  0  0  0  0  0  0  0  0
    7.6258   -0.5170   -0.6411 H   0  0  0  0  0  0  0  0  0  0  0  0
    2.1043    0.2688    0.8197 H   0  0  0  0  0  0  0  0  0  0  0  0
    2.4305   -2.7303   -1.7273 H   0  0  0  0  0  0  0  0  0  0  0  0
    1.5510    1.3375   -1.5537 H   0  0  0  0  0  0  0  0  0  0  0  0
   -3.4355    2.9389   -0.0699 H   0  0  0  0  0  0  0  0  0  0  0  0
   -5.7811    2.9971    0.5393 H   0  0  0  0  0  0  0  0  0  0  0  0
   -7.3800   -0.8576    2.1101 H   0  0  0  0  0  0  0  0  0  0  0  0
   -8.5846   -1.1199    0.7413 H   0  0  0  0  0  0  0  0  0  0  0  0
   -6.8365   -1.6768   -0.7744 H   0  0  0  0  0  0  0  0  0  0  0  0
   -6.0805   -2.2648    0.7957 H   0  0  0  0  0  0  0  0  0  0  0  0
   -3.6646   -1.2814   -0.4782 H   0  0  0  0  0  0  0  0  0  0  0  0
  1  2  2  3
  2  3  1  0
  3  4  1  0
  4  5  1  0
  5  6  2  0
  6  7  1  0
  7  8  1  0
  8  9  1  0
  9 10  1  0
 10 11  2  0
 10 12  1  0
 12 13  2  0
 13 14  1  0
 14 15  1  0
 15 16  2  0
 15 17  1  0
 17 18  2  0
 18 19  1  0
 19 20  2  0
 20 21  1  0
 21 22  1  0
 22 23  1  0
 23 24  1  0
 24 25  2  0
  8 26  2  0
 26  5  1  0
 16 12  1  0
 25 17  1  0
 24 20  1  0
  1 27  1  0
  1 28  1  0
  2 29  1  0
  3 30  1  0
  3 31  1  0
  7 32  1  0
  9 33  1  0
 13 34  1  0
 18 35  1  0
 19 36  1  0
 22 37  1  0
 22 38  1  0
 23 39  1  0
 23 40  1  0
 25 41  1  0
M  END
$$$$
[H]c1nc2c([H])c([H])c(N([H])c3c([H])c([H])c([H])c(N([H])C(=O)C([H])([H])[H])c3[H])nn2c1-c1c([H])c([H])c([H])c(N([H])C(=O)C([H])([H])[H])c1[H]
     RDKit          3D

 50 53  0  0  0  0  0  0  0  0999 V2000
    8.1596    1.6341    1.8617 C   0  0  0  0  0  0  0  0  0  0  0  0
    6.8643    1.1184    1.3076 C   0  0  0  0  0  0  0  0  0  0  0  0
    5.8438    1.4935    1.9309 O   0  0  0  0  0  0  0  0  0  0  0  0
    6.9007    0.2892    0.1788 N   0  0  0  0  0  0  0  0  0  0  0  0
    5.8010   -0.3005   -0.4977 C   0  0  0  0  0  0  0  0  0  0  0  0
    6.0581   -1.1075   -1.6209 C   0  0  0  0  0  0  0  0  0  0  0  0
    5.0653   -1.7209   -2.3407 C   0  0  0  0  0  0  0  0  0  0  0  0
    3.7448   -1.5571   -1.9698 C   0  0  0  0  0  0  0  0  0  0  0  0
    3.4447   -0.7796   -0.8832 C   0  0  0  0  0  0  0  0  0  0  0  0
    2.1179   -0.5539   -0.4729 N   0  0  0  0  0  0  0  0  0  0  0  0
    0.9821   -0.2904   -1.2775 C   0  0  0  0  0  0  0  0  0  0  0  0
    1.0183   -0.0929   -2.6311 C   0  0  0  0  0  0  0  0  0  0  0  0
   -0.1232    0.1328   -3.4003 C   0  0  0  0  0  0  0  0  0  0  0  0
   -1.3473    0.1523   -2.7177 C   0  0  0  0  0  0  0  0  0  0  0  0
   -2.6039    0.3355   -3.1197 N   0  0  0  0  0  0  0  0  0  0  0  0
   -3.4010    0.2554   -2.0456 C   0  0  0  0  0  0  0  0  0  0  0  0
   -2.6435    0.0151   -0.9238 C   0  0  0  0  0  0  0  0  0  0  0  0
   -3.1300   -0.1388    0.4470 C   0  0  0  0  0  0  0  0  0  0  0  0
   -2.3605   -0.3777    1.5361 C   0  0  0  0  0  0  0  0  0  0  0  0
   -2.9486   -0.5058    2.8029 C   0  0  0  0  0  0  0  0  0  0  0  0
   -4.3003   -0.3936    2.9655 C   0  0  0  0  0  0  0  0  0  0  0  0
   -5.1329   -0.1446    1.8483 C   0  0  0  0  0  0  0  0  0  0  0  0
   -6.5258   -0.0141    2.0631 N   0  0  0  0  0  0  0  0  0  0  0  0
   -7.4817   -0.1019    1.0518 C   0  0  0  0  0  0  0  0  0  0  0  0
   -8.9391    0.0706    1.4569 C   0  0  0  0  0  0  0  0  0  0  0  0
   -7.3135   -0.3048   -0.1580 O   0  0  0  0  0  0  0  0  0  0  0  0
   -4.5179   -0.0289    0.6516 C   0  0  0  0  0  0  0  0  0  0  0  0
   -1.3613   -0.0425   -1.3888 N   0  0  0  0  0  0  0  0  0  0  0  0
   -0.2545   -0.2517   -0.7128 N   0  0  0  0  0  0  0  0  0  0  0  0
    4.4863   -0.1644   -0.1657 C   0  0  0  0  0  0  0  0  0  0  0  0
    8.1035    1.8017    2.9508 H   0  0  0  0  0  0  0  0  0  0  0  0
    8.9549    0.9268    1.5929 H   0  0  0  0  0  0  0  0  0  0  0  0
    8.3563    2.5978    1.3582 H   0  0  0  0  0  0  0  0  0  0  0  0
    7.8806    0.0884   -0.2034 H   0  0  0  0  0  0  0  0  0  0  0  0
    7.0828   -1.2491   -1.9284 H   0  0  0  0  0  0  0  0  0  0  0  0
    5.2699   -2.3372   -3.1994 H   0  0  0  0  0  0  0  0  0  0  0  0
    2.9439   -2.0459   -2.5087 H   0  0  0  0  0  0  0  0  0  0  0  0
    1.9786   -0.5916    0.5935 H   0  0  0  0  0  0  0  0  0  0  0  0
    1.9670   -0.0818   -3.1577 H   0  0  0  0  0  0  0  0  0  0  0  0
   -0.1134    0.2868   -4.4498 H   0  0  0  0  0  0  0  0  0  0  0  0
   -4.4825    0.3595   -2.0305 H   0  0  0  0  0  0  0  0  0  0  0  0
   -1.2997   -0.4736    1.4598 H   0  0  0  0  0  0  0  0  0  0  0  0
   -2.3296   -0.6972    3.6762 H   0  0  0  0  0  0  0  0  0  0  0  0
   -4.8086   -0.4823    3.9073 H   0  0  0  0  0  0  0  0  0  0  0  0
   -6.8775    0.1656    3.0650 H   0  0  0  0  0  0  0  0  0  0  0  0
   -9.0376   -0.1070    2.5283 H   0  0  0  0  0  0  0  0  0  0  0  0
   -9.5458   -0.6574    0.8530 H   0  0  0  0  0  0  0  0  0  0  0  0
   -9.2253    1.1227    1.2522 H   0  0  0  0  0  0  0  0  0  0  0  0
   -5.1213    0.1762   -0.2161 H   0  0  0  0  0  0  0  0  0  0  0  0
    4.2018    0.4361    0.6805 H   0  0  0  0  0  0  0  0  0  0  0  0
  1  2  1  0
  2  3  2  0
  2  4  1  0
  4  5  1  0
  5  6  2  0
  6  7  1  0
  7  8  2  0
  8  9  1  0
  9 10  1  0
 10 11  1  0
 11 12  1  0
 12 13  2  0
 13 14  1  0
 14 15  2  0
 15 16  1  0
 16 17  2  0
 17 18  1  0
 18 19  2  0
 19 20  1  0
 20 21  2  0
 21 22  1  0
 22 23  1  0
 23 24  1  0
 24 25  1  0
 24 26  2  0
 22 27  2  0
 17 28  1  0
 28 29  1  0
  9 30  2  0
 30  5  1  0
 29 11  2  0
 28 14  1  0
 27 18  1  0
  1 31  1  0
  1 32  1  0
  1 33  1  0
  4 34  1  0
  6 35  1  0
  7 36  1  0
  8 37  1  0
 10 38  1  0
 12 39  1  0
 13 40  1  0
 16 41  1  0
 19 42  1  0
 20 43  1  0
 21 44  1  0
 23 45  1  0
 25 46  1  0
 25 47  1  0
 25 48  1  0
 27 49  1  0
 30 50  1  0
M  END
$$$$
[H]c1c([H])c([H])c(C([H])(N([H])C(=O)c2c([H])c([H])c(Cl)c(N([H])C(=O)c3c([H])c4c([H])nc(OC([H])([H])[H])nc4n([H])c3=O)c2[H])C([H])([H])C([H])([H])N([H])[H])c([H])c1[H]
     RDKit          3D

 59 62  0  0  0  0  0  0  0  0999 V2000
   -9.6018   -0.9951   -2.7418 C   0  0  0  0  0  0  0  0  0  0  0  0
   -9.2906   -1.3210   -1.4074 O   0  0  0  0  0  0  0  0  0  0  0  0
   -8.0012   -1.0803   -0.9223 C   0  0  0  0  0  0  0  0  0  0  0  0
   -7.6867   -1.3863    0.3511 N   0  0  0  0  0  0  0  0  0  0  0  0
   -6.4689   -1.1829    0.8855 C   0  0  0  0  0  0  0  0  0  0  0  0
   -5.4803   -0.6286    0.0863 C   0  0  0  0  0  0  0  0  0  0  0  0
   -4.2111   -0.3939    0.5661 C   0  0  0  0  0  0  0  0  0  0  0  0
   -3.2362    0.1557   -0.2363 C   0  0  0  0  0  0  0  0  0  0  0  0
   -1.8665    0.4044    0.2838 C   0  0  0  0  0  0  0  0  0  0  0  0
   -0.9550    0.1997   -0.5207 O   0  0  0  0  0  0  0  0  0  0  0  0
   -1.6752    0.8371    1.5939 N   0  0  0  0  0  0  0  0  0  0  0  0
   -0.4547    1.1091    2.2201 C   0  0  0  0  0  0  0  0  0  0  0  0
    0.7921    0.9971    1.6747 C   0  0  0  0  0  0  0  0  0  0  0  0
    1.9516    1.2903    2.3854 C   0  0  0  0  0  0  0  0  0  0  0  0
    1.8618    1.7154    3.7023 C   0  0  0  0  0  0  0  0  0  0  0  0
    0.6311    1.8321    4.2592 C   0  0  0  0  0  0  0  0  0  0  0  0
   -0.5188    1.5447    3.5651 C   0  0  0  0  0  0  0  0  0  0  0  0
   -2.0513    1.7231    4.3620 Cl  0  0  0  0  0  0  0  0  0  0  0  0
    3.2320    1.1360    1.7321 C   0  0  0  0  0  0  0  0  0  0  0  0
    4.2350    1.6946    2.2506 O   0  0  0  0  0  0  0  0  0  0  0  0
    3.3931    0.3964    0.5603 N   0  0  0  0  0  0  0  0  0  0  0  0
    4.7077    0.2524   -0.0898 C   0  0  0  0  0  0  0  0  0  0  0  0
    4.5801    0.8050   -1.4880 C   0  0  0  0  0  0  0  0  0  0  0  0
    4.1749    2.2777   -1.4601 C   0  0  0  0  0  0  0  0  0  0  0  0
    4.0643    2.7677   -2.8217 N   0  0  0  0  0  0  0  0  0  0  0  0
    5.0842   -1.1708   -0.1894 C   0  0  0  0  0  0  0  0  0  0  0  0
    6.3645   -1.5409    0.1462 C   0  0  0  0  0  0  0  0  0  0  0  0
    6.7353   -2.8890    0.0565 C   0  0  0  0  0  0  0  0  0  0  0  0
    5.8163   -3.8319   -0.3663 C   0  0  0  0  0  0  0  0  0  0  0  0
    4.5403   -3.4156   -0.6936 C   0  0  0  0  0  0  0  0  0  0  0  0
    4.1561   -2.0827   -0.6102 C   0  0  0  0  0  0  0  0  0  0  0  0
   -3.5771    0.4622   -1.5358 C   0  0  0  0  0  0  0  0  0  0  0  0
   -2.7340    0.9612   -2.3042 O   0  0  0  0  0  0  0  0  0  0  0  0
   -4.8371    0.2245   -1.9970 N   0  0  0  0  0  0  0  0  0  0  0  0
   -5.7908   -0.3115   -1.2181 C   0  0  0  0  0  0  0  0  0  0  0  0
   -7.0321   -0.5449   -1.6800 N   0  0  0  0  0  0  0  0  0  0  0  0
   -9.6531   -1.9747   -3.3007 H   0  0  0  0  0  0  0  0  0  0  0  0
   -8.7546   -0.4434   -3.2034 H   0  0  0  0  0  0  0  0  0  0  0  0
  -10.5588   -0.4515   -2.8306 H   0  0  0  0  0  0  0  0  0  0  0  0
   -6.2233   -1.4299    1.9065 H   0  0  0  0  0  0  0  0  0  0  0  0
   -3.9374   -0.6326    1.5864 H   0  0  0  0  0  0  0  0  0  0  0  0
   -2.5944    0.9666    2.1630 H   0  0  0  0  0  0  0  0  0  0  0  0
    0.8852    0.6754    0.6559 H   0  0  0  0  0  0  0  0  0  0  0  0
    2.7550    1.9368    4.2367 H   0  0  0  0  0  0  0  0  0  0  0  0
    0.5666    2.1645    5.2872 H   0  0  0  0  0  0  0  0  0  0  0  0
    2.5972   -0.0803    0.1103 H   0  0  0  0  0  0  0  0  0  0  0  0
    5.4732    0.7902    0.4750 H   0  0  0  0  0  0  0  0  0  0  0  0
    5.5547    0.7617   -2.0201 H   0  0  0  0  0  0  0  0  0  0  0  0
    3.8530    0.2531   -2.0873 H   0  0  0  0  0  0  0  0  0  0  0  0
    4.9400    2.8900   -0.9351 H   0  0  0  0  0  0  0  0  0  0  0  0
    3.1618    2.3570   -1.0079 H   0  0  0  0  0  0  0  0  0  0  0  0
    3.3083    3.4811   -2.9413 H   0  0  0  0  0  0  0  0  0  0  0  0
    4.9799    3.1550   -3.1401 H   0  0  0  0  0  0  0  0  0  0  0  0
    7.1368   -0.8640    0.4843 H   0  0  0  0  0  0  0  0  0  0  0  0
    7.7243   -3.2021    0.3115 H   0  0  0  0  0  0  0  0  0  0  0  0
    6.0354   -4.8735   -0.4566 H   0  0  0  0  0  0  0  0  0  0  0  0
    3.8008   -4.1274   -1.0265 H   0  0  0  0  0  0  0  0  0  0  0  0
    3.1414   -1.8396   -0.8838 H   0  0  0  0  0  0  0  0  0  0  0  0
   -5.0429    0.4763   -2.9926 H   0  0  0  0  0  0  0  0  0  0  0  0
  1  2  1  0
  2  3  1  0
  3  4  2  0
  4  5  1  0
  5  6  2  0
  6  7  1  0
  7  8  2  0
  8  9  1  0
  9 10  2  0
  9 11  1  0
 11 12  1  0
 12 13  2  0
 13 14  1  0
 14 15  2  0
 15 16  1  0
 16 17  2  0
 17 18  1  0
 14 19  1  0
 19 20  2  0
 19 21  1  0
 21 22  1  0
 22 23  1  0
 23 24  1  0
 24 25  1  0
 22 26  1  0
 26 27  2  0
 27 28  1  0
 28 29  2  0
 29 30  1  0
 30 31  2  0
  8 32  1  0
 32 33  2  0
 32 34  1  0
 34 35  1  0
 35 36  2  0
 36  3  1  0
 35  6  1  0
 17 12  1  0
 31 26  1  0
  1 37  1  0
  1 38  1  0
  1 39  1  0
  5 40  1  0
  7 41  1  0
 11 42  1  0
 13 43  1  0
 15 44  1  0
 16 45  1  0
 21 46  1  0
 22 47  1  0
 23 48  1  0
 23 49  1  0
 24 50  1  0
 24 51  1  0
 25 52  1  0
 25 53  1  0
 27 54  1  0
 28 55  1  0
 29 56  1  0
 30 57  1  0
 31 58  1  0
 34 59  1  0
M  END
$$$$
[H]c1c([H])c(C(=O)N([H])[H])c([H])c(N([H])C(=O)c2c([H])c3c([H])nc(OC([H])([H])[H])nc3n([H])c2=O)c1Cl
     RDKit          3D

 38 40  0  0  0  0  0  0  0  0999 V2000
    7.7998    0.5292   -0.3221 C   0  0  0  0  0  0  0  0  0  0  0  0
    6.9620    1.3831   -1.0493 O   0  0  0  0  0  0  0  0  0  0  0  0
    5.5936    1.2451   -0.9757 C   0  0  0  0  0  0  0  0  0  0  0  0
    4.8359    2.1069   -1.7117 N   0  0  0  0  0  0  0  0  0  0  0  0
    3.4968    2.0195   -1.6787 C   0  0  0  0  0  0  0  0  0  0  0  0
    2.8862    1.0450   -0.8898 C   0  0  0  0  0  0  0  0  0  0  0  0
    1.5305    0.9136   -0.8178 C   0  0  0  0  0  0  0  0  0  0  0  0
    0.8901   -0.0576   -0.0279 C   0  0  0  0  0  0  0  0  0  0  0  0
   -0.5671   -0.0923    0.0087 C   0  0  0  0  0  0  0  0  0  0  0  0
   -1.1074    0.4464   -1.0271 O   0  0  0  0  0  0  0  0  0  0  0  0
   -1.3495   -0.6418    1.0439 N   0  0  0  0  0  0  0  0  0  0  0  0
   -2.7558   -0.7127    1.1438 C   0  0  0  0  0  0  0  0  0  0  0  0
   -3.6552   -0.2159    0.2299 C   0  0  0  0  0  0  0  0  0  0  0  0
   -5.0419   -0.3135    0.3804 C   0  0  0  0  0  0  0  0  0  0  0  0
   -5.5018   -0.9422    1.5091 C   0  0  0  0  0  0  0  0  0  0  0  0
   -4.6283   -1.4551    2.4517 C   0  0  0  0  0  0  0  0  0  0  0  0
   -3.2704   -1.3501    2.2866 C   0  0  0  0  0  0  0  0  0  0  0  0
   -2.2391   -2.0275    3.5257 Cl  0  0  0  0  0  0  0  0  0  0  0  0
   -5.9501    0.2350   -0.6177 C   0  0  0  0  0  0  0  0  0  0  0  0
   -7.3279    0.0165   -0.5552 N   0  0  0  0  0  0  0  0  0  0  0  0
   -5.5148    0.9316   -1.5791 O   0  0  0  0  0  0  0  0  0  0  0  0
    1.7436   -0.8679    0.6676 C   0  0  0  0  0  0  0  0  0  0  0  0
    1.3033   -1.7705    1.4019 O   0  0  0  0  0  0  0  0  0  0  0  0
    3.1034   -0.7560    0.6117 N   0  0  0  0  0  0  0  0  0  0  0  0
    3.6602    0.1856   -0.1555 C   0  0  0  0  0  0  0  0  0  0  0  0
    4.9946    0.3140   -0.2227 N   0  0  0  0  0  0  0  0  0  0  0  0
    7.8867   -0.4663   -0.8332 H   0  0  0  0  0  0  0  0  0  0  0  0
    7.3941    0.3267    0.6679 H   0  0  0  0  0  0  0  0  0  0  0  0
    8.8147    0.9831   -0.2157 H   0  0  0  0  0  0  0  0  0  0  0  0
    2.8686    2.6864   -2.2498 H   0  0  0  0  0  0  0  0  0  0  0  0
    0.9189    1.5905   -1.3974 H   0  0  0  0  0  0  0  0  0  0  0  0
   -0.7969   -1.0329    1.8508 H   0  0  0  0  0  0  0  0  0  0  0  0
   -3.3294    0.2839   -0.6679 H   0  0  0  0  0  0  0  0  0  0  0  0
   -6.5774   -1.0237    1.6377 H   0  0  0  0  0  0  0  0  0  0  0  0
   -5.0177   -1.9561    3.3424 H   0  0  0  0  0  0  0  0  0  0  0  0
   -7.8248   -0.4709   -1.3558 H   0  0  0  0  0  0  0  0  0  0  0  0
   -7.9607    0.2941    0.2389 H   0  0  0  0  0  0  0  0  0  0  0  0
    3.7334   -1.3828    1.1500 H   0  0  0  0  0  0  0  0  0  0  0  0
  1  2  1  0
  2  3  1  0
  3  4  2  0
  4  5  1  0
  5  6  2  0
  6  7  1  0
  7  8  2  0
  8  9  1  0
  9 10  2  0
  9 11  1  0
 11 12  1  0
 12 13  2  0
 13 14  1  0
 14 15  2  0
 15 16  1  0
 16 17  2  0
 17 18  1  0
 14 19  1  0
 19 20  1  0
 19 21  2  0
  8 22  1  0
 22 23  2  0
 22 24  1  0
 24 25  1  0
 25 26  2  0
 26  3  1  0
 25  6  1  0
 17 12  1  0
  1 27  1  0
  1 28  1  0
  1 29  1  0
  5 30  1  0
  7 31  1  0
 11 32  1  0
 13 33  1  0
 15 34  1  0
 16 35  1  0
 20 36  1  0
 20 37  1  0
 24 38  1  0
M  END
$$$$
[H]N=C(OC([H])([H])[H])c1nc2c([H])c([H])c3nc([H])nc(N([H])c4c([H])c([H])c5c(c4[H])OC([H])([H])O5)c3c2s1
     RDKit          3D

 40 44  0  0  0  0  0  0  0  0999 V2000
   -6.6767    2.6337    0.2416 C   0  0  0  0  0  0  0  0  0  0  0  0
   -5.7793    1.5756   -0.0299 O   0  0  0  0  0  0  0  0  0  0  0  0
   -4.4120    1.6964    0.0313 C   0  0  0  0  0  0  0  0  0  0  0  0
   -3.8755    2.8566    0.0501 N   0  0  0  0  0  0  0  0  0  0  0  0
   -3.5668    0.5152    0.0753 C   0  0  0  0  0  0  0  0  0  0  0  0
   -3.8535   -0.7700    0.0684 N   0  0  0  0  0  0  0  0  0  0  0  0
   -2.8975   -1.6571    0.1175 C   0  0  0  0  0  0  0  0  0  0  0  0
   -3.0815   -3.0553    0.1072 C   0  0  0  0  0  0  0  0  0  0  0  0
   -1.9899   -3.8548    0.1543 C   0  0  0  0  0  0  0  0  0  0  0  0
   -0.6948   -3.4031    0.2127 C   0  0  0  0  0  0  0  0  0  0  0  0
    0.3713   -4.2070    0.2486 N   0  0  0  0  0  0  0  0  0  0  0  0
    1.6194   -3.6708    0.2957 C   0  0  0  0  0  0  0  0  0  0  0  0
    1.7941   -2.3572    0.3074 N   0  0  0  0  0  0  0  0  0  0  0  0
    0.7603   -1.4618    0.2737 C   0  0  0  0  0  0  0  0  0  0  0  0
    1.0164   -0.0829    0.3547 N   0  0  0  0  0  0  0  0  0  0  0  0
    2.3507    0.4680    0.3318 C   0  0  0  0  0  0  0  0  0  0  0  0
    2.6098    1.6581    1.0295 C   0  0  0  0  0  0  0  0  0  0  0  0
    3.8201    2.2873    1.0513 C   0  0  0  0  0  0  0  0  0  0  0  0
    4.8435    1.7033    0.3370 C   0  0  0  0  0  0  0  0  0  0  0  0
    6.1607    2.1210    0.1860 O   0  0  0  0  0  0  0  0  0  0  0  0
    6.7096    1.3740   -0.8849 C   0  0  0  0  0  0  0  0  0  0  0  0
    5.8706    0.2324   -0.9614 O   0  0  0  0  0  0  0  0  0  0  0  0
    4.6661    0.5490   -0.3642 C   0  0  0  0  0  0  0  0  0  0  0  0
    3.4016   -0.0620   -0.3572 C   0  0  0  0  0  0  0  0  0  0  0  0
   -0.4824   -2.0322    0.2251 C   0  0  0  0  0  0  0  0  0  0  0  0
   -1.6022   -1.2021    0.1761 C   0  0  0  0  0  0  0  0  0  0  0  0
   -1.8780    0.4955    0.1543 S   0  0  0  0  0  0  0  0  0  0  0  0
   -7.7098    2.2661    0.1202 H   0  0  0  0  0  0  0  0  0  0  0  0
   -6.5762    3.0034    1.2837 H   0  0  0  0  0  0  0  0  0  0  0  0
   -6.4315    3.4579   -0.4545 H   0  0  0  0  0  0  0  0  0  0  0  0
   -4.4629    3.7055    0.0195 H   0  0  0  0  0  0  0  0  0  0  0  0
   -4.0680   -3.4909    0.0628 H   0  0  0  0  0  0  0  0  0  0  0  0
   -2.1135   -4.9439    0.1469 H   0  0  0  0  0  0  0  0  0  0  0  0
    2.4326   -4.3916    0.3222 H   0  0  0  0  0  0  0  0  0  0  0  0
    0.2898    0.6103    0.4498 H   0  0  0  0  0  0  0  0  0  0  0  0
    1.7595    2.0668    1.5729 H   0  0  0  0  0  0  0  0  0  0  0  0
    3.9891    3.2018    1.5972 H   0  0  0  0  0  0  0  0  0  0  0  0
    7.7416    1.1167   -0.5959 H   0  0  0  0  0  0  0  0  0  0  0  0
    6.6440    2.0049   -1.7942 H   0  0  0  0  0  0  0  0  0  0  0  0
    3.3012   -0.9569   -0.9400 H   0  0  0  0  0  0  0  0  0  0  0  0
  1  2  1  0
  2  3  1  0
  3  4  2  3
  3  5  1  0
  5  6  2  0
  6  7  1  0
  7  8  2  0
  8  9  1  0
  9 10  2  0
 10 11  1  0
 11 12  2  0
 12 13  1  0
 13 14  2  0
 14 15  1  0
 15 16  1  0
 16 17  2  0
 17 18  1  0
 18 19  2  0
 19 20  1  0
 20 21  1  0
 21 22  1  0
 22 23  1  0
 23 24  2  0
 14 25  1  0
 25 26  2  0
 26 27  1  0
 27  5  1  0
 26  7  1  0
 25 10  1  0
 24 16  1  0
 23 19  1  0
  1 28  1  0
  1 29  1  0
  1 30  1  0
  4 31  1  0
  8 32  1  0
  9 33  1  0
 12 34  1  0
 15 35  1  0
 17 36  1  0
 18 37  1  0
 21 38  1  0
 21 39  1  0
 24 40  1  0
M  END
$$$$
[H]c1nc([H])c2c([H])c(C#N)c3c4c([H])c([H])c(OC([H])([H])[H])c([H])c4n([H])c3c2c1OC([H])([H])[H]
     RDKit          3D

 36 39  0  0  0  0  0  0  0  0999 V2000
    5.9334    0.5558   -1.1025 C   0  0  0  0  0  0  0  0  0  0  0  0
    4.6595    1.1289   -1.3281 O   0  0  0  0  0  0  0  0  0  0  0  0
    3.5153    0.5305   -0.7750 C   0  0  0  0  0  0  0  0  0  0  0  0
    3.6466   -0.6052   -0.0208 C   0  0  0  0  0  0  0  0  0  0  0  0
    2.5394   -1.2014    0.5261 C   0  0  0  0  0  0  0  0  0  0  0  0
    1.2885   -0.6689    0.3251 C   0  0  0  0  0  0  0  0  0  0  0  0
    1.1520    0.4899   -0.4441 C   0  0  0  0  0  0  0  0  0  0  0  0
    2.2781    1.0906   -0.9964 C   0  0  0  0  0  0  0  0  0  0  0  0
   -0.1491    0.8516   -0.5227 N   0  0  0  0  0  0  0  0  0  0  0  0
   -0.8552   -0.0283    0.1653 C   0  0  0  0  0  0  0  0  0  0  0  0
   -0.0035   -0.9914    0.7099 C   0  0  0  0  0  0  0  0  0  0  0  0
   -0.4512   -2.0319    1.4738 C   0  0  0  0  0  0  0  0  0  0  0  0
   -1.8153   -2.1537    1.7315 C   0  0  0  0  0  0  0  0  0  0  0  0
   -2.6632   -1.2141    1.2024 C   0  0  0  0  0  0  0  0  0  0  0  0
   -4.0151   -1.3200    1.4479 C   0  0  0  0  0  0  0  0  0  0  0  0
   -4.8758   -0.4214    0.9483 N   0  0  0  0  0  0  0  0  0  0  0  0
   -4.4415    0.5955    0.2022 C   0  0  0  0  0  0  0  0  0  0  0  0
   -3.0818    0.7755   -0.0946 C   0  0  0  0  0  0  0  0  0  0  0  0
   -2.6944    1.8466   -0.8715 O   0  0  0  0  0  0  0  0  0  0  0  0
   -3.6642    2.7454   -1.3573 C   0  0  0  0  0  0  0  0  0  0  0  0
   -2.2078   -0.1531    0.4237 C   0  0  0  0  0  0  0  0  0  0  0  0
    0.3874   -3.0485    2.0563 C   0  0  0  0  0  0  0  0  0  0  0  0
    1.0336   -3.8847    2.5410 N   0  0  0  0  0  0  0  0  0  0  0  0
    6.0116   -0.4601   -1.5463 H   0  0  0  0  0  0  0  0  0  0  0  0
    6.1311    0.5654   -0.0093 H   0  0  0  0  0  0  0  0  0  0  0  0
    6.6967    1.2061   -1.5658 H   0  0  0  0  0  0  0  0  0  0  0  0
    4.6426   -1.0262    0.1372 H   0  0  0  0  0  0  0  0  0  0  0  0
    2.6852   -2.0774    1.1021 H   0  0  0  0  0  0  0  0  0  0  0  0
    2.1884    1.9800   -1.5888 H   0  0  0  0  0  0  0  0  0  0  0  0
   -0.4484    1.7039   -1.0629 H   0  0  0  0  0  0  0  0  0  0  0  0
   -2.1965   -2.9857    2.3453 H   0  0  0  0  0  0  0  0  0  0  0  0
   -4.3480   -2.1626    2.0626 H   0  0  0  0  0  0  0  0  0  0  0  0
   -5.1157    1.3467   -0.2213 H   0  0  0  0  0  0  0  0  0  0  0  0
   -4.4683    2.2471   -1.9356 H   0  0  0  0  0  0  0  0  0  0  0  0
   -3.1273    3.4665   -2.0298 H   0  0  0  0  0  0  0  0  0  0  0  0
   -4.1672    3.3083   -0.5285 H   0  0  0  0  0  0  0  0  0  0  0  0
  1  2  1  0
  2  3  1  0
  3  4  2  0
  4  5  1  0
  5  6  2  0
  6  7  1  0
  7  8  2  0
  7  9  1  0
  9 10  1  0
 10 11  2  0
 11 12  1  0
 12 13  2  0
 13 14  1  0
 14 15  2  0
 15 16  1  0
 16 17  2  0
 17 18  1  0
 18 19  1  0
 19 20  1  0
 18 21  2  0
 12 22  1  0
 22 23  3  0
  8  3  1  0
 21 10  1  0
 11  6  1  0
 21 14  1  0
  1 24  1  0
  1 25  1  0
  1 26  1  0
  4 27  1  0
  5 28  1  0
  8 29  1  0
  9 30  1  0
 13 31  1  0
 15 32  1  0
 17 33  1  0
 20 34  1  0
 20 35  1  0
 20 36  1  0
M  END
$$$$
[H]N=C(OC([H])([H])[H])c1nc2c([H])c([H])c3nc([H])nc(N([H])c4c([H])c([H])c(F)c([H])c4[H])c3c2s1
     RDKit          3D

 37 40  0  0  0  0  0  0  0  0999 V2000
    6.2749    2.2164    0.3228 C   0  0  0  0  0  0  0  0  0  0  0  0
    5.2745    1.4044   -0.3131 O   0  0  0  0  0  0  0  0  0  0  0  0
    3.9429    1.6438   -0.1739 C   0  0  0  0  0  0  0  0  0  0  0  0
    3.5199    2.8367    0.0103 N   0  0  0  0  0  0  0  0  0  0  0  0
    2.9922    0.5157   -0.2368 C   0  0  0  0  0  0  0  0  0  0  0  0
    3.2107   -0.7532   -0.4140 N   0  0  0  0  0  0  0  0  0  0  0  0
    2.2013   -1.5927   -0.4317 C   0  0  0  0  0  0  0  0  0  0  0  0
    2.2976   -2.9839   -0.6235 C   0  0  0  0  0  0  0  0  0  0  0  0
    1.1748   -3.7424   -0.6304 C   0  0  0  0  0  0  0  0  0  0  0  0
   -0.0946   -3.2392   -0.4579 C   0  0  0  0  0  0  0  0  0  0  0  0
   -1.2165   -3.9550   -0.4696 N   0  0  0  0  0  0  0  0  0  0  0  0
   -2.4121   -3.3726   -0.3023 C   0  0  0  0  0  0  0  0  0  0  0  0
   -2.4868   -2.0629   -0.1209 N   0  0  0  0  0  0  0  0  0  0  0  0
   -1.4178   -1.2457   -0.0910 C   0  0  0  0  0  0  0  0  0  0  0  0
   -1.6146    0.1290    0.1796 N   0  0  0  0  0  0  0  0  0  0  0  0
   -2.9081    0.7386    0.2815 C   0  0  0  0  0  0  0  0  0  0  0  0
   -3.0233    1.8659    1.1071 C   0  0  0  0  0  0  0  0  0  0  0  0
   -4.2058    2.5568    1.2611 C   0  0  0  0  0  0  0  0  0  0  0  0
   -5.3205    2.1293    0.5812 C   0  0  0  0  0  0  0  0  0  0  0  0
   -6.5063    2.7740    0.6995 F   0  0  0  0  0  0  0  0  0  0  0  0
   -5.2367    1.0359   -0.2289 C   0  0  0  0  0  0  0  0  0  0  0  0
   -4.0239    0.3608   -0.3618 C   0  0  0  0  0  0  0  0  0  0  0  0
   -0.2012   -1.8552   -0.2652 C   0  0  0  0  0  0  0  0  0  0  0  0
    0.9431   -1.0805   -0.2588 C   0  0  0  0  0  0  0  0  0  0  0  0
    1.3070    0.5879   -0.0825 S   0  0  0  0  0  0  0  0  0  0  0  0
    7.2831    1.8200    0.0636 H   0  0  0  0  0  0  0  0  0  0  0  0
    6.1624    3.2665   -0.0104 H   0  0  0  0  0  0  0  0  0  0  0  0
    6.1385    2.1027    1.4168 H   0  0  0  0  0  0  0  0  0  0  0  0
    4.1732    3.6306    0.0562 H   0  0  0  0  0  0  0  0  0  0  0  0
    3.2466   -3.4819   -0.7683 H   0  0  0  0  0  0  0  0  0  0  0  0
    1.2017   -4.8382   -0.7778 H   0  0  0  0  0  0  0  0  0  0  0  0
   -3.2996   -4.0206   -0.3231 H   0  0  0  0  0  0  0  0  0  0  0  0
   -0.8215    0.7509    0.3329 H   0  0  0  0  0  0  0  0  0  0  0  0
   -2.1404    2.1942    1.6377 H   0  0  0  0  0  0  0  0  0  0  0  0
   -4.2407    3.4389    1.9246 H   0  0  0  0  0  0  0  0  0  0  0  0
   -6.1238    0.7002   -0.7665 H   0  0  0  0  0  0  0  0  0  0  0  0
   -4.0503   -0.4755   -1.0370 H   0  0  0  0  0  0  0  0  0  0  0  0
  1  2  1  0
  2  3  1  0
  3  4  2  3
  3  5  1  0
  5  6  2  0
  6  7  1  0
  7  8  2  0
  8  9  1  0
  9 10  2  0
 10 11  1  0
 11 12  2  0
 12 13  1  0
 13 14  2  0
 14 15  1  0
 15 16  1  0
 16 17  2  0
 17 18  1  0
 18 19  2  0
 19 20  1  0
 19 21  1  0
 21 22  2  0
 14 23  1  0
 23 24  2  0
 24 25  1  0
 25  5  1  0
 24  7  1  0
 23 10  1  0
 22 16  1  0
  1 26  1  0
  1 27  1  0
  1 28  1  0
  4 29  1  0
  8 30  1  0
  9 31  1  0
 12 32  1  0
 15 33  1  0
 17 34  1  0
 18 35  1  0
 21 36  1  0
 22 37  1  0
M  END
$$$$
[H]c1nc(N([H])C([H])([H])C(C([H])([H])[H])(C([H])([H])[H])C([H])([H])[H])c2c([H])c(-c3c([H])c([H])c4c(c3[H])OC([H])([H])O4)c([H])c([H])c2n1
     RDKit          3D

 46 49  0  0  0  0  0  0  0  0999 V2000
   -5.6892    0.7623    0.0897 C   0  0  0  0  0  0  0  0  0  0  0  0
   -4.1623    0.9060    0.0703 C   0  0  0  0  0  0  0  0  0  0  0  0
   -3.7609    1.6743    1.2903 C   0  0  0  0  0  0  0  0  0  0  0  0
   -3.7963    1.6652   -1.1969 C   0  0  0  0  0  0  0  0  0  0  0  0
   -3.5977   -0.4695    0.0046 C   0  0  0  0  0  0  0  0  0  0  0  0
   -2.1514   -0.5042   -0.0215 N   0  0  0  0  0  0  0  0  0  0  0  0
   -1.5032   -1.7616   -0.0839 C   0  0  0  0  0  0  0  0  0  0  0  0
   -2.2203   -2.9219   -0.1180 N   0  0  0  0  0  0  0  0  0  0  0  0
   -1.6812   -4.1367   -0.1765 C   0  0  0  0  0  0  0  0  0  0  0  0
   -0.3599   -4.2752   -0.2055 N   0  0  0  0  0  0  0  0  0  0  0  0
    0.4260   -3.1728   -0.1750 C   0  0  0  0  0  0  0  0  0  0  0  0
    1.7946   -3.3932   -0.2086 C   0  0  0  0  0  0  0  0  0  0  0  0
    2.6170   -2.2864   -0.1791 C   0  0  0  0  0  0  0  0  0  0  0  0
    2.0684   -1.0213   -0.1185 C   0  0  0  0  0  0  0  0  0  0  0  0
    0.6843   -0.8152   -0.0851 C   0  0  0  0  0  0  0  0  0  0  0  0
   -0.1298   -1.9104   -0.1143 C   0  0  0  0  0  0  0  0  0  0  0  0
    3.0033    0.1029   -0.0919 C   0  0  0  0  0  0  0  0  0  0  0  0
    2.6724    1.2610    0.5781 C   0  0  0  0  0  0  0  0  0  0  0  0
    3.5896    2.2997    0.5751 C   0  0  0  0  0  0  0  0  0  0  0  0
    4.7974    2.1671   -0.0834 C   0  0  0  0  0  0  0  0  0  0  0  0
    5.8760    3.0391   -0.2392 O   0  0  0  0  0  0  0  0  0  0  0  0
    7.0066    2.2331   -0.5685 C   0  0  0  0  0  0  0  0  0  0  0  0
    6.4015    1.1974   -1.3044 O   0  0  0  0  0  0  0  0  0  0  0  0
    5.1414    1.0091   -0.7598 C   0  0  0  0  0  0  0  0  0  0  0  0
    4.2167   -0.0114   -0.7453 C   0  0  0  0  0  0  0  0  0  0  0  0
   -6.1816    1.7437    0.2429 H   0  0  0  0  0  0  0  0  0  0  0  0
   -6.0445    0.2894   -0.8552 H   0  0  0  0  0  0  0  0  0  0  0  0
   -5.9445    0.0480    0.8987 H   0  0  0  0  0  0  0  0  0  0  0  0
   -3.0471    2.4644    0.9753 H   0  0  0  0  0  0  0  0  0  0  0  0
   -4.6357    2.1969    1.7262 H   0  0  0  0  0  0  0  0  0  0  0  0
   -3.3462    1.0164    2.0757 H   0  0  0  0  0  0  0  0  0  0  0  0
   -4.6840    2.1200   -1.6805 H   0  0  0  0  0  0  0  0  0  0  0  0
   -3.2587    1.0247   -1.9260 H   0  0  0  0  0  0  0  0  0  0  0  0
   -3.1345    2.5245   -0.8942 H   0  0  0  0  0  0  0  0  0  0  0  0
   -3.9888   -0.9569   -0.9159 H   0  0  0  0  0  0  0  0  0  0  0  0
   -3.9783   -1.0607    0.8825 H   0  0  0  0  0  0  0  0  0  0  0  0
   -1.6439    0.3853    0.0061 H   0  0  0  0  0  0  0  0  0  0  0  0
   -2.2911   -5.0493   -0.2026 H   0  0  0  0  0  0  0  0  0  0  0  0
    2.2261   -4.3823   -0.2565 H   0  0  0  0  0  0  0  0  0  0  0  0
    3.6984   -2.4559   -0.2049 H   0  0  0  0  0  0  0  0  0  0  0  0
    0.3005    0.1739   -0.0384 H   0  0  0  0  0  0  0  0  0  0  0  0
    1.7368    1.3939    1.1015 H   0  0  0  0  0  0  0  0  0  0  0  0
    3.3328    3.1993    1.0952 H   0  0  0  0  0  0  0  0  0  0  0  0
    7.4267    1.7754    0.3540 H   0  0  0  0  0  0  0  0  0  0  0  0
    7.7264    2.8249   -1.1301 H   0  0  0  0  0  0  0  0  0  0  0  0
    4.4883   -0.9135   -1.2746 H   0  0  0  0  0  0  0  0  0  0  0  0
  1  2  1  0
  2  3  1  0
  2  4  1  0
  2  5  1  0
  5  6  1  0
  6  7  1  0
  7  8  2  0
  8  9  1  0
  9 10  2  0
 10 11  1  0
 11 12  2  0
 12 13  1  0
 13 14  2  0
 14 15  1  0
 15 16  2  0
 14 17  1  0
 17 18  2  0
 18 19  1  0
 19 20  2  0
 20 21  1  0
 21 22  1  0
 22 23  1  0
 23 24  1  0
 24 25  2  0
 16  7  1  0
 25 17  1  0
 16 11  1  0
 24 20  1  0
  1 26  1  0
  1 27  1  0
  1 28  1  0
  3 29  1  0
  3 30  1  0
  3 31  1  0
  4 32  1  0
  4 33  1  0
  4 34  1  0
  5 35  1  0
  5 36  1  0
  6 37  1  0
  9 38  1  0
 12 39  1  0
 13 40  1  0
 15 41  1  0
 18 42  1  0
 19 43  1  0
 22 44  1  0
 22 45  1  0
 25 46  1  0
M  END
$$$$
[H]c1nc([H])c(-c2c([H])c([H])c3c(c(C([H])([H])[H])nn3[H])c2[H])c([H])c1OC([H])([H])[C@@]([H])(N([H])[H])C([H])([H])c1c([H])c([H])c([H])c([H])c1[H]
     RDKit          3D

 49 52  0  0  0  0  0  0  0  0999 V2000
    7.7900   -0.8290    0.9525 C   0  0  0  0  0  0  0  0  0  0  0  0
    7.0578    0.4008    0.6031 C   0  0  0  0  0  0  0  0  0  0  0  0
    7.5223    1.6552    0.6620 N   0  0  0  0  0  0  0  0  0  0  0  0
    6.5745    2.5037    0.2693 N   0  0  0  0  0  0  0  0  0  0  0  0
    5.4521    1.8296   -0.0614 C   0  0  0  0  0  0  0  0  0  0  0  0
    4.2039    2.1962   -0.5184 C   0  0  0  0  0  0  0  0  0  0  0  0
    3.2371    1.2385   -0.7731 C   0  0  0  0  0  0  0  0  0  0  0  0
    3.5084   -0.1020   -0.5729 C   0  0  0  0  0  0  0  0  0  0  0  0
    4.7651   -0.4369   -0.1155 C   0  0  0  0  0  0  0  0  0  0  0  0
    5.7617    0.4832    0.1523 C   0  0  0  0  0  0  0  0  0  0  0  0
    2.4836   -1.1075   -0.8438 C   0  0  0  0  0  0  0  0  0  0  0  0
    2.7843   -2.3796   -1.2731 C   0  0  0  0  0  0  0  0  0  0  0  0
    1.8429   -3.3029   -1.5220 N   0  0  0  0  0  0  0  0  0  0  0  0
    0.5591   -2.9804   -1.3480 C   0  0  0  0  0  0  0  0  0  0  0  0
    0.1444   -1.7218   -0.9169 C   0  0  0  0  0  0  0  0  0  0  0  0
   -1.1846   -1.5050   -0.7747 O   0  0  0  0  0  0  0  0  0  0  0  0
   -1.8265   -0.3392   -0.3616 C   0  0  0  0  0  0  0  0  0  0  0  0
   -3.3194   -0.4336   -0.3115 C   0  0  1  0  0  0  0  0  0  0  0  0
   -3.8152   -1.4394    0.5800 N   0  0  0  0  0  0  0  0  0  0  0  0
   -3.8667    0.9021    0.1518 C   0  0  0  0  0  0  0  0  0  0  0  0
   -5.3386    0.9020    0.2315 C   0  0  0  0  0  0  0  0  0  0  0  0
   -6.0849    1.2688   -0.8654 C   0  0  0  0  0  0  0  0  0  0  0  0
   -7.4639    1.2802   -0.8263 C   0  0  0  0  0  0  0  0  0  0  0  0
   -8.1050    0.9127    0.3477 C   0  0  0  0  0  0  0  0  0  0  0  0
   -7.3717    0.5426    1.4553 C   0  0  0  0  0  0  0  0  0  0  0  0
   -5.9761    0.5428    1.3793 C   0  0  0  0  0  0  0  0  0  0  0  0
    1.1448   -0.8078   -0.6742 C   0  0  0  0  0  0  0  0  0  0  0  0
    8.2942   -0.7417    1.9572 H   0  0  0  0  0  0  0  0  0  0  0  0
    7.1239   -1.7125    1.0331 H   0  0  0  0  0  0  0  0  0  0  0  0
    8.5574   -1.0982    0.1744 H   0  0  0  0  0  0  0  0  0  0  0  0
    6.7135    3.5430    0.2338 H   0  0  0  0  0  0  0  0  0  0  0  0
    4.0143    3.2422   -0.6670 H   0  0  0  0  0  0  0  0  0  0  0  0
    2.2527    1.5116   -1.1321 H   0  0  0  0  0  0  0  0  0  0  0  0
    4.9815   -1.4826    0.0423 H   0  0  0  0  0  0  0  0  0  0  0  0
    3.8133   -2.6552   -1.4181 H   0  0  0  0  0  0  0  0  0  0  0  0
   -0.1744   -3.7494   -1.5580 H   0  0  0  0  0  0  0  0  0  0  0  0
   -1.5657    0.4657   -1.0805 H   0  0  0  0  0  0  0  0  0  0  0  0
   -1.4157   -0.0216    0.6185 H   0  0  0  0  0  0  0  0  0  0  0  0
   -3.7498   -0.6163   -1.3163 H   0  0  0  0  0  0  0  0  0  0  0  0
   -3.5654   -1.2206    1.5870 H   0  0  0  0  0  0  0  0  0  0  0  0
   -3.4155   -2.3844    0.3933 H   0  0  0  0  0  0  0  0  0  0  0  0
   -3.4726    1.1857    1.1554 H   0  0  0  0  0  0  0  0  0  0  0  0
   -3.5831    1.7269   -0.5514 H   0  0  0  0  0  0  0  0  0  0  0  0
   -5.6182    1.5612   -1.7972 H   0  0  0  0  0  0  0  0  0  0  0  0
   -8.0448    1.5694   -1.6916 H   0  0  0  0  0  0  0  0  0  0  0  0
   -9.1816    0.9202    0.3824 H   0  0  0  0  0  0  0  0  0  0  0  0
   -7.8680    0.2618    2.3522 H   0  0  0  0  0  0  0  0  0  0  0  0
   -5.4389    0.2508    2.2560 H   0  0  0  0  0  0  0  0  0  0  0  0
    0.8633    0.1702   -0.3414 H   0  0  0  0  0  0  0  0  0  0  0  0
  1  2  1  0
  2  3  2  0
  3  4  1  0
  4  5  1  0
  5  6  2  0
  6  7  1  0
  7  8  2  0
  8  9  1  0
  9 10  2  0
  8 11  1  0
 11 12  2  0
 12 13  1  0
 13 14  2  0
 14 15  1  0
 15 16  1  0
 16 17  1  0
 17 18  1  0
 18 19  1  0
 18 20  1  0
 20 21  1  0
 21 22  2  0
 22 23  1  0
 23 24  2  0
 24 25  1  0
 25 26  2  0
 15 27  2  0
 10  2  1  0
 27 11  1  0
 10  5  1  0
 26 21  1  0
  1 28  1  0
  1 29  1  0
  1 30  1  0
  4 31  1  0
  6 32  1  0
  7 33  1  0
  9 34  1  0
 12 35  1  0
 14 36  1  0
 17 37  1  0
 17 38  1  0
 18 39  1  6
 19 40  1  0
 19 41  1  0
 20 42  1  0
 20 43  1  0
 22 44  1  0
 23 45  1  0
 24 46  1  0
 25 47  1  0
 26 48  1  0
 27 49  1  0
M  END
$$$$
[H]c1sc(-c2c([H])c([H])c3c(c2[H])C([H])([H])C([H])([H])O3)nc1C(=O)N([H])c1nc2c([H])c([H])c(N3C([H])([H])C([H])([H])N(C([H])([H])[H])C([H])([H])C3([H])[H])c([H])c2s1
     RDKit          3D

 56 61  0  0  0  0  0  0  0  0999 V2000
   -7.7799    2.7121    0.3558 C   0  0  0  0  0  0  0  0  0  0  0  0
   -7.8441    1.4058   -0.2684 N   0  0  0  0  0  0  0  0  0  0  0  0
   -6.9685    1.3907   -1.3980 C   0  0  0  0  0  0  0  0  0  0  0  0
   -5.4968    1.3880   -0.9640 C   0  0  0  0  0  0  0  0  0  0  0  0
   -5.2845    0.1420   -0.2701 N   0  0  0  0  0  0  0  0  0  0  0  0
   -6.4418   -0.5326    0.2737 C   0  0  0  0  0  0  0  0  0  0  0  0
   -7.5154    0.4243    0.7303 C   0  0  0  0  0  0  0  0  0  0  0  0
   -3.9805   -0.3755   -0.1375 C   0  0  0  0  0  0  0  0  0  0  0  0
   -2.8744    0.3161   -0.5718 C   0  0  0  0  0  0  0  0  0  0  0  0
   -1.5904   -0.1258   -0.4798 C   0  0  0  0  0  0  0  0  0  0  0  0
   -1.3352   -1.3863    0.1003 C   0  0  0  0  0  0  0  0  0  0  0  0
   -0.1603   -1.9258    0.2481 N   0  0  0  0  0  0  0  0  0  0  0  0
   -0.0034   -3.1035    0.7967 C   0  0  0  0  0  0  0  0  0  0  0  0
    1.1325   -3.9221    1.0787 N   0  0  0  0  0  0  0  0  0  0  0  0
    2.4566   -3.7603    0.7937 C   0  0  0  0  0  0  0  0  0  0  0  0
    3.3472   -4.5883    1.2664 O   0  0  0  0  0  0  0  0  0  0  0  0
    3.0581   -2.7070   -0.0293 C   0  0  0  0  0  0  0  0  0  0  0  0
    2.5392   -2.3278   -1.2460 C   0  0  0  0  0  0  0  0  0  0  0  0
    3.5903   -1.0559   -1.7013 S   0  0  0  0  0  0  0  0  0  0  0  0
    4.6181   -1.0730   -0.3463 C   0  0  0  0  0  0  0  0  0  0  0  0
    4.1089   -2.0432    0.3816 N   0  0  0  0  0  0  0  0  0  0  0  0
    5.7868   -0.2512   -0.0129 C   0  0  0  0  0  0  0  0  0  0  0  0
    6.4986   -0.4173    1.1522 C   0  0  0  0  0  0  0  0  0  0  0  0
    7.6056    0.3988    1.4072 C   0  0  0  0  0  0  0  0  0  0  0  0
    7.9929    1.3658    0.5092 C   0  0  0  0  0  0  0  0  0  0  0  0
    9.0479    2.2999    0.5256 O   0  0  0  0  0  0  0  0  0  0  0  0
    9.2664    2.7506   -0.8025 C   0  0  0  0  0  0  0  0  0  0  0  0
    7.9133    2.6307   -1.4245 C   0  0  0  0  0  0  0  0  0  0  0  0
    7.2784    1.5318   -0.6588 C   0  0  0  0  0  0  0  0  0  0  0  0
    6.1715    0.7122   -0.9089 C   0  0  0  0  0  0  0  0  0  0  0  0
   -1.6692   -3.5081    1.1463 S   0  0  0  0  0  0  0  0  0  0  0  0
   -2.4142   -2.0974    0.5414 C   0  0  0  0  0  0  0  0  0  0  0  0
   -3.7252   -1.6089    0.4296 C   0  0  0  0  0  0  0  0  0  0  0  0
   -6.8661    2.7452    0.9769 H   0  0  0  0  0  0  0  0  0  0  0  0
   -8.6402    2.8774    1.0396 H   0  0  0  0  0  0  0  0  0  0  0  0
   -7.8079    3.4926   -0.4298 H   0  0  0  0  0  0  0  0  0  0  0  0
   -7.1724    2.2224   -2.0917 H   0  0  0  0  0  0  0  0  0  0  0  0
   -7.1250    0.3981   -1.9126 H   0  0  0  0  0  0  0  0  0  0  0  0
   -5.3173    2.2134   -0.2361 H   0  0  0  0  0  0  0  0  0  0  0  0
   -4.8653    1.5126   -1.8683 H   0  0  0  0  0  0  0  0  0  0  0  0
   -6.1002   -1.0533    1.2162 H   0  0  0  0  0  0  0  0  0  0  0  0
   -6.8350   -1.3110   -0.4070 H   0  0  0  0  0  0  0  0  0  0  0  0
   -7.2431    0.8455    1.7108 H   0  0  0  0  0  0  0  0  0  0  0  0
   -8.4365   -0.1957    0.8967 H   0  0  0  0  0  0  0  0  0  0  0  0
   -3.0483    1.3024   -1.0254 H   0  0  0  0  0  0  0  0  0  0  0  0
   -0.7995    0.5053   -0.8556 H   0  0  0  0  0  0  0  0  0  0  0  0
    0.8911   -4.7958    1.7058 H   0  0  0  0  0  0  0  0  0  0  0  0
    1.6782   -2.7537   -1.8039 H   0  0  0  0  0  0  0  0  0  0  0  0
    6.1757   -1.1834    1.8423 H   0  0  0  0  0  0  0  0  0  0  0  0
    8.1578    0.2637    2.3196 H   0  0  0  0  0  0  0  0  0  0  0  0
    9.9542    1.9916   -1.2718 H   0  0  0  0  0  0  0  0  0  0  0  0
    9.6546    3.7691   -0.8601 H   0  0  0  0  0  0  0  0  0  0  0  0
    7.3407    3.5785   -1.3196 H   0  0  0  0  0  0  0  0  0  0  0  0
    7.9632    2.3128   -2.4923 H   0  0  0  0  0  0  0  0  0  0  0  0
    5.6147    0.8420   -1.8188 H   0  0  0  0  0  0  0  0  0  0  0  0
   -4.5021   -2.2384    0.8028 H   0  0  0  0  0  0  0  0  0  0  0  0
  1  2  1  0
  2  3  1  0
  3  4  1  0
  4  5  1  0
  5  6  1  0
  6  7  1  0
  5  8  1  0
  8  9  2  0
  9 10  1  0
 10 11  2  0
 11 12  1  0
 12 13  2  0
 13 14  1  0
 14 15  1  0
 15 16  2  0
 15 17  1  0
 17 18  2  0
 18 19  1  0
 19 20  1  0
 20 21  2  0
 20 22  1  0
 22 23  2  0
 23 24  1  0
 24 25  2  0
 25 26  1  0
 26 27  1  0
 27 28  1  0
 28 29  1  0
 29 30  2  0
 13 31  1  0
 31 32  1  0
 32 33  2  0
  7  2  1  0
 33  8  1  0
 32 11  1  0
 21 17  1  0
 30 22  1  0
 29 25  1  0
  1 34  1  0
  1 35  1  0
  1 36  1  0
  3 37  1  0
  3 38  1  0
  4 39  1  0
  4 40  1  0
  6 41  1  0
  6 42  1  0
  7 43  1  0
  7 44  1  0
  9 45  1  0
 10 46  1  0
 14 47  1  0
 18 48  1  0
 23 49  1  0
 24 50  1  0
 27 51  1  0
 27 52  1  0
 28 53  1  0
 28 54  1  0
 30 55  1  0
 33 56  1  0
M  END
$$$$
[H]c1nc(N([H])c2c([H])c([H])c(N3C([H])([H])C([H])([H])N(C([H])([H])[H])C([H])([H])C3([H])[H])c([H])c2OC([H])([H])[H])nc(-c2c([H])n([H])c3c([H])nc([H])c([H])c23)c1[H]
     RDKit          3D

 56 60  0  0  0  0  0  0  0  0999 V2000
    1.1574   -0.0051   -3.8448 C   0  0  0  0  0  0  0  0  0  0  0  0
    0.4584   -0.0334   -2.6377 O   0  0  0  0  0  0  0  0  0  0  0  0
    1.0968   -0.1393   -1.4068 C   0  0  0  0  0  0  0  0  0  0  0  0
    2.4722   -0.2209   -1.3504 C   0  0  0  0  0  0  0  0  0  0  0  0
    3.1421   -0.3269   -0.1530 C   0  0  0  0  0  0  0  0  0  0  0  0
    2.3656   -0.3466    0.9752 C   0  0  0  0  0  0  0  0  0  0  0  0
    0.9576   -0.2635    0.9298 C   0  0  0  0  0  0  0  0  0  0  0  0
    0.2946   -0.1585   -0.2583 C   0  0  0  0  0  0  0  0  0  0  0  0
   -1.0815   -0.0699   -0.4315 N   0  0  0  0  0  0  0  0  0  0  0  0
   -2.1198   -0.0641    0.5207 C   0  0  0  0  0  0  0  0  0  0  0  0
   -1.9098   -0.1494    1.8273 N   0  0  0  0  0  0  0  0  0  0  0  0
   -2.8729   -0.1471    2.7553 C   0  0  0  0  0  0  0  0  0  0  0  0
   -4.2144   -0.0485    2.3525 C   0  0  0  0  0  0  0  0  0  0  0  0
   -4.4557    0.0386    1.0177 C   0  0  0  0  0  0  0  0  0  0  0  0
   -3.4197    0.0297    0.1459 N   0  0  0  0  0  0  0  0  0  0  0  0
   -5.7826    0.2003    0.4367 C   0  0  0  0  0  0  0  0  0  0  0  0
   -6.0391    0.7625   -0.8313 C   0  0  0  0  0  0  0  0  0  0  0  0
   -7.3494    0.7298   -1.0877 N   0  0  0  0  0  0  0  0  0  0  0  0
   -7.9779    0.1732   -0.0551 C   0  0  0  0  0  0  0  0  0  0  0  0
   -9.3348   -0.0872    0.1280 C   0  0  0  0  0  0  0  0  0  0  0  0
   -9.7063   -0.6853    1.2724 N   0  0  0  0  0  0  0  0  0  0  0  0
   -8.8190   -1.0289    2.2188 C   0  0  0  0  0  0  0  0  0  0  0  0
   -7.4577   -0.7775    2.0568 C   0  0  0  0  0  0  0  0  0  0  0  0
   -7.0294   -0.1638    0.9002 C   0  0  0  0  0  0  0  0  0  0  0  0
    4.5589   -0.4279   -0.0785 N   0  0  0  0  0  0  0  0  0  0  0  0
    5.4074   -0.8188   -1.1930 C   0  0  0  0  0  0  0  0  0  0  0  0
    6.3561    0.3155   -1.4623 C   0  0  0  0  0  0  0  0  0  0  0  0
    7.1392    0.6133   -0.2774 N   0  0  0  0  0  0  0  0  0  0  0  0
    8.1517   -0.3788   -0.0798 C   0  0  0  0  0  0  0  0  0  0  0  0
    6.3538    0.9035    0.8762 C   0  0  0  0  0  0  0  0  0  0  0  0
    5.2564   -0.1203    1.1548 C   0  0  0  0  0  0  0  0  0  0  0  0
    1.6789    0.9706   -3.9196 H   0  0  0  0  0  0  0  0  0  0  0  0
    1.8829   -0.8532   -3.8366 H   0  0  0  0  0  0  0  0  0  0  0  0
    0.4030   -0.1257   -4.6670 H   0  0  0  0  0  0  0  0  0  0  0  0
    3.0685   -0.1978   -2.2762 H   0  0  0  0  0  0  0  0  0  0  0  0
    2.8037   -0.4330    1.9526 H   0  0  0  0  0  0  0  0  0  0  0  0
    0.4096   -0.2842    1.8479 H   0  0  0  0  0  0  0  0  0  0  0  0
   -1.4732    0.0098   -1.4478 H   0  0  0  0  0  0  0  0  0  0  0  0
   -2.6714   -0.2182    3.8181 H   0  0  0  0  0  0  0  0  0  0  0  0
   -4.9605   -0.0180    3.1224 H   0  0  0  0  0  0  0  0  0  0  0  0
   -5.2474    1.1449   -1.4502 H   0  0  0  0  0  0  0  0  0  0  0  0
   -7.8354    1.0777   -1.9519 H   0  0  0  0  0  0  0  0  0  0  0  0
  -10.0611    0.1843   -0.6276 H   0  0  0  0  0  0  0  0  0  0  0  0
   -9.1140   -1.5149    3.1487 H   0  0  0  0  0  0  0  0  0  0  0  0
   -6.7663   -1.0848    2.8201 H   0  0  0  0  0  0  0  0  0  0  0  0
    4.8326   -1.0818   -2.0698 H   0  0  0  0  0  0  0  0  0  0  0  0
    5.9377   -1.7370   -0.8472 H   0  0  0  0  0  0  0  0  0  0  0  0
    7.0621   -0.0155   -2.2450 H   0  0  0  0  0  0  0  0  0  0  0  0
    5.7725    1.1743   -1.8217 H   0  0  0  0  0  0  0  0  0  0  0  0
    8.9398   -0.2143   -0.8583 H   0  0  0  0  0  0  0  0  0  0  0  0
    7.8002   -1.4117   -0.0865 H   0  0  0  0  0  0  0  0  0  0  0  0
    8.5897   -0.2088    0.9457 H   0  0  0  0  0  0  0  0  0  0  0  0
    7.0217    0.8736    1.7617 H   0  0  0  0  0  0  0  0  0  0  0  0
    5.9313    1.9329    0.8509 H   0  0  0  0  0  0  0  0  0  0  0  0
    4.6263    0.3224    1.9351 H   0  0  0  0  0  0  0  0  0  0  0  0
    5.7707   -1.0494    1.4815 H   0  0  0  0  0  0  0  0  0  0  0  0
  1  2  1  0
  2  3  1  0
  3  4  2  0
  4  5  1  0
  5  6  2  0
  6  7  1  0
  7  8  2  0
  8  9  1  0
  9 10  1  0
 10 11  2  0
 11 12  1  0
 12 13  2  0
 13 14  1  0
 14 15  2  0
 14 16  1  0
 16 17  2  0
 17 18  1  0
 18 19  1  0
 19 20  2  0
 20 21  1  0
 21 22  2  0
 22 23  1  0
 23 24  2  0
  5 25  1  0
 25 26  1  0
 26 27  1  0
 27 28  1  0
 28 29  1  0
 28 30  1  0
 30 31  1  0
  8  3  1  0
 15 10  1  0
 24 16  1  0
 31 25  1  0
 24 19  1  0
  1 32  1  0
  1 33  1  0
  1 34  1  0
  4 35  1  0
  6 36  1  0
  7 37  1  0
  9 38  1  0
 12 39  1  0
 13 40  1  0
 17 41  1  0
 18 42  1  0
 20 43  1  0
 22 44  1  0
 23 45  1  0
 26 46  1  0
 26 47  1  0
 27 48  1  0
 27 49  1  0
 29 50  1  0
 29 51  1  0
 29 52  1  0
 30 53  1  0
 30 54  1  0
 31 55  1  0
 31 56  1  0
M  END
$$$$
[H]c1sc(-c2c([H])c([H])c3c(c2[H])C([H])([H])C([H])([H])O3)nc1C(=O)N([H])c1nc2c([H])c([H])c(C([H])([H])N3C([H])([H])C([H])([H])OC([H])([H])C3([H])[H])c([H])c2s1
     RDKit          3D

 55 60  0  0  0  0  0  0  0  0999 V2000
   -1.4960   -0.2481   -0.4051 O   0  0  0  0  0  0  0  0  0  0  0  0
   -1.7804    0.9347   -0.0372 C   0  0  0  0  0  0  0  0  0  0  0  0
   -0.7348    1.8567    0.0967 N   0  0  0  0  0  0  0  0  0  0  0  0
    0.6018    1.4567   -0.1773 C   0  0  0  0  0  0  0  0  0  0  0  0
    1.0705    0.2841   -0.5645 N   0  0  0  0  0  0  0  0  0  0  0  0
    2.3500    0.1142   -0.7668 C   0  0  0  0  0  0  0  0  0  0  0  0
    2.9603   -1.0922   -1.1806 C   0  0  0  0  0  0  0  0  0  0  0  0
    4.3018   -1.1342   -1.3543 C   0  0  0  0  0  0  0  0  0  0  0  0
    5.1545   -0.0724   -1.1577 C   0  0  0  0  0  0  0  0  0  0  0  0
    6.6023   -0.2111   -1.3835 C   0  0  0  0  0  0  0  0  0  0  0  0
    7.1900   -1.1314   -0.4362 N   0  0  0  0  0  0  0  0  0  0  0  0
    8.6187   -1.2904   -0.6703 C   0  0  0  0  0  0  0  0  0  0  0  0
    9.4105   -0.5617    0.3638 C   0  0  0  0  0  0  0  0  0  0  0  0
    8.8346    0.7200    0.4978 O   0  0  0  0  0  0  0  0  0  0  0  0
    7.6642    0.6025    1.2346 C   0  0  0  0  0  0  0  0  0  0  0  0
    6.9159   -0.6635    0.8962 C   0  0  0  0  0  0  0  0  0  0  0  0
    4.5584    1.1042   -0.7539 C   0  0  0  0  0  0  0  0  0  0  0  0
    3.1705    1.1893   -0.5625 C   0  0  0  0  0  0  0  0  0  0  0  0
    2.0558    2.3909   -0.0892 S   0  0  0  0  0  0  0  0  0  0  0  0
   -3.1956    1.3270    0.2442 C   0  0  0  0  0  0  0  0  0  0  0  0
   -3.5068    2.6066    0.6428 C   0  0  0  0  0  0  0  0  0  0  0  0
   -5.2008    2.5131    0.8208 S   0  0  0  0  0  0  0  0  0  0  0  0
   -5.4077    0.8767    0.3840 C   0  0  0  0  0  0  0  0  0  0  0  0
   -4.1755    0.4870    0.1254 N   0  0  0  0  0  0  0  0  0  0  0  0
   -6.6585    0.0746    0.3086 C   0  0  0  0  0  0  0  0  0  0  0  0
   -6.5698   -1.2440   -0.0741 C   0  0  0  0  0  0  0  0  0  0  0  0
   -7.6950   -2.0375   -0.1622 C   0  0  0  0  0  0  0  0  0  0  0  0
   -8.9165   -1.4542    0.1497 C   0  0  0  0  0  0  0  0  0  0  0  0
  -10.1923   -2.0137    0.1457 O   0  0  0  0  0  0  0  0  0  0  0  0
  -11.0455   -1.2155    0.9286 C   0  0  0  0  0  0  0  0  0  0  0  0
  -10.4239    0.1601    0.7870 C   0  0  0  0  0  0  0  0  0  0  0  0
   -8.9883   -0.1243    0.5336 C   0  0  0  0  0  0  0  0  0  0  0  0
   -7.8440    0.6521    0.6146 C   0  0  0  0  0  0  0  0  0  0  0  0
   -0.9159    2.8250    0.3917 H   0  0  0  0  0  0  0  0  0  0  0  0
    2.3718   -1.9892   -1.3626 H   0  0  0  0  0  0  0  0  0  0  0  0
    4.7529   -2.0818   -1.6759 H   0  0  0  0  0  0  0  0  0  0  0  0
    7.1233    0.7822   -1.2727 H   0  0  0  0  0  0  0  0  0  0  0  0
    6.8442   -0.5237   -2.4245 H   0  0  0  0  0  0  0  0  0  0  0  0
    8.8483   -2.3864   -0.5495 H   0  0  0  0  0  0  0  0  0  0  0  0
    8.8999   -1.0134   -1.7116 H   0  0  0  0  0  0  0  0  0  0  0  0
   10.4622   -0.4411    0.0434 H   0  0  0  0  0  0  0  0  0  0  0  0
    9.3465   -1.1222    1.3248 H   0  0  0  0  0  0  0  0  0  0  0  0
    7.9375    0.5784    2.3297 H   0  0  0  0  0  0  0  0  0  0  0  0
    7.0551    1.5138    1.1014 H   0  0  0  0  0  0  0  0  0  0  0  0
    5.8339   -0.4429    0.9711 H   0  0  0  0  0  0  0  0  0  0  0  0
    7.1013   -1.4654    1.6506 H   0  0  0  0  0  0  0  0  0  0  0  0
    5.1156    1.9920   -0.5708 H   0  0  0  0  0  0  0  0  0  0  0  0
   -2.8099    3.4510    0.7969 H   0  0  0  0  0  0  0  0  0  0  0  0
   -5.5872   -1.6392   -0.3041 H   0  0  0  0  0  0  0  0  0  0  0  0
   -7.5983   -3.0722   -0.4658 H   0  0  0  0  0  0  0  0  0  0  0  0
  -10.9561   -1.6009    1.9836 H   0  0  0  0  0  0  0  0  0  0  0  0
  -12.0978   -1.2430    0.5852 H   0  0  0  0  0  0  0  0  0  0  0  0
  -10.5589    0.6682    1.7636 H   0  0  0  0  0  0  0  0  0  0  0  0
  -10.9198    0.6660   -0.0508 H   0  0  0  0  0  0  0  0  0  0  0  0
   -7.8768    1.6886    0.9110 H   0  0  0  0  0  0  0  0  0  0  0  0
  1  2  2  0
  2  3  1  0
  3  4  1  0
  4  5  2  0
  5  6  1  0
  6  7  2  0
  7  8  1  0
  8  9  2  0
  9 10  1  0
 10 11  1  0
 11 12  1  0
 12 13  1  0
 13 14  1  0
 14 15  1  0
 15 16  1  0
  9 17  1  0
 17 18  2  0
 18 19  1  0
  2 20  1  0
 20 21  2  0
 21 22  1  0
 22 23  1  0
 23 24  2  0
 23 25  1  0
 25 26  2  0
 26 27  1  0
 27 28  2  0
 28 29  1  0
 29 30  1  0
 30 31  1  0
 31 32  1  0
 32 33  2  0
 19  4  1  0
 24 20  1  0
 33 25  1  0
 18  6  1  0
 32 28  1  0
 16 11  1  0
  3 34  1  0
  7 35  1  0
  8 36  1  0
 10 37  1  0
 10 38  1  0
 12 39  1  0
 12 40  1  0
 13 41  1  0
 13 42  1  0
 15 43  1  0
 15 44  1  0
 16 45  1  0
 16 46  1  0
 17 47  1  0
 21 48  1  0
 26 49  1  0
 27 50  1  0
 30 51  1  0
 30 52  1  0
 31 53  1  0
 31 54  1  0
 33 55  1  0
M  END
$$$$
[H]c1nc([H])c2c([H])c(C#N)c3c4c([H])c([H])c(OC([H])([H])[H])nc4n([H])c3c2c1[H]
     RDKit          3D

 31 34  0  0  0  0  0  0  0  0999 V2000
    4.7648   -1.7875    1.9836 C   0  0  0  0  0  0  0  0  0  0  0  0
    4.5809   -1.5997    0.5948 O   0  0  0  0  0  0  0  0  0  0  0  0
    3.3498   -1.1402    0.1365 C   0  0  0  0  0  0  0  0  0  0  0  0
    3.0964   -0.9336   -1.1986 C   0  0  0  0  0  0  0  0  0  0  0  0
    1.8871   -0.4790   -1.6851 C   0  0  0  0  0  0  0  0  0  0  0  0
    0.8954   -0.2250   -0.7672 C   0  0  0  0  0  0  0  0  0  0  0  0
    1.1398   -0.4297    0.5800 C   0  0  0  0  0  0  0  0  0  0  0  0
    2.3488   -0.8770    0.9865 N   0  0  0  0  0  0  0  0  0  0  0  0
    0.0498   -0.1244    1.2995 N   0  0  0  0  0  0  0  0  0  0  0  0
   -0.9167    0.2794    0.4615 C   0  0  0  0  0  0  0  0  0  0  0  0
   -0.4168    0.2272   -0.8406 C   0  0  0  0  0  0  0  0  0  0  0  0
   -1.2236    0.5939   -1.8675 C   0  0  0  0  0  0  0  0  0  0  0  0
   -2.5391    1.0205   -1.6441 C   0  0  0  0  0  0  0  0  0  0  0  0
   -3.0508    1.0796   -0.3747 C   0  0  0  0  0  0  0  0  0  0  0  0
   -4.3404    1.4942   -0.1153 C   0  0  0  0  0  0  0  0  0  0  0  0
   -4.8144    1.5429    1.1288 N   0  0  0  0  0  0  0  0  0  0  0  0
   -4.0484    1.1886    2.1722 C   0  0  0  0  0  0  0  0  0  0  0  0
   -2.7593    0.7717    1.9399 C   0  0  0  0  0  0  0  0  0  0  0  0
   -2.2030    0.6986    0.6569 C   0  0  0  0  0  0  0  0  0  0  0  0
   -0.7646    0.5609   -3.2272 C   0  0  0  0  0  0  0  0  0  0  0  0
   -0.4326    0.5494   -4.3473 N   0  0  0  0  0  0  0  0  0  0  0  0
    4.1087   -2.6318    2.3276 H   0  0  0  0  0  0  0  0  0  0  0  0
    5.8235   -2.0523    2.1970 H   0  0  0  0  0  0  0  0  0  0  0  0
    4.5372   -0.8562    2.5145 H   0  0  0  0  0  0  0  0  0  0  0  0
    3.8845   -1.1368   -1.9120 H   0  0  0  0  0  0  0  0  0  0  0  0
    1.7118   -0.3266   -2.7137 H   0  0  0  0  0  0  0  0  0  0  0  0
    0.0059   -0.2032    2.3368 H   0  0  0  0  0  0  0  0  0  0  0  0
   -3.1543    1.3045   -2.4762 H   0  0  0  0  0  0  0  0  0  0  0  0
   -4.9769    1.7835   -0.9262 H   0  0  0  0  0  0  0  0  0  0  0  0
   -4.4546    1.2367    3.1671 H   0  0  0  0  0  0  0  0  0  0  0  0
   -2.0890    0.4712    2.7475 H   0  0  0  0  0  0  0  0  0  0  0  0
  1  2  1  0
  2  3  1  0
  3  4  2  0
  4  5  1  0
  5  6  2  0
  6  7  1  0
  7  8  2  0
  7  9  1  0
  9 10  1  0
 10 11  2  0
 11 12  1  0
 12 13  2  0
 13 14  1  0
 14 15  2  0
 15 16  1  0
 16 17  2  0
 17 18  1  0
 18 19  2  0
 12 20  1  0
 20 21  3  0
  8  3  1  0
 19 10  1  0
 11  6  1  0
 19 14  1  0
  1 22  1  0
  1 23  1  0
  1 24  1  0
  4 25  1  0
  5 26  1  0
  9 27  1  0
 13 28  1  0
 15 29  1  0
 17 30  1  0
 18 31  1  0
M  END
$$$$
[H]c1nc(N([H])[H])c([H])c(-c2c([H])n([H])c3nc(C([H])([H])[H])nc(N([H])C([H])([H])c4c([H])c([H])c([H])c([H])c4OC([H])([H])C([H])([H])[H])c23)c1[H]
     RDKit          3D

 50 53  0  0  0  0  0  0  0  0999 V2000
    5.7895   -1.1999   -1.5283 C   0  0  0  0  0  0  0  0  0  0  0  0
    5.0196   -1.5621   -0.2984 C   0  0  0  0  0  0  0  0  0  0  0  0
    3.6965   -1.1393   -0.2714 O   0  0  0  0  0  0  0  0  0  0  0  0
    3.2033    0.1325   -0.3315 C   0  0  0  0  0  0  0  0  0  0  0  0
    4.0406    1.2150   -0.4307 C   0  0  0  0  0  0  0  0  0  0  0  0
    3.5530    2.5172   -0.4926 C   0  0  0  0  0  0  0  0  0  0  0  0
    2.2084    2.7214   -0.4538 C   0  0  0  0  0  0  0  0  0  0  0  0
    1.3603    1.6128   -0.3527 C   0  0  0  0  0  0  0  0  0  0  0  0
    1.8417    0.3348   -0.2916 C   0  0  0  0  0  0  0  0  0  0  0  0
    0.9741   -0.8566   -0.2084 C   0  0  0  0  0  0  0  0  0  0  0  0
   -0.4471   -0.5473   -0.1314 N   0  0  0  0  0  0  0  0  0  0  0  0
   -0.9065   -0.0016    1.0912 C   0  0  0  0  0  0  0  0  0  0  0  0
   -0.0476    0.1735    2.1365 N   0  0  0  0  0  0  0  0  0  0  0  0
   -0.3930    0.6613    3.3265 C   0  0  0  0  0  0  0  0  0  0  0  0
    0.6270    0.8125    4.4033 C   0  0  0  0  0  0  0  0  0  0  0  0
   -1.6754    1.0014    3.5015 N   0  0  0  0  0  0  0  0  0  0  0  0
   -2.5876    0.8516    2.4957 C   0  0  0  0  0  0  0  0  0  0  0  0
   -3.9043    1.1167    2.4307 N   0  0  0  0  0  0  0  0  0  0  0  0
   -4.4116    0.8126    1.2331 C   0  0  0  0  0  0  0  0  0  0  0  0
   -3.3593    0.3213    0.4780 C   0  0  0  0  0  0  0  0  0  0  0  0
   -3.5224   -0.1104   -0.8778 C   0  0  0  0  0  0  0  0  0  0  0  0
   -3.3654    0.7584   -1.9377 C   0  0  0  0  0  0  0  0  0  0  0  0
   -3.5846    0.2688   -3.2072 C   0  0  0  0  0  0  0  0  0  0  0  0
   -3.9365   -0.9980   -3.4166 N   0  0  0  0  0  0  0  0  0  0  0  0
   -4.1064   -1.9001   -2.4132 C   0  0  0  0  0  0  0  0  0  0  0  0
   -4.4798   -3.2322   -2.6844 N   0  0  0  0  0  0  0  0  0  0  0  0
   -3.8906   -1.4250   -1.1378 C   0  0  0  0  0  0  0  0  0  0  0  0
   -2.2267    0.3449    1.2607 C   0  0  0  0  0  0  0  0  0  0  0  0
    6.1270   -2.1199   -2.0709 H   0  0  0  0  0  0  0  0  0  0  0  0
    5.2382   -0.5134   -2.2019 H   0  0  0  0  0  0  0  0  0  0  0  0
    6.7218   -0.6685   -1.2501 H   0  0  0  0  0  0  0  0  0  0  0  0
    5.5945   -1.2172    0.6131 H   0  0  0  0  0  0  0  0  0  0  0  0
    5.0042   -2.6888   -0.2110 H   0  0  0  0  0  0  0  0  0  0  0  0
    5.1156    1.1379   -0.4652 H   0  0  0  0  0  0  0  0  0  0  0  0
    4.2367    3.3693   -0.5715 H   0  0  0  0  0  0  0  0  0  0  0  0
    1.7955    3.7248   -0.5001 H   0  0  0  0  0  0  0  0  0  0  0  0
    0.3122    1.8507   -0.3377 H   0  0  0  0  0  0  0  0  0  0  0  0
    1.2713   -1.4730    0.6711 H   0  0  0  0  0  0  0  0  0  0  0  0
    1.1784   -1.5082   -1.0990 H   0  0  0  0  0  0  0  0  0  0  0  0
   -0.9757   -0.7582   -0.9747 H   0  0  0  0  0  0  0  0  0  0  0  0
    0.1017    0.8550    5.3836 H   0  0  0  0  0  0  0  0  0  0  0  0
    1.2249    1.7327    4.2907 H   0  0  0  0  0  0  0  0  0  0  0  0
    1.2827   -0.0737    4.4425 H   0  0  0  0  0  0  0  0  0  0  0  0
   -4.5045    1.5175    3.2095 H   0  0  0  0  0  0  0  0  0  0  0  0
   -5.4168    0.9022    0.8582 H   0  0  0  0  0  0  0  0  0  0  0  0
   -3.0773    1.8034   -1.7962 H   0  0  0  0  0  0  0  0  0  0  0  0
   -3.4540    0.9759   -4.0303 H   0  0  0  0  0  0  0  0  0  0  0  0
   -5.4052   -3.4302   -3.0912 H   0  0  0  0  0  0  0  0  0  0  0  0
   -3.8302   -4.0042   -2.4767 H   0  0  0  0  0  0  0  0  0  0  0  0
   -4.0102   -2.0984   -0.2839 H   0  0  0  0  0  0  0  0  0  0  0  0
  1  2  1  0
  2  3  1  0
  3  4  1  0
  4  5  2  0
  5  6  1  0
  6  7  2  0
  7  8  1  0
  8  9  2  0
  9 10  1  0
 10 11  1  0
 11 12  1  0
 12 13  2  0
 13 14  1  0
 14 15  1  0
 14 16  2  0
 16 17  1  0
 17 18  1  0
 18 19  1  0
 19 20  2  0
 20 21  1  0
 21 22  2  0
 22 23  1  0
 23 24  2  0
 24 25  1  0
 25 26  1  0
 25 27  2  0
 20 28  1  0
  9  4  1  0
 28 12  1  0
 28 17  2  0
 27 21  1  0
  1 29  1  0
  1 30  1  0
  1 31  1  0
  2 32  1  0
  2 33  1  0
  5 34  1  0
  6 35  1  0
  7 36  1  0
  8 37  1  0
 10 38  1  0
 10 39  1  0
 11 40  1  0
 15 41  1  0
 15 42  1  0
 15 43  1  0
 18 44  1  0
 19 45  1  0
 22 46  1  0
 23 47  1  0
 26 48  1  0
 26 49  1  0
 27 50  1  0
M  END
$$$$
[H]c1sc(-c2c([H])c([H])c3c(c2[H])C([H])([H])C([H])([H])O3)nc1C(=O)N([H])c1nc2c([H])c([H])c([H])c([H])c2n1[H]
     RDKit          3D

 40 44  0  0  0  0  0  0  0  0999 V2000
   -1.2442   -0.1745    0.5063 O   0  0  0  0  0  0  0  0  0  0  0  0
   -1.3341    0.1237   -0.7028 C   0  0  0  0  0  0  0  0  0  0  0  0
   -2.5716    0.2230   -1.3475 N   0  0  0  0  0  0  0  0  0  0  0  0
   -3.8118    0.0003   -0.7067 C   0  0  0  0  0  0  0  0  0  0  0  0
   -5.0274    0.0983   -1.3416 N   0  0  0  0  0  0  0  0  0  0  0  0
   -5.9880   -0.1704   -0.4609 C   0  0  0  0  0  0  0  0  0  0  0  0
   -7.3774   -0.2199   -0.5415 C   0  0  0  0  0  0  0  0  0  0  0  0
   -8.1397   -0.5338    0.5593 C   0  0  0  0  0  0  0  0  0  0  0  0
   -7.5714   -0.8124    1.7861 C   0  0  0  0  0  0  0  0  0  0  0  0
   -6.1993   -0.7611    1.8562 C   0  0  0  0  0  0  0  0  0  0  0  0
   -5.4289   -0.4481    0.7605 C   0  0  0  0  0  0  0  0  0  0  0  0
   -4.0836   -0.3302    0.5589 N   0  0  0  0  0  0  0  0  0  0  0  0
   -0.0634    0.3728   -1.4429 C   0  0  0  0  0  0  0  0  0  0  0  0
   -0.0744    0.7063   -2.7771 C   0  0  0  0  0  0  0  0  0  0  0  0
    1.5943    0.8717   -3.1031 S   0  0  0  0  0  0  0  0  0  0  0  0
    2.1921    0.5113   -1.5441 C   0  0  0  0  0  0  0  0  0  0  0  0
    1.0938    0.2863   -0.8658 N   0  0  0  0  0  0  0  0  0  0  0  0
    3.6037    0.4652   -1.0774 C   0  0  0  0  0  0  0  0  0  0  0  0
    4.5768    0.7462   -2.0044 C   0  0  0  0  0  0  0  0  0  0  0  0
    5.9101    0.7300   -1.6725 C   0  0  0  0  0  0  0  0  0  0  0  0
    6.2740    0.4252   -0.3828 C   0  0  0  0  0  0  0  0  0  0  0  0
    7.5343    0.3355    0.2281 O   0  0  0  0  0  0  0  0  0  0  0  0
    7.3850   -0.5687    1.3234 C   0  0  0  0  0  0  0  0  0  0  0  0
    6.0042   -0.1435    1.8341 C   0  0  0  0  0  0  0  0  0  0  0  0
    5.2878    0.1410    0.5544 C   0  0  0  0  0  0  0  0  0  0  0  0
    3.9409    0.1631    0.1965 C   0  0  0  0  0  0  0  0  0  0  0  0
   -2.5679    0.4831   -2.3855 H   0  0  0  0  0  0  0  0  0  0  0  0
   -7.8197    0.0034   -1.5222 H   0  0  0  0  0  0  0  0  0  0  0  0
   -9.2174   -0.5652    0.4686 H   0  0  0  0  0  0  0  0  0  0  0  0
   -8.1915   -1.0605    2.6525 H   0  0  0  0  0  0  0  0  0  0  0  0
   -5.7255   -0.9715    2.7914 H   0  0  0  0  0  0  0  0  0  0  0  0
   -3.4184   -0.4924    1.3402 H   0  0  0  0  0  0  0  0  0  0  0  0
   -0.9251    0.8333   -3.4545 H   0  0  0  0  0  0  0  0  0  0  0  0
    4.3102    0.9924   -3.0409 H   0  0  0  0  0  0  0  0  0  0  0  0
    6.6746    0.9581   -2.4303 H   0  0  0  0  0  0  0  0  0  0  0  0
    7.3571   -1.5902    0.9088 H   0  0  0  0  0  0  0  0  0  0  0  0
    8.1579   -0.4348    2.0815 H   0  0  0  0  0  0  0  0  0  0  0  0
    5.5266   -0.9350    2.4147 H   0  0  0  0  0  0  0  0  0  0  0  0
    6.1729    0.7963    2.3925 H   0  0  0  0  0  0  0  0  0  0  0  0
    3.1846   -0.0541    0.9124 H   0  0  0  0  0  0  0  0  0  0  0  0
  1  2  2  0
  2  3  1  0
  3  4  1  0
  4  5  2  0
  5  6  1  0
  6  7  2  0
  7  8  1  0
  8  9  2  0
  9 10  1  0
 10 11  2  0
 11 12  1  0
  2 13  1  0
 13 14  2  0
 14 15  1  0
 15 16  1  0
 16 17  2  0
 16 18  1  0
 18 19  2  0
 19 20  1  0
 20 21  2  0
 21 22  1  0
 22 23  1  0
 23 24  1  0
 24 25  1  0
 25 26  2  0
 12  4  1  0
 17 13  1  0
 26 18  1  0
 11  6  1  0
 25 21  1  0
  3 27  1  0
  7 28  1  0
  8 29  1  0
  9 30  1  0
 10 31  1  0
 12 32  1  0
 14 33  1  0
 19 34  1  0
 20 35  1  0
 23 36  1  0
 23 37  1  0
 24 38  1  0
 24 39  1  0
 26 40  1  0
M  END
$$$$
[H]Oc1c([H])c([H])c(-c2c([H])n([H])c3nc([H])c(-c4c([H])c([H])c(N([H])[H])c([H])c4[H])c([H])c23)c([H])c1[H]
     RDKit          3D

 38 41  0  0  0  0  0  0  0  0999 V2000
    5.6682    1.4105    2.5081 N   0  0  0  0  0  0  0  0  0  0  0  0
    4.6191    0.8616    1.7274 C   0  0  0  0  0  0  0  0  0  0  0  0
    4.7483   -0.4223    1.2501 C   0  0  0  0  0  0  0  0  0  0  0  0
    3.7146   -0.9430    0.4894 C   0  0  0  0  0  0  0  0  0  0  0  0
    2.5776   -0.2238    0.2009 C   0  0  0  0  0  0  0  0  0  0  0  0
    2.4985    1.0579    0.7034 C   0  0  0  0  0  0  0  0  0  0  0  0
    3.4864    1.6290    1.4614 C   0  0  0  0  0  0  0  0  0  0  0  0
    1.5392   -0.8476   -0.6065 C   0  0  0  0  0  0  0  0  0  0  0  0
    1.7909   -1.7720   -1.5977 C   0  0  0  0  0  0  0  0  0  0  0  0
    0.8109   -2.3333   -2.3291 N   0  0  0  0  0  0  0  0  0  0  0  0
   -0.4930   -2.0380   -2.1527 C   0  0  0  0  0  0  0  0  0  0  0  0
   -1.6426   -2.4434   -2.7293 N   0  0  0  0  0  0  0  0  0  0  0  0
   -2.6951   -1.8294   -2.1711 C   0  0  0  0  0  0  0  0  0  0  0  0
   -2.1723   -0.9879   -1.1845 C   0  0  0  0  0  0  0  0  0  0  0  0
   -2.9268   -0.1049   -0.3055 C   0  0  0  0  0  0  0  0  0  0  0  0
   -4.0505   -0.5639    0.3580 C   0  0  0  0  0  0  0  0  0  0  0  0
   -4.7925    0.2603    1.2006 C   0  0  0  0  0  0  0  0  0  0  0  0
   -4.4229    1.5726    1.3991 C   0  0  0  0  0  0  0  0  0  0  0  0
   -5.1410    2.4302    2.2363 O   0  0  0  0  0  0  0  0  0  0  0  0
   -3.3036    2.0366    0.7405 C   0  0  0  0  0  0  0  0  0  0  0  0
   -2.5599    1.2065   -0.1055 C   0  0  0  0  0  0  0  0  0  0  0  0
   -0.8056   -1.1124   -1.1673 C   0  0  0  0  0  0  0  0  0  0  0  0
    0.1889   -0.5314   -0.4123 C   0  0  0  0  0  0  0  0  0  0  0  0
    5.8706    1.1355    3.4948 H   0  0  0  0  0  0  0  0  0  0  0  0
    6.2696    2.1308    2.0658 H   0  0  0  0  0  0  0  0  0  0  0  0
    5.6378   -0.9938    1.4720 H   0  0  0  0  0  0  0  0  0  0  0  0
    3.7966   -1.9530    0.1045 H   0  0  0  0  0  0  0  0  0  0  0  0
    1.6167    1.6478    0.4933 H   0  0  0  0  0  0  0  0  0  0  0  0
    3.4673    2.6178    1.8710 H   0  0  0  0  0  0  0  0  0  0  0  0
    2.8142   -2.0447   -1.7811 H   0  0  0  0  0  0  0  0  0  0  0  0
   -1.7182   -3.1312   -3.4966 H   0  0  0  0  0  0  0  0  0  0  0  0
   -3.7382   -1.9053   -2.3722 H   0  0  0  0  0  0  0  0  0  0  0  0
   -4.3369   -1.5933    0.1993 H   0  0  0  0  0  0  0  0  0  0  0  0
   -5.6728   -0.1043    1.7179 H   0  0  0  0  0  0  0  0  0  0  0  0
   -5.9124    2.9975    1.8734 H   0  0  0  0  0  0  0  0  0  0  0  0
   -3.0084    3.0745    0.8950 H   0  0  0  0  0  0  0  0  0  0  0  0
   -1.6802    1.6248   -0.6074 H   0  0  0  0  0  0  0  0  0  0  0  0
   -0.0427    0.1850    0.3552 H   0  0  0  0  0  0  0  0  0  0  0  0
  1  2  1  0
  2  3  2  0
  3  4  1  0
  4  5  2  0
  5  6  1  0
  6  7  2  0
  5  8  1  0
  8  9  2  0
  9 10  1  0
 10 11  2  0
 11 12  1  0
 12 13  1  0
 13 14  2  0
 14 15  1  0
 15 16  2  0
 16 17  1  0
 17 18  2  0
 18 19  1  0
 18 20  1  0
 20 21  2  0
 14 22  1  0
 22 23  2  0
  7  2  1  0
 23  8  1  0
 22 11  1  0
 21 15  1  0
  1 24  1  0
  1 25  1  0
  3 26  1  0
  4 27  1  0
  6 28  1  0
  7 29  1  0
  9 30  1  0
 12 31  1  0
 13 32  1  0
 16 33  1  0
 17 34  1  0
 19 35  1  0
 20 36  1  0
 21 37  1  0
 23 38  1  0
M  END
$$$$
[H]C#Cc1c([H])c([H])c([H])c(N([H])c2nc([H])nc3c([H])c([H])c4nc(C(=N[H])OC([H])([H])[H])sc4c23)c1[H]
     RDKit          3D

 39 42  0  0  0  0  0  0  0  0999 V2000
    6.3784    2.4678   -1.4833 C   0  0  0  0  0  0  0  0  0  0  0  0
    5.1994    1.9181   -2.0921 O   0  0  0  0  0  0  0  0  0  0  0  0
    4.0417    1.9761   -1.3699 C   0  0  0  0  0  0  0  0  0  0  0  0
    3.8219    2.9677   -0.5830 N   0  0  0  0  0  0  0  0  0  0  0  0
    3.0169    0.9074   -1.4724 C   0  0  0  0  0  0  0  0  0  0  0  0
    3.0156   -0.1846   -2.1954 N   0  0  0  0  0  0  0  0  0  0  0  0
    2.0142   -1.0122   -2.1499 C   0  0  0  0  0  0  0  0  0  0  0  0
    1.8985   -2.2157   -2.8685 C   0  0  0  0  0  0  0  0  0  0  0  0
    0.8034   -2.9911   -2.7233 C   0  0  0  0  0  0  0  0  0  0  0  0
   -0.2521   -2.6868   -1.8956 C   0  0  0  0  0  0  0  0  0  0  0  0
   -1.3209   -3.4729   -1.7610 N   0  0  0  0  0  0  0  0  0  0  0  0
   -2.3134   -3.0907   -0.9082 C   0  0  0  0  0  0  0  0  0  0  0  0
   -2.2216   -1.9567   -0.2229 N   0  0  0  0  0  0  0  0  0  0  0  0
   -1.1564   -1.1022   -0.3115 C   0  0  0  0  0  0  0  0  0  0  0  0
   -1.1391    0.1081    0.3893 N   0  0  0  0  0  0  0  0  0  0  0  0
   -2.1654    0.4906    1.3471 C   0  0  0  0  0  0  0  0  0  0  0  0
   -2.4073    1.8689    1.4543 C   0  0  0  0  0  0  0  0  0  0  0  0
   -3.3277    2.3869    2.3356 C   0  0  0  0  0  0  0  0  0  0  0  0
   -4.0232    1.5077    3.1288 C   0  0  0  0  0  0  0  0  0  0  0  0
   -3.7883    0.1573    3.0266 C   0  0  0  0  0  0  0  0  0  0  0  0
   -2.8511   -0.3696    2.1298 C   0  0  0  0  0  0  0  0  0  0  0  0
   -4.5356   -0.7266    3.8729 C   0  0  0  0  0  0  0  0  0  0  0  0
   -5.1660   -1.4903    4.5852 C   0  0  0  0  0  0  0  0  0  0  0  0
   -0.1677   -1.4871   -1.1620 C   0  0  0  0  0  0  0  0  0  0  0  0
    0.9630   -0.6999   -1.3198 C   0  0  0  0  0  0  0  0  0  0  0  0
    1.5254    0.7791   -0.6729 S   0  0  0  0  0  0  0  0  0  0  0  0
    7.2463    2.3751   -2.1312 H   0  0  0  0  0  0  0  0  0  0  0  0
    6.5287    2.1194   -0.4541 H   0  0  0  0  0  0  0  0  0  0  0  0
    6.1511    3.5708   -1.3980 H   0  0  0  0  0  0  0  0  0  0  0  0
    2.9339    2.9862   -0.0462 H   0  0  0  0  0  0  0  0  0  0  0  0
    2.6886   -2.5437   -3.5539 H   0  0  0  0  0  0  0  0  0  0  0  0
    0.6987   -3.9357   -3.2788 H   0  0  0  0  0  0  0  0  0  0  0  0
   -3.1478   -3.7757   -0.8491 H   0  0  0  0  0  0  0  0  0  0  0  0
   -0.4146    0.8026    0.2660 H   0  0  0  0  0  0  0  0  0  0  0  0
   -1.8588    2.5724    0.8278 H   0  0  0  0  0  0  0  0  0  0  0  0
   -3.5241    3.4466    2.4286 H   0  0  0  0  0  0  0  0  0  0  0  0
   -4.7440    1.9043    3.8193 H   0  0  0  0  0  0  0  0  0  0  0  0
   -2.6784   -1.4289    2.0888 H   0  0  0  0  0  0  0  0  0  0  0  0
   -5.7222   -2.1428    5.2030 H   0  0  0  0  0  0  0  0  0  0  0  0
  1  2  1  0
  2  3  1  0
  3  4  2  3
  3  5  1  0
  5  6  2  0
  6  7  1  0
  7  8  2  0
  8  9  1  0
  9 10  2  0
 10 11  1  0
 11 12  2  0
 12 13  1  0
 13 14  2  0
 14 15  1  0
 15 16  1  0
 16 17  2  0
 17 18  1  0
 18 19  2  0
 19 20  1  0
 20 21  2  0
 20 22  1  0
 22 23  3  0
 14 24  1  0
 24 25  2  0
 25 26  1  0
 26  5  1  0
 25  7  1  0
 24 10  1  0
 21 16  1  0
  1 27  1  0
  1 28  1  0
  1 29  1  0
  4 30  1  0
  8 31  1  0
  9 32  1  0
 12 33  1  0
 15 34  1  0
 17 35  1  0
 18 36  1  0
 19 37  1  0
 21 38  1  0
 23 39  1  0
M  END
$$$$
[H]c1sc(-c2c([H])c([H])c3c(c2[H])C([H])([H])C([H])([H])O3)nc1C(=O)N([H])c1nn([H])c([H])c1C(=O)OC([H])([H])C([H])([H])[H]
     RDKit          3D

 43 46  0  0  0  0  0  0  0  0999 V2000
   -7.1520   -0.4351   -2.2137 C   0  0  0  0  0  0  0  0  0  0  0  0
   -7.5289    0.4067   -1.0088 C   0  0  0  0  0  0  0  0  0  0  0  0
   -6.7115   -0.0446    0.0644 O   0  0  0  0  0  0  0  0  0  0  0  0
   -5.3095    0.0345   -0.0459 C   0  0  0  0  0  0  0  0  0  0  0  0
   -4.8409    0.5039   -1.0956 O   0  0  0  0  0  0  0  0  0  0  0  0
   -4.4880   -0.4364    1.0723 C   0  0  0  0  0  0  0  0  0  0  0  0
   -4.9749   -0.9641    2.2544 C   0  0  0  0  0  0  0  0  0  0  0  0
   -3.9457   -1.2949    3.0625 N   0  0  0  0  0  0  0  0  0  0  0  0
   -2.8518   -0.9799    2.3974 N   0  0  0  0  0  0  0  0  0  0  0  0
   -3.1266   -0.4582    1.1907 C   0  0  0  0  0  0  0  0  0  0  0  0
   -2.1668   -0.0291    0.2580 N   0  0  0  0  0  0  0  0  0  0  0  0
   -0.7882   -0.1352    0.5702 C   0  0  0  0  0  0  0  0  0  0  0  0
   -0.4339   -0.6063    1.6655 O   0  0  0  0  0  0  0  0  0  0  0  0
    0.2550    0.3074   -0.3895 C   0  0  0  0  0  0  0  0  0  0  0  0
   -0.1033    0.8331   -1.6092 C   0  0  0  0  0  0  0  0  0  0  0  0
    1.4284    1.1678   -2.2978 S   0  0  0  0  0  0  0  0  0  0  0  0
    2.4067    0.6267   -1.0118 C   0  0  0  0  0  0  0  0  0  0  0  0
    1.5209    0.2205   -0.1276 N   0  0  0  0  0  0  0  0  0  0  0  0
    3.8578    0.5997   -0.8777 C   0  0  0  0  0  0  0  0  0  0  0  0
    4.6471    1.0639   -1.8997 C   0  0  0  0  0  0  0  0  0  0  0  0
    6.0429    1.0517   -1.8019 C   0  0  0  0  0  0  0  0  0  0  0  0
    6.6213    0.5606   -0.6499 C   0  0  0  0  0  0  0  0  0  0  0  0
    7.9670    0.4345   -0.2942 O   0  0  0  0  0  0  0  0  0  0  0  0
    8.1151   -0.4372    0.7951 C   0  0  0  0  0  0  0  0  0  0  0  0
    6.7690   -0.3657    1.4757 C   0  0  0  0  0  0  0  0  0  0  0  0
    5.8427    0.0830    0.4032 C   0  0  0  0  0  0  0  0  0  0  0  0
    4.4656    0.1182    0.2538 C   0  0  0  0  0  0  0  0  0  0  0  0
   -6.5587    0.2403   -2.8848 H   0  0  0  0  0  0  0  0  0  0  0  0
   -6.4880   -1.2810   -1.9502 H   0  0  0  0  0  0  0  0  0  0  0  0
   -8.0276   -0.8543   -2.7264 H   0  0  0  0  0  0  0  0  0  0  0  0
   -7.3270    1.4837   -1.1622 H   0  0  0  0  0  0  0  0  0  0  0  0
   -8.5688    0.2414   -0.7037 H   0  0  0  0  0  0  0  0  0  0  0  0
   -6.0401   -1.0741    2.4521 H   0  0  0  0  0  0  0  0  0  0  0  0
   -4.0809   -1.7115    4.0083 H   0  0  0  0  0  0  0  0  0  0  0  0
   -2.4717    0.3656   -0.6601 H   0  0  0  0  0  0  0  0  0  0  0  0
   -1.1174    0.9910   -2.0211 H   0  0  0  0  0  0  0  0  0  0  0  0
    4.1756    1.4454   -2.7956 H   0  0  0  0  0  0  0  0  0  0  0  0
    6.6635    1.4178   -2.6081 H   0  0  0  0  0  0  0  0  0  0  0  0
    8.9589   -0.2171    1.4501 H   0  0  0  0  0  0  0  0  0  0  0  0
    8.2880   -1.4600    0.3605 H   0  0  0  0  0  0  0  0  0  0  0  0
    6.7504    0.2610    2.3663 H   0  0  0  0  0  0  0  0  0  0  0  0
    6.4790   -1.4279    1.7069 H   0  0  0  0  0  0  0  0  0  0  0  0
    3.8474   -0.2460    1.0558 H   0  0  0  0  0  0  0  0  0  0  0  0
  1  2  1  0
  2  3  1  0
  3  4  1  0
  4  5  2  0
  4  6  1  0
  6  7  2  0
  7  8  1  0
  8  9  1  0
  9 10  2  0
 10 11  1  0
 11 12  1  0
 12 13  2  0
 12 14  1  0
 14 15  2  0
 15 16  1  0
 16 17  1  0
 17 18  2  0
 17 19  1  0
 19 20  2  0
 20 21  1  0
 21 22  2  0
 22 23  1  0
 23 24  1  0
 24 25  1  0
 25 26  1  0
 26 27  2  0
 10  6  1  0
 18 14  1  0
 27 19  1  0
 26 22  1  0
  1 28  1  0
  1 29  1  0
  1 30  1  0
  2 31  1  0
  2 32  1  0
  7 33  1  0
  8 34  1  0
 11 35  1  0
 15 36  1  0
 20 37  1  0
 21 38  1  0
 24 39  1  0
 24 40  1  0
 25 41  1  0
 25 42  1  0
 27 43  1  0
M  END
$$$$
[H]c1sc(-c2c([H])c([H])c3c(c2[H])C([H])([H])C([H])([H])O3)nc1C(=O)N([H])c1nc(SC([H])([H])C([H])([H])C([H])([H])[H])nn1[H]
     RDKit          3D

 43 46  0  0  0  0  0  0  0  0999 V2000
   -5.9300    1.0848    1.6308 C   0  0  0  0  0  0  0  0  0  0  0  0
   -7.2737    0.4450    1.4259 C   0  0  0  0  0  0  0  0  0  0  0  0
   -7.2082   -0.8900    0.7834 C   0  0  0  0  0  0  0  0  0  0  0  0
   -6.5459   -0.8526   -0.8546 S   0  0  0  0  0  0  0  0  0  0  0  0
   -4.8366   -0.4614   -1.0024 C   0  0  0  0  0  0  0  0  0  0  0  0
   -3.8688   -1.3906   -0.9235 N   0  0  0  0  0  0  0  0  0  0  0  0
   -2.6919   -0.7630   -1.1234 N   0  0  0  0  0  0  0  0  0  0  0  0
   -2.8639    0.5312   -1.3292 C   0  0  0  0  0  0  0  0  0  0  0  0
   -1.9319    1.5578   -1.5015 N   0  0  0  0  0  0  0  0  0  0  0  0
   -0.5978    1.5805   -1.6425 C   0  0  0  0  0  0  0  0  0  0  0  0
   -0.0498    2.7928   -1.5739 O   0  0  0  0  0  0  0  0  0  0  0  0
    0.4125    0.5215   -1.8666 C   0  0  0  0  0  0  0  0  0  0  0  0
    0.2114   -0.5079   -2.7549 C   0  0  0  0  0  0  0  0  0  0  0  0
    1.6436   -1.4135   -2.5849 S   0  0  0  0  0  0  0  0  0  0  0  0
    2.4143   -0.4424   -1.4038 C   0  0  0  0  0  0  0  0  0  0  0  0
    1.5397    0.5115   -1.2081 N   0  0  0  0  0  0  0  0  0  0  0  0
    3.7424   -0.6449   -0.7705 C   0  0  0  0  0  0  0  0  0  0  0  0
    4.4896   -1.7334   -1.1520 C   0  0  0  0  0  0  0  0  0  0  0  0
    5.7416   -1.9420   -0.5662 C   0  0  0  0  0  0  0  0  0  0  0  0
    6.2542   -1.0884    0.3860 C   0  0  0  0  0  0  0  0  0  0  0  0
    7.4619   -1.0750    1.1136 O   0  0  0  0  0  0  0  0  0  0  0  0
    7.7064    0.2812    1.5182 C   0  0  0  0  0  0  0  0  0  0  0  0
    6.2861    0.7297    1.7873 C   0  0  0  0  0  0  0  0  0  0  0  0
    5.4965    0.0003    0.7617 C   0  0  0  0  0  0  0  0  0  0  0  0
    4.2427    0.2104    0.1756 C   0  0  0  0  0  0  0  0  0  0  0  0
   -4.2278    0.6969   -1.2469 N   0  0  0  0  0  0  0  0  0  0  0  0
   -5.8453    1.9123    0.9036 H   0  0  0  0  0  0  0  0  0  0  0  0
   -5.9059    1.5478    2.6698 H   0  0  0  0  0  0  0  0  0  0  0  0
   -5.1309    0.3342    1.5440 H   0  0  0  0  0  0  0  0  0  0  0  0
   -7.7486    0.3279    2.4409 H   0  0  0  0  0  0  0  0  0  0  0  0
   -7.9518    1.1355    0.8447 H   0  0  0  0  0  0  0  0  0  0  0  0
   -8.2580   -1.3033    0.7393 H   0  0  0  0  0  0  0  0  0  0  0  0
   -6.6655   -1.6054    1.4676 H   0  0  0  0  0  0  0  0  0  0  0  0
   -1.8245   -1.3488   -1.0636 H   0  0  0  0  0  0  0  0  0  0  0  0
   -2.4104    2.5543   -1.3743 H   0  0  0  0  0  0  0  0  0  0  0  0
   -0.6809   -0.6519   -3.3928 H   0  0  0  0  0  0  0  0  0  0  0  0
    4.1200   -2.4363   -1.9051 H   0  0  0  0  0  0  0  0  0  0  0  0
    6.3463   -2.7903   -0.8504 H   0  0  0  0  0  0  0  0  0  0  0  0
    8.1246    0.8822    0.6816 H   0  0  0  0  0  0  0  0  0  0  0  0
    8.3694    0.3438    2.3921 H   0  0  0  0  0  0  0  0  0  0  0  0
    6.2264    1.8108    1.5647 H   0  0  0  0  0  0  0  0  0  0  0  0
    5.9643    0.4948    2.8222 H   0  0  0  0  0  0  0  0  0  0  0  0
    3.6543    1.0539    0.4656 H   0  0  0  0  0  0  0  0  0  0  0  0
  1  2  1  0
  2  3  1  0
  3  4  1  0
  4  5  1  0
  5  6  2  0
  6  7  1  0
  7  8  1  0
  8  9  1  0
  9 10  1  0
 10 11  2  0
 10 12  1  0
 12 13  2  0
 13 14  1  0
 14 15  1  0
 15 16  2  0
 15 17  1  0
 17 18  2  0
 18 19  1  0
 19 20  2  0
 20 21  1  0
 21 22  1  0
 22 23  1  0
 23 24  1  0
 24 25  2  0
  8 26  2  0
 26  5  1  0
 16 12  1  0
 25 17  1  0
 24 20  1  0
  1 27  1  0
  1 28  1  0
  1 29  1  0
  2 30  1  0
  2 31  1  0
  3 32  1  0
  3 33  1  0
  7 34  1  0
  9 35  1  0
 13 36  1  0
 18 37  1  0
 19 38  1  0
 22 39  1  0
 22 40  1  0
 23 41  1  0
 23 42  1  0
 25 43  1  0
M  END
$$$$
[H]c1nc(N([H])c2c([H])c([H])c(N3C([H])([H])C([H])([H])N(C([H])([H])[H])C([H])([H])C3([H])[H])c([H])c2OC([H])([H])[H])nc(-c2c([H])n(C([H])([H])[H])c3c(C([H])([H])[H])nc([H])c([H])c23)c1[H]
     RDKit          3D

 62 66  0  0  0  0  0  0  0  0999 V2000
    2.2332   -2.0637    3.0782 C   0  0  0  0  0  0  0  0  0  0  0  0
    1.4046   -1.4537    2.1084 O   0  0  0  0  0  0  0  0  0  0  0  0
    2.0333   -0.7981    1.0514 C   0  0  0  0  0  0  0  0  0  0  0  0
    3.3777   -0.7300    0.9298 C   0  0  0  0  0  0  0  0  0  0  0  0
    4.0415   -0.0924   -0.0988 C   0  0  0  0  0  0  0  0  0  0  0  0
    3.2409    0.5009   -1.0423 C   0  0  0  0  0  0  0  0  0  0  0  0
    1.8643    0.4550   -0.9558 C   0  0  0  0  0  0  0  0  0  0  0  0
    1.2217   -0.1834    0.0737 C   0  0  0  0  0  0  0  0  0  0  0  0
   -0.1763   -0.2702    0.2260 N   0  0  0  0  0  0  0  0  0  0  0  0
   -1.1986    0.2479   -0.6140 C   0  0  0  0  0  0  0  0  0  0  0  0
   -0.9837    0.9293   -1.7294 N   0  0  0  0  0  0  0  0  0  0  0  0
   -1.9659    1.3946   -2.4888 C   0  0  0  0  0  0  0  0  0  0  0  0
   -3.2871    1.1661   -2.1124 C   0  0  0  0  0  0  0  0  0  0  0  0
   -3.5399    0.4702   -0.9760 C   0  0  0  0  0  0  0  0  0  0  0  0
   -2.4883    0.0227   -0.2443 N   0  0  0  0  0  0  0  0  0  0  0  0
   -4.8764    0.2151   -0.4621 C   0  0  0  0  0  0  0  0  0  0  0  0
   -5.1135   -0.0770    0.8853 C   0  0  0  0  0  0  0  0  0  0  0  0
   -6.4237   -0.3044    1.0812 N   0  0  0  0  0  0  0  0  0  0  0  0
   -7.0400   -0.6365    2.3591 C   0  0  0  0  0  0  0  0  0  0  0  0
   -7.0847   -0.1790   -0.0807 C   0  0  0  0  0  0  0  0  0  0  0  0
   -8.4104   -0.3220   -0.4125 C   0  0  0  0  0  0  0  0  0  0  0  0
   -9.4176   -0.6609    0.6101 C   0  0  0  0  0  0  0  0  0  0  0  0
   -8.7510   -0.1395   -1.7170 N   0  0  0  0  0  0  0  0  0  0  0  0
   -7.8507    0.1647   -2.6464 C   0  0  0  0  0  0  0  0  0  0  0  0
   -6.5130    0.3125   -2.3294 C   0  0  0  0  0  0  0  0  0  0  0  0
   -6.1035    0.1465   -1.0449 C   0  0  0  0  0  0  0  0  0  0  0  0
    5.4542   -0.0496   -0.1831 N   0  0  0  0  0  0  0  0  0  0  0  0
    6.0636    0.6311   -1.2812 C   0  0  0  0  0  0  0  0  0  0  0  0
    7.5317    0.3722   -1.4352 C   0  0  0  0  0  0  0  0  0  0  0  0
    8.2204    0.3686   -0.1857 N   0  0  0  0  0  0  0  0  0  0  0  0
    8.4883    1.6571    0.3706 C   0  0  0  0  0  0  0  0  0  0  0  0
    7.6938   -0.5289    0.7818 C   0  0  0  0  0  0  0  0  0  0  0  0
    6.2242   -0.6922    0.8352 C   0  0  0  0  0  0  0  0  0  0  0  0
    2.7987   -1.2377    3.5744 H   0  0  0  0  0  0  0  0  0  0  0  0
    2.9497   -2.7702    2.5996 H   0  0  0  0  0  0  0  0  0  0  0  0
    1.6206   -2.5975    3.8397 H   0  0  0  0  0  0  0  0  0  0  0  0
    3.9921   -1.2147    1.6991 H   0  0  0  0  0  0  0  0  0  0  0  0
    3.7215    1.0232   -1.8838 H   0  0  0  0  0  0  0  0  0  0  0  0
    1.3318    0.9439   -1.7340 H   0  0  0  0  0  0  0  0  0  0  0  0
   -0.5054   -0.8006    1.0985 H   0  0  0  0  0  0  0  0  0  0  0  0
   -1.7724    1.9474   -3.3939 H   0  0  0  0  0  0  0  0  0  0  0  0
   -4.0282    1.5877   -2.7428 H   0  0  0  0  0  0  0  0  0  0  0  0
   -4.3550   -0.1128    1.6522 H   0  0  0  0  0  0  0  0  0  0  0  0
   -7.6218   -1.5552    2.3560 H   0  0  0  0  0  0  0  0  0  0  0  0
   -7.5472    0.2423    2.8261 H   0  0  0  0  0  0  0  0  0  0  0  0
   -6.1904   -0.8440    3.0882 H   0  0  0  0  0  0  0  0  0  0  0  0
  -10.4295   -0.5165    0.1024 H   0  0  0  0  0  0  0  0  0  0  0  0
   -9.4613    0.0115    1.4698 H   0  0  0  0  0  0  0  0  0  0  0  0
   -9.4386   -1.7496    0.8663 H   0  0  0  0  0  0  0  0  0  0  0  0
   -8.1308    0.3101   -3.6973 H   0  0  0  0  0  0  0  0  0  0  0  0
   -5.8148    0.5336   -3.1031 H   0  0  0  0  0  0  0  0  0  0  0  0
    5.8736    1.7285   -1.2729 H   0  0  0  0  0  0  0  0  0  0  0  0
    5.5841    0.2756   -2.2401 H   0  0  0  0  0  0  0  0  0  0  0  0
    7.7515   -0.6099   -1.9346 H   0  0  0  0  0  0  0  0  0  0  0  0
    8.0044    1.1490   -2.0785 H   0  0  0  0  0  0  0  0  0  0  0  0
    9.3332    2.1142   -0.1857 H   0  0  0  0  0  0  0  0  0  0  0  0
    8.8583    1.5060    1.4117 H   0  0  0  0  0  0  0  0  0  0  0  0
    7.6300    2.3360    0.3683 H   0  0  0  0  0  0  0  0  0  0  0  0
    8.1328   -0.2799    1.7847 H   0  0  0  0  0  0  0  0  0  0  0  0
    8.1311   -1.5465    0.5466 H   0  0  0  0  0  0  0  0  0  0  0  0
    5.9078   -1.7788    0.8167 H   0  0  0  0  0  0  0  0  0  0  0  0
    5.8053   -0.3007    1.8159 H   0  0  0  0  0  0  0  0  0  0  0  0
  1  2  1  0
  2  3  1  0
  3  4  2  0
  4  5  1  0
  5  6  2  0
  6  7  1  0
  7  8  2  0
  8  9  1  0
  9 10  1  0
 10 11  2  0
 11 12  1  0
 12 13  2  0
 13 14  1  0
 14 15  2  0
 14 16  1  0
 16 17  2  0
 17 18  1  0
 18 19  1  0
 18 20  1  0
 20 21  2  0
 21 22  1  0
 21 23  1  0
 23 24  2  0
 24 25  1  0
 25 26  2  0
  5 27  1  0
 27 28  1  0
 28 29  1  0
 29 30  1  0
 30 31  1  0
 30 32  1  0
 32 33  1  0
  8  3  1  0
 15 10  1  0
 26 16  1  0
 33 27  1  0
 26 20  1  0
  1 34  1  0
  1 35  1  0
  1 36  1  0
  4 37  1  0
  6 38  1  0
  7 39  1  0
  9 40  1  0
 12 41  1  0
 13 42  1  0
 17 43  1  0
 19 44  1  0
 19 45  1  0
 19 46  1  0
 22 47  1  0
 22 48  1  0
 22 49  1  0
 24 50  1  0
 25 51  1  0
 28 52  1  0
 28 53  1  0
 29 54  1  0
 29 55  1  0
 31 56  1  0
 31 57  1  0
 31 58  1  0
 32 59  1  0
 32 60  1  0
 33 61  1  0
 33 62  1  0
M  END
$$$$
[H]c1nc(N([H])c2c([H])c([H])c(N3C([H])([H])C([H])([H])N(C(=O)C([H])([H])[H])C([H])([H])C3([H])[H])c([H])c2OC([H])([H])[H])nc(-c2c([H])n([H])c3c([H])nc([H])c([H])c23)c1[H]
     RDKit          3D

 58 62  0  0  0  0  0  0  0  0999 V2000
    0.9555    3.7940    0.5918 C   0  0  0  0  0  0  0  0  0  0  0  0
    0.1353    2.6542    0.4389 O   0  0  0  0  0  0  0  0  0  0  0  0
    0.7090    1.4070    0.2433 C   0  0  0  0  0  0  0  0  0  0  0  0
    2.0681    1.3081    0.2025 C   0  0  0  0  0  0  0  0  0  0  0  0
    2.6795    0.0911    0.0106 C   0  0  0  0  0  0  0  0  0  0  0  0
    1.8777   -1.0171   -0.1379 C   0  0  0  0  0  0  0  0  0  0  0  0
    0.4891   -0.8930   -0.0928 C   0  0  0  0  0  0  0  0  0  0  0  0
   -0.1580    0.3029    0.0967 C   0  0  0  0  0  0  0  0  0  0  0  0
   -1.5465    0.5015    0.1524 N   0  0  0  0  0  0  0  0  0  0  0  0
   -2.5841   -0.4648    0.0263 C   0  0  0  0  0  0  0  0  0  0  0  0
   -2.3907   -1.7717   -0.1725 N   0  0  0  0  0  0  0  0  0  0  0  0
   -3.3686   -2.6626   -0.2928 C   0  0  0  0  0  0  0  0  0  0  0  0
   -4.6785   -2.2092   -0.2069 C   0  0  0  0  0  0  0  0  0  0  0  0
   -4.9146   -0.8799   -0.0058 C   0  0  0  0  0  0  0  0  0  0  0  0
   -3.8687   -0.0473    0.1058 N   0  0  0  0  0  0  0  0  0  0  0  0
   -6.2664   -0.3143    0.1441 C   0  0  0  0  0  0  0  0  0  0  0  0
   -6.4926    0.8955    0.8107 C   0  0  0  0  0  0  0  0  0  0  0  0
   -7.8148    1.1927    0.7600 N   0  0  0  0  0  0  0  0  0  0  0  0
   -8.4559    0.2272    0.0873 C   0  0  0  0  0  0  0  0  0  0  0  0
   -9.7775    0.0849   -0.2394 C   0  0  0  0  0  0  0  0  0  0  0  0
  -10.1738   -1.0011   -0.9641 N   0  0  0  0  0  0  0  0  0  0  0  0
   -9.2715   -1.9180   -1.3508 C   0  0  0  0  0  0  0  0  0  0  0  0
   -7.9370   -1.7748   -1.0206 C   0  0  0  0  0  0  0  0  0  0  0  0
   -7.4897   -0.7063   -0.2943 C   0  0  0  0  0  0  0  0  0  0  0  0
    4.0931   -0.0483   -0.0412 N   0  0  0  0  0  0  0  0  0  0  0  0
    5.0090    1.0694    0.0124 C   0  0  0  0  0  0  0  0  0  0  0  0
    6.2477    0.8011   -0.8564 C   0  0  0  0  0  0  0  0  0  0  0  0
    6.9243   -0.3148   -0.2447 N   0  0  0  0  0  0  0  0  0  0  0  0
    6.1469   -1.3273    0.3933 C   0  0  0  0  0  0  0  0  0  0  0  0
    4.7115   -1.3532   -0.1495 C   0  0  0  0  0  0  0  0  0  0  0  0
    8.3321   -0.4102   -0.2731 C   0  0  0  0  0  0  0  0  0  0  0  0
    9.1593    0.6312   -0.9314 C   0  0  0  0  0  0  0  0  0  0  0  0
    8.9173   -1.3834    0.2609 O   0  0  0  0  0  0  0  0  0  0  0  0
    0.3594    4.7098    0.7084 H   0  0  0  0  0  0  0  0  0  0  0  0
    1.5709    3.6658    1.5014 H   0  0  0  0  0  0  0  0  0  0  0  0
    1.5769    3.9036   -0.3230 H   0  0  0  0  0  0  0  0  0  0  0  0
    2.7199    2.1855    0.3211 H   0  0  0  0  0  0  0  0  0  0  0  0
    2.3301   -1.9877   -0.2914 H   0  0  0  0  0  0  0  0  0  0  0  0
   -0.0514   -1.8144   -0.2185 H   0  0  0  0  0  0  0  0  0  0  0  0
   -1.8454    1.5182    0.3112 H   0  0  0  0  0  0  0  0  0  0  0  0
   -3.2282   -3.7181   -0.4530 H   0  0  0  0  0  0  0  0  0  0  0  0
   -5.4943   -2.9213   -0.2694 H   0  0  0  0  0  0  0  0  0  0  0  0
   -5.7529    1.4992    1.2877 H   0  0  0  0  0  0  0  0  0  0  0  0
   -8.2887    2.0374    1.1730 H   0  0  0  0  0  0  0  0  0  0  0  0
  -10.5562    0.7828    0.0377 H   0  0  0  0  0  0  0  0  0  0  0  0
   -9.5509   -2.7981   -1.9315 H   0  0  0  0  0  0  0  0  0  0  0  0
   -7.2493   -2.5174   -1.3729 H   0  0  0  0  0  0  0  0  0  0  0  0
    4.6001    2.0100   -0.3974 H   0  0  0  0  0  0  0  0  0  0  0  0
    5.3307    1.2059    1.0710 H   0  0  0  0  0  0  0  0  0  0  0  0
    5.8531    0.5235   -1.8496 H   0  0  0  0  0  0  0  0  0  0  0  0
    6.8327    1.7249   -0.8830 H   0  0  0  0  0  0  0  0  0  0  0  0
    6.5836   -2.3444    0.3415 H   0  0  0  0  0  0  0  0  0  0  0  0
    6.0246   -1.1212    1.4972 H   0  0  0  0  0  0  0  0  0  0  0  0
    4.1669   -2.0151    0.5644 H   0  0  0  0  0  0  0  0  0  0  0  0
    4.7736   -1.7356   -1.1637 H   0  0  0  0  0  0  0  0  0  0  0  0
    8.9501    0.6702   -2.0327 H   0  0  0  0  0  0  0  0  0  0  0  0
   10.2374    0.4488   -0.7915 H   0  0  0  0  0  0  0  0  0  0  0  0
    8.8411    1.6240   -0.5413 H   0  0  0  0  0  0  0  0  0  0  0  0
  1  2  1  0
  2  3  1  0
  3  4  2  0
  4  5  1  0
  5  6  2  0
  6  7  1  0
  7  8  2  0
  8  9  1  0
  9 10  1  0
 10 11  2  0
 11 12  1  0
 12 13  2  0
 13 14  1  0
 14 15  2  0
 14 16  1  0
 16 17  2  0
 17 18  1  0
 18 19  1  0
 19 20  2  0
 20 21  1  0
 21 22  2  0
 22 23  1  0
 23 24  2  0
  5 25  1  0
 25 26  1  0
 26 27  1  0
 27 28  1  0
 28 29  1  0
 29 30  1  0
 28 31  1  0
 31 32  1  0
 31 33  2  0
  8  3  1  0
 15 10  1  0
 24 16  1  0
 30 25  1  0
 24 19  1  0
  1 34  1  0
  1 35  1  0
  1 36  1  0
  4 37  1  0
  6 38  1  0
  7 39  1  0
  9 40  1  0
 12 41  1  0
 13 42  1  0
 17 43  1  0
 18 44  1  0
 20 45  1  0
 22 46  1  0
 23 47  1  0
 26 48  1  0
 26 49  1  0
 27 50  1  0
 27 51  1  0
 29 52  1  0
 29 53  1  0
 30 54  1  0
 30 55  1  0
 32 56  1  0
 32 57  1  0
 32 58  1  0
M  END
$$$$
[H]OC([H])([H])[C@@]([H])(N([H])c1nn2c(-c3c([H])c([H])c([H])c(SC([H])([H])[H])c3[H])c([H])nc2c([H])c1[H])C([H])([H])C([H])([H])[H]
     RDKit          3D

 43 45  0  0  0  0  0  0  0  0999 V2000
   -2.8565    2.5955    1.9119 C   0  0  0  0  0  0  0  0  0  0  0  0
   -3.6093    1.4277    1.3093 C   0  0  0  0  0  0  0  0  0  0  0  0
   -3.1779    1.1096   -0.0771 C   0  0  1  0  0  0  0  0  0  0  0  0
   -3.4315    2.3534   -0.9284 C   0  0  0  0  0  0  0  0  0  0  0  0
   -4.7177    2.8232   -0.7629 O   0  0  0  0  0  0  0  0  0  0  0  0
   -1.8559    0.6314   -0.2494 N   0  0  0  0  0  0  0  0  0  0  0  0
   -1.3540   -0.6369    0.1644 C   0  0  0  0  0  0  0  0  0  0  0  0
   -2.1548   -1.5868    0.7496 C   0  0  0  0  0  0  0  0  0  0  0  0
   -1.6134   -2.7805    1.1402 C   0  0  0  0  0  0  0  0  0  0  0  0
   -0.2705   -3.0042    0.9363 C   0  0  0  0  0  0  0  0  0  0  0  0
    0.5612   -4.0254    1.1880 N   0  0  0  0  0  0  0  0  0  0  0  0
    1.8001   -3.7253    0.7827 C   0  0  0  0  0  0  0  0  0  0  0  0
    1.7664   -2.4342    0.2372 C   0  0  0  0  0  0  0  0  0  0  0  0
    2.9435   -1.7677   -0.3112 C   0  0  0  0  0  0  0  0  0  0  0  0
    4.1849   -2.4004   -0.3175 C   0  0  0  0  0  0  0  0  0  0  0  0
    5.3265   -1.8184   -0.8218 C   0  0  0  0  0  0  0  0  0  0  0  0
    5.2737   -0.5500   -1.3533 C   0  0  0  0  0  0  0  0  0  0  0  0
    4.0643    0.1067   -1.3645 C   0  0  0  0  0  0  0  0  0  0  0  0
    4.0140    1.7425   -2.0540 S   0  0  0  0  0  0  0  0  0  0  0  0
    2.3786    2.4708   -2.0008 C   0  0  0  0  0  0  0  0  0  0  0  0
    2.9158   -0.5059   -0.8456 C   0  0  0  0  0  0  0  0  0  0  0  0
    0.4911   -2.0289    0.3483 N   0  0  0  0  0  0  0  0  0  0  0  0
   -0.0595   -0.8955   -0.0141 N   0  0  0  0  0  0  0  0  0  0  0  0
   -2.2093    2.2395    2.7676 H   0  0  0  0  0  0  0  0  0  0  0  0
   -2.1904    3.1039    1.2101 H   0  0  0  0  0  0  0  0  0  0  0  0
   -3.5780    3.2913    2.3859 H   0  0  0  0  0  0  0  0  0  0  0  0
   -4.6962    1.7305    1.2355 H   0  0  0  0  0  0  0  0  0  0  0  0
   -3.6052    0.6004    2.0330 H   0  0  0  0  0  0  0  0  0  0  0  0
   -3.8671    0.3378   -0.4961 H   0  0  0  0  0  0  0  0  0  0  0  0
   -2.7127    3.1513   -0.7562 H   0  0  0  0  0  0  0  0  0  0  0  0
   -3.3421    2.0008   -1.9855 H   0  0  0  0  0  0  0  0  0  0  0  0
   -5.3943    2.1009   -0.7846 H   0  0  0  0  0  0  0  0  0  0  0  0
   -1.1757    1.2888   -0.7361 H   0  0  0  0  0  0  0  0  0  0  0  0
   -3.2116   -1.3816    0.8850 H   0  0  0  0  0  0  0  0  0  0  0  0
   -2.2144   -3.5420    1.6007 H   0  0  0  0  0  0  0  0  0  0  0  0
    2.7014   -4.3438    0.8464 H   0  0  0  0  0  0  0  0  0  0  0  0
    4.2772   -3.3811    0.0820 H   0  0  0  0  0  0  0  0  0  0  0  0
    6.2806   -2.3575   -0.8040 H   0  0  0  0  0  0  0  0  0  0  0  0
    6.1808   -0.1165   -1.7416 H   0  0  0  0  0  0  0  0  0  0  0  0
    2.5093    3.5619   -1.7411 H   0  0  0  0  0  0  0  0  0  0  0  0
    1.7160    2.0543   -1.2282 H   0  0  0  0  0  0  0  0  0  0  0  0
    1.8874    2.4949   -3.0140 H   0  0  0  0  0  0  0  0  0  0  0  0
    2.0248    0.0656   -0.8914 H   0  0  0  0  0  0  0  0  0  0  0  0
  1  2  1  0
  2  3  1  0
  3  4  1  0
  4  5  1  0
  3  6  1  0
  6  7  1  0
  7  8  1  0
  8  9  2  0
  9 10  1  0
 10 11  2  0
 11 12  1  0
 12 13  2  0
 13 14  1  0
 14 15  2  0
 15 16  1  0
 16 17  2  0
 17 18  1  0
 18 19  1  0
 19 20  1  0
 18 21  2  0
 13 22  1  0
 22 23  1  0
 23  7  2  0
 22 10  1  0
 21 14  1  0
  1 24  1  0
  1 25  1  0
  1 26  1  0
  2 27  1  0
  2 28  1  0
  3 29  1  6
  4 30  1  0
  4 31  1  0
  5 32  1  0
  6 33  1  0
  8 34  1  0
  9 35  1  0
 12 36  1  0
 15 37  1  0
 16 38  1  0
 17 39  1  0
 20 40  1  0
 20 41  1  0
 20 42  1  0
 21 43  1  0
M  END
$$$$
[H]c1sc(-c2c([H])c([H])c3c(c2[H])C([H])([H])C([H])([H])O3)nc1C(=O)N([H])c1nc([H])n([H])n1
     RDKit          3D

 33 36  0  0  0  0  0  0  0  0999 V2000
   -4.1592    0.4518    1.8558 O   0  0  0  0  0  0  0  0  0  0  0  0
   -3.2369    0.2660    1.0325 C   0  0  0  0  0  0  0  0  0  0  0  0
   -3.5838    0.0478   -0.3241 N   0  0  0  0  0  0  0  0  0  0  0  0
   -4.9303    0.0374   -0.7511 C   0  0  0  0  0  0  0  0  0  0  0  0
   -5.4424   -0.1496   -1.9720 N   0  0  0  0  0  0  0  0  0  0  0  0
   -6.7866   -0.0733   -1.8973 C   0  0  0  0  0  0  0  0  0  0  0  0
   -7.1073    0.1628   -0.6191 N   0  0  0  0  0  0  0  0  0  0  0  0
   -5.9837    0.2273    0.0603 N   0  0  0  0  0  0  0  0  0  0  0  0
   -1.8050    0.2724    1.4592 C   0  0  0  0  0  0  0  0  0  0  0  0
   -1.4704    0.4847    2.7785 C   0  0  0  0  0  0  0  0  0  0  0  0
    0.2301    0.3962    2.7287 S   0  0  0  0  0  0  0  0  0  0  0  0
    0.4222    0.0949    1.0375 C   0  0  0  0  0  0  0  0  0  0  0  0
   -0.8317    0.0828    0.6267 N   0  0  0  0  0  0  0  0  0  0  0  0
    1.6527   -0.0950    0.2729 C   0  0  0  0  0  0  0  0  0  0  0  0
    1.6291   -0.3268   -1.0745 C   0  0  0  0  0  0  0  0  0  0  0  0
    2.8314   -0.5046   -1.7769 C   0  0  0  0  0  0  0  0  0  0  0  0
    4.0461   -0.4486   -1.1237 C   0  0  0  0  0  0  0  0  0  0  0  0
    5.3761   -0.5826   -1.5373 O   0  0  0  0  0  0  0  0  0  0  0  0
    6.1860    0.1057   -0.6029 C   0  0  0  0  0  0  0  0  0  0  0  0
    5.4588   -0.1961    0.7083 C   0  0  0  0  0  0  0  0  0  0  0  0
    4.0551   -0.2143    0.2331 C   0  0  0  0  0  0  0  0  0  0  0  0
    2.8610   -0.0400    0.9182 C   0  0  0  0  0  0  0  0  0  0  0  0
   -2.8331   -0.1134   -1.0525 H   0  0  0  0  0  0  0  0  0  0  0  0
   -7.5103   -0.1784   -2.7024 H   0  0  0  0  0  0  0  0  0  0  0  0
   -8.0644    0.2766   -0.2220 H   0  0  0  0  0  0  0  0  0  0  0  0
   -2.1572    0.6633    3.6253 H   0  0  0  0  0  0  0  0  0  0  0  0
    0.6896   -0.3766   -1.6166 H   0  0  0  0  0  0  0  0  0  0  0  0
    2.7955   -0.6882   -2.8485 H   0  0  0  0  0  0  0  0  0  0  0  0
    7.2251   -0.2846   -0.5757 H   0  0  0  0  0  0  0  0  0  0  0  0
    6.1193    1.1741   -0.8236 H   0  0  0  0  0  0  0  0  0  0  0  0
    5.7670   -1.1899    1.0708 H   0  0  0  0  0  0  0  0  0  0  0  0
    5.6521    0.5779    1.4659 H   0  0  0  0  0  0  0  0  0  0  0  0
    2.9051    0.1405    1.9739 H   0  0  0  0  0  0  0  0  0  0  0  0
  1  2  2  0
  2  3  1  0
  3  4  1  0
  4  5  1  0
  5  6  2  0
  6  7  1  0
  7  8  1  0
  2  9  1  0
  9 10  2  0
 10 11  1  0
 11 12  1  0
 12 13  2  0
 12 14  1  0
 14 15  2  0
 15 16  1  0
 16 17  2  0
 17 18  1  0
 18 19  1  0
 19 20  1  0
 20 21  1  0
 21 22  2  0
  8  4  2  0
 13  9  1  0
 22 14  1  0
 21 17  1  0
  3 23  1  0
  6 24  1  0
  7 25  1  0
 10 26  1  0
 15 27  1  0
 16 28  1  0
 19 29  1  0
 19 30  1  0
 20 31  1  0
 20 32  1  0
 22 33  1  0
M  END
$$$$
[H]c1sc(-c2c([H])c([H])c3c(c2[H])C([H])([H])C([H])([H])O3)nc1C(=O)N([H])c1nc(C([H])([H])[H])nn1[H]
     RDKit          3D

 36 39  0  0  0  0  0  0  0  0999 V2000
    6.3476   -2.0095   -1.8910 C   0  0  0  0  0  0  0  0  0  0  0  0
    5.5335   -0.8579   -1.3984 C   0  0  0  0  0  0  0  0  0  0  0  0
    6.0568    0.3560   -1.1931 N   0  0  0  0  0  0  0  0  0  0  0  0
    5.0868    1.1519   -0.7600 N   0  0  0  0  0  0  0  0  0  0  0  0
    3.9585    0.4585   -0.6888 C   0  0  0  0  0  0  0  0  0  0  0  0
    2.6566    0.8549   -0.2870 N   0  0  0  0  0  0  0  0  0  0  0  0
    2.2718    2.1356    0.1425 C   0  0  0  0  0  0  0  0  0  0  0  0
    3.1087    3.0526    0.1972 O   0  0  0  0  0  0  0  0  0  0  0  0
    0.8636    2.3722    0.5257 C   0  0  0  0  0  0  0  0  0  0  0  0
    0.4526    3.6173    0.9516 C   0  0  0  0  0  0  0  0  0  0  0  0
   -1.2071    3.3438    1.2557 S   0  0  0  0  0  0  0  0  0  0  0  0
   -1.2813    1.6976    0.8330 C   0  0  0  0  0  0  0  0  0  0  0  0
   -0.0385    1.4409    0.4820 N   0  0  0  0  0  0  0  0  0  0  0  0
   -2.4739    0.8356    0.8738 C   0  0  0  0  0  0  0  0  0  0  0  0
   -3.6704    1.3790    1.2909 C   0  0  0  0  0  0  0  0  0  0  0  0
   -4.8185    0.6183    1.3487 C   0  0  0  0  0  0  0  0  0  0  0  0
   -4.7415   -0.6971    0.9799 C   0  0  0  0  0  0  0  0  0  0  0  0
   -5.7483   -1.6696    0.9490 O   0  0  0  0  0  0  0  0  0  0  0  0
   -5.3386   -2.7520    0.1380 C   0  0  0  0  0  0  0  0  0  0  0  0
   -3.8241   -2.7249    0.2293 C   0  0  0  0  0  0  0  0  0  0  0  0
   -3.5665   -1.2810    0.5568 C   0  0  0  0  0  0  0  0  0  0  0  0
   -2.4475   -0.4774    0.5171 C   0  0  0  0  0  0  0  0  0  0  0  0
    4.2418   -0.8078   -1.0914 N   0  0  0  0  0  0  0  0  0  0  0  0
    6.9509   -1.7345   -2.7680 H   0  0  0  0  0  0  0  0  0  0  0  0
    7.0086   -2.3324   -1.0730 H   0  0  0  0  0  0  0  0  0  0  0  0
    5.6473   -2.8399   -2.1871 H   0  0  0  0  0  0  0  0  0  0  0  0
    5.2171    2.1557   -0.5215 H   0  0  0  0  0  0  0  0  0  0  0  0
    1.8956    0.1115   -0.3127 H   0  0  0  0  0  0  0  0  0  0  0  0
    1.0582    4.5346    1.0590 H   0  0  0  0  0  0  0  0  0  0  0  0
   -3.6638    2.4344    1.5713 H   0  0  0  0  0  0  0  0  0  0  0  0
   -5.7220    1.1025    1.6834 H   0  0  0  0  0  0  0  0  0  0  0  0
   -5.7687   -3.7132    0.4703 H   0  0  0  0  0  0  0  0  0  0  0  0
   -5.6882   -2.5472   -0.8949 H   0  0  0  0  0  0  0  0  0  0  0  0
   -3.4296   -2.9312   -0.7865 H   0  0  0  0  0  0  0  0  0  0  0  0
   -3.4253   -3.3756    1.0092 H   0  0  0  0  0  0  0  0  0  0  0  0
   -1.5022   -0.9016    0.1890 H   0  0  0  0  0  0  0  0  0  0  0  0
  1  2  1  0
  2  3  2  0
  3  4  1  0
  4  5  1  0
  5  6  1  0
  6  7  1  0
  7  8  2  0
  7  9  1  0
  9 10  2  0
 10 11  1  0
 11 12  1  0
 12 13  2  0
 12 14  1  0
 14 15  2  0
 15 16  1  0
 16 17  2  0
 17 18  1  0
 18 19  1  0
 19 20  1  0
 20 21  1  0
 21 22  2  0
  5 23  2  0
 23  2  1  0
 13  9  1  0
 22 14  1  0
 21 17  1  0
  1 24  1  0
  1 25  1  0
  1 26  1  0
  4 27  1  0
  6 28  1  0
 10 29  1  0
 15 30  1  0
 16 31  1  0
 19 32  1  0
 19 33  1  0
 20 34  1  0
 20 35  1  0
 22 36  1  0
M  END
$$$$
[H]c1nc([H])c(N([H])C(=O)C2([H])C([H])([H])C2([H])[H])c([H])c1-c1sc([H])c(-c2c([H])nn(C([H])([H])C([H])([H])C([H])([H])[H])c2[H])c1[H]
     RDKit          3D

 45 48  0  0  0  0  0  0  0  0999 V2000
    7.3808    0.6124   -0.3552 C   0  0  0  0  0  0  0  0  0  0  0  0
    7.0598    1.5589    0.7744 C   0  0  0  0  0  0  0  0  0  0  0  0
    6.5071    0.7238    1.9242 C   0  0  0  0  0  0  0  0  0  0  0  0
    5.3026    0.0288    1.4758 N   0  0  0  0  0  0  0  0  0  0  0  0
    4.0506    0.5150    1.5635 C   0  0  0  0  0  0  0  0  0  0  0  0
    3.1500   -0.3912    1.0510 C   0  0  0  0  0  0  0  0  0  0  0  0
    3.9109   -1.4635    0.6418 C   0  0  0  0  0  0  0  0  0  0  0  0
    5.2101   -1.1599    0.9211 N   0  0  0  0  0  0  0  0  0  0  0  0
    1.6684   -0.2432    0.9588 C   0  0  0  0  0  0  0  0  0  0  0  0
    0.9937    0.4759    1.9083 C   0  0  0  0  0  0  0  0  0  0  0  0
   -0.6243    0.3698    1.3927 S   0  0  0  0  0  0  0  0  0  0  0  0
   -0.4070   -0.5842   -0.0152 C   0  0  0  0  0  0  0  0  0  0  0  0
    0.9499   -0.7881   -0.0294 C   0  0  0  0  0  0  0  0  0  0  0  0
   -1.4147   -1.0608   -0.9643 C   0  0  0  0  0  0  0  0  0  0  0  0
   -1.1362   -1.8199   -2.0555 C   0  0  0  0  0  0  0  0  0  0  0  0
   -2.1504   -2.2139   -2.8827 N   0  0  0  0  0  0  0  0  0  0  0  0
   -3.4153   -1.8851   -2.6680 C   0  0  0  0  0  0  0  0  0  0  0  0
   -3.7598   -1.1048   -1.5598 C   0  0  0  0  0  0  0  0  0  0  0  0
   -5.1284   -0.7977   -1.3805 N   0  0  0  0  0  0  0  0  0  0  0  0
   -5.6844    0.1463   -0.5069 C   0  0  0  0  0  0  0  0  0  0  0  0
   -5.0368    0.8639    0.2467 O   0  0  0  0  0  0  0  0  0  0  0  0
   -7.1781    0.2993   -0.4831 C   0  0  0  0  0  0  0  0  0  0  0  0
   -7.8140    0.9228    0.7046 C   0  0  0  0  0  0  0  0  0  0  0  0
   -7.6220    1.7452   -0.5472 C   0  0  0  0  0  0  0  0  0  0  0  0
   -2.7338   -0.7044   -0.7194 C   0  0  0  0  0  0  0  0  0  0  0  0
    6.4601    0.5260   -0.9771 H   0  0  0  0  0  0  0  0  0  0  0  0
    7.5891   -0.3848    0.0664 H   0  0  0  0  0  0  0  0  0  0  0  0
    8.2005    0.9921   -1.0009 H   0  0  0  0  0  0  0  0  0  0  0  0
    7.9182    2.1461    1.1024 H   0  0  0  0  0  0  0  0  0  0  0  0
    6.2570    2.2844    0.5057 H   0  0  0  0  0  0  0  0  0  0  0  0
    6.2422    1.4425    2.7285 H   0  0  0  0  0  0  0  0  0  0  0  0
    7.2616    0.0316    2.3122 H   0  0  0  0  0  0  0  0  0  0  0  0
    3.7580    1.4747    1.9717 H   0  0  0  0  0  0  0  0  0  0  0  0
    3.5719   -2.3677    0.1909 H   0  0  0  0  0  0  0  0  0  0  0  0
    1.4254    0.9897    2.7867 H   0  0  0  0  0  0  0  0  0  0  0  0
    1.3865   -1.3945   -0.8589 H   0  0  0  0  0  0  0  0  0  0  0  0
   -0.1109   -2.0985   -2.2479 H   0  0  0  0  0  0  0  0  0  0  0  0
   -4.1530   -2.2355   -3.3683 H   0  0  0  0  0  0  0  0  0  0  0  0
   -5.7995   -1.3853   -2.0044 H   0  0  0  0  0  0  0  0  0  0  0  0
   -7.7407   -0.3549   -1.1661 H   0  0  0  0  0  0  0  0  0  0  0  0
   -8.8363    0.6658    1.0048 H   0  0  0  0  0  0  0  0  0  0  0  0
   -7.1422    1.1916    1.5387 H   0  0  0  0  0  0  0  0  0  0  0  0
   -8.5286    2.0019   -1.1420 H   0  0  0  0  0  0  0  0  0  0  0  0
   -6.8640    2.5399   -0.5748 H   0  0  0  0  0  0  0  0  0  0  0  0
   -2.9745   -0.1107    0.1442 H   0  0  0  0  0  0  0  0  0  0  0  0
  1  2  1  0
  2  3  1  0
  3  4  1  0
  4  5  1  0
  5  6  2  0
  6  7  1  0
  7  8  2  0
  6  9  1  0
  9 10  2  0
 10 11  1  0
 11 12  1  0
 12 13  2  0
 12 14  1  0
 14 15  2  0
 15 16  1  0
 16 17  2  0
 17 18  1  0
 18 19  1  0
 19 20  1  0
 20 21  2  0
 20 22  1  0
 22 23  1  0
 23 24  1  0
 18 25  2  0
  8  4  1  0
 13  9  1  0
 25 14  1  0
 24 22  1  0
  1 26  1  0
  1 27  1  0
  1 28  1  0
  2 29  1  0
  2 30  1  0
  3 31  1  0
  3 32  1  0
  5 33  1  0
  7 34  1  0
 10 35  1  0
 13 36  1  0
 15 37  1  0
 17 38  1  0
 19 39  1  0
 22 40  1  0
 23 41  1  0
 23 42  1  0
 24 43  1  0
 24 44  1  0
 25 45  1  0
M  END
$$$$
[H]c1sc(-c2c([H])c([H])c3c(c2[H])C([H])([H])C([H])([H])O3)nc1C(=O)N([H])c1nc2c([H])c(C(=O)c3c([H])c([H])c([H])n3[H])c([H])c([H])c2n1[H]
     RDKit          3D

 50 55  0  0  0  0  0  0  0  0999 V2000
   -1.6331    2.3541   -2.0155 O   0  0  0  0  0  0  0  0  0  0  0  0
   -0.9833    1.8112   -0.9794 C   0  0  0  0  0  0  0  0  0  0  0  0
    0.3544    1.7128   -1.1571 N   0  0  0  0  0  0  0  0  0  0  0  0
    1.4267    1.0883   -0.5377 C   0  0  0  0  0  0  0  0  0  0  0  0
    2.7359    1.2497   -0.9595 N   0  0  0  0  0  0  0  0  0  0  0  0
    3.5720    0.4967   -0.2622 C   0  0  0  0  0  0  0  0  0  0  0  0
    4.9394    0.2869   -0.2557 C   0  0  0  0  0  0  0  0  0  0  0  0
    5.4907   -0.5855    0.6440 C   0  0  0  0  0  0  0  0  0  0  0  0
    4.6960   -1.2590    1.5445 C   0  0  0  0  0  0  0  0  0  0  0  0
    3.3556   -1.0603    1.5460 C   0  0  0  0  0  0  0  0  0  0  0  0
    2.7874   -0.1798    0.6420 C   0  0  0  0  0  0  0  0  0  0  0  0
    1.5004    0.2081    0.4383 N   0  0  0  0  0  0  0  0  0  0  0  0
    6.9133   -0.8196    0.6888 C   0  0  0  0  0  0  0  0  0  0  0  0
    7.4221   -1.2879    1.7337 O   0  0  0  0  0  0  0  0  0  0  0  0
    7.7671   -0.5280   -0.4375 C   0  0  0  0  0  0  0  0  0  0  0  0
    7.5524   -0.5729   -1.7780 C   0  0  0  0  0  0  0  0  0  0  0  0
    8.6879   -0.1914   -2.4644 C   0  0  0  0  0  0  0  0  0  0  0  0
    9.6158    0.0921   -1.4673 C   0  0  0  0  0  0  0  0  0  0  0  0
    9.0522   -0.1129   -0.2835 N   0  0  0  0  0  0  0  0  0  0  0  0
   -1.8792    1.4493    0.1257 C   0  0  0  0  0  0  0  0  0  0  0  0
   -1.4867    1.5091    1.4438 C   0  0  0  0  0  0  0  0  0  0  0  0
   -2.8884    0.9948    2.2652 S   0  0  0  0  0  0  0  0  0  0  0  0
   -3.8976    0.7316    0.8832 C   0  0  0  0  0  0  0  0  0  0  0  0
   -3.1052    1.0494   -0.0916 N   0  0  0  0  0  0  0  0  0  0  0  0
   -5.3007    0.2917    0.8969 C   0  0  0  0  0  0  0  0  0  0  0  0
   -5.9271    0.0729    2.1030 C   0  0  0  0  0  0  0  0  0  0  0  0
   -7.2685   -0.3205    2.1379 C   0  0  0  0  0  0  0  0  0  0  0  0
   -7.9601   -0.4880    0.9560 C   0  0  0  0  0  0  0  0  0  0  0  0
   -9.2842   -0.8659    0.6926 O   0  0  0  0  0  0  0  0  0  0  0  0
   -9.5673   -0.5629   -0.6631 C   0  0  0  0  0  0  0  0  0  0  0  0
   -8.2485   -0.5142   -1.3855 C   0  0  0  0  0  0  0  0  0  0  0  0
   -7.3069   -0.2625   -0.2462 C   0  0  0  0  0  0  0  0  0  0  0  0
   -5.9664    0.1300   -0.2614 C   0  0  0  0  0  0  0  0  0  0  0  0
    0.6729    2.1459   -2.1526 H   0  0  0  0  0  0  0  0  0  0  0  0
    5.5042    0.8561   -0.9845 H   0  0  0  0  0  0  0  0  0  0  0  0
    5.1389   -1.9651    2.2706 H   0  0  0  0  0  0  0  0  0  0  0  0
    2.7147   -1.5880    2.2500 H   0  0  0  0  0  0  0  0  0  0  0  0
    0.7305   -0.2214    1.0263 H   0  0  0  0  0  0  0  0  0  0  0  0
    6.6310   -0.8628   -2.2543 H   0  0  0  0  0  0  0  0  0  0  0  0
    8.8409   -0.1250   -3.5143 H   0  0  0  0  0  0  0  0  0  0  0  0
   10.6293    0.4257   -1.6893 H   0  0  0  0  0  0  0  0  0  0  0  0
    9.5674    0.0383    0.6288 H   0  0  0  0  0  0  0  0  0  0  0  0
   -0.5077    1.8284    1.8562 H   0  0  0  0  0  0  0  0  0  0  0  0
   -5.4044    0.1982    3.0157 H   0  0  0  0  0  0  0  0  0  0  0  0
   -7.7682   -0.4926    3.0931 H   0  0  0  0  0  0  0  0  0  0  0  0
  -10.1921   -1.3684   -1.1185 H   0  0  0  0  0  0  0  0  0  0  0  0
  -10.0452    0.4194   -0.7019 H   0  0  0  0  0  0  0  0  0  0  0  0
   -8.0059   -1.5191   -1.8152 H   0  0  0  0  0  0  0  0  0  0  0  0
   -8.1819    0.2245   -2.1827 H   0  0  0  0  0  0  0  0  0  0  0  0
   -5.4904    0.2966   -1.2232 H   0  0  0  0  0  0  0  0  0  0  0  0
  1  2  2  0
  2  3  1  0
  3  4  1  0
  4  5  2  0
  5  6  1  0
  6  7  2  0
  7  8  1  0
  8  9  2  0
  9 10  1  0
 10 11  2  0
 11 12  1  0
  8 13  1  0
 13 14  2  0
 13 15  1  0
 15 16  2  0
 16 17  1  0
 17 18  2  0
 18 19  1  0
  2 20  1  0
 20 21  2  0
 21 22  1  0
 22 23  1  0
 23 24  2  0
 23 25  1  0
 25 26  2  0
 26 27  1  0
 27 28  2  0
 28 29  1  0
 29 30  1  0
 30 31  1  0
 31 32  1  0
 32 33  2  0
 12  4  1  0
 19 15  1  0
 24 20  1  0
 33 25  1  0
 11  6  1  0
 32 28  1  0
  3 34  1  0
  7 35  1  0
  9 36  1  0
 10 37  1  0
 12 38  1  0
 16 39  1  0
 17 40  1  0
 18 41  1  0
 19 42  1  0
 21 43  1  0
 26 44  1  0
 27 45  1  0
 30 46  1  0
 30 47  1  0
 31 48  1  0
 31 49  1  0
 33 50  1  0
M  END
$$$$
[H]N=C(OC([H])([H])[H])c1nc2c([H])c([H])c3nc([H])nc(N([H])c4c([H])c([H])c([H])c([H])c4[H])c3c2s1
     RDKit          3D

 37 40  0  0  0  0  0  0  0  0999 V2000
    5.3374    2.8986    0.5097 C   0  0  0  0  0  0  0  0  0  0  0  0
    4.2443    2.1727   -0.0648 O   0  0  0  0  0  0  0  0  0  0  0  0
    4.3604    0.8576   -0.4466 C   0  0  0  0  0  0  0  0  0  0  0  0
    5.4947    0.3703   -0.7427 N   0  0  0  0  0  0  0  0  0  0  0  0
    3.1903   -0.0369   -0.5289 C   0  0  0  0  0  0  0  0  0  0  0  0
    3.1276   -1.3024   -0.8713 N   0  0  0  0  0  0  0  0  0  0  0  0
    1.9900   -1.9287   -0.8825 C   0  0  0  0  0  0  0  0  0  0  0  0
    1.7878   -3.2712   -1.2339 C   0  0  0  0  0  0  0  0  0  0  0  0
    0.5520   -3.8248   -1.2179 C   0  0  0  0  0  0  0  0  0  0  0  0
   -0.5693   -3.1208   -0.8618 C   0  0  0  0  0  0  0  0  0  0  0  0
   -1.7851   -3.6425   -0.8485 N   0  0  0  0  0  0  0  0  0  0  0  0
   -2.8378   -2.8850   -0.4953 C   0  0  0  0  0  0  0  0  0  0  0  0
   -2.6877   -1.6204   -0.1572 N   0  0  0  0  0  0  0  0  0  0  0  0
   -1.4729   -1.0033   -0.1429 C   0  0  0  0  0  0  0  0  0  0  0  0
   -1.3552    0.3159    0.2840 N   0  0  0  0  0  0  0  0  0  0  0  0
   -2.5470    1.0743    0.5746 C   0  0  0  0  0  0  0  0  0  0  0  0
   -3.7157    0.9623   -0.1148 C   0  0  0  0  0  0  0  0  0  0  0  0
   -4.8481    1.7081    0.2427 C   0  0  0  0  0  0  0  0  0  0  0  0
   -4.8116    2.5703    1.2931 C   0  0  0  0  0  0  0  0  0  0  0  0
   -3.6529    2.7048    2.0027 C   0  0  0  0  0  0  0  0  0  0  0  0
   -2.5391    1.9698    1.6502 C   0  0  0  0  0  0  0  0  0  0  0  0
   -0.4061   -1.7766   -0.5037 C   0  0  0  0  0  0  0  0  0  0  0  0
    0.8645   -1.2216   -0.5248 C   0  0  0  0  0  0  0  0  0  0  0  0
    1.5543    0.3053   -0.1999 S   0  0  0  0  0  0  0  0  0  0  0  0
    5.6145    2.3525    1.4351 H   0  0  0  0  0  0  0  0  0  0  0  0
    5.0142    3.8953    0.8026 H   0  0  0  0  0  0  0  0  0  0  0  0
    6.2208    2.8798   -0.1522 H   0  0  0  0  0  0  0  0  0  0  0  0
    5.6455   -0.6088   -1.0361 H   0  0  0  0  0  0  0  0  0  0  0  0
    2.6291   -3.9036   -1.5303 H   0  0  0  0  0  0  0  0  0  0  0  0
    0.4050   -4.8906   -1.4990 H   0  0  0  0  0  0  0  0  0  0  0  0
   -3.8573   -3.3121   -0.4817 H   0  0  0  0  0  0  0  0  0  0  0  0
   -0.4890    0.8109    0.4312 H   0  0  0  0  0  0  0  0  0  0  0  0
   -3.8295    0.3278   -0.9713 H   0  0  0  0  0  0  0  0  0  0  0  0
   -5.7307    1.5669   -0.3441 H   0  0  0  0  0  0  0  0  0  0  0  0
   -5.6697    3.1702    1.6057 H   0  0  0  0  0  0  0  0  0  0  0  0
   -3.6246    3.3863    2.8319 H   0  0  0  0  0  0  0  0  0  0  0  0
   -1.6034    2.0495    2.1887 H   0  0  0  0  0  0  0  0  0  0  0  0
  1  2  1  0
  2  3  1  0
  3  4  2  3
  3  5  1  0
  5  6  2  0
  6  7  1  0
  7  8  2  0
  8  9  1  0
  9 10  2  0
 10 11  1  0
 11 12  2  0
 12 13  1  0
 13 14  2  0
 14 15  1  0
 15 16  1  0
 16 17  2  0
 17 18  1  0
 18 19  2  0
 19 20  1  0
 20 21  2  0
 14 22  1  0
 22 23  2  0
 23 24  1  0
 24  5  1  0
 23  7  1  0
 22 10  1  0
 21 16  1  0
  1 25  1  0
  1 26  1  0
  1 27  1  0
  4 28  1  0
  8 29  1  0
  9 30  1  0
 12 31  1  0
 15 32  1  0
 17 33  1  0
 18 34  1  0
 19 35  1  0
 20 36  1  0
 21 37  1  0
M  END
$$$$
[H]c1nc(N([H])C([H])([H])c2c([H])c([H])c(Cl)c(Cl)c2[H])nc(-c2c([H])c([H])c3c(c2[H])OC([H])([H])C([H])([H])O3)c1[H]
     RDKit          3D

 41 44  0  0  0  0  0  0  0  0999 V2000
    7.8106    3.3778   -0.3794 Cl  0  0  0  0  0  0  0  0  0  0  0  0
    6.6171    2.1353   -0.1803 C   0  0  0  0  0  0  0  0  0  0  0  0
    5.3450    2.4865    0.2325 C   0  0  0  0  0  0  0  0  0  0  0  0
    4.3815    1.5149    0.3970 C   0  0  0  0  0  0  0  0  0  0  0  0
    4.6638    0.1940    0.1563 C   0  0  0  0  0  0  0  0  0  0  0  0
    3.6507   -0.8543    0.3211 C   0  0  0  0  0  0  0  0  0  0  0  0
    2.3010   -0.4079    0.1113 N   0  0  0  0  0  0  0  0  0  0  0  0
    1.2238   -1.3221    0.2621 C   0  0  0  0  0  0  0  0  0  0  0  0
    1.4257   -2.6141    0.6005 N   0  0  0  0  0  0  0  0  0  0  0  0
    0.4121   -3.4723    0.7418 C   0  0  0  0  0  0  0  0  0  0  0  0
   -0.8875   -3.0097    0.5315 C   0  0  0  0  0  0  0  0  0  0  0  0
   -1.1259   -1.7002    0.1861 C   0  0  0  0  0  0  0  0  0  0  0  0
   -0.0556   -0.8999    0.0633 N   0  0  0  0  0  0  0  0  0  0  0  0
   -2.4660   -1.1640   -0.0456 C   0  0  0  0  0  0  0  0  0  0  0  0
   -3.5918   -1.9351    0.0659 C   0  0  0  0  0  0  0  0  0  0  0  0
   -4.8693   -1.4273   -0.1542 C   0  0  0  0  0  0  0  0  0  0  0  0
   -4.9980   -0.1017   -0.4958 C   0  0  0  0  0  0  0  0  0  0  0  0
   -6.2345    0.4719   -0.7294 O   0  0  0  0  0  0  0  0  0  0  0  0
   -6.4945    1.8398   -0.6706 C   0  0  0  0  0  0  0  0  0  0  0  0
   -5.2806    2.7106   -0.7001 C   0  0  0  0  0  0  0  0  0  0  0  0
   -4.0856    2.0263   -0.9629 O   0  0  0  0  0  0  0  0  0  0  0  0
   -3.8937    0.7163   -0.6206 C   0  0  0  0  0  0  0  0  0  0  0  0
   -2.6506    0.1666   -0.3925 C   0  0  0  0  0  0  0  0  0  0  0  0
    5.9655   -0.1317   -0.2621 C   0  0  0  0  0  0  0  0  0  0  0  0
    6.9392    0.8076   -0.4333 C   0  0  0  0  0  0  0  0  0  0  0  0
    8.5607    0.3837   -0.9566 Cl  0  0  0  0  0  0  0  0  0  0  0  0
    5.0965    3.5222    0.4291 H   0  0  0  0  0  0  0  0  0  0  0  0
    3.4106    1.8249    0.7208 H   0  0  0  0  0  0  0  0  0  0  0  0
    3.7479   -1.3810    1.3149 H   0  0  0  0  0  0  0  0  0  0  0  0
    3.8462   -1.6171   -0.4913 H   0  0  0  0  0  0  0  0  0  0  0  0
    2.1080    0.5716   -0.1513 H   0  0  0  0  0  0  0  0  0  0  0  0
    0.6112   -4.5073    1.0156 H   0  0  0  0  0  0  0  0  0  0  0  0
   -1.6850   -3.7009    0.6467 H   0  0  0  0  0  0  0  0  0  0  0  0
   -3.5404   -2.9754    0.3303 H   0  0  0  0  0  0  0  0  0  0  0  0
   -5.7677   -2.0180   -0.0715 H   0  0  0  0  0  0  0  0  0  0  0  0
   -7.1428    2.0618    0.2276 H   0  0  0  0  0  0  0  0  0  0  0  0
   -7.1601    2.0893   -1.5480 H   0  0  0  0  0  0  0  0  0  0  0  0
   -5.2257    3.2497    0.2879 H   0  0  0  0  0  0  0  0  0  0  0  0
   -5.3928    3.4905   -1.4833 H   0  0  0  0  0  0  0  0  0  0  0  0
   -1.7612    0.7690   -0.4789 H   0  0  0  0  0  0  0  0  0  0  0  0
    6.1922   -1.1705   -0.4526 H   0  0  0  0  0  0  0  0  0  0  0  0
  1  2  1  0
  2  3  2  0
  3  4  1  0
  4  5  2  0
  5  6  1  0
  6  7  1  0
  7  8  1  0
  8  9  2  0
  9 10  1  0
 10 11  2  0
 11 12  1  0
 12 13  2  0
 12 14  1  0
 14 15  2  0
 15 16  1  0
 16 17  2  0
 17 18  1  0
 18 19  1  0
 19 20  1  0
 20 21  1  0
 21 22  1  0
 22 23  2  0
  5 24  1  0
 24 25  2  0
 25 26  1  0
 25  2  1  0
 13  8  1  0
 23 14  1  0
 22 17  1  0
  3 27  1  0
  4 28  1  0
  6 29  1  0
  6 30  1  0
  7 31  1  0
 10 32  1  0
 11 33  1  0
 15 34  1  0
 16 35  1  0
 19 36  1  0
 19 37  1  0
 20 38  1  0
 20 39  1  0
 23 40  1  0
 24 41  1  0
M  END
$$$$
[H]c1nc(N([H])c2c([H])c([H])c(N3C([H])([H])C([H])([H])N(C([H])([H])[H])C([H])([H])C3([H])[H])c([H])c2[H])nc(-c2c([H])n([H])c3c([H])nc([H])c([H])c23)c1Cl
     RDKit          3D

 52 56  0  0  0  0  0  0  0  0999 V2000
   -6.7135    2.4683    0.0302 C   0  0  0  0  0  0  0  0  0  0  0  0
   -5.7537    1.4799    0.3806 N   0  0  0  0  0  0  0  0  0  0  0  0
   -4.4327    1.9001    0.6303 C   0  0  0  0  0  0  0  0  0  0  0  0
   -3.4610    1.7109   -0.5206 C   0  0  0  0  0  0  0  0  0  0  0  0
   -3.5440    0.3064   -0.8919 N   0  0  0  0  0  0  0  0  0  0  0  0
   -4.8738   -0.1330   -1.2628 C   0  0  0  0  0  0  0  0  0  0  0  0
   -5.9179    0.2148   -0.2436 C   0  0  0  0  0  0  0  0  0  0  0  0
   -2.4043   -0.5357   -0.8823 C   0  0  0  0  0  0  0  0  0  0  0  0
   -2.3810   -1.7595   -1.5456 C   0  0  0  0  0  0  0  0  0  0  0  0
   -1.2894   -2.5886   -1.5463 C   0  0  0  0  0  0  0  0  0  0  0  0
   -0.1321   -2.2296   -0.8663 C   0  0  0  0  0  0  0  0  0  0  0  0
    0.9622   -3.1133   -0.8872 N   0  0  0  0  0  0  0  0  0  0  0  0
    2.2997   -2.8990   -0.5255 C   0  0  0  0  0  0  0  0  0  0  0  0
    3.1529   -3.9689   -0.6462 N   0  0  0  0  0  0  0  0  0  0  0  0
    4.4388   -3.8829   -0.3460 C   0  0  0  0  0  0  0  0  0  0  0  0
    4.9581   -2.6905    0.1032 C   0  0  0  0  0  0  0  0  0  0  0  0
    6.6447   -2.5817    0.4934 Cl  0  0  0  0  0  0  0  0  0  0  0  0
    4.1172   -1.5790    0.2373 C   0  0  0  0  0  0  0  0  0  0  0  0
    2.8417   -1.7530   -0.0854 N   0  0  0  0  0  0  0  0  0  0  0  0
    4.7200   -0.3359    0.7114 C   0  0  0  0  0  0  0  0  0  0  0  0
    5.4525   -0.2079    1.9014 C   0  0  0  0  0  0  0  0  0  0  0  0
    5.8496    1.0543    2.0037 N   0  0  0  0  0  0  0  0  0  0  0  0
    5.4035    1.7488    0.9279 C   0  0  0  0  0  0  0  0  0  0  0  0
    5.5432    3.0563    0.5667 C   0  0  0  0  0  0  0  0  0  0  0  0
    4.9966    3.5214   -0.5811 N   0  0  0  0  0  0  0  0  0  0  0  0
    4.2924    2.7080   -1.4121 C   0  0  0  0  0  0  0  0  0  0  0  0
    4.1457    1.3821   -1.0538 C   0  0  0  0  0  0  0  0  0  0  0  0
    4.6927    0.8912    0.1067 C   0  0  0  0  0  0  0  0  0  0  0  0
   -0.1469   -1.0216   -0.2068 C   0  0  0  0  0  0  0  0  0  0  0  0
   -1.2589   -0.1863   -0.2115 C   0  0  0  0  0  0  0  0  0  0  0  0
   -6.3865    3.2596   -0.6449 H   0  0  0  0  0  0  0  0  0  0  0  0
   -7.0665    2.9428    0.9928 H   0  0  0  0  0  0  0  0  0  0  0  0
   -7.6106    1.9561   -0.3991 H   0  0  0  0  0  0  0  0  0  0  0  0
   -4.0077    1.3245    1.4964 H   0  0  0  0  0  0  0  0  0  0  0  0
   -4.4712    2.9796    0.9226 H   0  0  0  0  0  0  0  0  0  0  0  0
   -3.8353    2.2707   -1.4289 H   0  0  0  0  0  0  0  0  0  0  0  0
   -2.4804    2.0540   -0.2114 H   0  0  0  0  0  0  0  0  0  0  0  0
   -5.1040    0.3708   -2.2225 H   0  0  0  0  0  0  0  0  0  0  0  0
   -4.8583   -1.2316   -1.3396 H   0  0  0  0  0  0  0  0  0  0  0  0
   -6.9024    0.2009   -0.7552 H   0  0  0  0  0  0  0  0  0  0  0  0
   -5.9876   -0.5801    0.5444 H   0  0  0  0  0  0  0  0  0  0  0  0
   -3.2542   -2.0861   -2.0950 H   0  0  0  0  0  0  0  0  0  0  0  0
   -1.2867   -3.5437   -2.0724 H   0  0  0  0  0  0  0  0  0  0  0  0
    0.7363   -4.1043   -1.2251 H   0  0  0  0  0  0  0  0  0  0  0  0
    5.1187   -4.7272   -0.4388 H   0  0  0  0  0  0  0  0  0  0  0  0
    5.6147   -1.0663    2.5687 H   0  0  0  0  0  0  0  0  0  0  0  0
    6.4177    1.4280    2.8007 H   0  0  0  0  0  0  0  0  0  0  0  0
    6.1105    3.6995    1.2393 H   0  0  0  0  0  0  0  0  0  0  0  0
    3.8802    3.1280   -2.3105 H   0  0  0  0  0  0  0  0  0  0  0  0
    3.5817    0.7006   -1.7006 H   0  0  0  0  0  0  0  0  0  0  0  0
    0.7369   -0.6833    0.3616 H   0  0  0  0  0  0  0  0  0  0  0  0
   -1.1477    0.7315    0.3441 H   0  0  0  0  0  0  0  0  0  0  0  0
  1  2  1  0
  2  3  1  0
  3  4  1  0
  4  5  1  0
  5  6  1  0
  6  7  1  0
  5  8  1  0
  8  9  2  0
  9 10  1  0
 10 11  2  0
 11 12  1  0
 12 13  1  0
 13 14  2  0
 14 15  1  0
 15 16  2  0
 16 17  1  0
 16 18  1  0
 18 19  2  0
 18 20  1  0
 20 21  2  0
 21 22  1  0
 22 23  1  0
 23 24  2  0
 24 25  1  0
 25 26  2  0
 26 27  1  0
 27 28  2  0
 11 29  1  0
 29 30  2  0
  7  2  1  0
 30  8  1  0
 19 13  1  0
 28 20  1  0
 28 23  1  0
  1 31  1  0
  1 32  1  0
  1 33  1  0
  3 34  1  0
  3 35  1  0
  4 36  1  0
  4 37  1  0
  6 38  1  0
  6 39  1  0
  7 40  1  0
  7 41  1  0
  9 42  1  0
 10 43  1  0
 12 44  1  0
 15 45  1  0
 21 46  1  0
 22 47  1  0
 24 48  1  0
 26 49  1  0
 27 50  1  0
 29 51  1  0
 30 52  1  0
M  END
$$$$
[H]N=C(OC([H])([H])[H])c1nc2c([H])c([H])c3nc([H])nc(N([H])c4c([H])c([H])c(N(C([H])([H])[H])C([H])([H])[H])c([H])c4[H])c3c2s1
     RDKit          3D

 45 48  0  0  0  0  0  0  0  0999 V2000
   -6.9599    3.4701   -0.6385 C   0  0  0  0  0  0  0  0  0  0  0  0
   -6.2866    2.2325   -0.8479 O   0  0  0  0  0  0  0  0  0  0  0  0
   -4.9321    2.1710   -0.7196 C   0  0  0  0  0  0  0  0  0  0  0  0
   -4.2146    3.2215   -0.8038 N   0  0  0  0  0  0  0  0  0  0  0  0
   -4.2423    0.8978   -0.4798 C   0  0  0  0  0  0  0  0  0  0  0  0
   -4.7385   -0.3183   -0.3529 N   0  0  0  0  0  0  0  0  0  0  0  0
   -3.9522   -1.3290   -0.1397 C   0  0  0  0  0  0  0  0  0  0  0  0
   -4.3549   -2.6758    0.0070 C   0  0  0  0  0  0  0  0  0  0  0  0
   -3.4069   -3.6278    0.2202 C   0  0  0  0  0  0  0  0  0  0  0  0
   -2.0670   -3.4046    0.3092 C   0  0  0  0  0  0  0  0  0  0  0  0
   -1.1127   -4.3142    0.5102 N   0  0  0  0  0  0  0  0  0  0  0  0
    0.2020   -3.9591    0.5728 C   0  0  0  0  0  0  0  0  0  0  0  0
    0.6068   -2.7030    0.4397 N   0  0  0  0  0  0  0  0  0  0  0  0
   -0.3246   -1.7238    0.2318 C   0  0  0  0  0  0  0  0  0  0  0  0
    0.1701   -0.4058    0.1675 N   0  0  0  0  0  0  0  0  0  0  0  0
    1.5887   -0.1362    0.1711 C   0  0  0  0  0  0  0  0  0  0  0  0
    2.0477    0.9779    0.8862 C   0  0  0  0  0  0  0  0  0  0  0  0
    3.3883    1.2673    0.8672 C   0  0  0  0  0  0  0  0  0  0  0  0
    4.3052    0.5131    0.1773 C   0  0  0  0  0  0  0  0  0  0  0  0
    3.8432   -0.5700   -0.5161 C   0  0  0  0  0  0  0  0  0  0  0  0
    2.4829   -0.8945   -0.5194 C   0  0  0  0  0  0  0  0  0  0  0  0
    5.6832    0.8816    0.2092 N   0  0  0  0  0  0  0  0  0  0  0  0
    6.6343    0.0882   -0.5150 C   0  0  0  0  0  0  0  0  0  0  0  0
    6.1179    2.0252    0.9513 C   0  0  0  0  0  0  0  0  0  0  0  0
   -1.6535   -2.0748    0.1664 C   0  0  0  0  0  0  0  0  0  0  0  0
   -2.6001   -1.0791   -0.0532 C   0  0  0  0  0  0  0  0  0  0  0  0
   -2.5792    0.6097   -0.2898 S   0  0  0  0  0  0  0  0  0  0  0  0
   -8.0362    3.2407   -0.8022 H   0  0  0  0  0  0  0  0  0  0  0  0
   -6.8277    3.8628    0.3772 H   0  0  0  0  0  0  0  0  0  0  0  0
   -6.6221    4.2487   -1.3714 H   0  0  0  0  0  0  0  0  0  0  0  0
   -4.6254    4.1608   -0.9720 H   0  0  0  0  0  0  0  0  0  0  0  0
   -5.3872   -2.9658   -0.0453 H   0  0  0  0  0  0  0  0  0  0  0  0
   -3.7125   -4.6819    0.3356 H   0  0  0  0  0  0  0  0  0  0  0  0
    0.9115   -4.7870    0.7420 H   0  0  0  0  0  0  0  0  0  0  0  0
   -0.4064    0.4370    0.1298 H   0  0  0  0  0  0  0  0  0  0  0  0
    1.3106    1.5679    1.4295 H   0  0  0  0  0  0  0  0  0  0  0  0
    3.7462    2.1433    1.4301 H   0  0  0  0  0  0  0  0  0  0  0  0
    4.5322   -1.1867   -1.0702 H   0  0  0  0  0  0  0  0  0  0  0  0
    2.1846   -1.7522   -1.1110 H   0  0  0  0  0  0  0  0  0  0  0  0
    6.6389   -0.9737   -0.2171 H   0  0  0  0  0  0  0  0  0  0  0  0
    6.3539    0.1193   -1.5942 H   0  0  0  0  0  0  0  0  0  0  0  0
    7.6500    0.4902   -0.4369 H   0  0  0  0  0  0  0  0  0  0  0  0
    5.5175    2.9342    0.7303 H   0  0  0  0  0  0  0  0  0  0  0  0
    5.9364    1.8063    2.0294 H   0  0  0  0  0  0  0  0  0  0  0  0
    7.1902    2.1965    0.8127 H   0  0  0  0  0  0  0  0  0  0  0  0
  1  2  1  0
  2  3  1  0
  3  4  2  3
  3  5  1  0
  5  6  2  0
  6  7  1  0
  7  8  2  0
  8  9  1  0
  9 10  2  0
 10 11  1  0
 11 12  2  0
 12 13  1  0
 13 14  2  0
 14 15  1  0
 15 16  1  0
 16 17  2  0
 17 18  1  0
 18 19  2  0
 19 20  1  0
 20 21  2  0
 19 22  1  0
 22 23  1  0
 22 24  1  0
 14 25  1  0
 25 26  2  0
 26 27  1  0
 27  5  1  0
 26  7  1  0
 25 10  1  0
 21 16  1  0
  1 28  1  0
  1 29  1  0
  1 30  1  0
  4 31  1  0
  8 32  1  0
  9 33  1  0
 12 34  1  0
 15 35  1  0
 17 36  1  0
 18 37  1  0
 20 38  1  0
 21 39  1  0
 23 40  1  0
 23 41  1  0
 23 42  1  0
 24 43  1  0
 24 44  1  0
 24 45  1  0
M  END
$$$$
[H]OC([H])([H])[C@@]([H])(N([H])c1nn2c(-c3c([H])c([H])c([H])c(C(=O)OC([H])([H])C([H])([H])[H])c3[H])c([H])nc2c([H])c1[H])C([H])([H])C([H])([H])[H]
     RDKit          3D

 48 50  0  0  0  0  0  0  0  0999 V2000
    7.1788   -1.9112    1.0761 C   0  0  0  0  0  0  0  0  0  0  0  0
    6.8075   -2.0717   -0.3767 C   0  0  0  0  0  0  0  0  0  0  0  0
    5.4000   -2.0302   -0.5350 O   0  0  0  0  0  0  0  0  0  0  0  0
    4.7014   -0.9145   -0.1488 C   0  0  0  0  0  0  0  0  0  0  0  0
    5.3436    0.0550    0.3428 O   0  0  0  0  0  0  0  0  0  0  0  0
    3.2558   -0.7850   -0.2745 C   0  0  0  0  0  0  0  0  0  0  0  0
    2.5627   -1.8433   -0.8101 C   0  0  0  0  0  0  0  0  0  0  0  0
    1.2021   -1.7167   -0.9264 C   0  0  0  0  0  0  0  0  0  0  0  0
    0.5399   -0.5532   -0.5155 C   0  0  0  0  0  0  0  0  0  0  0  0
    1.2095    0.5167    0.0220 C   0  0  0  0  0  0  0  0  0  0  0  0
    2.5996    0.3529    0.1262 C   0  0  0  0  0  0  0  0  0  0  0  0
    0.5850    1.7465    0.4658 C   0  0  0  0  0  0  0  0  0  0  0  0
    1.2948    2.8180    1.0088 C   0  0  0  0  0  0  0  0  0  0  0  0
    0.4485    3.8075    1.3230 N   0  0  0  0  0  0  0  0  0  0  0  0
   -0.7974    3.4058    0.9972 C   0  0  0  0  0  0  0  0  0  0  0  0
   -2.0215    4.0327    1.1104 C   0  0  0  0  0  0  0  0  0  0  0  0
   -3.1318    3.3424    0.6791 C   0  0  0  0  0  0  0  0  0  0  0  0
   -2.9741    2.0581    0.1540 C   0  0  0  0  0  0  0  0  0  0  0  0
   -4.1108    1.3432   -0.3109 N   0  0  0  0  0  0  0  0  0  0  0  0
   -4.0255    0.0105   -0.8289 C   0  0  1  0  0  0  0  0  0  0  0  0
   -3.6873   -0.9506    0.2516 C   0  0  0  0  0  0  0  0  0  0  0  0
   -3.5859   -2.3804   -0.2417 C   0  0  0  0  0  0  0  0  0  0  0  0
   -5.3723   -0.3105   -1.4831 C   0  0  0  0  0  0  0  0  0  0  0  0
   -6.3979   -0.2287   -0.5609 O   0  0  0  0  0  0  0  0  0  0  0  0
   -1.7556    1.5145    0.0754 N   0  0  0  0  0  0  0  0  0  0  0  0
   -0.6886    2.1429    0.4751 N   0  0  0  0  0  0  0  0  0  0  0  0
    6.2858   -2.0081    1.7386 H   0  0  0  0  0  0  0  0  0  0  0  0
    7.9086   -2.6961    1.3912 H   0  0  0  0  0  0  0  0  0  0  0  0
    7.6583   -0.9281    1.2418 H   0  0  0  0  0  0  0  0  0  0  0  0
    7.2774   -1.2700   -1.0148 H   0  0  0  0  0  0  0  0  0  0  0  0
    7.1750   -3.0353   -0.7973 H   0  0  0  0  0  0  0  0  0  0  0  0
    3.0742   -2.7491   -1.1305 H   0  0  0  0  0  0  0  0  0  0  0  0
    0.6247   -2.5241   -1.3411 H   0  0  0  0  0  0  0  0  0  0  0  0
   -0.5224   -0.4990   -0.6253 H   0  0  0  0  0  0  0  0  0  0  0  0
    3.1721    1.1905    0.5531 H   0  0  0  0  0  0  0  0  0  0  0  0
    2.3514    2.9024    1.1764 H   0  0  0  0  0  0  0  0  0  0  0  0
   -2.0959    5.0253    1.5222 H   0  0  0  0  0  0  0  0  0  0  0  0
   -4.1279    3.7373    0.7226 H   0  0  0  0  0  0  0  0  0  0  0  0
   -5.0419    1.8601   -0.2521 H   0  0  0  0  0  0  0  0  0  0  0  0
   -3.2883   -0.0602   -1.6707 H   0  0  0  0  0  0  0  0  0  0  0  0
   -4.5595   -0.9541    0.9705 H   0  0  0  0  0  0  0  0  0  0  0  0
   -2.7572   -0.6784    0.7480 H   0  0  0  0  0  0  0  0  0  0  0  0
   -2.6340   -2.5965   -0.7476 H   0  0  0  0  0  0  0  0  0  0  0  0
   -3.6046   -3.0310    0.6701 H   0  0  0  0  0  0  0  0  0  0  0  0
   -4.4821   -2.6181   -0.8327 H   0  0  0  0  0  0  0  0  0  0  0  0
   -5.3462   -1.2358   -2.0589 H   0  0  0  0  0  0  0  0  0  0  0  0
   -5.5367    0.5246   -2.2180 H   0  0  0  0  0  0  0  0  0  0  0  0
   -6.1113    0.1930    0.2718 H   0  0  0  0  0  0  0  0  0  0  0  0
  1  2  1  0
  2  3  1  0
  3  4  1  0
  4  5  2  0
  4  6  1  0
  6  7  2  0
  7  8  1  0
  8  9  2  0
  9 10  1  0
 10 11  2  0
 10 12  1  0
 12 13  2  0
 13 14  1  0
 14 15  2  0
 15 16  1  0
 16 17  2  0
 17 18  1  0
 18 19  1  0
 19 20  1  0
 20 21  1  0
 21 22  1  0
 20 23  1  0
 23 24  1  0
 18 25  2  0
 25 26  1  0
 11  6  1  0
 26 12  1  0
 26 15  1  0
  1 27  1  0
  1 28  1  0
  1 29  1  0
  2 30  1  0
  2 31  1  0
  7 32  1  0
  8 33  1  0
  9 34  1  0
 11 35  1  0
 13 36  1  0
 16 37  1  0
 17 38  1  0
 19 39  1  0
 20 40  1  6
 21 41  1  0
 21 42  1  0
 22 43  1  0
 22 44  1  0
 22 45  1  0
 23 46  1  0
 23 47  1  0
 24 48  1  0
M  END
$$$$
[H]c1nc(N([H])C([H])([H])c2c([H])nc([H])c([H])c2[H])nc(-c2c([H])c([H])c3c(c([H])nn3[H])c2[H])c1[H]
     RDKit          3D

 37 40  0  0  0  0  0  0  0  0999 V2000
   -3.4810    1.6157    0.5088 C   0  0  0  0  0  0  0  0  0  0  0  0
   -2.1003    1.7255    0.0986 N   0  0  0  0  0  0  0  0  0  0  0  0
   -1.1069    0.7753    0.5119 C   0  0  0  0  0  0  0  0  0  0  0  0
   -1.4499   -0.2516    1.3076 N   0  0  0  0  0  0  0  0  0  0  0  0
   -0.5814   -1.1735    1.7321 C   0  0  0  0  0  0  0  0  0  0  0  0
    0.7407   -1.0491    1.3202 C   0  0  0  0  0  0  0  0  0  0  0  0
    1.1165   -0.0056    0.5050 C   0  0  0  0  0  0  0  0  0  0  0  0
    0.1715    0.8785    0.1256 N   0  0  0  0  0  0  0  0  0  0  0  0
    2.5042    0.1473    0.0573 C   0  0  0  0  0  0  0  0  0  0  0  0
    2.8167    1.2262   -0.7669 C   0  0  0  0  0  0  0  0  0  0  0  0
    4.1050    1.4378   -1.2307 C   0  0  0  0  0  0  0  0  0  0  0  0
    5.1222    0.5847   -0.8905 C   0  0  0  0  0  0  0  0  0  0  0  0
    6.4486    0.5213   -1.1733 N   0  0  0  0  0  0  0  0  0  0  0  0
    6.9941   -0.5309   -0.5789 N   0  0  0  0  0  0  0  0  0  0  0  0
    6.0179   -1.1642    0.1001 C   0  0  0  0  0  0  0  0  0  0  0  0
    4.8391   -0.4775   -0.0851 C   0  0  0  0  0  0  0  0  0  0  0  0
    3.5342   -0.6890    0.3828 C   0  0  0  0  0  0  0  0  0  0  0  0
   -4.1340    0.3963   -0.0037 C   0  0  0  0  0  0  0  0  0  0  0  0
   -5.3185   -0.0442    0.5816 C   0  0  0  0  0  0  0  0  0  0  0  0
   -5.9548   -1.1672    0.1255 C   0  0  0  0  0  0  0  0  0  0  0  0
   -5.3825   -1.8505   -0.9364 C   0  0  0  0  0  0  0  0  0  0  0  0
   -4.2329   -1.4119   -1.4949 N   0  0  0  0  0  0  0  0  0  0  0  0
   -3.6106   -0.3217   -1.0558 C   0  0  0  0  0  0  0  0  0  0  0  0
   -4.0657    2.5221    0.2649 H   0  0  0  0  0  0  0  0  0  0  0  0
   -3.5026    1.5686    1.6385 H   0  0  0  0  0  0  0  0  0  0  0  0
   -1.8193    2.5114   -0.5105 H   0  0  0  0  0  0  0  0  0  0  0  0
   -0.8151   -2.0084    2.3678 H   0  0  0  0  0  0  0  0  0  0  0  0
    1.4816   -1.7917    1.6520 H   0  0  0  0  0  0  0  0  0  0  0  0
    2.0068    1.9025   -1.0357 H   0  0  0  0  0  0  0  0  0  0  0  0
    4.3334    2.2690   -1.8626 H   0  0  0  0  0  0  0  0  0  0  0  0
    6.9891    1.1841   -1.7655 H   0  0  0  0  0  0  0  0  0  0  0  0
    6.1287   -2.0599    0.6932 H   0  0  0  0  0  0  0  0  0  0  0  0
    3.3369   -1.5435    1.0231 H   0  0  0  0  0  0  0  0  0  0  0  0
   -5.7580    0.5041    1.4176 H   0  0  0  0  0  0  0  0  0  0  0  0
   -6.8659   -1.5118    0.5707 H   0  0  0  0  0  0  0  0  0  0  0  0
   -5.8176   -2.7472   -1.3603 H   0  0  0  0  0  0  0  0  0  0  0  0
   -2.6901    0.0295   -1.5046 H   0  0  0  0  0  0  0  0  0  0  0  0
  1  2  1  0
  2  3  1  0
  3  4  2  0
  4  5  1  0
  5  6  2  0
  6  7  1  0
  7  8  2  0
  7  9  1  0
  9 10  2  0
 10 11  1  0
 11 12  2  0
 12 13  1  0
 13 14  1  0
 14 15  2  0
 15 16  1  0
 16 17  2  0
  1 18  1  0
 18 19  2  0
 19 20  1  0
 20 21  2  0
 21 22  1  0
 22 23  2  0
  8  3  1  0
 17  9  1  0
 23 18  1  0
 16 12  1  0
  1 24  1  0
  1 25  1  0
  2 26  1  0
  5 27  1  0
  6 28  1  0
 10 29  1  0
 11 30  1  0
 13 31  1  0
 15 32  1  0
 17 33  1  0
 19 34  1  0
 20 35  1  0
 21 36  1  0
 23 37  1  0
M  END
$$$$
[H]c1nc(N(C([H])([H])[H])C([H])([H])c2nc(C([H])([H])[H])c([H])s2)c2c([H])c(-c3c([H])c([H])c4c(c3[H])OC([H])([H])O4)c([H])c([H])c2n1
     RDKit          3D

 46 50  0  0  0  0  0  0  0  0999 V2000
   -1.2702    0.9433   -1.1845 C   0  0  0  0  0  0  0  0  0  0  0  0
   -1.6516    0.1465   -0.0313 N   0  0  0  0  0  0  0  0  0  0  0  0
   -2.1891    0.7574    1.1404 C   0  0  0  0  0  0  0  0  0  0  0  0
   -3.4640    1.5046    0.8248 C   0  0  0  0  0  0  0  0  0  0  0  0
   -4.6979    1.0270    0.8521 N   0  0  0  0  0  0  0  0  0  0  0  0
   -5.6957    1.7956    0.5542 C   0  0  0  0  0  0  0  0  0  0  0  0
   -7.1299    1.2813    0.5753 C   0  0  0  0  0  0  0  0  0  0  0  0
   -5.4130    3.0986    0.2170 C   0  0  0  0  0  0  0  0  0  0  0  0
   -3.7124    3.1260    0.3542 S   0  0  0  0  0  0  0  0  0  0  0  0
   -1.4876   -1.2656   -0.0687 C   0  0  0  0  0  0  0  0  0  0  0  0
   -2.5931   -2.0742   -0.1146 N   0  0  0  0  0  0  0  0  0  0  0  0
   -2.4651   -3.4058   -0.1739 C   0  0  0  0  0  0  0  0  0  0  0  0
   -1.2494   -3.9740   -0.1894 N   0  0  0  0  0  0  0  0  0  0  0  0
   -0.1293   -3.2664   -0.1474 C   0  0  0  0  0  0  0  0  0  0  0  0
    1.1329   -3.8303   -0.1558 C   0  0  0  0  0  0  0  0  0  0  0  0
    2.2347   -3.0074   -0.1020 C   0  0  0  0  0  0  0  0  0  0  0  0
    2.1518   -1.6377   -0.0392 C   0  0  0  0  0  0  0  0  0  0  0  0
    0.8761   -1.0792   -0.0313 C   0  0  0  0  0  0  0  0  0  0  0  0
   -0.2509   -1.8689   -0.0848 C   0  0  0  0  0  0  0  0  0  0  0  0
    3.3407   -0.7869    0.0173 C   0  0  0  0  0  0  0  0  0  0  0  0
    4.4795   -1.2468    0.6456 C   0  0  0  0  0  0  0  0  0  0  0  0
    5.6351   -0.4993    0.7358 C   0  0  0  0  0  0  0  0  0  0  0  0
    5.6446    0.7652    0.1695 C   0  0  0  0  0  0  0  0  0  0  0  0
    6.6627    1.7118    0.1192 O   0  0  0  0  0  0  0  0  0  0  0  0
    6.1239    2.8995   -0.4005 C   0  0  0  0  0  0  0  0  0  0  0  0
    4.8708    2.5292   -0.9116 O   0  0  0  0  0  0  0  0  0  0  0  0
    4.5220    1.2669   -0.4717 C   0  0  0  0  0  0  0  0  0  0  0  0
    3.3867    0.4760   -0.5349 C   0  0  0  0  0  0  0  0  0  0  0  0
   -0.6147    1.7623   -0.8566 H   0  0  0  0  0  0  0  0  0  0  0  0
   -2.1447    1.2840   -1.7743 H   0  0  0  0  0  0  0  0  0  0  0  0
   -0.6594    0.3222   -1.8985 H   0  0  0  0  0  0  0  0  0  0  0  0
   -2.4020   -0.0095    1.9101 H   0  0  0  0  0  0  0  0  0  0  0  0
   -1.4870    1.4864    1.5902 H   0  0  0  0  0  0  0  0  0  0  0  0
   -7.3692    0.9443   -0.4527 H   0  0  0  0  0  0  0  0  0  0  0  0
   -7.2418    0.4761    1.3235 H   0  0  0  0  0  0  0  0  0  0  0  0
   -7.8021    2.0994    0.8560 H   0  0  0  0  0  0  0  0  0  0  0  0
   -6.1330    3.8890   -0.0634 H   0  0  0  0  0  0  0  0  0  0  0  0
   -3.3834   -4.0128   -0.2093 H   0  0  0  0  0  0  0  0  0  0  0  0
    1.2292   -4.9070   -0.2046 H   0  0  0  0  0  0  0  0  0  0  0  0
    3.2458   -3.4298   -0.1075 H   0  0  0  0  0  0  0  0  0  0  0  0
    0.8055   -0.0100    0.0266 H   0  0  0  0  0  0  0  0  0  0  0  0
    4.4678   -2.2283    1.0836 H   0  0  0  0  0  0  0  0  0  0  0  0
    6.5253   -0.8664    1.2304 H   0  0  0  0  0  0  0  0  0  0  0  0
    6.0575    3.6356    0.4346 H   0  0  0  0  0  0  0  0  0  0  0  0
    6.7220    3.2992   -1.2469 H   0  0  0  0  0  0  0  0  0  0  0  0
    2.5221    0.8789   -1.0360 H   0  0  0  0  0  0  0  0  0  0  0  0
  1  2  1  0
  2  3  1  0
  3  4  1  0
  4  5  2  0
  5  6  1  0
  6  7  1  0
  6  8  2  0
  8  9  1  0
  2 10  1  0
 10 11  2  0
 11 12  1  0
 12 13  2  0
 13 14  1  0
 14 15  2  0
 15 16  1  0
 16 17  2  0
 17 18  1  0
 18 19  2  0
 17 20  1  0
 20 21  2  0
 21 22  1  0
 22 23  2  0
 23 24  1  0
 24 25  1  0
 25 26  1  0
 26 27  1  0
 27 28  2  0
  9  4  1  0
 19 10  1  0
 28 20  1  0
 19 14  1  0
 27 23  1  0
  1 29  1  0
  1 30  1  0
  1 31  1  0
  3 32  1  0
  3 33  1  0
  7 34  1  0
  7 35  1  0
  7 36  1  0
  8 37  1  0
 12 38  1  0
 15 39  1  0
 16 40  1  0
 18 41  1  0
 21 42  1  0
 22 43  1  0
 25 44  1  0
 25 45  1  0
 28 46  1  0
M  END
$$$$
[H]N=C(OC([H])([H])[H])c1nc2c([H])c([H])c3nc([H])nc(N([H])c4c([H])c([H])c(O[H])c([N+](=O)[O-])c4[H])c3c2s1
     RDKit          3D

 40 43  0  0  0  0  0  0  0  0999 V2000
   -4.3226    4.0450    2.0622 C   0  0  0  0  0  0  0  0  0  0  0  0
   -3.7048    2.8272    1.6801 O   0  0  0  0  0  0  0  0  0  0  0  0
   -4.3163    1.9046    0.8615 C   0  0  0  0  0  0  0  0  0  0  0  0
   -5.5851    1.9253    0.7070 N   0  0  0  0  0  0  0  0  0  0  0  0
   -3.5224    0.8773    0.1486 C   0  0  0  0  0  0  0  0  0  0  0  0
   -3.9418   -0.0670   -0.6618 N   0  0  0  0  0  0  0  0  0  0  0  0
   -3.0833   -0.8897   -1.2024 C   0  0  0  0  0  0  0  0  0  0  0  0
   -3.3991   -1.9391   -2.0907 C   0  0  0  0  0  0  0  0  0  0  0  0
   -2.4009   -2.7210   -2.5872 C   0  0  0  0  0  0  0  0  0  0  0  0
   -1.0555   -2.5658   -2.2813 C   0  0  0  0  0  0  0  0  0  0  0  0
   -0.1078   -3.3383   -2.7861 N   0  0  0  0  0  0  0  0  0  0  0  0
    1.1680   -3.1093   -2.4390 C   0  0  0  0  0  0  0  0  0  0  0  0
    1.4553   -2.1223   -1.6032 N   0  0  0  0  0  0  0  0  0  0  0  0
    0.5390   -1.2782   -1.0359 C   0  0  0  0  0  0  0  0  0  0  0  0
    0.9426   -0.3043   -0.1151 N   0  0  0  0  0  0  0  0  0  0  0  0
    2.3574   -0.1085    0.1145 C   0  0  0  0  0  0  0  0  0  0  0  0
    3.3208   -0.1816   -0.8448 C   0  0  0  0  0  0  0  0  0  0  0  0
    4.6503   -0.0142   -0.5363 C   0  0  0  0  0  0  0  0  0  0  0  0
    5.0973    0.2419    0.7734 C   0  0  0  0  0  0  0  0  0  0  0  0
    6.4607    0.3979    0.9731 O   0  0  0  0  0  0  0  0  0  0  0  0
    4.1355    0.3170    1.7402 C   0  0  0  0  0  0  0  0  0  0  0  0
    2.7887    0.1442    1.4108 C   0  0  0  0  0  0  0  0  0  0  0  0
    4.4667    0.5752    3.0836 N   0  0  0  0  0  0  0  0  0  0  0  0
    5.6297    0.2382    3.6868 O   0  0  0  0  0  0  0  0  0  0  0  0
    3.6216    1.1761    3.8214 O   0  0  0  0  0  0  0  0  0  0  0  0
   -0.7564   -1.5406   -1.4140 C   0  0  0  0  0  0  0  0  0  0  0  0
   -1.7580   -0.7232   -0.8900 C   0  0  0  0  0  0  0  0  0  0  0  0
   -1.8478    0.6154    0.1659 S   0  0  0  0  0  0  0  0  0  0  0  0
   -4.5474    4.6366    1.1510 H   0  0  0  0  0  0  0  0  0  0  0  0
   -5.2763    3.8815    2.5966 H   0  0  0  0  0  0  0  0  0  0  0  0
   -3.5797    4.6162    2.6799 H   0  0  0  0  0  0  0  0  0  0  0  0
   -6.1101    1.2740    0.1165 H   0  0  0  0  0  0  0  0  0  0  0  0
   -4.4188   -2.1460   -2.3942 H   0  0  0  0  0  0  0  0  0  0  0  0
   -2.6284   -3.5460   -3.2831 H   0  0  0  0  0  0  0  0  0  0  0  0
    1.9659   -3.7556   -2.8614 H   0  0  0  0  0  0  0  0  0  0  0  0
    0.3300    0.2774    0.4260 H   0  0  0  0  0  0  0  0  0  0  0  0
    3.0430   -0.3499   -1.8867 H   0  0  0  0  0  0  0  0  0  0  0  0
    5.4215   -0.0730   -1.3010 H   0  0  0  0  0  0  0  0  0  0  0  0
    6.9151    0.5924    1.8160 H   0  0  0  0  0  0  0  0  0  0  0  0
    2.0532    0.2102    2.1988 H   0  0  0  0  0  0  0  0  0  0  0  0
  1  2  1  0
  2  3  1  0
  3  4  2  3
  3  5  1  0
  5  6  2  0
  6  7  1  0
  7  8  2  0
  8  9  1  0
  9 10  2  0
 10 11  1  0
 11 12  2  0
 12 13  1  0
 13 14  2  0
 14 15  1  0
 15 16  1  0
 16 17  2  0
 17 18  1  0
 18 19  2  0
 19 20  1  0
 19 21  1  0
 21 22  2  0
 21 23  1  0
 23 24  1  0
 23 25  2  0
 14 26  1  0
 26 27  2  0
 27 28  1  0
 28  5  1  0
 27  7  1  0
 26 10  1  0
 22 16  1  0
  1 29  1  0
  1 30  1  0
  1 31  1  0
  4 32  1  0
  8 33  1  0
  9 34  1  0
 12 35  1  0
 15 36  1  0
 17 37  1  0
 18 38  1  0
 20 39  1  0
 22 40  1  0
M  CHG  2  23   1  24  -1
M  END
$$$$
[H]/C(=C(/[H])c1c([H])c([H])c([H])c([H])c1[H])c1nc([H])c([H])c(-c2c([H])n([H])c3c([H])nc([H])c([H])c23)n1
     RDKit          3D

 37 40  0  0  0  0  0  0  0  0999 V2000
   -2.8435   -0.5352   -0.2247 C   0  0  0  0  0  0  0  0  0  0  0  0
   -1.6126   -0.1070   -0.0633 C   0  0  0  0  0  0  0  0  0  0  0  0
   -0.4870   -0.9992   -0.2788 C   0  0  0  0  0  0  0  0  0  0  0  0
   -0.6837   -2.2899   -0.6503 N   0  0  0  0  0  0  0  0  0  0  0  0
    0.3251   -3.1501   -0.8606 C   0  0  0  0  0  0  0  0  0  0  0  0
    1.6090   -2.6685   -0.6823 C   0  0  0  0  0  0  0  0  0  0  0  0
    1.8486   -1.3554   -0.3031 C   0  0  0  0  0  0  0  0  0  0  0  0
    0.7812   -0.5816   -0.1192 N   0  0  0  0  0  0  0  0  0  0  0  0
    3.2296   -0.9166   -0.1338 C   0  0  0  0  0  0  0  0  0  0  0  0
    4.3755   -1.6909   -0.3151 C   0  0  0  0  0  0  0  0  0  0  0  0
    5.4554   -0.9580   -0.0725 N   0  0  0  0  0  0  0  0  0  0  0  0
    5.0736    0.2803    0.2650 C   0  0  0  0  0  0  0  0  0  0  0  0
    5.7562    1.4257    0.6112 C   0  0  0  0  0  0  0  0  0  0  0  0
    5.1324    2.5722    0.9149 N   0  0  0  0  0  0  0  0  0  0  0  0
    3.7819    2.6546    0.8940 C   0  0  0  0  0  0  0  0  0  0  0  0
    3.0808    1.5097    0.5473 C   0  0  0  0  0  0  0  0  0  0  0  0
    3.6867    0.3209    0.2311 C   0  0  0  0  0  0  0  0  0  0  0  0
   -4.0392    0.2360   -0.0457 C   0  0  0  0  0  0  0  0  0  0  0  0
   -3.9742    1.5565    0.3299 C   0  0  0  0  0  0  0  0  0  0  0  0
   -5.1446    2.2934    0.5001 C   0  0  0  0  0  0  0  0  0  0  0  0
   -6.3788    1.7211    0.2978 C   0  0  0  0  0  0  0  0  0  0  0  0
   -6.4454    0.3952   -0.0794 C   0  0  0  0  0  0  0  0  0  0  0  0
   -5.2878   -0.3141   -0.2422 C   0  0  0  0  0  0  0  0  0  0  0  0
   -2.9624   -1.5877   -0.5263 H   0  0  0  0  0  0  0  0  0  0  0  0
   -1.4451    0.9013    0.2274 H   0  0  0  0  0  0  0  0  0  0  0  0
    0.1210   -4.1758   -1.1574 H   0  0  0  0  0  0  0  0  0  0  0  0
    2.4288   -3.3632   -0.8520 H   0  0  0  0  0  0  0  0  0  0  0  0
    4.3517   -2.7268   -0.6088 H   0  0  0  0  0  0  0  0  0  0  0  0
    6.4452   -1.3159   -0.1413 H   0  0  0  0  0  0  0  0  0  0  0  0
    6.8369    1.4171    0.6442 H   0  0  0  0  0  0  0  0  0  0  0  0
    3.2498    3.5650    1.1339 H   0  0  0  0  0  0  0  0  0  0  0  0
    2.0226    1.5740    0.5308 H   0  0  0  0  0  0  0  0  0  0  0  0
   -3.0365    2.0926    0.5122 H   0  0  0  0  0  0  0  0  0  0  0  0
   -5.1014    3.3334    0.7957 H   0  0  0  0  0  0  0  0  0  0  0  0
   -7.3067    2.3020    0.4317 H   0  0  0  0  0  0  0  0  0  0  0  0
   -7.4307   -0.0488   -0.2372 H   0  0  0  0  0  0  0  0  0  0  0  0
   -5.4124   -1.3663   -0.5439 H   0  0  0  0  0  0  0  0  0  0  0  0
  1  2  2  0
  2  3  1  0
  3  4  2  0
  4  5  1  0
  5  6  2  0
  6  7  1  0
  7  8  2  0
  7  9  1  0
  9 10  2  0
 10 11  1  0
 11 12  1  0
 12 13  2  0
 13 14  1  0
 14 15  2  0
 15 16  1  0
 16 17  2  0
  1 18  1  0
 18 19  2  0
 19 20  1  0
 20 21  2  0
 21 22  1  0
 22 23  2  0
  8  3  1  0
 17  9  1  0
 23 18  1  0
 17 12  1  0
  1 24  1  0
  2 25  1  0
  5 26  1  0
  6 27  1  0
 10 28  1  0
 11 29  1  0
 13 30  1  0
 15 31  1  0
 16 32  1  0
 19 33  1  0
 20 34  1  0
 21 35  1  0
 22 36  1  0
 23 37  1  0
M  END
$$$$
[H]c1c([H])c([H])c2c(c1[H])c1c3c(c4c5c([H])c([H])c([H])c([H])c5n5c4c1n2[C@@]1(C([H])([H])[H])O[C@]5([H])C([H])([H])[C@@]([H])(N([H])C([H])([H])[H])[C@@]1([H])OC([H])([H])[H])C(=O)N([H])C3([H])[H]
     RDKit          3D

 61 68  0  0  0  0  0  0  0  0999 V2000
   -3.3415   -2.0929    0.8927 C   0  0  0  0  0  0  0  0  0  0  0  0
   -2.7520   -0.8244    0.5060 N   0  0  0  0  0  0  0  0  0  0  0  0
   -2.5947   -0.7699   -0.9652 C   0  0  2  0  0  0  0  0  0  0  0  0
   -1.6635   -1.8336   -1.3456 C   0  0  0  0  0  0  0  0  0  0  0  0
   -0.4098   -1.3263   -1.9401 C   0  0  1  0  0  0  0  0  0  0  0  0
   -0.2904   -0.0961   -2.3609 O   0  0  0  0  0  0  0  0  0  0  0  0
   -0.9141    0.9817   -1.7381 C   0  0  1  0  0  0  0  0  0  0  0  0
   -0.8729    2.0231   -2.8643 C   0  0  0  0  0  0  0  0  0  0  0  0
   -2.2914    0.6326   -1.4119 C   0  0  2  0  0  0  0  0  0  0  0  0
   -2.9229    1.4324   -0.4622 O   0  0  0  0  0  0  0  0  0  0  0  0
   -4.0664    2.0564   -0.9455 C   0  0  0  0  0  0  0  0  0  0  0  0
   -0.0747    1.3904   -0.5981 N   0  0  0  0  0  0  0  0  0  0  0  0
    0.0066    2.5943   -0.0347 C   0  0  0  0  0  0  0  0  0  0  0  0
   -0.6403    3.7755   -0.2701 C   0  0  0  0  0  0  0  0  0  0  0  0
   -0.3753    4.9057    0.4704 C   0  0  0  0  0  0  0  0  0  0  0  0
    0.5715    4.8915    1.4994 C   0  0  0  0  0  0  0  0  0  0  0  0
    1.2169    3.7192    1.7374 C   0  0  0  0  0  0  0  0  0  0  0  0
    0.9447    2.6014    0.9941 C   0  0  0  0  0  0  0  0  0  0  0  0
    1.4533    1.3308    1.0530 C   0  0  0  0  0  0  0  0  0  0  0  0
    2.4134    0.7192    1.8621 C   0  0  0  0  0  0  0  0  0  0  0  0
    3.2252    1.2814    2.9656 C   0  0  0  0  0  0  0  0  0  0  0  0
    4.0513    0.2282    3.4563 N   0  0  0  0  0  0  0  0  0  0  0  0
    3.7725   -0.9500    2.6928 C   0  0  0  0  0  0  0  0  0  0  0  0
    4.3602   -2.0093    2.9202 O   0  0  0  0  0  0  0  0  0  0  0  0
    2.7553   -0.6238    1.7110 C   0  0  0  0  0  0  0  0  0  0  0  0
    2.1006   -1.3257    0.7242 C   0  0  0  0  0  0  0  0  0  0  0  0
    2.1422   -2.6347    0.2794 C   0  0  0  0  0  0  0  0  0  0  0  0
    2.8759   -3.7217    0.6638 C   0  0  0  0  0  0  0  0  0  0  0  0
    2.6892   -4.9254    0.0128 C   0  0  0  0  0  0  0  0  0  0  0  0
    1.7808   -5.0386   -1.0084 C   0  0  0  0  0  0  0  0  0  0  0  0
    1.0343   -3.9515   -1.4066 C   0  0  0  0  0  0  0  0  0  0  0  0
    1.2263   -2.7646   -0.7562 C   0  0  0  0  0  0  0  0  0  0  0  0
    0.6469   -1.5975   -0.9447 N   0  0  0  0  0  0  0  0  0  0  0  0
    1.1358   -0.7009   -0.0851 C   0  0  0  0  0  0  0  0  0  0  0  0
    0.8119    0.6350    0.0794 C   0  0  0  0  0  0  0  0  0  0  0  0
   -3.9345   -1.8764    1.8249 H   0  0  0  0  0  0  0  0  0  0  0  0
   -2.5804   -2.8202    1.1896 H   0  0  0  0  0  0  0  0  0  0  0  0
   -4.0376   -2.4413    0.1071 H   0  0  0  0  0  0  0  0  0  0  0  0
   -1.8252   -0.7857    0.9817 H   0  0  0  0  0  0  0  0  0  0  0  0
   -3.6418   -1.0758   -1.3069 H   0  0  0  0  0  0  0  0  0  0  0  0
   -1.4743   -2.5407   -0.4944 H   0  0  0  0  0  0  0  0  0  0  0  0
   -2.1827   -2.5069   -2.1019 H   0  0  0  0  0  0  0  0  0  0  0  0
   -0.1764   -2.0147   -2.8352 H   0  0  0  0  0  0  0  0  0  0  0  0
   -1.8561    2.5173   -2.9808 H   0  0  0  0  0  0  0  0  0  0  0  0
   -0.0367    2.7359   -2.7018 H   0  0  0  0  0  0  0  0  0  0  0  0
   -0.6761    1.5932   -3.8662 H   0  0  0  0  0  0  0  0  0  0  0  0
   -2.9127    0.7625   -2.3525 H   0  0  0  0  0  0  0  0  0  0  0  0
   -4.5472    2.6842   -0.1440 H   0  0  0  0  0  0  0  0  0  0  0  0
   -3.8494    2.7776   -1.7563 H   0  0  0  0  0  0  0  0  0  0  0  0
   -4.7942    1.3294   -1.3803 H   0  0  0  0  0  0  0  0  0  0  0  0
   -1.3647    3.8112   -1.0348 H   0  0  0  0  0  0  0  0  0  0  0  0
   -0.8845    5.8355    0.2847 H   0  0  0  0  0  0  0  0  0  0  0  0
    0.7949    5.7654    2.0918 H   0  0  0  0  0  0  0  0  0  0  0  0
    1.9682    3.6487    2.5304 H   0  0  0  0  0  0  0  0  0  0  0  0
    3.8868    2.0907    2.5395 H   0  0  0  0  0  0  0  0  0  0  0  0
    2.5967    1.6993    3.7873 H   0  0  0  0  0  0  0  0  0  0  0  0
    4.7363    0.3270    4.2421 H   0  0  0  0  0  0  0  0  0  0  0  0
    3.5871   -3.7061    1.4353 H   0  0  0  0  0  0  0  0  0  0  0  0
    3.2659   -5.8106    0.3031 H   0  0  0  0  0  0  0  0  0  0  0  0
    1.6292   -5.9934   -1.5280 H   0  0  0  0  0  0  0  0  0  0  0  0
    0.3048   -4.0175   -2.2172 H   0  0  0  0  0  0  0  0  0  0  0  0
  1  2  1  0
  2  3  1  0
  3  4  1  0
  4  5  1  0
  5  6  1  0
  6  7  1  0
  7  8  1  6
  7  9  1  0
  9 10  1  0
 10 11  1  0
  7 12  1  0
 12 13  1  0
 13 14  2  0
 14 15  1  0
 15 16  2  0
 16 17  1  0
 17 18  2  0
 18 19  1  0
 19 20  2  0
 20 21  1  0
 21 22  1  0
 22 23  1  0
 23 24  2  0
 23 25  1  0
 25 26  2  0
 26 27  1  0
 27 28  2  0
 28 29  1  0
 29 30  2  0
 30 31  1  0
 31 32  2  0
 32 33  1  0
 33 34  1  0
 34 35  2  0
  9  3  1  0
 35 12  1  0
 33  5  1  0
 18 13  1  0
 35 19  1  0
 25 20  1  0
 34 26  1  0
 32 27  1  0
  1 36  1  0
  1 37  1  0
  1 38  1  0
  2 39  1  0
  3 40  1  6
  4 41  1  0
  4 42  1  0
  5 43  1  6
  8 44  1  0
  8 45  1  0
  8 46  1  0
  9 47  1  6
 11 48  1  0
 11 49  1  0
 11 50  1  0
 14 51  1  0
 15 52  1  0
 16 53  1  0
 17 54  1  0
 21 55  1  0
 21 56  1  0
 22 57  1  0
 28 58  1  0
 29 59  1  0
 30 60  1  0
 31 61  1  0
M  END
$$$$
[H]c1sc(-c2c([H])c([H])c3c(c2[H])C([H])([H])C([H])([H])O3)nc1C(=O)N([H])c1nc2c([H])c(C(=O)OC([H])([H])C([H])([H])[H])c([H])c([H])c2n1[H]
     RDKit          3D

 49 53  0  0  0  0  0  0  0  0999 V2000
   -9.2570   -2.2839    1.4985 C   0  0  0  0  0  0  0  0  0  0  0  0
   -8.7931   -0.9918    0.8828 C   0  0  0  0  0  0  0  0  0  0  0  0
   -7.3914   -0.8350    0.9153 O   0  0  0  0  0  0  0  0  0  0  0  0
   -6.6532   -0.8123    2.0895 C   0  0  0  0  0  0  0  0  0  0  0  0
   -7.2827   -0.9389    3.1626 O   0  0  0  0  0  0  0  0  0  0  0  0
   -5.1895   -0.6457    2.0684 C   0  0  0  0  0  0  0  0  0  0  0  0
   -4.4597   -0.6229    3.2243 C   0  0  0  0  0  0  0  0  0  0  0  0
   -3.0725   -0.4673    3.2491 C   0  0  0  0  0  0  0  0  0  0  0  0
   -2.4405   -0.3327    2.0270 C   0  0  0  0  0  0  0  0  0  0  0  0
   -1.1490   -0.1699    1.7034 N   0  0  0  0  0  0  0  0  0  0  0  0
   -1.0077   -0.0848    0.3646 C   0  0  0  0  0  0  0  0  0  0  0  0
    0.2117    0.0903   -0.3544 N   0  0  0  0  0  0  0  0  0  0  0  0
    0.1646    0.1581   -1.7712 C   0  0  0  0  0  0  0  0  0  0  0  0
   -0.9354    0.0638   -2.3525 O   0  0  0  0  0  0  0  0  0  0  0  0
    1.3922    0.3394   -2.5926 C   0  0  0  0  0  0  0  0  0  0  0  0
    1.3493    0.4054   -3.9648 C   0  0  0  0  0  0  0  0  0  0  0  0
    2.9982    0.6120   -4.3561 S   0  0  0  0  0  0  0  0  0  0  0  0
    3.6392    0.6029   -2.7771 C   0  0  0  0  0  0  0  0  0  0  0  0
    2.5627    0.4429   -2.0353 N   0  0  0  0  0  0  0  0  0  0  0  0
    5.0466    0.7395   -2.3429 C   0  0  0  0  0  0  0  0  0  0  0  0
    6.0234    0.8977   -3.2675 C   0  0  0  0  0  0  0  0  0  0  0  0
    7.3406    1.0244   -2.8390 C   0  0  0  0  0  0  0  0  0  0  0  0
    7.6336    0.9880   -1.4921 C   0  0  0  0  0  0  0  0  0  0  0  0
    8.8515    1.0897   -0.7968 O   0  0  0  0  0  0  0  0  0  0  0  0
    8.6583    0.4650    0.4709 C   0  0  0  0  0  0  0  0  0  0  0  0
    7.2344    0.8259    0.7733 C   0  0  0  0  0  0  0  0  0  0  0  0
    6.6115    0.8258   -0.5877 C   0  0  0  0  0  0  0  0  0  0  0  0
    5.3216    0.7019   -1.0121 C   0  0  0  0  0  0  0  0  0  0  0  0
   -2.2532   -0.1999   -0.1330 N   0  0  0  0  0  0  0  0  0  0  0  0
   -3.1643   -0.3533    0.8432 C   0  0  0  0  0  0  0  0  0  0  0  0
   -4.5369   -0.5097    0.8656 C   0  0  0  0  0  0  0  0  0  0  0  0
   -9.5373   -2.0860    2.5743 H   0  0  0  0  0  0  0  0  0  0  0  0
   -8.4368   -3.0408    1.4380 H   0  0  0  0  0  0  0  0  0  0  0  0
  -10.1372   -2.6460    0.9628 H   0  0  0  0  0  0  0  0  0  0  0  0
   -9.3207   -0.1536    1.3888 H   0  0  0  0  0  0  0  0  0  0  0  0
   -9.0906   -0.9789   -0.1979 H   0  0  0  0  0  0  0  0  0  0  0  0
   -4.9585   -0.7282    4.1701 H   0  0  0  0  0  0  0  0  0  0  0  0
   -2.5389   -0.4555    4.1870 H   0  0  0  0  0  0  0  0  0  0  0  0
   -0.3285   -0.1117    2.3709 H   0  0  0  0  0  0  0  0  0  0  0  0
    1.1061    0.1634    0.1865 H   0  0  0  0  0  0  0  0  0  0  0  0
    0.4578    0.3382   -4.6156 H   0  0  0  0  0  0  0  0  0  0  0  0
    5.8398    0.9324   -4.3422 H   0  0  0  0  0  0  0  0  0  0  0  0
    8.1180    1.1505   -3.5787 H   0  0  0  0  0  0  0  0  0  0  0  0
    8.8498   -0.6072    0.4347 H   0  0  0  0  0  0  0  0  0  0  0  0
    9.2948    0.9841    1.2327 H   0  0  0  0  0  0  0  0  0  0  0  0
    6.7201    0.0307    1.3813 H   0  0  0  0  0  0  0  0  0  0  0  0
    7.1258    1.7992    1.2637 H   0  0  0  0  0  0  0  0  0  0  0  0
    4.5088    0.5724   -0.2837 H   0  0  0  0  0  0  0  0  0  0  0  0
   -5.1260   -0.5297   -0.0358 H   0  0  0  0  0  0  0  0  0  0  0  0
  1  2  1  0
  2  3  1  0
  3  4  1  0
  4  5  2  0
  4  6  1  0
  6  7  2  0
  7  8  1  0
  8  9  2  0
  9 10  1  0
 10 11  1  0
 11 12  1  0
 12 13  1  0
 13 14  2  0
 13 15  1  0
 15 16  2  0
 16 17  1  0
 17 18  1  0
 18 19  2  0
 18 20  1  0
 20 21  2  0
 21 22  1  0
 22 23  2  0
 23 24  1  0
 24 25  1  0
 25 26  1  0
 26 27  1  0
 27 28  2  0
 11 29  2  0
 29 30  1  0
 30 31  2  0
 31  6  1  0
 30  9  1  0
 19 15  1  0
 28 20  1  0
 27 23  1  0
  1 32  1  0
  1 33  1  0
  1 34  1  0
  2 35  1  0
  2 36  1  0
  7 37  1  0
  8 38  1  0
 10 39  1  0
 12 40  1  0
 16 41  1  0
 21 42  1  0
 22 43  1  0
 25 44  1  0
 25 45  1  0
 26 46  1  0
 26 47  1  0
 28 48  1  0
 31 49  1  0
M  END
$$$$
[H]c1nc([H])c(-c2sc([H])c(-c3c([H])nc([H])c([H])c3[H])c2[H])s1
     RDKit          3D

 24 26  0  0  0  0  0  0  0  0999 V2000
    5.6191    0.2053    0.7621 C   0  0  0  0  0  0  0  0  0  0  0  0
    4.8076   -0.7036    1.2793 N   0  0  0  0  0  0  0  0  0  0  0  0
    3.5357   -0.6434    1.0411 C   0  0  0  0  0  0  0  0  0  0  0  0
    3.0841    0.3768    0.2508 C   0  0  0  0  0  0  0  0  0  0  0  0
    4.5388    1.1989   -0.1062 S   0  0  0  0  0  0  0  0  0  0  0  0
    1.7191    0.6949   -0.1845 C   0  0  0  0  0  0  0  0  0  0  0  0
    0.5454    0.0530    0.0898 C   0  0  0  0  0  0  0  0  0  0  0  0
   -0.5728    0.5644   -0.4435 C   0  0  0  0  0  0  0  0  0  0  0  0
   -0.4521    1.6856   -1.2181 C   0  0  0  0  0  0  0  0  0  0  0  0
    1.2280    1.9884   -1.1749 S   0  0  0  0  0  0  0  0  0  0  0  0
   -1.9200   -0.0280   -0.2313 C   0  0  0  0  0  0  0  0  0  0  0  0
   -2.8975    0.0540   -1.1917 C   0  0  0  0  0  0  0  0  0  0  0  0
   -4.1176   -0.5137   -0.9221 C   0  0  0  0  0  0  0  0  0  0  0  0
   -4.3062   -1.1352    0.2894 C   0  0  0  0  0  0  0  0  0  0  0  0
   -3.3324   -1.1997    1.2084 N   0  0  0  0  0  0  0  0  0  0  0  0
   -2.1276   -0.6546    0.9760 C   0  0  0  0  0  0  0  0  0  0  0  0
    6.7129    0.2697    0.8853 H   0  0  0  0  0  0  0  0  0  0  0  0
    2.8220   -1.3836    1.4543 H   0  0  0  0  0  0  0  0  0  0  0  0
    0.5783   -0.8548    0.7373 H   0  0  0  0  0  0  0  0  0  0  0  0
   -1.2593    2.2429   -1.7352 H   0  0  0  0  0  0  0  0  0  0  0  0
   -2.6947    0.5495   -2.1164 H   0  0  0  0  0  0  0  0  0  0  0  0
   -4.9168   -0.4722   -1.6501 H   0  0  0  0  0  0  0  0  0  0  0  0
   -5.2595   -1.5837    0.5124 H   0  0  0  0  0  0  0  0  0  0  0  0
   -1.3346   -0.7106    1.7314 H   0  0  0  0  0  0  0  0  0  0  0  0
  1  2  2  0
  2  3  1  0
  3  4  2  0
  4  5  1  0
  4  6  1  0
  6  7  2  0
  7  8  1  0
  8  9  2  0
  9 10  1  0
  8 11  1  0
 11 12  2  0
 12 13  1  0
 13 14  2  0
 14 15  1  0
 15 16  2  0
  5  1  1  0
 10  6  1  0
 16 11  1  0
  1 17  1  0
  3 18  1  0
  7 19  1  0
  9 20  1  0
 12 21  1  0
 13 22  1  0
 14 23  1  0
 16 24  1  0
M  END
$$$$
[H]c1nc(N([H])c2c([H])c([H])c(N3C([H])([H])C([H])([H])N(C([H])([H])[H])C([H])([H])C3([H])[H])c([H])c2OC([H])([H])[H])nc(-c2c([H])n([H])c3c([H])nc(C([H])([H])[H])c([H])c23)c1[H]
     RDKit          3D

 59 63  0  0  0  0  0  0  0  0999 V2000
   -2.0389    3.3212    2.0859 C   0  0  0  0  0  0  0  0  0  0  0  0
   -1.1836    2.4287    1.4231 O   0  0  0  0  0  0  0  0  0  0  0  0
   -1.6677    1.3498    0.6711 C   0  0  0  0  0  0  0  0  0  0  0  0
   -3.0231    1.1450    0.5690 C   0  0  0  0  0  0  0  0  0  0  0  0
   -3.5479    0.0988   -0.1585 C   0  0  0  0  0  0  0  0  0  0  0  0
   -2.6366   -0.7238   -0.7734 C   0  0  0  0  0  0  0  0  0  0  0  0
   -1.2631   -0.5363   -0.6842 C   0  0  0  0  0  0  0  0  0  0  0  0
   -0.7407    0.5006    0.0370 C   0  0  0  0  0  0  0  0  0  0  0  0
    0.6177    0.7459    0.1729 N   0  0  0  0  0  0  0  0  0  0  0  0
    1.7250    0.0470   -0.3620 C   0  0  0  0  0  0  0  0  0  0  0  0
    1.6904   -1.0311   -1.1384 N   0  0  0  0  0  0  0  0  0  0  0  0
    2.7536   -1.6701   -1.6236 C   0  0  0  0  0  0  0  0  0  0  0  0
    4.0289   -1.1907   -1.3075 C   0  0  0  0  0  0  0  0  0  0  0  0
    4.1142   -0.0889   -0.5134 C   0  0  0  0  0  0  0  0  0  0  0  0
    2.9772    0.5007   -0.0631 N   0  0  0  0  0  0  0  0  0  0  0  0
    5.3732    0.5525   -0.1484 C   0  0  0  0  0  0  0  0  0  0  0  0
    5.4877    1.9124    0.2166 C   0  0  0  0  0  0  0  0  0  0  0  0
    6.7542    2.1637    0.5294 N   0  0  0  0  0  0  0  0  0  0  0  0
    7.4792    1.0426    0.3914 C   0  0  0  0  0  0  0  0  0  0  0  0
    8.7950    0.7719    0.5989 C   0  0  0  0  0  0  0  0  0  0  0  0
    9.2913   -0.4461    0.4094 N   0  0  0  0  0  0  0  0  0  0  0  0
    8.5349   -1.4741    0.0069 C   0  0  0  0  0  0  0  0  0  0  0  0
    9.0545   -2.8499   -0.2133 C   0  0  0  0  0  0  0  0  0  0  0  0
    7.1765   -1.2050   -0.2104 C   0  0  0  0  0  0  0  0  0  0  0  0
    6.6249    0.0437   -0.0274 C   0  0  0  0  0  0  0  0  0  0  0  0
   -4.9468   -0.0563   -0.2247 N   0  0  0  0  0  0  0  0  0  0  0  0
   -5.6435   -1.1245   -0.8869 C   0  0  0  0  0  0  0  0  0  0  0  0
   -6.7002   -1.6663    0.0433 C   0  0  0  0  0  0  0  0  0  0  0  0
   -7.6170   -0.6940    0.5445 N   0  0  0  0  0  0  0  0  0  0  0  0
   -8.9629   -0.9346    0.0652 C   0  0  0  0  0  0  0  0  0  0  0  0
   -7.2614    0.6645    0.1976 C   0  0  0  0  0  0  0  0  0  0  0  0
   -5.7929    0.9427    0.4234 C   0  0  0  0  0  0  0  0  0  0  0  0
   -1.4492    4.0016    2.7248 H   0  0  0  0  0  0  0  0  0  0  0  0
   -2.6585    3.8665    1.3685 H   0  0  0  0  0  0  0  0  0  0  0  0
   -2.6711    2.7219    2.7715 H   0  0  0  0  0  0  0  0  0  0  0  0
   -3.7076    1.8330    1.0798 H   0  0  0  0  0  0  0  0  0  0  0  0
   -2.9899   -1.5474   -1.3501 H   0  0  0  0  0  0  0  0  0  0  0  0
   -0.6588   -1.2488   -1.2102 H   0  0  0  0  0  0  0  0  0  0  0  0
    0.8695    1.6041    0.7823 H   0  0  0  0  0  0  0  0  0  0  0  0
    2.6584   -2.5445   -2.2518 H   0  0  0  0  0  0  0  0  0  0  0  0
    4.8597   -1.7056   -1.7393 H   0  0  0  0  0  0  0  0  0  0  0  0
    4.6346    2.5773    0.2148 H   0  0  0  0  0  0  0  0  0  0  0  0
    7.1458    3.0963    0.8400 H   0  0  0  0  0  0  0  0  0  0  0  0
    9.4885    1.5544    0.9303 H   0  0  0  0  0  0  0  0  0  0  0  0
    8.3939   -3.3908   -0.9248 H   0  0  0  0  0  0  0  0  0  0  0  0
    9.1273   -3.4002    0.7679 H   0  0  0  0  0  0  0  0  0  0  0  0
   10.0999   -2.7370   -0.6140 H   0  0  0  0  0  0  0  0  0  0  0  0
    6.5441   -2.0277   -0.5089 H   0  0  0  0  0  0  0  0  0  0  0  0
   -6.1047   -0.8156   -1.8466 H   0  0  0  0  0  0  0  0  0  0  0  0
   -4.9344   -1.9475   -1.0679 H   0  0  0  0  0  0  0  0  0  0  0  0
   -7.2803   -2.4238   -0.5624 H   0  0  0  0  0  0  0  0  0  0  0  0
   -6.2451   -2.2443    0.8675 H   0  0  0  0  0  0  0  0  0  0  0  0
   -9.0480   -1.8509   -0.5577 H   0  0  0  0  0  0  0  0  0  0  0  0
   -9.6628   -1.0273    0.9352 H   0  0  0  0  0  0  0  0  0  0  0  0
   -9.3288   -0.0991   -0.5426 H   0  0  0  0  0  0  0  0  0  0  0  0
   -7.8297    1.3259    0.8830 H   0  0  0  0  0  0  0  0  0  0  0  0
   -7.5837    0.9190   -0.8306 H   0  0  0  0  0  0  0  0  0  0  0  0
   -5.5634    1.0651    1.4881 H   0  0  0  0  0  0  0  0  0  0  0  0
   -5.5579    1.9049   -0.0851 H   0  0  0  0  0  0  0  0  0  0  0  0
  1  2  1  0
  2  3  1  0
  3  4  2  0
  4  5  1  0
  5  6  2  0
  6  7  1  0
  7  8  2  0
  8  9  1  0
  9 10  1  0
 10 11  2  0
 11 12  1  0
 12 13  2  0
 13 14  1  0
 14 15  2  0
 14 16  1  0
 16 17  2  0
 17 18  1  0
 18 19  1  0
 19 20  2  0
 20 21  1  0
 21 22  2  0
 22 23  1  0
 22 24  1  0
 24 25  2  0
  5 26  1  0
 26 27  1  0
 27 28  1  0
 28 29  1  0
 29 30  1  0
 29 31  1  0
 31 32  1  0
  8  3  1  0
 15 10  1  0
 25 16  1  0
 32 26  1  0
 25 19  1  0
  1 33  1  0
  1 34  1  0
  1 35  1  0
  4 36  1  0
  6 37  1  0
  7 38  1  0
  9 39  1  0
 12 40  1  0
 13 41  1  0
 17 42  1  0
 18 43  1  0
 20 44  1  0
 23 45  1  0
 23 46  1  0
 23 47  1  0
 24 48  1  0
 27 49  1  0
 27 50  1  0
 28 51  1  0
 28 52  1  0
 30 53  1  0
 30 54  1  0
 30 55  1  0
 31 56  1  0
 31 57  1  0
 32 58  1  0
 32 59  1  0
M  END
$$$$
[H]C(=C1N=C(N([H])c2c([H])c([H])c([H])c([H])c2[H])N([H])C1=O)c1c([H])c([H])c2c(c1[H])OC([H])([H])O2
     RDKit          3D

 36 39  0  0  0  0  0  0  0  0999 V2000
    0.8818   -3.6863   -1.7047 O   0  0  0  0  0  0  0  0  0  0  0  0
    0.8088   -2.4786   -1.4068 C   0  0  0  0  0  0  0  0  0  0  0  0
    1.8266   -1.5073   -1.5649 N   0  0  0  0  0  0  0  0  0  0  0  0
    1.2958   -0.2862   -1.0944 C   0  0  0  0  0  0  0  0  0  0  0  0
    2.0036    0.9396   -1.0782 N   0  0  0  0  0  0  0  0  0  0  0  0
    3.2627    1.1355   -0.4835 C   0  0  0  0  0  0  0  0  0  0  0  0
    3.8861    2.3668   -0.5142 C   0  0  0  0  0  0  0  0  0  0  0  0
    5.1254    2.5799    0.0621 C   0  0  0  0  0  0  0  0  0  0  0  0
    5.7925    1.5740    0.6917 C   0  0  0  0  0  0  0  0  0  0  0  0
    5.1921    0.3345    0.7366 C   0  0  0  0  0  0  0  0  0  0  0  0
    3.9571    0.1231    0.1623 C   0  0  0  0  0  0  0  0  0  0  0  0
    0.0842   -0.4383   -0.6811 N   0  0  0  0  0  0  0  0  0  0  0  0
   -0.3413   -1.7889   -0.8271 C   0  0  0  0  0  0  0  0  0  0  0  0
   -1.4974   -2.3400   -0.5126 C   0  0  0  0  0  0  0  0  0  0  0  0
   -2.6023   -1.5678    0.0661 C   0  0  0  0  0  0  0  0  0  0  0  0
   -3.3623   -2.0903    1.0665 C   0  0  0  0  0  0  0  0  0  0  0  0
   -4.4058   -1.3978    1.6191 C   0  0  0  0  0  0  0  0  0  0  0  0
   -4.7405   -0.1262    1.1849 C   0  0  0  0  0  0  0  0  0  0  0  0
   -5.7221    0.7626    1.5660 O   0  0  0  0  0  0  0  0  0  0  0  0
   -5.5082    1.9831    0.8424 C   0  0  0  0  0  0  0  0  0  0  0  0
   -4.5032    1.6648   -0.0765 O   0  0  0  0  0  0  0  0  0  0  0  0
   -3.9676    0.3991    0.1708 C   0  0  0  0  0  0  0  0  0  0  0  0
   -2.9023   -0.3075   -0.3933 C   0  0  0  0  0  0  0  0  0  0  0  0
    2.7769   -1.6344   -1.9456 H   0  0  0  0  0  0  0  0  0  0  0  0
    1.5495    1.7670   -1.5480 H   0  0  0  0  0  0  0  0  0  0  0  0
    3.3616    3.1882   -1.0180 H   0  0  0  0  0  0  0  0  0  0  0  0
    5.5851    3.5580    0.0202 H   0  0  0  0  0  0  0  0  0  0  0  0
    6.7691    1.7205    1.1524 H   0  0  0  0  0  0  0  0  0  0  0  0
    5.7430   -0.4536    1.2449 H   0  0  0  0  0  0  0  0  0  0  0  0
    3.5486   -0.8704    0.2383 H   0  0  0  0  0  0  0  0  0  0  0  0
   -1.6244   -3.3986   -0.6909 H   0  0  0  0  0  0  0  0  0  0  0  0
   -3.1802   -3.0928    1.4841 H   0  0  0  0  0  0  0  0  0  0  0  0
   -5.0092   -1.8243    2.4220 H   0  0  0  0  0  0  0  0  0  0  0  0
   -5.2475    2.7886    1.5477 H   0  0  0  0  0  0  0  0  0  0  0  0
   -6.4821    2.2216    0.3785 H   0  0  0  0  0  0  0  0  0  0  0  0
   -2.3542    0.1824   -1.1861 H   0  0  0  0  0  0  0  0  0  0  0  0
  1  2  2  0
  2  3  1  0
  3  4  1  0
  4  5  1  0
  5  6  1  0
  6  7  2  0
  7  8  1  0
  8  9  2  0
  9 10  1  0
 10 11  2  0
  4 12  2  0
 12 13  1  0
 13 14  2  3
 14 15  1  0
 15 16  2  0
 16 17  1  0
 17 18  2  0
 18 19  1  0
 19 20  1  0
 20 21  1  0
 21 22  1  0
 22 23  2  0
 13  2  1  0
 23 15  1  0
 11  6  1  0
 22 18  1  0
  3 24  1  0
  5 25  1  0
  7 26  1  0
  8 27  1  0
  9 28  1  0
 10 29  1  0
 11 30  1  0
 14 31  1  0
 16 32  1  0
 17 33  1  0
 20 34  1  0
 20 35  1  0
 23 36  1  0
M  END
$$$$
[H]c1nc(N([H])C(=O)c2nc(-c3c([H])c([H])c4c(c3[H])C([H])([H])C([H])([H])O4)sc2[H])n([H])c1[H]
     RDKit          3D

 34 37  0  0  0  0  0  0  0  0999 V2000
   -3.0292    1.1699   -0.2307 O   0  0  0  0  0  0  0  0  0  0  0  0
   -2.8632   -0.0530    0.0211 C   0  0  0  0  0  0  0  0  0  0  0  0
   -4.0072   -0.8623    0.2191 N   0  0  0  0  0  0  0  0  0  0  0  0
   -5.3003   -0.3172    0.1373 C   0  0  0  0  0  0  0  0  0  0  0  0
   -5.5830    0.9922   -0.1297 N   0  0  0  0  0  0  0  0  0  0  0  0
   -6.8902    1.2040   -0.1413 C   0  0  0  0  0  0  0  0  0  0  0  0
   -7.4712   -0.0183    0.1290 C   0  0  0  0  0  0  0  0  0  0  0  0
   -6.4953   -0.9272    0.2949 N   0  0  0  0  0  0  0  0  0  0  0  0
   -1.5057   -0.6628    0.1148 C   0  0  0  0  0  0  0  0  0  0  0  0
   -1.3315   -1.9969    0.3897 C   0  0  0  0  0  0  0  0  0  0  0  0
    0.3691   -2.1363    0.3763 S   0  0  0  0  0  0  0  0  0  0  0  0
    0.7544   -0.5129    0.0268 C   0  0  0  0  0  0  0  0  0  0  0  0
   -0.4269    0.0503   -0.0615 N   0  0  0  0  0  0  0  0  0  0  0  0
    2.0942    0.1117   -0.1376 C   0  0  0  0  0  0  0  0  0  0  0  0
    2.1305    1.4376   -0.4160 C   0  0  0  0  0  0  0  0  0  0  0  0
    3.3386    2.0826   -0.5814 C   0  0  0  0  0  0  0  0  0  0  0  0
    4.5002    1.3169   -0.4503 C   0  0  0  0  0  0  0  0  0  0  0  0
    5.8222    1.6857   -0.5608 O   0  0  0  0  0  0  0  0  0  0  0  0
    6.6592    0.7153   -0.0092 C   0  0  0  0  0  0  0  0  0  0  0  0
    5.8429   -0.5666   -0.0892 C   0  0  0  0  0  0  0  0  0  0  0  0
    4.4491   -0.0316   -0.1667 C   0  0  0  0  0  0  0  0  0  0  0  0
    3.2112   -0.6480   -0.0066 C   0  0  0  0  0  0  0  0  0  0  0  0
   -3.9378   -1.8933    0.4331 H   0  0  0  0  0  0  0  0  0  0  0  0
   -7.3882    2.1402   -0.3248 H   0  0  0  0  0  0  0  0  0  0  0  0
   -8.5244   -0.2463    0.2031 H   0  0  0  0  0  0  0  0  0  0  0  0
   -6.5633   -1.9470    0.5100 H   0  0  0  0  0  0  0  0  0  0  0  0
   -2.1092   -2.7621    0.5694 H   0  0  0  0  0  0  0  0  0  0  0  0
    1.2068    2.0223   -0.5152 H   0  0  0  0  0  0  0  0  0  0  0  0
    3.3743    3.1425   -0.8042 H   0  0  0  0  0  0  0  0  0  0  0  0
    7.6324    0.6060   -0.5349 H   0  0  0  0  0  0  0  0  0  0  0  0
    6.7929    0.9438    1.0693 H   0  0  0  0  0  0  0  0  0  0  0  0
    5.9783   -1.1962    0.8205 H   0  0  0  0  0  0  0  0  0  0  0  0
    6.1119   -1.1528   -0.9666 H   0  0  0  0  0  0  0  0  0  0  0  0
    3.1588   -1.6904    0.2129 H   0  0  0  0  0  0  0  0  0  0  0  0
  1  2  2  0
  2  3  1  0
  3  4  1  0
  4  5  2  0
  5  6  1  0
  6  7  2  0
  7  8  1  0
  2  9  1  0
  9 10  2  0
 10 11  1  0
 11 12  1  0
 12 13  2  0
 12 14  1  0
 14 15  2  0
 15 16  1  0
 16 17  2  0
 17 18  1  0
 18 19  1  0
 19 20  1  0
 20 21  1  0
 21 22  2  0
  8  4  1  0
 13  9  1  0
 22 14  1  0
 21 17  1  0
  3 23  1  0
  6 24  1  0
  7 25  1  0
  8 26  1  0
 10 27  1  0
 15 28  1  0
 16 29  1  0
 19 30  1  0
 19 31  1  0
 20 32  1  0
 20 33  1  0
 22 34  1  0
M  END
$$$$
[H]c1sc(-c2c([H])c([H])c3c(c2[H])C([H])([H])C([H])([H])O3)nc1C(=O)N([H])c1nc(SC([H])([H])C#N)nn1[H]
     RDKit          3D

 38 41  0  0  0  0  0  0  0  0999 V2000
    1.5248   -2.2931    1.0933 O   0  0  0  0  0  0  0  0  0  0  0  0
    1.7056   -1.1202    0.7372 C   0  0  0  0  0  0  0  0  0  0  0  0
    2.9064   -0.4288    0.6429 N   0  0  0  0  0  0  0  0  0  0  0  0
    4.0679    0.2065    0.5342 C   0  0  0  0  0  0  0  0  0  0  0  0
    5.1752   -0.1442   -0.2139 N   0  0  0  0  0  0  0  0  0  0  0  0
    6.0702    0.7985   -0.1606 C   0  0  0  0  0  0  0  0  0  0  0  0
    7.6520    0.8372   -1.0314 S   0  0  0  0  0  0  0  0  0  0  0  0
    8.9582    0.2112    0.0500 C   0  0  0  0  0  0  0  0  0  0  0  0
    8.6863   -1.1526    0.4464 C   0  0  0  0  0  0  0  0  0  0  0  0
    8.4729   -2.2387    0.7394 N   0  0  0  0  0  0  0  0  0  0  0  0
    5.6421    1.7848    0.6012 N   0  0  0  0  0  0  0  0  0  0  0  0
    4.4251    1.4487    1.0278 N   0  0  0  0  0  0  0  0  0  0  0  0
    0.4470   -0.3286    0.3125 C   0  0  0  0  0  0  0  0  0  0  0  0
    0.6415    0.8912   -0.2936 C   0  0  0  0  0  0  0  0  0  0  0  0
   -0.9592    1.3134   -0.7678 S   0  0  0  0  0  0  0  0  0  0  0  0
   -1.7576   -0.1441   -0.1237 C   0  0  0  0  0  0  0  0  0  0  0  0
   -0.7594   -0.7804    0.3600 N   0  0  0  0  0  0  0  0  0  0  0  0
   -3.1848   -0.2620   -0.3531 C   0  0  0  0  0  0  0  0  0  0  0  0
   -3.7155    0.1124   -1.5973 C   0  0  0  0  0  0  0  0  0  0  0  0
   -5.0776    0.1871   -1.8052 C   0  0  0  0  0  0  0  0  0  0  0  0
   -5.9648   -0.0840   -0.8010 C   0  0  0  0  0  0  0  0  0  0  0  0
   -7.3531   -0.0698   -0.7599 O   0  0  0  0  0  0  0  0  0  0  0  0
   -7.6708    0.3180    0.5696 C   0  0  0  0  0  0  0  0  0  0  0  0
   -6.6626   -0.6386    1.3056 C   0  0  0  0  0  0  0  0  0  0  0  0
   -5.4502   -0.4576    0.4243 C   0  0  0  0  0  0  0  0  0  0  0  0
   -4.0622   -0.5543    0.6596 C   0  0  0  0  0  0  0  0  0  0  0  0
    3.5775   -1.5963    1.0111 H   0  0  0  0  0  0  0  0  0  0  0  0
    9.0534    0.9159    0.9626 H   0  0  0  0  0  0  0  0  0  0  0  0
    9.9138    0.2854   -0.5191 H   0  0  0  0  0  0  0  0  0  0  0  0
    3.8387    2.0189    1.6347 H   0  0  0  0  0  0  0  0  0  0  0  0
    1.5833    1.4081   -0.4259 H   0  0  0  0  0  0  0  0  0  0  0  0
   -3.0393    0.3131   -2.4542 H   0  0  0  0  0  0  0  0  0  0  0  0
   -5.4622    0.4732   -2.7856 H   0  0  0  0  0  0  0  0  0  0  0  0
   -8.7129    0.1324    0.8667 H   0  0  0  0  0  0  0  0  0  0  0  0
   -7.3270    1.3261    0.7572 H   0  0  0  0  0  0  0  0  0  0  0  0
   -6.4135   -0.2272    2.2615 H   0  0  0  0  0  0  0  0  0  0  0  0
   -7.0554   -1.6391    1.2945 H   0  0  0  0  0  0  0  0  0  0  0  0
   -3.7137   -0.8223    1.5984 H   0  0  0  0  0  0  0  0  0  0  0  0
  1  2  2  0
  2  3  1  0
  3  4  1  0
  4  5  2  0
  5  6  1  0
  6  7  1  0
  7  8  1  0
  8  9  1  0
  9 10  3  0
  6 11  2  0
 11 12  1  0
  2 13  1  0
 13 14  2  0
 14 15  1  0
 15 16  1  0
 16 17  2  0
 16 18  1  0
 18 19  2  0
 19 20  1  0
 20 21  2  0
 21 22  1  0
 22 23  1  0
 23 24  1  0
 24 25  1  0
 25 26  2  0
 12  4  1  0
 17 13  1  0
 26 18  1  0
 25 21  1  0
  3 27  1  0
  8 28  1  0
  8 29  1  0
 12 30  1  0
 14 31  1  0
 19 32  1  0
 20 33  1  0
 23 34  1  0
 23 35  1  0
 24 36  1  0
 24 37  1  0
 26 38  1  0
M  END
$$$$
[H]c1nc(-c2c([H])n([H])c3c([H])nc([H])c([H])c23)c([H])c(N([H])c2c([H])c([H])c(N3C([H])([H])C([H])([H])N(C([H])([H])[H])C([H])([H])C3([H])[H])c([H])c2[H])n1
     RDKit          3D

 52 56  0  0  0  0  0  0  0  0999 V2000
   -8.0719   -0.5953   -0.8521 C   0  0  0  0  0  0  0  0  0  0  0  0
   -6.9807   -0.3656    0.0398 N   0  0  0  0  0  0  0  0  0  0  0  0
   -6.0731   -1.4650    0.0824 C   0  0  0  0  0  0  0  0  0  0  0  0
   -5.0943   -1.4590   -1.1023 C   0  0  0  0  0  0  0  0  0  0  0  0
   -4.4778   -0.1562   -1.0994 N   0  0  0  0  0  0  0  0  0  0  0  0
   -5.4205    0.9485   -1.2979 C   0  0  0  0  0  0  0  0  0  0  0  0
   -6.3476    0.9241   -0.1266 C   0  0  0  0  0  0  0  0  0  0  0  0
   -3.0869    0.0349   -0.9315 C   0  0  0  0  0  0  0  0  0  0  0  0
   -2.1959   -0.9989   -1.0551 C   0  0  0  0  0  0  0  0  0  0  0  0
   -0.8076   -0.8169   -0.8768 C   0  0  0  0  0  0  0  0  0  0  0  0
   -0.2773    0.4031   -0.5699 C   0  0  0  0  0  0  0  0  0  0  0  0
    1.0935    0.6718   -0.3441 N   0  0  0  0  0  0  0  0  0  0  0  0
    2.0628   -0.2868    0.0395 C   0  0  0  0  0  0  0  0  0  0  0  0
    3.4054    0.1154    0.1842 C   0  0  0  0  0  0  0  0  0  0  0  0
    4.4201   -0.7045    0.5681 C   0  0  0  0  0  0  0  0  0  0  0  0
    4.0450   -2.0061    0.8203 N   0  0  0  0  0  0  0  0  0  0  0  0
    2.7807   -2.4225    0.6937 C   0  0  0  0  0  0  0  0  0  0  0  0
    1.8231   -1.5659    0.3098 N   0  0  0  0  0  0  0  0  0  0  0  0
    5.8024   -0.3567    0.7856 C   0  0  0  0  0  0  0  0  0  0  0  0
    6.6716   -1.1214    1.5807 C   0  0  0  0  0  0  0  0  0  0  0  0
    7.8903   -0.5787    1.5733 N   0  0  0  0  0  0  0  0  0  0  0  0
    7.8737    0.5166    0.8056 C   0  0  0  0  0  0  0  0  0  0  0  0
    8.8382    1.4143    0.4572 C   0  0  0  0  0  0  0  0  0  0  0  0
    8.5774    2.4395   -0.3549 N   0  0  0  0  0  0  0  0  0  0  0  0
    7.3562    2.6120   -0.8504 C   0  0  0  0  0  0  0  0  0  0  0  0
    6.3299    1.7292   -0.5310 C   0  0  0  0  0  0  0  0  0  0  0  0
    6.5840    0.6620    0.3119 C   0  0  0  0  0  0  0  0  0  0  0  0
   -1.2030    1.4621   -0.4454 C   0  0  0  0  0  0  0  0  0  0  0  0
   -2.5489    1.2657   -0.6226 C   0  0  0  0  0  0  0  0  0  0  0  0
   -8.6290    0.3611   -0.9689 H   0  0  0  0  0  0  0  0  0  0  0  0
   -7.7897   -1.0528   -1.8143 H   0  0  0  0  0  0  0  0  0  0  0  0
   -8.7679   -1.3194   -0.3366 H   0  0  0  0  0  0  0  0  0  0  0  0
   -6.6409   -2.3976   -0.0063 H   0  0  0  0  0  0  0  0  0  0  0  0
   -5.4316   -1.4325    0.9914 H   0  0  0  0  0  0  0  0  0  0  0  0
   -5.6790   -1.5201   -2.0666 H   0  0  0  0  0  0  0  0  0  0  0  0
   -4.4415   -2.3073   -0.9542 H   0  0  0  0  0  0  0  0  0  0  0  0
   -4.9661    1.9116   -1.4549 H   0  0  0  0  0  0  0  0  0  0  0  0
   -6.0373    0.7206   -2.2196 H   0  0  0  0  0  0  0  0  0  0  0  0
   -5.7743    1.1636    0.7868 H   0  0  0  0  0  0  0  0  0  0  0  0
   -7.1686    1.6551   -0.3230 H   0  0  0  0  0  0  0  0  0  0  0  0
   -2.5277   -1.9947   -1.2991 H   0  0  0  0  0  0  0  0  0  0  0  0
   -0.1594   -1.6837   -1.0108 H   0  0  0  0  0  0  0  0  0  0  0  0
    1.4524    1.6794   -0.4680 H   0  0  0  0  0  0  0  0  0  0  0  0
    3.6142    1.1449    0.0023 H   0  0  0  0  0  0  0  0  0  0  0  0
    2.4816   -3.4559    0.8931 H   0  0  0  0  0  0  0  0  0  0  0  0
    6.3942   -2.0036    2.1104 H   0  0  0  0  0  0  0  0  0  0  0  0
    8.7611   -0.9258    2.0802 H   0  0  0  0  0  0  0  0  0  0  0  0
    9.8429    1.2987    0.8455 H   0  0  0  0  0  0  0  0  0  0  0  0
    7.1401    3.4526   -1.5180 H   0  0  0  0  0  0  0  0  0  0  0  0
    5.3602    1.8543   -0.9439 H   0  0  0  0  0  0  0  0  0  0  0  0
   -0.7717    2.4305   -0.2019 H   0  0  0  0  0  0  0  0  0  0  0  0
   -3.2308    2.1212   -0.5110 H   0  0  0  0  0  0  0  0  0  0  0  0
  1  2  1  0
  2  3  1  0
  3  4  1  0
  4  5  1  0
  5  6  1  0
  6  7  1  0
  5  8  1  0
  8  9  2  0
  9 10  1  0
 10 11  2  0
 11 12  1  0
 12 13  1  0
 13 14  2  0
 14 15  1  0
 15 16  2  0
 16 17  1  0
 17 18  2  0
 15 19  1  0
 19 20  2  0
 20 21  1  0
 21 22  1  0
 22 23  2  0
 23 24  1  0
 24 25  2  0
 25 26  1  0
 26 27  2  0
 11 28  1  0
 28 29  2  0
  7  2  1  0
 29  8  1  0
 18 13  1  0
 27 19  1  0
 27 22  1  0
  1 30  1  0
  1 31  1  0
  1 32  1  0
  3 33  1  0
  3 34  1  0
  4 35  1  0
  4 36  1  0
  6 37  1  0
  6 38  1  0
  7 39  1  0
  7 40  1  0
  9 41  1  0
 10 42  1  0
 12 43  1  0
 14 44  1  0
 17 45  1  0
 20 46  1  0
 21 47  1  0
 23 48  1  0
 25 49  1  0
 26 50  1  0
 28 51  1  0
 29 52  1  0
M  END
$$$$
[H]c1sc(-c2c([H])c([H])c3c(c2[H])C([H])([H])C([H])([H])O3)nc1C(=O)N([H])c1nsc(N([H])[H])n1
     RDKit          3D

 34 37  0  0  0  0  0  0  0  0999 V2000
    7.3939    1.6238    0.3645 N   0  0  0  0  0  0  0  0  0  0  0  0
    6.8189    0.3250    0.1633 C   0  0  0  0  0  0  0  0  0  0  0  0
    5.5390   -0.0160    0.0957 N   0  0  0  0  0  0  0  0  0  0  0  0
    5.2169   -1.2604   -0.0941 C   0  0  0  0  0  0  0  0  0  0  0  0
    3.8405   -1.6999   -0.1777 N   0  0  0  0  0  0  0  0  0  0  0  0
    2.8064   -0.7286   -0.0463 C   0  0  0  0  0  0  0  0  0  0  0  0
    3.1017    0.4808    0.1379 O   0  0  0  0  0  0  0  0  0  0  0  0
    1.3868   -1.1595   -0.1293 C   0  0  0  0  0  0  0  0  0  0  0  0
    1.0477   -2.4769   -0.3303 C   0  0  0  0  0  0  0  0  0  0  0  0
   -0.6595   -2.3968   -0.3407 S   0  0  0  0  0  0  0  0  0  0  0  0
   -0.8348   -0.7202   -0.0929 C   0  0  0  0  0  0  0  0  0  0  0  0
    0.4128   -0.3076   -0.0149 N   0  0  0  0  0  0  0  0  0  0  0  0
   -2.0465    0.1098    0.0151 C   0  0  0  0  0  0  0  0  0  0  0  0
   -1.9426    1.4604    0.2180 C   0  0  0  0  0  0  0  0  0  0  0  0
   -3.0950    2.2304    0.3179 C   0  0  0  0  0  0  0  0  0  0  0  0
   -4.3249    1.6245    0.2114 C   0  0  0  0  0  0  0  0  0  0  0  0
   -5.5865    2.1861    0.2787 O   0  0  0  0  0  0  0  0  0  0  0  0
   -6.4918    1.2592   -0.2870 C   0  0  0  0  0  0  0  0  0  0  0  0
   -5.8114   -0.0799   -0.0624 C   0  0  0  0  0  0  0  0  0  0  0  0
   -4.3820    0.2758    0.0094 C   0  0  0  0  0  0  0  0  0  0  0  0
   -3.2522   -0.5136   -0.0936 C   0  0  0  0  0  0  0  0  0  0  0  0
    6.2201   -2.1414   -0.2124 N   0  0  0  0  0  0  0  0  0  0  0  0
    7.5919   -1.1862   -0.0520 S   0  0  0  0  0  0  0  0  0  0  0  0
    8.3311    1.6750    0.7833 H   0  0  0  0  0  0  0  0  0  0  0  0
    6.8710    2.4416    0.0936 H   0  0  0  0  0  0  0  0  0  0  0  0
    3.6601   -2.6970   -0.3288 H   0  0  0  0  0  0  0  0  0  0  0  0
    1.7205   -3.3465   -0.4513 H   0  0  0  0  0  0  0  0  0  0  0  0
   -0.9858    1.9385    0.3018 H   0  0  0  0  0  0  0  0  0  0  0  0
   -3.0308    3.2975    0.4779 H   0  0  0  0  0  0  0  0  0  0  0  0
   -6.6791    1.4500   -1.3607 H   0  0  0  0  0  0  0  0  0  0  0  0
   -7.4501    1.2312    0.3089 H   0  0  0  0  0  0  0  0  0  0  0  0
   -6.1054   -0.5527    0.8874 H   0  0  0  0  0  0  0  0  0  0  0  0
   -5.9586   -0.7615   -0.9385 H   0  0  0  0  0  0  0  0  0  0  0  0
   -3.3220   -1.5650   -0.2514 H   0  0  0  0  0  0  0  0  0  0  0  0
  1  2  1  0
  2  3  2  0
  3  4  1  0
  4  5  1  0
  5  6  1  0
  6  7  2  0
  6  8  1  0
  8  9  2  0
  9 10  1  0
 10 11  1  0
 11 12  2  0
 11 13  1  0
 13 14  2  0
 14 15  1  0
 15 16  2  0
 16 17  1  0
 17 18  1  0
 18 19  1  0
 19 20  1  0
 20 21  2  0
  4 22  2  0
 22 23  1  0
 23  2  1  0
 12  8  1  0
 21 13  1  0
 20 16  1  0
  1 24  1  0
  1 25  1  0
  5 26  1  0
  9 27  1  0
 14 28  1  0
 15 29  1  0
 18 30  1  0
 18 31  1  0
 19 32  1  0
 19 33  1  0
 21 34  1  0
M  END
$$$$
[H]N=C(OC([H])([H])[H])c1nc2c([H])c([H])c3nc([H])nc(N([H])c4c([H])c([H])c(F)c([H])c4Br)c3c2s1
     RDKit          3D

 37 40  0  0  0  0  0  0  0  0999 V2000
    4.8688    2.9882   -1.6775 C   0  0  0  0  0  0  0  0  0  0  0  0
    3.8508    1.9855   -1.6610 O   0  0  0  0  0  0  0  0  0  0  0  0
    4.1474    0.7510   -1.1486 C   0  0  0  0  0  0  0  0  0  0  0  0
    5.3378    0.3143   -1.1455 N   0  0  0  0  0  0  0  0  0  0  0  0
    3.0898   -0.1163   -0.5807 C   0  0  0  0  0  0  0  0  0  0  0  0
    3.2126   -1.3155   -0.0557 N   0  0  0  0  0  0  0  0  0  0  0  0
    2.1520   -1.9396    0.4001 C   0  0  0  0  0  0  0  0  0  0  0  0
    2.1508   -3.2158    1.0031 C   0  0  0  0  0  0  0  0  0  0  0  0
    0.9798   -3.7239    1.4447 C   0  0  0  0  0  0  0  0  0  0  0  0
   -0.2397   -3.0941    1.3563 C   0  0  0  0  0  0  0  0  0  0  0  0
   -1.3712   -3.6034    1.8179 N   0  0  0  0  0  0  0  0  0  0  0  0
   -2.5203   -2.8793    1.6973 C   0  0  0  0  0  0  0  0  0  0  0  0
   -2.5224   -1.6738    1.1235 N   0  0  0  0  0  0  0  0  0  0  0  0
   -1.3975   -1.0893    0.6257 C   0  0  0  0  0  0  0  0  0  0  0  0
   -1.5293    0.1123   -0.0821 N   0  0  0  0  0  0  0  0  0  0  0  0
   -2.6972    0.9409   -0.0813 C   0  0  0  0  0  0  0  0  0  0  0  0
   -3.6516    0.8678    0.8960 C   0  0  0  0  0  0  0  0  0  0  0  0
   -4.7558    1.7524    0.8854 C   0  0  0  0  0  0  0  0  0  0  0  0
   -4.8398    2.6776   -0.1232 C   0  0  0  0  0  0  0  0  0  0  0  0
   -5.9234    3.5178   -0.1006 F   0  0  0  0  0  0  0  0  0  0  0  0
   -3.8806    2.7569   -1.1103 C   0  0  0  0  0  0  0  0  0  0  0  0
   -2.8088    1.8979   -1.1011 C   0  0  0  0  0  0  0  0  0  0  0  0
   -1.5058    2.0097   -2.4784 Br  0  0  0  0  0  0  0  0  0  0  0  0
   -0.2603   -1.8391    0.7647 C   0  0  0  0  0  0  0  0  0  0  0  0
    0.9453   -1.2942    0.3016 C   0  0  0  0  0  0  0  0  0  0  0  0
    1.4285    0.1652   -0.4390 S   0  0  0  0  0  0  0  0  0  0  0  0
    4.4773    3.9361   -2.1230 H   0  0  0  0  0  0  0  0  0  0  0  0
    5.7603    2.6337   -2.2315 H   0  0  0  0  0  0  0  0  0  0  0  0
    5.1771    3.1316   -0.6202 H   0  0  0  0  0  0  0  0  0  0  0  0
    5.5639   -0.6073   -0.7637 H   0  0  0  0  0  0  0  0  0  0  0  0
    3.0598   -3.7881    1.1170 H   0  0  0  0  0  0  0  0  0  0  0  0
    0.9579   -4.7171    1.9184 H   0  0  0  0  0  0  0  0  0  0  0  0
   -3.4183   -3.3279    2.0861 H   0  0  0  0  0  0  0  0  0  0  0  0
   -0.7501    0.4348   -0.6886 H   0  0  0  0  0  0  0  0  0  0  0  0
   -3.6340    0.1848    1.7381 H   0  0  0  0  0  0  0  0  0  0  0  0
   -5.5059    1.6884    1.6592 H   0  0  0  0  0  0  0  0  0  0  0  0
   -3.9480    3.4780   -1.8936 H   0  0  0  0  0  0  0  0  0  0  0  0
  1  2  1  0
  2  3  1  0
  3  4  2  3
  3  5  1  0
  5  6  2  0
  6  7  1  0
  7  8  2  0
  8  9  1  0
  9 10  2  0
 10 11  1  0
 11 12  2  0
 12 13  1  0
 13 14  2  0
 14 15  1  0
 15 16  1  0
 16 17  2  0
 17 18  1  0
 18 19  2  0
 19 20  1  0
 19 21  1  0
 21 22  2  0
 22 23  1  0
 14 24  1  0
 24 25  2  0
 25 26  1  0
 26  5  1  0
 25  7  1  0
 24 10  1  0
 22 16  1  0
  1 27  1  0
  1 28  1  0
  1 29  1  0
  4 30  1  0
  8 31  1  0
  9 32  1  0
 12 33  1  0
 15 34  1  0
 17 35  1  0
 18 36  1  0
 21 37  1  0
M  END
$$$$
[H]c1c([H])c([H])c(C([H])([H])N([H])C(=O)c2c([H])c([H])c(Cl)c(N([H])C(=O)c3c([H])c4c([H])nc(OC([H])([H])[H])nc4n([H])c3=O)c2[H])c([H])c1[H]
     RDKit          3D

 51 54  0  0  0  0  0  0  0  0999 V2000
   -9.9917   -0.9187   -0.8462 C   0  0  0  0  0  0  0  0  0  0  0  0
   -9.5237    0.0177    0.0863 O   0  0  0  0  0  0  0  0  0  0  0  0
   -8.1547    0.1485    0.3320 C   0  0  0  0  0  0  0  0  0  0  0  0
   -7.7007    1.0367    1.2248 N   0  0  0  0  0  0  0  0  0  0  0  0
   -6.4240    1.2440    1.5362 C   0  0  0  0  0  0  0  0  0  0  0  0
   -5.4927    0.4714    0.8742 C   0  0  0  0  0  0  0  0  0  0  0  0
   -4.1363    0.6366    1.1082 C   0  0  0  0  0  0  0  0  0  0  0  0
   -3.2239   -0.1232    0.4165 C   0  0  0  0  0  0  0  0  0  0  0  0
   -1.7831    0.1220    0.5841 C   0  0  0  0  0  0  0  0  0  0  0  0
   -1.1749   -0.6423    1.3732 O   0  0  0  0  0  0  0  0  0  0  0  0
   -1.1668    1.1574   -0.1022 N   0  0  0  0  0  0  0  0  0  0  0  0
    0.1711    1.5778   -0.1192 C   0  0  0  0  0  0  0  0  0  0  0  0
    1.2506    0.8662    0.3674 C   0  0  0  0  0  0  0  0  0  0  0  0
    2.5628    1.3093    0.3070 C   0  0  0  0  0  0  0  0  0  0  0  0
    2.8349    2.5227   -0.2628 C   0  0  0  0  0  0  0  0  0  0  0  0
    1.7936    3.2661   -0.7620 C   0  0  0  0  0  0  0  0  0  0  0  0
    0.4956    2.8071   -0.6930 C   0  0  0  0  0  0  0  0  0  0  0  0
   -0.7954    3.8107   -1.3520 Cl  0  0  0  0  0  0  0  0  0  0  0  0
    3.6428    0.4605    0.8218 C   0  0  0  0  0  0  0  0  0  0  0  0
    4.2854    0.8710    1.8057 O   0  0  0  0  0  0  0  0  0  0  0  0
    3.9452   -0.7814    0.2213 N   0  0  0  0  0  0  0  0  0  0  0  0
    4.9471   -1.7094    0.6053 C   0  0  0  0  0  0  0  0  0  0  0  0
    6.3005   -1.4519    0.0796 C   0  0  0  0  0  0  0  0  0  0  0  0
    7.1695   -2.5581    0.1195 C   0  0  0  0  0  0  0  0  0  0  0  0
    8.4475   -2.3938   -0.3652 C   0  0  0  0  0  0  0  0  0  0  0  0
    8.8698   -1.1937   -0.8706 C   0  0  0  0  0  0  0  0  0  0  0  0
    8.0058   -0.1099   -0.9033 C   0  0  0  0  0  0  0  0  0  0  0  0
    6.7192   -0.2487   -0.4250 C   0  0  0  0  0  0  0  0  0  0  0  0
   -3.6879   -1.0337   -0.4932 C   0  0  0  0  0  0  0  0  0  0  0  0
   -2.8264   -1.7355   -1.1323 O   0  0  0  0  0  0  0  0  0  0  0  0
   -4.9977   -1.1814   -0.7079 N   0  0  0  0  0  0  0  0  0  0  0  0
   -5.9262   -0.4444   -0.0425 C   0  0  0  0  0  0  0  0  0  0  0  0
   -7.2401   -0.6010   -0.3077 N   0  0  0  0  0  0  0  0  0  0  0  0
   -9.8943   -1.9632   -0.4105 H   0  0  0  0  0  0  0  0  0  0  0  0
   -9.3444   -0.9112   -1.7458 H   0  0  0  0  0  0  0  0  0  0  0  0
  -11.0592   -0.7476   -1.1275 H   0  0  0  0  0  0  0  0  0  0  0  0
   -6.0602    1.9634    2.2589 H   0  0  0  0  0  0  0  0  0  0  0  0
   -3.8255    1.3668    1.8414 H   0  0  0  0  0  0  0  0  0  0  0  0
   -1.8255    1.7391   -0.7381 H   0  0  0  0  0  0  0  0  0  0  0  0
    1.0678   -0.0862    0.8187 H   0  0  0  0  0  0  0  0  0  0  0  0
    3.8557    2.9007   -0.3232 H   0  0  0  0  0  0  0  0  0  0  0  0
    2.0128    4.2343   -1.2095 H   0  0  0  0  0  0  0  0  0  0  0  0
    3.3340   -1.0512   -0.6251 H   0  0  0  0  0  0  0  0  0  0  0  0
    5.0631   -1.7181    1.7234 H   0  0  0  0  0  0  0  0  0  0  0  0
    4.6439   -2.7439    0.2981 H   0  0  0  0  0  0  0  0  0  0  0  0
    6.8439   -3.5235    0.5216 H   0  0  0  0  0  0  0  0  0  0  0  0
    9.1684   -3.2190   -0.3646 H   0  0  0  0  0  0  0  0  0  0  0  0
    9.8608   -0.9986   -1.2729 H   0  0  0  0  0  0  0  0  0  0  0  0
    8.2898    0.8610   -1.2907 H   0  0  0  0  0  0  0  0  0  0  0  0
    6.0058    0.5704   -0.4261 H   0  0  0  0  0  0  0  0  0  0  0  0
   -5.3323   -1.8722   -1.4006 H   0  0  0  0  0  0  0  0  0  0  0  0
  1  2  1  0
  2  3  1  0
  3  4  2  0
  4  5  1  0
  5  6  2  0
  6  7  1  0
  7  8  2  0
  8  9  1  0
  9 10  2  0
  9 11  1  0
 11 12  1  0
 12 13  2  0
 13 14  1  0
 14 15  2  0
 15 16  1  0
 16 17  2  0
 17 18  1  0
 14 19  1  0
 19 20  2  0
 19 21  1  0
 21 22  1  0
 22 23  1  0
 23 24  2  0
 24 25  1  0
 25 26  2  0
 26 27  1  0
 27 28  2  0
  8 29  1  0
 29 30  2  0
 29 31  1  0
 31 32  1  0
 32 33  2  0
 33  3  1  0
 32  6  1  0
 17 12  1  0
 28 23  1  0
  1 34  1  0
  1 35  1  0
  1 36  1  0
  5 37  1  0
  7 38  1  0
 11 39  1  0
 13 40  1  0
 15 41  1  0
 16 42  1  0
 21 43  1  0
 22 44  1  0
 22 45  1  0
 24 46  1  0
 25 47  1  0
 26 48  1  0
 27 49  1  0
 28 50  1  0
 31 51  1  0
M  END
$$$$
[H]c1sc(-c2c([H])c([H])c3c(c2[H])C([H])([H])C([H])([H])O3)nc1C(=O)N([H])c1nc2c([H])c(C#N)c([H])c([H])c2n1[H]
     RDKit          3D

 41 45  0  0  0  0  0  0  0  0999 V2000
   -1.2699    1.0006    0.4785 O   0  0  0  0  0  0  0  0  0  0  0  0
   -1.1698   -0.0784   -0.1556 C   0  0  0  0  0  0  0  0  0  0  0  0
   -2.3376   -0.7549   -0.5491 N   0  0  0  0  0  0  0  0  0  0  0  0
   -3.6375   -0.3011   -0.2783 C   0  0  0  0  0  0  0  0  0  0  0  0
   -4.7571   -0.9819   -0.6746 N   0  0  0  0  0  0  0  0  0  0  0  0
   -5.8494   -0.3400   -0.2938 C   0  0  0  0  0  0  0  0  0  0  0  0
   -7.1827   -0.6574   -0.4758 C   0  0  0  0  0  0  0  0  0  0  0  0
   -8.1451    0.1924    0.0266 C   0  0  0  0  0  0  0  0  0  0  0  0
   -7.7445    1.3305    0.6939 C   0  0  0  0  0  0  0  0  0  0  0  0
   -6.4026    1.6484    0.8762 C   0  0  0  0  0  0  0  0  0  0  0  0
   -5.4663    0.7817    0.3639 C   0  0  0  0  0  0  0  0  0  0  0  0
   -4.1150    0.7689    0.3519 N   0  0  0  0  0  0  0  0  0  0  0  0
   -9.5563   -0.0842   -0.1312 C   0  0  0  0  0  0  0  0  0  0  0  0
  -10.6830   -0.2935   -0.2415 N   0  0  0  0  0  0  0  0  0  0  0  0
    0.1628   -0.6518   -0.4967 C   0  0  0  0  0  0  0  0  0  0  0  0
    0.3006   -1.8280   -1.1880 C   0  0  0  0  0  0  0  0  0  0  0  0
    2.0009   -1.9771   -1.2811 S   0  0  0  0  0  0  0  0  0  0  0  0
    2.4201   -0.5271   -0.4307 C   0  0  0  0  0  0  0  0  0  0  0  0
    1.2515   -0.0386   -0.1400 N   0  0  0  0  0  0  0  0  0  0  0  0
    3.7726   -0.0349   -0.1460 C   0  0  0  0  0  0  0  0  0  0  0  0
    3.9515    1.1166    0.5298 C   0  0  0  0  0  0  0  0  0  0  0  0
    5.2376    1.5991    0.8091 C   0  0  0  0  0  0  0  0  0  0  0  0
    6.3360    0.8865    0.3871 C   0  0  0  0  0  0  0  0  0  0  0  0
    7.6849    1.1420    0.5329 O   0  0  0  0  0  0  0  0  0  0  0  0
    8.4293   -0.0265    0.2663 C   0  0  0  0  0  0  0  0  0  0  0  0
    7.5098   -0.8332   -0.6268 C   0  0  0  0  0  0  0  0  0  0  0  0
    6.1646   -0.2905   -0.3037 C   0  0  0  0  0  0  0  0  0  0  0  0
    4.8671   -0.7488   -0.5688 C   0  0  0  0  0  0  0  0  0  0  0  0
   -2.2347   -1.6644   -1.0837 H   0  0  0  0  0  0  0  0  0  0  0  0
   -7.5076   -1.5443   -0.9958 H   0  0  0  0  0  0  0  0  0  0  0  0
   -8.4798    2.0214    1.1022 H   0  0  0  0  0  0  0  0  0  0  0  0
   -6.1158    2.5470    1.4032 H   0  0  0  0  0  0  0  0  0  0  0  0
   -3.5538    1.5295    0.7969 H   0  0  0  0  0  0  0  0  0  0  0  0
   -0.4876   -2.4826   -1.5700 H   0  0  0  0  0  0  0  0  0  0  0  0
    3.1391    1.7256    0.8900 H   0  0  0  0  0  0  0  0  0  0  0  0
    5.3481    2.5171    1.3479 H   0  0  0  0  0  0  0  0  0  0  0  0
    9.3719    0.2140   -0.3032 H   0  0  0  0  0  0  0  0  0  0  0  0
    8.6722   -0.5685    1.2117 H   0  0  0  0  0  0  0  0  0  0  0  0
    7.7648   -0.7210   -1.7055 H   0  0  0  0  0  0  0  0  0  0  0  0
    7.5522   -1.9224   -0.3366 H   0  0  0  0  0  0  0  0  0  0  0  0
    4.7588   -1.6703   -1.1096 H   0  0  0  0  0  0  0  0  0  0  0  0
  1  2  2  0
  2  3  1  0
  3  4  1  0
  4  5  2  0
  5  6  1  0
  6  7  2  0
  7  8  1  0
  8  9  2  0
  9 10  1  0
 10 11  2  0
 11 12  1  0
  8 13  1  0
 13 14  3  0
  2 15  1  0
 15 16  2  0
 16 17  1  0
 17 18  1  0
 18 19  2  0
 18 20  1  0
 20 21  2  0
 21 22  1  0
 22 23  2  0
 23 24  1  0
 24 25  1  0
 25 26  1  0
 26 27  1  0
 27 28  2  0
 12  4  1  0
 19 15  1  0
 28 20  1  0
 11  6  1  0
 27 23  1  0
  3 29  1  0
  7 30  1  0
  9 31  1  0
 10 32  1  0
 12 33  1  0
 16 34  1  0
 21 35  1  0
 22 36  1  0
 25 37  1  0
 25 38  1  0
 26 39  1  0
 26 40  1  0
 28 41  1  0
M  END
$$$$
[H]Oc1c([H])c([H])c(-c2c([H])n([H])c3nc([H])c(-c4c([H])c([H])c(N([H])C(=O)N([H])[H])c([H])c4[H])c([H])c23)c([H])c1[H]
     RDKit          3D

 42 45  0  0  0  0  0  0  0  0999 V2000
    6.7356    2.4828    2.8830 N   0  0  0  0  0  0  0  0  0  0  0  0
    5.5242    2.2140    2.1766 C   0  0  0  0  0  0  0  0  0  0  0  0
    4.8092    3.1889    1.8963 O   0  0  0  0  0  0  0  0  0  0  0  0
    5.1857    0.8999    1.8300 N   0  0  0  0  0  0  0  0  0  0  0  0
    4.0438    0.4431    1.1422 C   0  0  0  0  0  0  0  0  0  0  0  0
    4.0079   -0.9065    0.7973 C   0  0  0  0  0  0  0  0  0  0  0  0
    2.9384   -1.4508    0.1313 C   0  0  0  0  0  0  0  0  0  0  0  0
    1.8442   -0.6924   -0.2313 C   0  0  0  0  0  0  0  0  0  0  0  0
    1.8959    0.6318    0.1155 C   0  0  0  0  0  0  0  0  0  0  0  0
    2.9647    1.1900    0.7846 C   0  0  0  0  0  0  0  0  0  0  0  0
    0.7327   -1.3148   -0.9380 C   0  0  0  0  0  0  0  0  0  0  0  0
    0.9083   -2.3691   -1.8105 C   0  0  0  0  0  0  0  0  0  0  0  0
   -0.1292   -2.9356   -2.4574 N   0  0  0  0  0  0  0  0  0  0  0  0
   -1.4031   -2.5125   -2.2968 C   0  0  0  0  0  0  0  0  0  0  0  0
   -2.5909   -2.8860   -2.7998 N   0  0  0  0  0  0  0  0  0  0  0  0
   -3.5619   -2.1115   -2.2899 C   0  0  0  0  0  0  0  0  0  0  0  0
   -3.0018   -1.1866   -1.4144 C   0  0  0  0  0  0  0  0  0  0  0  0
   -3.6276   -0.1392   -0.6266 C   0  0  0  0  0  0  0  0  0  0  0  0
   -3.1242    1.1421   -0.6119 C   0  0  0  0  0  0  0  0  0  0  0  0
   -3.7759    2.0770    0.1692 C   0  0  0  0  0  0  0  0  0  0  0  0
   -4.8857    1.7900    0.9192 C   0  0  0  0  0  0  0  0  0  0  0  0
   -5.5242    2.7485    1.6975 O   0  0  0  0  0  0  0  0  0  0  0  0
   -5.3711    0.4974    0.8870 C   0  0  0  0  0  0  0  0  0  0  0  0
   -4.7488   -0.4480    0.1252 C   0  0  0  0  0  0  0  0  0  0  0  0
   -1.6497   -1.4453   -1.4250 C   0  0  0  0  0  0  0  0  0  0  0  0
   -0.5733   -0.8764   -0.7696 C   0  0  0  0  0  0  0  0  0  0  0  0
    7.4795    3.0728    2.4867 H   0  0  0  0  0  0  0  0  0  0  0  0
    6.8587    2.0618    3.8306 H   0  0  0  0  0  0  0  0  0  0  0  0
    5.8892    0.1567    2.1340 H   0  0  0  0  0  0  0  0  0  0  0  0
    4.8392   -1.5456    1.0568 H   0  0  0  0  0  0  0  0  0  0  0  0
    2.9285   -2.5126   -0.1314 H   0  0  0  0  0  0  0  0  0  0  0  0
    1.0372    1.2474   -0.1644 H   0  0  0  0  0  0  0  0  0  0  0  0
    2.9248    2.2388    1.0242 H   0  0  0  0  0  0  0  0  0  0  0  0
    1.9165   -2.7365   -1.9657 H   0  0  0  0  0  0  0  0  0  0  0  0
   -2.7583   -3.6511   -3.4786 H   0  0  0  0  0  0  0  0  0  0  0  0
   -4.6308   -2.1341   -2.4745 H   0  0  0  0  0  0  0  0  0  0  0  0
   -2.2363    1.4244   -1.2010 H   0  0  0  0  0  0  0  0  0  0  0  0
   -3.3890    3.1047    0.1941 H   0  0  0  0  0  0  0  0  0  0  0  0
   -6.3288    2.5103    2.2321 H   0  0  0  0  0  0  0  0  0  0  0  0
   -6.2413    0.2459    1.4674 H   0  0  0  0  0  0  0  0  0  0  0  0
   -5.1714   -1.4622    0.1313 H   0  0  0  0  0  0  0  0  0  0  0  0
   -0.7408   -0.0511   -0.0869 H   0  0  0  0  0  0  0  0  0  0  0  0
  1  2  1  0
  2  3  2  0
  2  4  1  0
  4  5  1  0
  5  6  2  0
  6  7  1  0
  7  8  2  0
  8  9  1  0
  9 10  2  0
  8 11  1  0
 11 12  2  0
 12 13  1  0
 13 14  2  0
 14 15  1  0
 15 16  1  0
 16 17  2  0
 17 18  1  0
 18 19  2  0
 19 20  1  0
 20 21  2  0
 21 22  1  0
 21 23  1  0
 23 24  2  0
 17 25  1  0
 25 26  2  0
 10  5  1  0
 26 11  1  0
 25 14  1  0
 24 18  1  0
  1 27  1  0
  1 28  1  0
  4 29  1  0
  6 30  1  0
  7 31  1  0
  9 32  1  0
 10 33  1  0
 12 34  1  0
 15 35  1  0
 16 36  1  0
 19 37  1  0
 20 38  1  0
 22 39  1  0
 23 40  1  0
 24 41  1  0
 26 42  1  0
M  END
$$$$
[H]N=C(OC([H])([H])[H])c1nc2c([H])c([H])c3nc([H])nc(N([H])c4c([H])c([H])c([H])c(Cl)c4[H])c3c2s1
     RDKit          3D

 37 40  0  0  0  0  0  0  0  0999 V2000
    6.4980    1.9830    0.1046 C   0  0  0  0  0  0  0  0  0  0  0  0
    5.4452    1.0500   -0.1193 O   0  0  0  0  0  0  0  0  0  0  0  0
    4.1394    1.4028   -0.2339 C   0  0  0  0  0  0  0  0  0  0  0  0
    3.8027    2.5928   -0.5042 N   0  0  0  0  0  0  0  0  0  0  0  0
    3.1004    0.3690   -0.0367 C   0  0  0  0  0  0  0  0  0  0  0  0
    3.2159   -0.9007    0.2446 N   0  0  0  0  0  0  0  0  0  0  0  0
    2.1595   -1.6546    0.3823 C   0  0  0  0  0  0  0  0  0  0  0  0
    2.1808   -3.0347    0.6789 C   0  0  0  0  0  0  0  0  0  0  0  0
    0.9870   -3.6926    0.7860 C   0  0  0  0  0  0  0  0  0  0  0  0
   -0.2469   -3.1107    0.6264 C   0  0  0  0  0  0  0  0  0  0  0  0
   -1.3945   -3.7615    0.7261 N   0  0  0  0  0  0  0  0  0  0  0  0
   -2.5636   -3.0835    0.5411 C   0  0  0  0  0  0  0  0  0  0  0  0
   -2.5840   -1.7879    0.2640 N   0  0  0  0  0  0  0  0  0  0  0  0
   -1.4445   -1.0439    0.1446 C   0  0  0  0  0  0  0  0  0  0  0  0
   -1.5196    0.3317   -0.0880 N   0  0  0  0  0  0  0  0  0  0  0  0
   -2.8064    0.9384   -0.3387 C   0  0  0  0  0  0  0  0  0  0  0  0
   -3.7138    0.2971   -1.1171 C   0  0  0  0  0  0  0  0  0  0  0  0
   -4.9760    0.8613   -1.3390 C   0  0  0  0  0  0  0  0  0  0  0  0
   -5.2995    2.0636   -0.7722 C   0  0  0  0  0  0  0  0  0  0  0  0
   -4.3512    2.6879    0.0127 C   0  0  0  0  0  0  0  0  0  0  0  0
   -4.7821    4.2215    0.7268 Cl  0  0  0  0  0  0  0  0  0  0  0  0
   -3.1134    2.1593    0.2456 C   0  0  0  0  0  0  0  0  0  0  0  0
   -0.2847   -1.7401    0.3321 C   0  0  0  0  0  0  0  0  0  0  0  0
    0.9317   -1.0585    0.2199 C   0  0  0  0  0  0  0  0  0  0  0  0
    1.4130    0.5468   -0.1198 S   0  0  0  0  0  0  0  0  0  0  0  0
    6.5750    2.7322   -0.6944 H   0  0  0  0  0  0  0  0  0  0  0  0
    6.4209    2.4633    1.1026 H   0  0  0  0  0  0  0  0  0  0  0  0
    7.4324    1.3843    0.1164 H   0  0  0  0  0  0  0  0  0  0  0  0
    2.8229    2.9160   -0.6030 H   0  0  0  0  0  0  0  0  0  0  0  0
    3.1075   -3.5748    0.8210 H   0  0  0  0  0  0  0  0  0  0  0  0
    0.9858   -4.7704    1.0169 H   0  0  0  0  0  0  0  0  0  0  0  0
   -3.5216   -3.6174    0.6219 H   0  0  0  0  0  0  0  0  0  0  0  0
   -0.7640    0.9803   -0.0903 H   0  0  0  0  0  0  0  0  0  0  0  0
   -3.5395   -0.6354   -1.6232 H   0  0  0  0  0  0  0  0  0  0  0  0
   -5.6880    0.3361   -1.9616 H   0  0  0  0  0  0  0  0  0  0  0  0
   -6.2750    2.5091   -0.9381 H   0  0  0  0  0  0  0  0  0  0  0  0
   -2.3496    2.6403    0.8649 H   0  0  0  0  0  0  0  0  0  0  0  0
  1  2  1  0
  2  3  1  0
  3  4  2  3
  3  5  1  0
  5  6  2  0
  6  7  1  0
  7  8  2  0
  8  9  1  0
  9 10  2  0
 10 11  1  0
 11 12  2  0
 12 13  1  0
 13 14  2  0
 14 15  1  0
 15 16  1  0
 16 17  2  0
 17 18  1  0
 18 19  2  0
 19 20  1  0
 20 21  1  0
 20 22  2  0
 14 23  1  0
 23 24  2  0
 24 25  1  0
 25  5  1  0
 24  7  1  0
 23 10  1  0
 22 16  1  0
  1 26  1  0
  1 27  1  0
  1 28  1  0
  4 29  1  0
  8 30  1  0
  9 31  1  0
 12 32  1  0
 15 33  1  0
 17 34  1  0
 18 35  1  0
 19 36  1  0
 22 37  1  0
M  END
$$$$
[H]c1sc(-c2c([H])c([H])c3c(c2[H])C([H])([H])C([H])([H])O3)nc1C(=O)N([H])c1nc2c([H])c(C(=O)c3c([H])c([H])c([H])c([H])c3[H])c([H])c([H])c2n1[H]
     RDKit          3D

 52 57  0  0  0  0  0  0  0  0999 V2000
    2.5496    1.9961   -4.0662 O   0  0  0  0  0  0  0  0  0  0  0  0
    1.6676    1.3712   -3.3030 C   0  0  0  0  0  0  0  0  0  0  0  0
    0.3904    1.8230   -3.4524 N   0  0  0  0  0  0  0  0  0  0  0  0
   -0.7643    1.4653   -2.7079 C   0  0  0  0  0  0  0  0  0  0  0  0
   -0.9491    0.6366   -1.6775 N   0  0  0  0  0  0  0  0  0  0  0  0
   -2.2186    0.5811   -1.2748 C   0  0  0  0  0  0  0  0  0  0  0  0
   -2.9293   -0.0921   -0.2970 C   0  0  0  0  0  0  0  0  0  0  0  0
   -4.2865    0.0310   -0.0910 C   0  0  0  0  0  0  0  0  0  0  0  0
   -4.9552    0.9036   -0.9466 C   0  0  0  0  0  0  0  0  0  0  0  0
   -4.2799    1.5923   -1.9325 C   0  0  0  0  0  0  0  0  0  0  0  0
   -2.9094    1.4392   -2.1072 C   0  0  0  0  0  0  0  0  0  0  0  0
   -2.0268    1.9598   -2.9574 N   0  0  0  0  0  0  0  0  0  0  0  0
   -4.9943   -0.7189    0.9322 C   0  0  0  0  0  0  0  0  0  0  0  0
   -4.5014   -1.8685    1.2444 O   0  0  0  0  0  0  0  0  0  0  0  0
   -6.1767   -0.2679    1.5949 C   0  0  0  0  0  0  0  0  0  0  0  0
   -6.4929    1.0562    1.7477 C   0  0  0  0  0  0  0  0  0  0  0  0
   -7.6709    1.4740    2.3692 C   0  0  0  0  0  0  0  0  0  0  0  0
   -8.5378    0.5132    2.8427 C   0  0  0  0  0  0  0  0  0  0  0  0
   -8.2081   -0.8140    2.6838 C   0  0  0  0  0  0  0  0  0  0  0  0
   -7.0538   -1.2498    2.0745 C   0  0  0  0  0  0  0  0  0  0  0  0
    2.2536    0.3178   -2.4483 C   0  0  0  0  0  0  0  0  0  0  0  0
    1.6956   -0.9127   -2.2237 C   0  0  0  0  0  0  0  0  0  0  0  0
    2.8114   -1.6167   -1.1241 S   0  0  0  0  0  0  0  0  0  0  0  0
    3.9085   -0.3214   -1.0192 C   0  0  0  0  0  0  0  0  0  0  0  0
    3.3777    0.5704   -1.8139 N   0  0  0  0  0  0  0  0  0  0  0  0
    5.1484   -0.2540   -0.2243 C   0  0  0  0  0  0  0  0  0  0  0  0
    5.9259    0.8499   -0.2617 C   0  0  0  0  0  0  0  0  0  0  0  0
    7.1037    0.8826    0.4984 C   0  0  0  0  0  0  0  0  0  0  0  0
    7.4972   -0.1764    1.2849 C   0  0  0  0  0  0  0  0  0  0  0  0
    8.6043   -0.4078    2.1279 O   0  0  0  0  0  0  0  0  0  0  0  0
    8.7820   -1.8351    2.2004 C   0  0  0  0  0  0  0  0  0  0  0  0
    7.3313   -2.2622    2.2243 C   0  0  0  0  0  0  0  0  0  0  0  0
    6.6924   -1.2907    1.3099 C   0  0  0  0  0  0  0  0  0  0  0  0
    5.5129   -1.3295    0.5518 C   0  0  0  0  0  0  0  0  0  0  0  0
    0.2040    2.6261   -4.1802 H   0  0  0  0  0  0  0  0  0  0  0  0
   -2.3916   -0.7608    0.3564 H   0  0  0  0  0  0  0  0  0  0  0  0
   -6.0177    1.0576   -0.8642 H   0  0  0  0  0  0  0  0  0  0  0  0
   -4.7802    2.2838   -2.6176 H   0  0  0  0  0  0  0  0  0  0  0  0
   -2.2728    2.6417   -3.7002 H   0  0  0  0  0  0  0  0  0  0  0  0
   -5.7832    1.7921    1.3759 H   0  0  0  0  0  0  0  0  0  0  0  0
   -7.8705    2.5470    2.4619 H   0  0  0  0  0  0  0  0  0  0  0  0
   -9.4545    0.8044    3.3249 H   0  0  0  0  0  0  0  0  0  0  0  0
   -8.9086   -1.5408    3.0660 H   0  0  0  0  0  0  0  0  0  0  0  0
   -6.7951   -2.2884    1.9486 H   0  0  0  0  0  0  0  0  0  0  0  0
    0.7814   -1.3726   -2.6542 H   0  0  0  0  0  0  0  0  0  0  0  0
    5.6315    1.6843   -0.8708 H   0  0  0  0  0  0  0  0  0  0  0  0
    7.7307    1.7646    0.4713 H   0  0  0  0  0  0  0  0  0  0  0  0
    9.3371   -2.1272    3.1083 H   0  0  0  0  0  0  0  0  0  0  0  0
    9.2729   -2.1259    1.2639 H   0  0  0  0  0  0  0  0  0  0  0  0
    6.9436   -2.1246    3.2677 H   0  0  0  0  0  0  0  0  0  0  0  0
    7.1836   -3.3119    1.9020 H   0  0  0  0  0  0  0  0  0  0  0  0
    4.8917   -2.2119    0.5819 H   0  0  0  0  0  0  0  0  0  0  0  0
  1  2  2  0
  2  3  1  0
  3  4  1  0
  4  5  2  0
  5  6  1  0
  6  7  2  0
  7  8  1  0
  8  9  2  0
  9 10  1  0
 10 11  2  0
 11 12  1  0
  8 13  1  0
 13 14  2  0
 13 15  1  0
 15 16  2  0
 16 17  1  0
 17 18  2  0
 18 19  1  0
 19 20  2  0
  2 21  1  0
 21 22  2  0
 22 23  1  0
 23 24  1  0
 24 25  2  0
 24 26  1  0
 26 27  2  0
 27 28  1  0
 28 29  2  0
 29 30  1  0
 30 31  1  0
 31 32  1  0
 32 33  1  0
 33 34  2  0
 12  4  1  0
 20 15  1  0
 25 21  1  0
 34 26  1  0
 11  6  1  0
 33 29  1  0
  3 35  1  0
  7 36  1  0
  9 37  1  0
 10 38  1  0
 12 39  1  0
 16 40  1  0
 17 41  1  0
 18 42  1  0
 19 43  1  0
 20 44  1  0
 22 45  1  0
 27 46  1  0
 28 47  1  0
 31 48  1  0
 31 49  1  0
 32 50  1  0
 32 51  1  0
 34 52  1  0
M  END
$$$$
[H]c1c([H])c([H])c(C([H])(N([H])C(=O)c2c([H])c([H])c(Cl)c(N([H])C(=O)c3c([H])c4c([H])nc(N([H])C([H])([H])C([H])([H])N5C([H])([H])C([H])([H])N(C([H])([H])[H])C([H])([H])C5([H])[H])nc4n([H])c3=O)c2[H])C([H])([H])C([H])([H])N([H])[H])c([H])c1[H]
     RDKit          3D

 80 84  0  0  0  0  0  0  0  0999 V2000
   11.5716    0.3808   -1.8718 C   0  0  0  0  0  0  0  0  0  0  0  0
   10.7874   -0.8132   -1.7638 N   0  0  0  0  0  0  0  0  0  0  0  0
   10.9868   -1.5409   -0.5358 C   0  0  0  0  0  0  0  0  0  0  0  0
   10.1311   -1.0392    0.5894 C   0  0  0  0  0  0  0  0  0  0  0  0
    8.7582   -1.0483    0.1680 N   0  0  0  0  0  0  0  0  0  0  0  0
    7.7933   -0.9539    1.2166 C   0  0  0  0  0  0  0  0  0  0  0  0
    7.7918    0.3978    1.9239 C   0  0  0  0  0  0  0  0  0  0  0  0
    6.7940    0.3986    2.9512 N   0  0  0  0  0  0  0  0  0  0  0  0
    5.3963    0.3755    2.7307 C   0  0  0  0  0  0  0  0  0  0  0  0
    4.5039    0.3522    3.7382 N   0  0  0  0  0  0  0  0  0  0  0  0
    3.1804    0.3497    3.5199 C   0  0  0  0  0  0  0  0  0  0  0  0
    2.6745    0.3724    2.2149 C   0  0  0  0  0  0  0  0  0  0  0  0
    1.3255    0.3737    1.9643 C   0  0  0  0  0  0  0  0  0  0  0  0
    0.8616    0.4009    0.6506 C   0  0  0  0  0  0  0  0  0  0  0  0
   -0.5891    0.4375    0.3933 C   0  0  0  0  0  0  0  0  0  0  0  0
   -1.2800   -0.0976    1.3199 O   0  0  0  0  0  0  0  0  0  0  0  0
   -1.1776    1.0021   -0.7526 N   0  0  0  0  0  0  0  0  0  0  0  0
   -2.5581    1.0308   -1.0420 C   0  0  0  0  0  0  0  0  0  0  0  0
   -3.5584    0.3939   -0.3800 C   0  0  0  0  0  0  0  0  0  0  0  0
   -4.9155    0.4365   -0.7470 C   0  0  0  0  0  0  0  0  0  0  0  0
   -5.1988    1.1902   -1.8615 C   0  0  0  0  0  0  0  0  0  0  0  0
   -4.2452    1.8554   -2.5732 C   0  0  0  0  0  0  0  0  0  0  0  0
   -2.9363    1.7819   -2.1751 C   0  0  0  0  0  0  0  0  0  0  0  0
   -1.7008    2.6469   -3.0949 Cl  0  0  0  0  0  0  0  0  0  0  0  0
   -5.8807   -0.2940    0.0279 C   0  0  0  0  0  0  0  0  0  0  0  0
   -5.4957   -0.9483    1.0205 O   0  0  0  0  0  0  0  0  0  0  0  0
   -7.2312   -0.2883   -0.3054 N   0  0  0  0  0  0  0  0  0  0  0  0
   -8.2694   -0.9969    0.4139 C   0  0  0  0  0  0  0  0  0  0  0  0
   -8.6625   -2.1310   -0.4991 C   0  0  0  0  0  0  0  0  0  0  0  0
   -9.1462   -1.7088   -1.8524 C   0  0  0  0  0  0  0  0  0  0  0  0
  -10.2732   -0.8781   -1.9318 N   0  0  0  0  0  0  0  0  0  0  0  0
   -9.3234   -0.2079    0.9909 C   0  0  0  0  0  0  0  0  0  0  0  0
   -9.0416    1.0844    1.4040 C   0  0  0  0  0  0  0  0  0  0  0  0
  -10.0426    1.8383    1.9962 C   0  0  0  0  0  0  0  0  0  0  0  0
  -11.3250    1.3582    2.1975 C   0  0  0  0  0  0  0  0  0  0  0  0
  -11.6067    0.0898    1.7937 C   0  0  0  0  0  0  0  0  0  0  0  0
  -10.6174   -0.6611    1.2064 C   0  0  0  0  0  0  0  0  0  0  0  0
    1.8073    0.4251   -0.3392 C   0  0  0  0  0  0  0  0  0  0  0  0
    1.5131    0.4474   -1.5553 O   0  0  0  0  0  0  0  0  0  0  0  0
    3.1409    0.4229   -0.0479 N   0  0  0  0  0  0  0  0  0  0  0  0
    3.6029    0.3967    1.2087 C   0  0  0  0  0  0  0  0  0  0  0  0
    4.9146    0.3970    1.4948 N   0  0  0  0  0  0  0  0  0  0  0  0
    8.5949   -0.0900   -0.8952 C   0  0  0  0  0  0  0  0  0  0  0  0
    9.3981   -0.6156   -2.0820 C   0  0  0  0  0  0  0  0  0  0  0  0
   11.0615    1.1506   -2.4986 H   0  0  0  0  0  0  0  0  0  0  0  0
   12.5099    0.1287   -2.4070 H   0  0  0  0  0  0  0  0  0  0  0  0
   11.8784    0.7952   -0.8872 H   0  0  0  0  0  0  0  0  0  0  0  0
   12.0694   -1.3897   -0.2602 H   0  0  0  0  0  0  0  0  0  0  0  0
   10.8264   -2.6223   -0.7076 H   0  0  0  0  0  0  0  0  0  0  0  0
   10.4337    0.0263    0.7913 H   0  0  0  0  0  0  0  0  0  0  0  0
   10.3273   -1.6427    1.4819 H   0  0  0  0  0  0  0  0  0  0  0  0
    6.8053   -1.1183    0.7757 H   0  0  0  0  0  0  0  0  0  0  0  0
    8.0261   -1.7626    1.9471 H   0  0  0  0  0  0  0  0  0  0  0  0
    8.7797    0.6334    2.3182 H   0  0  0  0  0  0  0  0  0  0  0  0
    7.5172    1.1507    1.1439 H   0  0  0  0  0  0  0  0  0  0  0  0
    7.1126    0.4205    3.9658 H   0  0  0  0  0  0  0  0  0  0  0  0
    2.4446    0.3311    4.3152 H   0  0  0  0  0  0  0  0  0  0  0  0
    0.6088    0.3536    2.7842 H   0  0  0  0  0  0  0  0  0  0  0  0
   -0.5197    1.4537   -1.4427 H   0  0  0  0  0  0  0  0  0  0  0  0
   -3.3296   -0.2004    0.4872 H   0  0  0  0  0  0  0  0  0  0  0  0
   -6.2182    1.2741   -2.2125 H   0  0  0  0  0  0  0  0  0  0  0  0
   -4.4613    2.4545   -3.4552 H   0  0  0  0  0  0  0  0  0  0  0  0
   -7.5609    0.2566   -1.1291 H   0  0  0  0  0  0  0  0  0  0  0  0
   -7.7183   -1.5060    1.2667 H   0  0  0  0  0  0  0  0  0  0  0  0
   -7.7283   -2.7181   -0.6691 H   0  0  0  0  0  0  0  0  0  0  0  0
   -9.3583   -2.8471   -0.0026 H   0  0  0  0  0  0  0  0  0  0  0  0
   -9.4025   -2.6740   -2.3887 H   0  0  0  0  0  0  0  0  0  0  0  0
   -8.2998   -1.2136   -2.3757 H   0  0  0  0  0  0  0  0  0  0  0  0
  -10.2022   -0.0111   -2.4741 H   0  0  0  0  0  0  0  0  0  0  0  0
  -11.2007   -1.2894   -1.8439 H   0  0  0  0  0  0  0  0  0  0  0  0
   -8.0778    1.5614    1.2985 H   0  0  0  0  0  0  0  0  0  0  0  0
   -9.8564    2.8528    2.3308 H   0  0  0  0  0  0  0  0  0  0  0  0
  -12.0900    1.9594    2.6596 H   0  0  0  0  0  0  0  0  0  0  0  0
  -12.5903   -0.3299    1.9287 H   0  0  0  0  0  0  0  0  0  0  0  0
  -10.8758   -1.6601    0.9098 H   0  0  0  0  0  0  0  0  0  0  0  0
    3.8442    0.4434   -0.8295 H   0  0  0  0  0  0  0  0  0  0  0  0
    9.0022    0.9139   -0.6621 H   0  0  0  0  0  0  0  0  0  0  0  0
    7.5359   -0.0747   -1.2305 H   0  0  0  0  0  0  0  0  0  0  0  0
    9.3244    0.1583   -2.8734 H   0  0  0  0  0  0  0  0  0  0  0  0
    8.9299   -1.5814   -2.3950 H   0  0  0  0  0  0  0  0  0  0  0  0
  1  2  1  0
  2  3  1  0
  3  4  1  0
  4  5  1  0
  5  6  1  0
  6  7  1  0
  7  8  1  0
  8  9  1  0
  9 10  2  0
 10 11  1  0
 11 12  2  0
 12 13  1  0
 13 14  2  0
 14 15  1  0
 15 16  2  0
 15 17  1  0
 17 18  1  0
 18 19  2  0
 19 20  1  0
 20 21  2  0
 21 22  1  0
 22 23  2  0
 23 24  1  0
 20 25  1  0
 25 26  2  0
 25 27  1  0
 27 28  1  0
 28 29  1  0
 29 30  1  0
 30 31  1  0
 28 32  1  0
 32 33  2  0
 33 34  1  0
 34 35  2  0
 35 36  1  0
 36 37  2  0
 14 38  1  0
 38 39  2  0
 38 40  1  0
 40 41  1  0
 41 42  2  0
  5 43  1  0
 43 44  1  0
 44  2  1  0
 42  9  1  0
 41 12  1  0
 23 18  1  0
 37 32  1  0
  1 45  1  0
  1 46  1  0
  1 47  1  0
  3 48  1  0
  3 49  1  0
  4 50  1  0
  4 51  1  0
  6 52  1  0
  6 53  1  0
  7 54  1  0
  7 55  1  0
  8 56  1  0
 11 57  1  0
 13 58  1  0
 17 59  1  0
 19 60  1  0
 21 61  1  0
 22 62  1  0
 27 63  1  0
 28 64  1  0
 29 65  1  0
 29 66  1  0
 30 67  1  0
 30 68  1  0
 31 69  1  0
 31 70  1  0
 33 71  1  0
 34 72  1  0
 35 73  1  0
 36 74  1  0
 37 75  1  0
 40 76  1  0
 43 77  1  0
 43 78  1  0
 44 79  1  0
 44 80  1  0
M  END
$$$$
[H]N=C(OC([H])([H])[H])c1nc2c([H])c([H])c3nc([H])nc(N([H])c4c([H])c([H])c(Cl)c([H])c4Cl)c3c2s1
     RDKit          3D

 37 40  0  0  0  0  0  0  0  0999 V2000
    4.6254    2.5984   -2.6413 C   0  0  0  0  0  0  0  0  0  0  0  0
    3.5508    1.7046   -2.3141 O   0  0  0  0  0  0  0  0  0  0  0  0
    3.8131    0.3920   -1.9993 C   0  0  0  0  0  0  0  0  0  0  0  0
    4.9169   -0.1778   -2.3213 N   0  0  0  0  0  0  0  0  0  0  0  0
    2.8194   -0.4289   -1.2658 C   0  0  0  0  0  0  0  0  0  0  0  0
    2.9034   -1.6865   -0.8865 N   0  0  0  0  0  0  0  0  0  0  0  0
    1.9130   -2.2442   -0.2444 C   0  0  0  0  0  0  0  0  0  0  0  0
    1.8899   -3.5745    0.2315 C   0  0  0  0  0  0  0  0  0  0  0  0
    0.7955   -4.0046    0.8998 C   0  0  0  0  0  0  0  0  0  0  0  0
   -0.3175   -3.2437    1.1599 C   0  0  0  0  0  0  0  0  0  0  0  0
   -1.3775   -3.6847    1.8427 N   0  0  0  0  0  0  0  0  0  0  0  0
   -2.4231   -2.8320    2.0634 C   0  0  0  0  0  0  0  0  0  0  0  0
   -2.3980   -1.5782    1.6082 N   0  0  0  0  0  0  0  0  0  0  0  0
   -1.3602   -1.0717    0.9117 C   0  0  0  0  0  0  0  0  0  0  0  0
   -1.4853    0.2145    0.3616 N   0  0  0  0  0  0  0  0  0  0  0  0
   -2.4971    1.1715    0.6833 C   0  0  0  0  0  0  0  0  0  0  0  0
   -3.2517    1.0807    1.8185 C   0  0  0  0  0  0  0  0  0  0  0  0
   -4.1900    2.1066    2.0867 C   0  0  0  0  0  0  0  0  0  0  0  0
   -4.3414    3.1644    1.2362 C   0  0  0  0  0  0  0  0  0  0  0  0
   -5.5279    4.4094    1.6280 Cl  0  0  0  0  0  0  0  0  0  0  0  0
   -3.5855    3.2688    0.0876 C   0  0  0  0  0  0  0  0  0  0  0  0
   -2.6762    2.2700   -0.1691 C   0  0  0  0  0  0  0  0  0  0  0  0
   -1.7072    2.3481   -1.6148 Cl  0  0  0  0  0  0  0  0  0  0  0  0
   -0.3203   -1.9382    0.7024 C   0  0  0  0  0  0  0  0  0  0  0  0
    0.8042   -1.4720    0.0091 C   0  0  0  0  0  0  0  0  0  0  0  0
    1.2842    0.0035   -0.7017 S   0  0  0  0  0  0  0  0  0  0  0  0
    4.1957    3.5837   -2.8567 H   0  0  0  0  0  0  0  0  0  0  0  0
    5.2114    2.1982   -3.5042 H   0  0  0  0  0  0  0  0  0  0  0  0
    5.3412    2.6744   -1.7995 H   0  0  0  0  0  0  0  0  0  0  0  0
    5.6627    0.3074   -2.8282 H   0  0  0  0  0  0  0  0  0  0  0  0
    2.7189   -4.2437    0.0731 H   0  0  0  0  0  0  0  0  0  0  0  0
    0.7610   -5.0354    1.2773 H   0  0  0  0  0  0  0  0  0  0  0  0
   -3.2620   -3.2357    2.6246 H   0  0  0  0  0  0  0  0  0  0  0  0
   -0.8069    0.4965   -0.3723 H   0  0  0  0  0  0  0  0  0  0  0  0
   -3.1935    0.3060    2.5670 H   0  0  0  0  0  0  0  0  0  0  0  0
   -4.8056    2.0674    2.9757 H   0  0  0  0  0  0  0  0  0  0  0  0
   -3.6799    4.0860   -0.5995 H   0  0  0  0  0  0  0  0  0  0  0  0
  1  2  1  0
  2  3  1  0
  3  4  2  3
  3  5  1  0
  5  6  2  0
  6  7  1  0
  7  8  2  0
  8  9  1  0
  9 10  2  0
 10 11  1  0
 11 12  2  0
 12 13  1  0
 13 14  2  0
 14 15  1  0
 15 16  1  0
 16 17  2  0
 17 18  1  0
 18 19  2  0
 19 20  1  0
 19 21  1  0
 21 22  2  0
 22 23  1  0
 14 24  1  0
 24 25  2  0
 25 26  1  0
 26  5  1  0
 25  7  1  0
 24 10  1  0
 22 16  1  0
  1 27  1  0
  1 28  1  0
  1 29  1  0
  4 30  1  0
  8 31  1  0
  9 32  1  0
 12 33  1  0
 15 34  1  0
 17 35  1  0
 18 36  1  0
 21 37  1  0
M  END
$$$$
[H]c1sc(-c2c([H])c([H])c3c(c2[H])C([H])([H])C([H])([H])O3)nc1C(=O)N([H])c1nc2c([H])c(C(=O)N3C([H])([H])C([H])([H])C([H])([H])C3([H])[H])c([H])c([H])c2n1[H]
     RDKit          3D

 54 59  0  0  0  0  0  0  0  0999 V2000
   -1.2663    0.0928    3.7599 O   0  0  0  0  0  0  0  0  0  0  0  0
   -1.8871    0.0903    2.6862 C   0  0  0  0  0  0  0  0  0  0  0  0
   -1.2484    0.0590    1.4290 N   0  0  0  0  0  0  0  0  0  0  0  0
    0.1449    0.0282    1.3002 C   0  0  0  0  0  0  0  0  0  0  0  0
    0.7451   -0.0020    0.0667 N   0  0  0  0  0  0  0  0  0  0  0  0
    2.0672   -0.0275    0.2058 C   0  0  0  0  0  0  0  0  0  0  0  0
    3.0840   -0.0617   -0.6959 C   0  0  0  0  0  0  0  0  0  0  0  0
    4.4287   -0.0835   -0.2631 C   0  0  0  0  0  0  0  0  0  0  0  0
    4.6334   -0.0683    1.0832 C   0  0  0  0  0  0  0  0  0  0  0  0
    3.5864   -0.0334    1.9981 C   0  0  0  0  0  0  0  0  0  0  0  0
    2.3054   -0.0132    1.5534 C   0  0  0  0  0  0  0  0  0  0  0  0
    1.1250    0.0208    2.2083 N   0  0  0  0  0  0  0  0  0  0  0  0
    5.4963   -0.1133   -1.2298 C   0  0  0  0  0  0  0  0  0  0  0  0
    5.0956   -0.0901   -2.4690 O   0  0  0  0  0  0  0  0  0  0  0  0
    6.8791   -0.1629   -1.0159 N   0  0  0  0  0  0  0  0  0  0  0  0
    7.7822   -0.1766   -2.2154 C   0  0  0  0  0  0  0  0  0  0  0  0
    9.0423    0.4838   -1.6841 C   0  0  0  0  0  0  0  0  0  0  0  0
    9.1356   -0.2167   -0.3493 C   0  0  0  0  0  0  0  0  0  0  0  0
    7.7155   -0.2135    0.1414 C   0  0  0  0  0  0  0  0  0  0  0  0
   -3.3785    0.1223    2.7572 C   0  0  0  0  0  0  0  0  0  0  0  0
   -4.0351    0.1533    3.9629 C   0  0  0  0  0  0  0  0  0  0  0  0
   -5.6751    0.1802    3.4647 S   0  0  0  0  0  0  0  0  0  0  0  0
   -5.4180    0.1505    1.7653 C   0  0  0  0  0  0  0  0  0  0  0  0
   -4.1179    0.1223    1.6854 N   0  0  0  0  0  0  0  0  0  0  0  0
   -6.4541    0.1570    0.7145 C   0  0  0  0  0  0  0  0  0  0  0  0
   -7.7854    0.1897    1.0645 C   0  0  0  0  0  0  0  0  0  0  0  0
   -8.7793    0.1961    0.0778 C   0  0  0  0  0  0  0  0  0  0  0  0
   -8.4300    0.1697   -1.2544 C   0  0  0  0  0  0  0  0  0  0  0  0
   -9.2329    0.1698   -2.4055 O   0  0  0  0  0  0  0  0  0  0  0  0
   -8.4318   -0.2605   -3.4916 C   0  0  0  0  0  0  0  0  0  0  0  0
   -7.0458    0.1154   -3.0830 C   0  0  0  0  0  0  0  0  0  0  0  0
   -7.0961    0.1371   -1.5997 C   0  0  0  0  0  0  0  0  0  0  0  0
   -6.1178    0.1312   -0.5944 C   0  0  0  0  0  0  0  0  0  0  0  0
   -1.8613    0.0595    0.5741 H   0  0  0  0  0  0  0  0  0  0  0  0
    2.9340   -0.0743   -1.7634 H   0  0  0  0  0  0  0  0  0  0  0  0
    5.5977   -0.0782    1.5300 H   0  0  0  0  0  0  0  0  0  0  0  0
    3.7743   -0.0221    3.0606 H   0  0  0  0  0  0  0  0  0  0  0  0
    1.0492    0.0370    3.2281 H   0  0  0  0  0  0  0  0  0  0  0  0
    7.9913   -1.2251   -2.4158 H   0  0  0  0  0  0  0  0  0  0  0  0
    7.3432    0.4172   -3.0112 H   0  0  0  0  0  0  0  0  0  0  0  0
    8.8468    1.5642   -1.4659 H   0  0  0  0  0  0  0  0  0  0  0  0
    9.9080    0.3136   -2.3202 H   0  0  0  0  0  0  0  0  0  0  0  0
    9.4928   -1.2487   -0.5579 H   0  0  0  0  0  0  0  0  0  0  0  0
    9.8278    0.3068    0.3492 H   0  0  0  0  0  0  0  0  0  0  0  0
    7.5115   -1.1069    0.7833 H   0  0  0  0  0  0  0  0  0  0  0  0
    7.5981    0.7502    0.6947 H   0  0  0  0  0  0  0  0  0  0  0  0
   -3.6202    0.1594    4.9879 H   0  0  0  0  0  0  0  0  0  0  0  0
   -8.0368    0.2099    2.1106 H   0  0  0  0  0  0  0  0  0  0  0  0
   -9.8207    0.2218    0.3566 H   0  0  0  0  0  0  0  0  0  0  0  0
   -8.5326   -1.3640   -3.5772 H   0  0  0  0  0  0  0  0  0  0  0  0
   -8.7229    0.2754   -4.4007 H   0  0  0  0  0  0  0  0  0  0  0  0
   -6.3441   -0.6715   -3.4362 H   0  0  0  0  0  0  0  0  0  0  0  0
   -6.7406    1.1232   -3.4290 H   0  0  0  0  0  0  0  0  0  0  0  0
   -5.0626    0.1053   -0.8710 H   0  0  0  0  0  0  0  0  0  0  0  0
  1  2  2  0
  2  3  1  0
  3  4  1  0
  4  5  2  0
  5  6  1  0
  6  7  2  0
  7  8  1  0
  8  9  2  0
  9 10  1  0
 10 11  2  0
 11 12  1  0
  8 13  1  0
 13 14  2  0
 13 15  1  0
 15 16  1  0
 16 17  1  0
 17 18  1  0
 18 19  1  0
  2 20  1  0
 20 21  2  0
 21 22  1  0
 22 23  1  0
 23 24  2  0
 23 25  1  0
 25 26  2  0
 26 27  1  0
 27 28  2  0
 28 29  1  0
 29 30  1  0
 30 31  1  0
 31 32  1  0
 32 33  2  0
 12  4  1  0
 19 15  1  0
 24 20  1  0
 33 25  1  0
 11  6  1  0
 32 28  1  0
  3 34  1  0
  7 35  1  0
  9 36  1  0
 10 37  1  0
 12 38  1  0
 16 39  1  0
 16 40  1  0
 17 41  1  0
 17 42  1  0
 18 43  1  0
 18 44  1  0
 19 45  1  0
 19 46  1  0
 21 47  1  0
 26 48  1  0
 27 49  1  0
 30 50  1  0
 30 51  1  0
 31 52  1  0
 31 53  1  0
 33 54  1  0
M  END
$$$$
[H]N=C(OC([H])([H])[H])c1nc2c([H])c([H])c3nc([H])nc(N([H])c4c([H])c([H])c(C#N)c([H])c4[H])c3c2s1
     RDKit          3D

 38 41  0  0  0  0  0  0  0  0999 V2000
    4.8299    3.6887    0.9079 C   0  0  0  0  0  0  0  0  0  0  0  0
    3.9165    2.6044    0.9027 O   0  0  0  0  0  0  0  0  0  0  0  0
    4.3773    1.3210    0.6632 C   0  0  0  0  0  0  0  0  0  0  0  0
    5.6164    1.0860    0.7030 N   0  0  0  0  0  0  0  0  0  0  0  0
    3.3879    0.2569    0.3652 C   0  0  0  0  0  0  0  0  0  0  0  0
    3.6018   -1.0200    0.1090 N   0  0  0  0  0  0  0  0  0  0  0  0
    2.5843   -1.8072   -0.1310 C   0  0  0  0  0  0  0  0  0  0  0  0
    2.6657   -3.1856   -0.4279 C   0  0  0  0  0  0  0  0  0  0  0  0
    1.5252   -3.8831   -0.6664 C   0  0  0  0  0  0  0  0  0  0  0  0
    0.2631   -3.3592   -0.6452 C   0  0  0  0  0  0  0  0  0  0  0  0
   -0.8595   -4.0246   -0.8861 N   0  0  0  0  0  0  0  0  0  0  0  0
   -2.0684   -3.4379   -0.8572 C   0  0  0  0  0  0  0  0  0  0  0  0
   -2.1182   -2.1371   -0.5728 N   0  0  0  0  0  0  0  0  0  0  0  0
   -1.0321   -1.3530   -0.3081 C   0  0  0  0  0  0  0  0  0  0  0  0
   -1.2329   -0.0119    0.0516 N   0  0  0  0  0  0  0  0  0  0  0  0
   -2.5576    0.5781   -0.0253 C   0  0  0  0  0  0  0  0  0  0  0  0
   -2.8868    1.5243    0.9404 C   0  0  0  0  0  0  0  0  0  0  0  0
   -4.0995    2.1792    0.9470 C   0  0  0  0  0  0  0  0  0  0  0  0
   -5.0338    1.9032   -0.0272 C   0  0  0  0  0  0  0  0  0  0  0  0
   -4.7097    0.9691   -0.9821 C   0  0  0  0  0  0  0  0  0  0  0  0
   -3.4728    0.2992   -0.9921 C   0  0  0  0  0  0  0  0  0  0  0  0
   -6.3190    2.5786   -0.0435 C   0  0  0  0  0  0  0  0  0  0  0  0
   -7.3340    3.1304   -0.0686 N   0  0  0  0  0  0  0  0  0  0  0  0
    0.1778   -1.9949   -0.3507 C   0  0  0  0  0  0  0  0  0  0  0  0
    1.3326   -1.2603   -0.1038 C   0  0  0  0  0  0  0  0  0  0  0  0
    1.7001    0.3652    0.2676 S   0  0  0  0  0  0  0  0  0  0  0  0
    5.6196    3.5620    1.6880 H   0  0  0  0  0  0  0  0  0  0  0  0
    5.3098    3.8488   -0.0593 H   0  0  0  0  0  0  0  0  0  0  0  0
    4.2455    4.5920    1.2436 H   0  0  0  0  0  0  0  0  0  0  0  0
    5.9946    0.1266    0.5264 H   0  0  0  0  0  0  0  0  0  0  0  0
    3.6171   -3.7049   -0.4709 H   0  0  0  0  0  0  0  0  0  0  0  0
    1.5768   -4.9596   -0.8995 H   0  0  0  0  0  0  0  0  0  0  0  0
   -2.9809   -4.0255   -1.0639 H   0  0  0  0  0  0  0  0  0  0  0  0
   -0.4692    0.5792    0.3939 H   0  0  0  0  0  0  0  0  0  0  0  0
   -2.1310    1.7230    1.6977 H   0  0  0  0  0  0  0  0  0  0  0  0
   -4.3302    2.9122    1.7113 H   0  0  0  0  0  0  0  0  0  0  0  0
   -5.4386    0.7442   -1.7541 H   0  0  0  0  0  0  0  0  0  0  0  0
   -3.2682   -0.4073   -1.7827 H   0  0  0  0  0  0  0  0  0  0  0  0
  1  2  1  0
  2  3  1  0
  3  4  2  3
  3  5  1  0
  5  6  2  0
  6  7  1  0
  7  8  2  0
  8  9  1  0
  9 10  2  0
 10 11  1  0
 11 12  2  0
 12 13  1  0
 13 14  2  0
 14 15  1  0
 15 16  1  0
 16 17  2  0
 17 18  1  0
 18 19  2  0
 19 20  1  0
 20 21  2  0
 19 22  1  0
 22 23  3  0
 14 24  1  0
 24 25  2  0
 25 26  1  0
 26  5  1  0
 25  7  1  0
 24 10  1  0
 21 16  1  0
  1 27  1  0
  1 28  1  0
  1 29  1  0
  4 30  1  0
  8 31  1  0
  9 32  1  0
 12 33  1  0
 15 34  1  0
 17 35  1  0
 18 36  1  0
 20 37  1  0
 21 38  1  0
M  END
$$$$
[H]c1nc(N([H])C([H])([H])c2c([H])nc([H])c([H])c2[H])nc(-c2c([H])c([H])c3c(c2[H])OC([H])([H])O3)c1[H]
     RDKit          3D

 37 40  0  0  0  0  0  0  0  0999 V2000
    3.6040    1.7698    0.1043 C   0  0  0  0  0  0  0  0  0  0  0  0
    2.2290    1.7912   -0.3109 N   0  0  0  0  0  0  0  0  0  0  0  0
    1.2768    0.9218    0.2875 C   0  0  0  0  0  0  0  0  0  0  0  0
    1.6376    0.0603    1.2565 N   0  0  0  0  0  0  0  0  0  0  0  0
    0.7767   -0.7809    1.8529 C   0  0  0  0  0  0  0  0  0  0  0  0
   -0.5322   -0.7513    1.4459 C   0  0  0  0  0  0  0  0  0  0  0  0
   -0.9407    0.1091    0.4644 C   0  0  0  0  0  0  0  0  0  0  0  0
   -0.0122    0.9231   -0.0852 N   0  0  0  0  0  0  0  0  0  0  0  0
   -2.3429    0.1808   -0.0118 C   0  0  0  0  0  0  0  0  0  0  0  0
   -2.6859    1.0788   -1.0123 C   0  0  0  0  0  0  0  0  0  0  0  0
   -3.9837    1.1649   -1.4727 C   0  0  0  0  0  0  0  0  0  0  0  0
   -4.9837    0.3624   -0.9550 C   0  0  0  0  0  0  0  0  0  0  0  0
   -6.3524    0.2394   -1.2259 O   0  0  0  0  0  0  0  0  0  0  0  0
   -6.9438   -0.4094   -0.1022 C   0  0  0  0  0  0  0  0  0  0  0  0
   -5.8330   -1.1920    0.3610 O   0  0  0  0  0  0  0  0  0  0  0  0
   -4.6616   -0.5340    0.0378 C   0  0  0  0  0  0  0  0  0  0  0  0
   -3.3449   -0.6092    0.4928 C   0  0  0  0  0  0  0  0  0  0  0  0
    4.1477    0.4156   -0.1693 C   0  0  0  0  0  0  0  0  0  0  0  0
    4.7909   -0.3373    0.8089 C   0  0  0  0  0  0  0  0  0  0  0  0
    5.2959   -1.5879    0.5657 C   0  0  0  0  0  0  0  0  0  0  0  0
    5.1450   -2.0925   -0.7077 C   0  0  0  0  0  0  0  0  0  0  0  0
    4.5278   -1.3821   -1.6649 N   0  0  0  0  0  0  0  0  0  0  0  0
    4.0413   -0.1654   -1.4126 C   0  0  0  0  0  0  0  0  0  0  0  0
    4.2122    2.5600   -0.3799 H   0  0  0  0  0  0  0  0  0  0  0  0
    3.6619    1.9107    1.2137 H   0  0  0  0  0  0  0  0  0  0  0  0
    1.8961    2.4407   -1.0570 H   0  0  0  0  0  0  0  0  0  0  0  0
    1.1199   -1.4707    2.6444 H   0  0  0  0  0  0  0  0  0  0  0  0
   -1.2372   -1.4164    1.9105 H   0  0  0  0  0  0  0  0  0  0  0  0
   -1.9394    1.7073   -1.4282 H   0  0  0  0  0  0  0  0  0  0  0  0
   -4.2415    1.8756   -2.2605 H   0  0  0  0  0  0  0  0  0  0  0  0
   -7.1971    0.3853    0.6284 H   0  0  0  0  0  0  0  0  0  0  0  0
   -7.7698   -1.0667   -0.3684 H   0  0  0  0  0  0  0  0  0  0  0  0
   -3.1323   -1.3288    1.2766 H   0  0  0  0  0  0  0  0  0  0  0  0
    4.8828    0.1061    1.7930 H   0  0  0  0  0  0  0  0  0  0  0  0
    5.7965   -2.1780    1.3208 H   0  0  0  0  0  0  0  0  0  0  0  0
    5.5412   -3.0874   -0.9195 H   0  0  0  0  0  0  0  0  0  0  0  0
    3.5510    0.3870   -2.1913 H   0  0  0  0  0  0  0  0  0  0  0  0
  1  2  1  0
  2  3  1  0
  3  4  2  0
  4  5  1  0
  5  6  2  0
  6  7  1  0
  7  8  2  0
  7  9  1  0
  9 10  2  0
 10 11  1  0
 11 12  2  0
 12 13  1  0
 13 14  1  0
 14 15  1  0
 15 16  1  0
 16 17  2  0
  1 18  1  0
 18 19  2  0
 19 20  1  0
 20 21  2  0
 21 22  1  0
 22 23  2  0
  8  3  1  0
 17  9  1  0
 23 18  1  0
 16 12  1  0
  1 24  1  0
  1 25  1  0
  2 26  1  0
  5 27  1  0
  6 28  1  0
 10 29  1  0
 11 30  1  0
 14 31  1  0
 14 32  1  0
 17 33  1  0
 19 34  1  0
 20 35  1  0
 21 36  1  0
 23 37  1  0
M  END
$$$$
[H]c1oc(-c2nc(N([H])C(=O)c3nc(-c4c([H])c([H])c5c(c4[H])C([H])([H])C([H])([H])O5)sc3[H])n([H])n2)c([H])c1[H]
     RDKit          3D

 40 44  0  0  0  0  0  0  0  0999 V2000
    2.4781    1.9003    0.5635 O   0  0  0  0  0  0  0  0  0  0  0  0
    1.4571    1.2218    0.4176 C   0  0  0  0  0  0  0  0  0  0  0  0
    1.5050   -0.1220   -0.0832 N   0  0  0  0  0  0  0  0  0  0  0  0
    2.7698   -0.6647   -0.4128 C   0  0  0  0  0  0  0  0  0  0  0  0
    3.9778   -0.0593   -0.3130 N   0  0  0  0  0  0  0  0  0  0  0  0
    4.9554   -0.8875   -0.7186 C   0  0  0  0  0  0  0  0  0  0  0  0
    4.3457   -2.0138   -1.0719 N   0  0  0  0  0  0  0  0  0  0  0  0
    3.0404   -1.9054   -0.8984 N   0  0  0  0  0  0  0  0  0  0  0  0
    6.3806   -0.5532   -0.7410 C   0  0  0  0  0  0  0  0  0  0  0  0
    7.3966   -1.4054   -1.1594 C   0  0  0  0  0  0  0  0  0  0  0  0
    8.5978   -0.7321   -1.0338 C   0  0  0  0  0  0  0  0  0  0  0  0
    8.2567    0.5107   -0.5403 C   0  0  0  0  0  0  0  0  0  0  0  0
    6.9622    0.5618   -0.3890 O   0  0  0  0  0  0  0  0  0  0  0  0
    0.1454    1.8383    0.7794 C   0  0  0  0  0  0  0  0  0  0  0  0
    0.0606    3.1240    1.2624 C   0  0  0  0  0  0  0  0  0  0  0  0
   -1.6203    3.2982    1.4988 S   0  0  0  0  0  0  0  0  0  0  0  0
   -2.1212    1.7269    0.9703 C   0  0  0  0  0  0  0  0  0  0  0  0
   -0.9639    1.1829    0.6511 N   0  0  0  0  0  0  0  0  0  0  0  0
   -3.4668    1.1699    0.9026 C   0  0  0  0  0  0  0  0  0  0  0  0
   -4.5265    1.9402    1.2954 C   0  0  0  0  0  0  0  0  0  0  0  0
   -5.8317    1.4714    1.2560 C   0  0  0  0  0  0  0  0  0  0  0  0
   -6.0342    0.1808    0.8005 C   0  0  0  0  0  0  0  0  0  0  0  0
   -7.2358   -0.4987    0.6728 O   0  0  0  0  0  0  0  0  0  0  0  0
   -6.9741   -1.8308    0.3146 C   0  0  0  0  0  0  0  0  0  0  0  0
   -5.5097   -1.9198   -0.0284 C   0  0  0  0  0  0  0  0  0  0  0  0
   -4.9801   -0.6193    0.3973 C   0  0  0  0  0  0  0  0  0  0  0  0
   -3.6731   -0.0994    0.4553 C   0  0  0  0  0  0  0  0  0  0  0  0
    0.6561   -0.7009   -0.2099 H   0  0  0  0  0  0  0  0  0  0  0  0
    2.3076   -2.6430   -1.0956 H   0  0  0  0  0  0  0  0  0  0  0  0
    7.2751   -2.4165   -1.5201 H   0  0  0  0  0  0  0  0  0  0  0  0
    9.5841   -1.1052   -1.2723 H   0  0  0  0  0  0  0  0  0  0  0  0
    8.9979    1.2906   -0.3283 H   0  0  0  0  0  0  0  0  0  0  0  0
    0.8867    3.8388    1.4416 H   0  0  0  0  0  0  0  0  0  0  0  0
   -4.3552    2.9417    1.6474 H   0  0  0  0  0  0  0  0  0  0  0  0
   -6.6500    2.0970    1.5706 H   0  0  0  0  0  0  0  0  0  0  0  0
   -7.2441   -2.4703    1.1748 H   0  0  0  0  0  0  0  0  0  0  0  0
   -7.5741   -2.0617   -0.5916 H   0  0  0  0  0  0  0  0  0  0  0  0
   -5.0795   -2.7659    0.5340 H   0  0  0  0  0  0  0  0  0  0  0  0
   -5.3432   -2.0850   -1.1124 H   0  0  0  0  0  0  0  0  0  0  0  0
   -2.8529   -0.7357    0.1365 H   0  0  0  0  0  0  0  0  0  0  0  0
  1  2  2  0
  2  3  1  0
  3  4  1  0
  4  5  2  0
  5  6  1  0
  6  7  2  0
  7  8  1  0
  6  9  1  0
  9 10  2  0
 10 11  1  0
 11 12  2  0
 12 13  1  0
  2 14  1  0
 14 15  2  0
 15 16  1  0
 16 17  1  0
 17 18  2  0
 17 19  1  0
 19 20  2  0
 20 21  1  0
 21 22  2  0
 22 23  1  0
 23 24  1  0
 24 25  1  0
 25 26  1  0
 26 27  2  0
  8  4  1  0
 13  9  1  0
 18 14  1  0
 27 19  1  0
 26 22  1  0
  3 28  1  0
  8 29  1  0
 10 30  1  0
 11 31  1  0
 12 32  1  0
 15 33  1  0
 20 34  1  0
 21 35  1  0
 24 36  1  0
 24 37  1  0
 25 38  1  0
 25 39  1  0
 27 40  1  0
M  END
$$$$
[H]c1sc(-c2c([H])c([H])c3c(c2[H])C([H])([H])C([H])([H])O3)nc1C(=O)N([H])c1nc(SC([H])([H])C([H])([H])c2c([H])c([H])c([H])c([H])c2[H])nn1[H]
     RDKit          3D

 50 54  0  0  0  0  0  0  0  0999 V2000
   -1.1637   -2.8893    1.9420 O   0  0  0  0  0  0  0  0  0  0  0  0
   -0.8841   -1.5994    2.0167 C   0  0  0  0  0  0  0  0  0  0  0  0
    0.3939   -1.2998    2.2832 N   0  0  0  0  0  0  0  0  0  0  0  0
    1.1429   -0.1128    2.2885 C   0  0  0  0  0  0  0  0  0  0  0  0
    2.4677   -0.0274    2.6422 N   0  0  0  0  0  0  0  0  0  0  0  0
    2.9316    1.2032    2.4895 C   0  0  0  0  0  0  0  0  0  0  0  0
    4.6142    1.7916    2.8328 S   0  0  0  0  0  0  0  0  0  0  0  0
    5.6586    1.6265    1.3865 C   0  0  0  0  0  0  0  0  0  0  0  0
    5.8438    0.1416    1.0912 C   0  0  0  0  0  0  0  0  0  0  0  0
    6.7030   -0.0074   -0.0906 C   0  0  0  0  0  0  0  0  0  0  0  0
    6.2050   -0.0743   -1.3599 C   0  0  0  0  0  0  0  0  0  0  0  0
    7.0640   -0.2123   -2.4406 C   0  0  0  0  0  0  0  0  0  0  0  0
    8.4251   -0.2846   -2.2640 C   0  0  0  0  0  0  0  0  0  0  0  0
    8.9276   -0.2178   -0.9917 C   0  0  0  0  0  0  0  0  0  0  0  0
    8.0831   -0.0813    0.0811 C   0  0  0  0  0  0  0  0  0  0  0  0
    1.9161    1.9320    2.0345 N   0  0  0  0  0  0  0  0  0  0  0  0
    0.8396    1.1276    1.9154 N   0  0  0  0  0  0  0  0  0  0  0  0
   -2.0998   -0.7879    1.7806 C   0  0  0  0  0  0  0  0  0  0  0  0
   -2.3714    0.3319    2.5307 C   0  0  0  0  0  0  0  0  0  0  0  0
   -3.8219    0.8898    1.8376 S   0  0  0  0  0  0  0  0  0  0  0  0
   -4.0072   -0.3244    0.6363 C   0  0  0  0  0  0  0  0  0  0  0  0
   -2.9506   -1.0801    0.8384 N   0  0  0  0  0  0  0  0  0  0  0  0
   -5.0821   -0.4739   -0.3612 C   0  0  0  0  0  0  0  0  0  0  0  0
   -5.0661   -1.5182   -1.2451 C   0  0  0  0  0  0  0  0  0  0  0  0
   -6.0876   -1.6703   -2.1952 C   0  0  0  0  0  0  0  0  0  0  0  0
   -7.1270   -0.7585   -2.2460 C   0  0  0  0  0  0  0  0  0  0  0  0
   -8.2602   -0.6535   -3.0642 O   0  0  0  0  0  0  0  0  0  0  0  0
   -9.2079    0.2129   -2.4676 C   0  0  0  0  0  0  0  0  0  0  0  0
   -8.3578    1.1314   -1.6074 C   0  0  0  0  0  0  0  0  0  0  0  0
   -7.1365    0.2840   -1.3586 C   0  0  0  0  0  0  0  0  0  0  0  0
   -6.1155    0.4229   -0.4205 C   0  0  0  0  0  0  0  0  0  0  0  0
    1.0523   -2.1800    2.4330 H   0  0  0  0  0  0  0  0  0  0  0  0
    5.1658    2.1098    0.5256 H   0  0  0  0  0  0  0  0  0  0  0  0
    6.6268    2.1040    1.6136 H   0  0  0  0  0  0  0  0  0  0  0  0
    6.3216   -0.3152    2.0037 H   0  0  0  0  0  0  0  0  0  0  0  0
    4.8646   -0.3584    0.9571 H   0  0  0  0  0  0  0  0  0  0  0  0
    5.1528   -0.0234   -1.5575 H   0  0  0  0  0  0  0  0  0  0  0  0
    6.6641   -0.2666   -3.4623 H   0  0  0  0  0  0  0  0  0  0  0  0
    9.1047   -0.3936   -3.1228 H   0  0  0  0  0  0  0  0  0  0  0  0
   10.0045   -0.2736   -0.8320 H   0  0  0  0  0  0  0  0  0  0  0  0
    8.4976   -0.0285    1.0971 H   0  0  0  0  0  0  0  0  0  0  0  0
   -0.0407    1.5259    1.5475 H   0  0  0  0  0  0  0  0  0  0  0  0
   -1.7717    0.7328    3.3710 H   0  0  0  0  0  0  0  0  0  0  0  0
   -4.2737   -2.2549   -1.2419 H   0  0  0  0  0  0  0  0  0  0  0  0
   -6.0924   -2.4870   -2.8997 H   0  0  0  0  0  0  0  0  0  0  0  0
   -9.7347    0.7556   -3.2604 H   0  0  0  0  0  0  0  0  0  0  0  0
   -9.9560   -0.3277   -1.8686 H   0  0  0  0  0  0  0  0  0  0  0  0
   -8.8688    1.4037   -0.6770 H   0  0  0  0  0  0  0  0  0  0  0  0
   -8.0488    2.0016   -2.2164 H   0  0  0  0  0  0  0  0  0  0  0  0
   -6.1448    1.2535    0.2689 H   0  0  0  0  0  0  0  0  0  0  0  0
  1  2  2  0
  2  3  1  0
  3  4  1  0
  4  5  2  0
  5  6  1  0
  6  7  1  0
  7  8  1  0
  8  9  1  0
  9 10  1  0
 10 11  2  0
 11 12  1  0
 12 13  2  0
 13 14  1  0
 14 15  2  0
  6 16  2  0
 16 17  1  0
  2 18  1  0
 18 19  2  0
 19 20  1  0
 20 21  1  0
 21 22  2  0
 21 23  1  0
 23 24  2  0
 24 25  1  0
 25 26  2  0
 26 27  1  0
 27 28  1  0
 28 29  1  0
 29 30  1  0
 30 31  2  0
 17  4  1  0
 22 18  1  0
 31 23  1  0
 15 10  1  0
 30 26  1  0
  3 32  1  0
  8 33  1  0
  8 34  1  0
  9 35  1  0
  9 36  1  0
 11 37  1  0
 12 38  1  0
 13 39  1  0
 14 40  1  0
 15 41  1  0
 17 42  1  0
 19 43  1  0
 24 44  1  0
 25 45  1  0
 28 46  1  0
 28 47  1  0
 29 48  1  0
 29 49  1  0
 31 50  1  0
M  END
$$$$
[H]Cl.[H]c1nc(N([H])C([H])(c2c([H])c([H])c([H])c([H])c2[H])C([H])([H])N([H])[H])nc(-c2nn([H])c3nc(N([H])C([H])([H])C([H])([H])N4C([H])([H])C([H])([H])OC([H])([H])C4([H])[H])nc([H])c23)c1[H]
     RDKit          3D

 64 67  0  0  0  0  0  0  0  0999 V2000
    0.6866    0.0000    0.0000 Cl  0  0  0  0  0  0  0  0  0  0  0  0
   -3.5304   -4.9198   -0.4732 N   0  0  0  0  0  0  0  0  0  0  0  0
   -3.9138   -3.6432   -0.9894 C   0  0  0  0  0  0  0  0  0  0  0  0
   -3.4155   -2.4863   -0.1178 C   0  0  0  0  0  0  0  0  0  0  0  0
   -3.9345   -2.5715    1.2027 N   0  0  0  0  0  0  0  0  0  0  0  0
   -3.4883   -1.7442    2.2524 C   0  0  0  0  0  0  0  0  0  0  0  0
   -4.0590   -1.8608    3.4963 N   0  0  0  0  0  0  0  0  0  0  0  0
   -3.6705   -1.1232    4.5295 C   0  0  0  0  0  0  0  0  0  0  0  0
   -2.6699   -0.1981    4.4085 C   0  0  0  0  0  0  0  0  0  0  0  0
   -2.0687   -0.0571    3.1540 C   0  0  0  0  0  0  0  0  0  0  0  0
   -2.5065   -0.8262    2.1648 N   0  0  0  0  0  0  0  0  0  0  0  0
   -0.9703    0.9017    2.9885 C   0  0  0  0  0  0  0  0  0  0  0  0
   -0.5567    1.7321    3.9966 N   0  0  0  0  0  0  0  0  0  0  0  0
    0.4350    2.4707    3.5969 N   0  0  0  0  0  0  0  0  0  0  0  0
    0.7099    2.1561    2.3195 C   0  0  0  0  0  0  0  0  0  0  0  0
    1.6135    2.5750    1.4000 N   0  0  0  0  0  0  0  0  0  0  0  0
    1.6633    2.0625    0.1631 C   0  0  0  0  0  0  0  0  0  0  0  0
    2.6636    2.5892   -0.7276 N   0  0  0  0  0  0  0  0  0  0  0  0
    2.7934    2.0995   -2.0713 C   0  0  0  0  0  0  0  0  0  0  0  0
    3.3302    0.7223   -2.1502 C   0  0  0  0  0  0  0  0  0  0  0  0
    4.6152    0.4429   -1.6956 N   0  0  0  0  0  0  0  0  0  0  0  0
    4.9927    0.4692   -0.3510 C   0  0  0  0  0  0  0  0  0  0  0  0
    5.9508    1.5862    0.0016 C   0  0  0  0  0  0  0  0  0  0  0  0
    6.8100    1.9025   -1.0209 O   0  0  0  0  0  0  0  0  0  0  0  0
    6.9725    0.9139   -1.9666 C   0  0  0  0  0  0  0  0  0  0  0  0
    5.6817    0.5161   -2.6409 C   0  0  0  0  0  0  0  0  0  0  0  0
    0.8107    1.1005   -0.2233 N   0  0  0  0  0  0  0  0  0  0  0  0
   -0.1208    0.6402    0.6610 C   0  0  0  0  0  0  0  0  0  0  0  0
   -0.1781    1.1595    1.9254 C   0  0  0  0  0  0  0  0  0  0  0  0
   -3.8987   -1.2629   -0.8351 C   0  0  0  0  0  0  0  0  0  0  0  0
   -5.1766   -0.7624   -0.7062 C   0  0  0  0  0  0  0  0  0  0  0  0
   -5.5516    0.3683   -1.4313 C   0  0  0  0  0  0  0  0  0  0  0  0
   -4.6677    0.9954   -2.2749 C   0  0  0  0  0  0  0  0  0  0  0  0
   -3.3800    0.4954   -2.4080 C   0  0  0  0  0  0  0  0  0  0  0  0
   -3.0327   -0.6247   -1.6802 C   0  0  0  0  0  0  0  0  0  0  0  0
   -0.6866    0.0000    0.0000 H   0  0  0  0  0  0  0  0  0  0  0  0
   -2.6265   -5.2810   -0.8026 H   0  0  0  0  0  0  0  0  0  0  0  0
   -4.3121   -5.6101   -0.5396 H   0  0  0  0  0  0  0  0  0  0  0  0
   -4.9861   -3.5030   -1.1302 H   0  0  0  0  0  0  0  0  0  0  0  0
   -3.4279   -3.5006   -1.9780 H   0  0  0  0  0  0  0  0  0  0  0  0
   -2.3140   -2.4531   -0.1219 H   0  0  0  0  0  0  0  0  0  0  0  0
   -4.6749   -3.2735    1.4047 H   0  0  0  0  0  0  0  0  0  0  0  0
   -4.1556   -1.2531    5.4979 H   0  0  0  0  0  0  0  0  0  0  0  0
   -2.3283    0.4221    5.2347 H   0  0  0  0  0  0  0  0  0  0  0  0
    0.9454    3.1932    4.1604 H   0  0  0  0  0  0  0  0  0  0  0  0
    3.3191    3.3404   -0.4182 H   0  0  0  0  0  0  0  0  0  0  0  0
    1.7379    2.1181   -2.4902 H   0  0  0  0  0  0  0  0  0  0  0  0
    3.3322    2.8276   -2.7197 H   0  0  0  0  0  0  0  0  0  0  0  0
    2.6103   -0.0161   -1.7009 H   0  0  0  0  0  0  0  0  0  0  0  0
    3.2970    0.4374   -3.2530 H   0  0  0  0  0  0  0  0  0  0  0  0
    4.2128    0.4394    0.4162 H   0  0  0  0  0  0  0  0  0  0  0  0
    5.5867   -0.4984   -0.1467 H   0  0  0  0  0  0  0  0  0  0  0  0
    5.4620    2.4777    0.3844 H   0  0  0  0  0  0  0  0  0  0  0  0
    6.5884    1.2093    0.8549 H   0  0  0  0  0  0  0  0  0  0  0  0
    7.4510    0.0221   -1.5177 H   0  0  0  0  0  0  0  0  0  0  0  0
    7.6696    1.3006   -2.7383 H   0  0  0  0  0  0  0  0  0  0  0  0
    5.8500   -0.5333   -3.0242 H   0  0  0  0  0  0  0  0  0  0  0  0
    5.4498    1.1165   -3.5347 H   0  0  0  0  0  0  0  0  0  0  0  0
   -0.8091   -0.1383    0.3754 H   0  0  0  0  0  0  0  0  0  0  0  0
   -5.8619   -1.2547   -0.0472 H   0  0  0  0  0  0  0  0  0  0  0  0
   -6.5508    0.7481   -1.3216 H   0  0  0  0  0  0  0  0  0  0  0  0
   -5.0086    1.8698   -2.8151 H   0  0  0  0  0  0  0  0  0  0  0  0
   -2.6818    0.9851   -3.0705 H   0  0  0  0  0  0  0  0  0  0  0  0
   -2.0267   -1.0108   -1.7879 H   0  0  0  0  0  0  0  0  0  0  0  0
  2  3  1  0
  3  4  1  0
  4  5  1  0
  5  6  1  0
  6  7  2  0
  7  8  1  0
  8  9  2  0
  9 10  1  0
 10 11  2  0
 10 12  1  0
 12 13  2  0
 13 14  1  0
 14 15  1  0
 15 16  2  0
 16 17  1  0
 17 18  1  0
 18 19  1  0
 19 20  1  0
 20 21  1  0
 21 22  1  0
 22 23  1  0
 23 24  1  0
 24 25  1  0
 25 26  1  0
 17 27  2  0
 27 28  1  0
 28 29  2  0
  4 30  1  0
 30 31  2  0
 31 32  1  0
 32 33  2  0
 33 34  1  0
 34 35  2  0
 11  6  1  0
 29 12  1  0
 35 30  1  0
 29 15  1  0
 26 21  1  0
  1 36  1  0
  2 37  1  0
  2 38  1  0
  3 39  1  0
  3 40  1  0
  4 41  1  0
  5 42  1  0
  8 43  1  0
  9 44  1  0
 14 45  1  0
 18 46  1  0
 19 47  1  0
 19 48  1  0
 20 49  1  0
 20 50  1  0
 22 51  1  0
 22 52  1  0
 23 53  1  0
 23 54  1  0
 25 55  1  0
 25 56  1  0
 26 57  1  0
 26 58  1  0
 28 59  1  0
 31 60  1  0
 32 61  1  0
 33 62  1  0
 34 63  1  0
 35 64  1  0
M  END
$$$$
[H]N=C(OC([H])([H])[H])c1nc2c([H])c([H])c3nc([H])nc(N([H])c4c([H])c([H])c(F)c([H])c4F)c3c2s1
     RDKit          3D

 37 40  0  0  0  0  0  0  0  0999 V2000
    4.6824    3.0417   -1.8494 C   0  0  0  0  0  0  0  0  0  0  0  0
    3.7222    1.9768   -1.7776 O   0  0  0  0  0  0  0  0  0  0  0  0
    4.0795    0.7524   -1.2514 C   0  0  0  0  0  0  0  0  0  0  0  0
    5.2753    0.3602   -1.2873 N   0  0  0  0  0  0  0  0  0  0  0  0
    3.0554   -0.1217   -0.6341 C   0  0  0  0  0  0  0  0  0  0  0  0
    3.2111   -1.3100   -0.0873 N   0  0  0  0  0  0  0  0  0  0  0  0
    2.1783   -1.9393    0.4129 C   0  0  0  0  0  0  0  0  0  0  0  0
    2.2187   -3.2029    1.0392 C   0  0  0  0  0  0  0  0  0  0  0  0
    1.0608   -3.7169    1.5265 C   0  0  0  0  0  0  0  0  0  0  0  0
   -0.1609   -3.1039    1.4600 C   0  0  0  0  0  0  0  0  0  0  0  0
   -1.2828   -3.6210    1.9673 N   0  0  0  0  0  0  0  0  0  0  0  0
   -2.4554   -2.9244    1.8729 C   0  0  0  0  0  0  0  0  0  0  0  0
   -2.4738   -1.7357    1.2750 N   0  0  0  0  0  0  0  0  0  0  0  0
   -1.3922   -1.1460    0.7382 C   0  0  0  0  0  0  0  0  0  0  0  0
   -1.5256    0.0544    0.0290 N   0  0  0  0  0  0  0  0  0  0  0  0
   -2.6658    0.9100   -0.0331 C   0  0  0  0  0  0  0  0  0  0  0  0
   -3.7175    0.7987    0.8029 C   0  0  0  0  0  0  0  0  0  0  0  0
   -4.7823    1.7169    0.6910 C   0  0  0  0  0  0  0  0  0  0  0  0
   -4.7677    2.7190   -0.2491 C   0  0  0  0  0  0  0  0  0  0  0  0
   -5.8355    3.5828   -0.3084 F   0  0  0  0  0  0  0  0  0  0  0  0
   -3.6925    2.8335   -1.1028 C   0  0  0  0  0  0  0  0  0  0  0  0
   -2.6622    1.9363   -0.9874 C   0  0  0  0  0  0  0  0  0  0  0  0
   -1.5970    2.0375   -1.8251 F   0  0  0  0  0  0  0  0  0  0  0  0
   -0.2242   -1.8613    0.8465 C   0  0  0  0  0  0  0  0  0  0  0  0
    0.9560   -1.3152    0.3403 C   0  0  0  0  0  0  0  0  0  0  0  0
    1.3915    0.1360   -0.4448 S   0  0  0  0  0  0  0  0  0  0  0  0
    4.2078    3.9364   -2.2987 H   0  0  0  0  0  0  0  0  0  0  0  0
    5.5608    2.6808   -2.4331 H   0  0  0  0  0  0  0  0  0  0  0  0
    5.0321    3.2484   -0.8028 H   0  0  0  0  0  0  0  0  0  0  0  0
    5.5807   -0.5448   -0.9062 H   0  0  0  0  0  0  0  0  0  0  0  0
    3.1290   -3.7685    1.1429 H   0  0  0  0  0  0  0  0  0  0  0  0
    1.0699   -4.7022    2.0199 H   0  0  0  0  0  0  0  0  0  0  0  0
   -3.3375   -3.3863    2.3011 H   0  0  0  0  0  0  0  0  0  0  0  0
   -0.7184    0.3488   -0.5479 H   0  0  0  0  0  0  0  0  0  0  0  0
   -3.8178    0.0620    1.5919 H   0  0  0  0  0  0  0  0  0  0  0  0
   -5.6414    1.6529    1.3476 H   0  0  0  0  0  0  0  0  0  0  0  0
   -3.6609    3.6146   -1.8491 H   0  0  0  0  0  0  0  0  0  0  0  0
  1  2  1  0
  2  3  1  0
  3  4  2  3
  3  5  1  0
  5  6  2  0
  6  7  1  0
  7  8  2  0
  8  9  1  0
  9 10  2  0
 10 11  1  0
 11 12  2  0
 12 13  1  0
 13 14  2  0
 14 15  1  0
 15 16  1  0
 16 17  2  0
 17 18  1  0
 18 19  2  0
 19 20  1  0
 19 21  1  0
 21 22  2  0
 22 23  1  0
 14 24  1  0
 24 25  2  0
 25 26  1  0
 26  5  1  0
 25  7  1  0
 24 10  1  0
 22 16  1  0
  1 27  1  0
  1 28  1  0
  1 29  1  0
  4 30  1  0
  8 31  1  0
  9 32  1  0
 12 33  1  0
 15 34  1  0
 17 35  1  0
 18 36  1  0
 21 37  1  0
M  END
$$$$
[H]c1sc(-c2c([H])c([H])c3c(c2[H])C([H])([H])C([H])([H])O3)nc1C(=O)N([H])c1nc(C(=O)N([H])C([H])([H])[H])nn1[H]
     RDKit          3D

 40 43  0  0  0  0  0  0  0  0999 V2000
    8.7619   -1.8046   -0.1886 C   0  0  0  0  0  0  0  0  0  0  0  0
    7.3783   -1.5085    0.0409 N   0  0  0  0  0  0  0  0  0  0  0  0
    6.7456   -0.4334   -0.6203 C   0  0  0  0  0  0  0  0  0  0  0  0
    7.3972    0.2757   -1.4202 O   0  0  0  0  0  0  0  0  0  0  0  0
    5.3190   -0.1548   -0.3619 C   0  0  0  0  0  0  0  0  0  0  0  0
    4.5368   -0.8425    0.4657 N   0  0  0  0  0  0  0  0  0  0  0  0
    3.3062   -0.2869    0.4300 N   0  0  0  0  0  0  0  0  0  0  0  0
    3.2904    0.7318   -0.3952 C   0  0  0  0  0  0  0  0  0  0  0  0
    2.3058    1.6167   -0.8547 N   0  0  0  0  0  0  0  0  0  0  0  0
    0.9880    1.8493   -0.5765 C   0  0  0  0  0  0  0  0  0  0  0  0
    0.4145    2.7055   -1.4143 O   0  0  0  0  0  0  0  0  0  0  0  0
    0.0901    1.3340    0.4712 C   0  0  0  0  0  0  0  0  0  0  0  0
    0.4587    1.0830    1.7681 C   0  0  0  0  0  0  0  0  0  0  0  0
   -0.9750    0.4800    2.4559 S   0  0  0  0  0  0  0  0  0  0  0  0
   -1.9750    0.5725    1.0759 C   0  0  0  0  0  0  0  0  0  0  0  0
   -1.1653    1.0553    0.1711 N   0  0  0  0  0  0  0  0  0  0  0  0
   -3.4043    0.1947    0.9521 C   0  0  0  0  0  0  0  0  0  0  0  0
   -4.0216   -0.2907    2.0664 C   0  0  0  0  0  0  0  0  0  0  0  0
   -5.3556   -0.6659    2.0332 C   0  0  0  0  0  0  0  0  0  0  0  0
   -6.0847   -0.5558    0.8732 C   0  0  0  0  0  0  0  0  0  0  0  0
   -7.4184   -0.8541    0.5619 O   0  0  0  0  0  0  0  0  0  0  0  0
   -7.7620   -0.0658   -0.5639 C   0  0  0  0  0  0  0  0  0  0  0  0
   -6.4519   -0.0538   -1.3284 C   0  0  0  0  0  0  0  0  0  0  0  0
   -5.4446   -0.0619   -0.2479 C   0  0  0  0  0  0  0  0  0  0  0  0
   -4.1039    0.3149   -0.2133 C   0  0  0  0  0  0  0  0  0  0  0  0
    4.5687    0.8065   -0.8917 N   0  0  0  0  0  0  0  0  0  0  0  0
    8.9104   -2.2348   -1.2086 H   0  0  0  0  0  0  0  0  0  0  0  0
    9.4070   -0.8938   -0.1589 H   0  0  0  0  0  0  0  0  0  0  0  0
    9.1543   -2.4904    0.5708 H   0  0  0  0  0  0  0  0  0  0  0  0
    6.8460   -2.0897    0.6961 H   0  0  0  0  0  0  0  0  0  0  0  0
    2.5124   -0.6693    0.9821 H   0  0  0  0  0  0  0  0  0  0  0  0
    2.6411    2.2324   -1.7405 H   0  0  0  0  0  0  0  0  0  0  0  0
    1.4579    1.2557    2.2122 H   0  0  0  0  0  0  0  0  0  0  0  0
   -3.4808   -0.3968    3.0153 H   0  0  0  0  0  0  0  0  0  0  0  0
   -5.8073   -1.0423    2.9255 H   0  0  0  0  0  0  0  0  0  0  0  0
   -8.0523    0.9403   -0.2340 H   0  0  0  0  0  0  0  0  0  0  0  0
   -8.5708   -0.5774   -1.1135 H   0  0  0  0  0  0  0  0  0  0  0  0
   -6.4070   -1.0066   -1.9077 H   0  0  0  0  0  0  0  0  0  0  0  0
   -6.3919    0.8259   -1.9841 H   0  0  0  0  0  0  0  0  0  0  0  0
   -3.6179    0.7054   -1.1210 H   0  0  0  0  0  0  0  0  0  0  0  0
  1  2  1  0
  2  3  1  0
  3  4  2  0
  3  5  1  0
  5  6  2  0
  6  7  1  0
  7  8  1  0
  8  9  1  0
  9 10  1  0
 10 11  2  0
 10 12  1  0
 12 13  2  0
 13 14  1  0
 14 15  1  0
 15 16  2  0
 15 17  1  0
 17 18  2  0
 18 19  1  0
 19 20  2  0
 20 21  1  0
 21 22  1  0
 22 23  1  0
 23 24  1  0
 24 25  2  0
  8 26  2  0
 26  5  1  0
 16 12  1  0
 25 17  1  0
 24 20  1  0
  1 27  1  0
  1 28  1  0
  1 29  1  0
  2 30  1  0
  7 31  1  0
  9 32  1  0
 13 33  1  0
 18 34  1  0
 19 35  1  0
 22 36  1  0
 22 37  1  0
 23 38  1  0
 23 39  1  0
 25 40  1  0
M  END
$$$$
[H]c1sc(-c2c([H])c([H])c3c(c2[H])C([H])([H])C([H])([H])O3)nc1C(=O)N([H])c1nc2c([H])c([H])c([H])c([H])c2n1C([H])([H])[H]
     RDKit          3D

 43 47  0  0  0  0  0  0  0  0999 V2000
    4.5031   -0.3363    2.0824 C   0  0  0  0  0  0  0  0  0  0  0  0
    3.9315   -0.6416    0.8012 N   0  0  0  0  0  0  0  0  0  0  0  0
    2.6807   -0.5594    0.3653 C   0  0  0  0  0  0  0  0  0  0  0  0
    1.4660   -0.2404    0.9665 N   0  0  0  0  0  0  0  0  0  0  0  0
    1.0728    0.0069    2.2713 C   0  0  0  0  0  0  0  0  0  0  0  0
    1.7754   -0.0439    3.2872 O   0  0  0  0  0  0  0  0  0  0  0  0
   -0.3644    0.3877    2.5626 C   0  0  0  0  0  0  0  0  0  0  0  0
   -0.8050    0.6388    3.8259 C   0  0  0  0  0  0  0  0  0  0  0  0
   -2.4724    1.0089    3.5352 S   0  0  0  0  0  0  0  0  0  0  0  0
   -2.4732    0.8155    1.8436 C   0  0  0  0  0  0  0  0  0  0  0  0
   -1.2200    0.4837    1.5924 N   0  0  0  0  0  0  0  0  0  0  0  0
   -3.5927    0.9794    0.9090 C   0  0  0  0  0  0  0  0  0  0  0  0
   -4.8360    1.3343    1.3846 C   0  0  0  0  0  0  0  0  0  0  0  0
   -5.9226    1.5007    0.5408 C   0  0  0  0  0  0  0  0  0  0  0  0
   -5.7908    1.3135   -0.8184 C   0  0  0  0  0  0  0  0  0  0  0  0
   -6.6867    1.4059   -1.9020 O   0  0  0  0  0  0  0  0  0  0  0  0
   -6.1670    0.5981   -2.9604 C   0  0  0  0  0  0  0  0  0  0  0  0
   -4.6844    0.8260   -2.7749 C   0  0  0  0  0  0  0  0  0  0  0  0
   -4.5538    0.9590   -1.3046 C   0  0  0  0  0  0  0  0  0  0  0  0
   -3.4592    0.7924   -0.4460 C   0  0  0  0  0  0  0  0  0  0  0  0
    2.6968   -0.9433   -0.9789 N   0  0  0  0  0  0  0  0  0  0  0  0
    3.9260   -1.2492   -1.3368 C   0  0  0  0  0  0  0  0  0  0  0  0
    4.4783   -1.6878   -2.5488 C   0  0  0  0  0  0  0  0  0  0  0  0
    5.8141   -1.9251   -2.5943 C   0  0  0  0  0  0  0  0  0  0  0  0
    6.6263   -1.7506   -1.5053 C   0  0  0  0  0  0  0  0  0  0  0  0
    6.0780   -1.3194   -0.3170 C   0  0  0  0  0  0  0  0  0  0  0  0
    4.7206   -1.0682   -0.2357 C   0  0  0  0  0  0  0  0  0  0  0  0
    4.3016   -1.0348    2.8851 H   0  0  0  0  0  0  0  0  0  0  0  0
    5.6331   -0.2197    1.9588 H   0  0  0  0  0  0  0  0  0  0  0  0
    4.1967    0.6998    2.3792 H   0  0  0  0  0  0  0  0  0  0  0  0
    0.6186   -0.1245    0.2563 H   0  0  0  0  0  0  0  0  0  0  0  0
   -0.2728    0.6207    4.7938 H   0  0  0  0  0  0  0  0  0  0  0  0
   -4.9233    1.4787    2.4634 H   0  0  0  0  0  0  0  0  0  0  0  0
   -6.8917    1.7801    0.9360 H   0  0  0  0  0  0  0  0  0  0  0  0
   -6.5325    0.9748   -3.9345 H   0  0  0  0  0  0  0  0  0  0  0  0
   -6.3786   -0.4525   -2.7649 H   0  0  0  0  0  0  0  0  0  0  0  0
   -4.3669    1.7436   -3.3109 H   0  0  0  0  0  0  0  0  0  0  0  0
   -4.1390   -0.0588   -3.1594 H   0  0  0  0  0  0  0  0  0  0  0  0
   -2.4915    0.5135   -0.8390 H   0  0  0  0  0  0  0  0  0  0  0  0
    3.8018   -1.8142   -3.3893 H   0  0  0  0  0  0  0  0  0  0  0  0
    6.2769   -2.2639   -3.5093 H   0  0  0  0  0  0  0  0  0  0  0  0
    7.7048   -1.9499   -1.5688 H   0  0  0  0  0  0  0  0  0  0  0  0
    6.7217   -1.1785    0.5588 H   0  0  0  0  0  0  0  0  0  0  0  0
  1  2  1  0
  2  3  1  0
  3  4  1  0
  4  5  1  0
  5  6  2  0
  5  7  1  0
  7  8  2  0
  8  9  1  0
  9 10  1  0
 10 11  2  0
 10 12  1  0
 12 13  2  0
 13 14  1  0
 14 15  2  0
 15 16  1  0
 16 17  1  0
 17 18  1  0
 18 19  1  0
 19 20  2  0
  3 21  2  0
 21 22  1  0
 22 23  2  0
 23 24  1  0
 24 25  2  0
 25 26  1  0
 26 27  2  0
 27  2  1  0
 11  7  1  0
 20 12  1  0
 27 22  1  0
 19 15  1  0
  1 28  1  0
  1 29  1  0
  1 30  1  0
  4 31  1  0
  8 32  1  0
 13 33  1  0
 14 34  1  0
 17 35  1  0
 17 36  1  0
 18 37  1  0
 18 38  1  0
 20 39  1  0
 23 40  1  0
 24 41  1  0
 25 42  1  0
 26 43  1  0
M  END
$$$$
[H]OC([H])([H])[C@@]([H])(N([H])c1nn2c(-c3c([H])c([H])c([H])c(C([H])=O)c3[H])c([H])nc2c([H])c1[H])C([H])([H])C([H])([H])[H]
     RDKit          3D

 41 43  0  0  0  0  0  0  0  0999 V2000
   -5.1702    2.0320    0.4836 C   0  0  0  0  0  0  0  0  0  0  0  0
   -3.8938    1.4904   -0.1993 C   0  0  0  0  0  0  0  0  0  0  0  0
   -2.9914    1.0721    0.9042 C   0  0  1  0  0  0  0  0  0  0  0  0
   -3.6608   -0.0068    1.7212 C   0  0  0  0  0  0  0  0  0  0  0  0
   -2.9468   -0.1537    2.9165 O   0  0  0  0  0  0  0  0  0  0  0  0
   -1.6582    0.7417    0.6053 N   0  0  0  0  0  0  0  0  0  0  0  0
   -1.1029   -0.2425   -0.2414 C   0  0  0  0  0  0  0  0  0  0  0  0
   -1.8434   -1.1180   -0.9799 C   0  0  0  0  0  0  0  0  0  0  0  0
   -1.2318   -2.0723   -1.8021 C   0  0  0  0  0  0  0  0  0  0  0  0
    0.1374   -2.1452   -1.8810 C   0  0  0  0  0  0  0  0  0  0  0  0
    0.9887   -2.9330   -2.5640 N   0  0  0  0  0  0  0  0  0  0  0  0
    2.2315   -2.5357   -2.2399 C   0  0  0  0  0  0  0  0  0  0  0  0
    2.1602   -1.4821   -1.3396 C   0  0  0  0  0  0  0  0  0  0  0  0
    3.3089   -0.7884   -0.7613 C   0  0  0  0  0  0  0  0  0  0  0  0
    4.5967   -1.1968   -1.1257 C   0  0  0  0  0  0  0  0  0  0  0  0
    5.7476   -0.6215   -0.6486 C   0  0  0  0  0  0  0  0  0  0  0  0
    5.6279    0.4210    0.2430 C   0  0  0  0  0  0  0  0  0  0  0  0
    4.3822    0.8657    0.6379 C   0  0  0  0  0  0  0  0  0  0  0  0
    4.2390    1.9664    1.5794 C   0  0  0  0  0  0  0  0  0  0  0  0
    3.0915    2.3365    1.9094 O   0  0  0  0  0  0  0  0  0  0  0  0
    3.2368    0.2437    0.1208 C   0  0  0  0  0  0  0  0  0  0  0  0
    0.8567   -1.2526   -1.1277 N   0  0  0  0  0  0  0  0  0  0  0  0
    0.2443   -0.3754   -0.3714 N   0  0  0  0  0  0  0  0  0  0  0  0
   -5.5900    2.8745   -0.0975 H   0  0  0  0  0  0  0  0  0  0  0  0
   -5.9270    1.2357    0.6031 H   0  0  0  0  0  0  0  0  0  0  0  0
   -4.9317    2.3826    1.5168 H   0  0  0  0  0  0  0  0  0  0  0  0
   -4.2713    0.6545   -0.8067 H   0  0  0  0  0  0  0  0  0  0  0  0
   -3.4557    2.3050   -0.8217 H   0  0  0  0  0  0  0  0  0  0  0  0
   -2.9878    1.9974    1.6068 H   0  0  0  0  0  0  0  0  0  0  0  0
   -4.7289    0.2545    1.9297 H   0  0  0  0  0  0  0  0  0  0  0  0
   -3.6879   -0.9553    1.1715 H   0  0  0  0  0  0  0  0  0  0  0  0
   -3.5804   -0.4872    3.6156 H   0  0  0  0  0  0  0  0  0  0  0  0
   -0.9196    1.3613    1.1260 H   0  0  0  0  0  0  0  0  0  0  0  0
   -2.9047   -1.1407   -0.9865 H   0  0  0  0  0  0  0  0  0  0  0  0
   -1.8132   -2.7651   -2.3865 H   0  0  0  0  0  0  0  0  0  0  0  0
    3.1512   -2.9628   -2.6159 H   0  0  0  0  0  0  0  0  0  0  0  0
    4.6598   -2.0166   -1.8264 H   0  0  0  0  0  0  0  0  0  0  0  0
    6.7416   -0.9688   -0.9573 H   0  0  0  0  0  0  0  0  0  0  0  0
    6.5110    0.9239    0.6616 H   0  0  0  0  0  0  0  0  0  0  0  0
    5.1097    2.4504    1.9820 H   0  0  0  0  0  0  0  0  0  0  0  0
    2.2746    0.6110    0.4461 H   0  0  0  0  0  0  0  0  0  0  0  0
  1  2  1  0
  2  3  1  0
  3  4  1  0
  4  5  1  0
  3  6  1  0
  6  7  1  0
  7  8  1  0
  8  9  2  0
  9 10  1  0
 10 11  2  0
 11 12  1  0
 12 13  2  0
 13 14  1  0
 14 15  2  0
 15 16  1  0
 16 17  2  0
 17 18  1  0
 18 19  1  0
 19 20  2  0
 18 21  2  0
 13 22  1  0
 22 23  1  0
 23  7  2  0
 22 10  1  0
 21 14  1  0
  1 24  1  0
  1 25  1  0
  1 26  1  0
  2 27  1  0
  2 28  1  0
  3 29  1  1
  4 30  1  0
  4 31  1  0
  5 32  1  0
  6 33  1  0
  8 34  1  0
  9 35  1  0
 12 36  1  0
 15 37  1  0
 16 38  1  0
 17 39  1  0
 19 40  1  0
 21 41  1  0
M  END
$$$$
[H]c1nc(N([H])C([H])([H])c2c([H])c([H])c(Cl)c(Cl)c2[H])nc(-c2c([H])c([H])c3c(c2[H])OC([H])([H])O3)c1[H]
     RDKit          3D

 38 41  0  0  0  0  0  0  0  0999 V2000
    7.6771   -2.5389    0.9319 Cl  0  0  0  0  0  0  0  0  0  0  0  0
    6.3393   -1.5077    0.4625 C   0  0  0  0  0  0  0  0  0  0  0  0
    5.8360   -0.5231    1.2848 C   0  0  0  0  0  0  0  0  0  0  0  0
    4.7838    0.2924    0.9231 C   0  0  0  0  0  0  0  0  0  0  0  0
    4.1894    0.1348   -0.3162 C   0  0  0  0  0  0  0  0  0  0  0  0
    3.0598    1.0178   -0.6918 C   0  0  0  0  0  0  0  0  0  0  0  0
    1.7972    0.4332   -0.2896 N   0  0  0  0  0  0  0  0  0  0  0  0
    0.5672    1.0930   -0.5407 C   0  0  0  0  0  0  0  0  0  0  0  0
    0.6028    2.2886   -1.1686 N   0  0  0  0  0  0  0  0  0  0  0  0
   -0.5145    2.9825   -1.4462 C   0  0  0  0  0  0  0  0  0  0  0  0
   -1.7233    2.4222   -1.0609 C   0  0  0  0  0  0  0  0  0  0  0  0
   -1.8073    1.2095   -0.4203 C   0  0  0  0  0  0  0  0  0  0  0  0
   -0.6203    0.5863   -0.1850 N   0  0  0  0  0  0  0  0  0  0  0  0
   -3.0504    0.5849    0.0013 C   0  0  0  0  0  0  0  0  0  0  0  0
   -4.2742    1.1643   -0.2084 C   0  0  0  0  0  0  0  0  0  0  0  0
   -5.4607    0.5440    0.2066 C   0  0  0  0  0  0  0  0  0  0  0  0
   -5.4046   -0.6762    0.8405 C   0  0  0  0  0  0  0  0  0  0  0  0
   -6.3786   -1.5394    1.3662 O   0  0  0  0  0  0  0  0  0  0  0  0
   -5.7707   -2.8226    1.3506 C   0  0  0  0  0  0  0  0  0  0  0  0
   -4.4346   -2.4938    1.7169 O   0  0  0  0  0  0  0  0  0  0  0  0
   -4.1771   -1.2816    1.0634 C   0  0  0  0  0  0  0  0  0  0  0  0
   -3.0323   -0.6446    0.6428 C   0  0  0  0  0  0  0  0  0  0  0  0
    4.6923   -0.8503   -1.1400 C   0  0  0  0  0  0  0  0  0  0  0  0
    5.7442   -1.6657   -0.7786 C   0  0  0  0  0  0  0  0  0  0  0  0
    6.3634   -2.8989   -1.8267 Cl  0  0  0  0  0  0  0  0  0  0  0  0
    6.2825   -0.3718    2.2708 H   0  0  0  0  0  0  0  0  0  0  0  0
    4.3868    1.0702    1.5735 H   0  0  0  0  0  0  0  0  0  0  0  0
    3.0416    1.1879   -1.8046 H   0  0  0  0  0  0  0  0  0  0  0  0
    3.2361    1.9990   -0.2091 H   0  0  0  0  0  0  0  0  0  0  0  0
    1.7512   -0.4850    0.1941 H   0  0  0  0  0  0  0  0  0  0  0  0
   -0.4758    3.9553   -1.9579 H   0  0  0  0  0  0  0  0  0  0  0  0
   -2.6068    2.9796   -1.2849 H   0  0  0  0  0  0  0  0  0  0  0  0
   -4.3216    2.1207   -0.7049 H   0  0  0  0  0  0  0  0  0  0  0  0
   -6.4031    1.0404    0.0190 H   0  0  0  0  0  0  0  0  0  0  0  0
   -5.8144   -3.3012    0.3544 H   0  0  0  0  0  0  0  0  0  0  0  0
   -6.2507   -3.4212    2.1438 H   0  0  0  0  0  0  0  0  0  0  0  0
   -2.0549   -1.1059    0.8095 H   0  0  0  0  0  0  0  0  0  0  0  0
    4.2250   -0.9785   -2.1216 H   0  0  0  0  0  0  0  0  0  0  0  0
  1  2  1  0
  2  3  2  0
  3  4  1  0
  4  5  2  0
  5  6  1  0
  6  7  1  0
  7  8  1  0
  8  9  2  0
  9 10  1  0
 10 11  2  0
 11 12  1  0
 12 13  2  0
 12 14  1  0
 14 15  2  0
 15 16  1  0
 16 17  2  0
 17 18  1  0
 18 19  1  0
 19 20  1  0
 20 21  1  0
 21 22  2  0
  5 23  1  0
 23 24  2  0
 24 25  1  0
 24  2  1  0
 13  8  1  0
 22 14  1  0
 21 17  1  0
  3 26  1  0
  4 27  1  0
  6 28  1  0
  6 29  1  0
  7 30  1  0
 10 31  1  0
 11 32  1  0
 15 33  1  0
 16 34  1  0
 19 35  1  0
 19 36  1  0
 22 37  1  0
 23 38  1  0
M  END
$$$$
[H]/C(=C1/SC(=S)N([H])C1=O)c1c([H])c([H])c2nc([H])sc2c1[H]
     RDKit          3D

 23 25  0  0  0  0  0  0  0  0999 V2000
   -3.1415    0.2944   -2.9481 O   0  0  0  0  0  0  0  0  0  0  0  0
   -3.1700   -0.0993   -1.7240 C   0  0  0  0  0  0  0  0  0  0  0  0
   -4.3089   -0.5205   -1.0592 N   0  0  0  0  0  0  0  0  0  0  0  0
   -4.1549   -0.9161    0.2755 C   0  0  0  0  0  0  0  0  0  0  0  0
   -5.2881   -1.2827    1.3530 S   0  0  0  0  0  0  0  0  0  0  0  0
   -2.4054   -0.9421    0.5809 S   0  0  0  0  0  0  0  0  0  0  0  0
   -1.9337   -0.1138   -0.9597 C   0  0  0  0  0  0  0  0  0  0  0  0
   -0.7415    0.3357   -1.2725 C   0  0  0  0  0  0  0  0  0  0  0  0
    0.3991    0.2432   -0.3842 C   0  0  0  0  0  0  0  0  0  0  0  0
    0.3873    0.4942    0.9663 C   0  0  0  0  0  0  0  0  0  0  0  0
    1.4803    0.3867    1.7897 C   0  0  0  0  0  0  0  0  0  0  0  0
    2.7242   -0.0058    1.2539 C   0  0  0  0  0  0  0  0  0  0  0  0
    3.8402   -0.1464    1.9261 N   0  0  0  0  0  0  0  0  0  0  0  0
    4.9380   -0.5204    1.3018 C   0  0  0  0  0  0  0  0  0  0  0  0
    4.4004   -0.6892   -0.3121 S   0  0  0  0  0  0  0  0  0  0  0  0
    2.7631   -0.2612   -0.0889 C   0  0  0  0  0  0  0  0  0  0  0  0
    1.6376   -0.1463   -0.9128 C   0  0  0  0  0  0  0  0  0  0  0  0
   -5.2697   -0.5497   -1.5248 H   0  0  0  0  0  0  0  0  0  0  0  0
   -0.6364    0.7966   -2.2576 H   0  0  0  0  0  0  0  0  0  0  0  0
   -0.5888    0.8150    1.3929 H   0  0  0  0  0  0  0  0  0  0  0  0
    1.3453    0.6086    2.8260 H   0  0  0  0  0  0  0  0  0  0  0  0
    5.9492   -0.6815    1.7266 H   0  0  0  0  0  0  0  0  0  0  0  0
    1.7743   -0.3685   -1.9488 H   0  0  0  0  0  0  0  0  0  0  0  0
  1  2  2  0
  2  3  1  0
  3  4  1  0
  4  5  2  0
  4  6  1  0
  6  7  1  0
  7  8  2  0
  8  9  1  0
  9 10  2  0
 10 11  1  0
 11 12  2  0
 12 13  1  0
 13 14  2  0
 14 15  1  0
 15 16  1  0
 16 17  2  0
  7  2  1  0
 17  9  1  0
 16 12  1  0
  3 18  1  0
  8 19  1  0
 10 20  1  0
 11 21  1  0
 14 22  1  0
 17 23  1  0
M  END
$$$$
[H]OC(=O)c1c([H])c([H])c2c(nc(N([H])c3c([H])c([H])c([H])c(Cl)c3[H])c3c([H])c([H])nc([H])c32)c1[H]
     RDKit          3D

 37 40  0  0  0  0  0  0  0  0999 V2000
   -3.4146    3.9437   -0.0682 O   0  0  0  0  0  0  0  0  0  0  0  0
   -4.1350    2.7925   -0.1302 C   0  0  0  0  0  0  0  0  0  0  0  0
   -5.3837    2.8270   -0.1958 O   0  0  0  0  0  0  0  0  0  0  0  0
   -3.4739    1.5010   -0.1217 C   0  0  0  0  0  0  0  0  0  0  0  0
   -4.1468    0.3110   -0.1820 C   0  0  0  0  0  0  0  0  0  0  0  0
   -3.4773   -0.9061   -0.1715 C   0  0  0  0  0  0  0  0  0  0  0  0
   -2.1073   -0.9361   -0.0993 C   0  0  0  0  0  0  0  0  0  0  0  0
   -1.4105    0.2721   -0.0374 C   0  0  0  0  0  0  0  0  0  0  0  0
   -2.1071    1.4592   -0.0500 C   0  0  0  0  0  0  0  0  0  0  0  0
   -0.0791    0.2363    0.0325 N   0  0  0  0  0  0  0  0  0  0  0  0
    0.6747   -0.8649    0.0497 C   0  0  0  0  0  0  0  0  0  0  0  0
    2.0790   -0.8229    0.0949 N   0  0  0  0  0  0  0  0  0  0  0  0
    2.8969    0.3350    0.1894 C   0  0  0  0  0  0  0  0  0  0  0  0
    2.5044    1.5250    0.7226 C   0  0  0  0  0  0  0  0  0  0  0  0
    3.3695    2.6328    0.7467 C   0  0  0  0  0  0  0  0  0  0  0  0
    4.6439    2.5731    0.2395 C   0  0  0  0  0  0  0  0  0  0  0  0
    5.0552    1.3775   -0.3016 C   0  0  0  0  0  0  0  0  0  0  0  0
    6.6791    1.2877   -0.9516 Cl  0  0  0  0  0  0  0  0  0  0  0  0
    4.2074    0.3035   -0.3220 C   0  0  0  0  0  0  0  0  0  0  0  0
    0.0131   -2.0812   -0.0102 C   0  0  0  0  0  0  0  0  0  0  0  0
    0.7017   -3.2670    0.0039 C   0  0  0  0  0  0  0  0  0  0  0  0
   -0.0190   -4.4547   -0.0572 C   0  0  0  0  0  0  0  0  0  0  0  0
   -1.3471   -4.4577   -0.1280 N   0  0  0  0  0  0  0  0  0  0  0  0
   -2.0701   -3.3073   -0.1445 C   0  0  0  0  0  0  0  0  0  0  0  0
   -1.3814   -2.1258   -0.0852 C   0  0  0  0  0  0  0  0  0  0  0  0
   -3.6409    4.7797    0.4453 H   0  0  0  0  0  0  0  0  0  0  0  0
   -5.2350    0.3443   -0.2391 H   0  0  0  0  0  0  0  0  0  0  0  0
   -4.0443   -1.8025   -0.2201 H   0  0  0  0  0  0  0  0  0  0  0  0
   -1.5490    2.4034   -0.0009 H   0  0  0  0  0  0  0  0  0  0  0  0
    2.6357   -1.7310    0.0588 H   0  0  0  0  0  0  0  0  0  0  0  0
    1.5233    1.6252    1.1521 H   0  0  0  0  0  0  0  0  0  0  0  0
    3.0097    3.5611    1.1823 H   0  0  0  0  0  0  0  0  0  0  0  0
    5.3161    3.4357    0.2583 H   0  0  0  0  0  0  0  0  0  0  0  0
    4.5137   -0.6450   -0.7449 H   0  0  0  0  0  0  0  0  0  0  0  0
    1.7832   -3.3285    0.0623 H   0  0  0  0  0  0  0  0  0  0  0  0
    0.5577   -5.3882   -0.0443 H   0  0  0  0  0  0  0  0  0  0  0  0
   -3.1421   -3.4081   -0.2035 H   0  0  0  0  0  0  0  0  0  0  0  0
  1  2  1  0
  2  3  2  0
  2  4  1  0
  4  5  2  0
  5  6  1  0
  6  7  2  0
  7  8  1  0
  8  9  2  0
  8 10  1  0
 10 11  2  0
 11 12  1  0
 12 13  1  0
 13 14  2  0
 14 15  1  0
 15 16  2  0
 16 17  1  0
 17 18  1  0
 17 19  2  0
 11 20  1  0
 20 21  2  0
 21 22  1  0
 22 23  2  0
 23 24  1  0
 24 25  2  0
  9  4  1  0
 19 13  1  0
 25 20  1  0
 25  7  1  0
  1 26  1  0
  5 27  1  0
  6 28  1  0
  9 29  1  0
 12 30  1  0
 14 31  1  0
 15 32  1  0
 16 33  1  0
 19 34  1  0
 21 35  1  0
 22 36  1  0
 24 37  1  0
M  END
$$$$
[H]c1sc(-c2c([H])c([H])c3c(c2[H])C([H])([H])C([H])([H])O3)nc1C(=O)N([H])c1nc2c([H])c(OC([H])([H])[H])c([H])c([H])c2n1[H]
     RDKit          3D

 44 48  0  0  0  0  0  0  0  0999 V2000
   -8.6288    0.7152   -0.7474 C   0  0  0  0  0  0  0  0  0  0  0  0
   -7.9563   -0.4840   -0.4231 O   0  0  0  0  0  0  0  0  0  0  0  0
   -6.5772   -0.4251   -0.1879 C   0  0  0  0  0  0  0  0  0  0  0  0
   -5.8963    0.7714   -0.2711 C   0  0  0  0  0  0  0  0  0  0  0  0
   -4.5453    0.8557   -0.0452 C   0  0  0  0  0  0  0  0  0  0  0  0
   -3.8564   -0.3007    0.2747 C   0  0  0  0  0  0  0  0  0  0  0  0
   -2.5229   -0.5208    0.5489 N   0  0  0  0  0  0  0  0  0  0  0  0
   -2.3707   -1.8120    0.7977 C   0  0  0  0  0  0  0  0  0  0  0  0
   -1.2050   -2.5572    1.0621 N   0  0  0  0  0  0  0  0  0  0  0  0
    0.1122   -2.2672    1.2663 C   0  0  0  0  0  0  0  0  0  0  0  0
    0.9092   -3.3249    1.2908 O   0  0  0  0  0  0  0  0  0  0  0  0
    0.8181   -0.9864    1.4685 C   0  0  0  0  0  0  0  0  0  0  0  0
    0.3113    0.0143    2.2590 C   0  0  0  0  0  0  0  0  0  0  0  0
    1.4911    1.2339    2.1076 S   0  0  0  0  0  0  0  0  0  0  0  0
    2.5588    0.4155    1.0563 C   0  0  0  0  0  0  0  0  0  0  0  0
    1.9629   -0.7383    0.8770 N   0  0  0  0  0  0  0  0  0  0  0  0
    3.8461    0.8905    0.4811 C   0  0  0  0  0  0  0  0  0  0  0  0
    4.3299    2.1280    0.7620 C   0  0  0  0  0  0  0  0  0  0  0  0
    5.5244    2.5317    0.2109 C   0  0  0  0  0  0  0  0  0  0  0  0
    6.2546    1.6901   -0.6369 C   0  0  0  0  0  0  0  0  0  0  0  0
    7.4656    1.8236   -1.3251 O   0  0  0  0  0  0  0  0  0  0  0  0
    7.9879    0.5294   -1.5569 C   0  0  0  0  0  0  0  0  0  0  0  0
    6.7016   -0.2610   -1.8295 C   0  0  0  0  0  0  0  0  0  0  0  0
    5.7596    0.4343   -0.9194 C   0  0  0  0  0  0  0  0  0  0  0  0
    4.5587    0.0578   -0.3516 C   0  0  0  0  0  0  0  0  0  0  0  0
   -3.6104   -2.4167    0.6800 N   0  0  0  0  0  0  0  0  0  0  0  0
   -4.5136   -1.4927    0.3613 C   0  0  0  0  0  0  0  0  0  0  0  0
   -5.8938   -1.5763    0.1302 C   0  0  0  0  0  0  0  0  0  0  0  0
   -8.1749    1.2249   -1.6231 H   0  0  0  0  0  0  0  0  0  0  0  0
   -8.5705    1.4013    0.1308 H   0  0  0  0  0  0  0  0  0  0  0  0
   -9.7007    0.4854   -0.9133 H   0  0  0  0  0  0  0  0  0  0  0  0
   -6.4815    1.6518   -0.5254 H   0  0  0  0  0  0  0  0  0  0  0  0
   -4.0228    1.7960   -0.1128 H   0  0  0  0  0  0  0  0  0  0  0  0
   -1.8492    0.2556    0.5101 H   0  0  0  0  0  0  0  0  0  0  0  0
   -1.3809   -3.6730    0.9769 H   0  0  0  0  0  0  0  0  0  0  0  0
   -0.6330   -0.0054    2.8410 H   0  0  0  0  0  0  0  0  0  0  0  0
    3.7749    2.7805    1.4124 H   0  0  0  0  0  0  0  0  0  0  0  0
    5.9349    3.4952    0.4086 H   0  0  0  0  0  0  0  0  0  0  0  0
    8.6931    0.4755   -2.3863 H   0  0  0  0  0  0  0  0  0  0  0  0
    8.3765    0.1276   -0.5975 H   0  0  0  0  0  0  0  0  0  0  0  0
    6.4334   -0.1294   -2.8968 H   0  0  0  0  0  0  0  0  0  0  0  0
    6.8284   -1.3342   -1.5768 H   0  0  0  0  0  0  0  0  0  0  0  0
    4.1460   -0.9307   -0.5596 H   0  0  0  0  0  0  0  0  0  0  0  0
   -6.3888   -2.5492    0.2082 H   0  0  0  0  0  0  0  0  0  0  0  0
  1  2  1  0
  2  3  1  0
  3  4  2  0
  4  5  1  0
  5  6  2  0
  6  7  1  0
  7  8  1  0
  8  9  1  0
  9 10  1  0
 10 11  2  0
 10 12  1  0
 12 13  2  0
 13 14  1  0
 14 15  1  0
 15 16  2  0
 15 17  1  0
 17 18  2  0
 18 19  1  0
 19 20  2  0
 20 21  1  0
 21 22  1  0
 22 23  1  0
 23 24  1  0
 24 25  2  0
  8 26  2  0
 26 27  1  0
 27 28  2  0
 28  3  1  0
 27  6  1  0
 16 12  1  0
 25 17  1  0
 24 20  1  0
  1 29  1  0
  1 30  1  0
  1 31  1  0
  4 32  1  0
  5 33  1  0
  7 34  1  0
  9 35  1  0
 13 36  1  0
 18 37  1  0
 19 38  1  0
 22 39  1  0
 22 40  1  0
 23 41  1  0
 23 42  1  0
 25 43  1  0
 28 44  1  0
M  END
$$$$
[H]c1sc(-c2c([H])c([H])c3c(c2[H])C([H])([H])C([H])([H])O3)nc1C(=O)N([H])c1nc(SC([H])([H])C([H])(C([H])([H])[H])C([H])([H])[H])nn1[H]
     RDKit          3D

 46 49  0  0  0  0  0  0  0  0999 V2000
   -7.8269   -1.5657    0.4535 C   0  0  0  0  0  0  0  0  0  0  0  0
   -7.0497   -0.3226    0.1027 C   0  0  0  0  0  0  0  0  0  0  0  0
   -7.8900    0.8949    0.3227 C   0  0  0  0  0  0  0  0  0  0  0  0
   -6.5859   -0.3676   -1.3450 C   0  0  0  0  0  0  0  0  0  0  0  0
   -5.6612    1.1066   -1.7814 S   0  0  0  0  0  0  0  0  0  0  0  0
   -4.1216    1.2172   -0.8922 C   0  0  0  0  0  0  0  0  0  0  0  0
   -3.8659    1.7848    0.2935 N   0  0  0  0  0  0  0  0  0  0  0  0
   -2.5901    1.6616    0.6146 N   0  0  0  0  0  0  0  0  0  0  0  0
   -2.0034    0.9923   -0.3981 C   0  0  0  0  0  0  0  0  0  0  0  0
   -0.6496    0.6272   -0.5082 N   0  0  0  0  0  0  0  0  0  0  0  0
   -0.1048   -0.0751   -1.6072 C   0  0  0  0  0  0  0  0  0  0  0  0
   -0.8408   -0.4099   -2.5480 O   0  0  0  0  0  0  0  0  0  0  0  0
    1.3348   -0.4244   -1.6662 C   0  0  0  0  0  0  0  0  0  0  0  0
    1.8664   -1.1089   -2.7353 C   0  0  0  0  0  0  0  0  0  0  0  0
    3.5124   -1.2286   -2.2902 S   0  0  0  0  0  0  0  0  0  0  0  0
    3.4204   -0.4039   -0.7785 C   0  0  0  0  0  0  0  0  0  0  0  0
    2.1595   -0.0961   -0.7135 N   0  0  0  0  0  0  0  0  0  0  0  0
    4.5306   -0.1419    0.1556 C   0  0  0  0  0  0  0  0  0  0  0  0
    4.2816    0.5141    1.3152 C   0  0  0  0  0  0  0  0  0  0  0  0
    5.3112    0.7865    2.2270 C   0  0  0  0  0  0  0  0  0  0  0  0
    6.6035    0.3762    1.9335 C   0  0  0  0  0  0  0  0  0  0  0  0
    7.8284    0.4884    2.6132 O   0  0  0  0  0  0  0  0  0  0  0  0
    8.8707    0.4400    1.6470 C   0  0  0  0  0  0  0  0  0  0  0  0
    8.3137   -0.6076    0.6970 C   0  0  0  0  0  0  0  0  0  0  0  0
    6.8637   -0.2914    0.7557 C   0  0  0  0  0  0  0  0  0  0  0  0
    5.8105   -0.5459   -0.1308 C   0  0  0  0  0  0  0  0  0  0  0  0
   -2.9459    0.7222   -1.3184 N   0  0  0  0  0  0  0  0  0  0  0  0
   -8.9065   -1.2959    0.4507 H   0  0  0  0  0  0  0  0  0  0  0  0
   -7.5723   -1.8903    1.4805 H   0  0  0  0  0  0  0  0  0  0  0  0
   -7.5879   -2.3368   -0.3055 H   0  0  0  0  0  0  0  0  0  0  0  0
   -6.1263   -0.3264    0.7476 H   0  0  0  0  0  0  0  0  0  0  0  0
   -7.6292    1.4540    1.2484 H   0  0  0  0  0  0  0  0  0  0  0  0
   -7.8358    1.5687   -0.5684 H   0  0  0  0  0  0  0  0  0  0  0  0
   -8.9799    0.6426    0.4286 H   0  0  0  0  0  0  0  0  0  0  0  0
   -7.4871   -0.4339   -1.9999 H   0  0  0  0  0  0  0  0  0  0  0  0
   -5.9723   -1.2671   -1.5529 H   0  0  0  0  0  0  0  0  0  0  0  0
   -2.1010    2.0125    1.4918 H   0  0  0  0  0  0  0  0  0  0  0  0
    0.0223    0.8887    0.2692 H   0  0  0  0  0  0  0  0  0  0  0  0
    1.3463   -1.4778   -3.6393 H   0  0  0  0  0  0  0  0  0  0  0  0
    3.3006    0.8532    1.5909 H   0  0  0  0  0  0  0  0  0  0  0  0
    5.0947    1.3111    3.1474 H   0  0  0  0  0  0  0  0  0  0  0  0
    9.8357    0.1354    2.0531 H   0  0  0  0  0  0  0  0  0  0  0  0
    8.8775    1.4173    1.1114 H   0  0  0  0  0  0  0  0  0  0  0  0
    8.5342   -1.6348    1.0302 H   0  0  0  0  0  0  0  0  0  0  0  0
    8.6460   -0.4122   -0.3446 H   0  0  0  0  0  0  0  0  0  0  0  0
    5.9694   -1.0618   -1.0577 H   0  0  0  0  0  0  0  0  0  0  0  0
  1  2  1  0
  2  3  1  0
  2  4  1  0
  4  5  1  0
  5  6  1  0
  6  7  2  0
  7  8  1  0
  8  9  1  0
  9 10  1  0
 10 11  1  0
 11 12  2  0
 11 13  1  0
 13 14  2  0
 14 15  1  0
 15 16  1  0
 16 17  2  0
 16 18  1  0
 18 19  2  0
 19 20  1  0
 20 21  2  0
 21 22  1  0
 22 23  1  0
 23 24  1  0
 24 25  1  0
 25 26  2  0
  9 27  2  0
 27  6  1  0
 17 13  1  0
 26 18  1  0
 25 21  1  0
  1 28  1  0
  1 29  1  0
  1 30  1  0
  2 31  1  0
  3 32  1  0
  3 33  1  0
  3 34  1  0
  4 35  1  0
  4 36  1  0
  8 37  1  0
 10 38  1  0
 14 39  1  0
 19 40  1  0
 20 41  1  0
 23 42  1  0
 23 43  1  0
 24 44  1  0
 24 45  1  0
 26 46  1  0
M  END
$$$$
[H]c1c([H])c([H])c(C([H])(N([H])C(=O)c2c([H])c([H])c(Cl)c(N([H])C(=O)c3c([H])c4c([H])nc(N5C([H])([H])C([H])([H])C([H])(N([H])[H])C([H])([H])C5([H])[H])nc4n([H])c3=O)c2[H])C([H])([H])C([H])([H])N([H])[H])c([H])c1[H]
     RDKit          3D

 72 76  0  0  0  0  0  0  0  0999 V2000
   -8.0563    2.3028    0.2671 N   0  0  0  0  0  0  0  0  0  0  0  0
   -8.8414    1.1209    0.0056 C   0  0  0  0  0  0  0  0  0  0  0  0
   -8.1510   -0.1678    0.3618 C   0  0  0  0  0  0  0  0  0  0  0  0
   -6.8770   -0.4280   -0.3792 C   0  0  0  0  0  0  0  0  0  0  0  0
   -5.9280    0.6078   -0.1176 N   0  0  0  0  0  0  0  0  0  0  0  0
   -5.3043    1.4165   -1.0722 C   0  0  0  0  0  0  0  0  0  0  0  0
   -5.5801    1.2570   -2.2842 O   0  0  0  0  0  0  0  0  0  0  0  0
   -4.3354    2.4490   -0.7286 C   0  0  0  0  0  0  0  0  0  0  0  0
   -4.6729    3.7702   -0.5322 C   0  0  0  0  0  0  0  0  0  0  0  0
   -3.6966    4.6854   -0.2074 C   0  0  0  0  0  0  0  0  0  0  0  0
   -2.3781    4.3334   -0.0681 C   0  0  0  0  0  0  0  0  0  0  0  0
   -1.1867    5.5419    0.3454 Cl  0  0  0  0  0  0  0  0  0  0  0  0
   -1.9926    2.9927   -0.2612 C   0  0  0  0  0  0  0  0  0  0  0  0
   -0.6400    2.6707   -0.1048 N   0  0  0  0  0  0  0  0  0  0  0  0
   -0.0225    1.4510   -0.2984 C   0  0  0  0  0  0  0  0  0  0  0  0
   -0.6527    0.4119   -0.6796 O   0  0  0  0  0  0  0  0  0  0  0  0
    1.4097    1.2205   -0.0935 C   0  0  0  0  0  0  0  0  0  0  0  0
    2.0418    0.1874   -0.8094 C   0  0  0  0  0  0  0  0  0  0  0  0
    3.3853   -0.0028   -0.6553 C   0  0  0  0  0  0  0  0  0  0  0  0
    4.0055   -1.0257   -1.3742 C   0  0  0  0  0  0  0  0  0  0  0  0
    5.3146   -1.1968   -1.2193 N   0  0  0  0  0  0  0  0  0  0  0  0
    6.0984   -0.4490   -0.4109 C   0  0  0  0  0  0  0  0  0  0  0  0
    5.5172    0.5448    0.2928 N   0  0  0  0  0  0  0  0  0  0  0  0
    4.1805    0.7577    0.1663 C   0  0  0  0  0  0  0  0  0  0  0  0
    3.5622    1.7391    0.8435 N   0  0  0  0  0  0  0  0  0  0  0  0
    2.2164    1.9592    0.7137 C   0  0  0  0  0  0  0  0  0  0  0  0
    1.7854    2.9163    1.4191 O   0  0  0  0  0  0  0  0  0  0  0  0
    7.4926   -0.7072   -0.3206 N   0  0  0  0  0  0  0  0  0  0  0  0
    8.3347   -0.0511    0.6340 C   0  0  0  0  0  0  0  0  0  0  0  0
    9.6209   -0.8547    0.7205 C   0  0  0  0  0  0  0  0  0  0  0  0
    9.3819   -2.3369    0.7612 C   0  0  0  0  0  0  0  0  0  0  0  0
   10.6588   -3.0055    0.7438 N   0  0  0  0  0  0  0  0  0  0  0  0
    8.5604   -2.8347   -0.4125 C   0  0  0  0  0  0  0  0  0  0  0  0
    8.0797   -1.6632   -1.2342 C   0  0  0  0  0  0  0  0  0  0  0  0
   -2.9918    2.1101   -0.5831 C   0  0  0  0  0  0  0  0  0  0  0  0
   -6.3202   -1.7757   -0.0581 C   0  0  0  0  0  0  0  0  0  0  0  0
   -6.4776   -2.8343   -0.9315 C   0  0  0  0  0  0  0  0  0  0  0  0
   -5.9420   -4.0642   -0.5864 C   0  0  0  0  0  0  0  0  0  0  0  0
   -5.2693   -4.1860    0.6210 C   0  0  0  0  0  0  0  0  0  0  0  0
   -5.1199   -3.1089    1.4892 C   0  0  0  0  0  0  0  0  0  0  0  0
   -5.6548   -1.8883    1.1401 C   0  0  0  0  0  0  0  0  0  0  0  0
   -8.1511    2.9938   -0.5282 H   0  0  0  0  0  0  0  0  0  0  0  0
   -8.3189    2.7927    1.1436 H   0  0  0  0  0  0  0  0  0  0  0  0
   -9.1593    1.1483   -1.0595 H   0  0  0  0  0  0  0  0  0  0  0  0
   -9.7474    1.2187    0.6753 H   0  0  0  0  0  0  0  0  0  0  0  0
   -7.9760   -0.1121    1.4802 H   0  0  0  0  0  0  0  0  0  0  0  0
   -8.8677   -1.0381    0.2808 H   0  0  0  0  0  0  0  0  0  0  0  0
   -7.1121   -0.4535   -1.4782 H   0  0  0  0  0  0  0  0  0  0  0  0
   -5.6689    0.7850    0.8996 H   0  0  0  0  0  0  0  0  0  0  0  0
   -5.7039    4.0815   -0.6340 H   0  0  0  0  0  0  0  0  0  0  0  0
   -3.9403    5.7403   -0.0464 H   0  0  0  0  0  0  0  0  0  0  0  0
   -0.0101    3.4811    0.1826 H   0  0  0  0  0  0  0  0  0  0  0  0
    1.4284   -0.4223   -1.4630 H   0  0  0  0  0  0  0  0  0  0  0  0
    3.3828   -1.6267   -2.0217 H   0  0  0  0  0  0  0  0  0  0  0  0
    4.1341    2.3482    1.4874 H   0  0  0  0  0  0  0  0  0  0  0  0
    7.8398    0.0173    1.6300 H   0  0  0  0  0  0  0  0  0  0  0  0
    8.5594    0.9674    0.2576 H   0  0  0  0  0  0  0  0  0  0  0  0
   10.1199   -0.5705    1.6550 H   0  0  0  0  0  0  0  0  0  0  0  0
   10.3033   -0.6135   -0.1078 H   0  0  0  0  0  0  0  0  0  0  0  0
    8.8149   -2.6032    1.6927 H   0  0  0  0  0  0  0  0  0  0  0  0
   11.4292   -2.3284    0.5939 H   0  0  0  0  0  0  0  0  0  0  0  0
   10.7056   -3.7011   -0.0334 H   0  0  0  0  0  0  0  0  0  0  0  0
    7.6513   -3.3829   -0.0848 H   0  0  0  0  0  0  0  0  0  0  0  0
    9.1674   -3.4971   -1.0532 H   0  0  0  0  0  0  0  0  0  0  0  0
    7.4194   -1.9488   -2.0508 H   0  0  0  0  0  0  0  0  0  0  0  0
    8.9859   -1.1444   -1.6647 H   0  0  0  0  0  0  0  0  0  0  0  0
   -2.7714    1.0692   -0.7415 H   0  0  0  0  0  0  0  0  0  0  0  0
   -7.0113   -2.7268   -1.8833 H   0  0  0  0  0  0  0  0  0  0  0  0
   -6.0568   -4.9010   -1.2600 H   0  0  0  0  0  0  0  0  0  0  0  0
   -4.8584   -5.1736    0.8617 H   0  0  0  0  0  0  0  0  0  0  0  0
   -4.5927   -3.2427    2.4136 H   0  0  0  0  0  0  0  0  0  0  0  0
   -5.5495   -1.0220    1.8131 H   0  0  0  0  0  0  0  0  0  0  0  0
  1  2  1  0
  2  3  1  0
  3  4  1  0
  4  5  1  0
  5  6  1  0
  6  7  2  0
  6  8  1  0
  8  9  2  0
  9 10  1  0
 10 11  2  0
 11 12  1  0
 11 13  1  0
 13 14  1  0
 14 15  1  0
 15 16  2  0
 15 17  1  0
 17 18  2  0
 18 19  1  0
 19 20  2  0
 20 21  1  0
 21 22  2  0
 22 23  1  0
 23 24  2  0
 24 25  1  0
 25 26  1  0
 26 27  2  0
 22 28  1  0
 28 29  1  0
 29 30  1  0
 30 31  1  0
 31 32  1  0
 31 33  1  0
 33 34  1  0
 13 35  2  0
  4 36  1  0
 36 37  2  0
 37 38  1  0
 38 39  2  0
 39 40  1  0
 40 41  2  0
 35  8  1  0
 41 36  1  0
 26 17  1  0
 34 28  1  0
 24 19  1  0
  1 42  1  0
  1 43  1  0
  2 44  1  0
  2 45  1  0
  3 46  1  0
  3 47  1  0
  4 48  1  0
  5 49  1  0
  9 50  1  0
 10 51  1  0
 14 52  1  0
 18 53  1  0
 20 54  1  0
 25 55  1  0
 29 56  1  0
 29 57  1  0
 30 58  1  0
 30 59  1  0
 31 60  1  0
 32 61  1  0
 32 62  1  0
 33 63  1  0
 33 64  1  0
 34 65  1  0
 34 66  1  0
 35 67  1  0
 37 68  1  0
 38 69  1  0
 39 70  1  0
 40 71  1  0
 41 72  1  0
M  END
$$$$
[H]c1nc(-c2c([H])n(C([H])([H])[H])c3c([H])nc([H])c([H])c23)c([H])c(N([H])c2c([H])c([H])c(N3C([H])([H])C([H])([H])N(C(=O)C([H])([H])[H])C([H])([H])C3([H])[H])c([H])c2OC([H])([H])[H])n1
     RDKit          3D

 61 65  0  0  0  0  0  0  0  0999 V2000
    1.2185   -1.5450   -3.4390 C   0  0  0  0  0  0  0  0  0  0  0  0
    0.4519   -1.1104   -2.3350 O   0  0  0  0  0  0  0  0  0  0  0  0
    1.1193   -0.7832   -1.1643 C   0  0  0  0  0  0  0  0  0  0  0  0
    2.4929   -0.8836   -1.0939 C   0  0  0  0  0  0  0  0  0  0  0  0
    3.1764   -0.5661    0.0511 C   0  0  0  0  0  0  0  0  0  0  0  0
    2.4235   -0.1463    1.1149 C   0  0  0  0  0  0  0  0  0  0  0  0
    1.0251   -0.0318    1.0807 C   0  0  0  0  0  0  0  0  0  0  0  0
    0.3686   -0.3516   -0.0644 C   0  0  0  0  0  0  0  0  0  0  0  0
   -1.0195   -0.2801   -0.2222 N   0  0  0  0  0  0  0  0  0  0  0  0
   -2.0158    0.1104    0.6773 C   0  0  0  0  0  0  0  0  0  0  0  0
   -3.3538    0.0978    0.2954 C   0  0  0  0  0  0  0  0  0  0  0  0
   -4.3815    0.4787    1.1542 C   0  0  0  0  0  0  0  0  0  0  0  0
   -4.0550    0.8695    2.3907 N   0  0  0  0  0  0  0  0  0  0  0  0
   -2.7640    0.8842    2.7665 C   0  0  0  0  0  0  0  0  0  0  0  0
   -1.7871    0.5121    1.9211 N   0  0  0  0  0  0  0  0  0  0  0  0
   -5.7718    0.4317    0.6585 C   0  0  0  0  0  0  0  0  0  0  0  0
   -6.1771    0.0388   -0.5972 C   0  0  0  0  0  0  0  0  0  0  0  0
   -7.5155    0.1381   -0.6489 N   0  0  0  0  0  0  0  0  0  0  0  0
   -8.3360   -0.1884   -1.8159 C   0  0  0  0  0  0  0  0  0  0  0  0
   -7.9978    0.5846    0.5363 C   0  0  0  0  0  0  0  0  0  0  0  0
   -9.2988    0.8374    0.9438 C   0  0  0  0  0  0  0  0  0  0  0  0
   -9.5261    1.2825    2.1904 N   0  0  0  0  0  0  0  0  0  0  0  0
   -8.4772    1.4688    3.0051 C   0  0  0  0  0  0  0  0  0  0  0  0
   -7.1674    1.2285    2.6366 C   0  0  0  0  0  0  0  0  0  0  0  0
   -6.9005    0.7711    1.3641 C   0  0  0  0  0  0  0  0  0  0  0  0
    4.6026   -0.6510    0.1711 N   0  0  0  0  0  0  0  0  0  0  0  0
    5.1809   -0.3953    1.4649 C   0  0  0  0  0  0  0  0  0  0  0  0
    6.6764   -0.6245    1.4773 C   0  0  0  0  0  0  0  0  0  0  0  0
    7.2642   -0.0970    0.2653 N   0  0  0  0  0  0  0  0  0  0  0  0
    6.7985   -0.6109   -0.9970 C   0  0  0  0  0  0  0  0  0  0  0  0
    5.3659   -0.9809   -0.9810 C   0  0  0  0  0  0  0  0  0  0  0  0
    8.2692    0.8963    0.3244 C   0  0  0  0  0  0  0  0  0  0  0  0
    8.8965    1.4623   -0.8925 C   0  0  0  0  0  0  0  0  0  0  0  0
    8.6491    1.3188    1.4435 O   0  0  0  0  0  0  0  0  0  0  0  0
    1.9678   -0.7438   -3.6564 H   0  0  0  0  0  0  0  0  0  0  0  0
    0.6127   -1.8045   -4.3082 H   0  0  0  0  0  0  0  0  0  0  0  0
    1.8330   -2.4230   -3.0907 H   0  0  0  0  0  0  0  0  0  0  0  0
    3.0422   -1.2258   -1.9690 H   0  0  0  0  0  0  0  0  0  0  0  0
    2.9064    0.1169    2.0419 H   0  0  0  0  0  0  0  0  0  0  0  0
    0.5232    0.3105    1.9792 H   0  0  0  0  0  0  0  0  0  0  0  0
   -1.4193   -0.5690   -1.1929 H   0  0  0  0  0  0  0  0  0  0  0  0
   -3.6264   -0.2207   -0.7140 H   0  0  0  0  0  0  0  0  0  0  0  0
   -2.5561    1.2138    3.7926 H   0  0  0  0  0  0  0  0  0  0  0  0
   -5.5272   -0.2954   -1.4106 H   0  0  0  0  0  0  0  0  0  0  0  0
   -9.3925   -0.2547   -1.5459 H   0  0  0  0  0  0  0  0  0  0  0  0
   -7.9870   -1.1663   -2.2019 H   0  0  0  0  0  0  0  0  0  0  0  0
   -8.1208    0.5600   -2.6062 H   0  0  0  0  0  0  0  0  0  0  0  0
  -10.1148    0.6675    0.2368 H   0  0  0  0  0  0  0  0  0  0  0  0
   -8.6331    1.8315    4.0292 H   0  0  0  0  0  0  0  0  0  0  0  0
   -6.3452    1.3862    3.3090 H   0  0  0  0  0  0  0  0  0  0  0  0
    5.0043    0.6303    1.8366 H   0  0  0  0  0  0  0  0  0  0  0  0
    4.6657   -1.0842    2.1818 H   0  0  0  0  0  0  0  0  0  0  0  0
    7.1532   -0.2120    2.3781 H   0  0  0  0  0  0  0  0  0  0  0  0
    6.8315   -1.7294    1.5007 H   0  0  0  0  0  0  0  0  0  0  0  0
    7.4163   -1.5447   -1.1813 H   0  0  0  0  0  0  0  0  0  0  0  0
    7.0458    0.1408   -1.8095 H   0  0  0  0  0  0  0  0  0  0  0  0
    5.2460   -2.0755   -1.2577 H   0  0  0  0  0  0  0  0  0  0  0  0
    4.9001   -0.4687   -1.8848 H   0  0  0  0  0  0  0  0  0  0  0  0
    8.2254    2.2207   -1.3810 H   0  0  0  0  0  0  0  0  0  0  0  0
    9.0448    0.6526   -1.6351 H   0  0  0  0  0  0  0  0  0  0  0  0
    9.8694    1.9212   -0.6899 H   0  0  0  0  0  0  0  0  0  0  0  0
  1  2  1  0
  2  3  1  0
  3  4  2  0
  4  5  1  0
  5  6  2  0
  6  7  1  0
  7  8  2  0
  8  9  1  0
  9 10  1  0
 10 11  2  0
 11 12  1  0
 12 13  2  0
 13 14  1  0
 14 15  2  0
 12 16  1  0
 16 17  2  0
 17 18  1  0
 18 19  1  0
 18 20  1  0
 20 21  2  0
 21 22  1  0
 22 23  2  0
 23 24  1  0
 24 25  2  0
  5 26  1  0
 26 27  1  0
 27 28  1  0
 28 29  1  0
 29 30  1  0
 30 31  1  0
 29 32  1  0
 32 33  1  0
 32 34  2  0
  8  3  1  0
 15 10  1  0
 25 16  1  0
 31 26  1  0
 25 20  1  0
  1 35  1  0
  1 36  1  0
  1 37  1  0
  4 38  1  0
  6 39  1  0
  7 40  1  0
  9 41  1  0
 11 42  1  0
 14 43  1  0
 17 44  1  0
 19 45  1  0
 19 46  1  0
 19 47  1  0
 21 48  1  0
 23 49  1  0
 24 50  1  0
 27 51  1  0
 27 52  1  0
 28 53  1  0
 28 54  1  0
 30 55  1  0
 30 56  1  0
 31 57  1  0
 31 58  1  0
 33 59  1  0
 33 60  1  0
 33 61  1  0
M  END
$$$$
[H]c1sc(-c2c([H])c([H])c3c(c2[H])C([H])([H])C([H])([H])O3)nc1C(=O)N([H])c1nc2c([H])c(C(=O)N(C([H])([H])[H])C([H])([H])[H])c([H])c([H])c2n1[H]
     RDKit          3D

 50 54  0  0  0  0  0  0  0  0999 V2000
   -7.7667   -0.2984   -0.5565 C   0  0  0  0  0  0  0  0  0  0  0  0
   -6.6919    0.1561   -1.3459 N   0  0  0  0  0  0  0  0  0  0  0  0
   -7.0771    0.5653   -2.7386 C   0  0  0  0  0  0  0  0  0  0  0  0
   -5.3549    0.2831   -1.0451 C   0  0  0  0  0  0  0  0  0  0  0  0
   -4.5788    0.7530   -2.0125 O   0  0  0  0  0  0  0  0  0  0  0  0
   -4.6827   -0.0316    0.1987 C   0  0  0  0  0  0  0  0  0  0  0  0
   -5.2337   -0.5510    1.3355 C   0  0  0  0  0  0  0  0  0  0  0  0
   -4.4481   -0.7945    2.4708 C   0  0  0  0  0  0  0  0  0  0  0  0
   -3.0868   -0.5140    2.4706 C   0  0  0  0  0  0  0  0  0  0  0  0
   -2.1120   -0.6382    3.3816 N   0  0  0  0  0  0  0  0  0  0  0  0
   -0.9354   -0.1911    2.8082 C   0  0  0  0  0  0  0  0  0  0  0  0
    0.2741   -0.2022    3.5454 N   0  0  0  0  0  0  0  0  0  0  0  0
    1.5160    0.2198    3.1435 C   0  0  0  0  0  0  0  0  0  0  0  0
    2.4916   -0.0259    3.9816 O   0  0  0  0  0  0  0  0  0  0  0  0
    1.9336    0.9164    1.8946 C   0  0  0  0  0  0  0  0  0  0  0  0
    1.2789    1.9932    1.3535 C   0  0  0  0  0  0  0  0  0  0  0  0
    2.1905    2.2819   -0.0675 S   0  0  0  0  0  0  0  0  0  0  0  0
    3.3386    1.0340    0.1062 C   0  0  0  0  0  0  0  0  0  0  0  0
    2.9682    0.4707    1.2256 N   0  0  0  0  0  0  0  0  0  0  0  0
    4.4711    0.6785   -0.7879 C   0  0  0  0  0  0  0  0  0  0  0  0
    4.6668    1.4145   -1.9163 C   0  0  0  0  0  0  0  0  0  0  0  0
    5.7298    1.0931   -2.7693 C   0  0  0  0  0  0  0  0  0  0  0  0
    6.5650    0.0391   -2.4605 C   0  0  0  0  0  0  0  0  0  0  0  0
    7.6764   -0.4586   -3.1549 O   0  0  0  0  0  0  0  0  0  0  0  0
    8.3858   -1.3649   -2.3244 C   0  0  0  0  0  0  0  0  0  0  0  0
    7.4167   -1.7774   -1.2384 C   0  0  0  0  0  0  0  0  0  0  0  0
    6.3772   -0.7158   -1.3183 C   0  0  0  0  0  0  0  0  0  0  0  0
    5.3026   -0.3606   -0.4929 C   0  0  0  0  0  0  0  0  0  0  0  0
   -1.2244    0.1938    1.5627 N   0  0  0  0  0  0  0  0  0  0  0  0
   -2.5135    0.0091    1.3361 C   0  0  0  0  0  0  0  0  0  0  0  0
   -3.2874    0.2466    0.2242 C   0  0  0  0  0  0  0  0  0  0  0  0
   -8.7745   -0.1697   -1.1045 H   0  0  0  0  0  0  0  0  0  0  0  0
   -7.9460    0.3118    0.3625 H   0  0  0  0  0  0  0  0  0  0  0  0
   -7.7110   -1.3648   -0.2522 H   0  0  0  0  0  0  0  0  0  0  0  0
   -7.5944    1.5342   -2.6609 H   0  0  0  0  0  0  0  0  0  0  0  0
   -7.7467   -0.2500   -3.1042 H   0  0  0  0  0  0  0  0  0  0  0  0
   -6.2060    0.5608   -3.4014 H   0  0  0  0  0  0  0  0  0  0  0  0
   -6.2687   -0.7906    1.3956 H   0  0  0  0  0  0  0  0  0  0  0  0
   -4.9176   -1.2006    3.3377 H   0  0  0  0  0  0  0  0  0  0  0  0
   -2.2614   -1.0104    4.3395 H   0  0  0  0  0  0  0  0  0  0  0  0
    0.2610   -0.6744    4.5302 H   0  0  0  0  0  0  0  0  0  0  0  0
    0.4028    2.5563    1.7416 H   0  0  0  0  0  0  0  0  0  0  0  0
    4.0276    2.2448   -2.1817 H   0  0  0  0  0  0  0  0  0  0  0  0
    5.9044    1.6623   -3.6691 H   0  0  0  0  0  0  0  0  0  0  0  0
    9.2448   -0.8740   -1.8201 H   0  0  0  0  0  0  0  0  0  0  0  0
    8.7894   -2.2287   -2.8892 H   0  0  0  0  0  0  0  0  0  0  0  0
    7.0125   -2.7805   -1.3861 H   0  0  0  0  0  0  0  0  0  0  0  0
    7.8692   -1.6907   -0.2165 H   0  0  0  0  0  0  0  0  0  0  0  0
    5.1060   -0.9176    0.4177 H   0  0  0  0  0  0  0  0  0  0  0  0
   -2.7809    0.6574   -0.6333 H   0  0  0  0  0  0  0  0  0  0  0  0
  1  2  1  0
  2  3  1  0
  2  4  1  0
  4  5  2  0
  4  6  1  0
  6  7  2  0
  7  8  1  0
  8  9  2  0
  9 10  1  0
 10 11  1  0
 11 12  1  0
 12 13  1  0
 13 14  2  0
 13 15  1  0
 15 16  2  0
 16 17  1  0
 17 18  1  0
 18 19  2  0
 18 20  1  0
 20 21  2  0
 21 22  1  0
 22 23  2  0
 23 24  1  0
 24 25  1  0
 25 26  1  0
 26 27  1  0
 27 28  2  0
 11 29  2  0
 29 30  1  0
 30 31  2  0
 31  6  1  0
 30  9  1  0
 19 15  1  0
 28 20  1  0
 27 23  1  0
  1 32  1  0
  1 33  1  0
  1 34  1  0
  3 35  1  0
  3 36  1  0
  3 37  1  0
  7 38  1  0
  8 39  1  0
 10 40  1  0
 12 41  1  0
 16 42  1  0
 21 43  1  0
 22 44  1  0
 25 45  1  0
 25 46  1  0
 26 47  1  0
 26 48  1  0
 28 49  1  0
 31 50  1  0
M  END
$$$$
[H]c1nc([H])c2c([H])c(C#N)c3c4c([H])c([H])c([H])c(OC([H])([H])[H])c4n([H])c3c2c1[H]
     RDKit          3D

 32 35  0  0  0  0  0  0  0  0999 V2000
    4.5540    1.6768    0.2410 C   0  0  0  0  0  0  0  0  0  0  0  0
    3.1518    1.4978    0.2372 O   0  0  0  0  0  0  0  0  0  0  0  0
    2.6034    0.2546   -0.0094 C   0  0  0  0  0  0  0  0  0  0  0  0
    3.4152   -0.8167   -0.2527 C   0  0  0  0  0  0  0  0  0  0  0  0
    2.8488   -2.0658   -0.5001 C   0  0  0  0  0  0  0  0  0  0  0  0
    1.4788   -2.2332   -0.5023 C   0  0  0  0  0  0  0  0  0  0  0  0
    0.6929   -1.1393   -0.2549 C   0  0  0  0  0  0  0  0  0  0  0  0
    1.2375    0.1064   -0.0077 C   0  0  0  0  0  0  0  0  0  0  0  0
    0.2757    1.0159    0.2054 N   0  0  0  0  0  0  0  0  0  0  0  0
   -0.9039    0.3800    0.1008 C   0  0  0  0  0  0  0  0  0  0  0  0
   -0.6858   -0.9759   -0.1877 C   0  0  0  0  0  0  0  0  0  0  0  0
   -1.7479   -1.8239   -0.3395 C   0  0  0  0  0  0  0  0  0  0  0  0
   -3.0521   -1.3174   -0.2025 C   0  0  0  0  0  0  0  0  0  0  0  0
   -3.2314    0.0141    0.0800 C   0  0  0  0  0  0  0  0  0  0  0  0
   -4.5067    0.5384    0.2200 C   0  0  0  0  0  0  0  0  0  0  0  0
   -4.6946    1.8402    0.4965 N   0  0  0  0  0  0  0  0  0  0  0  0
   -3.6475    2.6725    0.6453 C   0  0  0  0  0  0  0  0  0  0  0  0
   -2.3544    2.2226    0.5204 C   0  0  0  0  0  0  0  0  0  0  0  0
   -2.1726    0.8820    0.2360 C   0  0  0  0  0  0  0  0  0  0  0  0
   -1.5719   -3.2125   -0.6338 C   0  0  0  0  0  0  0  0  0  0  0  0
   -1.4697   -4.3611   -0.8763 N   0  0  0  0  0  0  0  0  0  0  0  0
    4.9839    0.9132    0.9321 H   0  0  0  0  0  0  0  0  0  0  0  0
    4.8293    2.6872    0.5698 H   0  0  0  0  0  0  0  0  0  0  0  0
    4.9718    1.5057   -0.7806 H   0  0  0  0  0  0  0  0  0  0  0  0
    4.4864   -0.6742   -0.2486 H   0  0  0  0  0  0  0  0  0  0  0  0
    3.5508   -2.8706   -0.6850 H   0  0  0  0  0  0  0  0  0  0  0  0
    1.1071   -3.2073   -0.6969 H   0  0  0  0  0  0  0  0  0  0  0  0
    0.4071    2.0502    0.4183 H   0  0  0  0  0  0  0  0  0  0  0  0
   -3.8718   -2.0048   -0.3265 H   0  0  0  0  0  0  0  0  0  0  0  0
   -5.3263   -0.1629    0.0931 H   0  0  0  0  0  0  0  0  0  0  0  0
   -3.8646    3.7097    0.8672 H   0  0  0  0  0  0  0  0  0  0  0  0
   -1.4934    2.8983    0.6410 H   0  0  0  0  0  0  0  0  0  0  0  0
  1  2  1  0
  2  3  1  0
  3  4  2  0
  4  5  1  0
  5  6  2  0
  6  7  1  0
  7  8  2  0
  8  9  1  0
  9 10  1  0
 10 11  2  0
 11 12  1  0
 12 13  2  0
 13 14  1  0
 14 15  2  0
 15 16  1  0
 16 17  2  0
 17 18  1  0
 18 19  2  0
 12 20  1  0
 20 21  3  0
  8  3  1  0
 19 10  1  0
 11  7  1  0
 19 14  1  0
  1 22  1  0
  1 23  1  0
  1 24  1  0
  4 25  1  0
  5 26  1  0
  6 27  1  0
  9 28  1  0
 13 29  1  0
 15 30  1  0
 17 31  1  0
 18 32  1  0
M  END
$$$$
[H]c1nc(N([H])C(=O)c2nc(-c3c([H])c([H])c4c(c3[H])C([H])([H])C([H])([H])O4)sc2[H])sc1[H]
     RDKit          3D

 33 36  0  0  0  0  0  0  0  0999 V2000
   -2.6887   -2.7781   -1.8429 O   0  0  0  0  0  0  0  0  0  0  0  0
   -2.9931   -1.7993   -1.0399 C   0  0  0  0  0  0  0  0  0  0  0  0
   -4.2598   -1.3021   -1.1516 N   0  0  0  0  0  0  0  0  0  0  0  0
   -4.8711   -0.1467   -0.5490 C   0  0  0  0  0  0  0  0  0  0  0  0
   -6.1696    0.1790   -0.6466 N   0  0  0  0  0  0  0  0  0  0  0  0
   -6.5929    1.2701   -0.1135 C   0  0  0  0  0  0  0  0  0  0  0  0
   -5.7002    2.0716    0.5417 C   0  0  0  0  0  0  0  0  0  0  0  0
   -4.2658    1.1743    0.3412 S   0  0  0  0  0  0  0  0  0  0  0  0
   -1.9273   -1.3607   -0.1192 C   0  0  0  0  0  0  0  0  0  0  0  0
   -2.1584   -1.1069    1.2097 C   0  0  0  0  0  0  0  0  0  0  0  0
   -0.6190   -0.5974    1.7458 S   0  0  0  0  0  0  0  0  0  0  0  0
    0.2223   -0.7358    0.2681 C   0  0  0  0  0  0  0  0  0  0  0  0
   -0.7122   -1.1612   -0.5535 N   0  0  0  0  0  0  0  0  0  0  0  0
    1.6375   -0.4575   -0.0434 C   0  0  0  0  0  0  0  0  0  0  0  0
    2.0693   -0.6527   -1.3299 C   0  0  0  0  0  0  0  0  0  0  0  0
    3.4161   -0.3828   -1.6050 C   0  0  0  0  0  0  0  0  0  0  0  0
    4.2903    0.0635   -0.6306 C   0  0  0  0  0  0  0  0  0  0  0  0
    5.6564    0.3949   -0.6638 O   0  0  0  0  0  0  0  0  0  0  0  0
    5.8958    1.2846    0.4095 C   0  0  0  0  0  0  0  0  0  0  0  0
    4.9568    0.7261    1.4798 C   0  0  0  0  0  0  0  0  0  0  0  0
    3.8223    0.2491    0.6532 C   0  0  0  0  0  0  0  0  0  0  0  0
    2.4812   -0.0181    0.9337 C   0  0  0  0  0  0  0  0  0  0  0  0
   -4.9157   -1.7845   -1.8905 H   0  0  0  0  0  0  0  0  0  0  0  0
   -7.6628    1.5843   -0.1675 H   0  0  0  0  0  0  0  0  0  0  0  0
   -5.9054    3.0314    1.0472 H   0  0  0  0  0  0  0  0  0  0  0  0
   -3.1016   -1.2322    1.7809 H   0  0  0  0  0  0  0  0  0  0  0  0
    1.4208   -0.9985   -2.1155 H   0  0  0  0  0  0  0  0  0  0  0  0
    3.7935   -0.5214   -2.5928 H   0  0  0  0  0  0  0  0  0  0  0  0
    6.9573    1.1625    0.7359 H   0  0  0  0  0  0  0  0  0  0  0  0
    5.6446    2.3111    0.1262 H   0  0  0  0  0  0  0  0  0  0  0  0
    5.4653   -0.1197    1.9626 H   0  0  0  0  0  0  0  0  0  0  0  0
    4.6523    1.5110    2.1956 H   0  0  0  0  0  0  0  0  0  0  0  0
    2.1619    0.1418    1.9511 H   0  0  0  0  0  0  0  0  0  0  0  0
  1  2  2  0
  2  3  1  0
  3  4  1  0
  4  5  2  0
  5  6  1  0
  6  7  2  0
  7  8  1  0
  2  9  1  0
  9 10  2  0
 10 11  1  0
 11 12  1  0
 12 13  2  0
 12 14  1  0
 14 15  2  0
 15 16  1  0
 16 17  2  0
 17 18  1  0
 18 19  1  0
 19 20  1  0
 20 21  1  0
 21 22  2  0
  8  4  1  0
 13  9  1  0
 22 14  1  0
 21 17  1  0
  3 23  1  0
  6 24  1  0
  7 25  1  0
 10 26  1  0
 15 27  1  0
 16 28  1  0
 19 29  1  0
 19 30  1  0
 20 31  1  0
 20 32  1  0
 22 33  1  0
M  END
$$$$
[H]N=C(OC([H])([H])[H])c1nc2c([H])c([H])c3nc([H])nc(N([H])c4c([H])c(Br)c5c(c4[H])OC([H])([H])O5)c3c2s1
     RDKit          3D

 40 44  0  0  0  0  0  0  0  0999 V2000
   -5.8675    3.9833    0.1285 C   0  0  0  0  0  0  0  0  0  0  0  0
   -5.2414    2.7545   -0.2112 O   0  0  0  0  0  0  0  0  0  0  0  0
   -3.8814    2.6670   -0.1801 C   0  0  0  0  0  0  0  0  0  0  0  0
   -3.0879    3.6646   -0.2413 N   0  0  0  0  0  0  0  0  0  0  0  0
   -3.2991    1.3201   -0.0675 C   0  0  0  0  0  0  0  0  0  0  0  0
   -3.9115    0.1551    0.0096 N   0  0  0  0  0  0  0  0  0  0  0  0
   -3.2207   -0.9469    0.1061 C   0  0  0  0  0  0  0  0  0  0  0  0
   -3.7690   -2.2488    0.2015 C   0  0  0  0  0  0  0  0  0  0  0  0
   -2.9455   -3.3144    0.3039 C   0  0  0  0  0  0  0  0  0  0  0  0
   -1.5737   -3.2253    0.3227 C   0  0  0  0  0  0  0  0  0  0  0  0
   -0.7565   -4.2635    0.4308 N   0  0  0  0  0  0  0  0  0  0  0  0
    0.5868   -4.0457    0.4459 C   0  0  0  0  0  0  0  0  0  0  0  0
    1.1183   -2.8422    0.3569 N   0  0  0  0  0  0  0  0  0  0  0  0
    0.3485   -1.7161    0.2420 C   0  0  0  0  0  0  0  0  0  0  0  0
    0.9785   -0.4594    0.0899 N   0  0  0  0  0  0  0  0  0  0  0  0
    2.3919   -0.3308    0.1864 C   0  0  0  0  0  0  0  0  0  0  0  0
    3.0253    0.6314   -0.6008 C   0  0  0  0  0  0  0  0  0  0  0  0
    4.3836    0.8566   -0.5522 C   0  0  0  0  0  0  0  0  0  0  0  0
    5.2505    1.7347   -1.2150 O   0  0  0  0  0  0  0  0  0  0  0  0
    6.4904    1.7758   -0.5380 C   0  0  0  0  0  0  0  0  0  0  0  0
    6.5081    0.5424    0.1530 O   0  0  0  0  0  0  0  0  0  0  0  0
    5.1759    0.1234    0.2933 C   0  0  0  0  0  0  0  0  0  0  0  0
    4.5542   -0.8269    1.0722 C   0  0  0  0  0  0  0  0  0  0  0  0
    5.6585   -1.8433    2.2453 Br  0  0  0  0  0  0  0  0  0  0  0  0
    3.1728   -1.0622    1.0293 C   0  0  0  0  0  0  0  0  0  0  0  0
   -1.0047   -1.9522    0.2293 C   0  0  0  0  0  0  0  0  0  0  0  0
   -1.8518   -0.8412    0.1233 C   0  0  0  0  0  0  0  0  0  0  0  0
   -1.6718    0.8496   -0.0015 S   0  0  0  0  0  0  0  0  0  0  0  0
   -5.5542    4.2042    1.1851 H   0  0  0  0  0  0  0  0  0  0  0  0
   -5.5426    4.7798   -0.5454 H   0  0  0  0  0  0  0  0  0  0  0  0
   -6.9647    3.8443    0.1547 H   0  0  0  0  0  0  0  0  0  0  0  0
   -2.0525    3.5525   -0.2142 H   0  0  0  0  0  0  0  0  0  0  0  0
   -4.8433   -2.4126    0.1943 H   0  0  0  0  0  0  0  0  0  0  0  0
   -3.4084   -4.3151    0.3766 H   0  0  0  0  0  0  0  0  0  0  0  0
    1.1875   -4.9532    0.5380 H   0  0  0  0  0  0  0  0  0  0  0  0
    0.4795    0.3949   -0.1037 H   0  0  0  0  0  0  0  0  0  0  0  0
    2.4262    1.2154   -1.2681 H   0  0  0  0  0  0  0  0  0  0  0  0
    6.5867    2.6400    0.1356 H   0  0  0  0  0  0  0  0  0  0  0  0
    7.2979    1.7321   -1.3046 H   0  0  0  0  0  0  0  0  0  0  0  0
    2.8271   -1.8220    1.7120 H   0  0  0  0  0  0  0  0  0  0  0  0
  1  2  1  0
  2  3  1  0
  3  4  2  3
  3  5  1  0
  5  6  2  0
  6  7  1  0
  7  8  2  0
  8  9  1  0
  9 10  2  0
 10 11  1  0
 11 12  2  0
 12 13  1  0
 13 14  2  0
 14 15  1  0
 15 16  1  0
 16 17  2  0
 17 18  1  0
 18 19  1  0
 19 20  1  0
 20 21  1  0
 21 22  1  0
 22 23  1  0
 23 24  1  0
 23 25  2  0
 14 26  1  0
 26 27  2  0
 27 28  1  0
 28  5  1  0
 27  7  1  0
 26 10  1  0
 25 16  1  0
 22 18  2  0
  1 29  1  0
  1 30  1  0
  1 31  1  0
  4 32  1  0
  8 33  1  0
  9 34  1  0
 12 35  1  0
 15 36  1  0
 17 37  1  0
 20 38  1  0
 20 39  1  0
 25 40  1  0
M  END
$$$$
[H]c1sc(C([H])([H])N([H])C(=O)c2c([H])c([H])c(Cl)c(N([H])C(=O)c3c([H])c4c([H])nc(OC([H])([H])[H])nc4n([H])c3=O)c2[H])c([H])c1[H]
     RDKit          3D

 48 51  0  0  0  0  0  0  0  0999 V2000
    8.0450    0.2857    4.0565 C   0  0  0  0  0  0  0  0  0  0  0  0
    7.0776   -0.7510    4.0252 O   0  0  0  0  0  0  0  0  0  0  0  0
    5.9291   -0.7251    3.2731 C   0  0  0  0  0  0  0  0  0  0  0  0
    5.0636   -1.7805    3.3217 N   0  0  0  0  0  0  0  0  0  0  0  0
    3.9356   -1.7790    2.5948 C   0  0  0  0  0  0  0  0  0  0  0  0
    3.6134   -0.7023    1.7695 C   0  0  0  0  0  0  0  0  0  0  0  0
    2.4547   -0.7366    1.0401 C   0  0  0  0  0  0  0  0  0  0  0  0
    2.1637    0.3744    0.2111 C   0  0  0  0  0  0  0  0  0  0  0  0
    0.9602    0.3117   -0.5859 C   0  0  0  0  0  0  0  0  0  0  0  0
    0.0264   -0.3869   -0.1182 O   0  0  0  0  0  0  0  0  0  0  0  0
    0.8121    0.9705   -1.8036 N   0  0  0  0  0  0  0  0  0  0  0  0
   -0.3050    1.0067   -2.6706 C   0  0  0  0  0  0  0  0  0  0  0  0
   -1.4995    0.4272   -2.3633 C   0  0  0  0  0  0  0  0  0  0  0  0
   -2.5625    0.5136   -3.2708 C   0  0  0  0  0  0  0  0  0  0  0  0
   -2.4575    1.1624   -4.4716 C   0  0  0  0  0  0  0  0  0  0  0  0
   -1.2385    1.7457   -4.7681 C   0  0  0  0  0  0  0  0  0  0  0  0
   -0.1844    1.6787   -3.9043 C   0  0  0  0  0  0  0  0  0  0  0  0
    1.3405    2.4256   -4.3188 Cl  0  0  0  0  0  0  0  0  0  0  0  0
   -3.8316   -0.0988   -2.9212 C   0  0  0  0  0  0  0  0  0  0  0  0
   -4.6448   -0.4298   -3.8505 O   0  0  0  0  0  0  0  0  0  0  0  0
   -4.2402   -0.3589   -1.5947 N   0  0  0  0  0  0  0  0  0  0  0  0
   -5.5007   -0.9662   -1.2943 C   0  0  0  0  0  0  0  0  0  0  0  0
   -5.6785   -1.0792    0.2042 C   0  0  0  0  0  0  0  0  0  0  0  0
   -6.7865   -1.4955    0.8836 C   0  0  0  0  0  0  0  0  0  0  0  0
   -6.7106   -1.5098    2.2296 C   0  0  0  0  0  0  0  0  0  0  0  0
   -5.5308   -1.1060    2.7943 C   0  0  0  0  0  0  0  0  0  0  0  0
   -4.5668   -0.7208    1.4469 S   0  0  0  0  0  0  0  0  0  0  0  0
    3.0629    1.3940    0.2061 C   0  0  0  0  0  0  0  0  0  0  0  0
    2.8676    2.4064   -0.4979 O   0  0  0  0  0  0  0  0  0  0  0  0
    4.2067    1.3866    0.9498 N   0  0  0  0  0  0  0  0  0  0  0  0
    4.4993    0.3477    1.7371 C   0  0  0  0  0  0  0  0  0  0  0  0
    5.6396    0.3227    2.4856 N   0  0  0  0  0  0  0  0  0  0  0  0
    8.9466   -0.0436    3.5416 H   0  0  0  0  0  0  0  0  0  0  0  0
    7.5796    1.1858    3.5788 H   0  0  0  0  0  0  0  0  0  0  0  0
    8.2729    0.4868    5.1217 H   0  0  0  0  0  0  0  0  0  0  0  0
    3.2281   -2.5976    2.6075 H   0  0  0  0  0  0  0  0  0  0  0  0
    1.7615   -1.5610    1.0674 H   0  0  0  0  0  0  0  0  0  0  0  0
    1.6591    1.5116   -2.1532 H   0  0  0  0  0  0  0  0  0  0  0  0
   -1.7072   -0.1030   -1.4594 H   0  0  0  0  0  0  0  0  0  0  0  0
   -3.2815    1.2342   -5.1823 H   0  0  0  0  0  0  0  0  0  0  0  0
   -1.1629    2.2600   -5.7242 H   0  0  0  0  0  0  0  0  0  0  0  0
   -3.6125   -0.1019   -0.8011 H   0  0  0  0  0  0  0  0  0  0  0  0
   -6.3561   -0.4527   -1.7687 H   0  0  0  0  0  0  0  0  0  0  0  0
   -5.5400   -2.0354   -1.6413 H   0  0  0  0  0  0  0  0  0  0  0  0
   -7.7244   -1.8123    0.3551 H   0  0  0  0  0  0  0  0  0  0  0  0
   -7.5581   -1.8312    2.8864 H   0  0  0  0  0  0  0  0  0  0  0  0
   -5.3158   -1.0615    3.8788 H   0  0  0  0  0  0  0  0  0  0  0  0
    4.8507    2.2007    0.8979 H   0  0  0  0  0  0  0  0  0  0  0  0
  1  2  1  0
  2  3  1  0
  3  4  2  0
  4  5  1  0
  5  6  2  0
  6  7  1  0
  7  8  2  0
  8  9  1  0
  9 10  2  0
  9 11  1  0
 11 12  1  0
 12 13  2  0
 13 14  1  0
 14 15  2  0
 15 16  1  0
 16 17  2  0
 17 18  1  0
 14 19  1  0
 19 20  2  0
 19 21  1  0
 21 22  1  0
 22 23  1  0
 23 24  2  0
 24 25  1  0
 25 26  2  0
 26 27  1  0
  8 28  1  0
 28 29  2  0
 28 30  1  0
 30 31  1  0
 31 32  2  0
 32  3  1  0
 31  6  1  0
 17 12  1  0
 27 23  1  0
  1 33  1  0
  1 34  1  0
  1 35  1  0
  5 36  1  0
  7 37  1  0
 11 38  1  0
 13 39  1  0
 15 40  1  0
 16 41  1  0
 21 42  1  0
 22 43  1  0
 22 44  1  0
 24 45  1  0
 25 46  1  0
 26 47  1  0
 30 48  1  0
M  END
$$$$
[H]c1sc(-c2c([H])c([H])c3c(c2[H])C([H])([H])C([H])([H])O3)nc1C(=O)N([H])c1nc2c([H])c(C(=O)N3C([H])([H])C([H])([H])N(C([H])([H])C([H])([H])[H])C([H])([H])C3([H])[H])c([H])c([H])c2n1[H]
     RDKit          3D

 62 67  0  0  0  0  0  0  0  0999 V2000
  -10.4943    0.4521    0.7042 C   0  0  0  0  0  0  0  0  0  0  0  0
   -9.9996    0.6798   -0.6942 C   0  0  0  0  0  0  0  0  0  0  0  0
   -8.5747    0.4786   -0.7162 N   0  0  0  0  0  0  0  0  0  0  0  0
   -7.8364    1.4545   -0.0077 C   0  0  0  0  0  0  0  0  0  0  0  0
   -6.3228    1.2115   -0.3109 C   0  0  0  0  0  0  0  0  0  0  0  0
   -5.9662   -0.0808    0.1828 N   0  0  0  0  0  0  0  0  0  0  0  0
   -7.1373   -0.9319    0.6048 C   0  0  0  0  0  0  0  0  0  0  0  0
   -8.1704   -0.8588   -0.4922 C   0  0  0  0  0  0  0  0  0  0  0  0
   -4.7204   -0.6413    0.3169 C   0  0  0  0  0  0  0  0  0  0  0  0
   -4.7208   -1.8589    0.8299 O   0  0  0  0  0  0  0  0  0  0  0  0
   -3.4298   -0.1407    0.0023 C   0  0  0  0  0  0  0  0  0  0  0  0
   -3.1681    1.0425   -0.6324 C   0  0  0  0  0  0  0  0  0  0  0  0
   -1.8480    1.4784   -0.8768 C   0  0  0  0  0  0  0  0  0  0  0  0
   -0.7827    0.7098   -0.4760 C   0  0  0  0  0  0  0  0  0  0  0  0
    0.5531    0.8400   -0.5566 N   0  0  0  0  0  0  0  0  0  0  0  0
    1.1562   -0.2356    0.0126 C   0  0  0  0  0  0  0  0  0  0  0  0
    2.5523   -0.4422    0.1108 N   0  0  0  0  0  0  0  0  0  0  0  0
    3.0202   -1.6241    0.7364 C   0  0  0  0  0  0  0  0  0  0  0  0
    2.2342   -2.4895    1.2026 O   0  0  0  0  0  0  0  0  0  0  0  0
    4.4931   -1.8296    0.8350 C   0  0  0  0  0  0  0  0  0  0  0  0
    5.0080   -2.9681    1.4210 C   0  0  0  0  0  0  0  0  0  0  0  0
    6.6877   -2.7005    1.2765 S   0  0  0  0  0  0  0  0  0  0  0  0
    6.6378   -1.1871    0.4953 C   0  0  0  0  0  0  0  0  0  0  0  0
    5.3421   -0.9642    0.3851 N   0  0  0  0  0  0  0  0  0  0  0  0
    7.7260   -0.3091    0.0385 C   0  0  0  0  0  0  0  0  0  0  0  0
    7.4430    0.8878   -0.5736 C   0  0  0  0  0  0  0  0  0  0  0  0
    8.5031    1.6986   -0.9940 C   0  0  0  0  0  0  0  0  0  0  0  0
    9.8205    1.3105   -0.8010 C   0  0  0  0  0  0  0  0  0  0  0  0
   11.0064    1.9647   -1.1418 O   0  0  0  0  0  0  0  0  0  0  0  0
   12.0033    1.4499   -0.2809 C   0  0  0  0  0  0  0  0  0  0  0  0
   11.5721    0.0038   -0.1372 C   0  0  0  0  0  0  0  0  0  0  0  0
   10.0916    0.1063   -0.1850 C   0  0  0  0  0  0  0  0  0  0  0  0
    9.0428   -0.6926    0.2291 C   0  0  0  0  0  0  0  0  0  0  0  0
    0.1504   -1.0246    0.4421 N   0  0  0  0  0  0  0  0  0  0  0  0
   -1.0518   -0.4807    0.1618 C   0  0  0  0  0  0  0  0  0  0  0  0
   -2.3205   -0.9259    0.4111 C   0  0  0  0  0  0  0  0  0  0  0  0
  -11.5663    0.1680    0.6470 H   0  0  0  0  0  0  0  0  0  0  0  0
  -10.4180    1.4080    1.2891 H   0  0  0  0  0  0  0  0  0  0  0  0
   -9.9332   -0.3437    1.2050 H   0  0  0  0  0  0  0  0  0  0  0  0
  -10.4568   -0.1270   -1.3289 H   0  0  0  0  0  0  0  0  0  0  0  0
  -10.3184    1.6438   -1.0871 H   0  0  0  0  0  0  0  0  0  0  0  0
   -8.0235    2.5008   -0.3890 H   0  0  0  0  0  0  0  0  0  0  0  0
   -7.9740    1.4537    1.0720 H   0  0  0  0  0  0  0  0  0  0  0  0
   -5.8002    2.0009    0.2799 H   0  0  0  0  0  0  0  0  0  0  0  0
   -6.1674    1.2813   -1.3878 H   0  0  0  0  0  0  0  0  0  0  0  0
   -7.5432   -0.4704    1.5175 H   0  0  0  0  0  0  0  0  0  0  0  0
   -6.7966   -1.9486    0.8042 H   0  0  0  0  0  0  0  0  0  0  0  0
   -7.7246   -1.3443   -1.4106 H   0  0  0  0  0  0  0  0  0  0  0  0
   -9.0620   -1.4900   -0.2421 H   0  0  0  0  0  0  0  0  0  0  0  0
   -3.9611    1.6730   -0.9808 H   0  0  0  0  0  0  0  0  0  0  0  0
   -1.7341    2.4136   -1.3773 H   0  0  0  0  0  0  0  0  0  0  0  0
    1.0243    1.6592   -0.9981 H   0  0  0  0  0  0  0  0  0  0  0  0
    3.1951    0.2713   -0.2737 H   0  0  0  0  0  0  0  0  0  0  0  0
    4.4515   -3.8167    1.8613 H   0  0  0  0  0  0  0  0  0  0  0  0
    6.4131    1.1695   -0.7133 H   0  0  0  0  0  0  0  0  0  0  0  0
    8.2758    2.6495   -1.4802 H   0  0  0  0  0  0  0  0  0  0  0  0
   12.0152    1.9536    0.7007 H   0  0  0  0  0  0  0  0  0  0  0  0
   12.9643    1.4949   -0.8065 H   0  0  0  0  0  0  0  0  0  0  0  0
   11.8789   -0.3651    0.8722 H   0  0  0  0  0  0  0  0  0  0  0  0
   11.9772   -0.6396   -0.9216 H   0  0  0  0  0  0  0  0  0  0  0  0
    9.2463   -1.6421    0.7142 H   0  0  0  0  0  0  0  0  0  0  0  0
   -2.4625   -1.8593    0.9118 H   0  0  0  0  0  0  0  0  0  0  0  0
  1  2  1  0
  2  3  1  0
  3  4  1  0
  4  5  1  0
  5  6  1  0
  6  7  1  0
  7  8  1  0
  6  9  1  0
  9 10  2  0
  9 11  1  0
 11 12  2  0
 12 13  1  0
 13 14  2  0
 14 15  1  0
 15 16  1  0
 16 17  1  0
 17 18  1  0
 18 19  2  0
 18 20  1  0
 20 21  2  0
 21 22  1  0
 22 23  1  0
 23 24  2  0
 23 25  1  0
 25 26  2  0
 26 27  1  0
 27 28  2  0
 28 29  1  0
 29 30  1  0
 30 31  1  0
 31 32  1  0
 32 33  2  0
 16 34  2  0
 34 35  1  0
 35 36  2  0
  8  3  1  0
 36 11  1  0
 35 14  1  0
 24 20  1  0
 33 25  1  0
 32 28  1  0
  1 37  1  0
  1 38  1  0
  1 39  1  0
  2 40  1  0
  2 41  1  0
  4 42  1  0
  4 43  1  0
  5 44  1  0
  5 45  1  0
  7 46  1  0
  7 47  1  0
  8 48  1  0
  8 49  1  0
 12 50  1  0
 13 51  1  0
 15 52  1  0
 17 53  1  0
 21 54  1  0
 26 55  1  0
 27 56  1  0
 30 57  1  0
 30 58  1  0
 31 59  1  0
 31 60  1  0
 33 61  1  0
 36 62  1  0
M  END
$$$$
[H]c1nc(-c2c([H])n([H])c3c([H])nc([H])c([H])c23)c([H])c(N([H])c2c([H])c([H])c(N3C([H])([H])C([H])([H])N(C(=O)C([H])([H])[H])C([H])([H])C3([H])[H])c([H])c2OC([H])([H])[H])n1
     RDKit          3D

 58 62  0  0  0  0  0  0  0  0999 V2000
    1.0843    3.7800    0.9854 C   0  0  0  0  0  0  0  0  0  0  0  0
    0.2368    2.7132    0.7072 O   0  0  0  0  0  0  0  0  0  0  0  0
    0.7441    1.4653    0.4170 C   0  0  0  0  0  0  0  0  0  0  0  0
    2.1086    1.3155    0.4127 C   0  0  0  0  0  0  0  0  0  0  0  0
    2.6848    0.1026    0.1326 C   0  0  0  0  0  0  0  0  0  0  0  0
    1.8432   -0.9505   -0.1421 C   0  0  0  0  0  0  0  0  0  0  0  0
    0.4574   -0.7939   -0.1367 C   0  0  0  0  0  0  0  0  0  0  0  0
   -0.1468    0.4030    0.1389 C   0  0  0  0  0  0  0  0  0  0  0  0
   -1.5294    0.6586    0.1685 N   0  0  0  0  0  0  0  0  0  0  0  0
   -2.5706   -0.2595   -0.0818 C   0  0  0  0  0  0  0  0  0  0  0  0
   -3.9073    0.1908   -0.0027 C   0  0  0  0  0  0  0  0  0  0  0  0
   -4.9567   -0.6586   -0.2370 C   0  0  0  0  0  0  0  0  0  0  0  0
   -4.6843   -1.9257   -0.5427 N   0  0  0  0  0  0  0  0  0  0  0  0
   -3.4346   -2.4102   -0.6322 C   0  0  0  0  0  0  0  0  0  0  0  0
   -2.4504   -1.5421   -0.3949 N   0  0  0  0  0  0  0  0  0  0  0  0
   -6.3385   -0.1555   -0.1464 C   0  0  0  0  0  0  0  0  0  0  0  0
   -6.6947    1.1374    0.1654 C   0  0  0  0  0  0  0  0  0  0  0  0
   -8.0550    1.2422    0.1575 N   0  0  0  0  0  0  0  0  0  0  0  0
   -8.5879    0.0535   -0.1507 C   0  0  0  0  0  0  0  0  0  0  0  0
   -9.8818   -0.3950   -0.2943 C   0  0  0  0  0  0  0  0  0  0  0  0
  -10.1116   -1.6779   -0.6184 N   0  0  0  0  0  0  0  0  0  0  0  0
   -9.1096   -2.5511   -0.8099 C   0  0  0  0  0  0  0  0  0  0  0  0
   -7.8004   -2.1418   -0.6757 C   0  0  0  0  0  0  0  0  0  0  0  0
   -7.5160   -0.8287   -0.3428 C   0  0  0  0  0  0  0  0  0  0  0  0
    4.0882   -0.1200    0.1084 N   0  0  0  0  0  0  0  0  0  0  0  0
    5.0868    0.9022    0.3074 C   0  0  0  0  0  0  0  0  0  0  0  0
    6.1762    0.6909   -0.7553 C   0  0  0  0  0  0  0  0  0  0  0  0
    6.8620   -0.5082   -0.3436 N   0  0  0  0  0  0  0  0  0  0  0  0
    6.0993   -1.5581    0.2427 C   0  0  0  0  0  0  0  0  0  0  0  0
    4.6174   -1.4528   -0.1242 C   0  0  0  0  0  0  0  0  0  0  0  0
    8.2503   -0.6234   -0.5232 C   0  0  0  0  0  0  0  0  0  0  0  0
    9.0272    0.4853   -1.1372 C   0  0  0  0  0  0  0  0  0  0  0  0
    8.8375   -1.6909   -0.1532 O   0  0  0  0  0  0  0  0  0  0  0  0
    0.4756    4.6444    1.3248 H   0  0  0  0  0  0  0  0  0  0  0  0
    1.7480    3.5218    1.8405 H   0  0  0  0  0  0  0  0  0  0  0  0
    1.6669    4.0523    0.0780 H   0  0  0  0  0  0  0  0  0  0  0  0
    2.7811    2.1475    0.6312 H   0  0  0  0  0  0  0  0  0  0  0  0
    2.2731   -1.9240   -0.3679 H   0  0  0  0  0  0  0  0  0  0  0  0
   -0.1125   -1.6763   -0.3634 H   0  0  0  0  0  0  0  0  0  0  0  0
   -1.8094    1.6699    0.4103 H   0  0  0  0  0  0  0  0  0  0  0  0
   -4.0807    1.2241    0.2477 H   0  0  0  0  0  0  0  0  0  0  0  0
   -3.3157   -3.4489   -0.8853 H   0  0  0  0  0  0  0  0  0  0  0  0
   -6.0116    1.9450    0.3828 H   0  0  0  0  0  0  0  0  0  0  0  0
   -8.6382    2.0918    0.3537 H   0  0  0  0  0  0  0  0  0  0  0  0
  -10.7445    0.2461   -0.1568 H   0  0  0  0  0  0  0  0  0  0  0  0
   -9.2967   -3.5842   -1.0710 H   0  0  0  0  0  0  0  0  0  0  0  0
   -7.0238   -2.8555   -0.8333 H   0  0  0  0  0  0  0  0  0  0  0  0
    4.7425    1.9245    0.3330 H   0  0  0  0  0  0  0  0  0  0  0  0
    5.6200    0.7140    1.2847 H   0  0  0  0  0  0  0  0  0  0  0  0
    5.6141    0.5318   -1.7111 H   0  0  0  0  0  0  0  0  0  0  0  0
    6.7980    1.5896   -0.7697 H   0  0  0  0  0  0  0  0  0  0  0  0
    6.4496   -2.5668   -0.0505 H   0  0  0  0  0  0  0  0  0  0  0  0
    6.1196   -1.5244    1.3705 H   0  0  0  0  0  0  0  0  0  0  0  0
    4.0577   -2.1200    0.5955 H   0  0  0  0  0  0  0  0  0  0  0  0
    4.5247   -1.7860   -1.1544 H   0  0  0  0  0  0  0  0  0  0  0  0
    8.8062    0.5626   -2.2350 H   0  0  0  0  0  0  0  0  0  0  0  0
   10.1010    0.2655   -0.9804 H   0  0  0  0  0  0  0  0  0  0  0  0
    8.8264    1.4589   -0.6138 H   0  0  0  0  0  0  0  0  0  0  0  0
  1  2  1  0
  2  3  1  0
  3  4  2  0
  4  5  1  0
  5  6  2  0
  6  7  1  0
  7  8  2  0
  8  9  1  0
  9 10  1  0
 10 11  2  0
 11 12  1  0
 12 13  2  0
 13 14  1  0
 14 15  2  0
 12 16  1  0
 16 17  2  0
 17 18  1  0
 18 19  1  0
 19 20  2  0
 20 21  1  0
 21 22  2  0
 22 23  1  0
 23 24  2  0
  5 25  1  0
 25 26  1  0
 26 27  1  0
 27 28  1  0
 28 29  1  0
 29 30  1  0
 28 31  1  0
 31 32  1  0
 31 33  2  0
  8  3  1  0
 15 10  1  0
 24 16  1  0
 30 25  1  0
 24 19  1  0
  1 34  1  0
  1 35  1  0
  1 36  1  0
  4 37  1  0
  6 38  1  0
  7 39  1  0
  9 40  1  0
 11 41  1  0
 14 42  1  0
 17 43  1  0
 18 44  1  0
 20 45  1  0
 22 46  1  0
 23 47  1  0
 26 48  1  0
 26 49  1  0
 27 50  1  0
 27 51  1  0
 29 52  1  0
 29 53  1  0
 30 54  1  0
 30 55  1  0
 32 56  1  0
 32 57  1  0
 32 58  1  0
M  END
$$$$
[H]c1nc(N([H])c2c([H])c([H])c(Cl)c([H])c2Cl)c2c(n1)c([H])c([H])c1nc(C(=O)OC([H])([H])[H])sc12
     RDKit          3D

 36 39  0  0  0  0  0  0  0  0999 V2000
    6.2949    2.6564    0.1968 C   0  0  0  0  0  0  0  0  0  0  0  0
    5.2869    1.6999   -0.1527 O   0  0  0  0  0  0  0  0  0  0  0  0
    3.9816    1.8486    0.2476 C   0  0  0  0  0  0  0  0  0  0  0  0
    3.6088    2.8232    0.9349 O   0  0  0  0  0  0  0  0  0  0  0  0
    3.0282    0.7983   -0.1722 C   0  0  0  0  0  0  0  0  0  0  0  0
    3.2479   -0.2858   -0.8918 N   0  0  0  0  0  0  0  0  0  0  0  0
    2.2719   -1.1010   -1.1594 C   0  0  0  0  0  0  0  0  0  0  0  0
    2.3726   -2.2752   -1.9248 C   0  0  0  0  0  0  0  0  0  0  0  0
    1.2702   -3.0248   -2.1387 C   0  0  0  0  0  0  0  0  0  0  0  0
    0.0086   -2.7335   -1.6569 C   0  0  0  0  0  0  0  0  0  0  0  0
   -1.0537   -3.4819   -1.9002 N   0  0  0  0  0  0  0  0  0  0  0  0
   -2.2454   -3.0753   -1.3816 C   0  0  0  0  0  0  0  0  0  0  0  0
   -2.3465   -1.9700   -0.6560 N   0  0  0  0  0  0  0  0  0  0  0  0
   -1.3058   -1.1394   -0.3543 C   0  0  0  0  0  0  0  0  0  0  0  0
   -1.4607   -0.0451    0.5191 N   0  0  0  0  0  0  0  0  0  0  0  0
   -2.7588    0.4076    0.9240 C   0  0  0  0  0  0  0  0  0  0  0  0
   -3.9423    0.1500    0.2931 C   0  0  0  0  0  0  0  0  0  0  0  0
   -5.1339    0.7033    0.7615 C   0  0  0  0  0  0  0  0  0  0  0  0
   -5.1715    1.5223    1.8620 C   0  0  0  0  0  0  0  0  0  0  0  0
   -6.7021    2.1848    2.3981 Cl  0  0  0  0  0  0  0  0  0  0  0  0
   -3.9847    1.7901    2.5049 C   0  0  0  0  0  0  0  0  0  0  0  0
   -2.8042    1.2500    2.0533 C   0  0  0  0  0  0  0  0  0  0  0  0
   -1.3017    1.6085    2.9099 Cl  0  0  0  0  0  0  0  0  0  0  0  0
   -0.1026   -1.5651   -0.8907 C   0  0  0  0  0  0  0  0  0  0  0  0
    1.0243   -0.7970   -0.6724 C   0  0  0  0  0  0  0  0  0  0  0  0
    1.3662    0.6721    0.1487 S   0  0  0  0  0  0  0  0  0  0  0  0
    5.9044    3.3613    0.9809 H   0  0  0  0  0  0  0  0  0  0  0  0
    7.1471    2.1237    0.6686 H   0  0  0  0  0  0  0  0  0  0  0  0
    6.6259    3.2239   -0.7113 H   0  0  0  0  0  0  0  0  0  0  0  0
    3.3106   -2.6102   -2.3574 H   0  0  0  0  0  0  0  0  0  0  0  0
    1.3383   -3.9428   -2.7352 H   0  0  0  0  0  0  0  0  0  0  0  0
   -3.1175   -3.6883   -1.5816 H   0  0  0  0  0  0  0  0  0  0  0  0
   -0.6679    0.4770    0.9344 H   0  0  0  0  0  0  0  0  0  0  0  0
   -3.9735   -0.4619   -0.6000 H   0  0  0  0  0  0  0  0  0  0  0  0
   -6.0360    0.4559    0.2135 H   0  0  0  0  0  0  0  0  0  0  0  0
   -3.9794    2.4401    3.3856 H   0  0  0  0  0  0  0  0  0  0  0  0
  1  2  1  0
  2  3  1  0
  3  4  2  0
  3  5  1  0
  5  6  2  0
  6  7  1  0
  7  8  2  0
  8  9  1  0
  9 10  2  0
 10 11  1  0
 11 12  2  0
 12 13  1  0
 13 14  2  0
 14 15  1  0
 15 16  1  0
 16 17  2  0
 17 18  1  0
 18 19  2  0
 19 20  1  0
 19 21  1  0
 21 22  2  0
 22 23  1  0
 14 24  1  0
 24 25  2  0
 25 26  1  0
 26  5  1  0
 25  7  1  0
 24 10  1  0
 22 16  1  0
  1 27  1  0
  1 28  1  0
  1 29  1  0
  8 30  1  0
  9 31  1  0
 12 32  1  0
 15 33  1  0
 17 34  1  0
 18 35  1  0
 21 36  1  0
M  END
$$$$
