[H]c1nc(N2C([H])([H])C([H])([H])N(c3nc(C(=O)N([H])c4c([H])c([H])c(C(F)(F)F)c([H])c4[H])nc(N4C([H])([H])C([H])([H])N(C([H])([H])[H])C([H])([H])C4([H])[H])c3[H])C([H])([H])C2([H])[H])c2c([H])c([H])n([H])c2n1
     RDKit          3D

 70 75  0  0  0  0  0  0  0  0999 V2000
   -1.4157    7.2678   -0.0720 C   0  0  0  0  0  0  0  0  0  0  0  0
   -1.1830    5.8215   -0.1097 N   0  0  0  0  0  0  0  0  0  0  0  0
   -2.1987    5.2554    0.7449 C   0  0  0  0  0  0  0  0  0  0  0  0
   -2.3696    3.7919    0.6256 C   0  0  0  0  0  0  0  0  0  0  0  0
   -1.6866    3.1706   -0.5002 N   0  0  0  0  0  0  0  0  0  0  0  0
   -1.4209    3.8994   -1.6734 C   0  0  0  0  0  0  0  0  0  0  0  0
   -1.3125    5.3962   -1.4769 C   0  0  0  0  0  0  0  0  0  0  0  0
   -1.3103    1.7723   -0.3373 C   0  0  0  0  0  0  0  0  0  0  0  0
   -0.0271    1.4325   -0.0480 C   0  0  0  0  0  0  0  0  0  0  0  0
    0.2975    0.0875    0.1781 C   0  0  0  0  0  0  0  0  0  0  0  0
   -0.6841   -0.8260    0.0998 N   0  0  0  0  0  0  0  0  0  0  0  0
   -1.9360   -0.5008   -0.1871 C   0  0  0  0  0  0  0  0  0  0  0  0
   -2.2303    0.8231   -0.4060 N   0  0  0  0  0  0  0  0  0  0  0  0
   -3.0583   -1.4166   -0.2195 C   0  0  0  0  0  0  0  0  0  0  0  0
   -4.0784   -1.0387   -0.8492 O   0  0  0  0  0  0  0  0  0  0  0  0
   -3.0566   -2.7006    0.4340 N   0  0  0  0  0  0  0  0  0  0  0  0
   -4.2690   -3.4250    0.3309 C   0  0  0  0  0  0  0  0  0  0  0  0
   -5.4746   -2.7648    0.4011 C   0  0  0  0  0  0  0  0  0  0  0  0
   -6.6260   -3.5034    0.1960 C   0  0  0  0  0  0  0  0  0  0  0  0
   -6.5622   -4.8555   -0.0696 C   0  0  0  0  0  0  0  0  0  0  0  0
   -5.3450   -5.4752   -0.1257 C   0  0  0  0  0  0  0  0  0  0  0  0
   -4.1860   -4.7786    0.0709 C   0  0  0  0  0  0  0  0  0  0  0  0
   -7.8046   -5.6028   -0.3165 C   0  0  0  0  0  0  0  0  0  0  0  0
   -8.8248   -4.7625   -0.7537 F   0  0  0  0  0  0  0  0  0  0  0  0
   -7.6139   -6.5829   -1.2760 F   0  0  0  0  0  0  0  0  0  0  0  0
   -8.2231   -6.1688    0.8814 F   0  0  0  0  0  0  0  0  0  0  0  0
    1.6462   -0.1989    0.4324 N   0  0  0  0  0  0  0  0  0  0  0  0
    2.0376   -1.1378    1.4672 C   0  0  0  0  0  0  0  0  0  0  0  0
    3.3635   -1.7513    1.0717 C   0  0  0  0  0  0  0  0  0  0  0  0
    4.3466   -0.6942    0.8215 N   0  0  0  0  0  0  0  0  0  0  0  0
    3.9288    0.6276    0.4017 C   0  0  0  0  0  0  0  0  0  0  0  0
    2.6571    0.4549   -0.4073 C   0  0  0  0  0  0  0  0  0  0  0  0
    5.7177   -1.0426    0.9741 C   0  0  0  0  0  0  0  0  0  0  0  0
    6.3267   -1.0768    2.1743 N   0  0  0  0  0  0  0  0  0  0  0  0
    7.6181   -1.4282    2.2597 C   0  0  0  0  0  0  0  0  0  0  0  0
    8.3683   -1.7518    1.1923 N   0  0  0  0  0  0  0  0  0  0  0  0
    7.7875   -1.7251   -0.0422 C   0  0  0  0  0  0  0  0  0  0  0  0
    8.2892   -1.9692   -1.2795 N   0  0  0  0  0  0  0  0  0  0  0  0
    7.3025   -1.7743   -2.2008 C   0  0  0  0  0  0  0  0  0  0  0  0
    6.1903   -1.4077   -1.4831 C   0  0  0  0  0  0  0  0  0  0  0  0
    6.4668   -1.3708   -0.1374 C   0  0  0  0  0  0  0  0  0  0  0  0
   -2.0079    7.6325   -0.9233 H   0  0  0  0  0  0  0  0  0  0  0  0
   -0.4526    7.7913   -0.0992 H   0  0  0  0  0  0  0  0  0  0  0  0
   -1.9958    7.5606    0.8438 H   0  0  0  0  0  0  0  0  0  0  0  0
   -3.1735    5.7755    0.6653 H   0  0  0  0  0  0  0  0  0  0  0  0
   -1.8595    5.4832    1.8022 H   0  0  0  0  0  0  0  0  0  0  0  0
   -3.4287    3.4543    0.5510 H   0  0  0  0  0  0  0  0  0  0  0  0
   -1.9951    3.2503    1.5517 H   0  0  0  0  0  0  0  0  0  0  0  0
   -0.5160    3.4853   -2.1906 H   0  0  0  0  0  0  0  0  0  0  0  0
   -2.2804    3.7533   -2.3978 H   0  0  0  0  0  0  0  0  0  0  0  0
   -0.4049    5.7349   -2.0074 H   0  0  0  0  0  0  0  0  0  0  0  0
   -2.1736    5.9326   -1.9490 H   0  0  0  0  0  0  0  0  0  0  0  0
    0.7248    2.1705    0.0167 H   0  0  0  0  0  0  0  0  0  0  0  0
   -2.2524   -3.0764    0.9281 H   0  0  0  0  0  0  0  0  0  0  0  0
   -5.5622   -1.7350    0.6389 H   0  0  0  0  0  0  0  0  0  0  0  0
   -7.5766   -3.0092    0.2351 H   0  0  0  0  0  0  0  0  0  0  0  0
   -5.3531   -6.5396   -0.3310 H   0  0  0  0  0  0  0  0  0  0  0  0
   -3.2156   -5.2565    0.0285 H   0  0  0  0  0  0  0  0  0  0  0  0
    2.1485   -0.6046    2.4419 H   0  0  0  0  0  0  0  0  0  0  0  0
    1.2992   -1.9295    1.6242 H   0  0  0  0  0  0  0  0  0  0  0  0
    3.7319   -2.2864    1.9947 H   0  0  0  0  0  0  0  0  0  0  0  0
    3.2981   -2.4427    0.2318 H   0  0  0  0  0  0  0  0  0  0  0  0
    3.7313    1.2754    1.2542 H   0  0  0  0  0  0  0  0  0  0  0  0
    4.7202    1.0538   -0.2595 H   0  0  0  0  0  0  0  0  0  0  0  0
    2.9157   -0.2375   -1.2420 H   0  0  0  0  0  0  0  0  0  0  0  0
    2.3058    1.3897   -0.8470 H   0  0  0  0  0  0  0  0  0  0  0  0
    8.0715   -1.4246    3.2622 H   0  0  0  0  0  0  0  0  0  0  0  0
    9.2757   -2.2472   -1.4576 H   0  0  0  0  0  0  0  0  0  0  0  0
    7.3719   -1.8712   -3.2739 H   0  0  0  0  0  0  0  0  0  0  0  0
    5.2063   -1.1529   -1.8784 H   0  0  0  0  0  0  0  0  0  0  0  0
  1  2  1  0
  2  3  1  0
  3  4  1  0
  4  5  1  0
  5  6  1  0
  6  7  1  0
  5  8  1  0
  8  9  2  0
  9 10  1  0
 10 11  2  0
 11 12  1  0
 12 13  2  0
 12 14  1  0
 14 15  2  0
 14 16  1  0
 16 17  1  0
 17 18  2  0
 18 19  1  0
 19 20  2  0
 20 21  1  0
 21 22  2  0
 20 23  1  0
 23 24  1  0
 23 25  1  0
 23 26  1  0
 10 27  1  0
 27 28  1  0
 28 29  1  0
 29 30  1  0
 30 31  1  0
 31 32  1  0
 30 33  1  0
 33 34  2  0
 34 35  1  0
 35 36  2  0
 36 37  1  0
 37 38  1  0
 38 39  1  0
 39 40  2  0
 40 41  1  0
  7  2  1  0
 13  8  1  0
 22 17  1  0
 32 27  1  0
 41 33  1  0
 41 37  2  0
  1 42  1  0
  1 43  1  0
  1 44  1  0
  3 45  1  0
  3 46  1  0
  4 47  1  0
  4 48  1  0
  6 49  1  0
  6 50  1  0
  7 51  1  0
  7 52  1  0
  9 53  1  0
 16 54  1  0
 18 55  1  0
 19 56  1  0
 21 57  1  0
 22 58  1  0
 28 59  1  0
 28 60  1  0
 29 61  1  0
 29 62  1  0
 31 63  1  0
 31 64  1  0
 32 65  1  0
 32 66  1  0
 35 67  1  0
 38 68  1  0
 39 69  1  0
 40 70  1  0
M  END
$$$$
[H]O[C@@]1([H])N(S(=O)(=O)c2c([H])c([H])c(OC([H])([H])[H])c([H])c2[H])C([H])([H])[C@@]([H])(O[H])[C@@]([H])(O[H])[C@@]1([H])O[H]
     RDKit          3D

 38 39  0  0  0  0  0  0  0  0999 V2000
    6.2421    0.4748    0.9640 C   0  0  0  0  0  0  0  0  0  0  0  0
    5.2063    1.3625    1.3210 O   0  0  0  0  0  0  0  0  0  0  0  0
    3.9484    1.1960    0.8048 C   0  0  0  0  0  0  0  0  0  0  0  0
    3.6980    0.1621   -0.0613 C   0  0  0  0  0  0  0  0  0  0  0  0
    2.4288   -0.0213   -0.5940 C   0  0  0  0  0  0  0  0  0  0  0  0
    1.3825    0.8173   -0.2784 C   0  0  0  0  0  0  0  0  0  0  0  0
    1.6191    1.8565    0.5874 C   0  0  0  0  0  0  0  0  0  0  0  0
    2.8842    2.0285    1.1102 C   0  0  0  0  0  0  0  0  0  0  0  0
   -0.1748    0.4882   -1.0116 S   0  0  0  0  0  0  0  0  0  0  0  0
   -0.8415    1.8475   -1.1858 O   0  0  0  0  0  0  0  0  0  0  0  0
    0.0961   -0.0115   -2.3949 O   0  0  0  0  0  0  0  0  0  0  0  0
   -1.1167   -0.5504   -0.0823 N   0  0  0  0  0  0  0  0  0  0  0  0
   -1.4697   -0.1122    1.2056 C   0  0  0  0  0  0  0  0  0  0  0  0
   -2.9151   -0.0799    1.5517 C   0  0  1  0  0  0  0  0  0  0  0  0
   -3.2628    1.1772    2.0725 O   0  0  0  0  0  0  0  0  0  0  0  0
   -3.8426   -0.4415    0.4381 C   0  0  1  0  0  0  0  0  0  0  0  0
   -4.1695    0.6372   -0.3804 O   0  0  0  0  0  0  0  0  0  0  0  0
   -3.3291   -1.6270   -0.3036 C   0  0  1  0  0  0  0  0  0  0  0  0
   -4.1477   -1.8742   -1.4292 O   0  0  0  0  0  0  0  0  0  0  0  0
   -1.9009   -1.5174   -0.7285 C   0  0  1  0  0  0  0  0  0  0  0  0
   -1.8682   -1.3126   -2.1176 O   0  0  0  0  0  0  0  0  0  0  0  0
    7.1782    0.6784    1.5148 H   0  0  0  0  0  0  0  0  0  0  0  0
    5.8933   -0.5706    1.1971 H   0  0  0  0  0  0  0  0  0  0  0  0
    6.3815    0.5210   -0.1379 H   0  0  0  0  0  0  0  0  0  0  0  0
    4.5183   -0.4977   -0.3105 H   0  0  0  0  0  0  0  0  0  0  0  0
    2.3159   -0.8549   -1.2644 H   0  0  0  0  0  0  0  0  0  0  0  0
    0.7968    2.5158    0.8355 H   0  0  0  0  0  0  0  0  0  0  0  0
    3.0997    2.8486    1.8027 H   0  0  0  0  0  0  0  0  0  0  0  0
   -0.9229   -0.7624    1.9518 H   0  0  0  0  0  0  0  0  0  0  0  0
   -1.0183    0.9068    1.3858 H   0  0  0  0  0  0  0  0  0  0  0  0
   -3.1286   -0.7977    2.3985 H   0  0  0  0  0  0  0  0  0  0  0  0
   -4.1014    1.4929    1.6419 H   0  0  0  0  0  0  0  0  0  0  0  0
   -4.8191   -0.7539    0.9143 H   0  0  0  0  0  0  0  0  0  0  0  0
   -3.5438    0.7995   -1.1031 H   0  0  0  0  0  0  0  0  0  0  0  0
   -3.4683   -2.5344    0.3454 H   0  0  0  0  0  0  0  0  0  0  0  0
   -4.0337   -2.8072   -1.7445 H   0  0  0  0  0  0  0  0  0  0  0  0
   -1.4061   -2.5236   -0.5839 H   0  0  0  0  0  0  0  0  0  0  0  0
   -2.2086   -2.1604   -2.5328 H   0  0  0  0  0  0  0  0  0  0  0  0
  1  2  1  0
  2  3  1  0
  3  4  2  0
  4  5  1  0
  5  6  2  0
  6  7  1  0
  7  8  2  0
  6  9  1  0
  9 10  2  0
  9 11  2  0
  9 12  1  0
 12 13  1  0
 13 14  1  0
 14 15  1  0
 14 16  1  0
 16 17  1  0
 16 18  1  0
 18 19  1  0
 18 20  1  0
 20 21  1  0
  8  3  1  0
 20 12  1  0
  1 22  1  0
  1 23  1  0
  1 24  1  0
  4 25  1  0
  5 26  1  0
  7 27  1  0
  8 28  1  0
 13 29  1  0
 13 30  1  0
 14 31  1  1
 15 32  1  0
 16 33  1  1
 17 34  1  0
 18 35  1  1
 19 36  1  0
 20 37  1  6
 21 38  1  0
M  END
$$$$
[H]c1nc(N([H])c2c([H])c([H])c(N3C([H])([H])C([H])([H])C([H])([N+](=O)[O-])C([H])([H])C3([H])[H])c([H])c2OC([H])([H])[H])nc(N([H])c2c([H])c([H])c([H])c([H])c2S(=O)(=O)C([H])(C([H])([H])[H])C([H])([H])[H])c1Cl
     RDKit          3D

 67 70  0  0  0  0  0  0  0  0999 V2000
   -2.2175    1.3615    3.7601 C   0  0  0  0  0  0  0  0  0  0  0  0
   -1.5911    1.0007    2.5494 O   0  0  0  0  0  0  0  0  0  0  0  0
   -2.3010    0.4348    1.5310 C   0  0  0  0  0  0  0  0  0  0  0  0
   -3.6518    0.2292    1.7229 C   0  0  0  0  0  0  0  0  0  0  0  0
   -4.4281   -0.3339    0.7431 C   0  0  0  0  0  0  0  0  0  0  0  0
   -3.8141   -0.6886   -0.4388 C   0  0  0  0  0  0  0  0  0  0  0  0
   -2.4400   -0.4770   -0.6273 C   0  0  0  0  0  0  0  0  0  0  0  0
   -1.6424    0.0831    0.3313 C   0  0  0  0  0  0  0  0  0  0  0  0
   -0.2779    0.3336    0.2737 N   0  0  0  0  0  0  0  0  0  0  0  0
    0.5857    0.1552   -0.8328 C   0  0  0  0  0  0  0  0  0  0  0  0
    0.2339   -0.2877   -2.0421 N   0  0  0  0  0  0  0  0  0  0  0  0
    1.0725   -0.4364   -3.0589 C   0  0  0  0  0  0  0  0  0  0  0  0
    2.4067   -0.1262   -2.9065 C   0  0  0  0  0  0  0  0  0  0  0  0
    3.5510   -0.3052   -4.2190 Cl  0  0  0  0  0  0  0  0  0  0  0  0
    2.8246    0.3454   -1.6453 C   0  0  0  0  0  0  0  0  0  0  0  0
    4.1856    0.6687   -1.5008 N   0  0  0  0  0  0  0  0  0  0  0  0
    4.9066    1.1345   -0.3861 C   0  0  0  0  0  0  0  0  0  0  0  0
    4.3015    1.4336    0.8072 C   0  0  0  0  0  0  0  0  0  0  0  0
    5.0673    1.9210    1.8605 C   0  0  0  0  0  0  0  0  0  0  0  0
    6.4212    2.1120    1.7386 C   0  0  0  0  0  0  0  0  0  0  0  0
    6.9979    1.7998    0.5236 C   0  0  0  0  0  0  0  0  0  0  0  0
    6.2892    1.3097   -0.5656 C   0  0  0  0  0  0  0  0  0  0  0  0
    7.1293    0.9146   -2.0381 S   0  0  0  0  0  0  0  0  0  0  0  0
    8.5972    1.2901   -1.8262 O   0  0  0  0  0  0  0  0  0  0  0  0
    6.7100    1.7779   -3.1974 O   0  0  0  0  0  0  0  0  0  0  0  0
    7.1380   -0.7932   -2.4458 C   0  0  0  0  0  0  0  0  0  0  0  0
    7.9295   -0.9566   -3.7572 C   0  0  0  0  0  0  0  0  0  0  0  0
    7.9528   -1.5573   -1.4152 C   0  0  0  0  0  0  0  0  0  0  0  0
    1.8990    0.4568   -0.6939 N   0  0  0  0  0  0  0  0  0  0  0  0
   -5.8237   -0.5096    0.9479 N   0  0  0  0  0  0  0  0  0  0  0  0
   -6.5785    0.5052    1.6245 C   0  0  0  0  0  0  0  0  0  0  0  0
   -7.8091    0.0178    2.3328 C   0  0  0  0  0  0  0  0  0  0  0  0
   -8.3915   -1.2454    1.8005 C   0  0  0  0  0  0  0  0  0  0  0  0
   -7.9160   -1.6187    0.4201 C   0  0  0  0  0  0  0  0  0  0  0  0
   -6.4170   -1.7414    0.4525 C   0  0  0  0  0  0  0  0  0  0  0  0
   -9.8578   -1.1609    1.7199 N   0  0  0  0  0  0  0  0  0  0  0  0
  -10.4363   -0.1997    0.9332 O   0  0  0  0  0  0  0  0  0  0  0  0
  -10.5868   -1.9445    2.3550 O   0  0  0  0  0  0  0  0  0  0  0  0
   -2.9773    2.1662    3.6464 H   0  0  0  0  0  0  0  0  0  0  0  0
   -1.4708    1.7428    4.4994 H   0  0  0  0  0  0  0  0  0  0  0  0
   -2.7363    0.5006    4.2360 H   0  0  0  0  0  0  0  0  0  0  0  0
   -4.1029    0.5185    2.6924 H   0  0  0  0  0  0  0  0  0  0  0  0
   -4.3783   -1.1300   -1.2337 H   0  0  0  0  0  0  0  0  0  0  0  0
   -2.0033   -0.7779   -1.5729 H   0  0  0  0  0  0  0  0  0  0  0  0
    0.2015    0.7017    1.1591 H   0  0  0  0  0  0  0  0  0  0  0  0
    0.7549   -0.8050   -4.0453 H   0  0  0  0  0  0  0  0  0  0  0  0
    4.7694    0.5631   -2.3929 H   0  0  0  0  0  0  0  0  0  0  0  0
    3.2193    1.3075    0.9855 H   0  0  0  0  0  0  0  0  0  0  0  0
    4.5548    2.1548    2.8025 H   0  0  0  0  0  0  0  0  0  0  0  0
    7.0140    2.4934    2.5705 H   0  0  0  0  0  0  0  0  0  0  0  0
    8.0777    1.9571    0.4405 H   0  0  0  0  0  0  0  0  0  0  0  0
    6.1594   -1.2241   -2.5899 H   0  0  0  0  0  0  0  0  0  0  0  0
    8.2886   -1.9976   -3.8490 H   0  0  0  0  0  0  0  0  0  0  0  0
    8.7717   -0.2083   -3.7322 H   0  0  0  0  0  0  0  0  0  0  0  0
    7.2694   -0.6449   -4.5675 H   0  0  0  0  0  0  0  0  0  0  0  0
    9.0231   -1.3267   -1.5935 H   0  0  0  0  0  0  0  0  0  0  0  0
    7.7196   -1.2436   -0.3824 H   0  0  0  0  0  0  0  0  0  0  0  0
    7.8300   -2.6540   -1.5297 H   0  0  0  0  0  0  0  0  0  0  0  0
   -5.9381    1.0278    2.3549 H   0  0  0  0  0  0  0  0  0  0  0  0
   -6.8628    1.2906    0.8691 H   0  0  0  0  0  0  0  0  0  0  0  0
   -8.5979    0.8175    2.2037 H   0  0  0  0  0  0  0  0  0  0  0  0
   -7.6299    0.0068    3.4332 H   0  0  0  0  0  0  0  0  0  0  0  0
   -8.1594   -2.0536    2.5454 H   0  0  0  0  0  0  0  0  0  0  0  0
   -8.3667   -2.6130    0.1851 H   0  0  0  0  0  0  0  0  0  0  0  0
   -8.2565   -0.8515   -0.2853 H   0  0  0  0  0  0  0  0  0  0  0  0
   -6.0134   -2.0663   -0.5251 H   0  0  0  0  0  0  0  0  0  0  0  0
   -6.1788   -2.5549    1.1764 H   0  0  0  0  0  0  0  0  0  0  0  0
  1  2  1  0
  2  3  1  0
  3  4  2  0
  4  5  1  0
  5  6  2  0
  6  7  1  0
  7  8  2  0
  8  9  1  0
  9 10  1  0
 10 11  2  0
 11 12  1  0
 12 13  2  0
 13 14  1  0
 13 15  1  0
 15 16  1  0
 16 17  1  0
 17 18  2  0
 18 19  1  0
 19 20  2  0
 20 21  1  0
 21 22  2  0
 22 23  1  0
 23 24  2  0
 23 25  2  0
 23 26  1  0
 26 27  1  0
 26 28  1  0
 15 29  2  0
  5 30  1  0
 30 31  1  0
 31 32  1  0
 32 33  1  0
 33 34  1  0
 34 35  1  0
 33 36  1  0
 36 37  1  0
 36 38  2  0
  8  3  1  0
 29 10  1  0
 35 30  1  0
 22 17  1  0
  1 39  1  0
  1 40  1  0
  1 41  1  0
  4 42  1  0
  6 43  1  0
  7 44  1  0
  9 45  1  0
 12 46  1  0
 16 47  1  0
 18 48  1  0
 19 49  1  0
 20 50  1  0
 21 51  1  0
 26 52  1  0
 27 53  1  0
 27 54  1  0
 27 55  1  0
 28 56  1  0
 28 57  1  0
 28 58  1  0
 31 59  1  0
 31 60  1  0
 32 61  1  0
 32 62  1  0
 33 63  1  0
 34 64  1  0
 34 65  1  0
 35 66  1  0
 35 67  1  0
M  CHG  2  36   1  37  -1
M  END
$$$$
[H]OC(=O)[C@]1([H])C([H])([H])C([H])([H])[C@]([H])(c2nc(-c3c([H])c([H])c(C(=O)N([H])c4nc([H])c([H])c(C(F)(F)F)c4[H])c([H])c3[H])c3c(N([H])[H])nc([H])c([H])n32)C([H])([H])C1([H])[H]
     RDKit          3D

 61 65  0  0  0  0  0  0  0  0999 V2000
    0.1877   -3.8133    0.6623 N   0  0  0  0  0  0  0  0  0  0  0  0
   -1.0271   -3.1976    0.3345 C   0  0  0  0  0  0  0  0  0  0  0  0
   -2.0410   -4.0208   -0.0543 N   0  0  0  0  0  0  0  0  0  0  0  0
   -3.2536   -3.5345   -0.3270 C   0  0  0  0  0  0  0  0  0  0  0  0
   -3.4987   -2.1573   -0.2046 C   0  0  0  0  0  0  0  0  0  0  0  0
   -2.5172   -1.3564    0.1755 N   0  0  0  0  0  0  0  0  0  0  0  0
   -2.5161    0.0018    0.3657 C   0  0  0  0  0  0  0  0  0  0  0  0
   -1.2952    0.3216    0.7404 N   0  0  0  0  0  0  0  0  0  0  0  0
   -0.4975   -0.7534    0.8064 C   0  0  0  0  0  0  0  0  0  0  0  0
    0.9077   -0.8444    1.1807 C   0  0  0  0  0  0  0  0  0  0  0  0
    1.8340   -1.3404    0.2780 C   0  0  0  0  0  0  0  0  0  0  0  0
    3.1440   -1.5463    0.6074 C   0  0  0  0  0  0  0  0  0  0  0  0
    3.6256   -1.2667    1.8693 C   0  0  0  0  0  0  0  0  0  0  0  0
    2.6996   -0.7620    2.7848 C   0  0  0  0  0  0  0  0  0  0  0  0
    1.3729   -0.5551    2.4516 C   0  0  0  0  0  0  0  0  0  0  0  0
    4.9663   -1.5957    2.2975 C   0  0  0  0  0  0  0  0  0  0  0  0
    4.9843   -2.2592    3.4495 O   0  0  0  0  0  0  0  0  0  0  0  0
    6.1753   -1.3730    1.7357 N   0  0  0  0  0  0  0  0  0  0  0  0
    6.5626   -0.5826    0.6333 C   0  0  0  0  0  0  0  0  0  0  0  0
    5.8688    0.4224    0.0570 C   0  0  0  0  0  0  0  0  0  0  0  0
    6.2491    1.1038   -1.0913 C   0  0  0  0  0  0  0  0  0  0  0  0
    7.4261    0.7284   -1.6907 C   0  0  0  0  0  0  0  0  0  0  0  0
    8.1439   -0.2985   -1.1034 C   0  0  0  0  0  0  0  0  0  0  0  0
    7.7356   -0.9097   -0.0105 N   0  0  0  0  0  0  0  0  0  0  0  0
    5.4744    2.2377   -1.5630 C   0  0  0  0  0  0  0  0  0  0  0  0
    4.8322    2.0932   -2.7576 F   0  0  0  0  0  0  0  0  0  0  0  0
    6.4268    3.2827   -1.6994 F   0  0  0  0  0  0  0  0  0  0  0  0
    4.5631    2.7398   -0.6373 F   0  0  0  0  0  0  0  0  0  0  0  0
   -1.2769   -1.8513    0.4456 C   0  0  0  0  0  0  0  0  0  0  0  0
   -3.7415    0.8214    0.1805 C   0  0  2  0  0  0  0  0  0  0  0  0
   -3.9248    1.2017   -1.2936 C   0  0  0  0  0  0  0  0  0  0  0  0
   -5.3409    1.7654   -1.4171 C   0  0  0  0  0  0  0  0  0  0  0  0
   -6.0015    1.9942   -0.0931 C   0  0  1  0  0  0  0  0  0  0  0  0
   -5.1501    2.6633    0.9406 C   0  0  0  0  0  0  0  0  0  0  0  0
   -3.7699    2.0800    0.9579 C   0  0  0  0  0  0  0  0  0  0  0  0
   -7.1676    2.9014   -0.3499 C   0  0  0  0  0  0  0  0  0  0  0  0
   -8.1724    2.5095   -1.2309 O   0  0  0  0  0  0  0  0  0  0  0  0
   -7.2708    4.0017    0.1980 O   0  0  0  0  0  0  0  0  0  0  0  0
    0.7854   -4.2414   -0.0873 H   0  0  0  0  0  0  0  0  0  0  0  0
    0.5687   -3.8887    1.6437 H   0  0  0  0  0  0  0  0  0  0  0  0
   -4.0294   -4.1972   -0.6459 H   0  0  0  0  0  0  0  0  0  0  0  0
   -4.4773   -1.7609   -0.4134 H   0  0  0  0  0  0  0  0  0  0  0  0
    1.4684   -1.5465   -0.7417 H   0  0  0  0  0  0  0  0  0  0  0  0
    3.8002   -1.9447   -0.1597 H   0  0  0  0  0  0  0  0  0  0  0  0
    3.0722   -0.5364    3.7831 H   0  0  0  0  0  0  0  0  0  0  0  0
    0.6642   -0.1514    3.1762 H   0  0  0  0  0  0  0  0  0  0  0  0
    7.0767   -1.8001    2.2753 H   0  0  0  0  0  0  0  0  0  0  0  0
    4.9437    0.7444    0.5634 H   0  0  0  0  0  0  0  0  0  0  0  0
    7.7723    1.2406   -2.6021 H   0  0  0  0  0  0  0  0  0  0  0  0
    9.0755   -0.5525   -1.6133 H   0  0  0  0  0  0  0  0  0  0  0  0
   -4.6632    0.2177    0.3950 H   0  0  0  0  0  0  0  0  0  0  0  0
   -3.9000    0.2479   -1.8491 H   0  0  0  0  0  0  0  0  0  0  0  0
   -3.2144    1.9630   -1.6498 H   0  0  0  0  0  0  0  0  0  0  0  0
   -5.9860    1.0583   -1.9983 H   0  0  0  0  0  0  0  0  0  0  0  0
   -5.3337    2.7487   -1.9767 H   0  0  0  0  0  0  0  0  0  0  0  0
   -6.4527    1.0439    0.2706 H   0  0  0  0  0  0  0  0  0  0  0  0
   -5.0517    3.7502    0.7643 H   0  0  0  0  0  0  0  0  0  0  0  0
   -5.6075    2.4387    1.9510 H   0  0  0  0  0  0  0  0  0  0  0  0
   -3.0397    2.8075    0.4748 H   0  0  0  0  0  0  0  0  0  0  0  0
   -3.4424    1.8202    2.0047 H   0  0  0  0  0  0  0  0  0  0  0  0
   -8.7470    1.6872   -1.0224 H   0  0  0  0  0  0  0  0  0  0  0  0
  1  2  1  0
  2  3  2  0
  3  4  1  0
  4  5  2  0
  5  6  1  0
  6  7  1  0
  7  8  2  0
  8  9  1  0
  9 10  1  0
 10 11  2  0
 11 12  1  0
 12 13  2  0
 13 14  1  0
 14 15  2  0
 13 16  1  0
 16 17  2  0
 16 18  1  0
 18 19  1  0
 19 20  2  0
 20 21  1  0
 21 22  2  0
 22 23  1  0
 23 24  2  0
 21 25  1  0
 25 26  1  0
 25 27  1  0
 25 28  1  0
  9 29  2  0
  7 30  1  0
 30 31  1  0
 31 32  1  0
 32 33  1  0
 33 34  1  0
 34 35  1  0
 33 36  1  0
 36 37  1  0
 36 38  2  0
 29  2  1  0
 35 30  1  0
 29  6  1  0
 15 10  1  0
 24 19  1  0
  1 39  1  0
  1 40  1  0
  4 41  1  0
  5 42  1  0
 11 43  1  0
 12 44  1  0
 14 45  1  0
 15 46  1  0
 18 47  1  0
 20 48  1  0
 22 49  1  0
 23 50  1  0
 30 51  1  1
 31 52  1  0
 31 53  1  0
 32 54  1  0
 32 55  1  0
 33 56  1  1
 34 57  1  0
 34 58  1  0
 35 59  1  0
 35 60  1  0
 37 61  1  0
M  END
$$$$
[H]O[C@@]1([H])[C@@]([H])(N([H])[C@]2([H])C([H])([H])C([H])([H])C([H])([H])[C@]2([H])[N+]([H])(C([H])([H])[H])C([H])([H])[H])C([H])(N([H])C([H])([H])c2c([H])c([H])c(Cl)c([H])c2[H])[C@@]([H])(O[H])[C@]1([H])O[H]
     RDKit          3D

 57 59  0  0  0  0  0  0  0  0999 V2000
   -5.4065    0.7596    0.5152 C   0  0  0  0  0  0  0  0  0  0  0  0
   -4.0585    0.2621    0.7649 N   0  0  0  0  0  0  0  0  0  0  0  0
   -4.2487   -1.1444    1.1191 C   0  0  0  0  0  0  0  0  0  0  0  0
   -3.2056    0.2976   -0.4145 C   0  0  1  0  0  0  0  0  0  0  0  0
   -3.8115    1.2868   -1.4388 C   0  0  0  0  0  0  0  0  0  0  0  0
   -3.3169    2.6158   -0.9703 C   0  0  0  0  0  0  0  0  0  0  0  0
   -2.3246    2.3605    0.1707 C   0  0  0  0  0  0  0  0  0  0  0  0
   -1.8870    0.9529   -0.2039 C   0  0  1  0  0  0  0  0  0  0  0  0
   -0.8133    0.3969    0.4161 N   0  0  0  0  0  0  0  0  0  0  0  0
   -0.0319   -0.5624   -0.1894 C   0  0  2  0  0  0  0  0  0  0  0  0
   -0.6640   -1.8460   -0.5724 C   0  0  2  0  0  0  0  0  0  0  0  0
   -1.1430   -2.6046    0.4803 O   0  0  0  0  0  0  0  0  0  0  0  0
    0.6264   -2.6306   -1.0063 C   0  0  1  0  0  0  0  0  0  0  0  0
    1.1951   -2.0482   -2.1153 O   0  0  0  0  0  0  0  0  0  0  0  0
    1.4429   -2.3963    0.2716 C   0  0  2  0  0  0  0  0  0  0  0  0
    0.9693   -3.3200    1.2181 O   0  0  0  0  0  0  0  0  0  0  0  0
    1.1747   -0.9811    0.6695 C   0  0  0  0  0  0  0  0  0  0  0  0
    2.3070   -0.1671    0.2303 N   0  0  0  0  0  0  0  0  0  0  0  0
    3.4855   -0.4694    1.0201 C   0  0  0  0  0  0  0  0  0  0  0  0
    4.6399    0.2886    0.5055 C   0  0  0  0  0  0  0  0  0  0  0  0
    5.9381   -0.1093    0.7996 C   0  0  0  0  0  0  0  0  0  0  0  0
    7.0222    0.5895    0.3275 C   0  0  0  0  0  0  0  0  0  0  0  0
    6.8531    1.7103   -0.4541 C   0  0  0  0  0  0  0  0  0  0  0  0
    8.3085    2.5267   -1.0017 Cl  0  0  0  0  0  0  0  0  0  0  0  0
    5.5884    2.1096   -0.7484 C   0  0  0  0  0  0  0  0  0  0  0  0
    4.4768    1.3993   -0.2694 C   0  0  0  0  0  0  0  0  0  0  0  0
   -5.9680    0.5350    1.4834 H   0  0  0  0  0  0  0  0  0  0  0  0
   -5.4910    1.8265    0.3867 H   0  0  0  0  0  0  0  0  0  0  0  0
   -5.9380    0.1239   -0.2270 H   0  0  0  0  0  0  0  0  0  0  0  0
   -3.6908    0.8003    1.5739 H   0  0  0  0  0  0  0  0  0  0  0  0
   -3.4473   -1.4865    1.8036 H   0  0  0  0  0  0  0  0  0  0  0  0
   -4.3079   -1.7251    0.1849 H   0  0  0  0  0  0  0  0  0  0  0  0
   -5.2381   -1.2481    1.6213 H   0  0  0  0  0  0  0  0  0  0  0  0
   -3.1432   -0.6564   -0.9046 H   0  0  0  0  0  0  0  0  0  0  0  0
   -3.2578    1.0236   -2.3863 H   0  0  0  0  0  0  0  0  0  0  0  0
   -4.8777    1.1727   -1.5677 H   0  0  0  0  0  0  0  0  0  0  0  0
   -2.7563    3.1194   -1.8172 H   0  0  0  0  0  0  0  0  0  0  0  0
   -4.0572    3.3382   -0.6571 H   0  0  0  0  0  0  0  0  0  0  0  0
   -2.7525    2.4715    1.1531 H   0  0  0  0  0  0  0  0  0  0  0  0
   -1.4577    3.0312    0.0155 H   0  0  0  0  0  0  0  0  0  0  0  0
   -1.5680    1.1602   -1.3518 H   0  0  0  0  0  0  0  0  0  0  0  0
   -0.5368    0.7892    1.3281 H   0  0  0  0  0  0  0  0  0  0  0  0
    0.3971   -0.1161   -1.1510 H   0  0  0  0  0  0  0  0  0  0  0  0
   -1.3245   -1.8116   -1.4560 H   0  0  0  0  0  0  0  0  0  0  0  0
   -1.1462   -2.0227    1.3011 H   0  0  0  0  0  0  0  0  0  0  0  0
    0.2997   -3.6666   -1.1110 H   0  0  0  0  0  0  0  0  0  0  0  0
    0.5670   -1.4999   -2.6394 H   0  0  0  0  0  0  0  0  0  0  0  0
    2.4828   -2.6019   -0.0279 H   0  0  0  0  0  0  0  0  0  0  0  0
    1.0063   -4.2124    0.7902 H   0  0  0  0  0  0  0  0  0  0  0  0
    0.9882   -0.9230    1.7381 H   0  0  0  0  0  0  0  0  0  0  0  0
    2.0641    0.8525    0.3491 H   0  0  0  0  0  0  0  0  0  0  0  0
    3.3106   -0.0553    2.0652 H   0  0  0  0  0  0  0  0  0  0  0  0
    3.6802   -1.5404    1.1747 H   0  0  0  0  0  0  0  0  0  0  0  0
    6.0213   -1.0005    1.4241 H   0  0  0  0  0  0  0  0  0  0  0  0
    8.0339    0.2455    0.5792 H   0  0  0  0  0  0  0  0  0  0  0  0
    5.4793    2.9988   -1.3677 H   0  0  0  0  0  0  0  0  0  0  0  0
    3.5120    1.8012   -0.5643 H   0  0  0  0  0  0  0  0  0  0  0  0
  1  2  1  0
  2  3  1  0
  2  4  1  0
  4  5  1  0
  5  6  1  0
  6  7  1  0
  7  8  1  0
  8  9  1  0
  9 10  1  0
 10 11  1  0
 11 12  1  0
 11 13  1  0
 13 14  1  0
 13 15  1  0
 15 16  1  0
 15 17  1  0
 17 18  1  0
 18 19  1  0
 19 20  1  0
 20 21  2  0
 21 22  1  0
 22 23  2  0
 23 24  1  0
 23 25  1  0
 25 26  2  0
  8  4  1  0
 17 10  1  0
 26 20  1  0
  1 27  1  0
  1 28  1  0
  1 29  1  0
  2 30  1  0
  3 31  1  0
  3 32  1  0
  3 33  1  0
  4 34  1  6
  5 35  1  0
  5 36  1  0
  6 37  1  0
  6 38  1  0
  7 39  1  0
  7 40  1  0
  8 41  1  6
  9 42  1  0
 10 43  1  6
 11 44  1  6
 12 45  1  0
 13 46  1  6
 14 47  1  0
 15 48  1  6
 16 49  1  0
 17 50  1  0
 18 51  1  0
 19 52  1  0
 19 53  1  0
 21 54  1  0
 22 55  1  0
 25 56  1  0
 26 57  1  0
M  CHG  1   2   1
M  END
$$$$
[H]N=C(N([H])[H])N([H])C([H])([H])C([H])([H])C([H])([H])[C@@]([H])(C([H])=O)N([H])C(=O)[C@@]1([H])N(C(=O)[C@@]([H])(N([H])C(=O)[C@@]([H])(N([H])[H])C([H])(C([H])([H])[H])C([H])([H])[H])C([H])([H])C([H])([H])C(=O)O[H])C([H])([H])C([H])([H])C1([H])[H]
     RDKit          3D

 71 71  0  0  0  0  0  0  0  0999 V2000
   -6.4589    2.8371   -2.0916 C   0  0  0  0  0  0  0  0  0  0  0  0
   -5.2501    2.2767   -1.3361 C   0  0  0  0  0  0  0  0  0  0  0  0
   -4.0603    2.2586   -2.2462 C   0  0  0  0  0  0  0  0  0  0  0  0
   -5.6638    0.8657   -0.8791 C   0  0  2  0  0  0  0  0  0  0  0  0
   -6.8432    1.1259   -0.0339 N   0  0  0  0  0  0  0  0  0  0  0  0
   -4.6361    0.2627   -0.0275 C   0  0  0  0  0  0  0  0  0  0  0  0
   -4.8854    0.1352    1.2245 O   0  0  0  0  0  0  0  0  0  0  0  0
   -3.3850   -0.1938   -0.4649 N   0  0  0  0  0  0  0  0  0  0  0  0
   -2.3725   -0.7914    0.4469 C   0  0  1  0  0  0  0  0  0  0  0  0
   -2.0798   -2.1202   -0.2177 C   0  0  0  0  0  0  0  0  0  0  0  0
   -1.1090   -3.0052    0.4504 C   0  0  0  0  0  0  0  0  0  0  0  0
   -1.4939   -3.4723    1.7854 C   0  0  0  0  0  0  0  0  0  0  0  0
   -2.7134   -3.1829    2.3535 O   0  0  0  0  0  0  0  0  0  0  0  0
   -0.6785   -4.1714    2.4501 O   0  0  0  0  0  0  0  0  0  0  0  0
   -1.1489    0.1022    0.3655 C   0  0  0  0  0  0  0  0  0  0  0  0
   -0.8931    0.4562   -0.8149 O   0  0  0  0  0  0  0  0  0  0  0  0
   -0.4018    0.4841    1.4858 N   0  0  0  0  0  0  0  0  0  0  0  0
   -0.7552    0.1372    2.8499 C   0  0  0  0  0  0  0  0  0  0  0  0
    0.5754   -0.2033    3.4298 C   0  0  0  0  0  0  0  0  0  0  0  0
    1.6098    0.4993    2.6065 C   0  0  0  0  0  0  0  0  0  0  0  0
    0.7774    1.2738    1.5944 C   0  0  1  0  0  0  0  0  0  0  0  0
    1.5438    1.5538    0.3921 C   0  0  0  0  0  0  0  0  0  0  0  0
    1.8371    2.7456    0.1280 O   0  0  0  0  0  0  0  0  0  0  0  0
    1.9933    0.5595   -0.5067 N   0  0  0  0  0  0  0  0  0  0  0  0
    2.7534    0.8417   -1.6919 C   0  0  1  0  0  0  0  0  0  0  0  0
    4.2386    0.4339   -1.4842 C   0  0  0  0  0  0  0  0  0  0  0  0
    4.3244   -1.0191   -1.1872 C   0  0  0  0  0  0  0  0  0  0  0  0
    5.6958   -1.5840   -0.9995 C   0  0  0  0  0  0  0  0  0  0  0  0
    6.4732   -1.0397    0.0725 N   0  0  0  0  0  0  0  0  0  0  0  0
    7.0269    0.2644    0.1314 C   0  0  0  0  0  0  0  0  0  0  0  0
    6.9415    1.0741    1.3061 N   0  0  0  0  0  0  0  0  0  0  0  0
    7.6334    0.7310   -0.9003 N   0  0  0  0  0  0  0  0  0  0  0  0
    2.3226    0.0749   -2.8793 C   0  0  0  0  0  0  0  0  0  0  0  0
    1.4271   -0.7481   -2.9014 O   0  0  0  0  0  0  0  0  0  0  0  0
   -7.0655    3.4896   -1.4275 H   0  0  0  0  0  0  0  0  0  0  0  0
   -7.0798    2.0367   -2.5108 H   0  0  0  0  0  0  0  0  0  0  0  0
   -6.0717    3.5225   -2.9006 H   0  0  0  0  0  0  0  0  0  0  0  0
   -5.1289    2.8953   -0.4382 H   0  0  0  0  0  0  0  0  0  0  0  0
   -4.1550    1.4144   -2.9516 H   0  0  0  0  0  0  0  0  0  0  0  0
   -3.1415    2.2386   -1.6444 H   0  0  0  0  0  0  0  0  0  0  0  0
   -4.0742    3.2474   -2.7955 H   0  0  0  0  0  0  0  0  0  0  0  0
   -5.9197    0.3064   -1.7776 H   0  0  0  0  0  0  0  0  0  0  0  0
   -6.5281    1.8985    0.6250 H   0  0  0  0  0  0  0  0  0  0  0  0
   -7.0951    0.2725    0.5168 H   0  0  0  0  0  0  0  0  0  0  0  0
   -3.1164   -0.1350   -1.4532 H   0  0  0  0  0  0  0  0  0  0  0  0
   -2.8122   -0.8341    1.4199 H   0  0  0  0  0  0  0  0  0  0  0  0
   -1.6370   -1.8419   -1.2236 H   0  0  0  0  0  0  0  0  0  0  0  0
   -3.0203   -2.6500   -0.4943 H   0  0  0  0  0  0  0  0  0  0  0  0
   -0.1338   -2.4421    0.5202 H   0  0  0  0  0  0  0  0  0  0  0  0
   -0.9465   -3.8898   -0.2025 H   0  0  0  0  0  0  0  0  0  0  0  0
   -2.9172   -3.0902    3.3321 H   0  0  0  0  0  0  0  0  0  0  0  0
   -1.1499    1.1174    3.2815 H   0  0  0  0  0  0  0  0  0  0  0  0
   -1.5212   -0.6181    2.9606 H   0  0  0  0  0  0  0  0  0  0  0  0
    0.5981    0.2470    4.4605 H   0  0  0  0  0  0  0  0  0  0  0  0
    0.7558   -1.2930    3.5179 H   0  0  0  0  0  0  0  0  0  0  0  0
    2.2576   -0.2501    2.1112 H   0  0  0  0  0  0  0  0  0  0  0  0
    2.2687    1.1257    3.2125 H   0  0  0  0  0  0  0  0  0  0  0  0
    0.4851    2.2131    2.1356 H   0  0  0  0  0  0  0  0  0  0  0  0
    1.7915   -0.4743   -0.3504 H   0  0  0  0  0  0  0  0  0  0  0  0
    2.7810    1.9150   -1.9645 H   0  0  0  0  0  0  0  0  0  0  0  0
    4.7752    0.6657   -2.4048 H   0  0  0  0  0  0  0  0  0  0  0  0
    4.6500    1.0549   -0.6662 H   0  0  0  0  0  0  0  0  0  0  0  0
    3.7913   -1.2001   -0.1986 H   0  0  0  0  0  0  0  0  0  0  0  0
    3.7299   -1.6374   -1.9138 H   0  0  0  0  0  0  0  0  0  0  0  0
    6.2753   -1.4032   -1.9423 H   0  0  0  0  0  0  0  0  0  0  0  0
    5.6779   -2.6964   -0.8819 H   0  0  0  0  0  0  0  0  0  0  0  0
    6.6757   -1.6449    0.9267 H   0  0  0  0  0  0  0  0  0  0  0  0
    7.7049    1.1266    1.9896 H   0  0  0  0  0  0  0  0  0  0  0  0
    6.0785    1.6307    1.4795 H   0  0  0  0  0  0  0  0  0  0  0  0
    8.0539    1.6791   -0.9023 H   0  0  0  0  0  0  0  0  0  0  0  0
    2.8188    0.2202   -3.8555 H   0  0  0  0  0  0  0  0  0  0  0  0
  1  2  1  0
  2  3  1  0
  2  4  1  0
  4  5  1  0
  4  6  1  0
  6  7  2  0
  6  8  1  0
  8  9  1  0
  9 10  1  0
 10 11  1  0
 11 12  1  0
 12 13  1  0
 12 14  2  0
  9 15  1  0
 15 16  2  0
 15 17  1  0
 17 18  1  0
 18 19  1  0
 19 20  1  0
 20 21  1  0
 21 22  1  0
 22 23  2  0
 22 24  1  0
 24 25  1  0
 25 26  1  0
 26 27  1  0
 27 28  1  0
 28 29  1  0
 29 30  1  0
 30 31  1  0
 30 32  2  3
 25 33  1  0
 33 34  2  0
 21 17  1  0
  1 35  1  0
  1 36  1  0
  1 37  1  0
  2 38  1  0
  3 39  1  0
  3 40  1  0
  3 41  1  0
  4 42  1  6
  5 43  1  0
  5 44  1  0
  8 45  1  0
  9 46  1  1
 10 47  1  0
 10 48  1  0
 11 49  1  0
 11 50  1  0
 13 51  1  0
 18 52  1  0
 18 53  1  0
 19 54  1  0
 19 55  1  0
 20 56  1  0
 20 57  1  0
 21 58  1  1
 24 59  1  0
 25 60  1  6
 26 61  1  0
 26 62  1  0
 27 63  1  0
 27 64  1  0
 28 65  1  0
 28 66  1  0
 29 67  1  0
 31 68  1  0
 31 69  1  0
 32 70  1  0
 33 71  1  0
M  END
$$$$
[H]c1c([H])c([C@]2([H])O[C@]([H])(C([H])([H])[H])C([H])([H])N(C([H])([H])[H])C2([H])[H])c([H])c(Cl)c1-c1c([H])c([H])c2c(c1[H])n([H])c(=O)n2C([H])([H])[H]
     RDKit          3D

 48 51  0  0  0  0  0  0  0  0999 V2000
    0.5427   -0.3591    1.1523 C   0  0  0  0  0  0  0  0  0  0  0  0
   -0.8092   -0.2735    1.3946 C   0  0  0  0  0  0  0  0  0  0  0  0
   -1.6199    0.5117    0.5654 C   0  0  0  0  0  0  0  0  0  0  0  0
   -3.0569    0.5083    0.9421 C   0  0  1  0  0  0  0  0  0  0  0  0
   -3.9429    1.3182    0.0741 C   0  0  0  0  0  0  0  0  0  0  0  0
   -4.4639    0.5976   -1.0678 N   0  0  0  0  0  0  0  0  0  0  0  0
   -5.6915    1.2541   -1.4771 C   0  0  0  0  0  0  0  0  0  0  0  0
   -4.8059   -0.7724   -0.7279 C   0  0  0  0  0  0  0  0  0  0  0  0
   -4.7680   -0.9441    0.7962 C   0  0  1  0  0  0  0  0  0  0  0  0
   -5.2759   -2.3352    1.1139 C   0  0  0  0  0  0  0  0  0  0  0  0
   -3.4381   -0.7910    1.1654 O   0  0  0  0  0  0  0  0  0  0  0  0
   -1.0706    1.1900   -0.4801 C   0  0  0  0  0  0  0  0  0  0  0  0
    0.2998    1.0786   -0.6928 C   0  0  0  0  0  0  0  0  0  0  0  0
    0.9745    1.9622   -2.0274 Cl  0  0  0  0  0  0  0  0  0  0  0  0
    1.1225    0.3167    0.1021 C   0  0  0  0  0  0  0  0  0  0  0  0
    2.5578    0.1688   -0.0922 C   0  0  0  0  0  0  0  0  0  0  0  0
    3.4540    0.3078    0.9614 C   0  0  0  0  0  0  0  0  0  0  0  0
    4.8167    0.1662    0.8067 C   0  0  0  0  0  0  0  0  0  0  0  0
    5.3406   -0.1265   -0.4391 C   0  0  0  0  0  0  0  0  0  0  0  0
    6.6814   -0.2119   -0.3236 N   0  0  0  0  0  0  0  0  0  0  0  0
    7.6048   -0.5048   -1.4087 C   0  0  0  0  0  0  0  0  0  0  0  0
    7.0210    0.0195    0.9655 C   0  0  0  0  0  0  0  0  0  0  0  0
    8.2096    0.0061    1.3777 O   0  0  0  0  0  0  0  0  0  0  0  0
    5.8796    0.2459    1.6319 N   0  0  0  0  0  0  0  0  0  0  0  0
    4.4530   -0.2632   -1.4770 C   0  0  0  0  0  0  0  0  0  0  0  0
    3.0948   -0.1206   -1.3150 C   0  0  0  0  0  0  0  0  0  0  0  0
    1.1640   -0.9664    1.7951 H   0  0  0  0  0  0  0  0  0  0  0  0
   -1.2080   -0.8276    2.2356 H   0  0  0  0  0  0  0  0  0  0  0  0
   -3.0728    1.0012    1.9643 H   0  0  0  0  0  0  0  0  0  0  0  0
   -4.8474    1.6885    0.6441 H   0  0  0  0  0  0  0  0  0  0  0  0
   -3.4722    2.2465   -0.3006 H   0  0  0  0  0  0  0  0  0  0  0  0
   -6.5180    0.5114   -1.6626 H   0  0  0  0  0  0  0  0  0  0  0  0
   -6.0812    1.9397   -0.6941 H   0  0  0  0  0  0  0  0  0  0  0  0
   -5.5151    1.8434   -2.4129 H   0  0  0  0  0  0  0  0  0  0  0  0
   -5.7876   -1.0796   -1.1080 H   0  0  0  0  0  0  0  0  0  0  0  0
   -4.0470   -1.4768   -1.1274 H   0  0  0  0  0  0  0  0  0  0  0  0
   -5.3754   -0.1588    1.2663 H   0  0  0  0  0  0  0  0  0  0  0  0
   -5.6626   -2.3229    2.1721 H   0  0  0  0  0  0  0  0  0  0  0  0
   -6.1199   -2.5449    0.4106 H   0  0  0  0  0  0  0  0  0  0  0  0
   -4.4980   -3.0914    0.9668 H   0  0  0  0  0  0  0  0  0  0  0  0
   -1.7033    1.7842   -1.1065 H   0  0  0  0  0  0  0  0  0  0  0  0
    3.0662    0.5357    1.9394 H   0  0  0  0  0  0  0  0  0  0  0  0
    8.5333    0.1001   -1.3312 H   0  0  0  0  0  0  0  0  0  0  0  0
    7.0887   -0.2580   -2.3749 H   0  0  0  0  0  0  0  0  0  0  0  0
    7.8183   -1.5887   -1.3960 H   0  0  0  0  0  0  0  0  0  0  0  0
    5.8346    0.4517    2.6382 H   0  0  0  0  0  0  0  0  0  0  0  0
    4.8323   -0.4908   -2.4569 H   0  0  0  0  0  0  0  0  0  0  0  0
    2.4608   -0.2457   -2.1700 H   0  0  0  0  0  0  0  0  0  0  0  0
  1  2  2  0
  2  3  1  0
  3  4  1  0
  4  5  1  0
  5  6  1  0
  6  7  1  0
  6  8  1  0
  8  9  1  0
  9 10  1  0
  9 11  1  0
  3 12  2  0
 12 13  1  0
 13 14  1  0
 13 15  2  0
 15 16  1  0
 16 17  2  0
 17 18  1  0
 18 19  2  0
 19 20  1  0
 20 21  1  0
 20 22  1  0
 22 23  2  0
 22 24  1  0
 19 25  1  0
 25 26  2  0
 15  1  1  0
 26 16  1  0
 11  4  1  0
 24 18  1  0
  1 27  1  0
  2 28  1  0
  4 29  1  1
  5 30  1  0
  5 31  1  0
  7 32  1  0
  7 33  1  0
  7 34  1  0
  8 35  1  0
  8 36  1  0
  9 37  1  1
 10 38  1  0
 10 39  1  0
 10 40  1  0
 12 41  1  0
 17 42  1  0
 21 43  1  0
 21 44  1  0
 21 45  1  0
 24 46  1  0
 25 47  1  0
 26 48  1  0
M  END
$$$$
[H]Oc1c([H])c([H])c(N([H])c2c([H])c(/C([H])=C(\[H])C(=O)N3C([H])([H])[C@@]4([H])N(c5c([H])c([H])c(C(=O)N([H])c6c([H])c([H])c(C(C([H])([H])[H])(C([H])([H])[H])C([H])([H])[H])c([H])c6[H])c([H])c5[H])C([H])([H])[C@]3([H])C([H])([H])C4([H])[H])c([H])c([H])c2O[H])c([H])c1[H]
     RDKit          3D

 86 91  0  0  0  0  0  0  0  0999 V2000
  -12.8302    0.3741   -0.1629 C   0  0  0  0  0  0  0  0  0  0  0  0
  -11.8304   -0.7365   -0.3513 C   0  0  0  0  0  0  0  0  0  0  0  0
  -12.2202   -1.9080    0.5267 C   0  0  0  0  0  0  0  0  0  0  0  0
  -11.9993   -1.2347   -1.7945 C   0  0  0  0  0  0  0  0  0  0  0  0
  -10.4274   -0.3162   -0.1151 C   0  0  0  0  0  0  0  0  0  0  0  0
   -9.3925   -1.2275   -0.3819 C   0  0  0  0  0  0  0  0  0  0  0  0
   -8.0784   -0.8757   -0.1826 C   0  0  0  0  0  0  0  0  0  0  0  0
   -7.7069    0.3721    0.2833 C   0  0  0  0  0  0  0  0  0  0  0  0
   -6.3018    0.6955    0.4312 N   0  0  0  0  0  0  0  0  0  0  0  0
   -5.3405    0.2625   -0.4583 C   0  0  0  0  0  0  0  0  0  0  0  0
   -5.6712   -0.4179   -1.4921 O   0  0  0  0  0  0  0  0  0  0  0  0
   -3.9214    0.5280   -0.2836 C   0  0  0  0  0  0  0  0  0  0  0  0
   -3.1661    1.4190   -0.9812 C   0  0  0  0  0  0  0  0  0  0  0  0
   -1.7804    1.5181   -0.7947 C   0  0  0  0  0  0  0  0  0  0  0  0
   -1.1249    0.7147    0.1060 C   0  0  0  0  0  0  0  0  0  0  0  0
   -1.9057   -0.2077    0.8369 C   0  0  0  0  0  0  0  0  0  0  0  0
   -3.2462   -0.2889    0.6410 C   0  0  0  0  0  0  0  0  0  0  0  0
    0.2533    0.6848    0.3456 N   0  0  0  0  0  0  0  0  0  0  0  0
    0.9209   -0.6373    0.4474 C   0  0  0  0  0  0  0  0  0  0  0  0
    1.9825   -0.4006    1.4928 C   0  0  2  0  0  0  0  0  0  0  0  0
    1.5440    0.5288    2.5942 C   0  0  0  0  0  0  0  0  0  0  0  0
    1.2352    1.9218    2.0987 C   0  0  0  0  0  0  0  0  0  0  0  0
    1.0975    1.8018    0.5545 C   0  0  1  0  0  0  0  0  0  0  0  0
    2.5642    1.5411    0.1085 C   0  0  0  0  0  0  0  0  0  0  0  0
    3.0410    0.3678    0.7509 N   0  0  0  0  0  0  0  0  0  0  0  0
    4.3165   -0.1901    0.8033 C   0  0  0  0  0  0  0  0  0  0  0  0
    4.4241   -1.3277    1.4902 O   0  0  0  0  0  0  0  0  0  0  0  0
    5.5623    0.2198    0.2576 C   0  0  0  0  0  0  0  0  0  0  0  0
    5.8030    1.2731   -0.4651 C   0  0  0  0  0  0  0  0  0  0  0  0
    7.1778    1.5429   -0.9469 C   0  0  0  0  0  0  0  0  0  0  0  0
    7.4309    2.6638   -1.7137 C   0  0  0  0  0  0  0  0  0  0  0  0
    8.7299    2.9167   -2.1425 C   0  0  0  0  0  0  0  0  0  0  0  0
    9.7491    2.0623   -1.8090 C   0  0  0  0  0  0  0  0  0  0  0  0
   11.0393    2.3145   -2.2354 O   0  0  0  0  0  0  0  0  0  0  0  0
    9.5462    0.9269   -1.0449 C   0  0  0  0  0  0  0  0  0  0  0  0
   10.5767    0.0717   -0.6586 N   0  0  0  0  0  0  0  0  0  0  0  0
   10.3690   -1.2116   -0.1419 C   0  0  0  0  0  0  0  0  0  0  0  0
    9.4234   -2.0672   -0.6673 C   0  0  0  0  0  0  0  0  0  0  0  0
    9.1711   -3.3252   -0.1707 C   0  0  0  0  0  0  0  0  0  0  0  0
    9.8962   -3.7702    0.9096 C   0  0  0  0  0  0  0  0  0  0  0  0
    9.7018   -5.0240    1.4664 O   0  0  0  0  0  0  0  0  0  0  0  0
   10.8357   -2.9384    1.4417 C   0  0  0  0  0  0  0  0  0  0  0  0
   11.0811   -1.6972    0.9497 C   0  0  0  0  0  0  0  0  0  0  0  0
    8.2257    0.7184   -0.6381 C   0  0  0  0  0  0  0  0  0  0  0  0
   -8.7040    1.2763    0.5517 C   0  0  0  0  0  0  0  0  0  0  0  0
  -10.0416    0.9151    0.3475 C   0  0  0  0  0  0  0  0  0  0  0  0
  -13.7853    0.1606   -0.7078 H   0  0  0  0  0  0  0  0  0  0  0  0
  -12.9961    0.6248    0.9034 H   0  0  0  0  0  0  0  0  0  0  0  0
  -12.4168    1.2847   -0.6493 H   0  0  0  0  0  0  0  0  0  0  0  0
  -11.3564   -2.6009    0.6901 H   0  0  0  0  0  0  0  0  0  0  0  0
  -12.5873   -1.5314    1.5013 H   0  0  0  0  0  0  0  0  0  0  0  0
  -13.0728   -2.4023    0.0263 H   0  0  0  0  0  0  0  0  0  0  0  0
  -11.2532   -0.6820   -2.3960 H   0  0  0  0  0  0  0  0  0  0  0  0
  -11.7232   -2.3114   -1.8188 H   0  0  0  0  0  0  0  0  0  0  0  0
  -13.0111   -1.0434   -2.1641 H   0  0  0  0  0  0  0  0  0  0  0  0
   -9.6900   -2.1958   -0.7467 H   0  0  0  0  0  0  0  0  0  0  0  0
   -7.3021   -1.6128   -0.3746 H   0  0  0  0  0  0  0  0  0  0  0  0
   -6.0903    1.2873    1.2620 H   0  0  0  0  0  0  0  0  0  0  0  0
   -3.6523    2.0699   -1.7076 H   0  0  0  0  0  0  0  0  0  0  0  0
   -1.2130    2.2484   -1.3788 H   0  0  0  0  0  0  0  0  0  0  0  0
   -1.4078   -0.8556    1.5710 H   0  0  0  0  0  0  0  0  0  0  0  0
   -3.8695   -0.9986    1.1948 H   0  0  0  0  0  0  0  0  0  0  0  0
    0.2386   -1.4473    0.6563 H   0  0  0  0  0  0  0  0  0  0  0  0
    1.4420   -0.8490   -0.5271 H   0  0  0  0  0  0  0  0  0  0  0  0
    2.3823   -1.3192    1.9116 H   0  0  0  0  0  0  0  0  0  0  0  0
    2.4416    0.6475    3.2613 H   0  0  0  0  0  0  0  0  0  0  0  0
    0.7558    0.0910    3.2308 H   0  0  0  0  0  0  0  0  0  0  0  0
    2.0270    2.6549    2.2843 H   0  0  0  0  0  0  0  0  0  0  0  0
    0.2797    2.2756    2.4977 H   0  0  0  0  0  0  0  0  0  0  0  0
    0.7772    2.7624    0.1636 H   0  0  0  0  0  0  0  0  0  0  0  0
    2.6274    1.5525   -0.9797 H   0  0  0  0  0  0  0  0  0  0  0  0
    3.1038    2.4256    0.5636 H   0  0  0  0  0  0  0  0  0  0  0  0
    6.4177   -0.4742    0.4994 H   0  0  0  0  0  0  0  0  0  0  0  0
    5.0088    1.9517   -0.7220 H   0  0  0  0  0  0  0  0  0  0  0  0
    6.6295    3.3227   -1.9710 H   0  0  0  0  0  0  0  0  0  0  0  0
    8.9650    3.7931   -2.7497 H   0  0  0  0  0  0  0  0  0  0  0  0
   11.3076    3.1084   -2.7900 H   0  0  0  0  0  0  0  0  0  0  0  0
   11.5684    0.4415   -0.7674 H   0  0  0  0  0  0  0  0  0  0  0  0
    8.8287   -1.7512   -1.5325 H   0  0  0  0  0  0  0  0  0  0  0  0
    8.4219   -3.9824   -0.5969 H   0  0  0  0  0  0  0  0  0  0  0  0
   10.1779   -5.8651    1.1927 H   0  0  0  0  0  0  0  0  0  0  0  0
   11.4073   -3.2992    2.2946 H   0  0  0  0  0  0  0  0  0  0  0  0
   11.8377   -1.0709    1.3977 H   0  0  0  0  0  0  0  0  0  0  0  0
    8.0293   -0.1373   -0.0126 H   0  0  0  0  0  0  0  0  0  0  0  0
   -8.4330    2.2489    0.9173 H   0  0  0  0  0  0  0  0  0  0  0  0
  -10.8240    1.6494    0.5669 H   0  0  0  0  0  0  0  0  0  0  0  0
  1  2  1  0
  2  3  1  0
  2  4  1  0
  2  5  1  0
  5  6  2  0
  6  7  1  0
  7  8  2  0
  8  9  1  0
  9 10  1  0
 10 11  2  0
 10 12  1  0
 12 13  2  0
 13 14  1  0
 14 15  2  0
 15 16  1  0
 16 17  2  0
 15 18  1  0
 18 19  1  0
 19 20  1  0
 20 21  1  0
 21 22  1  0
 22 23  1  0
 23 24  1  0
 24 25  1  0
 25 26  1  0
 26 27  2  0
 26 28  1  0
 28 29  2  0
 29 30  1  0
 30 31  2  0
 31 32  1  0
 32 33  2  0
 33 34  1  0
 33 35  1  0
 35 36  1  0
 36 37  1  0
 37 38  2  0
 38 39  1  0
 39 40  2  0
 40 41  1  0
 40 42  1  0
 42 43  2  0
 35 44  2  0
  8 45  1  0
 45 46  2  0
 46  5  1  0
 17 12  1  0
 23 18  1  0
 44 30  1  0
 25 20  1  0
 43 37  1  0
  1 47  1  0
  1 48  1  0
  1 49  1  0
  3 50  1  0
  3 51  1  0
  3 52  1  0
  4 53  1  0
  4 54  1  0
  4 55  1  0
  6 56  1  0
  7 57  1  0
  9 58  1  0
 13 59  1  0
 14 60  1  0
 16 61  1  0
 17 62  1  0
 19 63  1  0
 19 64  1  0
 20 65  1  1
 21 66  1  0
 21 67  1  0
 22 68  1  0
 22 69  1  0
 23 70  1  6
 24 71  1  0
 24 72  1  0
 28 73  1  0
 29 74  1  0
 31 75  1  0
 32 76  1  0
 34 77  1  0
 36 78  1  0
 38 79  1  0
 39 80  1  0
 41 81  1  0
 42 82  1  0
 43 83  1  0
 44 84  1  0
 45 85  1  0
 46 86  1  0
M  END
$$$$
[H]OC(=O)C([H])([H])C([H])([H])[C@@]([H])(C(=O)N([H])[C@]([H])(C(=O)N([H])[C@]([H])(C(=O)OC([H])([H])c1c([H])c([H])c([H])c([H])c1[H])C([H])([H])C([H])([H])C([H])([H])C([H])([H])N([H])[H])[C@@]([H])(C([H])([H])[H])C([H])([H])C([H])([H])[H])N([H])C(=O)OC([H])([H])c1c([H])c([H])c([H])c([H])c1[H]
     RDKit          3D

 88 89  0  0  0  0  0  0  0  0999 V2000
   -0.3711   -3.3178   -2.7726 C   0  0  0  0  0  0  0  0  0  0  0  0
   -0.8325   -3.5629   -1.3686 C   0  0  0  0  0  0  0  0  0  0  0  0
    0.0283   -2.9569   -0.2981 C   0  0  2  0  0  0  0  0  0  0  0  0
   -0.6062   -3.3837    1.0199 C   0  0  0  0  0  0  0  0  0  0  0  0
    0.2244   -1.4792   -0.3524 C   0  0  2  0  0  0  0  0  0  0  0  0
    1.1623   -1.1493    0.7793 N   0  0  0  0  0  0  0  0  0  0  0  0
    2.3540   -0.4699    0.6061 C   0  0  0  0  0  0  0  0  0  0  0  0
    2.7359   -0.0675   -0.4998 O   0  0  0  0  0  0  0  0  0  0  0  0
    3.2331   -0.2040    1.8004 C   0  0  2  0  0  0  0  0  0  0  0  0
    2.4399    0.5209    2.8446 C   0  0  0  0  0  0  0  0  0  0  0  0
    1.9148    1.8575    2.3813 C   0  0  0  0  0  0  0  0  0  0  0  0
    1.1241    2.4679    3.4643 C   0  0  0  0  0  0  0  0  0  0  0  0
    0.5049    3.7061    3.3588 O   0  0  0  0  0  0  0  0  0  0  0  0
    0.9870    1.8553    4.5504 O   0  0  0  0  0  0  0  0  0  0  0  0
    4.4261    0.5181    1.4559 N   0  0  0  0  0  0  0  0  0  0  0  0
    5.6823   -0.1087    1.4184 C   0  0  0  0  0  0  0  0  0  0  0  0
    5.7604   -1.3593    1.6877 O   0  0  0  0  0  0  0  0  0  0  0  0
    6.8473    0.5380    1.1060 O   0  0  0  0  0  0  0  0  0  0  0  0
    8.1177   -0.0224    1.0260 C   0  0  0  0  0  0  0  0  0  0  0  0
    9.1293    0.9826    0.6336 C   0  0  0  0  0  0  0  0  0  0  0  0
   10.0572    1.5357    1.4838 C   0  0  0  0  0  0  0  0  0  0  0  0
   10.9960    2.4566    1.1071 C   0  0  0  0  0  0  0  0  0  0  0  0
   11.0448    2.8795   -0.1959 C   0  0  0  0  0  0  0  0  0  0  0  0
   10.1214    2.3427   -1.0859 C   0  0  0  0  0  0  0  0  0  0  0  0
    9.1812    1.4151   -0.6907 C   0  0  0  0  0  0  0  0  0  0  0  0
   -0.9299   -0.6115   -0.2732 C   0  0  0  0  0  0  0  0  0  0  0  0
   -0.9918    0.1945    0.7286 O   0  0  0  0  0  0  0  0  0  0  0  0
   -2.0160   -0.4892   -1.1263 N   0  0  0  0  0  0  0  0  0  0  0  0
   -3.1220    0.5237   -0.8714 C   0  0  1  0  0  0  0  0  0  0  0  0
   -2.9240    1.5138   -1.9247 C   0  0  0  0  0  0  0  0  0  0  0  0
   -3.6991    2.7369   -2.0900 C   0  0  0  0  0  0  0  0  0  0  0  0
   -5.1344    2.7638   -2.3827 C   0  0  0  0  0  0  0  0  0  0  0  0
   -5.5413    2.0652   -3.6648 C   0  0  0  0  0  0  0  0  0  0  0  0
   -4.8720    2.7197   -4.7693 N   0  0  0  0  0  0  0  0  0  0  0  0
   -4.3169   -0.3030   -0.7747 C   0  0  0  0  0  0  0  0  0  0  0  0
   -4.1901   -1.5927   -0.8088 O   0  0  0  0  0  0  0  0  0  0  0  0
   -5.5862    0.1510   -0.6456 O   0  0  0  0  0  0  0  0  0  0  0  0
   -6.7415   -0.5758   -0.5169 C   0  0  0  0  0  0  0  0  0  0  0  0
   -6.7571   -1.3238    0.7668 C   0  0  0  0  0  0  0  0  0  0  0  0
   -6.5748   -2.6671    0.8419 C   0  0  0  0  0  0  0  0  0  0  0  0
   -6.5919   -3.3325    2.0717 C   0  0  0  0  0  0  0  0  0  0  0  0
   -6.7960   -2.6373    3.2398 C   0  0  0  0  0  0  0  0  0  0  0  0
   -6.9848   -1.2693    3.1899 C   0  0  0  0  0  0  0  0  0  0  0  0
   -6.9646   -0.6290    1.9726 C   0  0  0  0  0  0  0  0  0  0  0  0
   -0.0880   -4.2816   -3.2400 H   0  0  0  0  0  0  0  0  0  0  0  0
   -1.3004   -2.9998   -3.3384 H   0  0  0  0  0  0  0  0  0  0  0  0
    0.4247   -2.5784   -2.8511 H   0  0  0  0  0  0  0  0  0  0  0  0
   -0.7826   -4.6810   -1.1786 H   0  0  0  0  0  0  0  0  0  0  0  0
   -1.9033   -3.3204   -1.1920 H   0  0  0  0  0  0  0  0  0  0  0  0
    1.0235   -3.4381   -0.3551 H   0  0  0  0  0  0  0  0  0  0  0  0
   -1.5575   -3.9259    0.8594 H   0  0  0  0  0  0  0  0  0  0  0  0
   -0.8218   -2.5608    1.6930 H   0  0  0  0  0  0  0  0  0  0  0  0
    0.0642   -4.0954    1.5529 H   0  0  0  0  0  0  0  0  0  0  0  0
    0.8135   -1.2391   -1.2507 H   0  0  0  0  0  0  0  0  0  0  0  0
    0.8634   -1.4695    1.7218 H   0  0  0  0  0  0  0  0  0  0  0  0
    3.5676   -1.1809    2.2265 H   0  0  0  0  0  0  0  0  0  0  0  0
    2.9711    0.5785    3.8206 H   0  0  0  0  0  0  0  0  0  0  0  0
    1.5337   -0.1144    3.0710 H   0  0  0  0  0  0  0  0  0  0  0  0
    1.2755    1.6978    1.4970 H   0  0  0  0  0  0  0  0  0  0  0  0
    2.7553    2.5243    2.0540 H   0  0  0  0  0  0  0  0  0  0  0  0
    0.4836    4.3983    4.0672 H   0  0  0  0  0  0  0  0  0  0  0  0
    4.3309    1.5419    1.2307 H   0  0  0  0  0  0  0  0  0  0  0  0
    8.3778   -0.3813    2.0728 H   0  0  0  0  0  0  0  0  0  0  0  0
    8.1165   -0.8852    0.3256 H   0  0  0  0  0  0  0  0  0  0  0  0
   10.0491    1.2238    2.5256 H   0  0  0  0  0  0  0  0  0  0  0  0
   11.7135    2.8736    1.8125 H   0  0  0  0  0  0  0  0  0  0  0  0
   11.7524    3.6038   -0.5805 H   0  0  0  0  0  0  0  0  0  0  0  0
   10.1077    2.6399   -2.1353 H   0  0  0  0  0  0  0  0  0  0  0  0
    8.4542    0.9898   -1.3792 H   0  0  0  0  0  0  0  0  0  0  0  0
   -2.1170   -1.0751   -1.9676 H   0  0  0  0  0  0  0  0  0  0  0  0
   -2.8541    0.9769    0.1337 H   0  0  0  0  0  0  0  0  0  0  0  0
   -1.8083    1.8032   -1.8709 H   0  0  0  0  0  0  0  0  0  0  0  0
   -2.9109    0.9088   -2.9200 H   0  0  0  0  0  0  0  0  0  0  0  0
   -3.1938    3.3234   -2.9525 H   0  0  0  0  0  0  0  0  0  0  0  0
   -3.4597    3.4568   -1.2274 H   0  0  0  0  0  0  0  0  0  0  0  0
   -5.8663    2.5876   -1.6155 H   0  0  0  0  0  0  0  0  0  0  0  0
   -5.3410    3.8872   -2.6629 H   0  0  0  0  0  0  0  0  0  0  0  0
   -5.3222    0.9861   -3.6527 H   0  0  0  0  0  0  0  0  0  0  0  0
   -6.6417    2.2430   -3.7824 H   0  0  0  0  0  0  0  0  0  0  0  0
   -5.2649    2.4710   -5.6873 H   0  0  0  0  0  0  0  0  0  0  0  0
   -4.6807    3.7146   -4.6024 H   0  0  0  0  0  0  0  0  0  0  0  0
   -6.7132   -1.3703   -1.3323 H   0  0  0  0  0  0  0  0  0  0  0  0
   -7.6461    0.0176   -0.7081 H   0  0  0  0  0  0  0  0  0  0  0  0
   -6.4214   -3.2448   -0.0703 H   0  0  0  0  0  0  0  0  0  0  0  0
   -6.4407   -4.4250    2.1096 H   0  0  0  0  0  0  0  0  0  0  0  0
   -6.8207   -3.1148    4.2273 H   0  0  0  0  0  0  0  0  0  0  0  0
   -7.1407   -0.7438    4.1263 H   0  0  0  0  0  0  0  0  0  0  0  0
   -7.1092    0.4460    1.8804 H   0  0  0  0  0  0  0  0  0  0  0  0
  1  2  1  0
  2  3  1  0
  3  4  1  0
  3  5  1  0
  5  6  1  0
  6  7  1  0
  7  8  2  0
  7  9  1  0
  9 10  1  0
 10 11  1  0
 11 12  1  0
 12 13  1  0
 12 14  2  0
  9 15  1  0
 15 16  1  0
 16 17  2  0
 16 18  1  0
 18 19  1  0
 19 20  1  0
 20 21  2  0
 21 22  1  0
 22 23  2  0
 23 24  1  0
 24 25  2  0
  5 26  1  0
 26 27  2  0
 26 28  1  0
 28 29  1  0
 29 30  1  0
 30 31  1  0
 31 32  1  0
 32 33  1  0
 33 34  1  0
 29 35  1  0
 35 36  2  0
 35 37  1  0
 37 38  1  0
 38 39  1  0
 39 40  2  0
 40 41  1  0
 41 42  2  0
 42 43  1  0
 43 44  2  0
 25 20  1  0
 44 39  1  0
  1 45  1  0
  1 46  1  0
  1 47  1  0
  2 48  1  0
  2 49  1  0
  3 50  1  1
  4 51  1  0
  4 52  1  0
  4 53  1  0
  5 54  1  6
  6 55  1  0
  9 56  1  1
 10 57  1  0
 10 58  1  0
 11 59  1  0
 11 60  1  0
 13 61  1  0
 15 62  1  0
 19 63  1  0
 19 64  1  0
 21 65  1  0
 22 66  1  0
 23 67  1  0
 24 68  1  0
 25 69  1  0
 28 70  1  0
 29 71  1  1
 30 72  1  0
 30 73  1  0
 31 74  1  0
 31 75  1  0
 32 76  1  0
 32 77  1  0
 33 78  1  0
 33 79  1  0
 34 80  1  0
 34 81  1  0
 38 82  1  0
 38 83  1  0
 40 84  1  0
 41 85  1  0
 42 86  1  0
 43 87  1  0
 44 88  1  0
M  END
$$$$
[H]OC(=O)[C@@]([H])(N([H])C(=O)[C@@]([H])(N([H])C(=O)[C@@]([H])(N([H])C(=O)[C@@]([H])(N([H])S(=O)(=O)c1c([H])c([H])c(OC([H])([H])[H])c([H])c1[H])C([H])([H])c1c([H])c([H])c([H])c([H])c1[H])C([H])([H])c1c([H])c([H])c([H])c([H])c1[H])C([H])([H])c1c([H])c([H])c([H])c([H])c1[H])C([H])([H])c1c([H])c([H])c([H])c([H])c1[H]
     RDKit          3D

100104  0  0  0  0  0  0  0  0999 V2000
  -11.1403    2.7654    0.9285 C   0  0  0  0  0  0  0  0  0  0  0  0
  -10.3653    1.5642    1.0213 O   0  0  0  0  0  0  0  0  0  0  0  0
   -8.9989    1.7134    1.2929 C   0  0  0  0  0  0  0  0  0  0  0  0
   -8.4353    2.9627    1.4601 C   0  0  0  0  0  0  0  0  0  0  0  0
   -7.0969    3.1046    1.7289 C   0  0  0  0  0  0  0  0  0  0  0  0
   -6.2589    1.9777    1.8403 C   0  0  0  0  0  0  0  0  0  0  0  0
   -6.8291    0.7632    1.6721 C   0  0  0  0  0  0  0  0  0  0  0  0
   -8.1954    0.6097    1.3980 C   0  0  0  0  0  0  0  0  0  0  0  0
   -4.5708    2.2689    2.1697 S   0  0  0  0  0  0  0  0  0  0  0  0
   -4.1028    1.4030    3.3150 O   0  0  0  0  0  0  0  0  0  0  0  0
   -4.4729    3.7271    2.6610 O   0  0  0  0  0  0  0  0  0  0  0  0
   -3.6431    2.1501    0.8056 N   0  0  0  0  0  0  0  0  0  0  0  0
   -3.5775    0.8360    0.1145 C   0  0  1  0  0  0  0  0  0  0  0  0
   -4.0878    1.1320   -1.2325 C   0  0  0  0  0  0  0  0  0  0  0  0
   -4.1879    0.1169   -2.2517 C   0  0  0  0  0  0  0  0  0  0  0  0
   -5.1567   -0.8668   -2.2337 C   0  0  0  0  0  0  0  0  0  0  0  0
   -5.2905   -1.7463   -3.2619 C   0  0  0  0  0  0  0  0  0  0  0  0
   -4.4596   -1.6902   -4.3724 C   0  0  0  0  0  0  0  0  0  0  0  0
   -3.4791   -0.7021   -4.3985 C   0  0  0  0  0  0  0  0  0  0  0  0
   -3.3358    0.1853   -3.3684 C   0  0  0  0  0  0  0  0  0  0  0  0
   -2.1142    0.4443    0.1737 C   0  0  0  0  0  0  0  0  0  0  0  0
   -1.3699    1.4883    0.4305 O   0  0  0  0  0  0  0  0  0  0  0  0
   -1.6318   -0.8236    0.0014 N   0  0  0  0  0  0  0  0  0  0  0  0
   -0.3209   -1.3479    0.0895 C   0  0  1  0  0  0  0  0  0  0  0  0
    0.0807   -2.2138   -1.0419 C   0  0  0  0  0  0  0  0  0  0  0  0
   -0.7162   -3.4517   -1.2055 C   0  0  0  0  0  0  0  0  0  0  0  0
   -0.2371   -4.6142   -0.5805 C   0  0  0  0  0  0  0  0  0  0  0  0
   -0.9115   -5.8016   -0.7015 C   0  0  0  0  0  0  0  0  0  0  0  0
   -2.0841   -5.8621   -1.4500 C   0  0  0  0  0  0  0  0  0  0  0  0
   -2.5467   -4.6973   -2.0629 C   0  0  0  0  0  0  0  0  0  0  0  0
   -1.8624   -3.5117   -1.9355 C   0  0  0  0  0  0  0  0  0  0  0  0
    0.7525   -0.6195    0.7388 C   0  0  0  0  0  0  0  0  0  0  0  0
    0.6147    0.4754    1.2831 O   0  0  0  0  0  0  0  0  0  0  0  0
    2.1147   -1.1511    0.8052 N   0  0  0  0  0  0  0  0  0  0  0  0
    3.1155   -0.3561    1.4947 C   0  0  1  0  0  0  0  0  0  0  0  0
    3.5845   -1.0027    2.7418 C   0  0  0  0  0  0  0  0  0  0  0  0
    4.2023   -2.3376    2.6326 C   0  0  0  0  0  0  0  0  0  0  0  0
    3.4044   -3.4597    2.6327 C   0  0  0  0  0  0  0  0  0  0  0  0
    3.9615   -4.7026    2.5892 C   0  0  0  0  0  0  0  0  0  0  0  0
    5.3526   -4.8495    2.5438 C   0  0  0  0  0  0  0  0  0  0  0  0
    6.1450   -3.7249    2.5438 C   0  0  0  0  0  0  0  0  0  0  0  0
    5.5609   -2.4926    2.5883 C   0  0  0  0  0  0  0  0  0  0  0  0
    4.1027    0.1606    0.5526 C   0  0  0  0  0  0  0  0  0  0  0  0
    3.9966   -0.1800   -0.6761 O   0  0  0  0  0  0  0  0  0  0  0  0
    5.1633    1.0223    0.9124 N   0  0  0  0  0  0  0  0  0  0  0  0
    6.1314    1.5806   -0.0315 C   0  0  1  0  0  0  0  0  0  0  0  0
    6.1055    3.0901    0.1666 C   0  0  0  0  0  0  0  0  0  0  0  0
    6.9966    3.8747   -0.6545 C   0  0  0  0  0  0  0  0  0  0  0  0
    6.6236    4.3019   -1.9054 C   0  0  0  0  0  0  0  0  0  0  0  0
    7.4886    5.0856   -2.6793 C   0  0  0  0  0  0  0  0  0  0  0  0
    8.7318    5.4289   -2.1725 C   0  0  0  0  0  0  0  0  0  0  0  0
    9.1114    5.0082   -0.9279 C   0  0  0  0  0  0  0  0  0  0  0  0
    8.2424    4.2396   -0.1872 C   0  0  0  0  0  0  0  0  0  0  0  0
    7.4683    1.0199    0.1377 C   0  0  0  0  0  0  0  0  0  0  0  0
    8.5397    1.2828   -0.7109 O   0  0  0  0  0  0  0  0  0  0  0  0
    7.7136    0.2481    1.0900 O   0  0  0  0  0  0  0  0  0  0  0  0
  -10.9949    3.3441    1.8762 H   0  0  0  0  0  0  0  0  0  0  0  0
  -10.7806    3.3796    0.0575 H   0  0  0  0  0  0  0  0  0  0  0  0
  -12.2156    2.4879    0.8336 H   0  0  0  0  0  0  0  0  0  0  0  0
   -9.0841    3.8259    1.3680 H   0  0  0  0  0  0  0  0  0  0  0  0
   -6.7053    4.0983    1.8495 H   0  0  0  0  0  0  0  0  0  0  0  0
   -6.2188   -0.1429    1.7509 H   0  0  0  0  0  0  0  0  0  0  0  0
   -8.5969   -0.3881    1.2659 H   0  0  0  0  0  0  0  0  0  0  0  0
   -3.3456    2.9338    0.2556 H   0  0  0  0  0  0  0  0  0  0  0  0
   -4.1454    0.1320    0.7007 H   0  0  0  0  0  0  0  0  0  0  0  0
   -5.0992    1.6399   -1.1206 H   0  0  0  0  0  0  0  0  0  0  0  0
   -3.4387    1.9841   -1.6412 H   0  0  0  0  0  0  0  0  0  0  0  0
   -5.8085   -0.8990   -1.3392 H   0  0  0  0  0  0  0  0  0  0  0  0
   -6.0849   -2.5018   -3.1667 H   0  0  0  0  0  0  0  0  0  0  0  0
   -4.5851   -2.4019   -5.1771 H   0  0  0  0  0  0  0  0  0  0  0  0
   -2.8417   -0.6806   -5.2830 H   0  0  0  0  0  0  0  0  0  0  0  0
   -2.5562    0.9448   -3.4222 H   0  0  0  0  0  0  0  0  0  0  0  0
   -2.3866   -1.5726   -0.2350 H   0  0  0  0  0  0  0  0  0  0  0  0
   -0.5105   -2.1816    0.9672 H   0  0  0  0  0  0  0  0  0  0  0  0
   -0.1310   -1.6271   -2.0005 H   0  0  0  0  0  0  0  0  0  0  0  0
    1.1694   -2.4198   -1.1312 H   0  0  0  0  0  0  0  0  0  0  0  0
    0.6713   -4.5797    0.0022 H   0  0  0  0  0  0  0  0  0  0  0  0
   -0.5614   -6.7157   -0.2328 H   0  0  0  0  0  0  0  0  0  0  0  0
   -2.6018   -6.7918   -1.5482 H   0  0  0  0  0  0  0  0  0  0  0  0
   -3.4585   -4.7388   -2.6418 H   0  0  0  0  0  0  0  0  0  0  0  0
   -2.2199   -2.6220   -2.3985 H   0  0  0  0  0  0  0  0  0  0  0  0
    2.3918   -2.0442    0.3989 H   0  0  0  0  0  0  0  0  0  0  0  0
    2.5598    0.6151    1.8553 H   0  0  0  0  0  0  0  0  0  0  0  0
    4.2553   -0.2999    3.3113 H   0  0  0  0  0  0  0  0  0  0  0  0
    2.6773   -1.1133    3.4209 H   0  0  0  0  0  0  0  0  0  0  0  0
    2.3166   -3.3738    2.6696 H   0  0  0  0  0  0  0  0  0  0  0  0
    3.3610   -5.6283    2.5899 H   0  0  0  0  0  0  0  0  0  0  0  0
    5.7708   -5.8504    2.5081 H   0  0  0  0  0  0  0  0  0  0  0  0
    7.2406   -3.8300    2.5091 H   0  0  0  0  0  0  0  0  0  0  0  0
    6.2519   -1.6457    2.5969 H   0  0  0  0  0  0  0  0  0  0  0  0
    5.2529    1.2728    1.9181 H   0  0  0  0  0  0  0  0  0  0  0  0
    5.7749    1.3517   -1.0527 H   0  0  0  0  0  0  0  0  0  0  0  0
    6.2857    3.2233    1.2777 H   0  0  0  0  0  0  0  0  0  0  0  0
    5.0238    3.3977    0.0506 H   0  0  0  0  0  0  0  0  0  0  0  0
    5.6577    4.0691   -2.3614 H   0  0  0  0  0  0  0  0  0  0  0  0
    7.1865    5.4163   -3.6435 H   0  0  0  0  0  0  0  0  0  0  0  0
    9.3724    6.0252   -2.7914 H   0  0  0  0  0  0  0  0  0  0  0  0
   10.0753    5.2907   -0.5462 H   0  0  0  0  0  0  0  0  0  0  0  0
    8.5730    3.9169    0.8041 H   0  0  0  0  0  0  0  0  0  0  0  0
    8.6776    0.8740   -1.6181 H   0  0  0  0  0  0  0  0  0  0  0  0
  1  2  1  0
  2  3  1  0
  3  4  2  0
  4  5  1  0
  5  6  2  0
  6  7  1  0
  7  8  2  0
  6  9  1  0
  9 10  2  0
  9 11  2  0
  9 12  1  0
 12 13  1  0
 13 14  1  0
 14 15  1  0
 15 16  2  0
 16 17  1  0
 17 18  2  0
 18 19  1  0
 19 20  2  0
 13 21  1  0
 21 22  2  0
 21 23  1  0
 23 24  1  0
 24 25  1  0
 25 26  1  0
 26 27  2  0
 27 28  1  0
 28 29  2  0
 29 30  1  0
 30 31  2  0
 24 32  1  0
 32 33  2  0
 32 34  1  0
 34 35  1  0
 35 36  1  0
 36 37  1  0
 37 38  2  0
 38 39  1  0
 39 40  2  0
 40 41  1  0
 41 42  2  0
 35 43  1  0
 43 44  2  0
 43 45  1  0
 45 46  1  0
 46 47  1  0
 47 48  1  0
 48 49  2  0
 49 50  1  0
 50 51  2  0
 51 52  1  0
 52 53  2  0
 46 54  1  0
 54 55  1  0
 54 56  2  0
  8  3  1  0
 20 15  1  0
 31 26  1  0
 42 37  1  0
 53 48  1  0
  1 57  1  0
  1 58  1  0
  1 59  1  0
  4 60  1  0
  5 61  1  0
  7 62  1  0
  8 63  1  0
 12 64  1  0
 13 65  1  1
 14 66  1  0
 14 67  1  0
 16 68  1  0
 17 69  1  0
 18 70  1  0
 19 71  1  0
 20 72  1  0
 23 73  1  0
 24 74  1  1
 25 75  1  0
 25 76  1  0
 27 77  1  0
 28 78  1  0
 29 79  1  0
 30 80  1  0
 31 81  1  0
 34 82  1  0
 35 83  1  1
 36 84  1  0
 36 85  1  0
 38 86  1  0
 39 87  1  0
 40 88  1  0
 41 89  1  0
 42 90  1  0
 45 91  1  0
 46 92  1  6
 47 93  1  0
 47 94  1  0
 49 95  1  0
 50 96  1  0
 51 97  1  0
 52 98  1  0
 53 99  1  0
 55100  1  0
M  END
$$$$
[H]c1c([H])c(C2([H])C([H])([H])C([H])([H])N(S(=O)(=O)N(C([H])([H])[H])C([H])([H])[H])C([H])([H])C2([H])[H])c([H])c([H])c1-c1nc(C(N2C([H])([H])C([H])([H])OC([H])([H])C2([H])[H])(C([H])([H])[H])C([H])([H])[H])n([H])c1[H]
     RDKit          3D

 67 70  0  0  0  0  0  0  0  0999 V2000
    9.4065    1.0319   -0.0796 C   0  0  0  0  0  0  0  0  0  0  0  0
    8.9674   -0.2185    0.4323 N   0  0  0  0  0  0  0  0  0  0  0  0
    8.8258   -1.1968   -0.5980 C   0  0  0  0  0  0  0  0  0  0  0  0
    7.5792   -0.1479    1.4395 S   0  0  0  0  0  0  0  0  0  0  0  0
    7.7079   -1.3360    2.3956 O   0  0  0  0  0  0  0  0  0  0  0  0
    7.6845    1.1016    2.2864 O   0  0  0  0  0  0  0  0  0  0  0  0
    6.1392   -0.2747    0.6059 N   0  0  0  0  0  0  0  0  0  0  0  0
    5.7808    0.6784   -0.3564 C   0  0  0  0  0  0  0  0  0  0  0  0
    4.2992    0.9431   -0.4470 C   0  0  0  0  0  0  0  0  0  0  0  0
    3.5032   -0.1319    0.2780 C   0  0  0  0  0  0  0  0  0  0  0  0
    4.0937   -1.4958    0.0733 C   0  0  0  0  0  0  0  0  0  0  0  0
    5.5163   -1.5388    0.6090 C   0  0  0  0  0  0  0  0  0  0  0  0
    2.0784   -0.0857   -0.0428 C   0  0  0  0  0  0  0  0  0  0  0  0
    1.1664    0.3328    0.9349 C   0  0  0  0  0  0  0  0  0  0  0  0
   -0.1691    0.3857    0.6473 C   0  0  0  0  0  0  0  0  0  0  0  0
   -0.6847    0.0406   -0.5850 C   0  0  0  0  0  0  0  0  0  0  0  0
    0.1852   -0.3689   -1.5474 C   0  0  0  0  0  0  0  0  0  0  0  0
    1.5564   -0.4291   -1.2707 C   0  0  0  0  0  0  0  0  0  0  0  0
   -2.1349    0.1346   -0.8273 C   0  0  0  0  0  0  0  0  0  0  0  0
   -2.8351   -0.1661   -1.9556 C   0  0  0  0  0  0  0  0  0  0  0  0
   -4.1235    0.0831   -1.7016 N   0  0  0  0  0  0  0  0  0  0  0  0
   -4.2896    0.5345   -0.4502 C   0  0  0  0  0  0  0  0  0  0  0  0
   -3.0379    0.5577    0.0734 N   0  0  0  0  0  0  0  0  0  0  0  0
   -5.5162    0.9466    0.2773 C   0  0  0  0  0  0  0  0  0  0  0  0
   -5.1569    1.4088    1.6844 C   0  0  0  0  0  0  0  0  0  0  0  0
   -6.0338    2.1735   -0.4492 C   0  0  0  0  0  0  0  0  0  0  0  0
   -6.5017   -0.0752    0.4103 N   0  0  0  0  0  0  0  0  0  0  0  0
   -7.6720    0.5601    1.0404 C   0  0  0  0  0  0  0  0  0  0  0  0
   -8.4807   -0.5521    1.6738 C   0  0  0  0  0  0  0  0  0  0  0  0
   -8.4687   -1.6288    0.8148 O   0  0  0  0  0  0  0  0  0  0  0  0
   -8.3573   -1.2460   -0.5217 C   0  0  0  0  0  0  0  0  0  0  0  0
   -6.9690   -0.6591   -0.8119 C   0  0  0  0  0  0  0  0  0  0  0  0
   10.2657    0.8221   -0.7788 H   0  0  0  0  0  0  0  0  0  0  0  0
    8.6083    1.5261   -0.6476 H   0  0  0  0  0  0  0  0  0  0  0  0
    9.7292    1.7185    0.7354 H   0  0  0  0  0  0  0  0  0  0  0  0
    8.1489   -0.8422   -1.3785 H   0  0  0  0  0  0  0  0  0  0  0  0
    9.8248   -1.3704   -1.0592 H   0  0  0  0  0  0  0  0  0  0  0  0
    8.4718   -2.1459   -0.1011 H   0  0  0  0  0  0  0  0  0  0  0  0
    6.1180    0.3764   -1.3882 H   0  0  0  0  0  0  0  0  0  0  0  0
    6.2808    1.6524   -0.0970 H   0  0  0  0  0  0  0  0  0  0  0  0
    4.0266    1.0455   -1.5113 H   0  0  0  0  0  0  0  0  0  0  0  0
    4.1076    1.9471    0.0045 H   0  0  0  0  0  0  0  0  0  0  0  0
    3.6478    0.1152    1.3721 H   0  0  0  0  0  0  0  0  0  0  0  0
    4.1287   -1.8030   -0.9830 H   0  0  0  0  0  0  0  0  0  0  0  0
    3.5012   -2.2269    0.6472 H   0  0  0  0  0  0  0  0  0  0  0  0
    6.0843   -2.2509   -0.0231 H   0  0  0  0  0  0  0  0  0  0  0  0
    5.4773   -1.9865    1.6266 H   0  0  0  0  0  0  0  0  0  0  0  0
    1.5271    0.6093    1.9040 H   0  0  0  0  0  0  0  0  0  0  0  0
   -0.8910    0.7099    1.3992 H   0  0  0  0  0  0  0  0  0  0  0  0
   -0.1508   -0.6514   -2.5277 H   0  0  0  0  0  0  0  0  0  0  0  0
    2.2627   -0.7558   -2.0342 H   0  0  0  0  0  0  0  0  0  0  0  0
   -2.4437   -0.5361   -2.8872 H   0  0  0  0  0  0  0  0  0  0  0  0
   -4.8900   -0.0597   -2.3951 H   0  0  0  0  0  0  0  0  0  0  0  0
   -5.5901    0.7443    2.4611 H   0  0  0  0  0  0  0  0  0  0  0  0
   -5.3706    2.4783    1.8530 H   0  0  0  0  0  0  0  0  0  0  0  0
   -4.0442    1.3057    1.8048 H   0  0  0  0  0  0  0  0  0  0  0  0
   -5.2994    2.9927   -0.2826 H   0  0  0  0  0  0  0  0  0  0  0  0
   -7.0008    2.5209   -0.0339 H   0  0  0  0  0  0  0  0  0  0  0  0
   -6.1579    2.0002   -1.5379 H   0  0  0  0  0  0  0  0  0  0  0  0
   -7.3934    1.3510    1.7406 H   0  0  0  0  0  0  0  0  0  0  0  0
   -8.3230    0.9836    0.2188 H   0  0  0  0  0  0  0  0  0  0  0  0
   -9.5330   -0.1967    1.8641 H   0  0  0  0  0  0  0  0  0  0  0  0
   -8.0302   -0.7733    2.6733 H   0  0  0  0  0  0  0  0  0  0  0  0
   -8.5125   -2.1724   -1.1189 H   0  0  0  0  0  0  0  0  0  0  0  0
   -9.1625   -0.5604   -0.8117 H   0  0  0  0  0  0  0  0  0  0  0  0
   -6.3411   -1.5060   -1.1591 H   0  0  0  0  0  0  0  0  0  0  0  0
   -7.1357    0.1084   -1.5806 H   0  0  0  0  0  0  0  0  0  0  0  0
  1  2  1  0
  2  3  1  0
  2  4  1  0
  4  5  2  0
  4  6  2  0
  4  7  1  0
  7  8  1  0
  8  9  1  0
  9 10  1  0
 10 11  1  0
 11 12  1  0
 10 13  1  0
 13 14  2  0
 14 15  1  0
 15 16  2  0
 16 17  1  0
 17 18  2  0
 16 19  1  0
 19 20  2  0
 20 21  1  0
 21 22  1  0
 22 23  2  0
 22 24  1  0
 24 25  1  0
 24 26  1  0
 24 27  1  0
 27 28  1  0
 28 29  1  0
 29 30  1  0
 30 31  1  0
 31 32  1  0
 12  7  1  0
 18 13  1  0
 23 19  1  0
 32 27  1  0
  1 33  1  0
  1 34  1  0
  1 35  1  0
  3 36  1  0
  3 37  1  0
  3 38  1  0
  8 39  1  0
  8 40  1  0
  9 41  1  0
  9 42  1  0
 10 43  1  0
 11 44  1  0
 11 45  1  0
 12 46  1  0
 12 47  1  0
 14 48  1  0
 15 49  1  0
 17 50  1  0
 18 51  1  0
 20 52  1  0
 21 53  1  0
 25 54  1  0
 25 55  1  0
 25 56  1  0
 26 57  1  0
 26 58  1  0
 26 59  1  0
 28 60  1  0
 28 61  1  0
 29 62  1  0
 29 63  1  0
 31 64  1  0
 31 65  1  0
 32 66  1  0
 32 67  1  0
M  END
$$$$
[H]c1nc([H])c(-c2c([H])c([H])c(OC([H])([H])[H])c(C([H])([H])c3c([H])nc4nc([C@@]([H])(C#N)N([H])C(=O)C([H])([H])F)nnnc3-4)c2[H])c(C([H])([H])[H])c1[H]
     RDKit          3D

 53 56  0  0  0  0  0  0  0  0999 V2000
   -1.3161   -4.0416   -0.6548 C   0  0  0  0  0  0  0  0  0  0  0  0
   -1.0934   -2.6627   -0.6571 O   0  0  0  0  0  0  0  0  0  0  0  0
   -2.0734   -1.7274   -0.3312 C   0  0  0  0  0  0  0  0  0  0  0  0
   -3.3360   -2.1779    0.0137 C   0  0  0  0  0  0  0  0  0  0  0  0
   -4.3377   -1.2901    0.3437 C   0  0  0  0  0  0  0  0  0  0  0  0
   -4.1069    0.0880    0.3392 C   0  0  0  0  0  0  0  0  0  0  0  0
   -5.2177    0.9545    0.7075 C   0  0  0  0  0  0  0  0  0  0  0  0
   -5.9746    0.6822    1.8547 C   0  0  0  0  0  0  0  0  0  0  0  0
   -6.9881    1.4748    2.1989 N   0  0  0  0  0  0  0  0  0  0  0  0
   -7.3531    2.5611    1.4980 C   0  0  0  0  0  0  0  0  0  0  0  0
   -6.6371    2.8669    0.3628 C   0  0  0  0  0  0  0  0  0  0  0  0
   -5.5642    2.0594   -0.0343 C   0  0  0  0  0  0  0  0  0  0  0  0
   -4.8323    2.4298   -1.2674 C   0  0  0  0  0  0  0  0  0  0  0  0
   -2.8540    0.5026   -0.0044 C   0  0  0  0  0  0  0  0  0  0  0  0
   -1.8231   -0.3723   -0.3423 C   0  0  0  0  0  0  0  0  0  0  0  0
   -0.4738    0.1292   -0.7110 C   0  0  0  0  0  0  0  0  0  0  0  0
    0.5005   -0.0504    0.3722 C   0  0  0  0  0  0  0  0  0  0  0  0
    0.3003   -0.6045    1.6257 C   0  0  0  0  0  0  0  0  0  0  0  0
    1.4753   -0.5710    2.3065 N   0  0  0  0  0  0  0  0  0  0  0  0
    2.4407   -0.0213    1.5615 C   0  0  0  0  0  0  0  0  0  0  0  0
    3.7375    0.1665    1.9354 N   0  0  0  0  0  0  0  0  0  0  0  0
    4.7588    0.5881    1.1320 C   0  0  0  0  0  0  0  0  0  0  0  0
    4.5888    1.3774    0.0651 N   0  0  0  0  0  0  0  0  0  0  0  0
    3.5965    1.5313   -0.7991 N   0  0  0  0  0  0  0  0  0  0  0  0
    2.4158    0.9044   -0.7662 N   0  0  0  0  0  0  0  0  0  0  0  0
    1.8222    0.3269    0.2894 C   0  0  0  0  0  0  0  0  0  0  0  0
    6.1359    0.1378    1.4719 C   0  0  2  0  0  0  0  0  0  0  0  0
    6.8582   -0.3078    0.3124 N   0  0  0  0  0  0  0  0  0  0  0  0
    8.0663    0.2941   -0.1267 C   0  0  0  0  0  0  0  0  0  0  0  0
    8.5145    1.2610    0.5384 O   0  0  0  0  0  0  0  0  0  0  0  0
    8.7458   -0.2329   -1.3375 C   0  0  0  0  0  0  0  0  0  0  0  0
    8.0384   -1.2829   -1.8549 F   0  0  0  0  0  0  0  0  0  0  0  0
    6.0481   -0.9011    2.5014 C   0  0  0  0  0  0  0  0  0  0  0  0
    5.9882   -1.7169    3.3173 N   0  0  0  0  0  0  0  0  0  0  0  0
   -0.3255   -4.5800   -0.6765 H   0  0  0  0  0  0  0  0  0  0  0  0
   -1.8047   -4.3187    0.3159 H   0  0  0  0  0  0  0  0  0  0  0  0
   -1.9553   -4.3270   -1.4925 H   0  0  0  0  0  0  0  0  0  0  0  0
   -3.5164   -3.2560    0.0170 H   0  0  0  0  0  0  0  0  0  0  0  0
   -5.3211   -1.6612    0.6113 H   0  0  0  0  0  0  0  0  0  0  0  0
   -5.6743   -0.1964    2.4156 H   0  0  0  0  0  0  0  0  0  0  0  0
   -8.1794    3.2009    1.7852 H   0  0  0  0  0  0  0  0  0  0  0  0
   -6.9186    3.7466   -0.2210 H   0  0  0  0  0  0  0  0  0  0  0  0
   -4.5046    1.5421   -1.8231 H   0  0  0  0  0  0  0  0  0  0  0  0
   -5.5521    2.9530   -1.9555 H   0  0  0  0  0  0  0  0  0  0  0  0
   -4.0315    3.1837   -1.0919 H   0  0  0  0  0  0  0  0  0  0  0  0
   -2.6492    1.5613   -0.0122 H   0  0  0  0  0  0  0  0  0  0  0  0
   -0.1532   -0.4219   -1.6304 H   0  0  0  0  0  0  0  0  0  0  0  0
   -0.5414    1.2043   -0.9870 H   0  0  0  0  0  0  0  0  0  0  0  0
   -0.6544   -0.9896    1.9668 H   0  0  0  0  0  0  0  0  0  0  0  0
    6.6702    0.9978    1.9424 H   0  0  0  0  0  0  0  0  0  0  0  0
    6.4397   -1.1251   -0.2138 H   0  0  0  0  0  0  0  0  0  0  0  0
    8.8137    0.6236   -2.0500 H   0  0  0  0  0  0  0  0  0  0  0  0
    9.8079   -0.5124   -1.1099 H   0  0  0  0  0  0  0  0  0  0  0  0
  1  2  1  0
  2  3  1  0
  3  4  2  0
  4  5  1  0
  5  6  2  0
  6  7  1  0
  7  8  2  0
  8  9  1  0
  9 10  2  0
 10 11  1  0
 11 12  2  0
 12 13  1  0
  6 14  1  0
 14 15  2  0
 15 16  1  0
 16 17  1  0
 17 18  2  0
 18 19  1  0
 19 20  2  0
 20 21  1  0
 21 22  2  0
 22 23  1  0
 23 24  2  0
 24 25  1  0
 25 26  2  0
 22 27  1  0
 27 28  1  0
 28 29  1  0
 29 30  2  0
 29 31  1  0
 31 32  1  0
 27 33  1  0
 33 34  3  0
 15  3  1  0
 26 17  1  0
 12  7  1  0
 26 20  1  0
  1 35  1  0
  1 36  1  0
  1 37  1  0
  4 38  1  0
  5 39  1  0
  8 40  1  0
 10 41  1  0
 11 42  1  0
 13 43  1  0
 13 44  1  0
 13 45  1  0
 14 46  1  0
 16 47  1  0
 16 48  1  0
 18 49  1  0
 27 50  1  1
 28 51  1  0
 31 52  1  0
 31 53  1  0
M  END
$$$$
[H]OC(=O)c1c([H])nc([H])c2c(Sc3c([H])c([H])c([H])c(Cl)c3[H])c(C(=O)N([H])[H])nn12
     RDKit          3D

 32 34  0  0  0  0  0  0  0  0999 V2000
   -0.3916    3.9049    0.3381 N   0  0  0  0  0  0  0  0  0  0  0  0
   -1.6109    3.2168    0.2220 C   0  0  0  0  0  0  0  0  0  0  0  0
   -2.6856    3.8498    0.2402 O   0  0  0  0  0  0  0  0  0  0  0  0
   -1.6411    1.7737    0.0804 C   0  0  0  0  0  0  0  0  0  0  0  0
   -2.7079    0.9687   -0.0410 N   0  0  0  0  0  0  0  0  0  0  0  0
   -2.3242   -0.2915   -0.1480 N   0  0  0  0  0  0  0  0  0  0  0  0
   -3.0258   -1.4446   -0.2881 C   0  0  0  0  0  0  0  0  0  0  0  0
   -2.4084   -2.6668   -0.3815 C   0  0  0  0  0  0  0  0  0  0  0  0
   -1.0726   -2.6928   -0.3299 N   0  0  0  0  0  0  0  0  0  0  0  0
   -0.3212   -1.5835   -0.1921 C   0  0  0  0  0  0  0  0  0  0  0  0
   -0.9763   -0.3710   -0.1013 C   0  0  0  0  0  0  0  0  0  0  0  0
   -0.5296    0.9250    0.0427 C   0  0  0  0  0  0  0  0  0  0  0  0
    1.0952    1.5454    0.1701 S   0  0  0  0  0  0  0  0  0  0  0  0
    2.4415    0.4406    0.1102 C   0  0  0  0  0  0  0  0  0  0  0  0
    3.0274    0.1299   -1.0986 C   0  0  0  0  0  0  0  0  0  0  0  0
    4.0990   -0.7067   -1.2076 C   0  0  0  0  0  0  0  0  0  0  0  0
    4.6224   -1.2685   -0.0602 C   0  0  0  0  0  0  0  0  0  0  0  0
    4.0718   -0.9899    1.1822 C   0  0  0  0  0  0  0  0  0  0  0  0
    4.7308   -1.6993    2.6428 Cl  0  0  0  0  0  0  0  0  0  0  0  0
    2.9986   -0.1469    1.2499 C   0  0  0  0  0  0  0  0  0  0  0  0
   -4.4984   -1.3727   -0.3406 C   0  0  0  0  0  0  0  0  0  0  0  0
   -5.1723   -0.1737   -0.2516 O   0  0  0  0  0  0  0  0  0  0  0  0
   -5.1712   -2.4266   -0.4700 O   0  0  0  0  0  0  0  0  0  0  0  0
    0.0388    4.4898   -0.4306 H   0  0  0  0  0  0  0  0  0  0  0  0
    0.1988    3.8879    1.2233 H   0  0  0  0  0  0  0  0  0  0  0  0
   -3.0036   -3.5760   -0.4936 H   0  0  0  0  0  0  0  0  0  0  0  0
    0.7353   -1.6334   -0.1533 H   0  0  0  0  0  0  0  0  0  0  0  0
    2.6244    0.5673   -2.0210 H   0  0  0  0  0  0  0  0  0  0  0  0
    4.5120   -0.9085   -2.1952 H   0  0  0  0  0  0  0  0  0  0  0  0
    5.4651   -1.9297   -0.1191 H   0  0  0  0  0  0  0  0  0  0  0  0
    2.5208    0.1100    2.2089 H   0  0  0  0  0  0  0  0  0  0  0  0
   -5.6414    0.0723    0.6129 H   0  0  0  0  0  0  0  0  0  0  0  0
  1  2  1  0
  2  3  2  0
  2  4  1  0
  4  5  2  0
  5  6  1  0
  6  7  1  0
  7  8  2  0
  8  9  1  0
  9 10  2  0
 10 11  1  0
 11 12  2  0
 12 13  1  0
 13 14  1  0
 14 15  2  0
 15 16  1  0
 16 17  2  0
 17 18  1  0
 18 19  1  0
 18 20  2  0
  7 21  1  0
 21 22  1  0
 21 23  2  0
 12  4  1  0
 20 14  1  0
 11  6  1  0
  1 24  1  0
  1 25  1  0
  8 26  1  0
 10 27  1  0
 15 28  1  0
 16 29  1  0
 17 30  1  0
 20 31  1  0
 22 32  1  0
M  END
$$$$
[H]OC(=O)c1c([H])c([H])c(N2C([H])([H])C([H])([H])N(c3c([H])c([H])c(F)c([H])c3[H])C([H])([H])[C@@]2([H])C([H])(C([H])([H])[H])C([H])([H])[H])c([H])c1C(F)(F)F
     RDKit          3D

 51 53  0  0  0  0  0  0  0  0999 V2000
    1.3903    0.2765   -3.0439 C   0  0  0  0  0  0  0  0  0  0  0  0
    0.4206   -0.7452   -2.5231 C   0  0  0  0  0  0  0  0  0  0  0  0
    0.9952   -2.1253   -2.8721 C   0  0  0  0  0  0  0  0  0  0  0  0
    0.2756   -0.6896   -1.0152 C   0  0  2  0  0  0  0  0  0  0  0  0
   -0.7066   -1.7394   -0.6014 C   0  0  0  0  0  0  0  0  0  0  0  0
   -2.0083   -1.1081   -0.3420 N   0  0  0  0  0  0  0  0  0  0  0  0
   -2.3618    0.1074   -0.9887 C   0  0  0  0  0  0  0  0  0  0  0  0
   -1.3145    1.1830   -0.8114 C   0  0  0  0  0  0  0  0  0  0  0  0
   -0.0124    0.6064   -0.5150 N   0  0  0  0  0  0  0  0  0  0  0  0
    0.8734    1.3974    0.2652 C   0  0  0  0  0  0  0  0  0  0  0  0
    0.6663    2.7698    0.4224 C   0  0  0  0  0  0  0  0  0  0  0  0
    1.4960    3.5442    1.1696 C   0  0  0  0  0  0  0  0  0  0  0  0
    2.6237    3.0299    1.8409 C   0  0  0  0  0  0  0  0  0  0  0  0
    3.4417    3.9308    2.6188 C   0  0  0  0  0  0  0  0  0  0  0  0
    4.5257    3.6635    3.3981 O   0  0  0  0  0  0  0  0  0  0  0  0
    3.1200    5.1772    2.5911 O   0  0  0  0  0  0  0  0  0  0  0  0
    2.8418    1.6846    1.6970 C   0  0  0  0  0  0  0  0  0  0  0  0
    1.9649    0.9010    0.9152 C   0  0  0  0  0  0  0  0  0  0  0  0
    4.0008    1.0365    2.3515 C   0  0  0  0  0  0  0  0  0  0  0  0
    3.9209   -0.3442    2.0140 F   0  0  0  0  0  0  0  0  0  0  0  0
    3.9265    1.0225    3.7261 F   0  0  0  0  0  0  0  0  0  0  0  0
    5.2122    1.5038    1.9170 F   0  0  0  0  0  0  0  0  0  0  0  0
   -2.9155   -1.7534    0.5542 C   0  0  0  0  0  0  0  0  0  0  0  0
   -3.9874   -1.1668    1.1639 C   0  0  0  0  0  0  0  0  0  0  0  0
   -4.8382   -1.8826    2.0176 C   0  0  0  0  0  0  0  0  0  0  0  0
   -4.6295   -3.2114    2.2796 C   0  0  0  0  0  0  0  0  0  0  0  0
   -5.4318   -3.9373    3.0989 F   0  0  0  0  0  0  0  0  0  0  0  0
   -3.5460   -3.7955    1.6611 C   0  0  0  0  0  0  0  0  0  0  0  0
   -2.7047   -3.1142    0.8250 C   0  0  0  0  0  0  0  0  0  0  0  0
    1.2455    0.4218   -4.1366 H   0  0  0  0  0  0  0  0  0  0  0  0
    1.1892    1.2680   -2.5748 H   0  0  0  0  0  0  0  0  0  0  0  0
    2.4426   -0.0231   -2.8767 H   0  0  0  0  0  0  0  0  0  0  0  0
   -0.5179   -0.6560   -3.0794 H   0  0  0  0  0  0  0  0  0  0  0  0
    1.4751   -2.5810   -1.9794 H   0  0  0  0  0  0  0  0  0  0  0  0
    1.7249   -2.0416   -3.7026 H   0  0  0  0  0  0  0  0  0  0  0  0
    0.1717   -2.7905   -3.2298 H   0  0  0  0  0  0  0  0  0  0  0  0
    1.2963   -1.0545   -0.6468 H   0  0  0  0  0  0  0  0  0  0  0  0
   -0.7965   -2.5068   -1.4071 H   0  0  0  0  0  0  0  0  0  0  0  0
   -0.3418   -2.2398    0.3374 H   0  0  0  0  0  0  0  0  0  0  0  0
   -3.3146    0.4901   -0.6014 H   0  0  0  0  0  0  0  0  0  0  0  0
   -2.5630   -0.0433   -2.0948 H   0  0  0  0  0  0  0  0  0  0  0  0
   -1.6224    1.7618    0.0815 H   0  0  0  0  0  0  0  0  0  0  0  0
   -1.2536    1.8242   -1.6838 H   0  0  0  0  0  0  0  0  0  0  0  0
   -0.2090    3.1698   -0.1047 H   0  0  0  0  0  0  0  0  0  0  0  0
    1.3108    4.5943    1.2724 H   0  0  0  0  0  0  0  0  0  0  0  0
    5.3846    4.2221    3.4079 H   0  0  0  0  0  0  0  0  0  0  0  0
    2.1922   -0.1414    0.8496 H   0  0  0  0  0  0  0  0  0  0  0  0
   -4.1834   -0.1088    0.9874 H   0  0  0  0  0  0  0  0  0  0  0  0
   -5.6583   -1.3520    2.4576 H   0  0  0  0  0  0  0  0  0  0  0  0
   -3.3628   -4.8479    1.8575 H   0  0  0  0  0  0  0  0  0  0  0  0
   -1.8485   -3.5872    0.3373 H   0  0  0  0  0  0  0  0  0  0  0  0
  1  2  1  0
  2  3  1  0
  2  4  1  0
  4  5  1  0
  5  6  1  0
  6  7  1  0
  7  8  1  0
  8  9  1  0
  9 10  1  0
 10 11  2  0
 11 12  1  0
 12 13  2  0
 13 14  1  0
 14 15  1  0
 14 16  2  0
 13 17  1  0
 17 18  2  0
 17 19  1  0
 19 20  1  0
 19 21  1  0
 19 22  1  0
  6 23  1  0
 23 24  2  0
 24 25  1  0
 25 26  2  0
 26 27  1  0
 26 28  1  0
 28 29  2  0
  9  4  1  0
 18 10  1  0
 29 23  1  0
  1 30  1  0
  1 31  1  0
  1 32  1  0
  2 33  1  0
  3 34  1  0
  3 35  1  0
  3 36  1  0
  4 37  1  1
  5 38  1  0
  5 39  1  0
  7 40  1  0
  7 41  1  0
  8 42  1  0
  8 43  1  0
 11 44  1  0
 12 45  1  0
 15 46  1  0
 18 47  1  0
 24 48  1  0
 25 49  1  0
 28 50  1  0
 29 51  1  0
M  END
$$$$
[H]c1c([H])c([H])c(C(=O)N([H])[C@]([H])(C(=O)N([H])[C@]([H])(C(=O)N([H])[C@]([H])(C(=O)c2c([H])c([H])c([H])c([H])c2[H])C([H])([H])c2c([H])c([H])c([H])c([H])c2[H])C([H])([H])c2c([H])n([H])c3c([H])c([H])c([H])c([H])c23)C([H])([H])C([H])(C([H])([H])[H])C([H])([H])[H])c([H])c1[H]
     RDKit          3D

 87 91  0  0  0  0  0  0  0  0999 V2000
    5.0815   -2.2163    2.3498 C   0  0  0  0  0  0  0  0  0  0  0  0
    3.9451   -1.1974    2.5503 C   0  0  0  0  0  0  0  0  0  0  0  0
    3.8058   -0.6839    3.9242 C   0  0  0  0  0  0  0  0  0  0  0  0
    3.9813   -0.2046    1.4819 C   0  0  0  0  0  0  0  0  0  0  0  0
    3.2513   -0.7926    0.1400 C   0  0  2  0  0  0  0  0  0  0  0  0
    4.0925   -0.2161   -0.8193 N   0  0  0  0  0  0  0  0  0  0  0  0
    5.3472    0.4529   -0.8504 C   0  0  0  0  0  0  0  0  0  0  0  0
    6.1607    1.2980   -0.5378 O   0  0  0  0  0  0  0  0  0  0  0  0
    6.0681   -0.6677   -1.6960 C   0  0  0  0  0  0  0  0  0  0  0  0
    7.1080   -0.9719   -0.8600 C   0  0  0  0  0  0  0  0  0  0  0  0
    7.6325   -2.3192   -0.8791 C   0  0  0  0  0  0  0  0  0  0  0  0
    7.0493   -3.2024   -1.7366 C   0  0  0  0  0  0  0  0  0  0  0  0
    6.0321   -2.8783   -2.6040 C   0  0  0  0  0  0  0  0  0  0  0  0
    5.5401   -1.4577   -2.5211 C   0  0  0  0  0  0  0  0  0  0  0  0
    2.0002   -0.1706    0.2438 C   0  0  0  0  0  0  0  0  0  0  0  0
    1.4606   -0.1147    1.4464 O   0  0  0  0  0  0  0  0  0  0  0  0
    1.3289    0.5138   -0.8609 N   0  0  0  0  0  0  0  0  0  0  0  0
    0.1858    1.3344   -0.3138 C   0  0  1  0  0  0  0  0  0  0  0  0
    0.4588    2.6673   -0.8547 C   0  0  0  0  0  0  0  0  0  0  0  0
   -0.4087    3.6834   -0.3765 C   0  0  0  0  0  0  0  0  0  0  0  0
   -1.5814    3.3578    0.4494 C   0  0  0  0  0  0  0  0  0  0  0  0
   -2.2107    4.5518    0.5939 N   0  0  0  0  0  0  0  0  0  0  0  0
   -1.5456    5.5311   -0.0136 C   0  0  0  0  0  0  0  0  0  0  0  0
   -1.8391    6.8561    0.0468 C   0  0  0  0  0  0  0  0  0  0  0  0
   -0.8806    7.7695   -0.5040 C   0  0  0  0  0  0  0  0  0  0  0  0
    0.2514    7.2585   -1.1243 C   0  0  0  0  0  0  0  0  0  0  0  0
    0.4918    5.9326   -1.1731 C   0  0  0  0  0  0  0  0  0  0  0  0
   -0.4319    5.0610   -0.6355 C   0  0  0  0  0  0  0  0  0  0  0  0
   -0.9155    0.5061   -0.7372 C   0  0  0  0  0  0  0  0  0  0  0  0
   -1.1789    0.3002   -1.9886 O   0  0  0  0  0  0  0  0  0  0  0  0
   -1.6956   -0.0982    0.2635 N   0  0  0  0  0  0  0  0  0  0  0  0
   -2.7175   -1.0451   -0.0107 C   0  0  1  0  0  0  0  0  0  0  0  0
   -2.3274   -2.2014    0.9723 C   0  0  0  0  0  0  0  0  0  0  0  0
   -3.4106   -3.1857    0.8633 C   0  0  0  0  0  0  0  0  0  0  0  0
   -4.5280   -2.9242    1.6816 C   0  0  0  0  0  0  0  0  0  0  0  0
   -5.7184   -3.5034    1.3973 C   0  0  0  0  0  0  0  0  0  0  0  0
   -5.8417   -4.3552    0.2790 C   0  0  0  0  0  0  0  0  0  0  0  0
   -4.7163   -4.6447   -0.5242 C   0  0  0  0  0  0  0  0  0  0  0  0
   -3.4953   -4.0379   -0.2272 C   0  0  0  0  0  0  0  0  0  0  0  0
   -3.9712   -0.4001    0.3210 C   0  0  0  0  0  0  0  0  0  0  0  0
   -4.0690    0.1928    1.4327 O   0  0  0  0  0  0  0  0  0  0  0  0
   -5.1278   -0.3650   -0.6103 C   0  0  0  0  0  0  0  0  0  0  0  0
   -6.3038    0.0569   -0.0198 C   0  0  0  0  0  0  0  0  0  0  0  0
   -7.5086   -0.3106   -0.6141 C   0  0  0  0  0  0  0  0  0  0  0  0
   -7.5256   -1.0464   -1.7615 C   0  0  0  0  0  0  0  0  0  0  0  0
   -6.3124   -1.4371   -2.3424 C   0  0  0  0  0  0  0  0  0  0  0  0
   -5.1019   -1.0428   -1.7224 C   0  0  0  0  0  0  0  0  0  0  0  0
    4.9307   -2.8882    1.5823 H   0  0  0  0  0  0  0  0  0  0  0  0
    6.0171   -1.5457    2.1438 H   0  0  0  0  0  0  0  0  0  0  0  0
    5.2931   -2.6753    3.3549 H   0  0  0  0  0  0  0  0  0  0  0  0
    3.0292   -1.8927    2.3482 H   0  0  0  0  0  0  0  0  0  0  0  0
    3.8173    0.4299    3.9716 H   0  0  0  0  0  0  0  0  0  0  0  0
    4.5681   -1.0512    4.6116 H   0  0  0  0  0  0  0  0  0  0  0  0
    2.8211   -0.9748    4.3656 H   0  0  0  0  0  0  0  0  0  0  0  0
    3.3098    0.6560    1.7602 H   0  0  0  0  0  0  0  0  0  0  0  0
    4.9458    0.1089    1.2292 H   0  0  0  0  0  0  0  0  0  0  0  0
    3.4710   -1.8459    0.2872 H   0  0  0  0  0  0  0  0  0  0  0  0
    3.5734   -0.1229   -1.9174 H   0  0  0  0  0  0  0  0  0  0  0  0
    7.5871   -0.3554   -0.1655 H   0  0  0  0  0  0  0  0  0  0  0  0
    8.4124   -2.6011   -0.1953 H   0  0  0  0  0  0  0  0  0  0  0  0
    7.4266   -4.2439   -1.7319 H   0  0  0  0  0  0  0  0  0  0  0  0
    5.6080   -3.5938   -3.2189 H   0  0  0  0  0  0  0  0  0  0  0  0
    4.7181   -1.2983   -3.1915 H   0  0  0  0  0  0  0  0  0  0  0  0
    1.5721    0.5408   -1.8040 H   0  0  0  0  0  0  0  0  0  0  0  0
    0.2792    1.3215    0.7811 H   0  0  0  0  0  0  0  0  0  0  0  0
    0.3898    2.5648   -2.0134 H   0  0  0  0  0  0  0  0  0  0  0  0
    1.5079    2.9025   -0.6798 H   0  0  0  0  0  0  0  0  0  0  0  0
   -1.7852    2.3680    0.8176 H   0  0  0  0  0  0  0  0  0  0  0  0
   -3.2002    4.5426    1.0497 H   0  0  0  0  0  0  0  0  0  0  0  0
   -2.7512    7.1991    0.3138 H   0  0  0  0  0  0  0  0  0  0  0  0
   -1.0903    8.8354   -0.4279 H   0  0  0  0  0  0  0  0  0  0  0  0
    1.0036    8.0645   -1.3815 H   0  0  0  0  0  0  0  0  0  0  0  0
    1.3717    5.5193   -1.6122 H   0  0  0  0  0  0  0  0  0  0  0  0
   -1.4813    0.1000    1.2691 H   0  0  0  0  0  0  0  0  0  0  0  0
   -2.6142   -1.4142   -1.0385 H   0  0  0  0  0  0  0  0  0  0  0  0
   -1.3901   -2.6335    0.6158 H   0  0  0  0  0  0  0  0  0  0  0  0
   -2.2907   -1.8320    1.9528 H   0  0  0  0  0  0  0  0  0  0  0  0
   -4.3518   -2.3456    2.5760 H   0  0  0  0  0  0  0  0  0  0  0  0
   -6.5966   -3.2805    1.9751 H   0  0  0  0  0  0  0  0  0  0  0  0
   -6.8270   -4.7022   -0.0146 H   0  0  0  0  0  0  0  0  0  0  0  0
   -4.8399   -5.2344   -1.3847 H   0  0  0  0  0  0  0  0  0  0  0  0
   -2.5963   -4.3254   -0.7712 H   0  0  0  0  0  0  0  0  0  0  0  0
   -6.2917    0.6912    0.8698 H   0  0  0  0  0  0  0  0  0  0  0  0
   -8.4537   -0.0000   -0.1562 H   0  0  0  0  0  0  0  0  0  0  0  0
   -8.5029   -1.3276   -2.2216 H   0  0  0  0  0  0  0  0  0  0  0  0
   -6.3497   -1.9866   -3.2408 H   0  0  0  0  0  0  0  0  0  0  0  0
   -4.1503   -1.3063   -2.2270 H   0  0  0  0  0  0  0  0  0  0  0  0
  1  2  1  0
  2  3  1  0
  2  4  1  0
  4  5  1  0
  5  6  1  0
  6  7  1  0
  7  8  2  0
  7  9  1  0
  9 10  2  0
 10 11  1  0
 11 12  2  0
 12 13  1  0
 13 14  2  0
  5 15  1  0
 15 16  2  0
 15 17  1  0
 17 18  1  0
 18 19  1  0
 19 20  1  0
 20 21  2  0
 21 22  1  0
 22 23  1  0
 23 24  2  0
 24 25  1  0
 25 26  2  0
 26 27  1  0
 27 28  2  0
 18 29  1  0
 29 30  2  0
 29 31  1  0
 31 32  1  0
 32 33  1  0
 33 34  1  0
 34 35  2  0
 35 36  1  0
 36 37  2  0
 37 38  1  0
 38 39  2  0
 32 40  1  0
 40 41  2  0
 40 42  1  0
 42 43  2  0
 43 44  1  0
 44 45  2  0
 45 46  1  0
 46 47  2  0
 14  9  1  0
 28 20  1  0
 39 34  1  0
 47 42  1  0
 28 23  1  0
  1 48  1  0
  1 49  1  0
  1 50  1  0
  2 51  1  0
  3 52  1  0
  3 53  1  0
  3 54  1  0
  4 55  1  0
  4 56  1  0
  5 57  1  1
  6 58  1  0
 10 59  1  0
 11 60  1  0
 12 61  1  0
 13 62  1  0
 14 63  1  0
 17 64  1  0
 18 65  1  1
 19 66  1  0
 19 67  1  0
 21 68  1  0
 22 69  1  0
 24 70  1  0
 25 71  1  0
 26 72  1  0
 27 73  1  0
 31 74  1  0
 32 75  1  6
 33 76  1  0
 33 77  1  0
 35 78  1  0
 36 79  1  0
 37 80  1  0
 38 81  1  0
 39 82  1  0
 43 83  1  0
 44 84  1  0
 45 85  1  0
 46 86  1  0
 47 87  1  0
M  END
$$$$
[H]N=C(N([H])[H])N([H])C([H])([H])C([H])([H])C([H])([H])[C@@]([H])(C(=O)c1nc2c([H])c([H])c([H])c([H])c2s1)N([H])C(=O)[C@@]([H])(N([H])C(=O)C([H])([H])[H])C([H])([H])C([H])(C([H])([H])[H])C([H])([H])[H]
     RDKit          3D

 61 62  0  0  0  0  0  0  0  0999 V2000
    5.6365    1.1186    1.5493 C   0  0  0  0  0  0  0  0  0  0  0  0
    5.2278   -0.0339    0.6221 C   0  0  0  0  0  0  0  0  0  0  0  0
    5.5396   -1.3007    1.3762 C   0  0  0  0  0  0  0  0  0  0  0  0
    3.7581    0.1043    0.4047 C   0  0  0  0  0  0  0  0  0  0  0  0
    3.1749   -0.9617   -0.5007 C   0  0  2  0  0  0  0  0  0  0  0  0
    3.8053   -0.9046   -1.8040 N   0  0  0  0  0  0  0  0  0  0  0  0
    4.3765   -2.0450   -2.3857 C   0  0  0  0  0  0  0  0  0  0  0  0
    5.0295   -2.0233   -3.7196 C   0  0  0  0  0  0  0  0  0  0  0  0
    4.3435   -3.1404   -1.7664 O   0  0  0  0  0  0  0  0  0  0  0  0
    1.7113   -0.6293   -0.6419 C   0  0  0  0  0  0  0  0  0  0  0  0
    1.2735   -0.3367   -1.7984 O   0  0  0  0  0  0  0  0  0  0  0  0
    0.8294   -0.6308    0.4328 N   0  0  0  0  0  0  0  0  0  0  0  0
   -0.6173   -0.2807    0.1865 C   0  0  1  0  0  0  0  0  0  0  0  0
   -1.2944   -1.5832    0.3809 C   0  0  0  0  0  0  0  0  0  0  0  0
   -2.7247   -1.7887    0.2359 C   0  0  0  0  0  0  0  0  0  0  0  0
   -3.7097   -1.1343    1.1170 C   0  0  0  0  0  0  0  0  0  0  0  0
   -5.0363   -1.6309    0.6690 N   0  0  0  0  0  0  0  0  0  0  0  0
   -5.4042   -2.9765    0.8569 C   0  0  0  0  0  0  0  0  0  0  0  0
   -5.9856   -3.7009   -0.2157 N   0  0  0  0  0  0  0  0  0  0  0  0
   -5.1930   -3.5081    2.0236 N   0  0  0  0  0  0  0  0  0  0  0  0
   -0.9992    0.7304    1.1693 C   0  0  0  0  0  0  0  0  0  0  0  0
   -0.6723    0.6010    2.4033 O   0  0  0  0  0  0  0  0  0  0  0  0
   -1.7566    1.9586    0.8640 C   0  0  0  0  0  0  0  0  0  0  0  0
   -2.2268    2.3771   -0.2940 N   0  0  0  0  0  0  0  0  0  0  0  0
   -2.8778    3.5017   -0.3634 C   0  0  0  0  0  0  0  0  0  0  0  0
   -3.4403    4.0873   -1.5167 C   0  0  0  0  0  0  0  0  0  0  0  0
   -4.0964    5.2695   -1.4551 C   0  0  0  0  0  0  0  0  0  0  0  0
   -4.2695    5.9861   -0.2983 C   0  0  0  0  0  0  0  0  0  0  0  0
   -3.7299    5.4393    0.8507 C   0  0  0  0  0  0  0  0  0  0  0  0
   -3.0490    4.2141    0.7911 C   0  0  0  0  0  0  0  0  0  0  0  0
   -2.2438    3.1971    1.9291 S   0  0  0  0  0  0  0  0  0  0  0  0
    4.9712    1.1043    2.4355 H   0  0  0  0  0  0  0  0  0  0  0  0
    6.6990    1.1028    1.7917 H   0  0  0  0  0  0  0  0  0  0  0  0
    5.3704    2.0672    0.9990 H   0  0  0  0  0  0  0  0  0  0  0  0
    5.8264    0.0768   -0.2968 H   0  0  0  0  0  0  0  0  0  0  0  0
    6.6454   -1.2689    1.5846 H   0  0  0  0  0  0  0  0  0  0  0  0
    5.0513   -1.2423    2.3655 H   0  0  0  0  0  0  0  0  0  0  0  0
    5.3323   -2.2141    0.8164 H   0  0  0  0  0  0  0  0  0  0  0  0
    3.4550    1.0876    0.0405 H   0  0  0  0  0  0  0  0  0  0  0  0
    3.2628   -0.0277    1.4002 H   0  0  0  0  0  0  0  0  0  0  0  0
    3.2631   -1.9785   -0.1196 H   0  0  0  0  0  0  0  0  0  0  0  0
    3.8356   -0.0018   -2.3198 H   0  0  0  0  0  0  0  0  0  0  0  0
    5.0889   -3.0700   -4.1350 H   0  0  0  0  0  0  0  0  0  0  0  0
    4.5022   -1.3715   -4.4380 H   0  0  0  0  0  0  0  0  0  0  0  0
    6.0726   -1.6750   -3.6553 H   0  0  0  0  0  0  0  0  0  0  0  0
    1.0869   -0.8539    1.3965 H   0  0  0  0  0  0  0  0  0  0  0  0
   -0.7333    0.0245   -0.8535 H   0  0  0  0  0  0  0  0  0  0  0  0
   -0.7943   -2.3872   -0.2861 H   0  0  0  0  0  0  0  0  0  0  0  0
   -0.9916   -2.0201    1.4127 H   0  0  0  0  0  0  0  0  0  0  0  0
   -3.0280   -1.6442   -0.8634 H   0  0  0  0  0  0  0  0  0  0  0  0
   -2.9097   -2.9129    0.3541 H   0  0  0  0  0  0  0  0  0  0  0  0
   -3.5911   -1.4929    2.1861 H   0  0  0  0  0  0  0  0  0  0  0  0
   -3.8010   -0.0670    1.1294 H   0  0  0  0  0  0  0  0  0  0  0  0
   -5.6604   -0.9384    0.2166 H   0  0  0  0  0  0  0  0  0  0  0  0
   -6.7679   -4.3620   -0.0487 H   0  0  0  0  0  0  0  0  0  0  0  0
   -5.6320   -3.5763   -1.1840 H   0  0  0  0  0  0  0  0  0  0  0  0
   -5.4517   -4.5009    2.2011 H   0  0  0  0  0  0  0  0  0  0  0  0
   -3.3610    3.6027   -2.4880 H   0  0  0  0  0  0  0  0  0  0  0  0
   -4.5445    5.7462   -2.3475 H   0  0  0  0  0  0  0  0  0  0  0  0
   -4.7836    6.9267   -0.2110 H   0  0  0  0  0  0  0  0  0  0  0  0
   -3.7922    5.8915    1.8143 H   0  0  0  0  0  0  0  0  0  0  0  0
  1  2  1  0
  2  3  1  0
  2  4  1  0
  4  5  1  0
  5  6  1  0
  6  7  1  0
  7  8  1  0
  7  9  2  0
  5 10  1  0
 10 11  2  0
 10 12  1  0
 12 13  1  0
 13 14  1  0
 14 15  1  0
 15 16  1  0
 16 17  1  0
 17 18  1  0
 18 19  1  0
 18 20  2  3
 13 21  1  0
 21 22  2  0
 21 23  1  0
 23 24  2  0
 24 25  1  0
 25 26  2  0
 26 27  1  0
 27 28  2  0
 28 29  1  0
 29 30  2  0
 30 31  1  0
 31 23  1  0
 30 25  1  0
  1 32  1  0
  1 33  1  0
  1 34  1  0
  2 35  1  0
  3 36  1  0
  3 37  1  0
  3 38  1  0
  4 39  1  0
  4 40  1  0
  5 41  1  1
  6 42  1  0
  8 43  1  0
  8 44  1  0
  8 45  1  0
 12 46  1  0
 13 47  1  6
 14 48  1  0
 14 49  1  0
 15 50  1  0
 15 51  1  0
 16 52  1  0
 16 53  1  0
 17 54  1  0
 19 55  1  0
 19 56  1  0
 20 57  1  0
 26 58  1  0
 27 59  1  0
 28 60  1  0
 29 61  1  0
M  END
$$$$
[H]c1nc([H])c2c(C(=O)N([H])[H])nn(-c3c([H])c([H])c([H])c(C(=O)N4C([H])([H])C([H])([H])N(C([H])([H])[H])C([H])([H])C4([H])[H])c3[H])c2c1[H]
     RDKit          3D

 47 50  0  0  0  0  0  0  0  0999 V2000
    6.4329   -0.1575   -1.5049 C   0  0  0  0  0  0  0  0  0  0  0  0
    5.7344   -0.4588   -0.2791 N   0  0  0  0  0  0  0  0  0  0  0  0
    4.9512   -1.6319   -0.4833 C   0  0  0  0  0  0  0  0  0  0  0  0
    3.9736   -1.9532    0.6233 C   0  0  0  0  0  0  0  0  0  0  0  0
    3.1817   -0.6689    0.7645 N   0  0  0  0  0  0  0  0  0  0  0  0
    4.0097    0.3897    1.2120 C   0  0  0  0  0  0  0  0  0  0  0  0
    4.9728    0.7285    0.0794 C   0  0  0  0  0  0  0  0  0  0  0  0
    1.8379   -0.7805    0.4707 C   0  0  0  0  0  0  0  0  0  0  0  0
    1.3967   -1.9714    0.1740 O   0  0  0  0  0  0  0  0  0  0  0  0
    0.7766    0.2206    0.4287 C   0  0  0  0  0  0  0  0  0  0  0  0
    1.0010    1.5677    0.4698 C   0  0  0  0  0  0  0  0  0  0  0  0
   -0.0420    2.4585    0.4841 C   0  0  0  0  0  0  0  0  0  0  0  0
   -1.3349    1.9978    0.4552 C   0  0  0  0  0  0  0  0  0  0  0  0
   -1.6306    0.6541    0.4117 C   0  0  0  0  0  0  0  0  0  0  0  0
   -0.5620   -0.2045    0.3995 C   0  0  0  0  0  0  0  0  0  0  0  0
   -2.9848    0.1857    0.3814 N   0  0  0  0  0  0  0  0  0  0  0  0
   -3.5752   -0.6844    1.1556 N   0  0  0  0  0  0  0  0  0  0  0  0
   -4.8728   -0.8677    0.8127 C   0  0  0  0  0  0  0  0  0  0  0  0
   -5.8344   -1.7508    1.4422 C   0  0  0  0  0  0  0  0  0  0  0  0
   -7.1796   -1.9150    1.0561 N   0  0  0  0  0  0  0  0  0  0  0  0
   -5.4467   -2.4514    2.4377 O   0  0  0  0  0  0  0  0  0  0  0  0
   -5.0934   -0.0366   -0.2653 C   0  0  0  0  0  0  0  0  0  0  0  0
   -6.1657    0.2567   -1.0745 C   0  0  0  0  0  0  0  0  0  0  0  0
   -6.0779    1.1424   -2.0840 N   0  0  0  0  0  0  0  0  0  0  0  0
   -4.9071    1.7783   -2.3309 C   0  0  0  0  0  0  0  0  0  0  0  0
   -3.8021    1.5247   -1.5545 C   0  0  0  0  0  0  0  0  0  0  0  0
   -3.8828    0.6215   -0.5213 C   0  0  0  0  0  0  0  0  0  0  0  0
    7.5306   -0.3596   -1.4266 H   0  0  0  0  0  0  0  0  0  0  0  0
    6.0373   -0.7109   -2.3793 H   0  0  0  0  0  0  0  0  0  0  0  0
    6.3603    0.9315   -1.7798 H   0  0  0  0  0  0  0  0  0  0  0  0
    4.3865   -1.5601   -1.4356 H   0  0  0  0  0  0  0  0  0  0  0  0
    5.6625   -2.4956   -0.5231 H   0  0  0  0  0  0  0  0  0  0  0  0
    3.3341   -2.7709    0.3113 H   0  0  0  0  0  0  0  0  0  0  0  0
    4.4667   -2.0665    1.5998 H   0  0  0  0  0  0  0  0  0  0  0  0
    4.6805   -0.0805    2.0336 H   0  0  0  0  0  0  0  0  0  0  0  0
    3.6100    1.2686    1.6575 H   0  0  0  0  0  0  0  0  0  0  0  0
    5.6948    1.4644    0.4883 H   0  0  0  0  0  0  0  0  0  0  0  0
    4.4544    1.1916   -0.7617 H   0  0  0  0  0  0  0  0  0  0  0  0
    2.0177    1.9801    0.4579 H   0  0  0  0  0  0  0  0  0  0  0  0
    0.1319    3.5452    0.5184 H   0  0  0  0  0  0  0  0  0  0  0  0
   -2.1821    2.6984    0.4661 H   0  0  0  0  0  0  0  0  0  0  0  0
   -0.7813   -1.2841    0.3666 H   0  0  0  0  0  0  0  0  0  0  0  0
   -7.4040   -2.6653    0.3665 H   0  0  0  0  0  0  0  0  0  0  0  0
   -7.9794   -1.3430    1.4056 H   0  0  0  0  0  0  0  0  0  0  0  0
   -7.1055   -0.2651   -0.8629 H   0  0  0  0  0  0  0  0  0  0  0  0
   -4.9025    2.4844   -3.1639 H   0  0  0  0  0  0  0  0  0  0  0  0
   -2.8889    2.0435   -1.7740 H   0  0  0  0  0  0  0  0  0  0  0  0
  1  2  1  0
  2  3  1  0
  3  4  1  0
  4  5  1  0
  5  6  1  0
  6  7  1  0
  5  8  1  0
  8  9  2  0
  8 10  1  0
 10 11  2  0
 11 12  1  0
 12 13  2  0
 13 14  1  0
 14 15  2  0
 14 16  1  0
 16 17  1  0
 17 18  2  0
 18 19  1  0
 19 20  1  0
 19 21  2  0
 18 22  1  0
 22 23  2  0
 23 24  1  0
 24 25  2  0
 25 26  1  0
 26 27  2  0
  7  2  1  0
 15 10  1  0
 27 16  1  0
 27 22  1  0
  1 28  1  0
  1 29  1  0
  1 30  1  0
  3 31  1  0
  3 32  1  0
  4 33  1  0
  4 34  1  0
  6 35  1  0
  6 36  1  0
  7 37  1  0
  7 38  1  0
 11 39  1  0
 12 40  1  0
 13 41  1  0
 15 42  1  0
 20 43  1  0
 20 44  1  0
 23 45  1  0
 25 46  1  0
 26 47  1  0
M  END
$$$$
[H]OC(=O)C([H])([H])[C@@]([H])(C(=O)N([H])[C@]([H])(C([H])=C([H])c1c([H])c([H])c([H])c([H])c1[H])C([H])([H])C(=O)O[H])N([H])C(=O)[C@@]([H])(N([H])C(=O)[C@@]([H])(N([H])C(=O)C([H])([H])[H])C([H])([H])C(=O)O[H])C([H])(C([H])([H])[H])C([H])([H])[H]
     RDKit          3D

 74 74  0  0  0  0  0  0  0  0999 V2000
   -3.4114   -2.2703   -1.8972 C   0  0  0  0  0  0  0  0  0  0  0  0
   -2.6062   -0.9900   -1.6972 C   0  0  0  0  0  0  0  0  0  0  0  0
   -1.2420   -1.2246   -2.2329 C   0  0  0  0  0  0  0  0  0  0  0  0
   -2.7188   -0.5396   -0.2832 C   0  0  2  0  0  0  0  0  0  0  0  0
   -4.0053   -0.1147    0.1380 N   0  0  0  0  0  0  0  0  0  0  0  0
   -5.2420    0.0285   -0.4616 C   0  0  0  0  0  0  0  0  0  0  0  0
   -5.4770   -0.2009   -1.6527 O   0  0  0  0  0  0  0  0  0  0  0  0
   -6.4617    0.4937    0.3147 C   0  0  2  0  0  0  0  0  0  0  0  0
   -6.6349   -0.3612    1.5493 C   0  0  0  0  0  0  0  0  0  0  0  0
   -6.8116   -1.7932    1.2368 C   0  0  0  0  0  0  0  0  0  0  0  0
   -6.9958   -2.7181    2.2435 O   0  0  0  0  0  0  0  0  0  0  0  0
   -6.7942   -2.1744    0.0503 O   0  0  0  0  0  0  0  0  0  0  0  0
   -7.6356    0.5545   -0.5113 N   0  0  0  0  0  0  0  0  0  0  0  0
   -8.3958    1.7392   -0.7118 C   0  0  0  0  0  0  0  0  0  0  0  0
   -9.5901    1.7679   -1.5625 C   0  0  0  0  0  0  0  0  0  0  0  0
   -7.9943    2.7851   -0.1169 O   0  0  0  0  0  0  0  0  0  0  0  0
   -1.6081    0.2612    0.2488 C   0  0  0  0  0  0  0  0  0  0  0  0
   -1.8681    1.4414    0.6115 O   0  0  0  0  0  0  0  0  0  0  0  0
   -0.2649   -0.1783    0.3969 N   0  0  0  0  0  0  0  0  0  0  0  0
    0.8193    0.6033    0.9141 C   0  0  1  0  0  0  0  0  0  0  0  0
    1.1111    0.3021    2.3680 C   0  0  0  0  0  0  0  0  0  0  0  0
    1.4788   -1.0626    2.6704 C   0  0  0  0  0  0  0  0  0  0  0  0
    1.7798   -1.5404    3.9362 O   0  0  0  0  0  0  0  0  0  0  0  0
    1.5460   -1.9236    1.7498 O   0  0  0  0  0  0  0  0  0  0  0  0
    2.0312    0.5978    0.0832 C   0  0  0  0  0  0  0  0  0  0  0  0
    2.0386   -0.0610   -0.9811 O   0  0  0  0  0  0  0  0  0  0  0  0
    3.2040    1.3074    0.4301 N   0  0  0  0  0  0  0  0  0  0  0  0
    4.3996    1.3117   -0.3779 C   0  0  1  0  0  0  0  0  0  0  0  0
    4.9742    2.6922   -0.4674 C   0  0  0  0  0  0  0  0  0  0  0  0
    3.9936    3.5990   -1.0792 C   0  0  0  0  0  0  0  0  0  0  0  0
    2.7445    3.1851   -1.4680 O   0  0  0  0  0  0  0  0  0  0  0  0
    4.2771    4.8195   -1.2707 O   0  0  0  0  0  0  0  0  0  0  0  0
    5.4586    0.4500    0.2748 C   0  0  0  0  0  0  0  0  0  0  0  0
    6.6082    0.3283   -0.3268 C   0  0  0  0  0  0  0  0  0  0  0  0
    7.7181   -0.4699    0.1854 C   0  0  0  0  0  0  0  0  0  0  0  0
    8.9274   -0.5438   -0.5094 C   0  0  0  0  0  0  0  0  0  0  0  0
    9.9901   -1.2762   -0.0755 C   0  0  0  0  0  0  0  0  0  0  0  0
    9.8745   -1.9819    1.1058 C   0  0  0  0  0  0  0  0  0  0  0  0
    8.7151   -1.9401    1.8165 C   0  0  0  0  0  0  0  0  0  0  0  0
    7.6609   -1.1916    1.3521 C   0  0  0  0  0  0  0  0  0  0  0  0
   -2.6961   -3.1440   -1.9893 H   0  0  0  0  0  0  0  0  0  0  0  0
   -3.9865   -2.2244   -2.8361 H   0  0  0  0  0  0  0  0  0  0  0  0
   -4.0676   -2.5234   -1.0587 H   0  0  0  0  0  0  0  0  0  0  0  0
   -3.0649   -0.1869   -2.3829 H   0  0  0  0  0  0  0  0  0  0  0  0
   -0.5571   -0.3730   -2.1362 H   0  0  0  0  0  0  0  0  0  0  0  0
   -0.8573   -2.1982   -1.9125 H   0  0  0  0  0  0  0  0  0  0  0  0
   -1.3701   -1.3401   -3.3584 H   0  0  0  0  0  0  0  0  0  0  0  0
   -2.6053   -1.5804    0.2661 H   0  0  0  0  0  0  0  0  0  0  0  0
   -4.0498    0.1774    1.2169 H   0  0  0  0  0  0  0  0  0  0  0  0
   -6.2921    1.5395    0.7005 H   0  0  0  0  0  0  0  0  0  0  0  0
   -5.7633   -0.2416    2.2304 H   0  0  0  0  0  0  0  0  0  0  0  0
   -7.5115   -0.0461    2.1505 H   0  0  0  0  0  0  0  0  0  0  0  0
   -6.2417   -3.2631    2.6458 H   0  0  0  0  0  0  0  0  0  0  0  0
   -7.9613   -0.3077   -0.9990 H   0  0  0  0  0  0  0  0  0  0  0  0
   -9.3314    1.6507   -2.6200 H   0  0  0  0  0  0  0  0  0  0  0  0
  -10.2635    0.9468   -1.1999 H   0  0  0  0  0  0  0  0  0  0  0  0
  -10.1242    2.7223   -1.4091 H   0  0  0  0  0  0  0  0  0  0  0  0
   -0.0773   -1.1754    0.0983 H   0  0  0  0  0  0  0  0  0  0  0  0
    0.4530    1.6732    0.9455 H   0  0  0  0  0  0  0  0  0  0  0  0
    1.9708    0.9631    2.6606 H   0  0  0  0  0  0  0  0  0  0  0  0
    0.2558    0.6878    2.9595 H   0  0  0  0  0  0  0  0  0  0  0  0
    1.8562   -0.9038    4.7180 H   0  0  0  0  0  0  0  0  0  0  0  0
    3.2083    1.8545    1.3103 H   0  0  0  0  0  0  0  0  0  0  0  0
    4.2302    0.8335   -1.3685 H   0  0  0  0  0  0  0  0  0  0  0  0
    5.2120    3.0929    0.5390 H   0  0  0  0  0  0  0  0  0  0  0  0
    5.9363    2.7150   -1.0371 H   0  0  0  0  0  0  0  0  0  0  0  0
    1.9560    3.7527   -1.6731 H   0  0  0  0  0  0  0  0  0  0  0  0
    5.2672   -0.0398    1.1956 H   0  0  0  0  0  0  0  0  0  0  0  0
    6.7981    0.8416   -1.2861 H   0  0  0  0  0  0  0  0  0  0  0  0
    9.0343   -0.0017   -1.4291 H   0  0  0  0  0  0  0  0  0  0  0  0
   10.9315   -1.3369   -0.6117 H   0  0  0  0  0  0  0  0  0  0  0  0
   10.7028   -2.5812    1.4890 H   0  0  0  0  0  0  0  0  0  0  0  0
    8.6560   -2.5114    2.7475 H   0  0  0  0  0  0  0  0  0  0  0  0
    6.7596   -1.1836    1.9419 H   0  0  0  0  0  0  0  0  0  0  0  0
  1  2  1  0
  2  3  1  0
  2  4  1  0
  4  5  1  0
  5  6  1  0
  6  7  2  0
  6  8  1  0
  8  9  1  0
  9 10  1  0
 10 11  1  0
 10 12  2  0
  8 13  1  0
 13 14  1  0
 14 15  1  0
 14 16  2  0
  4 17  1  0
 17 18  2  0
 17 19  1  0
 19 20  1  0
 20 21  1  0
 21 22  1  0
 22 23  1  0
 22 24  2  0
 20 25  1  0
 25 26  2  0
 25 27  1  0
 27 28  1  0
 28 29  1  0
 29 30  1  0
 30 31  1  0
 30 32  2  0
 28 33  1  0
 33 34  2  3
 34 35  1  0
 35 36  2  0
 36 37  1  0
 37 38  2  0
 38 39  1  0
 39 40  2  0
 40 35  1  0
  1 41  1  0
  1 42  1  0
  1 43  1  0
  2 44  1  0
  3 45  1  0
  3 46  1  0
  3 47  1  0
  4 48  1  1
  5 49  1  0
  8 50  1  1
  9 51  1  0
  9 52  1  0
 11 53  1  0
 13 54  1  0
 15 55  1  0
 15 56  1  0
 15 57  1  0
 19 58  1  0
 20 59  1  1
 21 60  1  0
 21 61  1  0
 23 62  1  0
 27 63  1  0
 28 64  1  6
 29 65  1  0
 29 66  1  0
 31 67  1  0
 33 68  1  0
 34 69  1  0
 36 70  1  0
 37 71  1  0
 38 72  1  0
 39 73  1  0
 40 74  1  0
M  END
$$$$
[H]Oc1c([H])c([H])c(C([H])([H])[C@@]([H])(C(=O)N([H])[C@]([H])(C(=O)N([H])[C@@]([H])(C([H])([H])C([H])(C([H])([H])[H])C([H])([H])[H])C([H])(C([H])([H])[H])C([H])([H])[H])C(C([H])([H])[H])(C([H])([H])[H])C([H])([H])[H])N([H])C(=O)[C@@]2([H])N(C(=O)[C@]([H])(C(=O)OC(C([H])([H])[H])(C([H])([H])[H])C([H])([H])[H])C([H])([H])C([H])([H])C([H])([H])N=C(N([H])[H])N([H])[H])C([H])([H])C([H])([H])C2([H])[H])c([H])c1[H]
     RDKit          3D

118119  0  0  0  0  0  0  0  0999 V2000
   -5.5747   -3.8295   -1.0084 C   0  0  0  0  0  0  0  0  0  0  0  0
   -6.1370   -3.2086   -2.2626 C   0  0  0  0  0  0  0  0  0  0  0  0
   -7.4446   -3.8063   -2.7050 C   0  0  0  0  0  0  0  0  0  0  0  0
   -5.9375   -1.7758   -2.4117 C   0  0  0  0  0  0  0  0  0  0  0  0
   -6.3858   -0.7324   -1.5132 C   0  0  2  0  0  0  0  0  0  0  0  0
   -5.8511   -0.8597   -0.1544 N   0  0  0  0  0  0  0  0  0  0  0  0
   -4.8172   -0.0351    0.3701 C   0  0  0  0  0  0  0  0  0  0  0  0
   -4.3750    0.8436   -0.4238 O   0  0  0  0  0  0  0  0  0  0  0  0
   -4.2544   -0.1332    1.6980 C   0  0  1  0  0  0  0  0  0  0  0  0
   -3.1473    0.8264    1.8269 N   0  0  0  0  0  0  0  0  0  0  0  0
   -1.8361    0.4410    1.7187 C   0  0  0  0  0  0  0  0  0  0  0  0
   -1.7297   -0.8701    1.4461 O   0  0  0  0  0  0  0  0  0  0  0  0
   -0.5310    1.1066    1.8283 C   0  0  2  0  0  0  0  0  0  0  0  0
   -0.4709    2.4131    2.4230 C   0  0  0  0  0  0  0  0  0  0  0  0
   -1.0763    3.6397    2.0635 C   0  0  0  0  0  0  0  0  0  0  0  0
   -2.1480    4.1273    2.8048 C   0  0  0  0  0  0  0  0  0  0  0  0
   -2.7970    5.2865    2.5368 C   0  0  0  0  0  0  0  0  0  0  0  0
   -2.3853    6.0447    1.4672 C   0  0  0  0  0  0  0  0  0  0  0  0
   -3.0148    7.2336    1.1542 O   0  0  0  0  0  0  0  0  0  0  0  0
   -1.3308    5.6196    0.6909 C   0  0  0  0  0  0  0  0  0  0  0  0
   -0.7025    4.4477    0.9914 C   0  0  0  0  0  0  0  0  0  0  0  0
    0.4032    0.7987    0.8267 N   0  0  0  0  0  0  0  0  0  0  0  0
    1.2994    0.5023   -0.1343 C   0  0  0  0  0  0  0  0  0  0  0  0
    1.6852   -0.6036   -0.6386 O   0  0  0  0  0  0  0  0  0  0  0  0
    2.0444    1.6725   -0.7722 C   0  0  2  0  0  0  0  0  0  0  0  0
    1.7444    1.7193   -2.2371 C   0  0  0  0  0  0  0  0  0  0  0  0
    3.0212    2.2115   -2.8674 C   0  0  0  0  0  0  0  0  0  0  0  0
    4.0584    2.2201   -1.7833 C   0  0  0  0  0  0  0  0  0  0  0  0
    3.4789    1.4539   -0.7117 N   0  0  0  0  0  0  0  0  0  0  0  0
    4.1227    0.6846    0.2880 C   0  0  0  0  0  0  0  0  0  0  0  0
    3.4683    0.1892    1.2189 O   0  0  0  0  0  0  0  0  0  0  0  0
    5.6307    0.4077    0.2990 C   0  0  1  0  0  0  0  0  0  0  0  0
    5.8543   -0.3660    1.5572 C   0  0  0  0  0  0  0  0  0  0  0  0
    7.1591   -0.8178    1.9964 C   0  0  0  0  0  0  0  0  0  0  0  0
    7.9267   -1.7882    1.1746 C   0  0  0  0  0  0  0  0  0  0  0  0
    9.1811   -2.1072    1.9222 N   0  0  0  0  0  0  0  0  0  0  0  0
    9.5726   -3.3291    1.8937 C   0  0  0  0  0  0  0  0  0  0  0  0
    8.8357   -4.3067    1.1815 N   0  0  0  0  0  0  0  0  0  0  0  0
   10.7662   -3.6690    2.6089 N   0  0  0  0  0  0  0  0  0  0  0  0
    5.9446   -0.4092   -0.8915 C   0  0  0  0  0  0  0  0  0  0  0  0
    5.2094   -1.4165   -1.1359 O   0  0  0  0  0  0  0  0  0  0  0  0
    6.9645   -0.1986   -1.7868 O   0  0  0  0  0  0  0  0  0  0  0  0
    7.2944   -0.9195   -2.9136 C   0  0  0  0  0  0  0  0  0  0  0  0
    7.6198   -2.3676   -2.7325 C   0  0  0  0  0  0  0  0  0  0  0  0
    8.5807   -0.2811   -3.4798 C   0  0  0  0  0  0  0  0  0  0  0  0
    6.2722   -0.7932   -4.0243 C   0  0  0  0  0  0  0  0  0  0  0  0
   -5.1288    0.0922    2.8689 C   0  0  0  0  0  0  0  0  0  0  0  0
   -6.2987   -0.8352    3.0197 C   0  0  0  0  0  0  0  0  0  0  0  0
   -5.5602    1.5575    2.9977 C   0  0  0  0  0  0  0  0  0  0  0  0
   -4.2510   -0.1483    4.1125 C   0  0  0  0  0  0  0  0  0  0  0  0
   -7.7467   -0.2157   -1.4297 C   0  0  0  0  0  0  0  0  0  0  0  0
   -8.8701   -1.1340   -1.0660 C   0  0  0  0  0  0  0  0  0  0  0  0
   -8.2111    0.6182   -2.5992 C   0  0  0  0  0  0  0  0  0  0  0  0
   -5.3127   -4.8807   -1.2368 H   0  0  0  0  0  0  0  0  0  0  0  0
   -4.6628   -3.3017   -0.7613 H   0  0  0  0  0  0  0  0  0  0  0  0
   -6.3193   -3.8924   -0.1875 H   0  0  0  0  0  0  0  0  0  0  0  0
   -5.4335   -3.6654   -3.0641 H   0  0  0  0  0  0  0  0  0  0  0  0
   -7.9692   -3.0805   -3.3653 H   0  0  0  0  0  0  0  0  0  0  0  0
   -8.0846   -4.1060   -1.8425 H   0  0  0  0  0  0  0  0  0  0  0  0
   -7.3255   -4.7412   -3.2939 H   0  0  0  0  0  0  0  0  0  0  0  0
   -6.2888   -1.5065   -3.4525 H   0  0  0  0  0  0  0  0  0  0  0  0
   -4.8055   -1.6333   -2.5435 H   0  0  0  0  0  0  0  0  0  0  0  0
   -5.7873    0.1924   -1.8862 H   0  0  0  0  0  0  0  0  0  0  0  0
   -6.2316   -1.5919    0.4714 H   0  0  0  0  0  0  0  0  0  0  0  0
   -3.7731   -1.1489    1.7950 H   0  0  0  0  0  0  0  0  0  0  0  0
   -3.4624    1.7902    1.9877 H   0  0  0  0  0  0  0  0  0  0  0  0
   -0.1002    0.4073    2.7230 H   0  0  0  0  0  0  0  0  0  0  0  0
    0.6652    2.6682    2.5125 H   0  0  0  0  0  0  0  0  0  0  0  0
   -0.6810    2.2743    3.5497 H   0  0  0  0  0  0  0  0  0  0  0  0
   -2.5241    3.5675    3.6776 H   0  0  0  0  0  0  0  0  0  0  0  0
   -3.6359    5.6412    3.1431 H   0  0  0  0  0  0  0  0  0  0  0  0
   -2.7213    8.1210    1.5377 H   0  0  0  0  0  0  0  0  0  0  0  0
   -0.9626    6.1739   -0.1578 H   0  0  0  0  0  0  0  0  0  0  0  0
    0.1143    4.0845    0.4231 H   0  0  0  0  0  0  0  0  0  0  0  0
    0.1344   -0.5165    0.9838 H   0  0  0  0  0  0  0  0  0  0  0  0
    1.8195    2.6182   -0.2892 H   0  0  0  0  0  0  0  0  0  0  0  0
    0.9413    2.4787   -2.4059 H   0  0  0  0  0  0  0  0  0  0  0  0
    1.4483    0.7068   -2.6246 H   0  0  0  0  0  0  0  0  0  0  0  0
    3.3078    1.5214   -3.7110 H   0  0  0  0  0  0  0  0  0  0  0  0
    2.8965    3.2311   -3.2939 H   0  0  0  0  0  0  0  0  0  0  0  0
    5.0396    1.8339   -2.1251 H   0  0  0  0  0  0  0  0  0  0  0  0
    4.2668    3.2824   -1.4350 H   0  0  0  0  0  0  0  0  0  0  0  0
    6.1938    1.3427    0.3499 H   0  0  0  0  0  0  0  0  0  0  0  0
    5.4111    0.2331    2.4474 H   0  0  0  0  0  0  0  0  0  0  0  0
    5.1560   -1.2729    1.5879 H   0  0  0  0  0  0  0  0  0  0  0  0
    7.8384    0.0907    2.1316 H   0  0  0  0  0  0  0  0  0  0  0  0
    7.1339   -1.2447    3.0548 H   0  0  0  0  0  0  0  0  0  0  0  0
    8.2133   -1.4278    0.1956 H   0  0  0  0  0  0  0  0  0  0  0  0
    7.3425   -2.7228    1.0798 H   0  0  0  0  0  0  0  0  0  0  0  0
    8.0656   -4.8121    1.6423 H   0  0  0  0  0  0  0  0  0  0  0  0
    9.0773   -4.5099    0.2011 H   0  0  0  0  0  0  0  0  0  0  0  0
   11.6491   -3.2391    2.3283 H   0  0  0  0  0  0  0  0  0  0  0  0
   10.6920   -4.3407    3.3885 H   0  0  0  0  0  0  0  0  0  0  0  0
    6.7351   -3.0122   -2.6228 H   0  0  0  0  0  0  0  0  0  0  0  0
    8.1068   -2.6989   -3.7003 H   0  0  0  0  0  0  0  0  0  0  0  0
    8.4115   -2.5558   -1.9658 H   0  0  0  0  0  0  0  0  0  0  0  0
    9.2187    0.0573   -2.6516 H   0  0  0  0  0  0  0  0  0  0  0  0
    9.1293   -1.0122   -4.1060 H   0  0  0  0  0  0  0  0  0  0  0  0
    8.3182    0.5650   -4.1148 H   0  0  0  0  0  0  0  0  0  0  0  0
    6.1846    0.2936   -4.2855 H   0  0  0  0  0  0  0  0  0  0  0  0
    5.3125   -1.2377   -3.7243 H   0  0  0  0  0  0  0  0  0  0  0  0
    6.6863   -1.3095   -4.9362 H   0  0  0  0  0  0  0  0  0  0  0  0
   -5.9663   -1.8587    2.8069 H   0  0  0  0  0  0  0  0  0  0  0  0
   -7.1479   -0.5100    2.3710 H   0  0  0  0  0  0  0  0  0  0  0  0
   -6.7165   -0.8091    4.0606 H   0  0  0  0  0  0  0  0  0  0  0  0
   -6.5313    1.5768    3.5191 H   0  0  0  0  0  0  0  0  0  0  0  0
   -4.8422    2.1397    3.6366 H   0  0  0  0  0  0  0  0  0  0  0  0
   -5.5557    2.0729    2.0196 H   0  0  0  0  0  0  0  0  0  0  0  0
   -3.2658    0.3463    3.9825 H   0  0  0  0  0  0  0  0  0  0  0  0
   -4.1922   -1.2143    4.3412 H   0  0  0  0  0  0  0  0  0  0  0  0
   -4.7724    0.3439    4.9518 H   0  0  0  0  0  0  0  0  0  0  0  0
   -7.7540    0.5310   -0.5637 H   0  0  0  0  0  0  0  0  0  0  0  0
   -8.6062   -2.0176   -0.4821 H   0  0  0  0  0  0  0  0  0  0  0  0
   -9.7088   -0.5471   -0.5707 H   0  0  0  0  0  0  0  0  0  0  0  0
   -9.3442   -1.4794   -2.0133 H   0  0  0  0  0  0  0  0  0  0  0  0
   -9.0263    0.0648   -3.1586 H   0  0  0  0  0  0  0  0  0  0  0  0
   -7.4284    0.8711   -3.3238 H   0  0  0  0  0  0  0  0  0  0  0  0
   -8.6948    1.5747   -2.3083 H   0  0  0  0  0  0  0  0  0  0  0  0
  1  2  1  0
  2  3  1  0
  2  4  1  0
  4  5  1  0
  5  6  1  0
  6  7  1  0
  7  8  2  0
  7  9  1  0
  9 10  1  0
 10 11  1  0
 11 12  2  0
 11 13  1  0
 13 14  1  0
 14 15  1  0
 15 16  2  0
 16 17  1  0
 17 18  2  0
 18 19  1  0
 18 20  1  0
 20 21  2  0
 13 22  1  0
 22 23  1  0
 23 24  2  0
 23 25  1  0
 25 26  1  0
 26 27  1  0
 27 28  1  0
 28 29  1  0
 29 30  1  0
 30 31  2  0
 30 32  1  0
 32 33  1  0
 33 34  1  0
 34 35  1  0
 35 36  1  0
 36 37  2  3
 37 38  1  0
 37 39  1  0
 32 40  1  0
 40 41  2  0
 40 42  1  0
 42 43  1  0
 43 44  1  0
 43 45  1  0
 43 46  1  0
  9 47  1  0
 47 48  1  0
 47 49  1  0
 47 50  1  0
  5 51  1  0
 51 52  1  0
 51 53  1  0
 21 15  1  0
 29 25  1  0
  1 54  1  0
  1 55  1  0
  1 56  1  0
  2 57  1  0
  3 58  1  0
  3 59  1  0
  3 60  1  0
  4 61  1  0
  4 62  1  0
  5 63  1  6
  6 64  1  0
  9 65  1  1
 10 66  1  0
 13 67  1  1
 14 68  1  0
 14 69  1  0
 16 70  1  0
 17 71  1  0
 19 72  1  0
 20 73  1  0
 21 74  1  0
 22 75  1  0
 25 76  1  1
 26 77  1  0
 26 78  1  0
 27 79  1  0
 27 80  1  0
 28 81  1  0
 28 82  1  0
 32 83  1  1
 33 84  1  0
 33 85  1  0
 34 86  1  0
 34 87  1  0
 35 88  1  0
 35 89  1  0
 38 90  1  0
 38 91  1  0
 39 92  1  0
 39 93  1  0
 44 94  1  0
 44 95  1  0
 44 96  1  0
 45 97  1  0
 45 98  1  0
 45 99  1  0
 46100  1  0
 46101  1  0
 46102  1  0
 48103  1  0
 48104  1  0
 48105  1  0
 49106  1  0
 49107  1  0
 49108  1  0
 50109  1  0
 50110  1  0
 50111  1  0
 51112  1  0
 52113  1  0
 52114  1  0
 52115  1  0
 53116  1  0
 53117  1  0
 53118  1  0
M  END
$$$$
[H]c1c([H])c(-n2c(=O)c3c([H])nc4c([H])c([H])c([H])c([H])c4c3n2[H])c([H])c([H])c1OC([H])([H])[H]
     RDKit          3D

 35 38  0  0  0  0  0  0  0  0999 V2000
    6.3296    1.1027    1.2900 C   0  0  0  0  0  0  0  0  0  0  0  0
    5.8005    0.2671    0.2859 O   0  0  0  0  0  0  0  0  0  0  0  0
    4.4243    0.0468    0.1591 C   0  0  0  0  0  0  0  0  0  0  0  0
    3.5147    0.6395    1.0144 C   0  0  0  0  0  0  0  0  0  0  0  0
    2.1629    0.4176    0.8830 C   0  0  0  0  0  0  0  0  0  0  0  0
    1.6509   -0.4015   -0.1018 C   0  0  0  0  0  0  0  0  0  0  0  0
    2.5705   -0.9935   -0.9574 C   0  0  0  0  0  0  0  0  0  0  0  0
    3.9267   -0.7740   -0.8294 C   0  0  0  0  0  0  0  0  0  0  0  0
    0.2505   -0.6284   -0.2342 N   0  0  0  0  0  0  0  0  0  0  0  0
   -0.6928    0.2801   -0.0886 N   0  0  0  0  0  0  0  0  0  0  0  0
   -1.9126   -0.2812   -0.2843 C   0  0  0  0  0  0  0  0  0  0  0  0
   -1.6730   -1.6082   -0.5639 C   0  0  0  0  0  0  0  0  0  0  0  0
   -2.7510   -2.4550   -0.8145 C   0  0  0  0  0  0  0  0  0  0  0  0
   -3.9875   -1.9324   -0.7714 N   0  0  0  0  0  0  0  0  0  0  0  0
   -4.2534   -0.6446   -0.5021 C   0  0  0  0  0  0  0  0  0  0  0  0
   -5.5745   -0.1786   -0.4765 C   0  0  0  0  0  0  0  0  0  0  0  0
   -5.8128    1.1463   -0.1974 C   0  0  0  0  0  0  0  0  0  0  0  0
   -4.7356    1.9909    0.0527 C   0  0  0  0  0  0  0  0  0  0  0  0
   -3.4360    1.5379    0.0288 C   0  0  0  0  0  0  0  0  0  0  0  0
   -3.2005    0.2088   -0.2515 C   0  0  0  0  0  0  0  0  0  0  0  0
   -0.3188   -1.8127   -0.5297 C   0  0  0  0  0  0  0  0  0  0  0  0
    0.2966   -2.8911   -0.7321 O   0  0  0  0  0  0  0  0  0  0  0  0
    6.0427    2.1677    1.0771 H   0  0  0  0  0  0  0  0  0  0  0  0
    5.8236    0.8332    2.2596 H   0  0  0  0  0  0  0  0  0  0  0  0
    7.4064    0.9678    1.4075 H   0  0  0  0  0  0  0  0  0  0  0  0
    3.8911    1.2847    1.7929 H   0  0  0  0  0  0  0  0  0  0  0  0
    1.4472    0.8923    1.5666 H   0  0  0  0  0  0  0  0  0  0  0  0
    2.1698   -1.6413   -1.7366 H   0  0  0  0  0  0  0  0  0  0  0  0
    4.6334   -1.2366   -1.4966 H   0  0  0  0  0  0  0  0  0  0  0  0
   -0.5921    1.2985    0.1427 H   0  0  0  0  0  0  0  0  0  0  0  0
   -2.5278   -3.4901   -1.0304 H   0  0  0  0  0  0  0  0  0  0  0  0
   -6.4017   -0.8477   -0.6731 H   0  0  0  0  0  0  0  0  0  0  0  0
   -6.8295    1.4873   -0.1816 H   0  0  0  0  0  0  0  0  0  0  0  0
   -4.9994    3.0250    0.2661 H   0  0  0  0  0  0  0  0  0  0  0  0
   -2.6426    2.2226    0.2268 H   0  0  0  0  0  0  0  0  0  0  0  0
  1  2  1  0
  2  3  1  0
  3  4  2  0
  4  5  1  0
  5  6  2  0
  6  7  1  0
  7  8  2  0
  6  9  1  0
  9 10  1  0
 10 11  1  0
 11 12  2  0
 12 13  1  0
 13 14  2  0
 14 15  1  0
 15 16  2  0
 16 17  1  0
 17 18  2  0
 18 19  1  0
 19 20  2  0
 12 21  1  0
 21 22  2  0
  8  3  1  0
 21  9  1  0
 20 11  1  0
 20 15  1  0
  1 23  1  0
  1 24  1  0
  1 25  1  0
  4 26  1  0
  5 27  1  0
  7 28  1  0
  8 29  1  0
 10 30  1  0
 13 31  1  0
 16 32  1  0
 17 33  1  0
 18 34  1  0
 19 35  1  0
M  END
$$$$
[H]c1c([H])c(-c2c([H])c([H])c(-c3nc(=O)n([H])o3)c([H])c2C#N)c([H])c([H])c1C(=O)N(C([H])([H])[H])C([H])([H])[H]
     RDKit          3D

 39 41  0  0  0  0  0  0  0  0999 V2000
    5.3882   -0.9532   -1.0898 C   0  0  0  0  0  0  0  0  0  0  0  0
    5.3693    0.0641   -0.0801 N   0  0  0  0  0  0  0  0  0  0  0  0
    6.7640    0.4861    0.3199 C   0  0  0  0  0  0  0  0  0  0  0  0
    4.2948    0.6734    0.5345 C   0  0  0  0  0  0  0  0  0  0  0  0
    4.6602    1.5740    1.4299 O   0  0  0  0  0  0  0  0  0  0  0  0
    2.8950    0.5080    0.3793 C   0  0  0  0  0  0  0  0  0  0  0  0
    2.2986   -0.3623   -0.5048 C   0  0  0  0  0  0  0  0  0  0  0  0
    0.9169   -0.4870   -0.6133 C   0  0  0  0  0  0  0  0  0  0  0  0
    0.1006    0.2674    0.1721 C   0  0  0  0  0  0  0  0  0  0  0  0
    0.6815    1.1399    1.0581 C   0  0  0  0  0  0  0  0  0  0  0  0
    2.0403    1.2813    1.1839 C   0  0  0  0  0  0  0  0  0  0  0  0
   -1.3483    0.1614    0.1010 C   0  0  0  0  0  0  0  0  0  0  0  0
   -2.1340    1.3006   -0.0638 C   0  0  0  0  0  0  0  0  0  0  0  0
   -3.4911    1.1740   -0.1434 C   0  0  0  0  0  0  0  0  0  0  0  0
   -4.1553   -0.0301   -0.0706 C   0  0  0  0  0  0  0  0  0  0  0  0
   -3.3636   -1.1418    0.0922 C   0  0  0  0  0  0  0  0  0  0  0  0
   -1.9689   -1.0566    0.1787 C   0  0  0  0  0  0  0  0  0  0  0  0
   -1.2008   -2.2789    0.3681 C   0  0  0  0  0  0  0  0  0  0  0  0
   -0.6020   -3.2671    0.5356 N   0  0  0  0  0  0  0  0  0  0  0  0
   -5.6097   -0.0974   -0.1630 C   0  0  0  0  0  0  0  0  0  0  0  0
   -6.4391    0.9525   -0.3223 N   0  0  0  0  0  0  0  0  0  0  0  0
   -7.6904    0.5182   -0.3649 C   0  0  0  0  0  0  0  0  0  0  0  0
   -8.7311    1.2443   -0.5069 O   0  0  0  0  0  0  0  0  0  0  0  0
   -7.6380   -0.8164   -0.2306 N   0  0  0  0  0  0  0  0  0  0  0  0
   -6.3891   -1.1415   -0.1137 O   0  0  0  0  0  0  0  0  0  0  0  0
    6.4469   -1.2798   -1.3188 H   0  0  0  0  0  0  0  0  0  0  0  0
    4.8919   -1.8766   -0.7522 H   0  0  0  0  0  0  0  0  0  0  0  0
    4.9106   -0.5993   -2.0332 H   0  0  0  0  0  0  0  0  0  0  0  0
    7.0913    1.3259   -0.3014 H   0  0  0  0  0  0  0  0  0  0  0  0
    7.4209   -0.3961    0.3082 H   0  0  0  0  0  0  0  0  0  0  0  0
    6.6526    0.7864    1.3798 H   0  0  0  0  0  0  0  0  0  0  0  0
    2.8549   -1.0004   -1.1700 H   0  0  0  0  0  0  0  0  0  0  0  0
    0.5177   -1.2050   -1.3573 H   0  0  0  0  0  0  0  0  0  0  0  0
    0.0821    1.7815    1.7242 H   0  0  0  0  0  0  0  0  0  0  0  0
    2.4985    1.9620    1.8753 H   0  0  0  0  0  0  0  0  0  0  0  0
   -1.6028    2.2406   -0.1198 H   0  0  0  0  0  0  0  0  0  0  0  0
   -4.0952    2.0650   -0.2716 H   0  0  0  0  0  0  0  0  0  0  0  0
   -3.8239   -2.1057    0.1554 H   0  0  0  0  0  0  0  0  0  0  0  0
   -8.4933   -1.4118   -0.2304 H   0  0  0  0  0  0  0  0  0  0  0  0
  1  2  1  0
  2  3  1  0
  2  4  1  0
  4  5  2  0
  4  6  1  0
  6  7  2  0
  7  8  1  0
  8  9  2  0
  9 10  1  0
 10 11  2  0
  9 12  1  0
 12 13  2  0
 13 14  1  0
 14 15  2  0
 15 16  1  0
 16 17  2  0
 17 18  1  0
 18 19  3  0
 15 20  1  0
 20 21  2  0
 21 22  1  0
 22 23  2  0
 22 24  1  0
 24 25  1  0
 11  6  1  0
 17 12  1  0
 25 20  1  0
  1 26  1  0
  1 27  1  0
  1 28  1  0
  3 29  1  0
  3 30  1  0
  3 31  1  0
  7 32  1  0
  8 33  1  0
 10 34  1  0
 11 35  1  0
 13 36  1  0
 14 37  1  0
 16 38  1  0
 24 39  1  0
M  END
$$$$
[H]Oc1c([H])c([H])c(C([H])([H])N(c2c([H])c([H])c([H])c(Br)c2[H])[C@]([H])(C([H])([H])[H])C([H])([H])[C@]2(O[H])C(=O)[C@@]2([H])n2c([H])nc([H])c2[H])c([H])c1[H]
     RDKit          3D

 51 54  0  0  0  0  0  0  0  0999 V2000
    2.3177   -1.5544    0.7737 O   0  0  0  0  0  0  0  0  0  0  0  0
    2.4267   -0.2023    0.4809 C   0  0  2  0  0  0  0  0  0  0  0  0
    1.2868    0.4749   -0.2054 C   0  0  0  0  0  0  0  0  0  0  0  0
    0.0075    0.4148    0.5996 C   0  0  1  0  0  0  0  0  0  0  0  0
    0.0661    1.0445    1.9356 C   0  0  0  0  0  0  0  0  0  0  0  0
   -1.1196    0.7254   -0.2284 N   0  0  0  0  0  0  0  0  0  0  0  0
   -1.5965   -0.3201   -1.1094 C   0  0  0  0  0  0  0  0  0  0  0  0
   -2.3287   -1.4044   -0.4603 C   0  0  0  0  0  0  0  0  0  0  0  0
   -2.7235   -2.4542   -1.2975 C   0  0  0  0  0  0  0  0  0  0  0  0
   -3.4336   -3.5396   -0.8440 C   0  0  0  0  0  0  0  0  0  0  0  0
   -3.7879   -3.6345    0.4786 C   0  0  0  0  0  0  0  0  0  0  0  0
   -4.5012   -4.7343    0.9148 O   0  0  0  0  0  0  0  0  0  0  0  0
   -3.4027   -2.6056    1.3114 C   0  0  0  0  0  0  0  0  0  0  0  0
   -2.6846   -1.5110    0.8418 C   0  0  0  0  0  0  0  0  0  0  0  0
   -1.7818    1.9825   -0.3055 C   0  0  0  0  0  0  0  0  0  0  0  0
   -3.0456    2.0839   -0.8813 C   0  0  0  0  0  0  0  0  0  0  0  0
   -3.6919    3.3097   -1.0048 C   0  0  0  0  0  0  0  0  0  0  0  0
   -3.0971    4.4706   -0.5574 C   0  0  0  0  0  0  0  0  0  0  0  0
   -1.8493    4.3932    0.0143 C   0  0  0  0  0  0  0  0  0  0  0  0
   -1.0119    5.9861    0.6359 Br  0  0  0  0  0  0  0  0  0  0  0  0
   -1.2150    3.1564    0.1300 C   0  0  0  0  0  0  0  0  0  0  0  0
    3.7826    0.2306   -0.0157 C   0  0  2  0  0  0  0  0  0  0  0  0
    4.9210   -0.6281    0.0381 N   0  0  0  0  0  0  0  0  0  0  0  0
    6.1899   -0.1720    0.2548 C   0  0  0  0  0  0  0  0  0  0  0  0
    7.0727   -1.2048    0.2570 C   0  0  0  0  0  0  0  0  0  0  0  0
    6.3390   -2.3218    0.0385 N   0  0  0  0  0  0  0  0  0  0  0  0
    5.0353   -1.9573   -0.0933 C   0  0  0  0  0  0  0  0  0  0  0  0
    3.3022    0.6180    1.3844 C   0  0  0  0  0  0  0  0  0  0  0  0
    3.6556    1.2219    2.3674 O   0  0  0  0  0  0  0  0  0  0  0  0
    1.5760   -1.8950    0.1832 H   0  0  0  0  0  0  0  0  0  0  0  0
    1.5911    1.5171   -0.4283 H   0  0  0  0  0  0  0  0  0  0  0  0
    1.1112   -0.0092   -1.1680 H   0  0  0  0  0  0  0  0  0  0  0  0
   -0.1060   -0.7099    0.8137 H   0  0  0  0  0  0  0  0  0  0  0  0
    0.8514    1.7882    2.1082 H   0  0  0  0  0  0  0  0  0  0  0  0
   -0.9573    1.4558    2.1741 H   0  0  0  0  0  0  0  0  0  0  0  0
    0.2180    0.2754    2.7475 H   0  0  0  0  0  0  0  0  0  0  0  0
   -2.1861    0.1087   -1.9248 H   0  0  0  0  0  0  0  0  0  0  0  0
   -0.6950   -0.7841   -1.6395 H   0  0  0  0  0  0  0  0  0  0  0  0
   -2.4832   -2.4512   -2.3512 H   0  0  0  0  0  0  0  0  0  0  0  0
   -3.7374   -4.3487   -1.5160 H   0  0  0  0  0  0  0  0  0  0  0  0
   -4.7881   -4.8494    1.8901 H   0  0  0  0  0  0  0  0  0  0  0  0
   -3.6924   -2.6940    2.3629 H   0  0  0  0  0  0  0  0  0  0  0  0
   -2.4102   -0.7320    1.5123 H   0  0  0  0  0  0  0  0  0  0  0  0
   -3.6085    1.2456   -1.2561 H   0  0  0  0  0  0  0  0  0  0  0  0
   -4.6738    3.4132   -1.4493 H   0  0  0  0  0  0  0  0  0  0  0  0
   -3.5797    5.4400   -0.6423 H   0  0  0  0  0  0  0  0  0  0  0  0
   -0.2435    3.1932    0.5698 H   0  0  0  0  0  0  0  0  0  0  0  0
    3.8475    1.1231   -0.6852 H   0  0  0  0  0  0  0  0  0  0  0  0
    6.4572    0.8541    0.4028 H   0  0  0  0  0  0  0  0  0  0  0  0
    8.1437   -1.1571    0.4009 H   0  0  0  0  0  0  0  0  0  0  0  0
    4.2330   -2.6522   -0.2737 H   0  0  0  0  0  0  0  0  0  0  0  0
  2  1  1  1
  2  3  1  0
  3  4  1  0
  4  5  1  0
  4  6  1  0
  6  7  1  0
  7  8  1  0
  8  9  2  0
  9 10  1  0
 10 11  2  0
 11 12  1  0
 11 13  1  0
 13 14  2  0
  6 15  1  0
 15 16  2  0
 16 17  1  0
 17 18  2  0
 18 19  1  0
 19 20  1  0
 19 21  2  0
  2 22  1  0
 22 23  1  0
 23 24  1  0
 24 25  2  0
 25 26  1  0
 26 27  2  0
 22 28  1  0
 28 29  2  0
 28  2  1  0
 14  8  1  0
 21 15  1  0
 27 23  1  0
  1 30  1  0
  3 31  1  0
  3 32  1  0
  4 33  1  1
  5 34  1  0
  5 35  1  0
  5 36  1  0
  7 37  1  0
  7 38  1  0
  9 39  1  0
 10 40  1  0
 12 41  1  0
 13 42  1  0
 14 43  1  0
 16 44  1  0
 17 45  1  0
 18 46  1  0
 21 47  1  0
 22 48  1  6
 24 49  1  0
 25 50  1  0
 27 51  1  0
M  END
$$$$
[H]OC(=O)c1c([H])c([H])c2c(c1[H])C([H])([H])C([H])([H])N(c1c([H])c([H])c(C([H])([H])[H])c(C(F)(F)F)c1[H])[C@@]2([H])C([H])(C([H])([H])[H])C([H])([H])[H]
     RDKit          3D

 49 51  0  0  0  0  0  0  0  0999 V2000
    0.0703   -2.3709   -2.0639 C   0  0  0  0  0  0  0  0  0  0  0  0
    0.8844   -1.1060   -1.7273 C   0  0  0  0  0  0  0  0  0  0  0  0
    2.2043   -1.3240   -2.4507 C   0  0  0  0  0  0  0  0  0  0  0  0
    1.0090   -1.0378   -0.2765 C   0  0  2  0  0  0  0  0  0  0  0  0
   -0.1548   -0.9720    0.5321 N   0  0  0  0  0  0  0  0  0  0  0  0
    0.0418   -1.3424    1.9525 C   0  0  0  0  0  0  0  0  0  0  0  0
    1.5002   -1.3420    2.3425 C   0  0  0  0  0  0  0  0  0  0  0  0
    2.1461   -0.1889    1.6476 C   0  0  0  0  0  0  0  0  0  0  0  0
    2.9658    0.6975    2.3271 C   0  0  0  0  0  0  0  0  0  0  0  0
    3.5477    1.7446    1.6372 C   0  0  0  0  0  0  0  0  0  0  0  0
    3.3007    1.8907    0.2736 C   0  0  0  0  0  0  0  0  0  0  0  0
    2.4849    1.0105   -0.4071 C   0  0  0  0  0  0  0  0  0  0  0  0
    1.9249   -0.0116    0.2973 C   0  0  0  0  0  0  0  0  0  0  0  0
    4.4072    2.6749    2.3468 C   0  0  0  0  0  0  0  0  0  0  0  0
    4.9877    3.7193    1.6587 O   0  0  0  0  0  0  0  0  0  0  0  0
    4.6215    2.5349    3.5677 O   0  0  0  0  0  0  0  0  0  0  0  0
   -1.4686   -0.5734    0.2034 C   0  0  0  0  0  0  0  0  0  0  0  0
   -2.5547   -1.3046    0.7078 C   0  0  0  0  0  0  0  0  0  0  0  0
   -3.8436   -0.9784    0.4640 C   0  0  0  0  0  0  0  0  0  0  0  0
   -4.1534    0.1135   -0.3097 C   0  0  0  0  0  0  0  0  0  0  0  0
   -5.5750    0.4379   -0.5522 C   0  0  0  0  0  0  0  0  0  0  0  0
   -3.1242    0.8583   -0.8238 C   0  0  0  0  0  0  0  0  0  0  0  0
   -1.7879    0.5186   -0.5695 C   0  0  0  0  0  0  0  0  0  0  0  0
   -3.4610    2.0380   -1.6615 C   0  0  0  0  0  0  0  0  0  0  0  0
   -4.2245    2.9716   -0.9590 F   0  0  0  0  0  0  0  0  0  0  0  0
   -4.0707    1.6961   -2.8504 F   0  0  0  0  0  0  0  0  0  0  0  0
   -2.2780    2.7120   -1.9621 F   0  0  0  0  0  0  0  0  0  0  0  0
    0.4828   -3.2594   -1.5931 H   0  0  0  0  0  0  0  0  0  0  0  0
   -0.9897   -2.2349   -1.8631 H   0  0  0  0  0  0  0  0  0  0  0  0
    0.2127   -2.4999   -3.1769 H   0  0  0  0  0  0  0  0  0  0  0  0
    0.3414   -0.2664   -2.1707 H   0  0  0  0  0  0  0  0  0  0  0  0
    2.3109   -2.3423   -2.8749 H   0  0  0  0  0  0  0  0  0  0  0  0
    3.0773   -1.2292   -1.7395 H   0  0  0  0  0  0  0  0  0  0  0  0
    2.3143   -0.6277   -3.3170 H   0  0  0  0  0  0  0  0  0  0  0  0
    1.5162   -2.0258    0.0349 H   0  0  0  0  0  0  0  0  0  0  0  0
   -0.4786   -2.2672    2.1942 H   0  0  0  0  0  0  0  0  0  0  0  0
   -0.4463   -0.5321    2.5580 H   0  0  0  0  0  0  0  0  0  0  0  0
    1.5430   -1.2143    3.4423 H   0  0  0  0  0  0  0  0  0  0  0  0
    1.9637   -2.3038    2.0236 H   0  0  0  0  0  0  0  0  0  0  0  0
    3.1315    0.5466    3.3908 H   0  0  0  0  0  0  0  0  0  0  0  0
    3.7579    2.7092   -0.2571 H   0  0  0  0  0  0  0  0  0  0  0  0
    2.2920    1.1376   -1.4890 H   0  0  0  0  0  0  0  0  0  0  0  0
    5.5746    4.4238    2.0498 H   0  0  0  0  0  0  0  0  0  0  0  0
   -2.3570   -2.1841    1.3304 H   0  0  0  0  0  0  0  0  0  0  0  0
   -4.6571   -1.5667    0.8704 H   0  0  0  0  0  0  0  0  0  0  0  0
   -5.8656    1.3722   -0.0194 H   0  0  0  0  0  0  0  0  0  0  0  0
   -6.2470   -0.3472   -0.1341 H   0  0  0  0  0  0  0  0  0  0  0  0
   -5.8505    0.5027   -1.6231 H   0  0  0  0  0  0  0  0  0  0  0  0
   -1.0269    1.1426   -0.9812 H   0  0  0  0  0  0  0  0  0  0  0  0
  1  2  1  0
  2  3  1  0
  2  4  1  0
  4  5  1  0
  5  6  1  0
  6  7  1  0
  7  8  1  0
  8  9  2  0
  9 10  1  0
 10 11  2  0
 11 12  1  0
 12 13  2  0
 10 14  1  0
 14 15  1  0
 14 16  2  0
  5 17  1  0
 17 18  2  0
 18 19  1  0
 19 20  2  0
 20 21  1  0
 20 22  1  0
 22 23  2  0
 22 24  1  0
 24 25  1  0
 24 26  1  0
 24 27  1  0
 13  4  1  0
 23 17  1  0
 13  8  1  0
  1 28  1  0
  1 29  1  0
  1 30  1  0
  2 31  1  0
  3 32  1  0
  3 33  1  0
  3 34  1  0
  4 35  1  1
  6 36  1  0
  6 37  1  0
  7 38  1  0
  7 39  1  0
  9 40  1  0
 11 41  1  0
 12 42  1  0
 15 43  1  0
 18 44  1  0
 19 45  1  0
 21 46  1  0
 21 47  1  0
 21 48  1  0
 23 49  1  0
M  END
$$$$
[H]Oc1c([H])c([H])c2c([H])c([H])c([H])c(-c3c([H])c([H])nc([H])c3[H])c2c1[H]
     RDKit          3D

 28 30  0  0  0  0  0  0  0  0999 V2000
   -2.0962    3.2850   -0.2440 O   0  0  0  0  0  0  0  0  0  0  0  0
   -2.1104    1.8866   -0.1379 C   0  0  0  0  0  0  0  0  0  0  0  0
   -3.2546    1.1564   -0.0901 C   0  0  0  0  0  0  0  0  0  0  0  0
   -3.2731   -0.2159    0.0142 C   0  0  0  0  0  0  0  0  0  0  0  0
   -2.0481   -0.8754    0.0723 C   0  0  0  0  0  0  0  0  0  0  0  0
   -1.9768   -2.2393    0.1883 C   0  0  0  0  0  0  0  0  0  0  0  0
   -0.7771   -2.9094    0.2580 C   0  0  0  0  0  0  0  0  0  0  0  0
    0.3836   -2.1764    0.2081 C   0  0  0  0  0  0  0  0  0  0  0  0
    0.3714   -0.7806    0.0894 C   0  0  0  0  0  0  0  0  0  0  0  0
    1.6509   -0.0866    0.0022 C   0  0  0  0  0  0  0  0  0  0  0  0
    2.5248   -0.3082    1.0573 C   0  0  0  0  0  0  0  0  0  0  0  0
    3.7701    0.2648    1.0567 C   0  0  0  0  0  0  0  0  0  0  0  0
    4.1439    1.0413    0.0336 N   0  0  0  0  0  0  0  0  0  0  0  0
    3.2981    1.2705   -1.0123 C   0  0  0  0  0  0  0  0  0  0  0  0
    2.0583    0.7079   -1.0252 C   0  0  0  0  0  0  0  0  0  0  0  0
   -0.8420   -0.1578    0.0250 C   0  0  0  0  0  0  0  0  0  0  0  0
   -0.8968    1.2194   -0.0793 C   0  0  0  0  0  0  0  0  0  0  0  0
   -2.0857    3.6758   -1.1779 H   0  0  0  0  0  0  0  0  0  0  0  0
   -4.2055    1.6689   -0.1354 H   0  0  0  0  0  0  0  0  0  0  0  0
   -4.1529   -0.8279    0.0551 H   0  0  0  0  0  0  0  0  0  0  0  0
   -2.9311   -2.7696    0.2226 H   0  0  0  0  0  0  0  0  0  0  0  0
   -0.7429   -3.9895    0.3502 H   0  0  0  0  0  0  0  0  0  0  0  0
    1.3632   -2.6472    0.2585 H   0  0  0  0  0  0  0  0  0  0  0  0
    2.2515   -0.9383    1.9108 H   0  0  0  0  0  0  0  0  0  0  0  0
    4.4948    0.1186    1.8681 H   0  0  0  0  0  0  0  0  0  0  0  0
    3.6726    1.9147   -1.8111 H   0  0  0  0  0  0  0  0  0  0  0  0
    1.4077    0.8977   -1.8527 H   0  0  0  0  0  0  0  0  0  0  0  0
    0.0023    1.8144   -0.1044 H   0  0  0  0  0  0  0  0  0  0  0  0
  1  2  1  0
  2  3  2  0
  3  4  1  0
  4  5  2  0
  5  6  1  0
  6  7  2  0
  7  8  1  0
  8  9  2  0
  9 10  1  0
 10 11  2  0
 11 12  1  0
 12 13  2  0
 13 14  1  0
 14 15  2  0
  9 16  1  0
 16 17  2  0
 17  2  1  0
 16  5  1  0
 15 10  1  0
  1 18  1  0
  3 19  1  0
  4 20  1  0
  6 21  1  0
  7 22  1  0
  8 23  1  0
 11 24  1  0
 12 25  1  0
 14 26  1  0
 15 27  1  0
 17 28  1  0
M  END
$$$$
[H]OC(=O)c1nc(C(=O)c2c([H])c(C(F)(F)F)c3c(c2[H])C(F)(F)C3([H])[H])c([H])nc1C([H])([H])[H]
     RDKit          3D

 35 37  0  0  0  0  0  0  0  0999 V2000
    2.2489   -2.1159   -1.9167 F   0  0  0  0  0  0  0  0  0  0  0  0
    3.2868   -1.6525   -1.1411 C   0  0  0  0  0  0  0  0  0  0  0  0
    2.7908   -0.5154   -0.3294 C   0  0  0  0  0  0  0  0  0  0  0  0
    3.6162    0.1540    0.5489 C   0  0  0  0  0  0  0  0  0  0  0  0
    3.1220    1.1914    1.2733 C   0  0  0  0  0  0  0  0  0  0  0  0
    1.8078    1.5739    1.1334 C   0  0  0  0  0  0  0  0  0  0  0  0
    0.9243    0.9276    0.2543 C   0  0  0  0  0  0  0  0  0  0  0  0
   -0.4492    1.3738    0.1744 C   0  0  0  0  0  0  0  0  0  0  0  0
   -0.7271    2.5612    0.6173 O   0  0  0  0  0  0  0  0  0  0  0  0
   -1.5841    0.6372   -0.3506 C   0  0  0  0  0  0  0  0  0  0  0  0
   -2.6887    0.4666    0.4262 N   0  0  0  0  0  0  0  0  0  0  0  0
   -3.7991   -0.1738    0.0220 C   0  0  0  0  0  0  0  0  0  0  0  0
   -4.9422   -0.3109    0.9199 C   0  0  0  0  0  0  0  0  0  0  0  0
   -4.8849    0.2235    2.1976 O   0  0  0  0  0  0  0  0  0  0  0  0
   -6.0049   -0.8933    0.6124 O   0  0  0  0  0  0  0  0  0  0  0  0
   -3.8583   -0.7040   -1.2527 C   0  0  0  0  0  0  0  0  0  0  0  0
   -5.0712   -1.4225   -1.7399 C   0  0  0  0  0  0  0  0  0  0  0  0
   -2.7739   -0.5418   -2.0305 N   0  0  0  0  0  0  0  0  0  0  0  0
   -1.6529    0.1073   -1.6177 C   0  0  0  0  0  0  0  0  0  0  0  0
    1.4656   -0.1083   -0.4509 C   0  0  0  0  0  0  0  0  0  0  0  0
    4.4600    1.3841    1.9225 C   0  0  0  0  0  0  0  0  0  0  0  0
    4.3342    1.1673    3.2771 F   0  0  0  0  0  0  0  0  0  0  0  0
    5.0702    2.5745    1.5836 F   0  0  0  0  0  0  0  0  0  0  0  0
    4.9889    0.2362    1.1147 C   0  0  0  0  0  0  0  0  0  0  0  0
    4.3741   -1.2875   -1.9184 F   0  0  0  0  0  0  0  0  0  0  0  0
    3.6359   -2.6965   -0.2776 F   0  0  0  0  0  0  0  0  0  0  0  0
    1.3980    2.3964    1.7020 H   0  0  0  0  0  0  0  0  0  0  0  0
   -4.1212    0.8439    2.5000 H   0  0  0  0  0  0  0  0  0  0  0  0
   -5.9394   -0.7400   -1.8391 H   0  0  0  0  0  0  0  0  0  0  0  0
   -5.2765   -2.3613   -1.2178 H   0  0  0  0  0  0  0  0  0  0  0  0
   -4.8490   -1.7278   -2.8068 H   0  0  0  0  0  0  0  0  0  0  0  0
   -0.8599    0.1997   -2.3201 H   0  0  0  0  0  0  0  0  0  0  0  0
    0.8642   -0.6630   -1.1306 H   0  0  0  0  0  0  0  0  0  0  0  0
    5.3172   -0.6395    1.6838 H   0  0  0  0  0  0  0  0  0  0  0  0
    5.7774    0.5354    0.3767 H   0  0  0  0  0  0  0  0  0  0  0  0
  1  2  1  0
  2  3  1  0
  3  4  2  0
  4  5  1  0
  5  6  2  0
  6  7  1  0
  7  8  1  0
  8  9  2  0
  8 10  1  0
 10 11  2  0
 11 12  1  0
 12 13  1  0
 13 14  1  0
 13 15  2  0
 12 16  2  0
 16 17  1  0
 16 18  1  0
 18 19  2  0
  7 20  2  0
  5 21  1  0
 21 22  1  0
 21 23  1  0
 21 24  1  0
  2 25  1  0
  2 26  1  0
 20  3  1  0
 24  4  1  0
 19 10  1  0
  6 27  1  0
 14 28  1  0
 17 29  1  0
 17 30  1  0
 17 31  1  0
 19 32  1  0
 20 33  1  0
 24 34  1  0
 24 35  1  0
M  END
$$$$
[H]c1c([H])c([H])c(-c2c([H])c(-c3nn([H])c4c([H])c([H])c(C(=O)N([H])C([H])([H])c5c([H])c([H])c(OC([H])([H])[H])c([H])c5[H])c([H])c34)c([H])c(N([H])S(=O)(=O)C([H])([H])[H])c2[H])c([H])c1[H]
     RDKit          3D

 64 68  0  0  0  0  0  0  0  0999 V2000
   10.2983    1.5569   -1.1913 C   0  0  0  0  0  0  0  0  0  0  0  0
    9.3444    0.8222   -0.4552 O   0  0  0  0  0  0  0  0  0  0  0  0
    7.9673    1.0274   -0.5346 C   0  0  0  0  0  0  0  0  0  0  0  0
    7.4501    1.9983   -1.3701 C   0  0  0  0  0  0  0  0  0  0  0  0
    6.0745    2.2210   -1.4656 C   0  0  0  0  0  0  0  0  0  0  0  0
    5.1844    1.4706   -0.7211 C   0  0  0  0  0  0  0  0  0  0  0  0
    3.7214    1.7239   -0.8552 C   0  0  0  0  0  0  0  0  0  0  0  0
    2.9315    0.7951   -0.1073 N   0  0  0  0  0  0  0  0  0  0  0  0
    2.7322   -0.5630   -0.5236 C   0  0  0  0  0  0  0  0  0  0  0  0
    3.2830   -0.9305   -1.5827 O   0  0  0  0  0  0  0  0  0  0  0  0
    1.9246   -1.4905    0.2486 C   0  0  0  0  0  0  0  0  0  0  0  0
    2.4604   -2.6394    0.8024 C   0  0  0  0  0  0  0  0  0  0  0  0
    1.7123   -3.5352    1.5250 C   0  0  0  0  0  0  0  0  0  0  0  0
    0.3663   -3.3123    1.7287 C   0  0  0  0  0  0  0  0  0  0  0  0
   -0.6272   -3.9411    2.3494 N   0  0  0  0  0  0  0  0  0  0  0  0
   -1.7547   -3.2623    2.2228 N   0  0  0  0  0  0  0  0  0  0  0  0
   -1.5329   -2.1413    1.4983 C   0  0  0  0  0  0  0  0  0  0  0  0
   -2.4916   -1.1146    1.1088 C   0  0  0  0  0  0  0  0  0  0  0  0
   -3.7122   -1.5835    0.6023 C   0  0  0  0  0  0  0  0  0  0  0  0
   -4.7040   -0.7133    0.2036 C   0  0  0  0  0  0  0  0  0  0  0  0
   -4.4439    0.6394    0.3239 C   0  0  0  0  0  0  0  0  0  0  0  0
   -3.2632    1.1476    0.8146 C   0  0  0  0  0  0  0  0  0  0  0  0
   -3.0030    2.5413    0.9485 N   0  0  0  0  0  0  0  0  0  0  0  0
   -3.2802    3.6692   -0.3102 S   0  0  0  0  0  0  0  0  0  0  0  0
   -4.9435    3.8055   -0.8351 C   0  0  0  0  0  0  0  0  0  0  0  0
   -2.7006    5.0305    0.0501 O   0  0  0  0  0  0  0  0  0  0  0  0
   -2.4731    3.2373   -1.5344 O   0  0  0  0  0  0  0  0  0  0  0  0
   -2.2833    0.2206    1.2084 C   0  0  0  0  0  0  0  0  0  0  0  0
   -5.9596   -1.2209   -0.3077 C   0  0  0  0  0  0  0  0  0  0  0  0
   -6.7490   -0.6181   -1.2425 C   0  0  0  0  0  0  0  0  0  0  0  0
   -7.9358   -1.2051   -1.6571 C   0  0  0  0  0  0  0  0  0  0  0  0
   -8.3735   -2.4186   -1.1483 C   0  0  0  0  0  0  0  0  0  0  0  0
   -7.5851   -3.0374   -0.2030 C   0  0  0  0  0  0  0  0  0  0  0  0
   -6.4097   -2.4441    0.1994 C   0  0  0  0  0  0  0  0  0  0  0  0
   -0.1965   -2.1559    1.1772 C   0  0  0  0  0  0  0  0  0  0  0  0
    0.5730   -1.2679    0.4536 C   0  0  0  0  0  0  0  0  0  0  0  0
    5.7295    0.5140    0.1003 C   0  0  0  0  0  0  0  0  0  0  0  0
    7.0893    0.2788    0.2079 C   0  0  0  0  0  0  0  0  0  0  0  0
   11.2583    1.0052   -1.2714 H   0  0  0  0  0  0  0  0  0  0  0  0
   10.4264    2.5831   -0.7841 H   0  0  0  0  0  0  0  0  0  0  0  0
    9.9265    1.6580   -2.2423 H   0  0  0  0  0  0  0  0  0  0  0  0
    8.1405    2.5945   -1.9590 H   0  0  0  0  0  0  0  0  0  0  0  0
    5.7014    2.9807   -2.1206 H   0  0  0  0  0  0  0  0  0  0  0  0
    3.4156    1.6698   -1.9297 H   0  0  0  0  0  0  0  0  0  0  0  0
    3.4559    2.7585   -0.5153 H   0  0  0  0  0  0  0  0  0  0  0  0
    2.4768    1.1061    0.7817 H   0  0  0  0  0  0  0  0  0  0  0  0
    3.5097   -2.8268    0.6533 H   0  0  0  0  0  0  0  0  0  0  0  0
    2.1182   -4.4356    1.9623 H   0  0  0  0  0  0  0  0  0  0  0  0
   -0.5037   -4.8488    2.8604 H   0  0  0  0  0  0  0  0  0  0  0  0
   -3.8722   -2.6360    0.5250 H   0  0  0  0  0  0  0  0  0  0  0  0
   -5.2280    1.3381    0.0163 H   0  0  0  0  0  0  0  0  0  0  0  0
   -2.6226    2.8980    1.8633 H   0  0  0  0  0  0  0  0  0  0  0  0
   -5.1058    4.8176   -1.3033 H   0  0  0  0  0  0  0  0  0  0  0  0
   -5.2039    3.0607   -1.6399 H   0  0  0  0  0  0  0  0  0  0  0  0
   -5.6344    3.6935   -0.0030 H   0  0  0  0  0  0  0  0  0  0  0  0
   -1.3641    0.5873    1.5953 H   0  0  0  0  0  0  0  0  0  0  0  0
   -6.4118    0.3345   -1.6473 H   0  0  0  0  0  0  0  0  0  0  0  0
   -8.5318   -0.6856   -2.4067 H   0  0  0  0  0  0  0  0  0  0  0  0
   -9.3090   -2.8507   -1.4979 H   0  0  0  0  0  0  0  0  0  0  0  0
   -7.9159   -3.9884    0.2041 H   0  0  0  0  0  0  0  0  0  0  0  0
   -5.8212   -2.9729    0.9519 H   0  0  0  0  0  0  0  0  0  0  0  0
    0.1371   -0.3770    0.0256 H   0  0  0  0  0  0  0  0  0  0  0  0
    5.0434   -0.0863    0.7012 H   0  0  0  0  0  0  0  0  0  0  0  0
    7.4945   -0.4824    0.8642 H   0  0  0  0  0  0  0  0  0  0  0  0
  1  2  1  0
  2  3  1  0
  3  4  2  0
  4  5  1  0
  5  6  2  0
  6  7  1  0
  7  8  1  0
  8  9  1  0
  9 10  2  0
  9 11  1  0
 11 12  2  0
 12 13  1  0
 13 14  2  0
 14 15  1  0
 15 16  1  0
 16 17  2  0
 17 18  1  0
 18 19  2  0
 19 20  1  0
 20 21  2  0
 21 22  1  0
 22 23  1  0
 23 24  1  0
 24 25  1  0
 24 26  2  0
 24 27  2  0
 22 28  2  0
 20 29  1  0
 29 30  2  0
 30 31  1  0
 31 32  2  0
 32 33  1  0
 33 34  2  0
 17 35  1  0
 35 36  2  0
  6 37  1  0
 37 38  2  0
 38  3  1  0
 36 11  1  0
 35 14  1  0
 28 18  1  0
 34 29  1  0
  1 39  1  0
  1 40  1  0
  1 41  1  0
  4 42  1  0
  5 43  1  0
  7 44  1  0
  7 45  1  0
  8 46  1  0
 12 47  1  0
 13 48  1  0
 15 49  1  0
 19 50  1  0
 21 51  1  0
 23 52  1  0
 25 53  1  0
 25 54  1  0
 25 55  1  0
 28 56  1  0
 30 57  1  0
 31 58  1  0
 32 59  1  0
 33 60  1  0
 34 61  1  0
 36 62  1  0
 37 63  1  0
 38 64  1  0
M  END
$$$$
[H]OC([H])([H])C([H])(N([H])c1nc2n(c(=O)c1-c1nn(C([H])([H])[H])c([H])c1[H])C([H])([H])C([H])([H])OC2([H])C([H])([H])C([H])([H])OC([H])([H])[H])C([H])([H])[H]
     RDKit          3D

 51 53  0  0  0  0  0  0  0  0999 V2000
   -2.1484   -2.3609    0.5837 C   0  0  0  0  0  0  0  0  0  0  0  0
   -1.8345   -3.0744   -0.6942 C   0  0  0  0  0  0  0  0  0  0  0  0
   -2.7730   -2.7255   -1.6667 O   0  0  0  0  0  0  0  0  0  0  0  0
   -2.1436   -0.9373    0.5121 N   0  0  0  0  0  0  0  0  0  0  0  0
   -0.9962   -0.1767    0.1754 C   0  0  0  0  0  0  0  0  0  0  0  0
    0.1461   -0.8339   -0.0814 N   0  0  0  0  0  0  0  0  0  0  0  0
    1.2927   -0.2066   -0.4067 C   0  0  0  0  0  0  0  0  0  0  0  0
    1.2863    1.1290   -0.4753 N   0  0  0  0  0  0  0  0  0  0  0  0
    2.5146    1.7979   -0.8288 C   0  0  0  0  0  0  0  0  0  0  0  0
    3.1521    0.9609   -1.9170 C   0  0  0  0  0  0  0  0  0  0  0  0
    3.4070   -0.3224   -1.5434 O   0  0  0  0  0  0  0  0  0  0  0  0
    2.5518   -0.9324   -0.6848 C   0  0  0  0  0  0  0  0  0  0  0  0
    3.1616   -1.2478    0.6739 C   0  0  0  0  0  0  0  0  0  0  0  0
    4.4523   -1.9846    0.6051 C   0  0  0  0  0  0  0  0  0  0  0  0
    5.4902   -1.3538   -0.0202 O   0  0  0  0  0  0  0  0  0  0  0  0
    5.8927   -0.1896    0.5859 C   0  0  0  0  0  0  0  0  0  0  0  0
    0.1740    1.8231   -0.2280 C   0  0  0  0  0  0  0  0  0  0  0  0
    0.1943    3.0727   -0.2987 O   0  0  0  0  0  0  0  0  0  0  0  0
   -1.0217    1.2063    0.1094 C   0  0  0  0  0  0  0  0  0  0  0  0
   -2.2370    1.9338    0.3813 C   0  0  0  0  0  0  0  0  0  0  0  0
   -2.6829    2.4137    1.5786 C   0  0  0  0  0  0  0  0  0  0  0  0
   -3.8888    3.0323    1.3162 C   0  0  0  0  0  0  0  0  0  0  0  0
   -4.1591    2.9275    0.0030 N   0  0  0  0  0  0  0  0  0  0  0  0
   -5.3425    3.4495   -0.6923 C   0  0  0  0  0  0  0  0  0  0  0  0
   -3.1639    2.2714   -0.5307 N   0  0  0  0  0  0  0  0  0  0  0  0
   -3.5356   -2.8296    1.0213 C   0  0  0  0  0  0  0  0  0  0  0  0
   -1.4592   -2.7155    1.3821 H   0  0  0  0  0  0  0  0  0  0  0  0
   -0.7967   -3.0256   -1.0300 H   0  0  0  0  0  0  0  0  0  0  0  0
   -2.0181   -4.1714   -0.4850 H   0  0  0  0  0  0  0  0  0  0  0  0
   -2.3791   -2.8388   -2.5801 H   0  0  0  0  0  0  0  0  0  0  0  0
   -3.0301   -0.3842    0.7159 H   0  0  0  0  0  0  0  0  0  0  0  0
    3.2137    1.9315   -0.0051 H   0  0  0  0  0  0  0  0  0  0  0  0
    2.3035    2.7931   -1.2620 H   0  0  0  0  0  0  0  0  0  0  0  0
    2.5800    0.9720   -2.8559 H   0  0  0  0  0  0  0  0  0  0  0  0
    4.1388    1.4568   -2.1449 H   0  0  0  0  0  0  0  0  0  0  0  0
    2.2180   -1.9495   -1.0854 H   0  0  0  0  0  0  0  0  0  0  0  0
    3.1876   -0.3580    1.3304 H   0  0  0  0  0  0  0  0  0  0  0  0
    2.4222   -1.9455    1.1650 H   0  0  0  0  0  0  0  0  0  0  0  0
    4.2924   -3.0103    0.2057 H   0  0  0  0  0  0  0  0  0  0  0  0
    4.7780   -2.1545    1.6729 H   0  0  0  0  0  0  0  0  0  0  0  0
    5.0542    0.5274    0.6244 H   0  0  0  0  0  0  0  0  0  0  0  0
    6.2534   -0.3658    1.6226 H   0  0  0  0  0  0  0  0  0  0  0  0
    6.6883    0.3179   -0.0166 H   0  0  0  0  0  0  0  0  0  0  0  0
   -2.2160    2.3430    2.5500 H   0  0  0  0  0  0  0  0  0  0  0  0
   -4.5310    3.5296    2.0416 H   0  0  0  0  0  0  0  0  0  0  0  0
   -5.4606    4.5093   -0.3288 H   0  0  0  0  0  0  0  0  0  0  0  0
   -5.1306    3.5435   -1.7773 H   0  0  0  0  0  0  0  0  0  0  0  0
   -6.2496    2.8972   -0.4506 H   0  0  0  0  0  0  0  0  0  0  0  0
   -3.4911   -3.7798    1.5687 H   0  0  0  0  0  0  0  0  0  0  0  0
   -4.0229   -2.0201    1.5891 H   0  0  0  0  0  0  0  0  0  0  0  0
   -4.1332   -2.9450    0.0758 H   0  0  0  0  0  0  0  0  0  0  0  0
  1  2  1  0
  2  3  1  0
  1  4  1  0
  4  5  1  0
  5  6  1  0
  6  7  2  0
  7  8  1  0
  8  9  1  0
  9 10  1  0
 10 11  1  0
 11 12  1  0
 12 13  1  0
 13 14  1  0
 14 15  1  0
 15 16  1  0
  8 17  1  0
 17 18  2  0
 17 19  1  0
 19 20  1  0
 20 21  1  0
 21 22  2  0
 22 23  1  0
 23 24  1  0
 23 25  1  0
  1 26  1  0
 19  5  2  0
 25 20  2  0
 12  7  1  0
  1 27  1  0
  2 28  1  0
  2 29  1  0
  3 30  1  0
  4 31  1  0
  9 32  1  0
  9 33  1  0
 10 34  1  0
 10 35  1  0
 12 36  1  0
 13 37  1  0
 13 38  1  0
 14 39  1  0
 14 40  1  0
 16 41  1  0
 16 42  1  0
 16 43  1  0
 21 44  1  0
 22 45  1  0
 24 46  1  0
 24 47  1  0
 24 48  1  0
 26 49  1  0
 26 50  1  0
 26 51  1  0
M  END
$$$$
[H]c1nc([H])c(C2([H])c3c(OC([H])([H])[H])c([H])c(-c4c([H])nc([H])c([N+](=O)[O-])c4[H])c([H])c3C(=O)N2c2c([H])c([H])c(N(c3c([H])nc(OC([H])([H])[H])c([H])c3[H])C([H])([H])[H])c([H])c2[H])c([H])c1[H]
     RDKit          3D

 69 74  0  0  0  0  0  0  0  0999 V2000
    3.9238   -3.6439   -2.4260 C   0  0  0  0  0  0  0  0  0  0  0  0
    2.9697   -2.7708   -1.8302 O   0  0  0  0  0  0  0  0  0  0  0  0
    3.3896   -1.5833   -1.2158 C   0  0  0  0  0  0  0  0  0  0  0  0
    2.5136   -0.6946   -0.6126 C   0  0  0  0  0  0  0  0  0  0  0  0
    2.9515    0.4677   -0.0196 C   0  0  0  0  0  0  0  0  0  0  0  0
    4.3186    0.7628   -0.0167 C   0  0  0  0  0  0  0  0  0  0  0  0
    5.2058   -0.1163   -0.6141 C   0  0  0  0  0  0  0  0  0  0  0  0
    6.6156    0.2400   -0.5813 C   0  0  0  0  0  0  0  0  0  0  0  0
    7.1399    0.9342    0.4788 C   0  0  0  0  0  0  0  0  0  0  0  0
    8.4532    1.2903    0.5038 C   0  0  0  0  0  0  0  0  0  0  0  0
    9.0193    2.0062    1.5923 N   0  0  0  0  0  0  0  0  0  0  0  0
   10.2168    2.3157    1.5544 O   0  0  0  0  0  0  0  0  0  0  0  0
    8.2412    2.3583    2.6883 O   0  0  0  0  0  0  0  0  0  0  0  0
    9.2819    0.9423   -0.5702 C   0  0  0  0  0  0  0  0  0  0  0  0
    8.7597    0.2659   -1.5963 N   0  0  0  0  0  0  0  0  0  0  0  0
    7.4803   -0.0842   -1.6259 C   0  0  0  0  0  0  0  0  0  0  0  0
    4.7395   -1.2704   -1.2030 C   0  0  0  0  0  0  0  0  0  0  0  0
    1.7992    1.2163    0.4495 C   0  0  0  0  0  0  0  0  0  0  0  0
    1.7806    2.3217    1.0471 O   0  0  0  0  0  0  0  0  0  0  0  0
    0.6295    0.4830    0.1185 N   0  0  0  0  0  0  0  0  0  0  0  0
   -0.7322    0.9007    0.2542 C   0  0  0  0  0  0  0  0  0  0  0  0
   -1.4308    1.1943   -0.9103 C   0  0  0  0  0  0  0  0  0  0  0  0
   -2.7181    1.6321   -0.9269 C   0  0  0  0  0  0  0  0  0  0  0  0
   -3.3881    1.7993    0.2816 C   0  0  0  0  0  0  0  0  0  0  0  0
   -4.6823    2.3034    0.2657 N   0  0  0  0  0  0  0  0  0  0  0  0
   -5.9106    1.6222    0.0671 C   0  0  0  0  0  0  0  0  0  0  0  0
   -6.6088    1.1669    1.1952 C   0  0  0  0  0  0  0  0  0  0  0  0
   -7.8163    0.5600    0.9818 C   0  0  0  0  0  0  0  0  0  0  0  0
   -8.3906    0.3668   -0.2626 C   0  0  0  0  0  0  0  0  0  0  0  0
   -9.5239   -0.1933   -0.5148 O   0  0  0  0  0  0  0  0  0  0  0  0
  -10.6467   -0.7412   -0.8529 C   0  0  0  0  0  0  0  0  0  0  0  0
   -7.6491    0.8368   -1.3371 N   0  0  0  0  0  0  0  0  0  0  0  0
   -6.4652    1.4332   -1.1504 C   0  0  0  0  0  0  0  0  0  0  0  0
   -4.8313    3.7605    0.4694 C   0  0  0  0  0  0  0  0  0  0  0  0
   -2.6855    1.5006    1.4471 C   0  0  0  0  0  0  0  0  0  0  0  0
   -1.3804    1.0576    1.4572 C   0  0  0  0  0  0  0  0  0  0  0  0
    1.0582   -0.7833   -0.4076 C   0  0  0  0  0  0  0  0  0  0  0  0
    0.7430   -1.8833    0.5872 C   0  0  0  0  0  0  0  0  0  0  0  0
    0.9584   -1.6648    1.9342 C   0  0  0  0  0  0  0  0  0  0  0  0
    0.6769   -2.6535    2.7986 N   0  0  0  0  0  0  0  0  0  0  0  0
    0.1918   -3.8509    2.3932 C   0  0  0  0  0  0  0  0  0  0  0  0
   -0.0362   -4.1022    1.0375 C   0  0  0  0  0  0  0  0  0  0  0  0
    0.2485   -3.0956    0.1431 C   0  0  0  0  0  0  0  0  0  0  0  0
    3.3829   -4.5434   -2.7733 H   0  0  0  0  0  0  0  0  0  0  0  0
    4.3635   -3.1479   -3.2938 H   0  0  0  0  0  0  0  0  0  0  0  0
    4.6584   -3.9475   -1.6524 H   0  0  0  0  0  0  0  0  0  0  0  0
    4.5989    1.6827    0.4622 H   0  0  0  0  0  0  0  0  0  0  0  0
    6.4917    1.2087    1.3293 H   0  0  0  0  0  0  0  0  0  0  0  0
   10.3356    1.2410   -0.5267 H   0  0  0  0  0  0  0  0  0  0  0  0
    7.1069   -0.6295   -2.4846 H   0  0  0  0  0  0  0  0  0  0  0  0
    5.4213   -1.9585   -1.6721 H   0  0  0  0  0  0  0  0  0  0  0  0
   -0.8971    1.0568   -1.8662 H   0  0  0  0  0  0  0  0  0  0  0  0
   -3.1686    1.8333   -1.8939 H   0  0  0  0  0  0  0  0  0  0  0  0
   -6.1703    1.3112    2.1717 H   0  0  0  0  0  0  0  0  0  0  0  0
   -8.3825    0.1922    1.8261 H   0  0  0  0  0  0  0  0  0  0  0  0
  -10.7179   -1.8212   -0.4901 H   0  0  0  0  0  0  0  0  0  0  0  0
  -10.9006   -0.8479   -1.9464 H   0  0  0  0  0  0  0  0  0  0  0  0
  -11.5418   -0.1799   -0.4492 H   0  0  0  0  0  0  0  0  0  0  0  0
   -5.8886    1.7999   -2.0299 H   0  0  0  0  0  0  0  0  0  0  0  0
   -3.9010    4.2732    0.1077 H   0  0  0  0  0  0  0  0  0  0  0  0
   -4.9151    3.9714    1.5518 H   0  0  0  0  0  0  0  0  0  0  0  0
   -5.6806    4.1715   -0.0954 H   0  0  0  0  0  0  0  0  0  0  0  0
   -3.2428    1.6416    2.3760 H   0  0  0  0  0  0  0  0  0  0  0  0
   -0.8716    0.8399    2.3637 H   0  0  0  0  0  0  0  0  0  0  0  0
    0.5420   -1.0552   -1.3531 H   0  0  0  0  0  0  0  0  0  0  0  0
    1.3433   -0.7114    2.2761 H   0  0  0  0  0  0  0  0  0  0  0  0
   -0.0177   -4.6126    3.1334 H   0  0  0  0  0  0  0  0  0  0  0  0
   -0.4264   -5.0731    0.7724 H   0  0  0  0  0  0  0  0  0  0  0  0
    0.0684   -3.3026   -0.9147 H   0  0  0  0  0  0  0  0  0  0  0  0
  1  2  1  0
  2  3  1  0
  3  4  2  0
  4  5  1  0
  5  6  2  0
  6  7  1  0
  7  8  1  0
  8  9  2  0
  9 10  1  0
 10 11  1  0
 11 12  2  0
 11 13  1  0
 10 14  2  0
 14 15  1  0
 15 16  2  0
  7 17  2  0
  5 18  1  0
 18 19  2  0
 18 20  1  0
 20 21  1  0
 21 22  2  0
 22 23  1  0
 23 24  2  0
 24 25  1  0
 25 26  1  0
 26 27  2  0
 27 28  1  0
 28 29  2  0
 29 30  1  0
 30 31  1  0
 29 32  1  0
 32 33  2  0
 25 34  1  0
 24 35  1  0
 35 36  2  0
 20 37  1  0
 37 38  1  0
 38 39  2  0
 39 40  1  0
 40 41  2  0
 41 42  1  0
 42 43  2  0
 17  3  1  0
 36 21  1  0
 43 38  1  0
 37  4  1  0
 16  8  1  0
 33 26  1  0
  1 44  1  0
  1 45  1  0
  1 46  1  0
  6 47  1  0
  9 48  1  0
 14 49  1  0
 16 50  1  0
 17 51  1  0
 22 52  1  0
 23 53  1  0
 27 54  1  0
 28 55  1  0
 31 56  1  0
 31 57  1  0
 31 58  1  0
 33 59  1  0
 34 60  1  0
 34 61  1  0
 34 62  1  0
 35 63  1  0
 36 64  1  0
 37 65  1  0
 39 66  1  0
 41 67  1  0
 42 68  1  0
 43 69  1  0
M  CHG  2  11   1  13  -1
M  END
$$$$
[H]c1c([H])c(C(F)(F)F)c([H])c([H])c1-c1nc(N([H])c2c([H])c([H])c(C(F)(F)F)c([H])c2[H])nc(N([H])[C@]2([H])C([H])([H])C([H])([H])[C@]([H])(C([H])([H])[H])C([H])([H])C2([H])[H])n1
     RDKit          3D

 58 61  0  0  0  0  0  0  0  0999 V2000
    6.5524   -1.5755   -1.3037 C   0  0  0  0  0  0  0  0  0  0  0  0
    5.7901   -0.9580   -0.1308 C   0  0  2  0  0  0  0  0  0  0  0  0
    4.9712   -2.0533    0.4688 C   0  0  0  0  0  0  0  0  0  0  0  0
    3.5540   -2.0117   -0.1218 C   0  0  0  0  0  0  0  0  0  0  0  0
    2.8854   -0.7534    0.4462 C   0  0  1  0  0  0  0  0  0  0  0  0
    3.6435    0.4021    0.0252 C   0  0  0  0  0  0  0  0  0  0  0  0
    4.9574    0.1626   -0.6938 C   0  0  0  0  0  0  0  0  0  0  0  0
    1.4941   -0.8653    0.3835 N   0  0  0  0  0  0  0  0  0  0  0  0
    0.3844   -0.0305    0.3266 C   0  0  0  0  0  0  0  0  0  0  0  0
   -0.8600   -0.6589    0.3239 N   0  0  0  0  0  0  0  0  0  0  0  0
   -2.0117   -0.0232    0.2587 C   0  0  0  0  0  0  0  0  0  0  0  0
   -3.2916   -0.6506    0.1703 N   0  0  0  0  0  0  0  0  0  0  0  0
   -3.5972   -1.9886    0.1072 C   0  0  0  0  0  0  0  0  0  0  0  0
   -4.1157   -2.4706   -1.0892 C   0  0  0  0  0  0  0  0  0  0  0  0
   -4.5328   -3.7935   -1.2198 C   0  0  0  0  0  0  0  0  0  0  0  0
   -4.4036   -4.6064   -0.1247 C   0  0  0  0  0  0  0  0  0  0  0  0
   -3.8891   -4.1674    1.0872 C   0  0  0  0  0  0  0  0  0  0  0  0
   -3.4843   -2.8260    1.1814 C   0  0  0  0  0  0  0  0  0  0  0  0
   -4.8454   -6.0013   -0.2638 C   0  0  0  0  0  0  0  0  0  0  0  0
   -4.0603   -6.7951    0.5503 F   0  0  0  0  0  0  0  0  0  0  0  0
   -4.7565   -6.4324   -1.5891 F   0  0  0  0  0  0  0  0  0  0  0  0
   -6.1706   -6.1332    0.1396 F   0  0  0  0  0  0  0  0  0  0  0  0
   -1.9602    1.3215    0.1854 N   0  0  0  0  0  0  0  0  0  0  0  0
   -0.7645    2.0301    0.1772 C   0  0  0  0  0  0  0  0  0  0  0  0
    0.3416    1.3264    0.2499 N   0  0  0  0  0  0  0  0  0  0  0  0
   -0.9992    3.4651    0.0601 C   0  0  0  0  0  0  0  0  0  0  0  0
   -1.7936    4.0544    1.0200 C   0  0  0  0  0  0  0  0  0  0  0  0
   -2.3245    5.3100    0.8791 C   0  0  0  0  0  0  0  0  0  0  0  0
   -2.0583    6.0119   -0.2714 C   0  0  0  0  0  0  0  0  0  0  0  0
   -1.2743    5.4585   -1.2222 C   0  0  0  0  0  0  0  0  0  0  0  0
   -0.7212    4.1695   -1.0883 C   0  0  0  0  0  0  0  0  0  0  0  0
   -2.7196    7.3465   -0.4289 C   0  0  0  0  0  0  0  0  0  0  0  0
   -4.1022    7.2000   -0.2417 F   0  0  0  0  0  0  0  0  0  0  0  0
   -2.5463    7.7816   -1.7394 F   0  0  0  0  0  0  0  0  0  0  0  0
   -2.2759    8.2652    0.4871 F   0  0  0  0  0  0  0  0  0  0  0  0
    7.4260   -0.9833   -1.6197 H   0  0  0  0  0  0  0  0  0  0  0  0
    5.8613   -1.8058   -2.1541 H   0  0  0  0  0  0  0  0  0  0  0  0
    6.9051   -2.5592   -0.9475 H   0  0  0  0  0  0  0  0  0  0  0  0
    6.5578   -0.5294    0.5369 H   0  0  0  0  0  0  0  0  0  0  0  0
    5.4008   -3.0807    0.3311 H   0  0  0  0  0  0  0  0  0  0  0  0
    4.8737   -1.8692    1.5660 H   0  0  0  0  0  0  0  0  0  0  0  0
    3.0097   -2.9366    0.1480 H   0  0  0  0  0  0  0  0  0  0  0  0
    3.6663   -1.8913   -1.2438 H   0  0  0  0  0  0  0  0  0  0  0  0
    3.1149   -0.8914    1.5891 H   0  0  0  0  0  0  0  0  0  0  0  0
    3.9234    1.0173    0.9462 H   0  0  0  0  0  0  0  0  0  0  0  0
    3.0749    1.1348   -0.6076 H   0  0  0  0  0  0  0  0  0  0  0  0
    5.5222    1.1083   -0.5794 H   0  0  0  0  0  0  0  0  0  0  0  0
    4.8105   -0.0021   -1.7644 H   0  0  0  0  0  0  0  0  0  0  0  0
    1.1726   -1.9477    0.3262 H   0  0  0  0  0  0  0  0  0  0  0  0
   -4.1196    0.0296    0.1504 H   0  0  0  0  0  0  0  0  0  0  0  0
   -4.1982   -1.8135   -1.9210 H   0  0  0  0  0  0  0  0  0  0  0  0
   -4.9430   -4.1609   -2.1190 H   0  0  0  0  0  0  0  0  0  0  0  0
   -3.8246   -4.8471    1.9252 H   0  0  0  0  0  0  0  0  0  0  0  0
   -3.0983   -2.5166    2.1466 H   0  0  0  0  0  0  0  0  0  0  0  0
   -2.0274    3.5359    1.9560 H   0  0  0  0  0  0  0  0  0  0  0  0
   -2.9396    5.7803    1.6404 H   0  0  0  0  0  0  0  0  0  0  0  0
   -1.0670    6.0021   -2.1258 H   0  0  0  0  0  0  0  0  0  0  0  0
   -0.1173    3.7162   -1.8204 H   0  0  0  0  0  0  0  0  0  0  0  0
  1  2  1  0
  2  3  1  0
  3  4  1  0
  4  5  1  0
  5  6  1  0
  6  7  1  0
  5  8  1  0
  8  9  1  0
  9 10  2  0
 10 11  1  0
 11 12  1  0
 12 13  1  0
 13 14  2  0
 14 15  1  0
 15 16  2  0
 16 17  1  0
 17 18  2  0
 16 19  1  0
 19 20  1  0
 19 21  1  0
 19 22  1  0
 11 23  2  0
 23 24  1  0
 24 25  2  0
 24 26  1  0
 26 27  2  0
 27 28  1  0
 28 29  2  0
 29 30  1  0
 30 31  2  0
 29 32  1  0
 32 33  1  0
 32 34  1  0
 32 35  1  0
  7  2  1  0
 25  9  1  0
 31 26  1  0
 18 13  1  0
  1 36  1  0
  1 37  1  0
  1 38  1  0
  2 39  1  1
  3 40  1  0
  3 41  1  0
  4 42  1  0
  4 43  1  0
  5 44  1  1
  6 45  1  0
  6 46  1  0
  7 47  1  0
  7 48  1  0
  8 49  1  0
 12 50  1  0
 14 51  1  0
 15 52  1  0
 17 53  1  0
 18 54  1  0
 27 55  1  0
 28 56  1  0
 30 57  1  0
 31 58  1  0
M  END
$$$$
[H]N=C(c1c([H])c([H])c([C@]([H])(N=NN=C(c2c([H])c([H])nc([H])c2[H])c2c([H])c([H])c(S(=O)(=O)N([H])[H])c([H])c2[H])C([H])([H])O[H])c([H])c1[H])N([H])[H]
     RDKit          3D

 53 55  0  0  0  0  0  0  0  0999 V2000
   -5.6421   -2.4676    3.9285 N   0  0  0  0  0  0  0  0  0  0  0  0
   -6.1940   -1.9172    2.3682 S   0  0  0  0  0  0  0  0  0  0  0  0
   -6.7357   -3.1130    1.6546 O   0  0  0  0  0  0  0  0  0  0  0  0
   -7.2308   -0.8466    2.5250 O   0  0  0  0  0  0  0  0  0  0  0  0
   -4.8729   -1.2474    1.4374 C   0  0  0  0  0  0  0  0  0  0  0  0
   -4.0852   -1.9815    0.5958 C   0  0  0  0  0  0  0  0  0  0  0  0
   -3.0505   -1.4427   -0.1308 C   0  0  0  0  0  0  0  0  0  0  0  0
   -2.7631   -0.0907   -0.0276 C   0  0  0  0  0  0  0  0  0  0  0  0
   -3.5507    0.6918    0.8276 C   0  0  0  0  0  0  0  0  0  0  0  0
   -4.5641    0.0959    1.5199 C   0  0  0  0  0  0  0  0  0  0  0  0
   -1.6282    0.5544   -0.6185 C   0  0  0  0  0  0  0  0  0  0  0  0
   -0.5374   -0.0619   -0.7976 N   0  0  0  0  0  0  0  0  0  0  0  0
   -0.2600   -1.3498   -0.4838 N   0  0  0  0  0  0  0  0  0  0  0  0
    0.7740   -1.9524   -0.9010 N   0  0  0  0  0  0  0  0  0  0  0  0
    1.7076   -1.2588   -1.7455 C   0  0  2  0  0  0  0  0  0  0  0  0
    2.2489   -2.1399   -2.8490 C   0  0  0  0  0  0  0  0  0  0  0  0
    2.9042   -3.2328   -2.3156 O   0  0  0  0  0  0  0  0  0  0  0  0
    2.7863   -0.7252   -0.8825 C   0  0  0  0  0  0  0  0  0  0  0  0
    3.2298    0.5653   -1.0571 C   0  0  0  0  0  0  0  0  0  0  0  0
    4.2391    1.0916   -0.2626 C   0  0  0  0  0  0  0  0  0  0  0  0
    4.8470    0.3610    0.7338 C   0  0  0  0  0  0  0  0  0  0  0  0
    4.3764   -0.9478    0.8892 C   0  0  0  0  0  0  0  0  0  0  0  0
    3.3760   -1.4778    0.1058 C   0  0  0  0  0  0  0  0  0  0  0  0
    5.9050    0.8770    1.5843 C   0  0  0  0  0  0  0  0  0  0  0  0
    6.4579    0.0463    2.5730 N   0  0  0  0  0  0  0  0  0  0  0  0
    6.3177    2.0709    1.4253 N   0  0  0  0  0  0  0  0  0  0  0  0
   -1.6768    1.9477   -1.0758 C   0  0  0  0  0  0  0  0  0  0  0  0
   -0.4573    2.5965   -1.3691 C   0  0  0  0  0  0  0  0  0  0  0  0
   -0.4601    3.8682   -1.8700 C   0  0  0  0  0  0  0  0  0  0  0  0
   -1.5990    4.5464   -2.1020 N   0  0  0  0  0  0  0  0  0  0  0  0
   -2.7885    3.9875   -1.8460 C   0  0  0  0  0  0  0  0  0  0  0  0
   -2.7902    2.6843   -1.3335 C   0  0  0  0  0  0  0  0  0  0  0  0
   -4.6009   -2.6052    3.8221 H   0  0  0  0  0  0  0  0  0  0  0  0
   -5.7277   -1.6177    4.5586 H   0  0  0  0  0  0  0  0  0  0  0  0
   -4.2917   -3.0399    0.5011 H   0  0  0  0  0  0  0  0  0  0  0  0
   -2.4738   -2.0864   -0.8150 H   0  0  0  0  0  0  0  0  0  0  0  0
   -3.3609    1.7523    0.9887 H   0  0  0  0  0  0  0  0  0  0  0  0
   -5.1663    0.7105    2.1761 H   0  0  0  0  0  0  0  0  0  0  0  0
    1.1684   -0.4269   -2.2424 H   0  0  0  0  0  0  0  0  0  0  0  0
    2.9060   -1.5649   -3.5287 H   0  0  0  0  0  0  0  0  0  0  0  0
    1.3542   -2.4511   -3.4559 H   0  0  0  0  0  0  0  0  0  0  0  0
    3.8849   -3.0531   -2.3752 H   0  0  0  0  0  0  0  0  0  0  0  0
    2.7850    1.1979   -1.8346 H   0  0  0  0  0  0  0  0  0  0  0  0
    4.5511    2.1236   -0.4468 H   0  0  0  0  0  0  0  0  0  0  0  0
    4.8366   -1.5580    1.6717 H   0  0  0  0  0  0  0  0  0  0  0  0
    3.0509   -2.4977    0.2703 H   0  0  0  0  0  0  0  0  0  0  0  0
    7.4920   -0.0554    2.6791 H   0  0  0  0  0  0  0  0  0  0  0  0
    5.8494   -0.5032    3.2421 H   0  0  0  0  0  0  0  0  0  0  0  0
    6.0192    2.7824    0.7615 H   0  0  0  0  0  0  0  0  0  0  0  0
    0.4669    2.0694   -1.1900 H   0  0  0  0  0  0  0  0  0  0  0  0
    0.4942    4.3592   -2.0929 H   0  0  0  0  0  0  0  0  0  0  0  0
   -3.7308    4.4896   -2.0148 H   0  0  0  0  0  0  0  0  0  0  0  0
   -3.7899    2.2432   -1.1758 H   0  0  0  0  0  0  0  0  0  0  0  0
  1  2  1  0
  2  3  2  0
  2  4  2  0
  2  5  1  0
  5  6  2  0
  6  7  1  0
  7  8  2  0
  8  9  1  0
  9 10  2  0
  8 11  1  0
 11 12  2  3
 12 13  1  0
 13 14  2  3
 14 15  1  0
 15 16  1  0
 16 17  1  0
 15 18  1  0
 18 19  2  0
 19 20  1  0
 20 21  2  0
 21 22  1  0
 22 23  2  0
 21 24  1  0
 24 25  1  0
 24 26  2  3
 11 27  1  0
 27 28  2  0
 28 29  1  0
 29 30  2  0
 30 31  1  0
 31 32  2  0
 10  5  1  0
 23 18  1  0
 32 27  1  0
  1 33  1  0
  1 34  1  0
  6 35  1  0
  7 36  1  0
  9 37  1  0
 10 38  1  0
 15 39  1  6
 16 40  1  0
 16 41  1  0
 17 42  1  0
 19 43  1  0
 20 44  1  0
 22 45  1  0
 23 46  1  0
 25 47  1  0
 25 48  1  0
 26 49  1  0
 28 50  1  0
 29 51  1  0
 31 52  1  0
 32 53  1  0
M  END
$$$$
[H]N=C(N([H])[H])N([H])C([H])([H])C([H])([H])C([H])([H])[C@@]([H])(C(=O)c1nc([H])c([H])s1)N([H])C(=O)[C@@]([H])(N([H])C(=O)[C@@]([H])(N([H])[H])C([H])([H])c1c([H])c([H])c([H])c([H])c1[H])C([H])([H])C([H])([H])C([H])([H])N([H])C(=N[H])N([H])[H]
     RDKit          3D

 74 75  0  0  0  0  0  0  0  0999 V2000
   -2.1745   -2.6090    3.0397 N   0  0  0  0  0  0  0  0  0  0  0  0
   -2.1147   -3.2937    1.7889 C   0  0  1  0  0  0  0  0  0  0  0  0
   -3.4199   -3.9624    1.4133 C   0  0  0  0  0  0  0  0  0  0  0  0
   -4.5544   -3.0346    1.2994 C   0  0  0  0  0  0  0  0  0  0  0  0
   -4.8235   -2.4332    0.0925 C   0  0  0  0  0  0  0  0  0  0  0  0
   -5.8966   -1.5408   -0.0467 C   0  0  0  0  0  0  0  0  0  0  0  0
   -6.6784   -1.2801    1.0561 C   0  0  0  0  0  0  0  0  0  0  0  0
   -6.3890   -1.8989    2.2663 C   0  0  0  0  0  0  0  0  0  0  0  0
   -5.3404   -2.7694    2.4006 C   0  0  0  0  0  0  0  0  0  0  0  0
   -1.5978   -2.3928    0.7416 C   0  0  0  0  0  0  0  0  0  0  0  0
   -1.4337   -2.8366   -0.4368 O   0  0  0  0  0  0  0  0  0  0  0  0
   -1.2894   -1.0401    1.0620 N   0  0  0  0  0  0  0  0  0  0  0  0
   -0.7776   -0.1786    0.0065 C   0  0  1  0  0  0  0  0  0  0  0  0
   -1.6861    1.0160   -0.2046 C   0  0  0  0  0  0  0  0  0  0  0  0
   -1.8243    1.8519    1.0258 C   0  0  0  0  0  0  0  0  0  0  0  0
   -2.7038    3.0593    0.8816 C   0  0  0  0  0  0  0  0  0  0  0  0
   -2.2777    4.0007   -0.1054 N   0  0  0  0  0  0  0  0  0  0  0  0
   -3.0514    5.1989   -0.2835 C   0  0  0  0  0  0  0  0  0  0  0  0
   -3.3861    5.6320   -1.5758 N   0  0  0  0  0  0  0  0  0  0  0  0
   -3.4379    5.8739    0.7410 N   0  0  0  0  0  0  0  0  0  0  0  0
    0.6258    0.2241    0.2668 C   0  0  0  0  0  0  0  0  0  0  0  0
    1.0227    0.2959    1.4598 O   0  0  0  0  0  0  0  0  0  0  0  0
    1.5512    0.5308   -0.7466 N   0  0  0  0  0  0  0  0  0  0  0  0
    2.9318    0.9345   -0.5458 C   0  0  1  0  0  0  0  0  0  0  0  0
    3.8418   -0.2743   -0.8389 C   0  0  0  0  0  0  0  0  0  0  0  0
    3.6778   -0.7400   -2.2412 C   0  0  0  0  0  0  0  0  0  0  0  0
    4.4969   -1.9116   -2.6390 C   0  0  0  0  0  0  0  0  0  0  0  0
    4.2707   -3.1309   -1.9389 N   0  0  0  0  0  0  0  0  0  0  0  0
    4.5495   -3.4421   -0.6004 C   0  0  0  0  0  0  0  0  0  0  0  0
    5.7484   -3.1856    0.0981 N   0  0  0  0  0  0  0  0  0  0  0  0
    3.5801   -4.0434    0.0562 N   0  0  0  0  0  0  0  0  0  0  0  0
    3.2885    2.0978   -1.3562 C   0  0  0  0  0  0  0  0  0  0  0  0
    2.4987    2.6175   -2.2018 O   0  0  0  0  0  0  0  0  0  0  0  0
    4.5998    2.7140   -1.2113 C   0  0  0  0  0  0  0  0  0  0  0  0
    5.0289    3.7577   -1.9180 N   0  0  0  0  0  0  0  0  0  0  0  0
    6.2019    4.2458   -1.7072 C   0  0  0  0  0  0  0  0  0  0  0  0
    6.9825    3.6598   -0.7416 C   0  0  0  0  0  0  0  0  0  0  0  0
    5.9392    2.4156   -0.1962 S   0  0  0  0  0  0  0  0  0  0  0  0
   -2.8139   -1.8046    3.0660 H   0  0  0  0  0  0  0  0  0  0  0  0
   -1.2161   -2.2862    3.2967 H   0  0  0  0  0  0  0  0  0  0  0  0
   -1.3672   -4.1486    1.8305 H   0  0  0  0  0  0  0  0  0  0  0  0
   -3.2637   -4.4873    0.4419 H   0  0  0  0  0  0  0  0  0  0  0  0
   -3.6976   -4.7372    2.1595 H   0  0  0  0  0  0  0  0  0  0  0  0
   -4.2628   -2.5863   -0.8159 H   0  0  0  0  0  0  0  0  0  0  0  0
   -6.1350   -1.0506   -0.9783 H   0  0  0  0  0  0  0  0  0  0  0  0
   -7.5301   -0.5863    0.9889 H   0  0  0  0  0  0  0  0  0  0  0  0
   -7.0244   -1.6797    3.1419 H   0  0  0  0  0  0  0  0  0  0  0  0
   -5.1350   -3.2472    3.3731 H   0  0  0  0  0  0  0  0  0  0  0  0
   -1.4423   -0.7264    2.0280 H   0  0  0  0  0  0  0  0  0  0  0  0
   -0.7841   -0.7547   -0.9300 H   0  0  0  0  0  0  0  0  0  0  0  0
   -1.2542    1.6125   -1.0271 H   0  0  0  0  0  0  0  0  0  0  0  0
   -2.6437    0.5976   -0.5704 H   0  0  0  0  0  0  0  0  0  0  0  0
   -2.1762    1.2863    1.9118 H   0  0  0  0  0  0  0  0  0  0  0  0
   -0.7982    2.2165    1.2894 H   0  0  0  0  0  0  0  0  0  0  0  0
   -3.7667    2.7437    0.6575 H   0  0  0  0  0  0  0  0  0  0  0  0
   -2.7872    3.6281    1.8524 H   0  0  0  0  0  0  0  0  0  0  0  0
   -1.4313    3.8321   -0.6851 H   0  0  0  0  0  0  0  0  0  0  0  0
   -2.9297    6.4969   -1.9653 H   0  0  0  0  0  0  0  0  0  0  0  0
   -4.0779    5.0954   -2.1283 H   0  0  0  0  0  0  0  0  0  0  0  0
   -3.2474    5.6435    1.7215 H   0  0  0  0  0  0  0  0  0  0  0  0
    1.2239    0.4590   -1.7315 H   0  0  0  0  0  0  0  0  0  0  0  0
    3.0662    1.1543    0.5181 H   0  0  0  0  0  0  0  0  0  0  0  0
    4.8731    0.0601   -0.6543 H   0  0  0  0  0  0  0  0  0  0  0  0
    3.6016   -1.0278   -0.0657 H   0  0  0  0  0  0  0  0  0  0  0  0
    3.9585    0.1235   -2.9126 H   0  0  0  0  0  0  0  0  0  0  0  0
    2.5998   -0.9916   -2.3958 H   0  0  0  0  0  0  0  0  0  0  0  0
    4.4474   -2.0378   -3.7458 H   0  0  0  0  0  0  0  0  0  0  0  0
    5.5749   -1.6255   -2.4362 H   0  0  0  0  0  0  0  0  0  0  0  0
    3.8287   -3.9213   -2.5112 H   0  0  0  0  0  0  0  0  0  0  0  0
    5.6901   -2.5121    0.8947 H   0  0  0  0  0  0  0  0  0  0  0  0
    6.6599   -3.6131   -0.1209 H   0  0  0  0  0  0  0  0  0  0  0  0
    3.6789   -4.3182    1.0485 H   0  0  0  0  0  0  0  0  0  0  0  0
    6.5991    5.1167   -2.2728 H   0  0  0  0  0  0  0  0  0  0  0  0
    8.0037    3.9480   -0.4336 H   0  0  0  0  0  0  0  0  0  0  0  0
  1  2  1  0
  2  3  1  0
  3  4  1  0
  4  5  2  0
  5  6  1  0
  6  7  2  0
  7  8  1  0
  8  9  2  0
  2 10  1  0
 10 11  2  0
 10 12  1  0
 12 13  1  0
 13 14  1  0
 14 15  1  0
 15 16  1  0
 16 17  1  0
 17 18  1  0
 18 19  1  0
 18 20  2  3
 13 21  1  0
 21 22  2  0
 21 23  1  0
 23 24  1  0
 24 25  1  0
 25 26  1  0
 26 27  1  0
 27 28  1  0
 28 29  1  0
 29 30  1  0
 29 31  2  3
 24 32  1  0
 32 33  2  0
 32 34  1  0
 34 35  2  0
 35 36  1  0
 36 37  2  0
 37 38  1  0
  9  4  1  0
 38 34  1  0
  1 39  1  0
  1 40  1  0
  2 41  1  1
  3 42  1  0
  3 43  1  0
  5 44  1  0
  6 45  1  0
  7 46  1  0
  8 47  1  0
  9 48  1  0
 12 49  1  0
 13 50  1  6
 14 51  1  0
 14 52  1  0
 15 53  1  0
 15 54  1  0
 16 55  1  0
 16 56  1  0
 17 57  1  0
 19 58  1  0
 19 59  1  0
 20 60  1  0
 23 61  1  0
 24 62  1  1
 25 63  1  0
 25 64  1  0
 26 65  1  0
 26 66  1  0
 27 67  1  0
 27 68  1  0
 28 69  1  0
 30 70  1  0
 30 71  1  0
 31 72  1  0
 36 73  1  0
 37 74  1  0
M  END
$$$$
[H]OC(=O)C([H])([H])[C@@]([H])(C(=O)O[H])N([H])C(=O)[C@@]([H])(N([H])C(=O)[C@@]([H])(N([H])C(=O)[C@@]([H])(N([H])[H])[C@]([H])(C([H])([H])[H])C([H])([H])C([H])([H])[H])C([H])([H])C(=O)O[H])C([H])([H])c1c([H])c([H])c(O[H])c([H])c1[H]
     RDKit          3D

 69 69  0  0  0  0  0  0  0  0999 V2000
    6.6838   -0.2506    3.5621 C   0  0  0  0  0  0  0  0  0  0  0  0
    5.2225   -0.0703    3.1316 C   0  0  0  0  0  0  0  0  0  0  0  0
    5.2304    0.4373    1.7267 C   0  0  1  0  0  0  0  0  0  0  0  0
    5.9335   -0.5791    0.8409 C   0  0  0  0  0  0  0  0  0  0  0  0
    3.9210    0.8748    1.1833 C   0  0  2  0  0  0  0  0  0  0  0  0
    3.3886    1.9687    1.9891 N   0  0  0  0  0  0  0  0  0  0  0  0
    2.9031   -0.1882    1.0384 C   0  0  0  0  0  0  0  0  0  0  0  0
    3.2141   -1.2655    0.5074 O   0  0  0  0  0  0  0  0  0  0  0  0
    1.6047    0.0453    1.5033 N   0  0  0  0  0  0  0  0  0  0  0  0
    0.5740   -1.0301    1.3459 C   0  0  1  0  0  0  0  0  0  0  0  0
   -0.1757   -1.1768    2.6194 C   0  0  0  0  0  0  0  0  0  0  0  0
   -1.1550   -2.2680    2.6296 C   0  0  0  0  0  0  0  0  0  0  0  0
   -2.1925   -2.2444    3.5412 O   0  0  0  0  0  0  0  0  0  0  0  0
   -1.0949   -3.2435    1.8297 O   0  0  0  0  0  0  0  0  0  0  0  0
   -0.2328   -0.6212    0.1744 C   0  0  0  0  0  0  0  0  0  0  0  0
    0.4752   -0.1448   -0.7938 O   0  0  0  0  0  0  0  0  0  0  0  0
   -1.5901   -0.6648   -0.0260 N   0  0  0  0  0  0  0  0  0  0  0  0
   -2.1800   -0.1710   -1.2952 C   0  0  1  0  0  0  0  0  0  0  0  0
   -3.0614   -1.1684   -1.9654 C   0  0  0  0  0  0  0  0  0  0  0  0
   -2.3897   -2.4274   -2.3437 C   0  0  0  0  0  0  0  0  0  0  0  0
   -2.3688   -3.5078   -1.5208 C   0  0  0  0  0  0  0  0  0  0  0  0
   -1.7278   -4.6875   -1.8744 C   0  0  0  0  0  0  0  0  0  0  0  0
   -1.0855   -4.7847   -3.0991 C   0  0  0  0  0  0  0  0  0  0  0  0
   -0.4432   -5.9506   -3.4655 O   0  0  0  0  0  0  0  0  0  0  0  0
   -1.1048   -3.6870   -3.9415 C   0  0  0  0  0  0  0  0  0  0  0  0
   -1.7446   -2.5451   -3.5587 C   0  0  0  0  0  0  0  0  0  0  0  0
   -2.9707    1.0341   -0.9129 C   0  0  0  0  0  0  0  0  0  0  0  0
   -3.4362    1.1482    0.2317 O   0  0  0  0  0  0  0  0  0  0  0  0
   -3.1522    2.0275   -1.9114 N   0  0  0  0  0  0  0  0  0  0  0  0
   -3.9281    3.2185   -1.5417 C   0  0  1  0  0  0  0  0  0  0  0  0
   -2.8691    4.2815   -1.2415 C   0  0  0  0  0  0  0  0  0  0  0  0
   -3.5208    5.5428   -0.8344 C   0  0  0  0  0  0  0  0  0  0  0  0
   -4.6752    5.5505   -0.1087 O   0  0  0  0  0  0  0  0  0  0  0  0
   -2.9671    6.6391   -1.1832 O   0  0  0  0  0  0  0  0  0  0  0  0
   -4.8184    3.5841   -2.6388 C   0  0  0  0  0  0  0  0  0  0  0  0
   -5.6437    4.6867   -2.6208 O   0  0  0  0  0  0  0  0  0  0  0  0
   -4.8808    2.8810   -3.7069 O   0  0  0  0  0  0  0  0  0  0  0  0
    7.0106   -1.3014    3.3342 H   0  0  0  0  0  0  0  0  0  0  0  0
    7.3520    0.4503    3.0239 H   0  0  0  0  0  0  0  0  0  0  0  0
    6.8076   -0.0644    4.6547 H   0  0  0  0  0  0  0  0  0  0  0  0
    4.7741   -1.0933    3.1703 H   0  0  0  0  0  0  0  0  0  0  0  0
    4.7191    0.5835    3.8669 H   0  0  0  0  0  0  0  0  0  0  0  0
    5.9208    1.3344    1.7246 H   0  0  0  0  0  0  0  0  0  0  0  0
    5.5158   -0.4892   -0.1861 H   0  0  0  0  0  0  0  0  0  0  0  0
    7.0119   -0.4128    0.7999 H   0  0  0  0  0  0  0  0  0  0  0  0
    5.7433   -1.5976    1.2644 H   0  0  0  0  0  0  0  0  0  0  0  0
    4.1088    1.2803    0.1557 H   0  0  0  0  0  0  0  0  0  0  0  0
    4.1531    2.5350    2.3801 H   0  0  0  0  0  0  0  0  0  0  0  0
    2.7246    2.4995    1.4086 H   0  0  0  0  0  0  0  0  0  0  0  0
    1.3253    0.9334    1.9514 H   0  0  0  0  0  0  0  0  0  0  0  0
    1.1263   -1.9295    1.0568 H   0  0  0  0  0  0  0  0  0  0  0  0
   -0.7330   -0.2052    2.7866 H   0  0  0  0  0  0  0  0  0  0  0  0
    0.5179   -1.2220    3.5009 H   0  0  0  0  0  0  0  0  0  0  0  0
   -2.2025   -2.7687    4.4150 H   0  0  0  0  0  0  0  0  0  0  0  0
   -2.2748   -1.0083    0.6526 H   0  0  0  0  0  0  0  0  0  0  0  0
   -1.3841    0.1357   -2.0091 H   0  0  0  0  0  0  0  0  0  0  0  0
   -3.4563   -0.6716   -2.8906 H   0  0  0  0  0  0  0  0  0  0  0  0
   -3.9533   -1.3625   -1.3297 H   0  0  0  0  0  0  0  0  0  0  0  0
   -2.8565   -3.5049   -0.5402 H   0  0  0  0  0  0  0  0  0  0  0  0
   -1.7175   -5.5325   -1.2172 H   0  0  0  0  0  0  0  0  0  0  0  0
    0.5320   -6.0488   -3.2181 H   0  0  0  0  0  0  0  0  0  0  0  0
   -0.5935   -3.7863   -4.8976 H   0  0  0  0  0  0  0  0  0  0  0  0
   -1.7624   -1.6716   -4.2244 H   0  0  0  0  0  0  0  0  0  0  0  0
   -2.7787    1.9633   -2.8557 H   0  0  0  0  0  0  0  0  0  0  0  0
   -4.4899    3.0627   -0.6038 H   0  0  0  0  0  0  0  0  0  0  0  0
   -2.2204    3.8942   -0.4181 H   0  0  0  0  0  0  0  0  0  0  0  0
   -2.2030    4.4052   -2.1190 H   0  0  0  0  0  0  0  0  0  0  0  0
   -5.1876    4.7686    0.2223 H   0  0  0  0  0  0  0  0  0  0  0  0
   -5.2714    5.5809   -2.9475 H   0  0  0  0  0  0  0  0  0  0  0  0
  1  2  1  0
  2  3  1  0
  3  4  1  0
  3  5  1  0
  5  6  1  0
  5  7  1  0
  7  8  2  0
  7  9  1  0
  9 10  1  0
 10 11  1  0
 11 12  1  0
 12 13  1  0
 12 14  2  0
 10 15  1  0
 15 16  2  0
 15 17  1  0
 17 18  1  0
 18 19  1  0
 19 20  1  0
 20 21  2  0
 21 22  1  0
 22 23  2  0
 23 24  1  0
 23 25  1  0
 25 26  2  0
 18 27  1  0
 27 28  2  0
 27 29  1  0
 29 30  1  0
 30 31  1  0
 31 32  1  0
 32 33  1  0
 32 34  2  0
 30 35  1  0
 35 36  1  0
 35 37  2  0
 26 20  1  0
  1 38  1  0
  1 39  1  0
  1 40  1  0
  2 41  1  0
  2 42  1  0
  3 43  1  1
  4 44  1  0
  4 45  1  0
  4 46  1  0
  5 47  1  6
  6 48  1  0
  6 49  1  0
  9 50  1  0
 10 51  1  6
 11 52  1  0
 11 53  1  0
 13 54  1  0
 17 55  1  0
 18 56  1  6
 19 57  1  0
 19 58  1  0
 21 59  1  0
 22 60  1  0
 24 61  1  0
 25 62  1  0
 26 63  1  0
 29 64  1  0
 30 65  1  1
 31 66  1  0
 31 67  1  0
 33 68  1  0
 36 69  1  0
M  END
$$$$
[H]OC(=O)c1c([H])c([H])c2nc(C([H])([H])[H])n(C([H])([H])c3c([H])c([H])c(-n4c([H])c([H])c(OC([H])([H])[H])c4[H])c([H])c3[H])c(=O)c2c1[H]
     RDKit          3D

 48 51  0  0  0  0  0  0  0  0999 V2000
    8.0545   -2.5359    1.8720 C   0  0  0  0  0  0  0  0  0  0  0  0
    6.9682   -2.7686    1.0260 O   0  0  0  0  0  0  0  0  0  0  0  0
    5.9734   -1.8065    0.8881 C   0  0  0  0  0  0  0  0  0  0  0  0
    5.9302   -0.5843    1.5218 C   0  0  0  0  0  0  0  0  0  0  0  0
    4.7825    0.0315    1.0950 C   0  0  0  0  0  0  0  0  0  0  0  0
    4.1108   -0.7473    0.2277 N   0  0  0  0  0  0  0  0  0  0  0  0
    4.8395   -1.8708    0.1018 C   0  0  0  0  0  0  0  0  0  0  0  0
    2.8832   -0.4037   -0.3998 C   0  0  0  0  0  0  0  0  0  0  0  0
    2.6646    0.7990   -1.0264 C   0  0  0  0  0  0  0  0  0  0  0  0
    1.4679    1.1206   -1.6319 C   0  0  0  0  0  0  0  0  0  0  0  0
    0.3871    0.2284   -1.6441 C   0  0  0  0  0  0  0  0  0  0  0  0
   -0.8569    0.6623   -2.3012 C   0  0  0  0  0  0  0  0  0  0  0  0
   -1.9542    0.9338   -1.4378 N   0  0  0  0  0  0  0  0  0  0  0  0
   -2.0951    2.1552   -0.8933 C   0  0  0  0  0  0  0  0  0  0  0  0
   -1.1880    3.2960   -1.1073 C   0  0  0  0  0  0  0  0  0  0  0  0
   -3.1607    2.4210   -0.0741 N   0  0  0  0  0  0  0  0  0  0  0  0
   -4.0970    1.5202    0.2277 C   0  0  0  0  0  0  0  0  0  0  0  0
   -5.1730    1.7983    1.0590 C   0  0  0  0  0  0  0  0  0  0  0  0
   -6.1165    0.8322    1.3414 C   0  0  0  0  0  0  0  0  0  0  0  0
   -6.0280   -0.4442    0.8104 C   0  0  0  0  0  0  0  0  0  0  0  0
   -4.9433   -0.6800   -0.0112 C   0  0  0  0  0  0  0  0  0  0  0  0
   -3.9889    0.2766   -0.3045 C   0  0  0  0  0  0  0  0  0  0  0  0
   -2.9118    0.0253   -1.1263 C   0  0  0  0  0  0  0  0  0  0  0  0
   -2.8118   -1.1192   -1.6227 O   0  0  0  0  0  0  0  0  0  0  0  0
   -7.0258   -1.4601    1.1112 C   0  0  0  0  0  0  0  0  0  0  0  0
   -8.0873   -1.1552    1.9426 O   0  0  0  0  0  0  0  0  0  0  0  0
   -6.9604   -2.6174    0.6398 O   0  0  0  0  0  0  0  0  0  0  0  0
    0.6028   -0.9725   -1.0204 C   0  0  0  0  0  0  0  0  0  0  0  0
    1.8280   -1.2821   -0.4097 C   0  0  0  0  0  0  0  0  0  0  0  0
    8.3328   -1.4635    1.7888 H   0  0  0  0  0  0  0  0  0  0  0  0
    7.8009   -2.6965    2.9459 H   0  0  0  0  0  0  0  0  0  0  0  0
    8.9469   -3.1293    1.6563 H   0  0  0  0  0  0  0  0  0  0  0  0
    6.6666   -0.1773    2.2305 H   0  0  0  0  0  0  0  0  0  0  0  0
    4.4340    1.0177    1.3985 H   0  0  0  0  0  0  0  0  0  0  0  0
    4.5580   -2.7028   -0.5357 H   0  0  0  0  0  0  0  0  0  0  0  0
    3.5093    1.5021   -1.0186 H   0  0  0  0  0  0  0  0  0  0  0  0
    1.3744    2.0779   -2.1239 H   0  0  0  0  0  0  0  0  0  0  0  0
   -1.1103   -0.1860   -3.0140 H   0  0  0  0  0  0  0  0  0  0  0  0
   -0.6616    1.5083   -3.0280 H   0  0  0  0  0  0  0  0  0  0  0  0
   -1.7568    4.2438   -1.0217 H   0  0  0  0  0  0  0  0  0  0  0  0
   -0.4321    3.3049   -0.2853 H   0  0  0  0  0  0  0  0  0  0  0  0
   -0.7227    3.3210   -2.1104 H   0  0  0  0  0  0  0  0  0  0  0  0
   -5.2249    2.8049    1.4656 H   0  0  0  0  0  0  0  0  0  0  0  0
   -6.9437    1.0711    1.9897 H   0  0  0  0  0  0  0  0  0  0  0  0
   -4.8297   -1.6622   -0.4505 H   0  0  0  0  0  0  0  0  0  0  0  0
   -8.7998   -0.5464    1.6050 H   0  0  0  0  0  0  0  0  0  0  0  0
   -0.1924   -1.6976   -1.0067 H   0  0  0  0  0  0  0  0  0  0  0  0
    1.9572   -2.2429    0.0730 H   0  0  0  0  0  0  0  0  0  0  0  0
  1  2  1  0
  2  3  1  0
  3  4  1  0
  4  5  2  0
  5  6  1  0
  6  7  1  0
  6  8  1  0
  8  9  2  0
  9 10  1  0
 10 11  2  0
 11 12  1  0
 12 13  1  0
 13 14  1  0
 14 15  1  0
 14 16  2  0
 16 17  1  0
 17 18  2  0
 18 19  1  0
 19 20  2  0
 20 21  1  0
 21 22  2  0
 22 23  1  0
 23 24  2  0
 20 25  1  0
 25 26  1  0
 25 27  2  0
 11 28  1  0
 28 29  2  0
  7  3  2  0
 29  8  1  0
 23 13  1  0
 22 17  1  0
  1 30  1  0
  1 31  1  0
  1 32  1  0
  4 33  1  0
  5 34  1  0
  7 35  1  0
  9 36  1  0
 10 37  1  0
 12 38  1  0
 12 39  1  0
 15 40  1  0
 15 41  1  0
 15 42  1  0
 18 43  1  0
 19 44  1  0
 21 45  1  0
 26 46  1  0
 28 47  1  0
 29 48  1  0
M  END
$$$$
[H]OC(=O)C([H])([H])C([H])([H])[C@@]([H])(C(=O)O[H])N([H])C(=O)[C@@]([H])(N([H])C(=O)[C@@]([H])(N([H])C(=O)[C@@]([H])(N([H])C(=O)[C@@]([H])(N([H])C(=O)[C@]([H])(N([H])[H])C([H])(C([H])([H])[H])C([H])([H])[H])C([H])([H])C([H])([H])C(=O)O[H])C([H])([H])C([H])([H])C(=O)O[H])C([H])([H])C([H])([H])C(=O)O[H])C([H])([H])C([H])([H])C(=O)O[H]
     RDKit          3D

 99 98  0  0  0  0  0  0  0  0999 V2000
   -7.4619    3.9582    1.2566 C   0  0  0  0  0  0  0  0  0  0  0  0
   -7.7165    3.7759   -0.2188 C   0  0  0  0  0  0  0  0  0  0  0  0
   -8.6072    4.9042   -0.6971 C   0  0  0  0  0  0  0  0  0  0  0  0
   -8.3714    2.4766   -0.5741 C   0  0  1  0  0  0  0  0  0  0  0  0
   -8.5995    2.3782   -1.9915 N   0  0  0  0  0  0  0  0  0  0  0  0
   -7.4551    1.3842   -0.1492 C   0  0  0  0  0  0  0  0  0  0  0  0
   -7.1647    1.2831    1.0789 O   0  0  0  0  0  0  0  0  0  0  0  0
   -6.9148    0.4667   -1.1168 N   0  0  0  0  0  0  0  0  0  0  0  0
   -6.0094   -0.5597   -0.5939 C   0  0  1  0  0  0  0  0  0  0  0  0
   -6.4391   -1.8475   -1.2222 C   0  0  0  0  0  0  0  0  0  0  0  0
   -5.6312   -3.0145   -0.7527 C   0  0  0  0  0  0  0  0  0  0  0  0
   -5.9936   -4.2759   -1.3720 C   0  0  0  0  0  0  0  0  0  0  0  0
   -5.5118   -5.5289   -1.1433 O   0  0  0  0  0  0  0  0  0  0  0  0
   -6.9146   -4.2303   -2.3048 O   0  0  0  0  0  0  0  0  0  0  0  0
   -4.6182   -0.2082   -1.1059 C   0  0  0  0  0  0  0  0  0  0  0  0
   -4.6497    0.1236   -2.2982 O   0  0  0  0  0  0  0  0  0  0  0  0
   -3.5016   -0.2448   -0.3198 N   0  0  0  0  0  0  0  0  0  0  0  0
   -2.3965   -0.2788    0.4511 C   0  0  1  0  0  0  0  0  0  0  0  0
   -2.4479   -0.6820    1.8767 C   0  0  0  0  0  0  0  0  0  0  0  0
   -2.9592   -2.0545    2.1347 C   0  0  0  0  0  0  0  0  0  0  0  0
   -2.8985   -2.3462    3.5874 C   0  0  0  0  0  0  0  0  0  0  0  0
   -3.9094   -3.1036    4.2060 O   0  0  0  0  0  0  0  0  0  0  0  0
   -1.9836   -1.9612    4.3600 O   0  0  0  0  0  0  0  0  0  0  0  0
   -1.2691   -1.1484   -0.1410 C   0  0  0  0  0  0  0  0  0  0  0  0
   -1.6680   -2.1988   -0.7722 O   0  0  0  0  0  0  0  0  0  0  0  0
    0.0475   -0.8160    0.0075 N   0  0  0  0  0  0  0  0  0  0  0  0
    1.3034   -1.4606   -0.4128 C   0  0  1  0  0  0  0  0  0  0  0  0
    1.2315   -1.7749   -1.8820 C   0  0  0  0  0  0  0  0  0  0  0  0
    2.3978   -2.4128   -2.5196 C   0  0  0  0  0  0  0  0  0  0  0  0
    2.7813   -3.7169   -1.9874 C   0  0  0  0  0  0  0  0  0  0  0  0
    3.8855   -4.3968   -2.5661 O   0  0  0  0  0  0  0  0  0  0  0  0
    2.2167   -4.2859   -1.0557 O   0  0  0  0  0  0  0  0  0  0  0  0
    2.4130   -0.6673    0.0406 C   0  0  0  0  0  0  0  0  0  0  0  0
    2.0820    0.4290    0.7555 O   0  0  0  0  0  0  0  0  0  0  0  0
    3.8216   -0.7449   -0.0705 N   0  0  0  0  0  0  0  0  0  0  0  0
    4.6175    0.3057    0.5520 C   0  0  1  0  0  0  0  0  0  0  0  0
    4.8992    0.0906    1.9823 C   0  0  0  0  0  0  0  0  0  0  0  0
    5.6525   -1.0979    2.4272 C   0  0  0  0  0  0  0  0  0  0  0  0
    5.0515   -2.4039    2.1612 C   0  0  0  0  0  0  0  0  0  0  0  0
    3.9526   -2.8269    3.0148 O   0  0  0  0  0  0  0  0  0  0  0  0
    5.3419   -3.2215    1.3120 O   0  0  0  0  0  0  0  0  0  0  0  0
    5.7872    0.7259   -0.2903 C   0  0  0  0  0  0  0  0  0  0  0  0
    5.9338    0.1721   -1.3667 O   0  0  0  0  0  0  0  0  0  0  0  0
    6.6105    1.7087    0.2136 N   0  0  0  0  0  0  0  0  0  0  0  0
    7.7994    2.3882   -0.3329 C   0  0  1  0  0  0  0  0  0  0  0  0
    8.9033    2.2992    0.5946 C   0  0  0  0  0  0  0  0  0  0  0  0
   10.2158    2.9030    0.4492 C   0  0  0  0  0  0  0  0  0  0  0  0
   11.1705    2.5369   -0.5554 C   0  0  0  0  0  0  0  0  0  0  0  0
   11.8091    3.4342   -1.4248 O   0  0  0  0  0  0  0  0  0  0  0  0
   11.5012    1.3103   -0.7055 O   0  0  0  0  0  0  0  0  0  0  0  0
    7.9259    2.2646   -1.7678 C   0  0  0  0  0  0  0  0  0  0  0  0
    8.9942    1.9994   -2.5257 O   0  0  0  0  0  0  0  0  0  0  0  0
    6.8053    2.4374   -2.4554 O   0  0  0  0  0  0  0  0  0  0  0  0
   -8.1709    3.3588    1.8831 H   0  0  0  0  0  0  0  0  0  0  0  0
   -6.4518    3.6058    1.5465 H   0  0  0  0  0  0  0  0  0  0  0  0
   -7.5668    5.0151    1.4756 H   0  0  0  0  0  0  0  0  0  0  0  0
   -6.7210    3.7976   -0.7133 H   0  0  0  0  0  0  0  0  0  0  0  0
   -9.0441    5.4018    0.1799 H   0  0  0  0  0  0  0  0  0  0  0  0
   -9.4238    4.5443   -1.3436 H   0  0  0  0  0  0  0  0  0  0  0  0
   -7.9485    5.6179   -1.2749 H   0  0  0  0  0  0  0  0  0  0  0  0
   -9.3466    2.3949   -0.0637 H   0  0  0  0  0  0  0  0  0  0  0  0
   -9.0862    1.4625   -2.1414 H   0  0  0  0  0  0  0  0  0  0  0  0
   -7.6980    2.4505   -2.4813 H   0  0  0  0  0  0  0  0  0  0  0  0
   -7.1633    0.5498   -2.1025 H   0  0  0  0  0  0  0  0  0  0  0  0
   -6.0798   -0.5864    0.4592 H   0  0  0  0  0  0  0  0  0  0  0  0
   -7.5399   -2.0287   -1.1606 H   0  0  0  0  0  0  0  0  0  0  0  0
   -6.2507   -1.7590   -2.3373 H   0  0  0  0  0  0  0  0  0  0  0  0
   -4.5664   -2.7655   -0.7678 H   0  0  0  0  0  0  0  0  0  0  0  0
   -5.8898   -3.1141    0.3563 H   0  0  0  0  0  0  0  0  0  0  0  0
   -4.6418   -5.6533   -0.5884 H   0  0  0  0  0  0  0  0  0  0  0  0
   -2.7791    0.1891   -1.3661 H   0  0  0  0  0  0  0  0  0  0  0  0
   -1.8472    0.7384    0.4333 H   0  0  0  0  0  0  0  0  0  0  0  0
   -1.4144   -0.6333    2.2823 H   0  0  0  0  0  0  0  0  0  0  0  0
   -3.0162    0.0863    2.4748 H   0  0  0  0  0  0  0  0  0  0  0  0
   -2.3069   -2.8279    1.6430 H   0  0  0  0  0  0  0  0  0  0  0  0
   -3.9759   -2.2303    1.7836 H   0  0  0  0  0  0  0  0  0  0  0  0
   -4.5164   -3.7414    3.7442 H   0  0  0  0  0  0  0  0  0  0  0  0
    0.1874    0.1200    0.5503 H   0  0  0  0  0  0  0  0  0  0  0  0
    1.2392   -2.4799    0.0688 H   0  0  0  0  0  0  0  0  0  0  0  0
    0.3736   -2.5279   -1.9826 H   0  0  0  0  0  0  0  0  0  0  0  0
    0.8690   -0.9112   -2.4887 H   0  0  0  0  0  0  0  0  0  0  0  0
    3.3137   -1.7695   -2.6225 H   0  0  0  0  0  0  0  0  0  0  0  0
    2.0761   -2.6277   -3.6168 H   0  0  0  0  0  0  0  0  0  0  0  0
    4.3497   -5.0729   -1.9900 H   0  0  0  0  0  0  0  0  0  0  0  0
    4.3351   -1.4778   -0.5694 H   0  0  0  0  0  0  0  0  0  0  0  0
    3.8921    1.2202    0.5187 H   0  0  0  0  0  0  0  0  0  0  0  0
    3.8861    0.0531    2.5638 H   0  0  0  0  0  0  0  0  0  0  0  0
    5.4103    0.9917    2.4361 H   0  0  0  0  0  0  0  0  0  0  0  0
    5.8338   -1.0404    3.5300 H   0  0  0  0  0  0  0  0  0  0  0  0
    6.7053   -1.1137    2.0167 H   0  0  0  0  0  0  0  0  0  0  0  0
    3.0342   -2.8688    2.5908 H   0  0  0  0  0  0  0  0  0  0  0  0
    6.3883    2.1097    1.1827 H   0  0  0  0  0  0  0  0  0  0  0  0
    7.4181    3.5094   -0.2650 H   0  0  0  0  0  0  0  0  0  0  0  0
    9.0781    1.1964    0.9322 H   0  0  0  0  0  0  0  0  0  0  0  0
    8.5133    2.7379    1.6261 H   0  0  0  0  0  0  0  0  0  0  0  0
   10.1756    4.0645    0.4709 H   0  0  0  0  0  0  0  0  0  0  0  0
   10.7706    2.7209    1.4668 H   0  0  0  0  0  0  0  0  0  0  0  0
   12.1514    4.3334   -1.0806 H   0  0  0  0  0  0  0  0  0  0  0  0
    9.3856    2.7136   -3.1619 H   0  0  0  0  0  0  0  0  0  0  0  0
  1  2  1  0
  2  3  1  0
  2  4  1  0
  4  5  1  0
  4  6  1  0
  6  7  2  0
  6  8  1  0
  8  9  1  0
  9 10  1  0
 10 11  1  0
 11 12  1  0
 12 13  1  0
 12 14  2  0
  9 15  1  0
 15 16  2  0
 15 17  1  0
 17 18  1  0
 18 19  1  0
 19 20  1  0
 20 21  1  0
 21 22  1  0
 21 23  2  0
 18 24  1  0
 24 25  2  0
 24 26  1  0
 26 27  1  0
 27 28  1  0
 28 29  1  0
 29 30  1  0
 30 31  1  0
 30 32  2  0
 27 33  1  0
 33 34  2  0
 33 35  1  0
 35 36  1  0
 36 37  1  0
 37 38  1  0
 38 39  1  0
 39 40  1  0
 39 41  2  0
 36 42  1  0
 42 43  2  0
 42 44  1  0
 44 45  1  0
 45 46  1  0
 46 47  1  0
 47 48  1  0
 48 49  1  0
 48 50  2  0
 45 51  1  0
 51 52  1  0
 51 53  2  0
  1 54  1  0
  1 55  1  0
  1 56  1  0
  2 57  1  0
  3 58  1  0
  3 59  1  0
  3 60  1  0
  4 61  1  1
  5 62  1  0
  5 63  1  0
  8 64  1  0
  9 65  1  1
 10 66  1  0
 10 67  1  0
 11 68  1  0
 11 69  1  0
 13 70  1  0
 17 71  1  0
 18 72  1  1
 19 73  1  0
 19 74  1  0
 20 75  1  0
 20 76  1  0
 22 77  1  0
 26 78  1  0
 27 79  1  1
 28 80  1  0
 28 81  1  0
 29 82  1  0
 29 83  1  0
 31 84  1  0
 35 85  1  0
 36 86  1  1
 37 87  1  0
 37 88  1  0
 38 89  1  0
 38 90  1  0
 40 91  1  0
 44 92  1  0
 45 93  1  6
 46 94  1  0
 46 95  1  0
 47 96  1  0
 47 97  1  0
 49 98  1  0
 52 99  1  0
M  END
$$$$
[H]Oc1c(C([H])([H])c2c([H])c([H])c([H])c([H])c2[H])c([H])nc([H])c1C([H])([H])C([H])([H])C([H])([H])N1C(=O)N([H])C([H])([H])C1([H])[H]
     RDKit          3D

 44 46  0  0  0  0  0  0  0  0999 V2000
    1.3866   -1.0813   -1.2503 C   0  0  0  0  0  0  0  0  0  0  0  0
    0.0173   -0.5899   -1.2468 C   0  0  0  0  0  0  0  0  0  0  0  0
   -0.8223   -0.8138   -0.1807 C   0  0  0  0  0  0  0  0  0  0  0  0
   -0.3453   -1.5150    0.8922 O   0  0  0  0  0  0  0  0  0  0  0  0
   -2.1393   -0.3404   -0.1797 C   0  0  0  0  0  0  0  0  0  0  0  0
   -3.0239   -0.6025    0.9957 C   0  0  0  0  0  0  0  0  0  0  0  0
   -4.3540   -0.0037    0.7550 C   0  0  0  0  0  0  0  0  0  0  0  0
   -4.6418    1.3090    1.1343 C   0  0  0  0  0  0  0  0  0  0  0  0
   -5.8814    1.8674    0.9121 C   0  0  0  0  0  0  0  0  0  0  0  0
   -6.8928    1.1515    0.3041 C   0  0  0  0  0  0  0  0  0  0  0  0
   -6.5999   -0.1435   -0.0669 C   0  0  0  0  0  0  0  0  0  0  0  0
   -5.3661   -0.7120    0.1496 C   0  0  0  0  0  0  0  0  0  0  0  0
   -2.6148    0.3650   -1.2622 C   0  0  0  0  0  0  0  0  0  0  0  0
   -1.7823    0.5769   -2.2986 N   0  0  0  0  0  0  0  0  0  0  0  0
   -0.4950    0.1195   -2.3107 C   0  0  0  0  0  0  0  0  0  0  0  0
    2.3442   -0.2982   -0.3969 C   0  0  0  0  0  0  0  0  0  0  0  0
    3.7082   -0.9802   -0.5472 C   0  0  0  0  0  0  0  0  0  0  0  0
    4.7365   -0.3441    0.2136 N   0  0  0  0  0  0  0  0  0  0  0  0
    5.1403   -0.6081    1.5502 C   0  0  0  0  0  0  0  0  0  0  0  0
    4.7017   -1.5303    2.3003 O   0  0  0  0  0  0  0  0  0  0  0  0
    6.1390    0.3490    1.9241 N   0  0  0  0  0  0  0  0  0  0  0  0
    6.0227    1.4441    0.9699 C   0  0  0  0  0  0  0  0  0  0  0  0
    5.5792    0.7221   -0.2665 C   0  0  0  0  0  0  0  0  0  0  0  0
    1.4805   -2.1499   -0.9438 H   0  0  0  0  0  0  0  0  0  0  0  0
    1.7775   -1.0359   -2.2941 H   0  0  0  0  0  0  0  0  0  0  0  0
   -0.8944   -1.7287    1.7258 H   0  0  0  0  0  0  0  0  0  0  0  0
   -2.6001   -0.0964    1.8906 H   0  0  0  0  0  0  0  0  0  0  0  0
   -3.1085   -1.6973    1.1301 H   0  0  0  0  0  0  0  0  0  0  0  0
   -3.8450    1.8707    1.6124 H   0  0  0  0  0  0  0  0  0  0  0  0
   -6.0796    2.8946    1.2181 H   0  0  0  0  0  0  0  0  0  0  0  0
   -7.8638    1.6061    0.1362 H   0  0  0  0  0  0  0  0  0  0  0  0
   -7.3966   -0.7248   -0.5522 H   0  0  0  0  0  0  0  0  0  0  0  0
   -5.1533   -1.7290   -0.1476 H   0  0  0  0  0  0  0  0  0  0  0  0
   -3.6424    0.7435   -1.2795 H   0  0  0  0  0  0  0  0  0  0  0  0
    0.1023    0.3309   -3.1747 H   0  0  0  0  0  0  0  0  0  0  0  0
    2.1165   -0.3619    0.6875 H   0  0  0  0  0  0  0  0  0  0  0  0
    2.3782    0.7464   -0.7077 H   0  0  0  0  0  0  0  0  0  0  0  0
    3.5634   -2.0262   -0.1468 H   0  0  0  0  0  0  0  0  0  0  0  0
    3.9119   -1.0499   -1.6303 H   0  0  0  0  0  0  0  0  0  0  0  0
    6.7951    0.2628    2.7093 H   0  0  0  0  0  0  0  0  0  0  0  0
    5.2393    2.1412    1.2843 H   0  0  0  0  0  0  0  0  0  0  0  0
    7.0240    1.9401    0.8375 H   0  0  0  0  0  0  0  0  0  0  0  0
    6.4279    0.3611   -0.8935 H   0  0  0  0  0  0  0  0  0  0  0  0
    4.9500    1.3612   -0.9188 H   0  0  0  0  0  0  0  0  0  0  0  0
  1  2  1  0
  2  3  2  0
  3  4  1  0
  3  5  1  0
  5  6  1  0
  6  7  1  0
  7  8  2  0
  8  9  1  0
  9 10  2  0
 10 11  1  0
 11 12  2  0
  5 13  2  0
 13 14  1  0
 14 15  2  0
  1 16  1  0
 16 17  1  0
 17 18  1  0
 18 19  1  0
 19 20  2  0
 19 21  1  0
 21 22  1  0
 22 23  1  0
 15  2  1  0
 23 18  1  0
 12  7  1  0
  1 24  1  0
  1 25  1  0
  4 26  1  0
  6 27  1  0
  6 28  1  0
  8 29  1  0
  9 30  1  0
 10 31  1  0
 11 32  1  0
 12 33  1  0
 13 34  1  0
 15 35  1  0
 16 36  1  0
 16 37  1  0
 17 38  1  0
 17 39  1  0
 21 40  1  0
 22 41  1  0
 22 42  1  0
 23 43  1  0
 23 44  1  0
M  END
$$$$
[H]OC(=O)[C@@]([H])(N([H])C(=O)[C@@]([H])(N([H])[H])C([H])([H])C([H])([H])N=C(N([H])[H])N([H])[H])C([H])([H])c1c([H])c([H])c(O[H])c([H])c1[H]
     RDKit          3D

 44 44  0  0  0  0  0  0  0  0999 V2000
    2.4792    1.9739   -0.8607 N   0  0  0  0  0  0  0  0  0  0  0  0
    2.5425    0.5654   -0.4226 C   0  0  1  0  0  0  0  0  0  0  0  0
    3.1575    0.4961    0.9531 C   0  0  0  0  0  0  0  0  0  0  0  0
    3.2506   -0.9067    1.4413 C   0  0  0  0  0  0  0  0  0  0  0  0
    4.0294   -1.7641    0.5924 N   0  0  0  0  0  0  0  0  0  0  0  0
    5.2802   -1.6979    0.4121 C   0  0  0  0  0  0  0  0  0  0  0  0
    5.9256   -2.6066   -0.4538 N   0  0  0  0  0  0  0  0  0  0  0  0
    6.0438   -0.7144    1.0750 N   0  0  0  0  0  0  0  0  0  0  0  0
    1.1432    0.0037   -0.4359 C   0  0  0  0  0  0  0  0  0  0  0  0
    0.9213   -1.1991   -0.2086 O   0  0  0  0  0  0  0  0  0  0  0  0
    0.0579    0.8708   -0.7147 N   0  0  0  0  0  0  0  0  0  0  0  0
   -1.3007    0.3077   -0.7241 C   0  0  1  0  0  0  0  0  0  0  0  0
   -2.1307    1.0321    0.2942 C   0  0  0  0  0  0  0  0  0  0  0  0
   -3.5229    0.5547    0.3876 C   0  0  0  0  0  0  0  0  0  0  0  0
   -4.5656    1.1504   -0.3172 C   0  0  0  0  0  0  0  0  0  0  0  0
   -5.8632    0.7106   -0.2344 C   0  0  0  0  0  0  0  0  0  0  0  0
   -6.1437   -0.3576    0.5742 C   0  0  0  0  0  0  0  0  0  0  0  0
   -7.4595   -0.8244    0.6750 O   0  0  0  0  0  0  0  0  0  0  0  0
   -5.1203   -0.9615    1.2816 C   0  0  0  0  0  0  0  0  0  0  0  0
   -3.8347   -0.5355    1.2075 C   0  0  0  0  0  0  0  0  0  0  0  0
   -1.7662    0.4196   -2.1110 C   0  0  0  0  0  0  0  0  0  0  0  0
   -2.9778   -0.0765   -2.5341 O   0  0  0  0  0  0  0  0  0  0  0  0
   -1.0688    0.9881   -3.0263 O   0  0  0  0  0  0  0  0  0  0  0  0
    2.5595    2.0362   -1.9003 H   0  0  0  0  0  0  0  0  0  0  0  0
    3.2246    2.5108   -0.3613 H   0  0  0  0  0  0  0  0  0  0  0  0
    3.1459    0.0309   -1.1591 H   0  0  0  0  0  0  0  0  0  0  0  0
    2.4794    1.1100    1.6125 H   0  0  0  0  0  0  0  0  0  0  0  0
    4.1258    1.0223    0.9219 H   0  0  0  0  0  0  0  0  0  0  0  0
    3.8488   -0.8647    2.4166 H   0  0  0  0  0  0  0  0  0  0  0  0
    2.2974   -1.3540    1.7448 H   0  0  0  0  0  0  0  0  0  0  0  0
    6.6460   -3.2826   -0.0782 H   0  0  0  0  0  0  0  0  0  0  0  0
    5.7177   -2.6411   -1.4721 H   0  0  0  0  0  0  0  0  0  0  0  0
    6.5622    0.0073    0.5102 H   0  0  0  0  0  0  0  0  0  0  0  0
    6.1415   -0.6391    2.1085 H   0  0  0  0  0  0  0  0  0  0  0  0
    0.2099    1.8774   -0.9080 H   0  0  0  0  0  0  0  0  0  0  0  0
   -1.2024   -0.7756   -0.4890 H   0  0  0  0  0  0  0  0  0  0  0  0
   -2.1163    2.1279    0.0528 H   0  0  0  0  0  0  0  0  0  0  0  0
   -1.6307    0.9591    1.3030 H   0  0  0  0  0  0  0  0  0  0  0  0
   -4.2906    2.0010   -0.9501 H   0  0  0  0  0  0  0  0  0  0  0  0
   -6.6348    1.2200   -0.8117 H   0  0  0  0  0  0  0  0  0  0  0  0
   -8.1903   -0.3852    0.1634 H   0  0  0  0  0  0  0  0  0  0  0  0
   -5.3907   -1.7955    1.9020 H   0  0  0  0  0  0  0  0  0  0  0  0
   -3.0120   -0.9950    1.7550 H   0  0  0  0  0  0  0  0  0  0  0  0
   -3.5681    0.4011   -3.2116 H   0  0  0  0  0  0  0  0  0  0  0  0
  1  2  1  0
  2  3  1  0
  3  4  1  0
  4  5  1  0
  5  6  2  3
  6  7  1  0
  6  8  1  0
  2  9  1  0
  9 10  2  0
  9 11  1  0
 11 12  1  0
 12 13  1  0
 13 14  1  0
 14 15  2  0
 15 16  1  0
 16 17  2  0
 17 18  1  0
 17 19  1  0
 19 20  2  0
 12 21  1  0
 21 22  1  0
 21 23  2  0
 20 14  1  0
  1 24  1  0
  1 25  1  0
  2 26  1  6
  3 27  1  0
  3 28  1  0
  4 29  1  0
  4 30  1  0
  7 31  1  0
  7 32  1  0
  8 33  1  0
  8 34  1  0
 11 35  1  0
 12 36  1  1
 13 37  1  0
 13 38  1  0
 15 39  1  0
 16 40  1  0
 18 41  1  0
 19 42  1  0
 20 43  1  0
 22 44  1  0
M  END
$$$$
[H]OC(=O)C([H])([H])C([H])([H])[C@@]1([H])O[C@]([H])(C(C([H])([H])[H])(C([H])([H])[H])C([H])([H])[H])C(=O)[C@]1([H])O[C@]1(c2c([H])c([H])c(OC([H])([H])[H])c([H])c2[H])C([H])([H])C([H])([H])[C@]1([H])c1c([H])c([H])c([H])c(-c2nc([H])c([H])c([H])c2[H])c1[H]
     RDKit          3D

 77 81  0  0  0  0  0  0  0  0999 V2000
   -5.1017   -1.1740   -0.2987 C   0  0  0  0  0  0  0  0  0  0  0  0
   -4.3645   -1.0844    1.0036 C   0  0  0  0  0  0  0  0  0  0  0  0
   -5.0018    0.0116    1.8193 C   0  0  0  0  0  0  0  0  0  0  0  0
   -4.5893   -2.3732    1.7598 C   0  0  0  0  0  0  0  0  0  0  0  0
   -2.9061   -0.8452    0.8856 C   0  0  1  0  0  0  0  0  0  0  0  0
   -2.2333   -1.8495    0.1637 O   0  0  0  0  0  0  0  0  0  0  0  0
   -1.5070   -1.2074   -0.8001 C   0  0  2  0  0  0  0  0  0  0  0  0
   -0.5455   -1.9320   -1.6146 C   0  0  0  0  0  0  0  0  0  0  0  0
   -1.1507   -3.0179   -2.4330 C   0  0  0  0  0  0  0  0  0  0  0  0
   -1.7382   -4.1346   -1.7198 C   0  0  0  0  0  0  0  0  0  0  0  0
   -2.5049   -5.0998   -2.4294 O   0  0  0  0  0  0  0  0  0  0  0  0
   -1.6416   -4.3505   -0.5002 O   0  0  0  0  0  0  0  0  0  0  0  0
   -1.0118    0.0645   -0.0905 C   0  0  1  0  0  0  0  0  0  0  0  0
   -0.4888    0.9520   -0.8148 O   0  0  0  0  0  0  0  0  0  0  0  0
    0.4469    1.8083   -1.0141 C   0  0  1  0  0  0  0  0  0  0  0  0
    0.6112    2.9391    0.0073 C   0  0  0  0  0  0  0  0  0  0  0  0
    1.1124    4.1595   -0.3421 C   0  0  0  0  0  0  0  0  0  0  0  0
    1.2567    5.1936    0.5848 C   0  0  0  0  0  0  0  0  0  0  0  0
    0.8985    5.0172    1.8884 C   0  0  0  0  0  0  0  0  0  0  0  0
    1.0338    6.0504    2.8382 O   0  0  0  0  0  0  0  0  0  0  0  0
    1.5599    7.3095    2.3851 C   0  0  0  0  0  0  0  0  0  0  0  0
    0.3899    3.7873    2.2622 C   0  0  0  0  0  0  0  0  0  0  0  0
    0.2567    2.7744    1.3187 C   0  0  0  0  0  0  0  0  0  0  0  0
    1.7851    1.6014   -1.6285 C   0  0  2  0  0  0  0  0  0  0  0  0
    1.2576    1.8825   -3.0450 C   0  0  0  0  0  0  0  0  0  0  0  0
    0.0843    2.5092   -2.3900 C   0  0  0  0  0  0  0  0  0  0  0  0
    2.5468    0.3896   -1.5863 C   0  0  0  0  0  0  0  0  0  0  0  0
    3.2205    0.0482   -2.7780 C   0  0  0  0  0  0  0  0  0  0  0  0
    4.0001   -1.0805   -2.8591 C   0  0  0  0  0  0  0  0  0  0  0  0
    4.1362   -1.9019   -1.7686 C   0  0  0  0  0  0  0  0  0  0  0  0
    3.4991   -1.6190   -0.5650 C   0  0  0  0  0  0  0  0  0  0  0  0
    2.7395   -0.4838   -0.5506 C   0  0  0  0  0  0  0  0  0  0  0  0
    3.6641   -2.5135    0.5814 C   0  0  0  0  0  0  0  0  0  0  0  0
    3.0132   -2.3778    1.7778 C   0  0  0  0  0  0  0  0  0  0  0  0
    3.2308   -3.2941    2.7709 C   0  0  0  0  0  0  0  0  0  0  0  0
    4.0863   -4.3600    2.6163 C   0  0  0  0  0  0  0  0  0  0  0  0
    4.7271   -4.4657    1.3969 C   0  0  0  0  0  0  0  0  0  0  0  0
    4.5043   -3.5553    0.4260 N   0  0  0  0  0  0  0  0  0  0  0  0
   -2.4624    0.4243    0.3651 C   0  0  0  0  0  0  0  0  0  0  0  0
   -2.9072    1.4937    0.2403 O   0  0  0  0  0  0  0  0  0  0  0  0
   -5.3336   -0.1588   -0.7286 H   0  0  0  0  0  0  0  0  0  0  0  0
   -6.1234   -1.5801   -0.0271 H   0  0  0  0  0  0  0  0  0  0  0  0
   -4.6916   -1.8842   -1.0241 H   0  0  0  0  0  0  0  0  0  0  0  0
   -6.0316   -0.3363    2.1191 H   0  0  0  0  0  0  0  0  0  0  0  0
   -5.0142    0.9861    1.3333 H   0  0  0  0  0  0  0  0  0  0  0  0
   -4.4182    0.0832    2.7764 H   0  0  0  0  0  0  0  0  0  0  0  0
   -3.7441   -2.5844    2.4433 H   0  0  0  0  0  0  0  0  0  0  0  0
   -4.6074   -3.2006    1.0012 H   0  0  0  0  0  0  0  0  0  0  0  0
   -5.5654   -2.3906    2.2833 H   0  0  0  0  0  0  0  0  0  0  0  0
   -2.4948   -0.9612    1.9373 H   0  0  0  0  0  0  0  0  0  0  0  0
   -2.3274   -0.7676   -1.5002 H   0  0  0  0  0  0  0  0  0  0  0  0
    0.2902   -2.3807   -1.0108 H   0  0  0  0  0  0  0  0  0  0  0  0
   -0.0158   -1.2569   -2.3654 H   0  0  0  0  0  0  0  0  0  0  0  0
   -0.4769   -3.3273   -3.2724 H   0  0  0  0  0  0  0  0  0  0  0  0
   -2.0282   -2.5408   -3.0150 H   0  0  0  0  0  0  0  0  0  0  0  0
   -2.8910   -4.8604   -3.3321 H   0  0  0  0  0  0  0  0  0  0  0  0
   -0.5039   -0.2929    0.8443 H   0  0  0  0  0  0  0  0  0  0  0  0
    1.4317    4.3222   -1.3605 H   0  0  0  0  0  0  0  0  0  0  0  0
    1.6543    6.1248    0.2513 H   0  0  0  0  0  0  0  0  0  0  0  0
    2.4908    7.1434    1.7922 H   0  0  0  0  0  0  0  0  0  0  0  0
    1.8456    7.9364    3.2589 H   0  0  0  0  0  0  0  0  0  0  0  0
    0.7550    7.8129    1.8474 H   0  0  0  0  0  0  0  0  0  0  0  0
    0.1024    3.6468    3.2898 H   0  0  0  0  0  0  0  0  0  0  0  0
   -0.1286    1.8605    1.6929 H   0  0  0  0  0  0  0  0  0  0  0  0
    2.5074    2.4784   -1.4260 H   0  0  0  0  0  0  0  0  0  0  0  0
    1.9181    2.5438   -3.6586 H   0  0  0  0  0  0  0  0  0  0  0  0
    0.9463    0.9478   -3.5981 H   0  0  0  0  0  0  0  0  0  0  0  0
   -0.9094    2.1725   -2.7696 H   0  0  0  0  0  0  0  0  0  0  0  0
    0.1028    3.5840   -2.3666 H   0  0  0  0  0  0  0  0  0  0  0  0
    3.1471    0.6721   -3.6677 H   0  0  0  0  0  0  0  0  0  0  0  0
    4.5304   -1.3622   -3.7702 H   0  0  0  0  0  0  0  0  0  0  0  0
    4.7477   -2.8140   -1.8001 H   0  0  0  0  0  0  0  0  0  0  0  0
    2.2289   -0.2302    0.3741 H   0  0  0  0  0  0  0  0  0  0  0  0
    2.3346   -1.5370    1.8924 H   0  0  0  0  0  0  0  0  0  0  0  0
    2.7133   -3.1756    3.7186 H   0  0  0  0  0  0  0  0  0  0  0  0
    4.2308   -5.0673    3.4320 H   0  0  0  0  0  0  0  0  0  0  0  0
    5.4217   -5.3022    1.2223 H   0  0  0  0  0  0  0  0  0  0  0  0
  1  2  1  0
  2  3  1  0
  2  4  1  0
  2  5  1  0
  5  6  1  0
  6  7  1  0
  7  8  1  0
  8  9  1  0
  9 10  1  0
 10 11  1  0
 10 12  2  0
  7 13  1  0
 13 14  1  0
 15 14  1  1
 15 16  1  0
 16 17  2  0
 17 18  1  0
 18 19  2  0
 19 20  1  0
 20 21  1  0
 19 22  1  0
 22 23  2  0
 15 24  1  0
 24 25  1  0
 25 26  1  0
 24 27  1  0
 27 28  2  0
 28 29  1  0
 29 30  2  0
 30 31  1  0
 31 32  2  0
 31 33  1  0
 33 34  2  0
 34 35  1  0
 35 36  2  0
 36 37  1  0
 37 38  2  0
 13 39  1  0
 39 40  2  0
 39  5  1  0
 26 15  1  0
 32 27  1  0
 38 33  1  0
 23 16  1  0
  1 41  1  0
  1 42  1  0
  1 43  1  0
  3 44  1  0
  3 45  1  0
  3 46  1  0
  4 47  1  0
  4 48  1  0
  4 49  1  0
  5 50  1  1
  7 51  1  6
  8 52  1  0
  8 53  1  0
  9 54  1  0
  9 55  1  0
 11 56  1  0
 13 57  1  1
 17 58  1  0
 18 59  1  0
 21 60  1  0
 21 61  1  0
 21 62  1  0
 22 63  1  0
 23 64  1  0
 24 65  1  1
 25 66  1  0
 25 67  1  0
 26 68  1  0
 26 69  1  0
 28 70  1  0
 29 71  1  0
 30 72  1  0
 32 73  1  0
 34 74  1  0
 35 75  1  0
 36 76  1  0
 37 77  1  0
M  END
$$$$
[H]O[C@]1([H])[C@@]([H])(C([H])([H])OP(=O)(O[H])OP(=O)(O[H])O[H])O[C@@]([H])(n2c([H])nc3c(N([H])[H])nc([H])nc32)[C@]1([H])O[H]
     RDKit          3D

 42 44  0  0  0  0  0  0  0  0999 V2000
   -5.5858    2.7066   -0.5194 N   0  0  0  0  0  0  0  0  0  0  0  0
   -5.1159    1.4760    0.0108 C   0  0  0  0  0  0  0  0  0  0  0  0
   -5.9272    0.4247    0.2437 N   0  0  0  0  0  0  0  0  0  0  0  0
   -5.4161   -0.7101    0.7468 C   0  0  0  0  0  0  0  0  0  0  0  0
   -4.1184   -0.8534    1.0342 N   0  0  0  0  0  0  0  0  0  0  0  0
   -3.2751    0.1579    0.8216 C   0  0  0  0  0  0  0  0  0  0  0  0
   -1.9283    0.3121    1.0108 N   0  0  0  0  0  0  0  0  0  0  0  0
   -1.6612    1.5620    0.6077 C   0  0  0  0  0  0  0  0  0  0  0  0
   -2.7578    2.1980    0.1783 N   0  0  0  0  0  0  0  0  0  0  0  0
   -3.7743    1.3333    0.3060 C   0  0  0  0  0  0  0  0  0  0  0  0
   -1.0158   -0.6848    1.5386 C   0  0  2  0  0  0  0  0  0  0  0  0
    0.2860   -0.2664    1.3491 O   0  0  0  0  0  0  0  0  0  0  0  0
    0.8174   -0.8342    0.2246 C   0  0  2  0  0  0  0  0  0  0  0  0
    1.6152    0.0755   -0.6428 C   0  0  0  0  0  0  0  0  0  0  0  0
    2.6843    0.5569    0.1452 O   0  0  0  0  0  0  0  0  0  0  0  0
    3.6621    1.6040   -0.7381 P   0  0  0  0  0  0  0  0  0  0  0  0
    2.8393    2.0329   -2.1655 O   0  0  0  0  0  0  0  0  0  0  0  0
    4.0290    2.8425    0.0398 O   0  0  0  0  0  0  0  0  0  0  0  0
    5.0668    0.8034   -1.1797 O   0  0  0  0  0  0  0  0  0  0  0  0
    5.7546   -0.0719    0.0759 P   0  0  0  0  0  0  0  0  0  0  0  0
    6.1093   -1.6329   -0.5025 O   0  0  0  0  0  0  0  0  0  0  0  0
    7.1822    0.6553    0.6227 O   0  0  0  0  0  0  0  0  0  0  0  0
    4.8417   -0.2329    1.2544 O   0  0  0  0  0  0  0  0  0  0  0  0
   -0.3642   -1.4766   -0.5192 C   0  0  1  0  0  0  0  0  0  0  0  0
    0.0318   -2.5060   -1.3242 O   0  0  0  0  0  0  0  0  0  0  0  0
   -1.0814   -1.9720    0.7467 C   0  0  1  0  0  0  0  0  0  0  0  0
   -0.2123   -2.8760    1.3444 O   0  0  0  0  0  0  0  0  0  0  0  0
   -5.9591    3.4149    0.1432 H   0  0  0  0  0  0  0  0  0  0  0  0
   -5.5492    2.8757   -1.5432 H   0  0  0  0  0  0  0  0  0  0  0  0
   -6.1422   -1.5102    0.9043 H   0  0  0  0  0  0  0  0  0  0  0  0
   -0.6671    2.0177    0.6238 H   0  0  0  0  0  0  0  0  0  0  0  0
   -1.2008   -0.8631    2.6232 H   0  0  0  0  0  0  0  0  0  0  0  0
    1.4363   -1.7120    0.5620 H   0  0  0  0  0  0  0  0  0  0  0  0
    1.9710   -0.3780   -1.5697 H   0  0  0  0  0  0  0  0  0  0  0  0
    1.0254    0.9763   -0.9057 H   0  0  0  0  0  0  0  0  0  0  0  0
    2.8340    1.2104   -2.7406 H   0  0  0  0  0  0  0  0  0  0  0  0
    6.1433   -1.6184   -1.5091 H   0  0  0  0  0  0  0  0  0  0  0  0
    7.7498   -0.0424    0.9997 H   0  0  0  0  0  0  0  0  0  0  0  0
   -0.9861   -0.7162   -0.9911 H   0  0  0  0  0  0  0  0  0  0  0  0
   -0.6865   -2.6783   -1.9848 H   0  0  0  0  0  0  0  0  0  0  0  0
   -2.0680   -2.3539    0.5546 H   0  0  0  0  0  0  0  0  0  0  0  0
   -0.5867   -3.2466    2.1815 H   0  0  0  0  0  0  0  0  0  0  0  0
  1  2  1  0
  2  3  2  0
  3  4  1  0
  4  5  2  0
  5  6  1  0
  6  7  1  0
  7  8  1  0
  8  9  2  0
  9 10  1  0
  7 11  1  0
 11 12  1  0
 12 13  1  0
 13 14  1  0
 14 15  1  0
 15 16  1  0
 16 17  1  0
 16 18  2  0
 16 19  1  0
 19 20  1  0
 20 21  1  0
 20 22  1  0
 20 23  2  0
 13 24  1  0
 24 25  1  0
 24 26  1  0
 26 27  1  0
 10  2  1  0
 26 11  1  0
 10  6  2  0
  1 28  1  0
  1 29  1  0
  4 30  1  0
  8 31  1  0
 11 32  1  1
 13 33  1  1
 14 34  1  0
 14 35  1  0
 17 36  1  0
 21 37  1  0
 22 38  1  0
 24 39  1  6
 25 40  1  0
 26 41  1  6
 27 42  1  0
M  END
$$$$
[H]c1c([H])c([H])c(N([H])C(=O)c2c(C([H])([H])[H])c([H])n(C([H])([H])[H])c2C(=O)c2c(Cl)c([H])c([H])c([H])c2C([H])([H])[H])c([H])c1[H]
     RDKit          3D

 45 47  0  0  0  0  0  0  0  0999 V2000
    1.6991   -3.4934    1.0183 C   0  0  0  0  0  0  0  0  0  0  0  0
    0.4211   -2.7251    1.2567 C   0  0  0  0  0  0  0  0  0  0  0  0
   -0.5961   -3.0551    2.1148 C   0  0  0  0  0  0  0  0  0  0  0  0
   -1.5849   -2.1604    2.0674 N   0  0  0  0  0  0  0  0  0  0  0  0
   -2.7671   -2.2921    2.9004 C   0  0  0  0  0  0  0  0  0  0  0  0
   -1.2403   -1.2057    1.1680 C   0  0  0  0  0  0  0  0  0  0  0  0
   -2.0789   -0.0534    0.9532 C   0  0  0  0  0  0  0  0  0  0  0  0
   -2.4772    0.5609    2.0303 O   0  0  0  0  0  0  0  0  0  0  0  0
   -2.5728    0.5455   -0.2615 C   0  0  0  0  0  0  0  0  0  0  0  0
   -2.1711    1.8218   -0.6225 C   0  0  0  0  0  0  0  0  0  0  0  0
   -1.1661    2.5848    0.1516 C   0  0  0  0  0  0  0  0  0  0  0  0
   -2.6973    2.4202   -1.7584 C   0  0  0  0  0  0  0  0  0  0  0  0
   -3.6184    1.7981   -2.5666 C   0  0  0  0  0  0  0  0  0  0  0  0
   -4.0246    0.5277   -2.2221 C   0  0  0  0  0  0  0  0  0  0  0  0
   -3.4991   -0.0649   -1.0914 C   0  0  0  0  0  0  0  0  0  0  0  0
   -4.0536   -1.6917   -0.6993 Cl  0  0  0  0  0  0  0  0  0  0  0  0
   -0.0021   -1.5557    0.6699 C   0  0  0  0  0  0  0  0  0  0  0  0
    0.8090   -0.7351   -0.2434 C   0  0  0  0  0  0  0  0  0  0  0  0
    0.3455   -0.5261   -1.3879 O   0  0  0  0  0  0  0  0  0  0  0  0
    2.0515   -0.2124    0.1952 N   0  0  0  0  0  0  0  0  0  0  0  0
    2.9579    0.5948   -0.4880 C   0  0  0  0  0  0  0  0  0  0  0  0
    3.5027    1.6537    0.2573 C   0  0  0  0  0  0  0  0  0  0  0  0
    4.3921    2.4959   -0.3162 C   0  0  0  0  0  0  0  0  0  0  0  0
    4.8105    2.3691   -1.6403 C   0  0  0  0  0  0  0  0  0  0  0  0
    4.2607    1.3156   -2.3617 C   0  0  0  0  0  0  0  0  0  0  0  0
    3.3610    0.4543   -1.8034 C   0  0  0  0  0  0  0  0  0  0  0  0
    1.7622   -4.3037    1.7751 H   0  0  0  0  0  0  0  0  0  0  0  0
    2.5711   -2.8651    1.1888 H   0  0  0  0  0  0  0  0  0  0  0  0
    1.6613   -4.0083    0.0426 H   0  0  0  0  0  0  0  0  0  0  0  0
   -0.5179   -3.9656    2.7379 H   0  0  0  0  0  0  0  0  0  0  0  0
   -3.3837   -1.4125    2.9772 H   0  0  0  0  0  0  0  0  0  0  0  0
   -2.4258   -2.5588    3.9313 H   0  0  0  0  0  0  0  0  0  0  0  0
   -3.3389   -3.1453    2.5215 H   0  0  0  0  0  0  0  0  0  0  0  0
   -1.1794    2.4475    1.2213 H   0  0  0  0  0  0  0  0  0  0  0  0
   -0.1354    2.4442   -0.2985 H   0  0  0  0  0  0  0  0  0  0  0  0
   -1.3701    3.6804   -0.0294 H   0  0  0  0  0  0  0  0  0  0  0  0
   -2.3849    3.4337   -2.0500 H   0  0  0  0  0  0  0  0  0  0  0  0
   -4.0237    2.2893   -3.4579 H   0  0  0  0  0  0  0  0  0  0  0  0
   -4.7551   -0.0163   -2.8153 H   0  0  0  0  0  0  0  0  0  0  0  0
    2.3227   -0.4903    1.1945 H   0  0  0  0  0  0  0  0  0  0  0  0
    3.2052    1.7921    1.2922 H   0  0  0  0  0  0  0  0  0  0  0  0
    4.8332    3.3375    0.2451 H   0  0  0  0  0  0  0  0  0  0  0  0
    5.5241    3.0770   -2.0321 H   0  0  0  0  0  0  0  0  0  0  0  0
    4.6098    1.2497   -3.3828 H   0  0  0  0  0  0  0  0  0  0  0  0
    2.9638   -0.3563   -2.3819 H   0  0  0  0  0  0  0  0  0  0  0  0
  1  2  1  0
  2  3  2  0
  3  4  1  0
  4  5  1  0
  4  6  1  0
  6  7  1  0
  7  8  2  0
  7  9  1  0
  9 10  2  0
 10 11  1  0
 10 12  1  0
 12 13  2  0
 13 14  1  0
 14 15  2  0
 15 16  1  0
  6 17  2  0
 17 18  1  0
 18 19  2  0
 18 20  1  0
 20 21  1  0
 21 22  2  0
 22 23  1  0
 23 24  2  0
 24 25  1  0
 25 26  2  0
 17  2  1  0
 26 21  1  0
 15  9  1  0
  1 27  1  0
  1 28  1  0
  1 29  1  0
  3 30  1  0
  5 31  1  0
  5 32  1  0
  5 33  1  0
 11 34  1  0
 11 35  1  0
 11 36  1  0
 12 37  1  0
 13 38  1  0
 14 39  1  0
 20 40  1  0
 22 41  1  0
 23 42  1  0
 24 43  1  0
 25 44  1  0
 26 45  1  0
M  END
$$$$
[H]c1nc(N2C([H])([H])C([H])([H])N(C3([H])C([H])([H])C([H])([H])N(c4c([H])c([H])c(N([H])c5nc([H])c(Cl)c(N([H])c6c([H])c([H])c([H])c([H])c6S(=O)(=O)C([H])(C([H])([H])[H])C([H])([H])[H])n5)c(OC([H])([H])[H])c4[H])C([H])([H])C3([H])[H])C([H])([H])C2([H])[H])c2c([H])c([H])n([H])c2n1
     RDKit          3D

 91 97  0  0  0  0  0  0  0  0999 V2000
   -0.5994    0.2231   -3.0874 C   0  0  0  0  0  0  0  0  0  0  0  0
   -1.3972    0.0238   -1.9478 O   0  0  0  0  0  0  0  0  0  0  0  0
   -0.7832   -0.2931   -0.7331 C   0  0  0  0  0  0  0  0  0  0  0  0
    0.5800   -0.3991   -0.6661 C   0  0  0  0  0  0  0  0  0  0  0  0
    1.1904   -0.7121    0.5261 C   0  0  0  0  0  0  0  0  0  0  0  0
    0.3845   -0.9091    1.6140 C   0  0  0  0  0  0  0  0  0  0  0  0
   -0.9958   -0.8038    1.5579 C   0  0  0  0  0  0  0  0  0  0  0  0
   -1.6247   -0.4906    0.3807 C   0  0  0  0  0  0  0  0  0  0  0  0
   -3.0185   -0.3512    0.2198 N   0  0  0  0  0  0  0  0  0  0  0  0
   -4.0172   -0.3534    1.1942 C   0  0  0  0  0  0  0  0  0  0  0  0
   -3.8250   -0.4932    2.5021 N   0  0  0  0  0  0  0  0  0  0  0  0
   -4.7992   -0.4590    3.4087 C   0  0  0  0  0  0  0  0  0  0  0  0
   -6.0969   -0.2703    3.0125 C   0  0  0  0  0  0  0  0  0  0  0  0
   -7.4229   -0.2156    4.1476 Cl  0  0  0  0  0  0  0  0  0  0  0  0
   -6.3627   -0.1168    1.6421 C   0  0  0  0  0  0  0  0  0  0  0  0
   -7.6926    0.1086    1.2733 N   0  0  0  0  0  0  0  0  0  0  0  0
   -8.2147    0.2538   -0.0161 C   0  0  0  0  0  0  0  0  0  0  0  0
   -7.4900    0.0373   -1.1767 C   0  0  0  0  0  0  0  0  0  0  0  0
   -8.1018    0.1871   -2.4087 C   0  0  0  0  0  0  0  0  0  0  0  0
   -9.4153    0.5459   -2.5610 C   0  0  0  0  0  0  0  0  0  0  0  0
  -10.1234    0.7576   -1.4051 C   0  0  0  0  0  0  0  0  0  0  0  0
   -9.5656    0.6229   -0.1442 C   0  0  0  0  0  0  0  0  0  0  0  0
  -10.5339    0.9323    1.2690 S   0  0  0  0  0  0  0  0  0  0  0  0
  -10.6728   -0.2898    2.1362 O   0  0  0  0  0  0  0  0  0  0  0  0
   -9.9272    2.0235    2.0995 O   0  0  0  0  0  0  0  0  0  0  0  0
  -12.2049    1.3698    0.7965 C   0  0  0  0  0  0  0  0  0  0  0  0
  -12.9088    0.2012    0.2048 C   0  0  0  0  0  0  0  0  0  0  0  0
  -12.9442    1.8470    2.0697 C   0  0  0  0  0  0  0  0  0  0  0  0
   -5.3076   -0.1679    0.8179 N   0  0  0  0  0  0  0  0  0  0  0  0
    2.6275   -0.7748    0.6764 N   0  0  0  0  0  0  0  0  0  0  0  0
    3.3606    0.3573    0.1977 C   0  0  0  0  0  0  0  0  0  0  0  0
    4.5907   -0.0913   -0.5443 C   0  0  0  0  0  0  0  0  0  0  0  0
    5.3910   -0.9274    0.4275 C   0  0  0  0  0  0  0  0  0  0  0  0
    4.6483   -2.2147    0.7405 C   0  0  0  0  0  0  0  0  0  0  0  0
    3.2648   -1.9043    1.2754 C   0  0  0  0  0  0  0  0  0  0  0  0
    6.7243   -1.1493    0.1630 N   0  0  0  0  0  0  0  0  0  0  0  0
    7.1686   -1.8160   -0.9932 C   0  0  0  0  0  0  0  0  0  0  0  0
    8.4383   -1.1953   -1.5749 C   0  0  0  0  0  0  0  0  0  0  0  0
    9.0579   -0.4151   -0.5089 N   0  0  0  0  0  0  0  0  0  0  0  0
    9.0909   -1.0687    0.7866 C   0  0  0  0  0  0  0  0  0  0  0  0
    7.6495   -1.1371    1.2631 C   0  0  0  0  0  0  0  0  0  0  0  0
    9.5724    0.8594   -0.7261 C   0  0  0  0  0  0  0  0  0  0  0  0
    9.0032    1.9092   -0.0853 N   0  0  0  0  0  0  0  0  0  0  0  0
    9.4838    3.1532   -0.2937 C   0  0  0  0  0  0  0  0  0  0  0  0
   10.5174    3.3729   -1.1243 N   0  0  0  0  0  0  0  0  0  0  0  0
   11.0989    2.3492   -1.7709 C   0  0  0  0  0  0  0  0  0  0  0  0
   12.1262    2.2638   -2.6418 N   0  0  0  0  0  0  0  0  0  0  0  0
   12.3237    0.9961   -3.0044 C   0  0  0  0  0  0  0  0  0  0  0  0
   11.3864    0.2358   -2.3403 C   0  0  0  0  0  0  0  0  0  0  0  0
   10.6199    1.0787   -1.5688 C   0  0  0  0  0  0  0  0  0  0  0  0
   -1.2731    0.4848   -3.9332 H   0  0  0  0  0  0  0  0  0  0  0  0
   -0.0419   -0.7149   -3.3178 H   0  0  0  0  0  0  0  0  0  0  0  0
    0.1057    1.0491   -2.8881 H   0  0  0  0  0  0  0  0  0  0  0  0
    1.2149   -0.2428   -1.5337 H   0  0  0  0  0  0  0  0  0  0  0  0
    0.8760   -1.1604    2.5634 H   0  0  0  0  0  0  0  0  0  0  0  0
   -1.5487   -0.9883    2.4800 H   0  0  0  0  0  0  0  0  0  0  0  0
   -3.3551   -0.2325   -0.7836 H   0  0  0  0  0  0  0  0  0  0  0  0
   -4.5965   -0.5771    4.4668 H   0  0  0  0  0  0  0  0  0  0  0  0
   -8.3966    0.1790    2.0652 H   0  0  0  0  0  0  0  0  0  0  0  0
   -6.4588   -0.2550   -1.1474 H   0  0  0  0  0  0  0  0  0  0  0  0
   -7.5076    0.0097   -3.2891 H   0  0  0  0  0  0  0  0  0  0  0  0
   -9.8245    0.6428   -3.5502 H   0  0  0  0  0  0  0  0  0  0  0  0
  -11.1585    1.0481   -1.5345 H   0  0  0  0  0  0  0  0  0  0  0  0
  -12.1727    2.2255    0.1170 H   0  0  0  0  0  0  0  0  0  0  0  0
  -13.3717    0.5354   -0.7535 H   0  0  0  0  0  0  0  0  0  0  0  0
  -12.2338   -0.6488   -0.0244 H   0  0  0  0  0  0  0  0  0  0  0  0
  -13.7450   -0.1158    0.8771 H   0  0  0  0  0  0  0  0  0  0  0  0
  -13.9982    1.9646    1.8156 H   0  0  0  0  0  0  0  0  0  0  0  0
  -12.4712    2.8221    2.3196 H   0  0  0  0  0  0  0  0  0  0  0  0
  -12.7460    1.1162    2.8763 H   0  0  0  0  0  0  0  0  0  0  0  0
    3.6589    1.0438    1.0567 H   0  0  0  0  0  0  0  0  0  0  0  0
    2.7559    0.9576   -0.5330 H   0  0  0  0  0  0  0  0  0  0  0  0
    5.1910    0.8247   -0.7372 H   0  0  0  0  0  0  0  0  0  0  0  0
    4.2719   -0.6116   -1.4445 H   0  0  0  0  0  0  0  0  0  0  0  0
    5.3218   -0.3418    1.4068 H   0  0  0  0  0  0  0  0  0  0  0  0
    5.2164   -2.7347    1.5336 H   0  0  0  0  0  0  0  0  0  0  0  0
    4.6280   -2.8833   -0.1440 H   0  0  0  0  0  0  0  0  0  0  0  0
    3.3798   -1.7361    2.3894 H   0  0  0  0  0  0  0  0  0  0  0  0
    2.6662   -2.8269    1.0967 H   0  0  0  0  0  0  0  0  0  0  0  0
    6.3661   -1.8501   -1.7323 H   0  0  0  0  0  0  0  0  0  0  0  0
    7.4236   -2.8651   -0.7416 H   0  0  0  0  0  0  0  0  0  0  0  0
    9.1567   -1.9891   -1.8483 H   0  0  0  0  0  0  0  0  0  0  0  0
    8.2427   -0.5983   -2.4802 H   0  0  0  0  0  0  0  0  0  0  0  0
    9.6720   -0.4806    1.5189 H   0  0  0  0  0  0  0  0  0  0  0  0
    9.4838   -2.1040    0.6562 H   0  0  0  0  0  0  0  0  0  0  0  0
    7.5442   -2.0935    1.8091 H   0  0  0  0  0  0  0  0  0  0  0  0
    7.4657   -0.3298    2.0000 H   0  0  0  0  0  0  0  0  0  0  0  0
    8.9853    3.9677    0.2486 H   0  0  0  0  0  0  0  0  0  0  0  0
   12.6950    3.0858   -2.9892 H   0  0  0  0  0  0  0  0  0  0  0  0
   13.0561    0.5618   -3.6832 H   0  0  0  0  0  0  0  0  0  0  0  0
   11.2684   -0.8284   -2.4059 H   0  0  0  0  0  0  0  0  0  0  0  0
  1  2  1  0
  2  3  1  0
  3  4  2  0
  4  5  1  0
  5  6  2  0
  6  7  1  0
  7  8  2  0
  8  9  1  0
  9 10  1  0
 10 11  2  0
 11 12  1  0
 12 13  2  0
 13 14  1  0
 13 15  1  0
 15 16  1  0
 16 17  1  0
 17 18  2  0
 18 19  1  0
 19 20  2  0
 20 21  1  0
 21 22  2  0
 22 23  1  0
 23 24  2  0
 23 25  2  0
 23 26  1  0
 26 27  1  0
 26 28  1  0
 15 29  2  0
  5 30  1  0
 30 31  1  0
 31 32  1  0
 32 33  1  0
 33 34  1  0
 34 35  1  0
 33 36  1  0
 36 37  1  0
 37 38  1  0
 38 39  1  0
 39 40  1  0
 40 41  1  0
 39 42  1  0
 42 43  2  0
 43 44  1  0
 44 45  2  0
 45 46  1  0
 46 47  1  0
 47 48  1  0
 48 49  2  0
 49 50  1  0
  8  3  1  0
 29 10  1  0
 35 30  1  0
 41 36  1  0
 50 42  1  0
 22 17  1  0
 50 46  2  0
  1 51  1  0
  1 52  1  0
  1 53  1  0
  4 54  1  0
  6 55  1  0
  7 56  1  0
  9 57  1  0
 12 58  1  0
 16 59  1  0
 18 60  1  0
 19 61  1  0
 20 62  1  0
 21 63  1  0
 26 64  1  0
 27 65  1  0
 27 66  1  0
 27 67  1  0
 28 68  1  0
 28 69  1  0
 28 70  1  0
 31 71  1  0
 31 72  1  0
 32 73  1  0
 32 74  1  0
 33 75  1  0
 34 76  1  0
 34 77  1  0
 35 78  1  0
 35 79  1  0
 37 80  1  0
 37 81  1  0
 38 82  1  0
 38 83  1  0
 40 84  1  0
 40 85  1  0
 41 86  1  0
 41 87  1  0
 44 88  1  0
 47 89  1  0
 48 90  1  0
 49 91  1  0
M  END
$$$$
[H]C1=C([H])C(C([H])([H])[H])(C([H])([H])[H])C([H])([H])C([H])(c2nc([H])c([H])c(-c3c([H])nn(C4([H])C([H])([H])C([H])([H])OC([H])([H])C4([H])[H])c3[H])c2[H])N([H])C(=O)N1C([H])([H])[H]
     RDKit          3D

 58 61  0  0  0  0  0  0  0  0999 V2000
   -5.9748    2.8454    1.6031 C   0  0  0  0  0  0  0  0  0  0  0  0
   -5.2681    1.6322    1.2472 N   0  0  0  0  0  0  0  0  0  0  0  0
   -6.1373    0.5715    0.8332 C   0  0  0  0  0  0  0  0  0  0  0  0
   -6.0324   -0.5204    0.1179 C   0  0  0  0  0  0  0  0  0  0  0  0
   -4.9027   -1.1578   -0.6090 C   0  0  0  0  0  0  0  0  0  0  0  0
   -5.3024   -2.5772   -1.0364 C   0  0  0  0  0  0  0  0  0  0  0  0
   -4.6829   -0.3815   -1.8749 C   0  0  0  0  0  0  0  0  0  0  0  0
   -3.7180   -1.1772    0.3122 C   0  0  0  0  0  0  0  0  0  0  0  0
   -2.6539   -0.1859   -0.0130 C   0  0  0  0  0  0  0  0  0  0  0  0
   -2.7317    0.9100    0.9338 N   0  0  0  0  0  0  0  0  0  0  0  0
   -3.8410    1.6875    1.3643 C   0  0  0  0  0  0  0  0  0  0  0  0
   -3.5018    2.6907    2.0212 O   0  0  0  0  0  0  0  0  0  0  0  0
   -1.3215   -0.8125   -0.0136 C   0  0  0  0  0  0  0  0  0  0  0  0
   -0.1455   -0.0816   -0.0152 C   0  0  0  0  0  0  0  0  0  0  0  0
    1.0980   -0.6803   -0.0183 C   0  0  0  0  0  0  0  0  0  0  0  0
    1.1161   -2.0605   -0.0195 C   0  0  0  0  0  0  0  0  0  0  0  0
   -0.0590   -2.8113   -0.0179 C   0  0  0  0  0  0  0  0  0  0  0  0
   -1.2392   -2.1509   -0.0149 N   0  0  0  0  0  0  0  0  0  0  0  0
    2.3233    0.1197   -0.0209 C   0  0  0  0  0  0  0  0  0  0  0  0
    2.5369    1.3580    0.5520 C   0  0  0  0  0  0  0  0  0  0  0  0
    3.8144    1.6795    0.2804 N   0  0  0  0  0  0  0  0  0  0  0  0
    4.4027    0.7380   -0.4132 N   0  0  0  0  0  0  0  0  0  0  0  0
    3.5195   -0.2268   -0.6132 C   0  0  0  0  0  0  0  0  0  0  0  0
    5.7724    0.6802   -0.9148 C   0  0  0  0  0  0  0  0  0  0  0  0
    6.5892    1.8437   -0.4149 C   0  0  0  0  0  0  0  0  0  0  0  0
    7.8357    1.3805    0.3008 C   0  0  0  0  0  0  0  0  0  0  0  0
    8.5589    0.4614   -0.4191 O   0  0  0  0  0  0  0  0  0  0  0  0
    7.8623   -0.6447   -0.8238 C   0  0  0  0  0  0  0  0  0  0  0  0
    6.4090   -0.6276   -0.4783 C   0  0  0  0  0  0  0  0  0  0  0  0
   -5.3498    3.7455    1.3952 H   0  0  0  0  0  0  0  0  0  0  0  0
   -6.3102    2.8102    2.6561 H   0  0  0  0  0  0  0  0  0  0  0  0
   -6.9124    2.8631    0.9835 H   0  0  0  0  0  0  0  0  0  0  0  0
   -7.1507    0.6934    1.2030 H   0  0  0  0  0  0  0  0  0  0  0  0
   -6.9556   -1.0911    0.0267 H   0  0  0  0  0  0  0  0  0  0  0  0
   -6.3921   -2.6522   -1.2015 H   0  0  0  0  0  0  0  0  0  0  0  0
   -4.9341   -3.2766   -0.2590 H   0  0  0  0  0  0  0  0  0  0  0  0
   -4.7119   -2.7966   -1.9493 H   0  0  0  0  0  0  0  0  0  0  0  0
   -4.6870    0.6889   -1.6284 H   0  0  0  0  0  0  0  0  0  0  0  0
   -5.5815   -0.5663   -2.5187 H   0  0  0  0  0  0  0  0  0  0  0  0
   -3.8163   -0.7194   -2.4554 H   0  0  0  0  0  0  0  0  0  0  0  0
   -4.0517   -1.0245    1.3828 H   0  0  0  0  0  0  0  0  0  0  0  0
   -3.3284   -2.2175    0.3086 H   0  0  0  0  0  0  0  0  0  0  0  0
   -2.7739    0.2826   -1.0132 H   0  0  0  0  0  0  0  0  0  0  0  0
   -1.8587    1.2078    1.3959 H   0  0  0  0  0  0  0  0  0  0  0  0
   -0.2487    0.9927   -0.0144 H   0  0  0  0  0  0  0  0  0  0  0  0
    2.0909   -2.5396   -0.0220 H   0  0  0  0  0  0  0  0  0  0  0  0
    0.0119   -3.8821   -0.0190 H   0  0  0  0  0  0  0  0  0  0  0  0
    1.7877    1.9143    1.0995 H   0  0  0  0  0  0  0  0  0  0  0  0
    3.6861   -1.1682   -1.1615 H   0  0  0  0  0  0  0  0  0  0  0  0
    5.8109    0.6981   -2.0242 H   0  0  0  0  0  0  0  0  0  0  0  0
    6.8659    2.5555   -1.1906 H   0  0  0  0  0  0  0  0  0  0  0  0
    5.9661    2.3821    0.3384 H   0  0  0  0  0  0  0  0  0  0  0  0
    8.4739    2.2769    0.4552 H   0  0  0  0  0  0  0  0  0  0  0  0
    7.6116    0.9486    1.2888 H   0  0  0  0  0  0  0  0  0  0  0  0
    7.9925   -0.7952   -1.9015 H   0  0  0  0  0  0  0  0  0  0  0  0
    8.3101   -1.5421   -0.3129 H   0  0  0  0  0  0  0  0  0  0  0  0
    5.9174   -1.4514   -1.0696 H   0  0  0  0  0  0  0  0  0  0  0  0
    6.2119   -0.8388    0.5854 H   0  0  0  0  0  0  0  0  0  0  0  0
  1  2  1  0
  2  3  1  0
  3  4  2  0
  4  5  1  0
  5  6  1  0
  5  7  1  0
  5  8  1  0
  8  9  1  0
  9 10  1  0
 10 11  1  0
 11 12  2  0
  9 13  1  0
 13 14  2  0
 14 15  1  0
 15 16  2  0
 16 17  1  0
 17 18  2  0
 15 19  1  0
 19 20  1  0
 20 21  2  0
 21 22  1  0
 22 23  1  0
 22 24  1  0
 24 25  1  0
 25 26  1  0
 26 27  1  0
 27 28  1  0
 28 29  1  0
 11  2  1  0
 18 13  1  0
 23 19  2  0
 29 24  1  0
  1 30  1  0
  1 31  1  0
  1 32  1  0
  3 33  1  0
  4 34  1  0
  6 35  1  0
  6 36  1  0
  6 37  1  0
  7 38  1  0
  7 39  1  0
  7 40  1  0
  8 41  1  0
  8 42  1  0
  9 43  1  0
 10 44  1  0
 14 45  1  0
 16 46  1  0
 17 47  1  0
 20 48  1  0
 23 49  1  0
 24 50  1  0
 25 51  1  0
 25 52  1  0
 26 53  1  0
 26 54  1  0
 28 55  1  0
 28 56  1  0
 29 57  1  0
 29 58  1  0
M  END
$$$$
[H]c1nc([H])c(N([H])C(=O)c2c([H])c([H])c(C([H])([H])N3C([H])([H])C([H])([H])C([H])([H])[C@]3([H])C([H])(C([H])([H])[H])C([H])([H])[H])c([H])c2[H])c([H])c1[H]
     RDKit          3D

 49 51  0  0  0  0  0  0  0  0999 V2000
   -5.3685   -0.9121    0.0463 C   0  0  0  0  0  0  0  0  0  0  0  0
   -3.9986   -1.0337   -0.5737 C   0  0  0  0  0  0  0  0  0  0  0  0
   -4.1130   -1.4606   -2.0141 C   0  0  0  0  0  0  0  0  0  0  0  0
   -3.1989    0.2430   -0.4277 C   0  0  1  0  0  0  0  0  0  0  0  0
   -3.8913    1.4108   -1.0972 C   0  0  0  0  0  0  0  0  0  0  0  0
   -3.5550    2.5883   -0.1916 C   0  0  0  0  0  0  0  0  0  0  0  0
   -2.6847    2.0078    0.9246 C   0  0  0  0  0  0  0  0  0  0  0  0
   -2.9863    0.6169    0.9285 N   0  0  0  0  0  0  0  0  0  0  0  0
   -2.1100   -0.2307    1.6507 C   0  0  0  0  0  0  0  0  0  0  0  0
   -0.7387   -0.3474    1.1357 C   0  0  0  0  0  0  0  0  0  0  0  0
    0.1876    0.5847    1.5396 C   0  0  0  0  0  0  0  0  0  0  0  0
    1.4848    0.4612    1.0513 C   0  0  0  0  0  0  0  0  0  0  0  0
    1.8917   -0.5324    0.1941 C   0  0  0  0  0  0  0  0  0  0  0  0
    0.9171   -1.4608   -0.1923 C   0  0  0  0  0  0  0  0  0  0  0  0
   -0.3739   -1.3740    0.2669 C   0  0  0  0  0  0  0  0  0  0  0  0
    3.2638   -0.6567   -0.3078 C   0  0  0  0  0  0  0  0  0  0  0  0
    3.4249   -1.4095   -1.2784 O   0  0  0  0  0  0  0  0  0  0  0  0
    4.3228    0.0406    0.2854 N   0  0  0  0  0  0  0  0  0  0  0  0
    5.6853    0.0221   -0.0770 C   0  0  0  0  0  0  0  0  0  0  0  0
    6.2253   -0.9166   -0.9123 C   0  0  0  0  0  0  0  0  0  0  0  0
    7.5824   -0.8881   -1.2622 C   0  0  0  0  0  0  0  0  0  0  0  0
    8.3918    0.0971   -0.7607 C   0  0  0  0  0  0  0  0  0  0  0  0
    7.8515    1.0002    0.0492 N   0  0  0  0  0  0  0  0  0  0  0  0
    6.5645    1.0095    0.4073 C   0  0  0  0  0  0  0  0  0  0  0  0
   -6.1286   -0.5882   -0.7042 H   0  0  0  0  0  0  0  0  0  0  0  0
   -5.6895   -1.9244    0.3904 H   0  0  0  0  0  0  0  0  0  0  0  0
   -5.3526   -0.2739    0.9425 H   0  0  0  0  0  0  0  0  0  0  0  0
   -3.4712   -1.8384   -0.0252 H   0  0  0  0  0  0  0  0  0  0  0  0
   -5.1578   -1.3228   -2.3584 H   0  0  0  0  0  0  0  0  0  0  0  0
   -3.7277   -2.4781   -2.1953 H   0  0  0  0  0  0  0  0  0  0  0  0
   -3.4927   -0.7529   -2.6156 H   0  0  0  0  0  0  0  0  0  0  0  0
   -2.2277    0.0966   -0.9367 H   0  0  0  0  0  0  0  0  0  0  0  0
   -3.4784    1.5600   -2.1118 H   0  0  0  0  0  0  0  0  0  0  0  0
   -4.9835    1.2844   -1.1520 H   0  0  0  0  0  0  0  0  0  0  0  0
   -4.4870    3.0436    0.2212 H   0  0  0  0  0  0  0  0  0  0  0  0
   -3.0320    3.3697   -0.7593 H   0  0  0  0  0  0  0  0  0  0  0  0
   -1.6636    2.2932    0.6835 H   0  0  0  0  0  0  0  0  0  0  0  0
   -2.9844    2.4717    1.9078 H   0  0  0  0  0  0  0  0  0  0  0  0
   -2.5136   -1.2860    1.6881 H   0  0  0  0  0  0  0  0  0  0  0  0
   -2.0781    0.0586    2.7434 H   0  0  0  0  0  0  0  0  0  0  0  0
   -0.0438    1.4013    2.2128 H   0  0  0  0  0  0  0  0  0  0  0  0
    2.2375    1.2072    1.3649 H   0  0  0  0  0  0  0  0  0  0  0  0
    1.2232   -2.2587   -0.8745 H   0  0  0  0  0  0  0  0  0  0  0  0
   -1.0873   -2.1147   -0.0608 H   0  0  0  0  0  0  0  0  0  0  0  0
    4.1206    0.6795    1.1373 H   0  0  0  0  0  0  0  0  0  0  0  0
    5.6754   -1.7316   -1.3459 H   0  0  0  0  0  0  0  0  0  0  0  0
    7.9785   -1.6601   -1.9366 H   0  0  0  0  0  0  0  0  0  0  0  0
    9.4337    0.1316   -1.0200 H   0  0  0  0  0  0  0  0  0  0  0  0
    6.1561    1.7727    1.0777 H   0  0  0  0  0  0  0  0  0  0  0  0
  1  2  1  0
  2  3  1  0
  2  4  1  0
  4  5  1  0
  5  6  1  0
  6  7  1  0
  7  8  1  0
  8  9  1  0
  9 10  1  0
 10 11  2  0
 11 12  1  0
 12 13  2  0
 13 14  1  0
 14 15  2  0
 13 16  1  0
 16 17  2  0
 16 18  1  0
 18 19  1  0
 19 20  2  0
 20 21  1  0
 21 22  2  0
 22 23  1  0
 23 24  2  0
  8  4  1  0
 15 10  1  0
 24 19  1  0
  1 25  1  0
  1 26  1  0
  1 27  1  0
  2 28  1  0
  3 29  1  0
  3 30  1  0
  3 31  1  0
  4 32  1  6
  5 33  1  0
  5 34  1  0
  6 35  1  0
  6 36  1  0
  7 37  1  0
  7 38  1  0
  9 39  1  0
  9 40  1  0
 11 41  1  0
 12 42  1  0
 14 43  1  0
 15 44  1  0
 18 45  1  0
 20 46  1  0
 21 47  1  0
 22 48  1  0
 24 49  1  0
M  END
$$$$
[H]c1nc(N([H])[H])c(-c2nn(-c3c(Cl)c(OC([H])([H])[H])c([H])c(OC([H])([H])[H])c3Cl)c(=O)c([H])c2[H])nc1-c1c([H])nn(C2([H])C([H])([H])C([H])([H])N([H])C([H])([H])C2([H])[H])c1[H]
     RDKit          3D

 61 65  0  0  0  0  0  0  0  0999 V2000
    8.3414    2.8868    0.5940 C   0  0  0  0  0  0  0  0  0  0  0  0
    7.0256    2.5280    0.8403 O   0  0  0  0  0  0  0  0  0  0  0  0
    6.4571    1.2832    0.8238 C   0  0  0  0  0  0  0  0  0  0  0  0
    7.2225    0.1800    0.5388 C   0  0  0  0  0  0  0  0  0  0  0  0
    6.6715   -1.0974    0.5158 C   0  0  0  0  0  0  0  0  0  0  0  0
    7.4579   -2.1972    0.2268 O   0  0  0  0  0  0  0  0  0  0  0  0
    8.8268   -1.9974   -0.0430 C   0  0  0  0  0  0  0  0  0  0  0  0
    5.3378   -1.2356    0.7853 C   0  0  0  0  0  0  0  0  0  0  0  0
    4.6390   -2.8400    0.7582 Cl  0  0  0  0  0  0  0  0  0  0  0  0
    4.5369   -0.1556    1.0751 C   0  0  0  0  0  0  0  0  0  0  0  0
    5.1211    1.1075    1.0897 C   0  0  0  0  0  0  0  0  0  0  0  0
    4.1231    2.4907    1.4534 Cl  0  0  0  0  0  0  0  0  0  0  0  0
    3.1434   -0.3169    1.3493 N   0  0  0  0  0  0  0  0  0  0  0  0
    2.3053   -0.1731    0.3204 N   0  0  0  0  0  0  0  0  0  0  0  0
    0.9786   -0.3110    0.4851 C   0  0  0  0  0  0  0  0  0  0  0  0
    0.5002   -0.6040    1.7393 C   0  0  0  0  0  0  0  0  0  0  0  0
    1.3550   -0.7565    2.8189 C   0  0  0  0  0  0  0  0  0  0  0  0
    2.7056   -0.6025    2.5833 C   0  0  0  0  0  0  0  0  0  0  0  0
    3.5211   -0.7306    3.5275 O   0  0  0  0  0  0  0  0  0  0  0  0
    0.0837   -0.1527   -0.6418 C   0  0  0  0  0  0  0  0  0  0  0  0
   -1.2676   -0.2855   -0.5149 N   0  0  0  0  0  0  0  0  0  0  0  0
   -2.0889   -0.1407   -1.5507 C   0  0  0  0  0  0  0  0  0  0  0  0
   -1.5548    0.1502   -2.7754 C   0  0  0  0  0  0  0  0  0  0  0  0
   -0.2206    0.2952   -2.9681 N   0  0  0  0  0  0  0  0  0  0  0  0
    0.5719    0.1390   -1.8884 C   0  0  0  0  0  0  0  0  0  0  0  0
    1.9579    0.2860   -2.0644 N   0  0  0  0  0  0  0  0  0  0  0  0
   -3.5207   -0.2913   -1.3852 C   0  0  0  0  0  0  0  0  0  0  0  0
   -4.4694   -0.1614   -2.3971 C   0  0  0  0  0  0  0  0  0  0  0  0
   -5.6776   -0.3743   -1.8450 N   0  0  0  0  0  0  0  0  0  0  0  0
   -5.5400   -0.6309   -0.5411 N   0  0  0  0  0  0  0  0  0  0  0  0
   -4.2398   -0.5850   -0.2440 C   0  0  0  0  0  0  0  0  0  0  0  0
   -6.6023   -0.9148    0.4120 C   0  0  0  0  0  0  0  0  0  0  0  0
   -7.9104   -0.8138   -0.3003 C   0  0  0  0  0  0  0  0  0  0  0  0
   -8.9066    0.0912    0.3871 C   0  0  0  0  0  0  0  0  0  0  0  0
   -8.3682    1.3702    0.7265 N   0  0  0  0  0  0  0  0  0  0  0  0
   -7.0125    1.3594    1.1736 C   0  0  0  0  0  0  0  0  0  0  0  0
   -6.5240    0.0054    1.6104 C   0  0  0  0  0  0  0  0  0  0  0  0
    8.3839    3.9007    0.1222 H   0  0  0  0  0  0  0  0  0  0  0  0
    8.8518    2.1286   -0.0302 H   0  0  0  0  0  0  0  0  0  0  0  0
    8.8463    3.0247    1.5905 H   0  0  0  0  0  0  0  0  0  0  0  0
    8.2672    0.2316    0.3225 H   0  0  0  0  0  0  0  0  0  0  0  0
    9.3623   -1.5575    0.8432 H   0  0  0  0  0  0  0  0  0  0  0  0
    8.9142   -1.3233   -0.9122 H   0  0  0  0  0  0  0  0  0  0  0  0
    9.3096   -2.9872   -0.2520 H   0  0  0  0  0  0  0  0  0  0  0  0
   -0.5620   -0.7126    1.8638 H   0  0  0  0  0  0  0  0  0  0  0  0
    0.9376   -0.9828    3.7708 H   0  0  0  0  0  0  0  0  0  0  0  0
   -2.1917    0.2742   -3.6345 H   0  0  0  0  0  0  0  0  0  0  0  0
    2.3537    1.2505   -2.0129 H   0  0  0  0  0  0  0  0  0  0  0  0
    2.5407   -0.5458   -2.2369 H   0  0  0  0  0  0  0  0  0  0  0  0
   -4.2170    0.0716   -3.4311 H   0  0  0  0  0  0  0  0  0  0  0  0
   -3.7717   -0.7440    0.7175 H   0  0  0  0  0  0  0  0  0  0  0  0
   -6.3966   -1.9488    0.8022 H   0  0  0  0  0  0  0  0  0  0  0  0
   -7.7808   -0.5492   -1.3815 H   0  0  0  0  0  0  0  0  0  0  0  0
   -8.3754   -1.8273   -0.3023 H   0  0  0  0  0  0  0  0  0  0  0  0
   -9.3428   -0.4432    1.2333 H   0  0  0  0  0  0  0  0  0  0  0  0
   -9.7285    0.2703   -0.3640 H   0  0  0  0  0  0  0  0  0  0  0  0
   -8.5096    2.1157    0.0211 H   0  0  0  0  0  0  0  0  0  0  0  0
   -6.9374    2.0349    2.0525 H   0  0  0  0  0  0  0  0  0  0  0  0
   -6.3439    1.7827    0.3832 H   0  0  0  0  0  0  0  0  0  0  0  0
   -7.1271   -0.3657    2.4380 H   0  0  0  0  0  0  0  0  0  0  0  0
   -5.4627    0.0971    1.8926 H   0  0  0  0  0  0  0  0  0  0  0  0
  1  2  1  0
  2  3  1  0
  3  4  2  0
  4  5  1  0
  5  6  1  0
  6  7  1  0
  5  8  2  0
  8  9  1  0
  8 10  1  0
 10 11  2  0
 11 12  1  0
 10 13  1  0
 13 14  1  0
 14 15  2  0
 15 16  1  0
 16 17  2  0
 17 18  1  0
 18 19  2  0
 15 20  1  0
 20 21  2  0
 21 22  1  0
 22 23  2  0
 23 24  1  0
 24 25  2  0
 25 26  1  0
 22 27  1  0
 27 28  1  0
 28 29  2  0
 29 30  1  0
 30 31  1  0
 30 32  1  0
 32 33  1  0
 33 34  1  0
 34 35  1  0
 35 36  1  0
 36 37  1  0
 11  3  1  0
 18 13  1  0
 25 20  1  0
 31 27  2  0
 37 32  1  0
  1 38  1  0
  1 39  1  0
  1 40  1  0
  4 41  1  0
  7 42  1  0
  7 43  1  0
  7 44  1  0
 16 45  1  0
 17 46  1  0
 23 47  1  0
 26 48  1  0
 26 49  1  0
 28 50  1  0
 31 51  1  0
 32 52  1  0
 33 53  1  0
 33 54  1  0
 34 55  1  0
 34 56  1  0
 35 57  1  0
 36 58  1  0
 36 59  1  0
 37 60  1  0
 37 61  1  0
M  END
$$$$
[H]C1=C([H])C([H])(F)C([H])([H])C([H])=C1N([H])C(=O)C1(C(=O)N([H])c2c([H])c([H])c(Oc3c([H])c([H])nc4c([H])c(OC([H])([H])C([H])([H])C([H])([H])N5C([H])([H])C([H])([H])OC([H])([H])C5([H])[H])c(OC([H])([H])[H])c([H])c34)c(F)c2[H])C([H])([H])C1([H])[H]
     RDKit          3D

 82 87  0  0  0  0  0  0  0  0999 V2000
    3.9666    3.0495   -1.7322 C   0  0  0  0  0  0  0  0  0  0  0  0
    4.8184    1.9472   -1.5191 O   0  0  0  0  0  0  0  0  0  0  0  0
    4.2779    0.7150   -1.2054 C   0  0  0  0  0  0  0  0  0  0  0  0
    2.9355    0.4830   -1.0834 C   0  0  0  0  0  0  0  0  0  0  0  0
    2.5057   -0.7878   -0.7673 C   0  0  0  0  0  0  0  0  0  0  0  0
    1.1302   -1.0757   -0.6337 C   0  0  0  0  0  0  0  0  0  0  0  0
    0.2693   -0.0306   -0.8259 O   0  0  0  0  0  0  0  0  0  0  0  0
   -1.0898   -0.1642   -0.6451 C   0  0  0  0  0  0  0  0  0  0  0  0
   -1.9847   -0.0120   -1.6950 C   0  0  0  0  0  0  0  0  0  0  0  0
   -3.3381   -0.1282   -1.5809 C   0  0  0  0  0  0  0  0  0  0  0  0
   -3.8905   -0.4214   -0.3289 C   0  0  0  0  0  0  0  0  0  0  0  0
   -5.3238   -0.4986   -0.2135 N   0  0  0  0  0  0  0  0  0  0  0  0
   -5.9613   -1.3830    0.6262 C   0  0  0  0  0  0  0  0  0  0  0  0
   -5.1921   -2.1849    1.2964 O   0  0  0  0  0  0  0  0  0  0  0  0
   -7.4011   -1.5958    0.9101 C   0  0  0  0  0  0  0  0  0  0  0  0
   -7.6820   -2.4618    2.1265 C   0  0  0  0  0  0  0  0  0  0  0  0
   -7.8126   -3.1190    0.8294 C   0  0  0  0  0  0  0  0  0  0  0  0
   -8.4706   -0.6963    0.4763 C   0  0  0  0  0  0  0  0  0  0  0  0
   -9.6747   -1.1656    0.7176 O   0  0  0  0  0  0  0  0  0  0  0  0
   -8.4814    0.5528   -0.1324 N   0  0  0  0  0  0  0  0  0  0  0  0
   -9.7446    1.2195   -0.4499 C   0  0  0  0  0  0  0  0  0  0  0  0
   -9.9496    2.4040    0.0799 C   0  0  0  0  0  0  0  0  0  0  0  0
  -11.1350    3.2347   -0.1097 C   0  0  0  0  0  0  0  0  0  0  0  0
  -12.2008    2.6387   -0.9439 C   0  0  0  0  0  0  0  0  0  0  0  0
  -12.4721    3.4850   -2.0494 F   0  0  0  0  0  0  0  0  0  0  0  0
  -11.8730    1.3187   -1.4859 C   0  0  0  0  0  0  0  0  0  0  0  0
  -10.7586    0.6480   -1.2759 C   0  0  0  0  0  0  0  0  0  0  0  0
   -3.0432   -0.5784    0.7341 C   0  0  0  0  0  0  0  0  0  0  0  0
   -1.6522   -0.4525    0.5863 C   0  0  0  0  0  0  0  0  0  0  0  0
   -0.8827   -0.5957    1.6903 F   0  0  0  0  0  0  0  0  0  0  0  0
    0.7223   -2.3515   -0.3227 C   0  0  0  0  0  0  0  0  0  0  0  0
    1.6378   -3.3635   -0.1352 C   0  0  0  0  0  0  0  0  0  0  0  0
    2.9451   -3.0865   -0.2619 N   0  0  0  0  0  0  0  0  0  0  0  0
    3.3732   -1.8309   -0.5703 C   0  0  0  0  0  0  0  0  0  0  0  0
    4.7330   -1.5901   -0.6954 C   0  0  0  0  0  0  0  0  0  0  0  0
    5.1920   -0.3333   -1.0085 C   0  0  0  0  0  0  0  0  0  0  0  0
    6.5206   -0.0853   -1.1253 O   0  0  0  0  0  0  0  0  0  0  0  0
    7.5310   -0.9938   -0.8772 C   0  0  0  0  0  0  0  0  0  0  0  0
    7.6262   -1.3701    0.5948 C   0  0  0  0  0  0  0  0  0  0  0  0
    7.9359   -0.0985    1.3961 C   0  0  0  0  0  0  0  0  0  0  0  0
    9.1945    0.4265    0.9288 N   0  0  0  0  0  0  0  0  0  0  0  0
    9.4053    1.7864    1.4776 C   0  0  0  0  0  0  0  0  0  0  0  0
   10.8161    2.1639    1.0165 C   0  0  0  0  0  0  0  0  0  0  0  0
   11.2632    1.3549   -0.0281 O   0  0  0  0  0  0  0  0  0  0  0  0
   11.4615    0.0232    0.3872 C   0  0  0  0  0  0  0  0  0  0  0  0
   10.3466   -0.3576    1.3702 C   0  0  0  0  0  0  0  0  0  0  0  0
    4.5770    3.9509   -1.9692 H   0  0  0  0  0  0  0  0  0  0  0  0
    3.3066    3.2216   -0.8582 H   0  0  0  0  0  0  0  0  0  0  0  0
    3.3086    2.7911   -2.5987 H   0  0  0  0  0  0  0  0  0  0  0  0
    2.2243    1.2761   -1.2311 H   0  0  0  0  0  0  0  0  0  0  0  0
   -1.5528    0.2161   -2.6750 H   0  0  0  0  0  0  0  0  0  0  0  0
   -4.0246   -0.0039   -2.4200 H   0  0  0  0  0  0  0  0  0  0  0  0
   -5.8260    0.1518   -0.8369 H   0  0  0  0  0  0  0  0  0  0  0  0
   -6.8106   -2.7138    2.7607 H   0  0  0  0  0  0  0  0  0  0  0  0
   -8.5985   -2.2800    2.7131 H   0  0  0  0  0  0  0  0  0  0  0  0
   -7.0275   -3.7752    0.4011 H   0  0  0  0  0  0  0  0  0  0  0  0
   -8.7992   -3.3162    0.3639 H   0  0  0  0  0  0  0  0  0  0  0  0
   -7.6334    1.0911   -0.3743 H   0  0  0  0  0  0  0  0  0  0  0  0
   -9.1652    2.8388    0.7401 H   0  0  0  0  0  0  0  0  0  0  0  0
  -11.5358    3.5321    0.9159 H   0  0  0  0  0  0  0  0  0  0  0  0
  -10.8538    4.2484   -0.5572 H   0  0  0  0  0  0  0  0  0  0  0  0
  -13.1586    2.5647   -0.3407 H   0  0  0  0  0  0  0  0  0  0  0  0
  -12.6648    0.8691   -2.1323 H   0  0  0  0  0  0  0  0  0  0  0  0
  -10.6018   -0.3227   -1.7168 H   0  0  0  0  0  0  0  0  0  0  0  0
   -3.4037   -0.7893    1.7394 H   0  0  0  0  0  0  0  0  0  0  0  0
   -0.3200   -2.5956   -0.2356 H   0  0  0  0  0  0  0  0  0  0  0  0
    1.2680   -4.3480    0.1079 H   0  0  0  0  0  0  0  0  0  0  0  0
    5.3620   -2.4538   -0.5623 H   0  0  0  0  0  0  0  0  0  0  0  0
    7.4424   -1.9223   -1.5038 H   0  0  0  0  0  0  0  0  0  0  0  0
    8.4920   -0.5348   -1.2249 H   0  0  0  0  0  0  0  0  0  0  0  0
    6.7751   -1.8921    1.0071 H   0  0  0  0  0  0  0  0  0  0  0  0
    8.4922   -2.0400    0.6815 H   0  0  0  0  0  0  0  0  0  0  0  0
    7.1233    0.6400    1.3255 H   0  0  0  0  0  0  0  0  0  0  0  0
    8.0487   -0.4301    2.4644 H   0  0  0  0  0  0  0  0  0  0  0  0
    9.4079    1.7624    2.5778 H   0  0  0  0  0  0  0  0  0  0  0  0
    8.6320    2.4413    1.0296 H   0  0  0  0  0  0  0  0  0  0  0  0
   11.5508    2.0414    1.8480 H   0  0  0  0  0  0  0  0  0  0  0  0
   10.8264    3.2054    0.6080 H   0  0  0  0  0  0  0  0  0  0  0  0
   11.3001   -0.6008   -0.5146 H   0  0  0  0  0  0  0  0  0  0  0  0
   12.4569   -0.1361    0.8078 H   0  0  0  0  0  0  0  0  0  0  0  0
   10.1090   -1.3943    1.4038 H   0  0  0  0  0  0  0  0  0  0  0  0
   10.6797    0.0679    2.3647 H   0  0  0  0  0  0  0  0  0  0  0  0
  1  2  1  0
  2  3  1  0
  3  4  2  0
  4  5  1  0
  5  6  2  0
  6  7  1  0
  7  8  1  0
  8  9  2  0
  9 10  1  0
 10 11  2  0
 11 12  1  0
 12 13  1  0
 13 14  2  0
 13 15  1  0
 15 16  1  0
 16 17  1  0
 15 18  1  0
 18 19  2  0
 18 20  1  0
 20 21  1  0
 21 22  2  0
 22 23  1  0
 23 24  1  0
 24 25  1  0
 24 26  1  0
 26 27  2  0
 11 28  1  0
 28 29  2  0
 29 30  1  0
  6 31  1  0
 31 32  2  0
 32 33  1  0
 33 34  2  0
 34 35  1  0
 35 36  2  0
 36 37  1  0
 37 38  1  0
 38 39  1  0
 39 40  1  0
 40 41  1  0
 41 42  1  0
 42 43  1  0
 43 44  1  0
 44 45  1  0
 45 46  1  0
 36  3  1  0
 46 41  1  0
 34  5  1  0
 29  8  1  0
 17 15  1  0
 27 21  1  0
  1 47  1  0
  1 48  1  0
  1 49  1  0
  4 50  1  0
  9 51  1  0
 10 52  1  0
 12 53  1  0
 16 54  1  0
 16 55  1  0
 17 56  1  0
 17 57  1  0
 20 58  1  0
 22 59  1  0
 23 60  1  0
 23 61  1  0
 24 62  1  0
 26 63  1  0
 27 64  1  0
 28 65  1  0
 31 66  1  0
 32 67  1  0
 35 68  1  0
 38 69  1  0
 38 70  1  0
 39 71  1  0
 39 72  1  0
 40 73  1  0
 40 74  1  0
 42 75  1  0
 42 76  1  0
 43 77  1  0
 43 78  1  0
 45 79  1  0
 45 80  1  0
 46 81  1  0
 46 82  1  0
M  END
$$$$
[H]c1nn(C([H])([H])[H])c([H])c1-c1c([H])c([H])c(C(=O)N([H])c2c([H])c([H])c(C([H])([H])N3C([H])([H])C([H])([H])SC([H])([H])C3([H])[H])c([H])c2[H])c(C#N)c1[H]
     RDKit          3D

 53 56  0  0  0  0  0  0  0  0999 V2000
    9.9170    1.2756   -0.3814 C   0  0  0  0  0  0  0  0  0  0  0  0
    8.8358    0.3311   -0.0996 N   0  0  0  0  0  0  0  0  0  0  0  0
    7.5294    0.4901   -0.3488 C   0  0  0  0  0  0  0  0  0  0  0  0
    6.8380   -0.6652    0.0616 C   0  0  0  0  0  0  0  0  0  0  0  0
    7.7972   -1.4970    0.5574 C   0  0  0  0  0  0  0  0  0  0  0  0
    9.0002   -0.8816    0.4538 N   0  0  0  0  0  0  0  0  0  0  0  0
    5.3910   -0.8267   -0.1093 C   0  0  0  0  0  0  0  0  0  0  0  0
    4.7715   -0.2559   -1.2283 C   0  0  0  0  0  0  0  0  0  0  0  0
    3.4213   -0.3550   -1.4237 C   0  0  0  0  0  0  0  0  0  0  0  0
    2.6020   -1.0315   -0.5057 C   0  0  0  0  0  0  0  0  0  0  0  0
    1.1373   -1.0238   -0.7530 C   0  0  0  0  0  0  0  0  0  0  0  0
    0.8075   -1.2648   -1.9378 O   0  0  0  0  0  0  0  0  0  0  0  0
    0.2355   -0.7528    0.3032 N   0  0  0  0  0  0  0  0  0  0  0  0
   -1.1673   -0.7328    0.1599 C   0  0  0  0  0  0  0  0  0  0  0  0
   -1.8751   -1.0651   -0.9692 C   0  0  0  0  0  0  0  0  0  0  0  0
   -3.2509   -0.9786   -1.0432 C   0  0  0  0  0  0  0  0  0  0  0  0
   -4.0126   -0.5461    0.0381 C   0  0  0  0  0  0  0  0  0  0  0  0
   -5.5050   -0.4684   -0.0830 C   0  0  0  0  0  0  0  0  0  0  0  0
   -5.8505    0.7403   -0.7305 N   0  0  0  0  0  0  0  0  0  0  0  0
   -5.4982    1.9674   -0.1517 C   0  0  0  0  0  0  0  0  0  0  0  0
   -6.6317    2.7956    0.3656 C   0  0  0  0  0  0  0  0  0  0  0  0
   -8.1335    1.8256    0.6369 S   0  0  0  0  0  0  0  0  0  0  0  0
   -8.3186    0.7396   -0.8081 C   0  0  0  0  0  0  0  0  0  0  0  0
   -7.0153    0.7168   -1.5383 C   0  0  0  0  0  0  0  0  0  0  0  0
   -3.3123   -0.2149    1.1635 C   0  0  0  0  0  0  0  0  0  0  0  0
   -1.9437   -0.2946    1.2518 C   0  0  0  0  0  0  0  0  0  0  0  0
    3.1918   -1.5853    0.5784 C   0  0  0  0  0  0  0  0  0  0  0  0
    4.5930   -1.4846    0.7793 C   0  0  0  0  0  0  0  0  0  0  0  0
    2.4340   -2.3355    1.5319 C   0  0  0  0  0  0  0  0  0  0  0  0
    1.8313   -2.9683    2.3140 N   0  0  0  0  0  0  0  0  0  0  0  0
    9.5783    1.8113   -1.3147 H   0  0  0  0  0  0  0  0  0  0  0  0
    9.9713    2.0096    0.4314 H   0  0  0  0  0  0  0  0  0  0  0  0
   10.8442    0.7051   -0.5363 H   0  0  0  0  0  0  0  0  0  0  0  0
    7.0430    1.3582   -0.7949 H   0  0  0  0  0  0  0  0  0  0  0  0
    7.6058   -2.4982    0.9669 H   0  0  0  0  0  0  0  0  0  0  0  0
    5.3990    0.2696   -1.9471 H   0  0  0  0  0  0  0  0  0  0  0  0
    2.8973    0.0813   -2.2867 H   0  0  0  0  0  0  0  0  0  0  0  0
    0.5976   -0.5169    1.2632 H   0  0  0  0  0  0  0  0  0  0  0  0
   -1.3809   -1.4235   -1.8514 H   0  0  0  0  0  0  0  0  0  0  0  0
   -3.7658   -1.2551   -1.9530 H   0  0  0  0  0  0  0  0  0  0  0  0
   -5.9214   -0.5885    0.9388 H   0  0  0  0  0  0  0  0  0  0  0  0
   -5.8584   -1.3793   -0.6275 H   0  0  0  0  0  0  0  0  0  0  0  0
   -5.0126    2.5926   -0.9603 H   0  0  0  0  0  0  0  0  0  0  0  0
   -4.7331    1.8799    0.6379 H   0  0  0  0  0  0  0  0  0  0  0  0
   -6.2943    3.2977    1.3006 H   0  0  0  0  0  0  0  0  0  0  0  0
   -6.8829    3.6270   -0.3511 H   0  0  0  0  0  0  0  0  0  0  0  0
   -8.6126   -0.2861   -0.4999 H   0  0  0  0  0  0  0  0  0  0  0  0
   -9.0812    1.2107   -1.4727 H   0  0  0  0  0  0  0  0  0  0  0  0
   -7.0159   -0.2451   -2.1273 H   0  0  0  0  0  0  0  0  0  0  0  0
   -6.9384    1.5206   -2.3058 H   0  0  0  0  0  0  0  0  0  0  0  0
   -3.8689    0.1352    2.0517 H   0  0  0  0  0  0  0  0  0  0  0  0
   -1.4187   -0.0190    2.1748 H   0  0  0  0  0  0  0  0  0  0  0  0
    5.0294   -1.9402    1.6505 H   0  0  0  0  0  0  0  0  0  0  0  0
  1  2  1  0
  2  3  1  0
  3  4  2  0
  4  5  1  0
  5  6  2  0
  4  7  1  0
  7  8  2  0
  8  9  1  0
  9 10  2  0
 10 11  1  0
 11 12  2  0
 11 13  1  0
 13 14  1  0
 14 15  2  0
 15 16  1  0
 16 17  2  0
 17 18  1  0
 18 19  1  0
 19 20  1  0
 20 21  1  0
 21 22  1  0
 22 23  1  0
 23 24  1  0
 17 25  1  0
 25 26  2  0
 10 27  1  0
 27 28  2  0
 27 29  1  0
 29 30  3  0
  6  2  1  0
 28  7  1  0
 26 14  1  0
 24 19  1  0
  1 31  1  0
  1 32  1  0
  1 33  1  0
  3 34  1  0
  5 35  1  0
  8 36  1  0
  9 37  1  0
 13 38  1  0
 15 39  1  0
 16 40  1  0
 18 41  1  0
 18 42  1  0
 20 43  1  0
 20 44  1  0
 21 45  1  0
 21 46  1  0
 23 47  1  0
 23 48  1  0
 24 49  1  0
 24 50  1  0
 25 51  1  0
 26 52  1  0
 28 53  1  0
M  END
$$$$
[H]OC(=O)c1c([H])c([H])c([H])c(C(=O)N([H])c2sc(N([H])c3c([H])c([H])c4c([H])c([H])c([H])c([H])c4c3[H])nc2C(=O)N([H])[H])c1[H]
     RDKit          3D

 47 50  0  0  0  0  0  0  0  0999 V2000
    0.6744   -2.9435   -2.4877 N   0  0  0  0  0  0  0  0  0  0  0  0
   -0.4679   -2.2808   -1.9144 C   0  0  0  0  0  0  0  0  0  0  0  0
   -1.5728   -2.6846   -2.2841 O   0  0  0  0  0  0  0  0  0  0  0  0
   -0.2794   -1.1676   -0.9275 C   0  0  0  0  0  0  0  0  0  0  0  0
    0.9058   -0.7688   -0.5610 N   0  0  0  0  0  0  0  0  0  0  0  0
    1.0964    0.1874    0.2872 C   0  0  0  0  0  0  0  0  0  0  0  0
    2.2634    0.7904    0.8344 N   0  0  0  0  0  0  0  0  0  0  0  0
    3.5809    0.4187    0.5402 C   0  0  0  0  0  0  0  0  0  0  0  0
    3.9712   -0.6905   -0.1765 C   0  0  0  0  0  0  0  0  0  0  0  0
    5.3000   -0.9802   -0.4350 C   0  0  0  0  0  0  0  0  0  0  0  0
    6.2544   -0.1274    0.0435 C   0  0  0  0  0  0  0  0  0  0  0  0
    7.5800   -0.4346   -0.2259 C   0  0  0  0  0  0  0  0  0  0  0  0
    8.5800    0.3908    0.2328 C   0  0  0  0  0  0  0  0  0  0  0  0
    8.2858    1.5180    0.9556 C   0  0  0  0  0  0  0  0  0  0  0  0
    6.9712    1.8137    1.2171 C   0  0  0  0  0  0  0  0  0  0  0  0
    5.9354    1.0036    0.7701 C   0  0  0  0  0  0  0  0  0  0  0  0
    4.6190    1.2639    1.0093 C   0  0  0  0  0  0  0  0  0  0  0  0
   -0.5491    0.6258    0.6562 S   0  0  0  0  0  0  0  0  0  0  0  0
   -1.3447   -0.5233   -0.3697 C   0  0  0  0  0  0  0  0  0  0  0  0
   -2.7636   -0.6811   -0.5258 N   0  0  0  0  0  0  0  0  0  0  0  0
   -3.5976    0.1828    0.2294 C   0  0  0  0  0  0  0  0  0  0  0  0
   -3.1354    1.0561    1.0063 O   0  0  0  0  0  0  0  0  0  0  0  0
   -5.0387    0.0587    0.1043 C   0  0  0  0  0  0  0  0  0  0  0  0
   -5.6001   -1.0371   -0.5265 C   0  0  0  0  0  0  0  0  0  0  0  0
   -6.9759   -1.0862   -0.6148 C   0  0  0  0  0  0  0  0  0  0  0  0
   -7.7837   -0.0952   -0.1027 C   0  0  0  0  0  0  0  0  0  0  0  0
   -7.1825    0.9760    0.5163 C   0  0  0  0  0  0  0  0  0  0  0  0
   -5.8175    1.0677    0.6276 C   0  0  0  0  0  0  0  0  0  0  0  0
   -7.9982    2.0537    1.0761 C   0  0  0  0  0  0  0  0  0  0  0  0
   -9.3674    1.9700    0.9690 O   0  0  0  0  0  0  0  0  0  0  0  0
   -7.4862    3.0378    1.6431 O   0  0  0  0  0  0  0  0  0  0  0  0
    0.7407   -3.1331   -3.5117 H   0  0  0  0  0  0  0  0  0  0  0  0
    1.4790   -3.2593   -1.9029 H   0  0  0  0  0  0  0  0  0  0  0  0
    2.1141    1.5844    1.5229 H   0  0  0  0  0  0  0  0  0  0  0  0
    3.2240   -1.3748   -0.5521 H   0  0  0  0  0  0  0  0  0  0  0  0
    5.5278   -1.8755   -1.0088 H   0  0  0  0  0  0  0  0  0  0  0  0
    7.8526   -1.3115   -0.7907 H   0  0  0  0  0  0  0  0  0  0  0  0
    9.6104    0.1162    0.0010 H   0  0  0  0  0  0  0  0  0  0  0  0
    9.0759    2.1437    1.3015 H   0  0  0  0  0  0  0  0  0  0  0  0
    6.7302    2.7085    1.7913 H   0  0  0  0  0  0  0  0  0  0  0  0
    4.3629    2.1619    1.5860 H   0  0  0  0  0  0  0  0  0  0  0  0
   -3.1151   -1.3913   -1.1622 H   0  0  0  0  0  0  0  0  0  0  0  0
   -5.0275   -1.8508   -0.9478 H   0  0  0  0  0  0  0  0  0  0  0  0
   -7.4462   -1.9464   -1.1114 H   0  0  0  0  0  0  0  0  0  0  0  0
   -8.8545   -0.1819   -0.1983 H   0  0  0  0  0  0  0  0  0  0  0  0
   -5.3411    1.9288    1.1247 H   0  0  0  0  0  0  0  0  0  0  0  0
   -9.9903    2.7670    1.0172 H   0  0  0  0  0  0  0  0  0  0  0  0
  1  2  1  0
  2  3  2  0
  2  4  1  0
  4  5  1  0
  5  6  2  0
  6  7  1  0
  7  8  1  0
  8  9  2  0
  9 10  1  0
 10 11  2  0
 11 12  1  0
 12 13  2  0
 13 14  1  0
 14 15  2  0
 15 16  1  0
 16 17  2  0
  6 18  1  0
 18 19  1  0
 19 20  1  0
 20 21  1  0
 21 22  2  0
 21 23  1  0
 23 24  2  0
 24 25  1  0
 25 26  2  0
 26 27  1  0
 27 28  2  0
 27 29  1  0
 29 30  1  0
 29 31  2  0
 19  4  2  0
 28 23  1  0
 17  8  1  0
 16 11  1  0
  1 32  1  0
  1 33  1  0
  7 34  1  0
  9 35  1  0
 10 36  1  0
 12 37  1  0
 13 38  1  0
 14 39  1  0
 15 40  1  0
 17 41  1  0
 20 42  1  0
 24 43  1  0
 25 44  1  0
 26 45  1  0
 28 46  1  0
 30 47  1  0
M  END
$$$$
[H]C1=C(c2c([H])c([H])c3nnn([H])c3c2[H])C([H])([H])[C@@]1(C(=O)N([H])c1c([H])c([H])c(C(F)(F)C(=O)N(C([H])([H])[H])C([H])([H])[H])c([H])c1[H])C(=O)N1C([H])([H])C([H])([H])C([H])([H])C([H])([H])C1([H])[H]
     RDKit          3D

 66 70  0  0  0  0  0  0  0  0999 V2000
    6.9795    2.1658   -0.5045 C   0  0  0  0  0  0  0  0  0  0  0  0
    7.3836    3.3628   -0.6457 O   0  0  0  0  0  0  0  0  0  0  0  0
    6.3933    1.4251   -1.6498 C   0  0  0  0  0  0  0  0  0  0  0  0
    7.1861    0.3588   -1.9749 F   0  0  0  0  0  0  0  0  0  0  0  0
    6.4475    2.2863   -2.7536 F   0  0  0  0  0  0  0  0  0  0  0  0
    4.9872    1.0239   -1.3807 C   0  0  0  0  0  0  0  0  0  0  0  0
    4.5100   -0.2318   -1.6454 C   0  0  0  0  0  0  0  0  0  0  0  0
    3.1753   -0.5820   -1.3847 C   0  0  0  0  0  0  0  0  0  0  0  0
    2.2821    0.3211   -0.8496 C   0  0  0  0  0  0  0  0  0  0  0  0
    0.9340    0.0520   -0.5395 N   0  0  0  0  0  0  0  0  0  0  0  0
    0.2754   -1.1819   -0.5049 C   0  0  0  0  0  0  0  0  0  0  0  0
    0.8391   -2.2429   -0.7529 O   0  0  0  0  0  0  0  0  0  0  0  0
   -1.2099   -1.2433   -0.1486 C   0  0  1  0  0  0  0  0  0  0  0  0
   -1.6885   -2.6269    0.0296 C   0  0  0  0  0  0  0  0  0  0  0  0
   -0.7921   -3.5447    0.0425 O   0  0  0  0  0  0  0  0  0  0  0  0
   -2.9973   -3.0500    0.1865 N   0  0  0  0  0  0  0  0  0  0  0  0
   -3.2581   -4.5034    0.3572 C   0  0  0  0  0  0  0  0  0  0  0  0
   -4.1360   -4.9976   -0.7680 C   0  0  0  0  0  0  0  0  0  0  0  0
   -5.4313   -4.2414   -0.7549 C   0  0  0  0  0  0  0  0  0  0  0  0
   -5.4344   -3.2010    0.3156 C   0  0  0  0  0  0  0  0  0  0  0  0
   -4.2103   -2.2659    0.2081 C   0  0  0  0  0  0  0  0  0  0  0  0
   -1.4750   -0.3397    0.9800 C   0  0  0  0  0  0  0  0  0  0  0  0
   -2.2556    0.4576    0.0297 C   0  0  0  0  0  0  0  0  0  0  0  0
   -3.0321    1.7044    0.0997 C   0  0  0  0  0  0  0  0  0  0  0  0
   -3.6590    2.1968   -1.0023 C   0  0  0  0  0  0  0  0  0  0  0  0
   -4.4046    3.3870   -0.9526 C   0  0  0  0  0  0  0  0  0  0  0  0
   -4.4830    4.0465    0.2552 C   0  0  0  0  0  0  0  0  0  0  0  0
   -3.8582    3.5602    1.3646 C   0  0  0  0  0  0  0  0  0  0  0  0
   -4.1085    4.3963    2.3668 N   0  0  0  0  0  0  0  0  0  0  0  0
   -4.8791    5.3889    1.8860 N   0  0  0  0  0  0  0  0  0  0  0  0
   -5.1174    5.1886    0.5923 N   0  0  0  0  0  0  0  0  0  0  0  0
   -3.1203    2.3729    1.2946 C   0  0  0  0  0  0  0  0  0  0  0  0
   -2.0111   -0.3505   -0.9314 C   0  0  0  0  0  0  0  0  0  0  0  0
    2.7996    1.6010   -0.5886 C   0  0  0  0  0  0  0  0  0  0  0  0
    4.1052    1.9368   -0.8462 C   0  0  0  0  0  0  0  0  0  0  0  0
    7.1039    1.5642    0.7707 N   0  0  0  0  0  0  0  0  0  0  0  0
    7.6822    2.3524    1.8466 C   0  0  0  0  0  0  0  0  0  0  0  0
    6.6993    0.2221    1.0846 C   0  0  0  0  0  0  0  0  0  0  0  0
    5.1990   -0.9567   -2.0670 H   0  0  0  0  0  0  0  0  0  0  0  0
    2.8656   -1.5714   -1.6200 H   0  0  0  0  0  0  0  0  0  0  0  0
    0.3340    0.9069   -0.3008 H   0  0  0  0  0  0  0  0  0  0  0  0
   -2.3031   -5.0678    0.3390 H   0  0  0  0  0  0  0  0  0  0  0  0
   -3.8065   -4.6197    1.2979 H   0  0  0  0  0  0  0  0  0  0  0  0
   -4.3336   -6.0769   -0.5570 H   0  0  0  0  0  0  0  0  0  0  0  0
   -3.6694   -4.8666   -1.7666 H   0  0  0  0  0  0  0  0  0  0  0  0
   -5.5987   -3.7036   -1.7270 H   0  0  0  0  0  0  0  0  0  0  0  0
   -6.2730   -4.9258   -0.5889 H   0  0  0  0  0  0  0  0  0  0  0  0
   -6.3081   -2.5008    0.1548 H   0  0  0  0  0  0  0  0  0  0  0  0
   -5.5341   -3.5641    1.3435 H   0  0  0  0  0  0  0  0  0  0  0  0
   -4.3169   -1.5786    1.0394 H   0  0  0  0  0  0  0  0  0  0  0  0
   -4.2826   -1.7321   -0.7637 H   0  0  0  0  0  0  0  0  0  0  0  0
   -0.5932    0.2090    1.3929 H   0  0  0  0  0  0  0  0  0  0  0  0
   -2.1051   -0.8062    1.7950 H   0  0  0  0  0  0  0  0  0  0  0  0
   -3.6208    1.7068   -1.9679 H   0  0  0  0  0  0  0  0  0  0  0  0
   -4.8792    3.7254   -1.8602 H   0  0  0  0  0  0  0  0  0  0  0  0
   -3.8050    4.3603    3.3562 H   0  0  0  0  0  0  0  0  0  0  0  0
   -2.6563    2.0525    2.2123 H   0  0  0  0  0  0  0  0  0  0  0  0
   -2.3084   -0.3635   -1.9978 H   0  0  0  0  0  0  0  0  0  0  0  0
    2.1225    2.3342   -0.1670 H   0  0  0  0  0  0  0  0  0  0  0  0
    4.4969    2.9344   -0.6403 H   0  0  0  0  0  0  0  0  0  0  0  0
    8.2957    3.1642    1.4108 H   0  0  0  0  0  0  0  0  0  0  0  0
    8.2441    1.7281    2.5678 H   0  0  0  0  0  0  0  0  0  0  0  0
    6.8208    2.8616    2.3656 H   0  0  0  0  0  0  0  0  0  0  0  0
    6.9515   -0.5262    0.3061 H   0  0  0  0  0  0  0  0  0  0  0  0
    5.6118    0.2302    1.3057 H   0  0  0  0  0  0  0  0  0  0  0  0
    7.2304   -0.1222    2.0059 H   0  0  0  0  0  0  0  0  0  0  0  0
  1  2  2  0
  1  3  1  0
  3  4  1  0
  3  5  1  0
  3  6  1  0
  6  7  2  0
  7  8  1  0
  8  9  2  0
  9 10  1  0
 10 11  1  0
 11 12  2  0
 13 11  1  6
 13 14  1  0
 14 15  2  0
 14 16  1  0
 16 17  1  0
 17 18  1  0
 18 19  1  0
 19 20  1  0
 20 21  1  0
 13 22  1  0
 22 23  1  0
 23 24  1  0
 24 25  2  0
 25 26  1  0
 26 27  2  0
 27 28  1  0
 28 29  1  0
 29 30  1  0
 30 31  2  0
 28 32  2  0
 23 33  2  0
  9 34  1  0
 34 35  2  0
  1 36  1  0
 36 37  1  0
 36 38  1  0
 35  6  1  0
 33 13  1  0
 21 16  1  0
 32 24  1  0
 31 27  1  0
  7 39  1  0
  8 40  1  0
 10 41  1  0
 17 42  1  0
 17 43  1  0
 18 44  1  0
 18 45  1  0
 19 46  1  0
 19 47  1  0
 20 48  1  0
 20 49  1  0
 21 50  1  0
 21 51  1  0
 22 52  1  0
 22 53  1  0
 25 54  1  0
 26 55  1  0
 29 56  1  0
 32 57  1  0
 33 58  1  0
 34 59  1  0
 35 60  1  0
 37 61  1  0
 37 62  1  0
 37 63  1  0
 38 64  1  0
 38 65  1  0
 38 66  1  0
M  END
$$$$
[H]c1nc(C(=O)N([H])[H])c(N([H])c2c([H])c([H])c(C3([H])C([H])([H])N(C([H])([H])[H])C3([H])[H])c([H])c2[H])nc1N1C([H])([H])C([H])([H])C([H])([H])[C@@]([H])(N([H])C(=O)N(C([H])([H])C([H])([H])[H])C([H])([H])C([H])([H])[H])C1([H])[H]
     RDKit          3D

 71 74  0  0  0  0  0  0  0  0999 V2000
   -7.2312    0.6208   -1.6684 C   0  0  0  0  0  0  0  0  0  0  0  0
   -6.1104    1.4169   -1.0268 C   0  0  0  0  0  0  0  0  0  0  0  0
   -5.1322    0.4684   -0.4971 N   0  0  0  0  0  0  0  0  0  0  0  0
   -5.2571   -0.0051    0.8546 C   0  0  0  0  0  0  0  0  0  0  0  0
   -4.5055    0.8820    1.8071 C   0  0  0  0  0  0  0  0  0  0  0  0
   -4.0709    0.0423   -1.3260 C   0  0  0  0  0  0  0  0  0  0  0  0
   -3.9998    0.5305   -2.4943 O   0  0  0  0  0  0  0  0  0  0  0  0
   -3.0746   -0.9009   -0.9346 N   0  0  0  0  0  0  0  0  0  0  0  0
   -2.0265   -1.2719   -1.8561 C   0  0  2  0  0  0  0  0  0  0  0  0
   -2.2679   -2.6886   -2.3987 C   0  0  0  0  0  0  0  0  0  0  0  0
   -2.4641   -3.5584   -1.1852 C   0  0  0  0  0  0  0  0  0  0  0  0
   -1.1452   -3.6158   -0.4499 C   0  0  0  0  0  0  0  0  0  0  0  0
   -0.6132   -2.3026   -0.1595 N   0  0  0  0  0  0  0  0  0  0  0  0
   -0.6912   -1.2700   -1.1779 C   0  0  0  0  0  0  0  0  0  0  0  0
   -0.0381   -2.0536    1.1300 C   0  0  0  0  0  0  0  0  0  0  0  0
   -0.5527   -2.6427    2.2644 C   0  0  0  0  0  0  0  0  0  0  0  0
    0.0021   -2.4349    3.4700 N   0  0  0  0  0  0  0  0  0  0  0  0
    1.1048   -1.6309    3.6450 C   0  0  0  0  0  0  0  0  0  0  0  0
    1.5806   -1.4885    5.0032 C   0  0  0  0  0  0  0  0  0  0  0  0
    0.9278   -2.1788    6.0686 N   0  0  0  0  0  0  0  0  0  0  0  0
    2.5416   -0.7950    5.3387 O   0  0  0  0  0  0  0  0  0  0  0  0
    1.6131   -1.0494    2.5169 C   0  0  0  0  0  0  0  0  0  0  0  0
    2.7902   -0.2763    2.5934 N   0  0  0  0  0  0  0  0  0  0  0  0
    3.3609    0.4327    1.4871 C   0  0  0  0  0  0  0  0  0  0  0  0
    2.5978    1.0006    0.5271 C   0  0  0  0  0  0  0  0  0  0  0  0
    3.2172    1.6673   -0.5445 C   0  0  0  0  0  0  0  0  0  0  0  0
    4.5762    1.7593   -0.6435 C   0  0  0  0  0  0  0  0  0  0  0  0
    5.3460    1.1703    0.3492 C   0  0  0  0  0  0  0  0  0  0  0  0
    4.7408    0.5148    1.4010 C   0  0  0  0  0  0  0  0  0  0  0  0
    5.2265    2.4587   -1.7334 C   0  0  0  0  0  0  0  0  0  0  0  0
    4.7942    3.9306   -1.8225 C   0  0  0  0  0  0  0  0  0  0  0  0
    5.0484    3.7937   -3.2652 N   0  0  0  0  0  0  0  0  0  0  0  0
    6.5031    3.8084   -3.4472 C   0  0  0  0  0  0  0  0  0  0  0  0
    4.6037    2.4017   -3.1060 C   0  0  0  0  0  0  0  0  0  0  0  0
    1.0286   -1.2759    1.2924 N   0  0  0  0  0  0  0  0  0  0  0  0
   -7.5749   -0.1626   -0.9518 H   0  0  0  0  0  0  0  0  0  0  0  0
   -8.0420    1.3028   -1.9575 H   0  0  0  0  0  0  0  0  0  0  0  0
   -6.8838    0.1334   -2.6140 H   0  0  0  0  0  0  0  0  0  0  0  0
   -6.5521    2.0371   -0.2287 H   0  0  0  0  0  0  0  0  0  0  0  0
   -5.5904    2.0215   -1.7794 H   0  0  0  0  0  0  0  0  0  0  0  0
   -4.8965   -1.0395    0.9161 H   0  0  0  0  0  0  0  0  0  0  0  0
   -6.3427   -0.0609    1.1592 H   0  0  0  0  0  0  0  0  0  0  0  0
   -4.6743    0.5198    2.8411 H   0  0  0  0  0  0  0  0  0  0  0  0
   -4.8255    1.9398    1.7335 H   0  0  0  0  0  0  0  0  0  0  0  0
   -3.4195    0.8506    1.6207 H   0  0  0  0  0  0  0  0  0  0  0  0
   -3.1350   -1.3007    0.0197 H   0  0  0  0  0  0  0  0  0  0  0  0
   -2.0248   -0.5580   -2.7081 H   0  0  0  0  0  0  0  0  0  0  0  0
   -3.0954   -2.7131   -3.1011 H   0  0  0  0  0  0  0  0  0  0  0  0
   -1.3260   -2.9794   -2.8960 H   0  0  0  0  0  0  0  0  0  0  0  0
   -2.6610   -4.6007   -1.5519 H   0  0  0  0  0  0  0  0  0  0  0  0
   -3.3043   -3.2421   -0.5745 H   0  0  0  0  0  0  0  0  0  0  0  0
   -1.2777   -4.2300    0.4540 H   0  0  0  0  0  0  0  0  0  0  0  0
   -0.4380   -4.1644   -1.1373 H   0  0  0  0  0  0  0  0  0  0  0  0
    0.0981   -1.5153   -1.9392 H   0  0  0  0  0  0  0  0  0  0  0  0
   -0.4652   -0.2741   -0.7073 H   0  0  0  0  0  0  0  0  0  0  0  0
   -1.4407   -3.2847    2.1600 H   0  0  0  0  0  0  0  0  0  0  0  0
    0.6132   -3.1390    5.9167 H   0  0  0  0  0  0  0  0  0  0  0  0
    0.7844   -1.7017    6.9641 H   0  0  0  0  0  0  0  0  0  0  0  0
    3.3102   -0.2034    3.4932 H   0  0  0  0  0  0  0  0  0  0  0  0
    1.5120    1.0000    0.5234 H   0  0  0  0  0  0  0  0  0  0  0  0
    2.5545    2.1005   -1.2738 H   0  0  0  0  0  0  0  0  0  0  0  0
    6.4287    1.2013    0.3355 H   0  0  0  0  0  0  0  0  0  0  0  0
    5.3075    0.0322    2.2060 H   0  0  0  0  0  0  0  0  0  0  0  0
    6.3378    2.3966   -1.7655 H   0  0  0  0  0  0  0  0  0  0  0  0
    3.7425    4.0916   -1.5642 H   0  0  0  0  0  0  0  0  0  0  0  0
    5.5398    4.5330   -1.2787 H   0  0  0  0  0  0  0  0  0  0  0  0
    6.8268    4.5026   -4.2268 H   0  0  0  0  0  0  0  0  0  0  0  0
    6.8919    2.8009   -3.6797 H   0  0  0  0  0  0  0  0  0  0  0  0
    7.0365    4.1384   -2.5180 H   0  0  0  0  0  0  0  0  0  0  0  0
    5.0619    1.6979   -3.8263 H   0  0  0  0  0  0  0  0  0  0  0  0
    3.5007    2.4099   -3.0810 H   0  0  0  0  0  0  0  0  0  0  0  0
  1  2  1  0
  2  3  1  0
  3  4  1  0
  4  5  1  0
  3  6  1  0
  6  7  2  0
  6  8  1  0
  8  9  1  0
  9 10  1  0
 10 11  1  0
 11 12  1  0
 12 13  1  0
 13 14  1  0
 13 15  1  0
 15 16  2  0
 16 17  1  0
 17 18  2  0
 18 19  1  0
 19 20  1  0
 19 21  2  0
 18 22  1  0
 22 23  1  0
 23 24  1  0
 24 25  2  0
 25 26  1  0
 26 27  2  0
 27 28  1  0
 28 29  2  0
 27 30  1  0
 30 31  1  0
 31 32  1  0
 32 33  1  0
 32 34  1  0
 22 35  2  0
 14  9  1  0
 35 15  1  0
 29 24  1  0
 34 30  1  0
  1 36  1  0
  1 37  1  0
  1 38  1  0
  2 39  1  0
  2 40  1  0
  4 41  1  0
  4 42  1  0
  5 43  1  0
  5 44  1  0
  5 45  1  0
  8 46  1  0
  9 47  1  6
 10 48  1  0
 10 49  1  0
 11 50  1  0
 11 51  1  0
 12 52  1  0
 12 53  1  0
 14 54  1  0
 14 55  1  0
 16 56  1  0
 20 57  1  0
 20 58  1  0
 23 59  1  0
 25 60  1  0
 26 61  1  0
 28 62  1  0
 29 63  1  0
 30 64  1  0
 31 65  1  0
 31 66  1  0
 33 67  1  0
 33 68  1  0
 33 69  1  0
 34 70  1  0
 34 71  1  0
M  END
$$$$
[H]c1nc(OC([H])([H])C([H])(F)F)c([H])c(Cl)c1C#Cc1c([H])c(C(=O)N([H])[H])c(N([H])c2c([H])c([H])c([H])c(N3C(=O)C([H])([H])C([H])([H])C3([H])[H])c2C([H])([H])[H])c([H])c1C([H])([H])[H]
     RDKit          3D

 63 66  0  0  0  0  0  0  0  0999 V2000
   -5.1309    0.8406    1.2192 C   0  0  0  0  0  0  0  0  0  0  0  0
   -4.7711   -0.0748    0.0746 C   0  0  0  0  0  0  0  0  0  0  0  0
   -3.4732   -0.5830   -0.0511 C   0  0  0  0  0  0  0  0  0  0  0  0
   -2.5533   -0.2523    0.9802 N   0  0  0  0  0  0  0  0  0  0  0  0
   -1.1418   -0.3374    0.9164 C   0  0  0  0  0  0  0  0  0  0  0  0
   -0.4869   -0.0933   -0.3013 C   0  0  0  0  0  0  0  0  0  0  0  0
    0.8892   -0.0439   -0.3553 C   0  0  0  0  0  0  0  0  0  0  0  0
    1.5593    0.2141   -1.6579 C   0  0  0  0  0  0  0  0  0  0  0  0
    1.6719   -0.2247    0.7523 C   0  0  0  0  0  0  0  0  0  0  0  0
    1.0661   -0.4614    1.9412 C   0  0  0  0  0  0  0  0  0  0  0  0
   -0.3439   -0.5212    2.0348 C   0  0  0  0  0  0  0  0  0  0  0  0
   -0.9161   -0.8407    3.3101 C   0  0  0  0  0  0  0  0  0  0  0  0
   -0.0477   -0.9833    4.4549 N   0  0  0  0  0  0  0  0  0  0  0  0
   -2.1128   -1.0081    3.5196 O   0  0  0  0  0  0  0  0  0  0  0  0
    3.1020   -0.1640    0.6497 C   0  0  0  0  0  0  0  0  0  0  0  0
    4.3021   -0.1131    0.5423 C   0  0  0  0  0  0  0  0  0  0  0  0
    5.7484   -0.0347    0.3940 C   0  0  0  0  0  0  0  0  0  0  0  0
    6.3231    0.7062   -0.6147 C   0  0  0  0  0  0  0  0  0  0  0  0
    7.6591    0.8074   -0.7906 N   0  0  0  0  0  0  0  0  0  0  0  0
    8.4638    0.1546    0.0583 C   0  0  0  0  0  0  0  0  0  0  0  0
    9.8255    0.2479   -0.1077 O   0  0  0  0  0  0  0  0  0  0  0  0
   10.4397    0.9979   -1.1300 C   0  0  0  0  0  0  0  0  0  0  0  0
   11.9568    0.8449   -0.9715 C   0  0  0  0  0  0  0  0  0  0  0  0
   12.2237   -0.5089   -1.0930 F   0  0  0  0  0  0  0  0  0  0  0  0
   12.2913    1.2033    0.3276 F   0  0  0  0  0  0  0  0  0  0  0  0
    7.9551   -0.6037    1.0883 C   0  0  0  0  0  0  0  0  0  0  0  0
    6.5865   -0.6997    1.2583 C   0  0  0  0  0  0  0  0  0  0  0  0
    5.8642   -1.6417    2.5403 Cl  0  0  0  0  0  0  0  0  0  0  0  0
   -3.1807   -1.4148   -1.1100 C   0  0  0  0  0  0  0  0  0  0  0  0
   -4.1421   -1.7453   -2.0368 C   0  0  0  0  0  0  0  0  0  0  0  0
   -5.4071   -1.2458   -1.9097 C   0  0  0  0  0  0  0  0  0  0  0  0
   -5.7162   -0.4160   -0.8587 C   0  0  0  0  0  0  0  0  0  0  0  0
   -7.0344    0.1056   -0.7241 N   0  0  0  0  0  0  0  0  0  0  0  0
   -8.0262   -0.4192    0.1997 C   0  0  0  0  0  0  0  0  0  0  0  0
   -9.2524    0.4386   -0.0302 C   0  0  0  0  0  0  0  0  0  0  0  0
   -8.7218    1.6994   -0.6512 C   0  0  0  0  0  0  0  0  0  0  0  0
   -7.5770    1.1985   -1.4562 C   0  0  0  0  0  0  0  0  0  0  0  0
   -7.1465    1.6346   -2.5717 O   0  0  0  0  0  0  0  0  0  0  0  0
   -4.3094    1.6012    1.3570 H   0  0  0  0  0  0  0  0  0  0  0  0
   -6.0274    1.4399    0.9627 H   0  0  0  0  0  0  0  0  0  0  0  0
   -5.2107    0.2958    2.1673 H   0  0  0  0  0  0  0  0  0  0  0  0
   -3.0027    0.1250    1.8702 H   0  0  0  0  0  0  0  0  0  0  0  0
   -1.0775    0.0921   -1.1973 H   0  0  0  0  0  0  0  0  0  0  0  0
    2.6239   -0.0956   -1.6257 H   0  0  0  0  0  0  0  0  0  0  0  0
    1.5063    1.2639   -1.9752 H   0  0  0  0  0  0  0  0  0  0  0  0
    1.0841   -0.4126   -2.4442 H   0  0  0  0  0  0  0  0  0  0  0  0
    1.6646   -0.6101    2.8513 H   0  0  0  0  0  0  0  0  0  0  0  0
    0.5443   -0.2050    4.7558 H   0  0  0  0  0  0  0  0  0  0  0  0
   -0.0206   -1.8823    4.9799 H   0  0  0  0  0  0  0  0  0  0  0  0
    5.6805    1.2366   -1.3044 H   0  0  0  0  0  0  0  0  0  0  0  0
   10.1862    0.6151   -2.1530 H   0  0  0  0  0  0  0  0  0  0  0  0
   10.2121    2.0838   -1.0549 H   0  0  0  0  0  0  0  0  0  0  0  0
   12.5042    1.4394   -1.7288 H   0  0  0  0  0  0  0  0  0  0  0  0
    8.6283   -1.1274    1.7683 H   0  0  0  0  0  0  0  0  0  0  0  0
   -2.1861   -1.8587   -1.2242 H   0  0  0  0  0  0  0  0  0  0  0  0
   -3.8796   -2.4156   -2.8798 H   0  0  0  0  0  0  0  0  0  0  0  0
   -6.1496   -1.5331   -2.6711 H   0  0  0  0  0  0  0  0  0  0  0  0
   -7.6825   -0.4103    1.2470 H   0  0  0  0  0  0  0  0  0  0  0  0
   -8.3053   -1.4561   -0.1068 H   0  0  0  0  0  0  0  0  0  0  0  0
   -9.9849   -0.0512   -0.7199 H   0  0  0  0  0  0  0  0  0  0  0  0
   -9.7350    0.6351    0.9665 H   0  0  0  0  0  0  0  0  0  0  0  0
   -8.3377    2.3519    0.1594 H   0  0  0  0  0  0  0  0  0  0  0  0
   -9.4710    2.2155   -1.2850 H   0  0  0  0  0  0  0  0  0  0  0  0
  1  2  1  0
  2  3  2  0
  3  4  1  0
  4  5  1  0
  5  6  2  0
  6  7  1  0
  7  8  1  0
  7  9  2  0
  9 10  1  0
 10 11  2  0
 11 12  1  0
 12 13  1  0
 12 14  2  0
  9 15  1  0
 15 16  3  0
 16 17  1  0
 17 18  2  0
 18 19  1  0
 19 20  2  0
 20 21  1  0
 21 22  1  0
 22 23  1  0
 23 24  1  0
 23 25  1  0
 20 26  1  0
 26 27  2  0
 27 28  1  0
  3 29  1  0
 29 30  2  0
 30 31  1  0
 31 32  2  0
 32 33  1  0
 33 34  1  0
 34 35  1  0
 35 36  1  0
 36 37  1  0
 37 38  2  0
 32  2  1  0
 37 33  1  0
 11  5  1  0
 27 17  1  0
  1 39  1  0
  1 40  1  0
  1 41  1  0
  4 42  1  0
  6 43  1  0
  8 44  1  0
  8 45  1  0
  8 46  1  0
 10 47  1  0
 13 48  1  0
 13 49  1  0
 18 50  1  0
 22 51  1  0
 22 52  1  0
 23 53  1  0
 26 54  1  0
 29 55  1  0
 30 56  1  0
 31 57  1  0
 34 58  1  0
 34 59  1  0
 35 60  1  0
 35 61  1  0
 36 62  1  0
 36 63  1  0
M  END
$$$$
[H]c1nc(OC([H])([H])C([H])([H])[H])c([H])c([H])c1-c1c(OC([H])([H])C2([H])C([H])([H])OC([H])([H])C2([H])[H])nc2sc(N([H])C(=O)C([H])([H])C([H])([H])OC([H])([H])[H])nc2c1[H]
     RDKit          3D

 58 61  0  0  0  0  0  0  0  0999 V2000
    9.2163   -0.4234    0.5995 C   0  0  0  0  0  0  0  0  0  0  0  0
    8.6487   -1.5082    0.1120 O   0  0  0  0  0  0  0  0  0  0  0  0
    7.9039   -1.7332   -0.9406 C   0  0  0  0  0  0  0  0  0  0  0  0
    6.6073   -1.0129   -1.0614 C   0  0  0  0  0  0  0  0  0  0  0  0
    6.6327    0.4064   -1.2763 C   0  0  0  0  0  0  0  0  0  0  0  0
    7.7168    1.0012   -1.5671 O   0  0  0  0  0  0  0  0  0  0  0  0
    5.4960    1.2203   -1.1841 N   0  0  0  0  0  0  0  0  0  0  0  0
    4.1732    0.7136   -0.9035 C   0  0  0  0  0  0  0  0  0  0  0  0
    3.0720    1.4462   -0.7812 N   0  0  0  0  0  0  0  0  0  0  0  0
    1.9431    0.8653   -0.5424 C   0  0  0  0  0  0  0  0  0  0  0  0
    0.6857    1.4844   -0.3841 C   0  0  0  0  0  0  0  0  0  0  0  0
   -0.4304    0.7452   -0.1340 C   0  0  0  0  0  0  0  0  0  0  0  0
   -1.7482    1.3886    0.0373 C   0  0  0  0  0  0  0  0  0  0  0  0
   -2.6064    1.0872    1.0613 C   0  0  0  0  0  0  0  0  0  0  0  0
   -3.8406    1.7505    1.1370 C   0  0  0  0  0  0  0  0  0  0  0  0
   -4.2143    2.6989    0.2078 C   0  0  0  0  0  0  0  0  0  0  0  0
   -5.4444    3.3137    0.3422 O   0  0  0  0  0  0  0  0  0  0  0  0
   -5.9449    4.2883   -0.5258 C   0  0  0  0  0  0  0  0  0  0  0  0
   -7.3247    4.6848   -0.0016 C   0  0  0  0  0  0  0  0  0  0  0  0
   -3.3420    2.9644   -0.7807 N   0  0  0  0  0  0  0  0  0  0  0  0
   -2.1366    2.3374   -0.8812 C   0  0  0  0  0  0  0  0  0  0  0  0
   -0.4071   -0.6372   -0.0204 C   0  0  0  0  0  0  0  0  0  0  0  0
   -1.5550   -1.3745    0.2341 O   0  0  0  0  0  0  0  0  0  0  0  0
   -1.4254   -2.7652    0.3307 C   0  0  0  0  0  0  0  0  0  0  0  0
   -2.7109   -3.4753    0.6060 C   0  0  0  0  0  0  0  0  0  0  0  0
   -3.3668   -3.0617    1.8906 C   0  0  0  0  0  0  0  0  0  0  0  0
   -4.8187   -3.2874    1.5887 C   0  0  0  0  0  0  0  0  0  0  0  0
   -4.9957   -3.2982    0.2370 O   0  0  0  0  0  0  0  0  0  0  0  0
   -3.7846   -3.2059   -0.3934 C   0  0  0  0  0  0  0  0  0  0  0  0
    0.7948   -1.2234   -0.1721 N   0  0  0  0  0  0  0  0  0  0  0  0
    1.9297   -0.4987   -0.4241 C   0  0  0  0  0  0  0  0  0  0  0  0
    3.5814   -0.8665   -0.6697 S   0  0  0  0  0  0  0  0  0  0  0  0
    9.9494    0.1085   -0.0859 H   0  0  0  0  0  0  0  0  0  0  0  0
    8.5601    0.3908    1.0035 H   0  0  0  0  0  0  0  0  0  0  0  0
    9.8590   -0.7580    1.5142 H   0  0  0  0  0  0  0  0  0  0  0  0
    7.7098   -2.8623   -1.0432 H   0  0  0  0  0  0  0  0  0  0  0  0
    8.5125   -1.5441   -1.8940 H   0  0  0  0  0  0  0  0  0  0  0  0
    5.9368   -1.4959   -1.8364 H   0  0  0  0  0  0  0  0  0  0  0  0
    6.0789   -1.2139   -0.0610 H   0  0  0  0  0  0  0  0  0  0  0  0
    5.5823    2.2712   -1.3503 H   0  0  0  0  0  0  0  0  0  0  0  0
    0.5700    2.5569   -0.4560 H   0  0  0  0  0  0  0  0  0  0  0  0
   -2.3168    0.3561    1.7818 H   0  0  0  0  0  0  0  0  0  0  0  0
   -4.5037    1.4929    1.9594 H   0  0  0  0  0  0  0  0  0  0  0  0
   -5.3108    5.1992   -0.4134 H   0  0  0  0  0  0  0  0  0  0  0  0
   -6.0025    3.9824   -1.5691 H   0  0  0  0  0  0  0  0  0  0  0  0
   -7.9813    3.8010   -0.1834 H   0  0  0  0  0  0  0  0  0  0  0  0
   -7.7077    5.5969   -0.4849 H   0  0  0  0  0  0  0  0  0  0  0  0
   -7.3065    4.8296    1.0926 H   0  0  0  0  0  0  0  0  0  0  0  0
   -1.4529    2.5725   -1.6904 H   0  0  0  0  0  0  0  0  0  0  0  0
   -0.7047   -3.0399    1.1224 H   0  0  0  0  0  0  0  0  0  0  0  0
   -1.0282   -3.1370   -0.6296 H   0  0  0  0  0  0  0  0  0  0  0  0
   -2.5125   -4.5581    0.6385 H   0  0  0  0  0  0  0  0  0  0  0  0
   -3.2386   -1.9589    2.0772 H   0  0  0  0  0  0  0  0  0  0  0  0
   -3.0025   -3.6507    2.7606 H   0  0  0  0  0  0  0  0  0  0  0  0
   -5.0712   -4.3207    1.9669 H   0  0  0  0  0  0  0  0  0  0  0  0
   -5.4915   -2.5990    2.1387 H   0  0  0  0  0  0  0  0  0  0  0  0
   -3.7190   -3.8803   -1.2772 H   0  0  0  0  0  0  0  0  0  0  0  0
   -3.7137   -2.1640   -0.8216 H   0  0  0  0  0  0  0  0  0  0  0  0
  1  2  1  0
  2  3  1  0
  3  4  1  0
  4  5  1  0
  5  6  2  0
  5  7  1  0
  7  8  1  0
  8  9  2  0
  9 10  1  0
 10 11  2  0
 11 12  1  0
 12 13  1  0
 13 14  2  0
 14 15  1  0
 15 16  2  0
 16 17  1  0
 17 18  1  0
 18 19  1  0
 16 20  1  0
 20 21  2  0
 12 22  2  0
 22 23  1  0
 23 24  1  0
 24 25  1  0
 25 26  1  0
 26 27  1  0
 27 28  1  0
 28 29  1  0
 22 30  1  0
 30 31  2  0
 31 32  1  0
 32  8  1  0
 31 10  1  0
 21 13  1  0
 29 25  1  0
  1 33  1  0
  1 34  1  0
  1 35  1  0
  3 36  1  0
  3 37  1  0
  4 38  1  0
  4 39  1  0
  7 40  1  0
 11 41  1  0
 14 42  1  0
 15 43  1  0
 18 44  1  0
 18 45  1  0
 19 46  1  0
 19 47  1  0
 19 48  1  0
 21 49  1  0
 24 50  1  0
 24 51  1  0
 25 52  1  0
 26 53  1  0
 26 54  1  0
 27 55  1  0
 27 56  1  0
 29 57  1  0
 29 58  1  0
M  END
$$$$
[H]OC(=O)[C@@]([H])(N([H])C(=O)[C@@]([H])(C([H])([H])C(=O)N([H])O[H])C([H])([H])C([H])(C([H])([H])[H])C([H])([H])[H])C([H])([H])c1c([H])n([H])c2c([H])c([H])c([H])c([H])c12
     RDKit          3D

 52 53  0  0  0  0  0  0  0  0999 V2000
   -3.8010    2.9589   -0.0614 C   0  0  0  0  0  0  0  0  0  0  0  0
   -3.4078    2.2079    1.2001 C   0  0  0  0  0  0  0  0  0  0  0  0
   -4.2608    2.6585    2.3773 C   0  0  0  0  0  0  0  0  0  0  0  0
   -3.6166    0.7394    0.9210 C   0  0  0  0  0  0  0  0  0  0  0  0
   -2.7716    0.3169   -0.2245 C   0  0  2  0  0  0  0  0  0  0  0  0
   -2.9700   -1.1435   -0.5956 C   0  0  0  0  0  0  0  0  0  0  0  0
   -2.6389   -2.1030    0.4508 C   0  0  0  0  0  0  0  0  0  0  0  0
   -2.1435   -1.7769    1.5568 O   0  0  0  0  0  0  0  0  0  0  0  0
   -2.8838   -3.4946    0.2247 N   0  0  0  0  0  0  0  0  0  0  0  0
   -2.5752   -4.3685    1.1947 O   0  0  0  0  0  0  0  0  0  0  0  0
   -1.3040    0.4970    0.0271 C   0  0  0  0  0  0  0  0  0  0  0  0
   -0.8352    0.7575    1.1451 O   0  0  0  0  0  0  0  0  0  0  0  0
   -0.4387    0.3529   -1.0875 N   0  0  0  0  0  0  0  0  0  0  0  0
    1.0222    0.5049   -0.9603 C   0  0  1  0  0  0  0  0  0  0  0  0
    1.6435   -0.7884   -1.4029 C   0  0  0  0  0  0  0  0  0  0  0  0
    3.1198   -0.8183   -1.3393 C   0  0  0  0  0  0  0  0  0  0  0  0
    4.0565   -0.7532   -2.3633 C   0  0  0  0  0  0  0  0  0  0  0  0
    5.2869   -0.8278   -1.8310 N   0  0  0  0  0  0  0  0  0  0  0  0
    5.2284   -0.9400   -0.4975 C   0  0  0  0  0  0  0  0  0  0  0  0
    6.1634   -1.0485    0.5144 C   0  0  0  0  0  0  0  0  0  0  0  0
    5.7448   -1.1503    1.8246 C   0  0  0  0  0  0  0  0  0  0  0  0
    4.4175   -1.1469    2.1541 C   0  0  0  0  0  0  0  0  0  0  0  0
    3.4959   -1.0376    1.1290 C   0  0  0  0  0  0  0  0  0  0  0  0
    3.8854   -0.9353   -0.1791 C   0  0  0  0  0  0  0  0  0  0  0  0
    1.4670    1.5845   -1.8617 C   0  0  0  0  0  0  0  0  0  0  0  0
    2.7802    1.9988   -1.9604 O   0  0  0  0  0  0  0  0  0  0  0  0
    0.6175    2.1631   -2.5784 O   0  0  0  0  0  0  0  0  0  0  0  0
   -2.8882    3.0634   -0.6822 H   0  0  0  0  0  0  0  0  0  0  0  0
   -4.1547    3.9771    0.2018 H   0  0  0  0  0  0  0  0  0  0  0  0
   -4.5513    2.3809   -0.6426 H   0  0  0  0  0  0  0  0  0  0  0  0
   -2.3746    2.4789    1.4266 H   0  0  0  0  0  0  0  0  0  0  0  0
   -3.9429    3.6454    2.7122 H   0  0  0  0  0  0  0  0  0  0  0  0
   -4.1607    1.8598    3.1576 H   0  0  0  0  0  0  0  0  0  0  0  0
   -5.3250    2.6123    2.0362 H   0  0  0  0  0  0  0  0  0  0  0  0
   -3.4103    0.2002    1.8829 H   0  0  0  0  0  0  0  0  0  0  0  0
   -4.6991    0.6097    0.6446 H   0  0  0  0  0  0  0  0  0  0  0  0
   -3.0303    0.9178   -1.1041 H   0  0  0  0  0  0  0  0  0  0  0  0
   -2.2759   -1.3267   -1.4659 H   0  0  0  0  0  0  0  0  0  0  0  0
   -3.9849   -1.2438   -1.0024 H   0  0  0  0  0  0  0  0  0  0  0  0
   -3.2929   -3.7959   -0.6805 H   0  0  0  0  0  0  0  0  0  0  0  0
   -3.4002   -4.8846    1.3951 H   0  0  0  0  0  0  0  0  0  0  0  0
   -0.8078    0.1357   -2.0295 H   0  0  0  0  0  0  0  0  0  0  0  0
    1.2082    0.7351    0.0999 H   0  0  0  0  0  0  0  0  0  0  0  0
    1.2438   -1.5918   -0.7132 H   0  0  0  0  0  0  0  0  0  0  0  0
    1.2605   -1.0885   -2.4057 H   0  0  0  0  0  0  0  0  0  0  0  0
    3.7771   -0.6571   -3.4104 H   0  0  0  0  0  0  0  0  0  0  0  0
    6.1969   -0.8043   -2.3620 H   0  0  0  0  0  0  0  0  0  0  0  0
    7.2264   -1.0507    0.2446 H   0  0  0  0  0  0  0  0  0  0  0  0
    6.5094   -1.2332    2.5845 H   0  0  0  0  0  0  0  0  0  0  0  0
    4.0592   -1.2268    3.1850 H   0  0  0  0  0  0  0  0  0  0  0  0
    2.4406   -1.0320    1.3578 H   0  0  0  0  0  0  0  0  0  0  0  0
    3.0948    2.9114   -2.2072 H   0  0  0  0  0  0  0  0  0  0  0  0
  1  2  1  0
  2  3  1  0
  2  4  1  0
  4  5  1  0
  5  6  1  0
  6  7  1  0
  7  8  2  0
  7  9  1  0
  9 10  1  0
  5 11  1  0
 11 12  2  0
 11 13  1  0
 13 14  1  0
 14 15  1  0
 15 16  1  0
 16 17  2  0
 17 18  1  0
 18 19  1  0
 19 20  2  0
 20 21  1  0
 21 22  2  0
 22 23  1  0
 23 24  2  0
 14 25  1  0
 25 26  1  0
 25 27  2  0
 24 16  1  0
 24 19  1  0
  1 28  1  0
  1 29  1  0
  1 30  1  0
  2 31  1  0
  3 32  1  0
  3 33  1  0
  3 34  1  0
  4 35  1  0
  4 36  1  0
  5 37  1  6
  6 38  1  0
  6 39  1  0
  9 40  1  0
 10 41  1  0
 13 42  1  0
 14 43  1  1
 15 44  1  0
 15 45  1  0
 17 46  1  0
 18 47  1  0
 20 48  1  0
 21 49  1  0
 22 50  1  0
 23 51  1  0
 26 52  1  0
M  END
$$$$
[H]c1c([H])c([H])c(C([H])([H])[C@@]2([H])C(=O)N([H])[C@@]([H])(C([H])([H])c3c([H])c([H])c([H])c([H])c3[H])C(=O)N([H])[C@@]([H])(C([H])(C([H])([H])[H])C([H])([H])[H])C(=O)N([H])[C@@]([H])(C([H])([H])c3c([H])c([H])c([H])c([H])c3[H])C(=O)N([H])[C@@]([H])(C([H])([H])c3c([H])c([H])c([H])c([H])c3[H])C(=O)N3C([H])([H])C([H])([H])C([H])([H])[C@@]3([H])C(=O)N([H])[C@@]([H])(C([H])([H])C([H])([H])C(=O)N([H])[H])C(=O)N2[H])c([H])c1[H]
     RDKit          3D

127132  0  0  0  0  0  0  0  0999 V2000
    1.0117   -4.5628    3.7843 C   0  0  0  0  0  0  0  0  0  0  0  0
    0.0063   -4.3941    2.6859 C   0  0  0  0  0  0  0  0  0  0  0  0
   -1.2189   -3.7850    3.2896 C   0  0  0  0  0  0  0  0  0  0  0  0
    0.5431   -3.5884    1.4944 C   0  0  2  0  0  0  0  0  0  0  0  0
    0.9256   -2.2810    1.8457 N   0  0  0  0  0  0  0  0  0  0  0  0
    2.1790   -1.6416    1.8302 C   0  0  0  0  0  0  0  0  0  0  0  0
    2.6503   -1.1693    2.9501 O   0  0  0  0  0  0  0  0  0  0  0  0
    3.0805   -1.4087    0.6907 C   0  0  2  0  0  0  0  0  0  0  0  0
    4.4375   -2.0669    0.7949 C   0  0  0  0  0  0  0  0  0  0  0  0
    4.4670   -3.5073    0.9000 C   0  0  0  0  0  0  0  0  0  0  0  0
    4.4871   -4.1620    2.1097 C   0  0  0  0  0  0  0  0  0  0  0  0
    4.5094   -5.5434    2.1867 C   0  0  0  0  0  0  0  0  0  0  0  0
    4.5116   -6.2927    1.0131 C   0  0  0  0  0  0  0  0  0  0  0  0
    4.4920   -5.6554   -0.2051 C   0  0  0  0  0  0  0  0  0  0  0  0
    4.4703   -4.2774   -0.2460 C   0  0  0  0  0  0  0  0  0  0  0  0
    3.3902    0.0264    0.7251 N   0  0  0  0  0  0  0  0  0  0  0  0
    3.4978    0.8973   -0.3586 C   0  0  0  0  0  0  0  0  0  0  0  0
    4.5869    1.5685   -0.4865 O   0  0  0  0  0  0  0  0  0  0  0  0
    2.4720    1.1432   -1.3993 C   0  0  2  0  0  0  0  0  0  0  0  0
    2.8393    0.3973   -2.6519 C   0  0  0  0  0  0  0  0  0  0  0  0
    4.1166    0.7198   -3.2761 C   0  0  0  0  0  0  0  0  0  0  0  0
    4.1590    1.7217   -4.2233 C   0  0  0  0  0  0  0  0  0  0  0  0
    5.3245    2.0696   -4.8682 C   0  0  0  0  0  0  0  0  0  0  0  0
    6.4946    1.4064   -4.5705 C   0  0  0  0  0  0  0  0  0  0  0  0
    6.4643    0.4067   -3.6283 C   0  0  0  0  0  0  0  0  0  0  0  0
    5.2970    0.0701   -2.9932 C   0  0  0  0  0  0  0  0  0  0  0  0
    2.2812    2.5700   -1.6032 N   0  0  0  0  0  0  0  0  0  0  0  0
    1.2897    3.4073   -1.1050 C   0  0  0  0  0  0  0  0  0  0  0  0
    0.6247    4.0781   -1.9910 O   0  0  0  0  0  0  0  0  0  0  0  0
    0.8926    3.6378    0.2973 C   0  0  2  0  0  0  0  0  0  0  0  0
    2.0343    4.1986    1.1521 C   0  0  0  0  0  0  0  0  0  0  0  0
    2.4998    5.5067    0.5850 C   0  0  0  0  0  0  0  0  0  0  0  0
    3.5972    6.0725    1.3907 C   0  0  0  0  0  0  0  0  0  0  0  0
    4.3342    7.2342    1.0507 N   0  0  0  0  0  0  0  0  0  0  0  0
    3.9147    5.4891    2.4663 O   0  0  0  0  0  0  0  0  0  0  0  0
    0.3620    2.5057    0.9889 N   0  0  0  0  0  0  0  0  0  0  0  0
   -0.8091    2.5866    1.7913 C   0  0  0  0  0  0  0  0  0  0  0  0
   -0.9801    1.7755    2.7683 O   0  0  0  0  0  0  0  0  0  0  0  0
   -1.9051    3.5646    1.5996 C   0  0  2  0  0  0  0  0  0  0  0  0
   -1.6561    4.6727    2.6118 C   0  0  0  0  0  0  0  0  0  0  0  0
   -2.7860    4.4839    3.6073 C   0  0  0  0  0  0  0  0  0  0  0  0
   -3.8898    4.0381    2.6970 C   0  0  0  0  0  0  0  0  0  0  0  0
   -3.2109    3.0367    1.8509 N   0  0  0  0  0  0  0  0  0  0  0  0
   -3.7394    1.8112    1.3747 C   0  0  0  0  0  0  0  0  0  0  0  0
   -4.7372    1.3319    2.0257 O   0  0  0  0  0  0  0  0  0  0  0  0
   -3.2394    1.0500    0.2047 C   0  0  2  0  0  0  0  0  0  0  0  0
   -3.5103    1.8191   -1.0582 C   0  0  0  0  0  0  0  0  0  0  0  0
   -4.9451    2.0983   -1.3282 C   0  0  0  0  0  0  0  0  0  0  0  0
   -5.5741    3.2313   -0.8683 C   0  0  0  0  0  0  0  0  0  0  0  0
   -6.9034    3.5044   -1.1231 C   0  0  0  0  0  0  0  0  0  0  0  0
   -7.6264    2.6034   -1.8691 C   0  0  0  0  0  0  0  0  0  0  0  0
   -7.0057    1.4679   -2.3333 C   0  0  0  0  0  0  0  0  0  0  0  0
   -5.6827    1.2075   -2.0730 C   0  0  0  0  0  0  0  0  0  0  0  0
   -3.8290   -0.2621    0.2195 N   0  0  0  0  0  0  0  0  0  0  0  0
   -3.2203   -1.5079    0.3197 C   0  0  0  0  0  0  0  0  0  0  0  0
   -3.7560   -2.3516    1.1165 O   0  0  0  0  0  0  0  0  0  0  0  0
   -1.9867   -1.9270   -0.4398 C   0  0  2  0  0  0  0  0  0  0  0  0
   -2.3670   -2.0926   -1.9247 C   0  0  0  0  0  0  0  0  0  0  0  0
   -3.3918   -3.1547   -2.1351 C   0  0  0  0  0  0  0  0  0  0  0  0
   -2.9493   -4.4319   -2.4274 C   0  0  0  0  0  0  0  0  0  0  0  0
   -3.8491   -5.4471   -2.6256 C   0  0  0  0  0  0  0  0  0  0  0  0
   -5.2153   -5.2729   -2.5507 C   0  0  0  0  0  0  0  0  0  0  0  0
   -5.6288   -3.9921   -2.2589 C   0  0  0  0  0  0  0  0  0  0  0  0
   -4.7451   -2.9576   -2.0559 C   0  0  0  0  0  0  0  0  0  0  0  0
   -1.5912   -3.2400    0.0217 N   0  0  0  0  0  0  0  0  0  0  0  0
   -0.3376   -3.7786    0.3292 C   0  0  0  0  0  0  0  0  0  0  0  0
    0.1751   -4.6050   -0.5465 O   0  0  0  0  0  0  0  0  0  0  0  0
    0.5465   -4.6036    4.7918 H   0  0  0  0  0  0  0  0  0  0  0  0
    1.5773   -5.5202    3.5721 H   0  0  0  0  0  0  0  0  0  0  0  0
    1.7699   -3.7687    3.6914 H   0  0  0  0  0  0  0  0  0  0  0  0
   -0.2667   -5.4066    2.3043 H   0  0  0  0  0  0  0  0  0  0  0  0
   -2.1564   -4.0821    2.7903 H   0  0  0  0  0  0  0  0  0  0  0  0
   -1.1212   -2.6887    3.4600 H   0  0  0  0  0  0  0  0  0  0  0  0
   -1.3098   -4.2190    4.3280 H   0  0  0  0  0  0  0  0  0  0  0  0
    1.5040   -4.1486    1.2285 H   0  0  0  0  0  0  0  0  0  0  0  0
    0.1248   -1.6576    2.1993 H   0  0  0  0  0  0  0  0  0  0  0  0
    2.6007   -1.6021   -0.2852 H   0  0  0  0  0  0  0  0  0  0  0  0
    4.9297   -1.5779    1.6960 H   0  0  0  0  0  0  0  0  0  0  0  0
    5.1028   -1.7593   -0.0442 H   0  0  0  0  0  0  0  0  0  0  0  0
    4.4871   -3.6191    3.0569 H   0  0  0  0  0  0  0  0  0  0  0  0
    4.5240   -6.0463    3.1450 H   0  0  0  0  0  0  0  0  0  0  0  0
    4.5288   -7.3728    1.0605 H   0  0  0  0  0  0  0  0  0  0  0  0
    4.4928   -6.2590   -1.0951 H   0  0  0  0  0  0  0  0  0  0  0  0
    4.4561   -3.8184   -1.2431 H   0  0  0  0  0  0  0  0  0  0  0  0
    3.5567    0.4054    1.7085 H   0  0  0  0  0  0  0  0  0  0  0  0
    1.4868    0.6603   -1.0921 H   0  0  0  0  0  0  0  0  0  0  0  0
    1.9738    0.6022   -3.3672 H   0  0  0  0  0  0  0  0  0  0  0  0
    2.7510   -0.6942   -2.4386 H   0  0  0  0  0  0  0  0  0  0  0  0
    3.2618    2.2785   -4.5008 H   0  0  0  0  0  0  0  0  0  0  0  0
    5.3369    2.8748   -5.6224 H   0  0  0  0  0  0  0  0  0  0  0  0
    7.4280    1.6846   -5.0855 H   0  0  0  0  0  0  0  0  0  0  0  0
    7.4195   -0.0972   -3.4198 H   0  0  0  0  0  0  0  0  0  0  0  0
    5.3090   -0.7257   -2.2537 H   0  0  0  0  0  0  0  0  0  0  0  0
    3.0353    3.0019   -2.2300 H   0  0  0  0  0  0  0  0  0  0  0  0
    0.1190    4.4374    0.3573 H   0  0  0  0  0  0  0  0  0  0  0  0
    2.8861    3.5110    1.2214 H   0  0  0  0  0  0  0  0  0  0  0  0
    1.5834    4.4270    2.1486 H   0  0  0  0  0  0  0  0  0  0  0  0
    1.6776    6.2507    0.4905 H   0  0  0  0  0  0  0  0  0  0  0  0
    2.9085    5.3265   -0.4437 H   0  0  0  0  0  0  0  0  0  0  0  0
    5.3747    7.1953    1.1748 H   0  0  0  0  0  0  0  0  0  0  0  0
    3.9373    8.1219    0.6887 H   0  0  0  0  0  0  0  0  0  0  0  0
    0.7731    1.5292    0.9784 H   0  0  0  0  0  0  0  0  0  0  0  0
   -1.8137    4.0531    0.6087 H   0  0  0  0  0  0  0  0  0  0  0  0
   -0.6590    4.5918    3.0838 H   0  0  0  0  0  0  0  0  0  0  0  0
   -1.7855    5.6742    2.1586 H   0  0  0  0  0  0  0  0  0  0  0  0
   -2.5382    3.6413    4.2795 H   0  0  0  0  0  0  0  0  0  0  0  0
   -3.0143    5.3992    4.1621 H   0  0  0  0  0  0  0  0  0  0  0  0
   -4.3023    4.8516    2.0681 H   0  0  0  0  0  0  0  0  0  0  0  0
   -4.6755    3.5754    3.3243 H   0  0  0  0  0  0  0  0  0  0  0  0
   -2.1341    0.9140    0.2409 H   0  0  0  0  0  0  0  0  0  0  0  0
   -3.0504    1.3259   -1.9502 H   0  0  0  0  0  0  0  0  0  0  0  0
   -3.0091    2.8001   -0.9949 H   0  0  0  0  0  0  0  0  0  0  0  0
   -5.0368    3.9816   -0.2813 H   0  0  0  0  0  0  0  0  0  0  0  0
   -7.3476    4.4197   -0.7327 H   0  0  0  0  0  0  0  0  0  0  0  0
   -8.6900    2.7873   -2.0936 H   0  0  0  0  0  0  0  0  0  0  0  0
   -7.5872    0.7381   -2.9376 H   0  0  0  0  0  0  0  0  0  0  0  0
   -5.2186    0.2876   -2.4690 H   0  0  0  0  0  0  0  0  0  0  0  0
   -4.8944   -0.2662    0.1427 H   0  0  0  0  0  0  0  0  0  0  0  0
   -1.2590   -1.1373   -0.3158 H   0  0  0  0  0  0  0  0  0  0  0  0
   -2.7243   -1.1057   -2.3229 H   0  0  0  0  0  0  0  0  0  0  0  0
   -1.4672   -2.3787   -2.4964 H   0  0  0  0  0  0  0  0  0  0  0  0
   -1.8589   -4.6233   -2.5107 H   0  0  0  0  0  0  0  0  0  0  0  0
   -3.4806   -6.4508   -2.8535 H   0  0  0  0  0  0  0  0  0  0  0  0
   -5.9131   -6.0959   -2.7130 H   0  0  0  0  0  0  0  0  0  0  0  0
   -6.7012   -3.8270   -2.1942 H   0  0  0  0  0  0  0  0  0  0  0  0
   -5.1290   -1.9548   -1.8299 H   0  0  0  0  0  0  0  0  0  0  0  0
   -2.4511   -3.8938    0.1107 H   0  0  0  0  0  0  0  0  0  0  0  0
  1  2  1  0
  2  3  1  0
  2  4  1  0
  4  5  1  0
  5  6  1  0
  6  7  2  0
  6  8  1  0
  8  9  1  0
  9 10  1  0
 10 11  2  0
 11 12  1  0
 12 13  2  0
 13 14  1  0
 14 15  2  0
  8 16  1  0
 16 17  1  0
 17 18  2  0
 17 19  1  0
 19 20  1  0
 20 21  1  0
 21 22  2  0
 22 23  1  0
 23 24  2  0
 24 25  1  0
 25 26  2  0
 19 27  1  0
 27 28  1  0
 28 29  2  0
 28 30  1  0
 30 31  1  0
 31 32  1  0
 32 33  1  0
 33 34  1  0
 33 35  2  0
 30 36  1  0
 36 37  1  0
 37 38  2  0
 37 39  1  0
 39 40  1  0
 40 41  1  0
 41 42  1  0
 42 43  1  0
 43 44  1  0
 44 45  2  0
 44 46  1  0
 46 47  1  0
 47 48  1  0
 48 49  2  0
 49 50  1  0
 50 51  2  0
 51 52  1  0
 52 53  2  0
 46 54  1  0
 54 55  1  0
 55 56  2  0
 55 57  1  0
 57 58  1  0
 58 59  1  0
 59 60  2  0
 60 61  1  0
 61 62  2  0
 62 63  1  0
 63 64  2  0
 57 65  1  0
 65 66  1  0
 66 67  2  0
 66  4  1  0
 15 10  1  0
 26 21  1  0
 43 39  1  0
 53 48  1  0
 64 59  1  0
  1 68  1  0
  1 69  1  0
  1 70  1  0
  2 71  1  0
  3 72  1  0
  3 73  1  0
  3 74  1  0
  4 75  1  6
  5 76  1  0
  8 77  1  6
  9 78  1  0
  9 79  1  0
 11 80  1  0
 12 81  1  0
 13 82  1  0
 14 83  1  0
 15 84  1  0
 16 85  1  0
 19 86  1  1
 20 87  1  0
 20 88  1  0
 22 89  1  0
 23 90  1  0
 24 91  1  0
 25 92  1  0
 26 93  1  0
 27 94  1  0
 30 95  1  6
 31 96  1  0
 31 97  1  0
 32 98  1  0
 32 99  1  0
 34100  1  0
 34101  1  0
 36102  1  0
 39103  1  6
 40104  1  0
 40105  1  0
 41106  1  0
 41107  1  0
 42108  1  0
 42109  1  0
 46110  1  1
 47111  1  0
 47112  1  0
 49113  1  0
 50114  1  0
 51115  1  0
 52116  1  0
 53117  1  0
 54118  1  0
 57119  1  6
 58120  1  0
 58121  1  0
 60122  1  0
 61123  1  0
 62124  1  0
 63125  1  0
 64126  1  0
 65127  1  0
M  END
$$$$
[H]OC(=O)[C@]1([H])N([H])[C@]([H])(C([H])([H])c2c([H])c([H])c([H])c([N+](=O)[O-])c2[H])C1([H])[H]
     RDKit          3D

 29 30  0  0  0  0  0  0  0  0999 V2000
    0.0714   -0.9820   -0.9834 C   0  0  0  0  0  0  0  0  0  0  0  0
   -1.1762   -0.5929   -0.2903 C   0  0  0  0  0  0  0  0  0  0  0  0
   -1.4252   -0.9984    1.0036 C   0  0  0  0  0  0  0  0  0  0  0  0
   -2.5975   -0.6241    1.6342 C   0  0  0  0  0  0  0  0  0  0  0  0
   -3.5473    0.1514    1.0158 C   0  0  0  0  0  0  0  0  0  0  0  0
   -3.3101    0.5674   -0.2876 C   0  0  0  0  0  0  0  0  0  0  0  0
   -4.2610    1.3699   -0.9692 N   0  0  0  0  0  0  0  0  0  0  0  0
   -4.0314    1.7774   -2.2424 O   0  0  0  0  0  0  0  0  0  0  0  0
   -5.3186    1.7008   -0.3841 O   0  0  0  0  0  0  0  0  0  0  0  0
   -2.1420    0.1935   -0.9140 C   0  0  0  0  0  0  0  0  0  0  0  0
    1.1336    0.0572   -0.7296 C   0  0  1  0  0  0  0  0  0  0  0  0
    1.4706    0.2456    0.6706 N   0  0  0  0  0  0  0  0  0  0  0  0
    2.8255    0.5338    0.2362 C   0  0  1  0  0  0  0  0  0  0  0  0
    3.8866    0.1064    1.1416 C   0  0  0  0  0  0  0  0  0  0  0  0
    5.2060    0.3320    0.8236 O   0  0  0  0  0  0  0  0  0  0  0  0
    3.6093   -0.4698    2.2171 O   0  0  0  0  0  0  0  0  0  0  0  0
    2.5575   -0.4148   -0.9406 C   0  0  0  0  0  0  0  0  0  0  0  0
   -0.1522   -0.9951   -2.0677 H   0  0  0  0  0  0  0  0  0  0  0  0
    0.4636   -1.9525   -0.6065 H   0  0  0  0  0  0  0  0  0  0  0  0
   -0.7044   -1.6193    1.5501 H   0  0  0  0  0  0  0  0  0  0  0  0
   -2.7858   -0.9474    2.6523 H   0  0  0  0  0  0  0  0  0  0  0  0
   -4.4613    0.4389    1.5179 H   0  0  0  0  0  0  0  0  0  0  0  0
   -1.9053    0.4917   -1.9350 H   0  0  0  0  0  0  0  0  0  0  0  0
    0.9570    1.0311   -1.2031 H   0  0  0  0  0  0  0  0  0  0  0  0
    1.4699   -0.6640    1.2049 H   0  0  0  0  0  0  0  0  0  0  0  0
    2.8861    1.5752   -0.1486 H   0  0  0  0  0  0  0  0  0  0  0  0
    5.5892    1.2461    0.5812 H   0  0  0  0  0  0  0  0  0  0  0  0
    2.9784   -0.0884   -1.8958 H   0  0  0  0  0  0  0  0  0  0  0  0
    2.7139   -1.4696   -0.6511 H   0  0  0  0  0  0  0  0  0  0  0  0
  1  2  1  0
  2  3  2  0
  3  4  1  0
  4  5  2  0
  5  6  1  0
  6  7  1  0
  7  8  1  0
  7  9  2  0
  6 10  2  0
  1 11  1  0
 11 12  1  0
 12 13  1  0
 13 14  1  0
 14 15  1  0
 14 16  2  0
 13 17  1  0
 10  2  1  0
 17 11  1  0
  1 18  1  0
  1 19  1  0
  3 20  1  0
  4 21  1  0
  5 22  1  0
 10 23  1  0
 11 24  1  6
 12 25  1  0
 13 26  1  6
 15 27  1  0
 17 28  1  0
 17 29  1  0
M  CHG  2   7   1   8  -1
M  END
$$$$
[H]c1nc([H])c(C2([H])C([H])([H])C2([H])[H])c([H])c1-c1nn(C2([H])C([H])([H])C3([H])C([H])([H])C([H])([H])C2([H])C3([H])[H])c2c([H])c([H])c([H])c(F)c12
     RDKit          3D

 48 53  0  0  0  0  0  0  0  0999 V2000
   -2.3689   -1.8510    2.1060 F   0  0  0  0  0  0  0  0  0  0  0  0
   -1.0414   -1.6781    2.1563 C   0  0  0  0  0  0  0  0  0  0  0  0
   -0.3721   -1.9875    3.3106 C   0  0  0  0  0  0  0  0  0  0  0  0
    0.9783   -1.8488    3.3830 C   0  0  0  0  0  0  0  0  0  0  0  0
    1.6965   -1.3960    2.2975 C   0  0  0  0  0  0  0  0  0  0  0  0
    1.0441   -1.0771    1.1198 C   0  0  0  0  0  0  0  0  0  0  0  0
    1.4794   -0.6326   -0.0766 N   0  0  0  0  0  0  0  0  0  0  0  0
    0.4410   -0.5031   -0.8455 N   0  0  0  0  0  0  0  0  0  0  0  0
   -0.6939   -0.8438   -0.2145 C   0  0  0  0  0  0  0  0  0  0  0  0
   -2.0185   -0.8313   -0.8070 C   0  0  0  0  0  0  0  0  0  0  0  0
   -2.2265   -1.5458   -1.9983 C   0  0  0  0  0  0  0  0  0  0  0  0
   -3.4001   -1.5504   -2.6294 N   0  0  0  0  0  0  0  0  0  0  0  0
   -4.4323   -0.8582   -2.1312 C   0  0  0  0  0  0  0  0  0  0  0  0
   -4.2828   -0.1381   -0.9631 C   0  0  0  0  0  0  0  0  0  0  0  0
   -3.0742   -0.1277   -0.3054 C   0  0  0  0  0  0  0  0  0  0  0  0
   -5.4423    0.6264   -0.4230 C   0  0  0  0  0  0  0  0  0  0  0  0
   -5.0987    1.9575    0.1746 C   0  0  0  0  0  0  0  0  0  0  0  0
   -5.5924    0.8461    1.0295 C   0  0  0  0  0  0  0  0  0  0  0  0
   -0.3602   -1.2228    1.0557 C   0  0  0  0  0  0  0  0  0  0  0  0
    2.8844   -0.3824   -0.3314 C   0  0  0  0  0  0  0  0  0  0  0  0
    3.4501    0.6765    0.6067 C   0  0  0  0  0  0  0  0  0  0  0  0
    3.8442    1.8478   -0.2648 C   0  0  0  0  0  0  0  0  0  0  0  0
    5.0876    1.4858   -1.0074 C   0  0  0  0  0  0  0  0  0  0  0  0
    4.6124    0.3209   -1.8855 C   0  0  0  0  0  0  0  0  0  0  0  0
    3.1179    0.2307   -1.6824 C   0  0  0  0  0  0  0  0  0  0  0  0
    2.7959    1.7050   -1.3838 C   0  0  0  0  0  0  0  0  0  0  0  0
   -0.8667   -2.3499    4.2061 H   0  0  0  0  0  0  0  0  0  0  0  0
    1.5529   -2.0835    4.2847 H   0  0  0  0  0  0  0  0  0  0  0  0
    2.7796   -1.2815    2.3445 H   0  0  0  0  0  0  0  0  0  0  0  0
   -1.3636   -2.0997   -2.3772 H   0  0  0  0  0  0  0  0  0  0  0  0
   -5.3879   -0.8801   -2.6718 H   0  0  0  0  0  0  0  0  0  0  0  0
   -2.9901    0.4622    0.5976 H   0  0  0  0  0  0  0  0  0  0  0  0
   -6.3580    0.5442   -1.0334 H   0  0  0  0  0  0  0  0  0  0  0  0
   -4.0215    2.2298    0.2983 H   0  0  0  0  0  0  0  0  0  0  0  0
   -5.7420    2.8001   -0.1147 H   0  0  0  0  0  0  0  0  0  0  0  0
   -4.8747    0.4076    1.7636 H   0  0  0  0  0  0  0  0  0  0  0  0
   -6.6414    0.9370    1.4082 H   0  0  0  0  0  0  0  0  0  0  0  0
    3.4322   -1.3386   -0.2684 H   0  0  0  0  0  0  0  0  0  0  0  0
    2.6863    0.9938    1.3538 H   0  0  0  0  0  0  0  0  0  0  0  0
    4.3040    0.2390    1.1436 H   0  0  0  0  0  0  0  0  0  0  0  0
    3.8252    2.8074    0.2153 H   0  0  0  0  0  0  0  0  0  0  0  0
    5.8500    1.1546   -0.2763 H   0  0  0  0  0  0  0  0  0  0  0  0
    5.4252    2.3407   -1.6084 H   0  0  0  0  0  0  0  0  0  0  0  0
    5.0943   -0.5940   -1.4837 H   0  0  0  0  0  0  0  0  0  0  0  0
    4.8774    0.4847   -2.9452 H   0  0  0  0  0  0  0  0  0  0  0  0
    2.5579   -0.1769   -2.4987 H   0  0  0  0  0  0  0  0  0  0  0  0
    3.0395    2.3499   -2.2418 H   0  0  0  0  0  0  0  0  0  0  0  0
    1.7939    1.8313   -0.9744 H   0  0  0  0  0  0  0  0  0  0  0  0
  1  2  1  0
  2  3  1  0
  3  4  2  0
  4  5  1  0
  5  6  2  0
  6  7  1  0
  7  8  1  0
  8  9  2  0
  9 10  1  0
 10 11  2  0
 11 12  1  0
 12 13  2  0
 13 14  1  0
 14 15  2  0
 14 16  1  0
 16 17  1  0
 17 18  1  0
  9 19  1  0
  7 20  1  0
 20 21  1  0
 21 22  1  0
 22 23  1  0
 23 24  1  0
 24 25  1  0
 25 26  1  0
 19  2  2  0
 25 20  1  0
 19  6  1  0
 26 22  1  0
 15 10  1  0
 18 16  1  0
  3 27  1  0
  4 28  1  0
  5 29  1  0
 11 30  1  0
 13 31  1  0
 15 32  1  0
 16 33  1  0
 17 34  1  0
 17 35  1  0
 18 36  1  0
 18 37  1  0
 20 38  1  0
 21 39  1  0
 21 40  1  0
 22 41  1  0
 23 42  1  0
 23 43  1  0
 24 44  1  0
 24 45  1  0
 25 46  1  0
 26 47  1  0
 26 48  1  0
M  END
$$$$
[H]c1c([H])c(Oc2nc3c([H])c(C(=O)N([H])c4c([H])c([H])c(C([H])([H])[H])c(C(F)(F)F)c4[H])c([H])c([H])c3n2C([H])([H])[H])c(F)c([H])c1F
     RDKit          3D

 49 52  0  0  0  0  0  0  0  0999 V2000
   -8.2271    0.2499   -0.0812 C   0  0  0  0  0  0  0  0  0  0  0  0
   -6.7579    0.1326   -0.1242 C   0  0  0  0  0  0  0  0  0  0  0  0
   -6.2347   -1.0937    0.2289 C   0  0  0  0  0  0  0  0  0  0  0  0
   -4.8678   -1.3661    0.2400 C   0  0  0  0  0  0  0  0  0  0  0  0
   -4.0053   -0.3722   -0.1146 C   0  0  0  0  0  0  0  0  0  0  0  0
   -2.5955   -0.4833   -0.1281 N   0  0  0  0  0  0  0  0  0  0  0  0
   -1.8653   -1.4096    0.6067 C   0  0  0  0  0  0  0  0  0  0  0  0
   -2.4368   -2.2346    1.3697 O   0  0  0  0  0  0  0  0  0  0  0  0
   -0.3953   -1.4295    0.4942 C   0  0  0  0  0  0  0  0  0  0  0  0
    0.3179   -2.1894    1.4136 C   0  0  0  0  0  0  0  0  0  0  0  0
    1.6875   -2.2998    1.4186 C   0  0  0  0  0  0  0  0  0  0  0  0
    2.3898   -1.6139    0.4520 C   0  0  0  0  0  0  0  0  0  0  0  0
    3.7252   -1.5487    0.2311 N   0  0  0  0  0  0  0  0  0  0  0  0
    4.7510   -2.2298    1.0163 C   0  0  0  0  0  0  0  0  0  0  0  0
    3.8740   -0.7436   -0.8351 C   0  0  0  0  0  0  0  0  0  0  0  0
    5.1068   -0.4203   -1.3825 O   0  0  0  0  0  0  0  0  0  0  0  0
    5.8100    0.7202   -1.0700 C   0  0  0  0  0  0  0  0  0  0  0  0
    5.3465    1.6543   -0.1742 C   0  0  0  0  0  0  0  0  0  0  0  0
    6.0867    2.7885    0.1114 C   0  0  0  0  0  0  0  0  0  0  0  0
    7.3109    3.0186   -0.4917 C   0  0  0  0  0  0  0  0  0  0  0  0
    8.0347    4.1360   -0.2069 F   0  0  0  0  0  0  0  0  0  0  0  0
    7.7669    2.0716   -1.3913 C   0  0  0  0  0  0  0  0  0  0  0  0
    7.0188    0.9438   -1.6678 C   0  0  0  0  0  0  0  0  0  0  0  0
    7.5497    0.0682   -2.5669 F   0  0  0  0  0  0  0  0  0  0  0  0
    2.6693   -0.3232   -1.2614 N   0  0  0  0  0  0  0  0  0  0  0  0
    1.7094   -0.8529   -0.4721 C   0  0  0  0  0  0  0  0  0  0  0  0
    0.3122   -0.7525   -0.4614 C   0  0  0  0  0  0  0  0  0  0  0  0
   -4.5585    0.8765   -0.4734 C   0  0  0  0  0  0  0  0  0  0  0  0
   -5.8996    1.1393   -0.4834 C   0  0  0  0  0  0  0  0  0  0  0  0
   -6.4661    2.4570   -0.8629 C   0  0  0  0  0  0  0  0  0  0  0  0
   -5.3694    3.2758   -1.1755 F   0  0  0  0  0  0  0  0  0  0  0  0
   -7.1955    2.3900   -2.0527 F   0  0  0  0  0  0  0  0  0  0  0  0
   -7.1351    3.0823    0.1418 F   0  0  0  0  0  0  0  0  0  0  0  0
   -8.5356    0.0088    0.9687 H   0  0  0  0  0  0  0  0  0  0  0  0
   -8.6997   -0.5596   -0.7075 H   0  0  0  0  0  0  0  0  0  0  0  0
   -8.6413    1.1897   -0.4291 H   0  0  0  0  0  0  0  0  0  0  0  0
   -6.8904   -1.9275    0.5233 H   0  0  0  0  0  0  0  0  0  0  0  0
   -4.5247   -2.3624    0.5128 H   0  0  0  0  0  0  0  0  0  0  0  0
   -2.0601    0.1997   -0.7528 H   0  0  0  0  0  0  0  0  0  0  0  0
   -0.2326   -2.7367    2.1837 H   0  0  0  0  0  0  0  0  0  0  0  0
    2.2297   -2.8978    2.1442 H   0  0  0  0  0  0  0  0  0  0  0  0
    4.3925   -3.2311    1.3723 H   0  0  0  0  0  0  0  0  0  0  0  0
    5.0297   -1.6317    1.9016 H   0  0  0  0  0  0  0  0  0  0  0  0
    5.6602   -2.4335    0.4227 H   0  0  0  0  0  0  0  0  0  0  0  0
    4.3872    1.4593    0.2889 H   0  0  0  0  0  0  0  0  0  0  0  0
    5.7397    3.5202    0.8034 H   0  0  0  0  0  0  0  0  0  0  0  0
    8.7195    2.2394   -1.8678 H   0  0  0  0  0  0  0  0  0  0  0  0
   -0.1734   -0.1581   -1.1929 H   0  0  0  0  0  0  0  0  0  0  0  0
   -3.8582    1.6797   -0.7603 H   0  0  0  0  0  0  0  0  0  0  0  0
  1  2  1  0
  2  3  2  0
  3  4  1  0
  4  5  2  0
  5  6  1  0
  6  7  1  0
  7  8  2  0
  7  9  1  0
  9 10  2  0
 10 11  1  0
 11 12  2  0
 12 13  1  0
 13 14  1  0
 13 15  1  0
 15 16  1  0
 16 17  1  0
 17 18  2  0
 18 19  1  0
 19 20  2  0
 20 21  1  0
 20 22  1  0
 22 23  2  0
 23 24  1  0
 15 25  2  0
 25 26  1  0
 26 27  2  0
  5 28  1  0
 28 29  2  0
 29 30  1  0
 30 31  1  0
 30 32  1  0
 30 33  1  0
 29  2  1  0
 27  9  1  0
 26 12  1  0
 23 17  1  0
  1 34  1  0
  1 35  1  0
  1 36  1  0
  3 37  1  0
  4 38  1  0
  6 39  1  0
 10 40  1  0
 11 41  1  0
 14 42  1  0
 14 43  1  0
 14 44  1  0
 18 45  1  0
 19 46  1  0
 22 47  1  0
 27 48  1  0
 28 49  1  0
M  END
$$$$
[H]Oc1c([H])c([H])c([H])c(-c2nn([C@@]3([H])C([H])([H])N(S(=O)(=O)c4c([H])c([H])c([H])c([H])c4[H])C([H])([H])C([H])([H])C3([H])[H])c3nc([H])nc(N([H])[H])c23)c1[H]
     RDKit          3D

 54 58  0  0  0  0  0  0  0  0999 V2000
   -5.4794    3.3768    1.8018 O   0  0  0  0  0  0  0  0  0  0  0  0
   -5.3441    2.0053    1.6162 C   0  0  0  0  0  0  0  0  0  0  0  0
   -6.2853    1.1802    2.2027 C   0  0  0  0  0  0  0  0  0  0  0  0
   -6.1727   -0.1816    2.0339 C   0  0  0  0  0  0  0  0  0  0  0  0
   -5.1290   -0.6806    1.2882 C   0  0  0  0  0  0  0  0  0  0  0  0
   -4.1814    0.0983    0.6931 C   0  0  0  0  0  0  0  0  0  0  0  0
   -4.3176    1.4778    0.8797 C   0  0  0  0  0  0  0  0  0  0  0  0
   -3.0715   -0.3631   -0.1286 C   0  0  0  0  0  0  0  0  0  0  0  0
   -1.7582   -0.0685    0.1574 N   0  0  0  0  0  0  0  0  0  0  0  0
   -0.9743   -0.5854   -0.7527 N   0  0  0  0  0  0  0  0  0  0  0  0
    0.4850   -0.5171   -0.8378 C   0  0  2  0  0  0  0  0  0  0  0  0
    1.1141   -1.8646   -0.8315 C   0  0  0  0  0  0  0  0  0  0  0  0
    1.9438   -2.1445    0.3939 C   0  0  0  0  0  0  0  0  0  0  0  0
    2.8964   -1.0609    0.7490 C   0  0  0  0  0  0  0  0  0  0  0  0
    2.4333    0.2467    0.4498 N   0  0  0  0  0  0  0  0  0  0  0  0
    1.0447    0.4071    0.2183 C   0  0  0  0  0  0  0  0  0  0  0  0
    3.4514    1.1587   -0.5694 S   0  0  0  0  0  0  0  0  0  0  0  0
    2.8501    2.5088   -0.8339 O   0  0  0  0  0  0  0  0  0  0  0  0
    3.6690    0.5074   -1.9051 O   0  0  0  0  0  0  0  0  0  0  0  0
    5.0311    1.4306    0.1300 C   0  0  0  0  0  0  0  0  0  0  0  0
    5.3027    2.5264    0.9288 C   0  0  0  0  0  0  0  0  0  0  0  0
    6.5668    2.7032    1.4610 C   0  0  0  0  0  0  0  0  0  0  0  0
    7.5904    1.8205    1.2281 C   0  0  0  0  0  0  0  0  0  0  0  0
    7.3241    0.7291    0.4339 C   0  0  0  0  0  0  0  0  0  0  0  0
    6.0526    0.5424   -0.1071 C   0  0  0  0  0  0  0  0  0  0  0  0
   -1.7313   -1.2314   -1.6626 C   0  0  0  0  0  0  0  0  0  0  0  0
   -1.4579   -1.9143   -2.7850 N   0  0  0  0  0  0  0  0  0  0  0  0
   -2.4514   -2.4458   -3.5090 C   0  0  0  0  0  0  0  0  0  0  0  0
   -3.7367   -2.3259   -3.1594 N   0  0  0  0  0  0  0  0  0  0  0  0
   -4.0908   -1.6497   -2.0369 C   0  0  0  0  0  0  0  0  0  0  0  0
   -5.4542   -1.5007   -1.6957 N   0  0  0  0  0  0  0  0  0  0  0  0
   -3.0624   -1.0939   -1.2743 C   0  0  0  0  0  0  0  0  0  0  0  0
   -4.8042    4.0257    1.3849 H   0  0  0  0  0  0  0  0  0  0  0  0
   -7.1010    1.5812    2.7863 H   0  0  0  0  0  0  0  0  0  0  0  0
   -6.9168   -0.8036    2.4996 H   0  0  0  0  0  0  0  0  0  0  0  0
   -5.0722   -1.7550    1.2037 H   0  0  0  0  0  0  0  0  0  0  0  0
   -3.5907    2.1486    0.4291 H   0  0  0  0  0  0  0  0  0  0  0  0
    0.6969   -0.0374   -1.8166 H   0  0  0  0  0  0  0  0  0  0  0  0
    0.2902   -2.6322   -0.8348 H   0  0  0  0  0  0  0  0  0  0  0  0
    1.6786   -2.0462   -1.7678 H   0  0  0  0  0  0  0  0  0  0  0  0
    1.2950   -2.3600    1.2676 H   0  0  0  0  0  0  0  0  0  0  0  0
    2.4981   -3.1060    0.1853 H   0  0  0  0  0  0  0  0  0  0  0  0
    3.0844   -1.1134    1.8531 H   0  0  0  0  0  0  0  0  0  0  0  0
    3.8726   -1.2273    0.2539 H   0  0  0  0  0  0  0  0  0  0  0  0
    0.5038    0.1725    1.1739 H   0  0  0  0  0  0  0  0  0  0  0  0
    0.8433    1.4682   -0.0011 H   0  0  0  0  0  0  0  0  0  0  0  0
    4.4937    3.2094    1.1034 H   0  0  0  0  0  0  0  0  0  0  0  0
    6.7621    3.5760    2.0904 H   0  0  0  0  0  0  0  0  0  0  0  0
    8.5705    2.0062    1.6723 H   0  0  0  0  0  0  0  0  0  0  0  0
    8.1292    0.0322    0.2491 H   0  0  0  0  0  0  0  0  0  0  0  0
    5.8618   -0.3244   -0.7318 H   0  0  0  0  0  0  0  0  0  0  0  0
   -2.2661   -3.0104   -4.4311 H   0  0  0  0  0  0  0  0  0  0  0  0
   -5.9659   -2.2984   -1.2950 H   0  0  0  0  0  0  0  0  0  0  0  0
   -5.9206   -0.5971   -1.8514 H   0  0  0  0  0  0  0  0  0  0  0  0
  1  2  1  0
  2  3  2  0
  3  4  1  0
  4  5  2  0
  5  6  1  0
  6  7  2  0
  6  8  1  0
  8  9  2  0
  9 10  1  0
 10 11  1  0
 11 12  1  0
 12 13  1  0
 13 14  1  0
 14 15  1  0
 15 16  1  0
 15 17  1  0
 17 18  2  0
 17 19  2  0
 17 20  1  0
 20 21  2  0
 21 22  1  0
 22 23  2  0
 23 24  1  0
 24 25  2  0
 10 26  1  0
 26 27  2  0
 27 28  1  0
 28 29  2  0
 29 30  1  0
 30 31  1  0
 30 32  2  0
  7  2  1  0
 32  8  1  0
 16 11  1  0
 25 20  1  0
 32 26  1  0
  1 33  1  0
  3 34  1  0
  4 35  1  0
  5 36  1  0
  7 37  1  0
 11 38  1  6
 12 39  1  0
 12 40  1  0
 13 41  1  0
 13 42  1  0
 14 43  1  0
 14 44  1  0
 16 45  1  0
 16 46  1  0
 21 47  1  0
 22 48  1  0
 23 49  1  0
 24 50  1  0
 25 51  1  0
 28 52  1  0
 31 53  1  0
 31 54  1  0
M  END
$$$$
[H]OC(=O)C([H])(C(=O)N([H])[C@]([H])(C(=O)N([H])C([H])([H])C(=O)N([H])[C@]([H])(C(=O)O[H])C([H])([H])c1c([H])c([H])c(O[H])c([H])c1[H])[C@]([H])(C([H])([H])[H])C([H])([H])C([H])([H])[H])C([H])([H])S[H]
     RDKit          3D

 62 62  0  0  0  0  0  0  0  0999 V2000
    3.6587   -0.2319   -3.3805 C   0  0  0  0  0  0  0  0  0  0  0  0
    3.7485   -1.1665   -2.2037 C   0  0  0  0  0  0  0  0  0  0  0  0
    3.8839   -0.4798   -0.8993 C   0  0  1  0  0  0  0  0  0  0  0  0
    5.1231    0.3820   -0.8120 C   0  0  0  0  0  0  0  0  0  0  0  0
    2.6403    0.2694   -0.4925 C   0  0  2  0  0  0  0  0  0  0  0  0
    2.8647    0.9275    0.8035 N   0  0  0  0  0  0  0  0  0  0  0  0
    2.6430    2.3152    0.9895 C   0  0  0  0  0  0  0  0  0  0  0  0
    2.2368    2.9913   -0.0047 O   0  0  0  0  0  0  0  0  0  0  0  0
    2.8869    2.9211    2.3046 C   0  0  0  0  0  0  0  0  0  0  0  0
    2.6316    4.4171    2.2948 C   0  0  0  0  0  0  0  0  0  0  0  0
    3.7216    5.2096    1.1048 S   0  0  0  0  0  0  0  0  0  0  0  0
    2.1458    2.2422    3.3679 C   0  0  0  0  0  0  0  0  0  0  0  0
    2.2949    2.6519    4.6841 O   0  0  0  0  0  0  0  0  0  0  0  0
    1.3782    1.2973    3.1135 O   0  0  0  0  0  0  0  0  0  0  0  0
    1.5514   -0.7317   -0.2829 C   0  0  0  0  0  0  0  0  0  0  0  0
    1.4359   -1.2061    0.8819 O   0  0  0  0  0  0  0  0  0  0  0  0
    0.6635   -1.1673   -1.2771 N   0  0  0  0  0  0  0  0  0  0  0  0
   -0.3589   -2.1245   -0.9945 C   0  0  0  0  0  0  0  0  0  0  0  0
   -1.3541   -1.6991    0.0110 C   0  0  0  0  0  0  0  0  0  0  0  0
   -1.2774   -0.5588    0.5447 O   0  0  0  0  0  0  0  0  0  0  0  0
   -2.4073   -2.5782    0.3836 N   0  0  0  0  0  0  0  0  0  0  0  0
   -3.3779   -2.1421    1.3803 C   0  0  1  0  0  0  0  0  0  0  0  0
   -4.7771   -2.0632    0.8094 C   0  0  0  0  0  0  0  0  0  0  0  0
   -4.8468   -1.1084   -0.3232 C   0  0  0  0  0  0  0  0  0  0  0  0
   -5.1138    0.2359   -0.1719 C   0  0  0  0  0  0  0  0  0  0  0  0
   -5.1801    1.0903   -1.2516 C   0  0  0  0  0  0  0  0  0  0  0  0
   -4.9832    0.6504   -2.5474 C   0  0  0  0  0  0  0  0  0  0  0  0
   -5.0520    1.5169   -3.6279 O   0  0  0  0  0  0  0  0  0  0  0  0
   -4.7140   -0.6992   -2.7117 C   0  0  0  0  0  0  0  0  0  0  0  0
   -4.6468   -1.5554   -1.6343 C   0  0  0  0  0  0  0  0  0  0  0  0
   -3.2954   -3.0922    2.5044 C   0  0  0  0  0  0  0  0  0  0  0  0
   -4.1255   -2.9112    3.6098 O   0  0  0  0  0  0  0  0  0  0  0  0
   -2.5096   -4.0802    2.5393 O   0  0  0  0  0  0  0  0  0  0  0  0
    4.0239    0.7873   -3.1711 H   0  0  0  0  0  0  0  0  0  0  0  0
    2.6102   -0.1720   -3.7535 H   0  0  0  0  0  0  0  0  0  0  0  0
    4.2730   -0.6417   -4.2040 H   0  0  0  0  0  0  0  0  0  0  0  0
    4.6753   -1.7963   -2.3410 H   0  0  0  0  0  0  0  0  0  0  0  0
    2.8992   -1.8467   -2.2227 H   0  0  0  0  0  0  0  0  0  0  0  0
    4.0261   -1.2863   -0.1178 H   0  0  0  0  0  0  0  0  0  0  0  0
    5.1661    1.1948   -1.5330 H   0  0  0  0  0  0  0  0  0  0  0  0
    5.9847   -0.2930   -1.0282 H   0  0  0  0  0  0  0  0  0  0  0  0
    5.1886    0.7781    0.2295 H   0  0  0  0  0  0  0  0  0  0  0  0
    2.3014    0.9839   -1.2564 H   0  0  0  0  0  0  0  0  0  0  0  0
    3.1953    0.3678    1.6110 H   0  0  0  0  0  0  0  0  0  0  0  0
    3.9869    2.8030    2.5046 H   0  0  0  0  0  0  0  0  0  0  0  0
    1.5594    4.6686    2.1660 H   0  0  0  0  0  0  0  0  0  0  0  0
    2.9309    4.7719    3.3186 H   0  0  0  0  0  0  0  0  0  0  0  0
    2.9065    5.7362    0.0600 H   0  0  0  0  0  0  0  0  0  0  0  0
    1.4858    2.7538    5.3130 H   0  0  0  0  0  0  0  0  0  0  0  0
    0.7896   -0.7411   -2.2459 H   0  0  0  0  0  0  0  0  0  0  0  0
   -0.8803   -2.4215   -1.9421 H   0  0  0  0  0  0  0  0  0  0  0  0
    0.1497   -3.0363   -0.5829 H   0  0  0  0  0  0  0  0  0  0  0  0
   -2.4821   -3.5115   -0.0467 H   0  0  0  0  0  0  0  0  0  0  0  0
   -3.1259   -1.1314    1.7491 H   0  0  0  0  0  0  0  0  0  0  0  0
   -5.1802   -3.0701    0.5307 H   0  0  0  0  0  0  0  0  0  0  0  0
   -5.4346   -1.7248    1.6602 H   0  0  0  0  0  0  0  0  0  0  0  0
   -5.2693    0.5809    0.8550 H   0  0  0  0  0  0  0  0  0  0  0  0
   -5.3905    2.1280   -1.0922 H   0  0  0  0  0  0  0  0  0  0  0  0
   -4.2128    1.9684   -3.9114 H   0  0  0  0  0  0  0  0  0  0  0  0
   -4.5554   -1.0638   -3.7385 H   0  0  0  0  0  0  0  0  0  0  0  0
   -4.4370   -2.6178   -1.7594 H   0  0  0  0  0  0  0  0  0  0  0  0
   -4.6738   -3.6907    3.9051 H   0  0  0  0  0  0  0  0  0  0  0  0
  1  2  1  0
  2  3  1  0
  3  4  1  0
  3  5  1  0
  5  6  1  0
  6  7  1  0
  7  8  2  0
  7  9  1  0
  9 10  1  0
 10 11  1  0
  9 12  1  0
 12 13  1  0
 12 14  2  0
  5 15  1  0
 15 16  2  0
 15 17  1  0
 17 18  1  0
 18 19  1  0
 19 20  2  0
 19 21  1  0
 21 22  1  0
 22 23  1  0
 23 24  1  0
 24 25  2  0
 25 26  1  0
 26 27  2  0
 27 28  1  0
 27 29  1  0
 29 30  2  0
 22 31  1  0
 31 32  1  0
 31 33  2  0
 30 24  1  0
  1 34  1  0
  1 35  1  0
  1 36  1  0
  2 37  1  0
  2 38  1  0
  3 39  1  1
  4 40  1  0
  4 41  1  0
  4 42  1  0
  5 43  1  6
  6 44  1  0
  9 45  1  0
 10 46  1  0
 10 47  1  0
 11 48  1  0
 13 49  1  0
 17 50  1  0
 18 51  1  0
 18 52  1  0
 21 53  1  0
 22 54  1  1
 23 55  1  0
 23 56  1  0
 25 57  1  0
 26 58  1  0
 28 59  1  0
 29 60  1  0
 30 61  1  0
 32 62  1  0
M  END
$$$$
[H]c1nc2c(c([H])c1[H])C([H])([H])N(C(=O)c1c([H])c([H])c3nnn([C@]([H])(C([H])([H])[H])C([H])([H])C([H])(C([H])([H])[H])C([H])([H])[H])c3c1[H])C2([H])[H]
     RDKit          3D

 49 52  0  0  0  0  0  0  0  0999 V2000
   -6.9295   -1.1171    0.5143 C   0  0  0  0  0  0  0  0  0  0  0  0
   -5.6381   -0.6602   -0.2239 C   0  0  0  0  0  0  0  0  0  0  0  0
   -5.8098    0.8099   -0.4058 C   0  0  0  0  0  0  0  0  0  0  0  0
   -4.5192   -1.1715    0.5796 C   0  0  0  0  0  0  0  0  0  0  0  0
   -3.1245   -0.9241    0.1550 C   0  0  1  0  0  0  0  0  0  0  0  0
   -2.8160   -1.4050   -1.2258 C   0  0  0  0  0  0  0  0  0  0  0  0
   -2.5832    0.3425    0.5471 N   0  0  0  0  0  0  0  0  0  0  0  0
   -3.0912    1.4087    1.1025 N   0  0  0  0  0  0  0  0  0  0  0  0
   -2.2509    2.3666    1.3196 N   0  0  0  0  0  0  0  0  0  0  0  0
   -1.0482    1.9463    0.8833 C   0  0  0  0  0  0  0  0  0  0  0  0
    0.2041    2.5037    0.8495 C   0  0  0  0  0  0  0  0  0  0  0  0
    1.2726    1.7700    0.3186 C   0  0  0  0  0  0  0  0  0  0  0  0
    1.0855    0.5002   -0.1680 C   0  0  0  0  0  0  0  0  0  0  0  0
   -0.2138   -0.0468   -0.1206 C   0  0  0  0  0  0  0  0  0  0  0  0
   -1.2481    0.6720    0.3955 C   0  0  0  0  0  0  0  0  0  0  0  0
    2.1478   -0.3178   -0.7075 C   0  0  0  0  0  0  0  0  0  0  0  0
    1.7627   -1.4588   -1.2033 O   0  0  0  0  0  0  0  0  0  0  0  0
    3.5268   -0.0759   -0.7798 N   0  0  0  0  0  0  0  0  0  0  0  0
    4.3479    1.0050   -0.3496 C   0  0  0  0  0  0  0  0  0  0  0  0
    5.7567    0.5269   -0.4360 C   0  0  0  0  0  0  0  0  0  0  0  0
    6.9323    1.1068    0.0052 C   0  0  0  0  0  0  0  0  0  0  0  0
    8.1229    0.4134   -0.2073 C   0  0  0  0  0  0  0  0  0  0  0  0
    8.1326   -0.8080   -0.8348 C   0  0  0  0  0  0  0  0  0  0  0  0
    6.9449   -1.3157   -1.2405 N   0  0  0  0  0  0  0  0  0  0  0  0
    5.7778   -0.6881   -1.0592 C   0  0  0  0  0  0  0  0  0  0  0  0
    4.4167   -1.0673   -1.4270 C   0  0  0  0  0  0  0  0  0  0  0  0
   -7.8127   -0.6545    0.0449 H   0  0  0  0  0  0  0  0  0  0  0  0
   -6.9751   -2.2210    0.5363 H   0  0  0  0  0  0  0  0  0  0  0  0
   -6.8742   -0.7642    1.5648 H   0  0  0  0  0  0  0  0  0  0  0  0
   -5.6914   -1.1074   -1.2533 H   0  0  0  0  0  0  0  0  0  0  0  0
   -5.9892    1.3432    0.5571 H   0  0  0  0  0  0  0  0  0  0  0  0
   -6.7995    1.0037   -0.9671 H   0  0  0  0  0  0  0  0  0  0  0  0
   -5.0786    1.2980   -1.0731 H   0  0  0  0  0  0  0  0  0  0  0  0
   -4.6330   -0.7060    1.6177 H   0  0  0  0  0  0  0  0  0  0  0  0
   -4.6571   -2.2778    0.8332 H   0  0  0  0  0  0  0  0  0  0  0  0
   -2.5241   -1.7183    0.8139 H   0  0  0  0  0  0  0  0  0  0  0  0
   -2.2145   -2.3302   -1.2513 H   0  0  0  0  0  0  0  0  0  0  0  0
   -2.2666   -0.6461   -1.8486 H   0  0  0  0  0  0  0  0  0  0  0  0
   -3.7679   -1.6915   -1.7748 H   0  0  0  0  0  0  0  0  0  0  0  0
    0.3683    3.4954    1.2264 H   0  0  0  0  0  0  0  0  0  0  0  0
    2.2304    2.2365    0.2944 H   0  0  0  0  0  0  0  0  0  0  0  0
   -0.3498   -1.0532   -0.4969 H   0  0  0  0  0  0  0  0  0  0  0  0
    4.2332    1.9488   -0.8951 H   0  0  0  0  0  0  0  0  0  0  0  0
    4.1797    1.1427    0.7580 H   0  0  0  0  0  0  0  0  0  0  0  0
    6.9849    2.0522    0.4982 H   0  0  0  0  0  0  0  0  0  0  0  0
    9.0526    0.8364    0.1233 H   0  0  0  0  0  0  0  0  0  0  0  0
    9.0209   -1.3800   -1.0213 H   0  0  0  0  0  0  0  0  0  0  0  0
    4.2270   -1.0843   -2.5190 H   0  0  0  0  0  0  0  0  0  0  0  0
    4.1778   -2.0383   -0.9438 H   0  0  0  0  0  0  0  0  0  0  0  0
  1  2  1  0
  2  3  1  0
  2  4  1  0
  4  5  1  0
  5  6  1  0
  5  7  1  0
  7  8  1  0
  8  9  2  0
  9 10  1  0
 10 11  2  0
 11 12  1  0
 12 13  2  0
 13 14  1  0
 14 15  2  0
 13 16  1  0
 16 17  2  0
 16 18  1  0
 18 19  1  0
 19 20  1  0
 20 21  2  0
 21 22  1  0
 22 23  2  0
 23 24  1  0
 24 25  2  0
 25 26  1  0
 15  7  1  0
 26 18  1  0
 15 10  1  0
 25 20  1  0
  1 27  1  0
  1 28  1  0
  1 29  1  0
  2 30  1  0
  3 31  1  0
  3 32  1  0
  3 33  1  0
  4 34  1  0
  4 35  1  0
  5 36  1  1
  6 37  1  0
  6 38  1  0
  6 39  1  0
 11 40  1  0
 12 41  1  0
 14 42  1  0
 19 43  1  0
 19 44  1  0
 21 45  1  0
 22 46  1  0
 23 47  1  0
 26 48  1  0
 26 49  1  0
M  END
$$$$
[H]c1c([H])c(N2C([H])([H])C([H])([H])N(c3nc4c([H])c([H])c([H])c([H])c4n3[H])[C@]([H])(C([H])([H])[H])C2([H])[H])c([H])c([H])c1C#N
     RDKit          3D

 43 46  0  0  0  0  0  0  0  0999 V2000
   -0.8782   -1.8040   -1.7289 C   0  0  0  0  0  0  0  0  0  0  0  0
   -0.0618   -0.8312   -0.9310 C   0  0  2  0  0  0  0  0  0  0  0  0
    1.2310   -1.4442   -0.3964 C   0  0  0  0  0  0  0  0  0  0  0  0
    1.9663   -0.3565    0.2230 N   0  0  0  0  0  0  0  0  0  0  0  0
    1.2171    0.6174    0.9888 C   0  0  0  0  0  0  0  0  0  0  0  0
   -0.0869   -0.0578    1.4161 C   0  0  0  0  0  0  0  0  0  0  0  0
   -0.8157   -0.2763    0.1696 N   0  0  0  0  0  0  0  0  0  0  0  0
   -2.1864    0.0584    0.0881 C   0  0  0  0  0  0  0  0  0  0  0  0
   -3.2455   -0.7445    0.2879 N   0  0  0  0  0  0  0  0  0  0  0  0
   -4.4071   -0.0888    0.1334 C   0  0  0  0  0  0  0  0  0  0  0  0
   -5.7460   -0.4479    0.2272 C   0  0  0  0  0  0  0  0  0  0  0  0
   -6.7637    0.4860    0.0054 C   0  0  0  0  0  0  0  0  0  0  0  0
   -6.4100    1.7736   -0.3090 C   0  0  0  0  0  0  0  0  0  0  0  0
   -5.0850    2.1392   -0.4043 C   0  0  0  0  0  0  0  0  0  0  0  0
   -4.0648    1.2095   -0.1838 C   0  0  0  0  0  0  0  0  0  0  0  0
   -2.7219    1.2786   -0.2065 N   0  0  0  0  0  0  0  0  0  0  0  0
    3.3842   -0.2145    0.1126 C   0  0  0  0  0  0  0  0  0  0  0  0
    3.9940    0.9419    0.5385 C   0  0  0  0  0  0  0  0  0  0  0  0
    5.3565    1.1403    0.4677 C   0  0  0  0  0  0  0  0  0  0  0  0
    6.1309    0.1328   -0.0524 C   0  0  0  0  0  0  0  0  0  0  0  0
    5.5614   -1.0428   -0.4912 C   0  0  0  0  0  0  0  0  0  0  0  0
    4.1734   -1.2148   -0.4063 C   0  0  0  0  0  0  0  0  0  0  0  0
    7.5655    0.2974   -0.1462 C   0  0  0  0  0  0  0  0  0  0  0  0
    8.6990    0.4433   -0.2072 N   0  0  0  0  0  0  0  0  0  0  0  0
   -1.7365   -1.2237   -2.1537 H   0  0  0  0  0  0  0  0  0  0  0  0
   -0.2489   -2.1448   -2.5963 H   0  0  0  0  0  0  0  0  0  0  0  0
   -1.2225   -2.6654   -1.1427 H   0  0  0  0  0  0  0  0  0  0  0  0
    0.2726   -0.0284   -1.6484 H   0  0  0  0  0  0  0  0  0  0  0  0
    0.9435   -2.2159    0.3446 H   0  0  0  0  0  0  0  0  0  0  0  0
    1.7855   -1.9013   -1.2116 H   0  0  0  0  0  0  0  0  0  0  0  0
    1.7665    0.9948    1.8787 H   0  0  0  0  0  0  0  0  0  0  0  0
    0.9263    1.4239    0.2828 H   0  0  0  0  0  0  0  0  0  0  0  0
   -0.6447    0.5348    2.1435 H   0  0  0  0  0  0  0  0  0  0  0  0
    0.1859   -1.0449    1.8360 H   0  0  0  0  0  0  0  0  0  0  0  0
   -5.9761   -1.4671    0.4761 H   0  0  0  0  0  0  0  0  0  0  0  0
   -7.7992    0.2135    0.0770 H   0  0  0  0  0  0  0  0  0  0  0  0
   -7.2201    2.4918   -0.4793 H   0  0  0  0  0  0  0  0  0  0  0  0
   -4.7880    3.1364   -0.6472 H   0  0  0  0  0  0  0  0  0  0  0  0
   -2.1428    2.1184   -0.4143 H   0  0  0  0  0  0  0  0  0  0  0  0
    3.3778    1.7326    0.9422 H   0  0  0  0  0  0  0  0  0  0  0  0
    5.8083    2.0593    0.8107 H   0  0  0  0  0  0  0  0  0  0  0  0
    6.1657   -1.8510   -0.9052 H   0  0  0  0  0  0  0  0  0  0  0  0
    3.7399   -2.1583   -0.7607 H   0  0  0  0  0  0  0  0  0  0  0  0
  1  2  1  0
  2  3  1  0
  3  4  1  0
  4  5  1  0
  5  6  1  0
  6  7  1  0
  7  8  1  0
  8  9  2  0
  9 10  1  0
 10 11  2  0
 11 12  1  0
 12 13  2  0
 13 14  1  0
 14 15  2  0
 15 16  1  0
  4 17  1  0
 17 18  2  0
 18 19  1  0
 19 20  2  0
 20 21  1  0
 21 22  2  0
 20 23  1  0
 23 24  3  0
  7  2  1  0
 16  8  1  0
 22 17  1  0
 15 10  1  0
  1 25  1  0
  1 26  1  0
  1 27  1  0
  2 28  1  6
  3 29  1  0
  3 30  1  0
  5 31  1  0
  5 32  1  0
  6 33  1  0
  6 34  1  0
 11 35  1  0
 12 36  1  0
 13 37  1  0
 14 38  1  0
 16 39  1  0
 18 40  1  0
 19 41  1  0
 21 42  1  0
 22 43  1  0
M  END
$$$$
[H]c1nc(N([H])c2c([H])c([H])c(Oc3nc([H])c([H])c([H])c3N3C([H])([H])C([H])([H])OC([H])([H])C3([H])[H])c([H])c2[H])c([H])c([H])c1[H]
     RDKit          3D

 46 49  0  0  0  0  0  0  0  0999 V2000
   -5.5299   -0.0078   -1.2319 C   0  0  0  0  0  0  0  0  0  0  0  0
   -4.2209   -0.7441   -1.3469 C   0  0  0  0  0  0  0  0  0  0  0  0
   -3.3440   -0.2891   -0.2553 N   0  0  0  0  0  0  0  0  0  0  0  0
   -2.9801    1.1196   -0.3694 C   0  0  0  0  0  0  0  0  0  0  0  0
   -4.1147    1.8359   -1.0950 C   0  0  0  0  0  0  0  0  0  0  0  0
   -5.3520    1.2918   -0.7581 O   0  0  0  0  0  0  0  0  0  0  0  0
   -2.9481   -1.1486    0.7932 C   0  0  0  0  0  0  0  0  0  0  0  0
   -3.6194   -2.3393    1.0266 C   0  0  0  0  0  0  0  0  0  0  0  0
   -3.2831   -3.1907    2.0646 C   0  0  0  0  0  0  0  0  0  0  0  0
   -2.2455   -2.8622    2.9103 C   0  0  0  0  0  0  0  0  0  0  0  0
   -1.5876   -1.7100    2.6929 N   0  0  0  0  0  0  0  0  0  0  0  0
   -1.9187   -0.8685    1.6673 C   0  0  0  0  0  0  0  0  0  0  0  0
   -1.1419    0.2710    1.5804 O   0  0  0  0  0  0  0  0  0  0  0  0
    0.0845    0.2341    0.9279 C   0  0  0  0  0  0  0  0  0  0  0  0
    0.8769    1.3291    0.8212 C   0  0  0  0  0  0  0  0  0  0  0  0
    2.0926    1.2353    0.1583 C   0  0  0  0  0  0  0  0  0  0  0  0
    2.5631    0.0818   -0.4115 C   0  0  0  0  0  0  0  0  0  0  0  0
    3.8058   -0.0309   -1.0628 N   0  0  0  0  0  0  0  0  0  0  0  0
    5.0210    0.5418   -0.6908 C   0  0  0  0  0  0  0  0  0  0  0  0
    5.2305    1.2331    0.4599 C   0  0  0  0  0  0  0  0  0  0  0  0
    6.4623    1.8003    0.7453 C   0  0  0  0  0  0  0  0  0  0  0  0
    7.4844    1.6504   -0.1652 C   0  0  0  0  0  0  0  0  0  0  0  0
    7.2853    0.9520   -1.3331 C   0  0  0  0  0  0  0  0  0  0  0  0
    6.0806    0.4351   -1.5436 N   0  0  0  0  0  0  0  0  0  0  0  0
    1.7267   -1.0362   -0.2890 C   0  0  0  0  0  0  0  0  0  0  0  0
    0.5265   -0.9471    0.3640 C   0  0  0  0  0  0  0  0  0  0  0  0
   -6.0844   -0.0038   -2.1962 H   0  0  0  0  0  0  0  0  0  0  0  0
   -6.1709   -0.5322   -0.4936 H   0  0  0  0  0  0  0  0  0  0  0  0
   -3.7162   -0.3839   -2.2778 H   0  0  0  0  0  0  0  0  0  0  0  0
   -4.2998   -1.8167   -1.4104 H   0  0  0  0  0  0  0  0  0  0  0  0
   -2.8352    1.6312    0.5736 H   0  0  0  0  0  0  0  0  0  0  0  0
   -2.1065    1.1798   -1.0414 H   0  0  0  0  0  0  0  0  0  0  0  0
   -4.1304    2.8930   -0.7654 H   0  0  0  0  0  0  0  0  0  0  0  0
   -3.9194    1.8177   -2.1717 H   0  0  0  0  0  0  0  0  0  0  0  0
   -4.4349   -2.6134    0.3848 H   0  0  0  0  0  0  0  0  0  0  0  0
   -3.8617   -4.1017    2.1735 H   0  0  0  0  0  0  0  0  0  0  0  0
   -2.0132   -3.5458    3.7040 H   0  0  0  0  0  0  0  0  0  0  0  0
    0.5407    2.2666    1.2612 H   0  0  0  0  0  0  0  0  0  0  0  0
    2.6625    2.1602    0.0933 H   0  0  0  0  0  0  0  0  0  0  0  0
    3.7800   -0.6362   -1.9446 H   0  0  0  0  0  0  0  0  0  0  0  0
    4.4808    1.3577    1.2070 H   0  0  0  0  0  0  0  0  0  0  0  0
    6.6407    2.3455    1.6429 H   0  0  0  0  0  0  0  0  0  0  0  0
    8.4528    2.1037    0.0730 H   0  0  0  0  0  0  0  0  0  0  0  0
    8.0997    0.8559   -2.0145 H   0  0  0  0  0  0  0  0  0  0  0  0
    2.0669   -1.9672   -0.7292 H   0  0  0  0  0  0  0  0  0  0  0  0
   -0.1059   -1.8470    0.4413 H   0  0  0  0  0  0  0  0  0  0  0  0
  1  2  1  0
  2  3  1  0
  3  4  1  0
  4  5  1  0
  5  6  1  0
  3  7  1  0
  7  8  2  0
  8  9  1  0
  9 10  2  0
 10 11  1  0
 11 12  2  0
 12 13  1  0
 13 14  1  0
 14 15  2  0
 15 16  1  0
 16 17  2  0
 17 18  1  0
 18 19  1  0
 19 20  2  0
 20 21  1  0
 21 22  2  0
 22 23  1  0
 23 24  2  0
 17 25  1  0
 25 26  2  0
  6  1  1  0
 12  7  1  0
 26 14  1  0
 24 19  1  0
  1 27  1  0
  1 28  1  0
  2 29  1  0
  2 30  1  0
  4 31  1  0
  4 32  1  0
  5 33  1  0
  5 34  1  0
  8 35  1  0
  9 36  1  0
 10 37  1  0
 15 38  1  0
 16 39  1  0
 18 40  1  0
 20 41  1  0
 21 42  1  0
 22 43  1  0
 23 44  1  0
 25 45  1  0
 26 46  1  0
M  END
$$$$
[H]c1c([H])c(C(=O)N([H])c2c([H])c([H])c(C(=O)N([H])c3c([H])c([H])c(N4C([H])([H])C([H])([H])N(C([H])([H])[H])C([H])([H])C4([H])[H])c([H])c3[H])c([H])c2[H])c([H])c(C(F)(F)F)c1[H]
     RDKit          3D

 60 63  0  0  0  0  0  0  0  0999 V2000
  -10.4253    0.6139    0.7498 C   0  0  0  0  0  0  0  0  0  0  0  0
   -9.2197    0.9518    0.0365 N   0  0  0  0  0  0  0  0  0  0  0  0
   -8.3028    1.6163    0.9085 C   0  0  0  0  0  0  0  0  0  0  0  0
   -6.9226    1.7616    0.2949 C   0  0  0  0  0  0  0  0  0  0  0  0
   -6.4164    0.4462    0.0248 N   0  0  0  0  0  0  0  0  0  0  0  0
   -7.3489   -0.6186   -0.1686 C   0  0  0  0  0  0  0  0  0  0  0  0
   -8.6655   -0.1141   -0.7242 C   0  0  0  0  0  0  0  0  0  0  0  0
   -5.0332    0.2105   -0.0665 C   0  0  0  0  0  0  0  0  0  0  0  0
   -4.1944    1.2627   -0.3209 C   0  0  0  0  0  0  0  0  0  0  0  0
   -2.8242    1.1465   -0.4131 C   0  0  0  0  0  0  0  0  0  0  0  0
   -2.2587   -0.1322   -0.2316 C   0  0  0  0  0  0  0  0  0  0  0  0
   -0.8374   -0.2062   -0.3683 N   0  0  0  0  0  0  0  0  0  0  0  0
    0.0649   -0.6989    0.5802 C   0  0  0  0  0  0  0  0  0  0  0  0
   -0.4154   -1.1506    1.6775 O   0  0  0  0  0  0  0  0  0  0  0  0
    1.5098   -0.7148    0.3777 C   0  0  0  0  0  0  0  0  0  0  0  0
    2.3169   -1.1612    1.3973 C   0  0  0  0  0  0  0  0  0  0  0  0
    3.7220   -1.1454    1.2592 C   0  0  0  0  0  0  0  0  0  0  0  0
    4.2876   -0.6872    0.1160 C   0  0  0  0  0  0  0  0  0  0  0  0
    5.6687   -0.5958   -0.0909 N   0  0  0  0  0  0  0  0  0  0  0  0
    6.6591   -0.9416    0.8095 C   0  0  0  0  0  0  0  0  0  0  0  0
    6.4754   -1.3976    1.9327 O   0  0  0  0  0  0  0  0  0  0  0  0
    8.0907   -0.7528    0.4146 C   0  0  0  0  0  0  0  0  0  0  0  0
    9.0831   -1.5291    0.9873 C   0  0  0  0  0  0  0  0  0  0  0  0
   10.4095   -1.3217    0.6139 C   0  0  0  0  0  0  0  0  0  0  0  0
   10.7349   -0.3391   -0.3301 C   0  0  0  0  0  0  0  0  0  0  0  0
    9.7609    0.4431   -0.9106 C   0  0  0  0  0  0  0  0  0  0  0  0
    8.4469    0.1985   -0.5049 C   0  0  0  0  0  0  0  0  0  0  0  0
   10.0723    1.4943   -1.9330 C   0  0  0  0  0  0  0  0  0  0  0  0
   10.8261    2.5166   -1.4519 F   0  0  0  0  0  0  0  0  0  0  0  0
   10.5953    0.9119   -3.0742 F   0  0  0  0  0  0  0  0  0  0  0  0
    8.8339    2.0360   -2.3088 F   0  0  0  0  0  0  0  0  0  0  0  0
    3.4163   -0.2425   -0.9011 C   0  0  0  0  0  0  0  0  0  0  0  0
    2.0573   -0.2461   -0.7973 C   0  0  0  0  0  0  0  0  0  0  0  0
   -3.0763   -1.1958    0.0241 C   0  0  0  0  0  0  0  0  0  0  0  0
   -4.4454   -1.0401    0.1073 C   0  0  0  0  0  0  0  0  0  0  0  0
  -11.0804    0.0233    0.0713 H   0  0  0  0  0  0  0  0  0  0  0  0
  -10.1781    0.0575    1.6901 H   0  0  0  0  0  0  0  0  0  0  0  0
  -10.9439    1.5662    1.0142 H   0  0  0  0  0  0  0  0  0  0  0  0
   -8.6685    2.6858    1.0167 H   0  0  0  0  0  0  0  0  0  0  0  0
   -8.1937    1.1352    1.9047 H   0  0  0  0  0  0  0  0  0  0  0  0
   -6.9235    2.3704   -0.6164 H   0  0  0  0  0  0  0  0  0  0  0  0
   -6.2953    2.2631    1.0955 H   0  0  0  0  0  0  0  0  0  0  0  0
   -7.4892   -1.2160    0.7309 H   0  0  0  0  0  0  0  0  0  0  0  0
   -6.9174   -1.2942   -0.9569 H   0  0  0  0  0  0  0  0  0  0  0  0
   -8.4971    0.2890   -1.7625 H   0  0  0  0  0  0  0  0  0  0  0  0
   -9.3672   -0.9586   -0.7674 H   0  0  0  0  0  0  0  0  0  0  0  0
   -4.6095    2.2611   -0.4633 H   0  0  0  0  0  0  0  0  0  0  0  0
   -2.1755    1.9851   -0.6142 H   0  0  0  0  0  0  0  0  0  0  0  0
   -0.4462    0.1533   -1.2923 H   0  0  0  0  0  0  0  0  0  0  0  0
    1.8812   -1.5288    2.3138 H   0  0  0  0  0  0  0  0  0  0  0  0
    4.2617   -1.5191    2.1101 H   0  0  0  0  0  0  0  0  0  0  0  0
    5.9893   -0.2205   -1.0641 H   0  0  0  0  0  0  0  0  0  0  0  0
    8.7900   -2.2707    1.7061 H   0  0  0  0  0  0  0  0  0  0  0  0
   11.1947   -1.9267    1.0571 H   0  0  0  0  0  0  0  0  0  0  0  0
   11.7730   -0.2282   -0.5775 H   0  0  0  0  0  0  0  0  0  0  0  0
    7.6729    0.8181   -0.9517 H   0  0  0  0  0  0  0  0  0  0  0  0
    3.8580    0.1112   -1.7954 H   0  0  0  0  0  0  0  0  0  0  0  0
    1.4665    0.1035   -1.6132 H   0  0  0  0  0  0  0  0  0  0  0  0
   -2.6297   -2.1717    0.1610 H   0  0  0  0  0  0  0  0  0  0  0  0
   -5.1172   -1.8665    0.3028 H   0  0  0  0  0  0  0  0  0  0  0  0
  1  2  1  0
  2  3  1  0
  3  4  1  0
  4  5  1  0
  5  6  1  0
  6  7  1  0
  5  8  1  0
  8  9  2  0
  9 10  1  0
 10 11  2  0
 11 12  1  0
 12 13  1  0
 13 14  2  0
 13 15  1  0
 15 16  2  0
 16 17  1  0
 17 18  2  0
 18 19  1  0
 19 20  1  0
 20 21  2  0
 20 22  1  0
 22 23  2  0
 23 24  1  0
 24 25  2  0
 25 26  1  0
 26 27  2  0
 26 28  1  0
 28 29  1  0
 28 30  1  0
 28 31  1  0
 18 32  1  0
 32 33  2  0
 11 34  1  0
 34 35  2  0
  7  2  1  0
 35  8  1  0
 33 15  1  0
 27 22  1  0
  1 36  1  0
  1 37  1  0
  1 38  1  0
  3 39  1  0
  3 40  1  0
  4 41  1  0
  4 42  1  0
  6 43  1  0
  6 44  1  0
  7 45  1  0
  7 46  1  0
  9 47  1  0
 10 48  1  0
 12 49  1  0
 16 50  1  0
 17 51  1  0
 19 52  1  0
 23 53  1  0
 24 54  1  0
 25 55  1  0
 27 56  1  0
 32 57  1  0
 33 58  1  0
 34 59  1  0
 35 60  1  0
M  END
$$$$
[H]c1sc2c([H])c([H])c([H])c([H])c2c1-c1c(N([H])[H])nc(C([H])([H])[H])n1-c1c([H])c([H])c(F)c([H])c1[H]
     RDKit          3D

 37 40  0  0  0  0  0  0  0  0999 V2000
   -2.8615   -2.5672   -0.2761 C   0  0  0  0  0  0  0  0  0  0  0  0
   -1.4226   -2.1548   -0.3966 C   0  0  0  0  0  0  0  0  0  0  0  0
   -0.3565   -2.9117   -0.4609 N   0  0  0  0  0  0  0  0  0  0  0  0
    0.7490   -2.1132   -0.5694 C   0  0  0  0  0  0  0  0  0  0  0  0
    2.0028   -2.7547   -0.8232 N   0  0  0  0  0  0  0  0  0  0  0  0
    0.3476   -0.8136   -0.5658 C   0  0  0  0  0  0  0  0  0  0  0  0
    1.1660    0.4368   -0.3873 C   0  0  0  0  0  0  0  0  0  0  0  0
    0.5852    1.6469   -0.7430 C   0  0  0  0  0  0  0  0  0  0  0  0
    1.6706    2.8364   -0.2404 S   0  0  0  0  0  0  0  0  0  0  0  0
    2.8710    1.8296    0.4258 C   0  0  0  0  0  0  0  0  0  0  0  0
    4.0759    2.1426    1.0838 C   0  0  0  0  0  0  0  0  0  0  0  0
    4.8614    1.1469    1.6026 C   0  0  0  0  0  0  0  0  0  0  0  0
    4.4047   -0.1145    1.4412 C   0  0  0  0  0  0  0  0  0  0  0  0
    3.2453   -0.4161    0.8065 C   0  0  0  0  0  0  0  0  0  0  0  0
    2.3822    0.5544    0.2371 C   0  0  0  0  0  0  0  0  0  0  0  0
   -1.0250   -0.8381   -0.4591 N   0  0  0  0  0  0  0  0  0  0  0  0
   -2.0211    0.1728   -0.3457 C   0  0  0  0  0  0  0  0  0  0  0  0
   -2.9129    0.4188   -1.3943 C   0  0  0  0  0  0  0  0  0  0  0  0
   -3.9273    1.3295   -1.3257 C   0  0  0  0  0  0  0  0  0  0  0  0
   -4.1052    2.0579   -0.1771 C   0  0  0  0  0  0  0  0  0  0  0  0
   -5.1108    2.9855   -0.0597 F   0  0  0  0  0  0  0  0  0  0  0  0
   -3.2276    1.8186    0.8604 C   0  0  0  0  0  0  0  0  0  0  0  0
   -2.2063    0.9072    0.8026 C   0  0  0  0  0  0  0  0  0  0  0  0
   -3.2782   -2.1959    0.6962 H   0  0  0  0  0  0  0  0  0  0  0  0
   -3.4527   -2.1909   -1.1352 H   0  0  0  0  0  0  0  0  0  0  0  0
   -2.9089   -3.6647   -0.3131 H   0  0  0  0  0  0  0  0  0  0  0  0
    2.6600   -2.4640   -1.5786 H   0  0  0  0  0  0  0  0  0  0  0  0
    2.2986   -3.5616   -0.2323 H   0  0  0  0  0  0  0  0  0  0  0  0
   -0.3563    1.8183   -1.2995 H   0  0  0  0  0  0  0  0  0  0  0  0
    4.3359    3.1698    1.1536 H   0  0  0  0  0  0  0  0  0  0  0  0
    5.7699    1.4325    2.0931 H   0  0  0  0  0  0  0  0  0  0  0  0
    5.0132   -0.9234    1.8492 H   0  0  0  0  0  0  0  0  0  0  0  0
    2.9825   -1.4539    0.8254 H   0  0  0  0  0  0  0  0  0  0  0  0
   -2.7605   -0.1712   -2.3104 H   0  0  0  0  0  0  0  0  0  0  0  0
   -4.5672    1.4534   -2.1834 H   0  0  0  0  0  0  0  0  0  0  0  0
   -3.3906    2.4119    1.7648 H   0  0  0  0  0  0  0  0  0  0  0  0
   -1.5302    0.7394    1.6347 H   0  0  0  0  0  0  0  0  0  0  0  0
  1  2  1  0
  2  3  2  0
  3  4  1  0
  4  5  1  0
  4  6  2  0
  6  7  1  0
  7  8  2  0
  8  9  1  0
  9 10  1  0
 10 11  2  0
 11 12  1  0
 12 13  2  0
 13 14  1  0
 14 15  2  0
  6 16  1  0
 16 17  1  0
 17 18  2  0
 18 19  1  0
 19 20  2  0
 20 21  1  0
 20 22  1  0
 22 23  2  0
 16  2  1  0
 23 17  1  0
 15  7  1  0
 15 10  1  0
  1 24  1  0
  1 25  1  0
  1 26  1  0
  5 27  1  0
  5 28  1  0
  8 29  1  0
 11 30  1  0
 12 31  1  0
 13 32  1  0
 14 33  1  0
 18 34  1  0
 19 35  1  0
 22 36  1  0
 23 37  1  0
M  END
$$$$
[H]c1c([H])c([H])c(N([H])S(=O)(=O)c2c([H])c([H])c(C(=O)C([H])([H])n3c(C([H])([H])C([H])([H])C([H])([H])C([H])([H])[H])nc4c([H])c([H])c([H])c([H])c43)c([H])c2[H])c([H])c1[H]
     RDKit          3D

 57 60  0  0  0  0  0  0  0  0999 V2000
   -7.1763   -1.5718   -0.4955 C   0  0  0  0  0  0  0  0  0  0  0  0
   -6.5723   -0.9938    0.7631 C   0  0  0  0  0  0  0  0  0  0  0  0
   -5.3734   -1.7919    1.1857 C   0  0  0  0  0  0  0  0  0  0  0  0
   -4.2713   -1.8263    0.1721 C   0  0  0  0  0  0  0  0  0  0  0  0
   -3.7199   -0.4823   -0.1548 C   0  0  0  0  0  0  0  0  0  0  0  0
   -4.1779    0.2930   -1.1546 N   0  0  0  0  0  0  0  0  0  0  0  0
   -3.5257    1.4347   -1.2321 C   0  0  0  0  0  0  0  0  0  0  0  0
   -3.6157    2.5689   -2.0459 C   0  0  0  0  0  0  0  0  0  0  0  0
   -2.7940    3.6486   -1.8625 C   0  0  0  0  0  0  0  0  0  0  0  0
   -1.8458    3.6508   -0.8645 C   0  0  0  0  0  0  0  0  0  0  0  0
   -1.7661    2.5326   -0.0738 C   0  0  0  0  0  0  0  0  0  0  0  0
   -2.5819    1.4185   -0.2295 C   0  0  0  0  0  0  0  0  0  0  0  0
   -2.7180    0.2236    0.4254 N   0  0  0  0  0  0  0  0  0  0  0  0
   -2.0122   -0.1770    1.5982 C   0  0  0  0  0  0  0  0  0  0  0  0
   -0.9939   -1.2058    1.5274 C   0  0  0  0  0  0  0  0  0  0  0  0
   -1.3490   -2.3548    2.0624 O   0  0  0  0  0  0  0  0  0  0  0  0
    0.3372   -1.2302    0.9855 C   0  0  0  0  0  0  0  0  0  0  0  0
    1.0917   -2.4197    1.0295 C   0  0  0  0  0  0  0  0  0  0  0  0
    2.3617   -2.5233    0.5230 C   0  0  0  0  0  0  0  0  0  0  0  0
    2.9648   -1.4516   -0.0599 C   0  0  0  0  0  0  0  0  0  0  0  0
    2.2831   -0.2767   -0.1289 C   0  0  0  0  0  0  0  0  0  0  0  0
    0.9974   -0.1874    0.3891 C   0  0  0  0  0  0  0  0  0  0  0  0
    4.5691   -1.5965   -0.7039 S   0  0  0  0  0  0  0  0  0  0  0  0
    4.9361   -3.0388   -0.9605 O   0  0  0  0  0  0  0  0  0  0  0  0
    4.6519   -0.8862   -2.0367 O   0  0  0  0  0  0  0  0  0  0  0  0
    5.7056   -0.9448    0.4235 N   0  0  0  0  0  0  0  0  0  0  0  0
    6.4614    0.2168    0.0706 C   0  0  0  0  0  0  0  0  0  0  0  0
    7.1202    0.3071   -1.1401 C   0  0  0  0  0  0  0  0  0  0  0  0
    7.8450    1.4306   -1.4611 C   0  0  0  0  0  0  0  0  0  0  0  0
    7.9240    2.4770   -0.5824 C   0  0  0  0  0  0  0  0  0  0  0  0
    7.2750    2.4046    0.6274 C   0  0  0  0  0  0  0  0  0  0  0  0
    6.5556    1.2761    0.9323 C   0  0  0  0  0  0  0  0  0  0  0  0
   -6.8754   -1.0859   -1.4227 H   0  0  0  0  0  0  0  0  0  0  0  0
   -8.2930   -1.4891   -0.4384 H   0  0  0  0  0  0  0  0  0  0  0  0
   -6.9417   -2.6578   -0.5920 H   0  0  0  0  0  0  0  0  0  0  0  0
   -6.2417    0.0572    0.6431 H   0  0  0  0  0  0  0  0  0  0  0  0
   -7.2958   -1.0288    1.6203 H   0  0  0  0  0  0  0  0  0  0  0  0
   -5.7200   -2.8537    1.3035 H   0  0  0  0  0  0  0  0  0  0  0  0
   -5.0304   -1.4797    2.1852 H   0  0  0  0  0  0  0  0  0  0  0  0
   -4.7677   -2.2024   -0.7852 H   0  0  0  0  0  0  0  0  0  0  0  0
   -3.5485   -2.5902    0.4083 H   0  0  0  0  0  0  0  0  0  0  0  0
   -4.3853    2.5259   -2.8290 H   0  0  0  0  0  0  0  0  0  0  0  0
   -2.9064    4.5143   -2.5297 H   0  0  0  0  0  0  0  0  0  0  0  0
   -1.2245    4.5247   -0.7628 H   0  0  0  0  0  0  0  0  0  0  0  0
   -1.0273    2.5244    0.7147 H   0  0  0  0  0  0  0  0  0  0  0  0
   -1.4879    0.7517    2.0295 H   0  0  0  0  0  0  0  0  0  0  0  0
   -2.7459   -0.4257    2.4339 H   0  0  0  0  0  0  0  0  0  0  0  0
    0.6381   -3.2890    1.4855 H   0  0  0  0  0  0  0  0  0  0  0  0
    2.8744   -3.4584    0.5951 H   0  0  0  0  0  0  0  0  0  0  0  0
    2.7785    0.5610   -0.5953 H   0  0  0  0  0  0  0  0  0  0  0  0
    0.5147    0.7565    0.3184 H   0  0  0  0  0  0  0  0  0  0  0  0
    5.8299   -1.3996    1.3441 H   0  0  0  0  0  0  0  0  0  0  0  0
    7.0518   -0.5275   -1.8189 H   0  0  0  0  0  0  0  0  0  0  0  0
    8.3593    1.4958   -2.4093 H   0  0  0  0  0  0  0  0  0  0  0  0
    8.4848    3.3900   -0.7887 H   0  0  0  0  0  0  0  0  0  0  0  0
    7.3186    3.2140    1.3409 H   0  0  0  0  0  0  0  0  0  0  0  0
    6.0547    1.2483    1.8881 H   0  0  0  0  0  0  0  0  0  0  0  0
  1  2  1  0
  2  3  1  0
  3  4  1  0
  4  5  1  0
  5  6  2  0
  6  7  1  0
  7  8  2  0
  8  9  1  0
  9 10  2  0
 10 11  1  0
 11 12  2  0
 12 13  1  0
 13 14  1  0
 14 15  1  0
 15 16  2  0
 15 17  1  0
 17 18  2  0
 18 19  1  0
 19 20  2  0
 20 21  1  0
 21 22  2  0
 20 23  1  0
 23 24  2  0
 23 25  2  0
 23 26  1  0
 26 27  1  0
 27 28  2  0
 28 29  1  0
 29 30  2  0
 30 31  1  0
 31 32  2  0
 13  5  1  0
 22 17  1  0
 32 27  1  0
 12  7  1  0
  1 33  1  0
  1 34  1  0
  1 35  1  0
  2 36  1  0
  2 37  1  0
  3 38  1  0
  3 39  1  0
  4 40  1  0
  4 41  1  0
  8 42  1  0
  9 43  1  0
 10 44  1  0
 11 45  1  0
 14 46  1  0
 14 47  1  0
 18 48  1  0
 19 49  1  0
 21 50  1  0
 22 51  1  0
 26 52  1  0
 28 53  1  0
 29 54  1  0
 30 55  1  0
 31 56  1  0
 32 57  1  0
M  END
$$$$
[H]c1oc(C(=O)N([H])c2nnc(-c3c([H])c([H])c(Oc4c([H])c([H])c([N+](=O)[O-])c([H])c4[H])c([H])c3[H])s2)c([H])c1[H]
     RDKit          3D

 41 44  0  0  0  0  0  0  0  0999 V2000
   -9.6330   -0.1765   -1.0338 O   0  0  0  0  0  0  0  0  0  0  0  0
   -8.5861    0.6126   -0.6649 N   0  0  0  0  0  0  0  0  0  0  0  0
   -8.7515    1.6976   -0.0943 O   0  0  0  0  0  0  0  0  0  0  0  0
   -7.2629    0.1800   -0.9433 C   0  0  0  0  0  0  0  0  0  0  0  0
   -6.1846    0.9638   -0.5809 C   0  0  0  0  0  0  0  0  0  0  0  0
   -4.8953    0.5463   -0.8525 C   0  0  0  0  0  0  0  0  0  0  0  0
   -4.6805   -0.6540   -1.4845 C   0  0  0  0  0  0  0  0  0  0  0  0
   -3.4687   -1.1652   -1.7965 O   0  0  0  0  0  0  0  0  0  0  0  0
   -2.2757   -0.9146   -1.1805 C   0  0  0  0  0  0  0  0  0  0  0  0
   -2.1406   -0.5185    0.1265 C   0  0  0  0  0  0  0  0  0  0  0  0
   -0.8950   -0.2656    0.7232 C   0  0  0  0  0  0  0  0  0  0  0  0
    0.2538   -0.4126   -0.0025 C   0  0  0  0  0  0  0  0  0  0  0  0
    0.1416   -0.8094   -1.3131 C   0  0  0  0  0  0  0  0  0  0  0  0
   -1.0722   -1.0596   -1.9086 C   0  0  0  0  0  0  0  0  0  0  0  0
    1.5830   -0.1488    0.5732 C   0  0  0  0  0  0  0  0  0  0  0  0
    2.7736   -0.2723   -0.0123 N   0  0  0  0  0  0  0  0  0  0  0  0
    3.8076   -0.0000    0.6399 N   0  0  0  0  0  0  0  0  0  0  0  0
    3.7732    0.4066    1.8867 C   0  0  0  0  0  0  0  0  0  0  0  0
    4.7571    0.7705    2.8247 N   0  0  0  0  0  0  0  0  0  0  0  0
    6.1204    0.7787    2.6450 C   0  0  0  0  0  0  0  0  0  0  0  0
    6.8203    1.1698    3.6735 O   0  0  0  0  0  0  0  0  0  0  0  0
    6.9027    0.4158    1.4794 C   0  0  0  0  0  0  0  0  0  0  0  0
    8.3083    0.4792    1.4402 C   0  0  0  0  0  0  0  0  0  0  0  0
    8.7005    0.0699    0.2068 C   0  0  0  0  0  0  0  0  0  0  0  0
    7.5706   -0.2359   -0.4938 C   0  0  0  0  0  0  0  0  0  0  0  0
    6.5565   -0.0145    0.2988 O   0  0  0  0  0  0  0  0  0  0  0  0
    2.0368    0.3856    2.1247 S   0  0  0  0  0  0  0  0  0  0  0  0
   -5.7881   -1.4470   -1.8498 C   0  0  0  0  0  0  0  0  0  0  0  0
   -7.0739   -1.0458   -1.5879 C   0  0  0  0  0  0  0  0  0  0  0  0
   -6.3709    1.9175   -0.0775 H   0  0  0  0  0  0  0  0  0  0  0  0
   -4.0743    1.1779   -0.5771 H   0  0  0  0  0  0  0  0  0  0  0  0
   -3.0361   -0.4103    0.7498 H   0  0  0  0  0  0  0  0  0  0  0  0
   -0.8449    0.0452    1.7608 H   0  0  0  0  0  0  0  0  0  0  0  0
    1.0707   -0.9194   -1.8692 H   0  0  0  0  0  0  0  0  0  0  0  0
   -1.1659   -1.3717   -2.9379 H   0  0  0  0  0  0  0  0  0  0  0  0
    4.3763    1.0811    3.7851 H   0  0  0  0  0  0  0  0  0  0  0  0
    8.9902    0.7881    2.2204 H   0  0  0  0  0  0  0  0  0  0  0  0
    9.7224    0.0003   -0.1474 H   0  0  0  0  0  0  0  0  0  0  0  0
    7.4940   -0.5995   -1.5238 H   0  0  0  0  0  0  0  0  0  0  0  0
   -5.6555   -2.3923   -2.3477 H   0  0  0  0  0  0  0  0  0  0  0  0
   -7.9038   -1.6715   -1.8786 H   0  0  0  0  0  0  0  0  0  0  0  0
  1  2  1  0
  2  3  2  0
  2  4  1  0
  4  5  2  0
  5  6  1  0
  6  7  2  0
  7  8  1  0
  8  9  1  0
  9 10  2  0
 10 11  1  0
 11 12  2  0
 12 13  1  0
 13 14  2  0
 12 15  1  0
 15 16  2  0
 16 17  1  0
 17 18  2  0
 18 19  1  0
 19 20  1  0
 20 21  2  0
 20 22  1  0
 22 23  2  0
 23 24  1  0
 24 25  2  0
 25 26  1  0
 18 27  1  0
  7 28  1  0
 28 29  2  0
 29  4  1  0
 14  9  1  0
 27 15  1  0
 26 22  1  0
  5 30  1  0
  6 31  1  0
 10 32  1  0
 11 33  1  0
 13 34  1  0
 14 35  1  0
 19 36  1  0
 23 37  1  0
 24 38  1  0
 25 39  1  0
 28 40  1  0
 29 41  1  0
M  CHG  2   1  -1   2   1
M  END
$$$$
[H]c1c([H])c(N2C([H])([H])C([H])([H])N(C3([H])C([H])([H])C([H])([H])N(S(=O)(=O)c4c([H])c([H])c(OC([H])([H])[H])c([H])c4[H])C([H])([H])C3([H])[H])C([H])([H])C2([H])[H])c([H])c([H])c1C#N
     RDKit          3D

 59 62  0  0  0  0  0  0  0  0999 V2000
   -8.5393    0.6964   -1.3224 C   0  0  0  0  0  0  0  0  0  0  0  0
   -7.9639   -0.5241   -0.9064 O   0  0  0  0  0  0  0  0  0  0  0  0
   -6.8329   -0.5182   -0.0882 C   0  0  0  0  0  0  0  0  0  0  0  0
   -6.2466    0.6583    0.3361 C   0  0  0  0  0  0  0  0  0  0  0  0
   -5.1454    0.6853    1.1329 C   0  0  0  0  0  0  0  0  0  0  0  0
   -4.5639   -0.4883    1.5535 C   0  0  0  0  0  0  0  0  0  0  0  0
   -5.1325   -1.6758    1.1419 C   0  0  0  0  0  0  0  0  0  0  0  0
   -6.2555   -1.6902    0.3293 C   0  0  0  0  0  0  0  0  0  0  0  0
   -3.1296   -0.4835    2.5896 S   0  0  0  0  0  0  0  0  0  0  0  0
   -3.1746   -1.7574    3.3845 O   0  0  0  0  0  0  0  0  0  0  0  0
   -3.1874    0.6661    3.5546 O   0  0  0  0  0  0  0  0  0  0  0  0
   -1.7691   -0.4878    1.6051 N   0  0  0  0  0  0  0  0  0  0  0  0
   -1.5648    0.5880    0.7291 C   0  0  0  0  0  0  0  0  0  0  0  0
   -0.1575    0.7256    0.2059 C   0  0  0  0  0  0  0  0  0  0  0  0
    0.3117   -0.6284   -0.2614 C   0  0  0  0  0  0  0  0  0  0  0  0
    0.3623   -1.5179    0.9614 C   0  0  0  0  0  0  0  0  0  0  0  0
   -1.0676   -1.6900    1.4244 C   0  0  0  0  0  0  0  0  0  0  0  0
    1.5404   -0.6490   -0.9221 N   0  0  0  0  0  0  0  0  0  0  0  0
    1.7058    0.0433   -2.1377 C   0  0  0  0  0  0  0  0  0  0  0  0
    2.9669    0.8864   -2.0474 C   0  0  0  0  0  0  0  0  0  0  0  0
    3.9889    0.0288   -1.4050 N   0  0  0  0  0  0  0  0  0  0  0  0
    3.7108   -1.3842   -1.5076 C   0  0  0  0  0  0  0  0  0  0  0  0
    2.4983   -1.6333   -0.5940 C   0  0  0  0  0  0  0  0  0  0  0  0
    5.1043    0.5722   -0.7760 C   0  0  0  0  0  0  0  0  0  0  0  0
    5.3514    1.9333   -0.8454 C   0  0  0  0  0  0  0  0  0  0  0  0
    6.4285    2.5261   -0.2445 C   0  0  0  0  0  0  0  0  0  0  0  0
    7.3160    1.7755    0.4601 C   0  0  0  0  0  0  0  0  0  0  0  0
    7.1038    0.4243    0.5506 C   0  0  0  0  0  0  0  0  0  0  0  0
    5.9989   -0.1789   -0.0664 C   0  0  0  0  0  0  0  0  0  0  0  0
    8.4495    2.4235    1.0879 C   0  0  0  0  0  0  0  0  0  0  0  0
    9.3502    2.9550    1.5945 N   0  0  0  0  0  0  0  0  0  0  0  0
   -8.6971    1.3894   -0.4652 H   0  0  0  0  0  0  0  0  0  0  0  0
   -7.9681    1.1992   -2.1199 H   0  0  0  0  0  0  0  0  0  0  0  0
   -9.5396    0.4516   -1.7425 H   0  0  0  0  0  0  0  0  0  0  0  0
   -6.6990    1.5955    0.0089 H   0  0  0  0  0  0  0  0  0  0  0  0
   -4.6758    1.6128    1.4728 H   0  0  0  0  0  0  0  0  0  0  0  0
   -4.6744   -2.6170    1.4749 H   0  0  0  0  0  0  0  0  0  0  0  0
   -6.6980   -2.6257    0.0091 H   0  0  0  0  0  0  0  0  0  0  0  0
   -2.3017    0.5264   -0.1093 H   0  0  0  0  0  0  0  0  0  0  0  0
   -1.8060    1.5552    1.2468 H   0  0  0  0  0  0  0  0  0  0  0  0
   -0.1736    1.4015   -0.6537 H   0  0  0  0  0  0  0  0  0  0  0  0
    0.4606    1.0984    1.0575 H   0  0  0  0  0  0  0  0  0  0  0  0
   -0.5285   -1.0304   -0.9002 H   0  0  0  0  0  0  0  0  0  0  0  0
    0.7711   -2.5102    0.7812 H   0  0  0  0  0  0  0  0  0  0  0  0
    0.9468   -0.9481    1.7327 H   0  0  0  0  0  0  0  0  0  0  0  0
   -1.0762   -2.2982    2.3433 H   0  0  0  0  0  0  0  0  0  0  0  0
   -1.5765   -2.2962    0.6171 H   0  0  0  0  0  0  0  0  0  0  0  0
    1.7887   -0.6033   -3.0449 H   0  0  0  0  0  0  0  0  0  0  0  0
    0.8485    0.7128   -2.3268 H   0  0  0  0  0  0  0  0  0  0  0  0
    3.2954    1.2159   -3.0409 H   0  0  0  0  0  0  0  0  0  0  0  0
    2.8166    1.7394   -1.3359 H   0  0  0  0  0  0  0  0  0  0  0  0
    3.4510   -1.6766   -2.5518 H   0  0  0  0  0  0  0  0  0  0  0  0
    4.5692   -1.9791   -1.1701 H   0  0  0  0  0  0  0  0  0  0  0  0
    2.8687   -1.4711    0.4389 H   0  0  0  0  0  0  0  0  0  0  0  0
    2.1481   -2.6793   -0.7008 H   0  0  0  0  0  0  0  0  0  0  0  0
    4.6752    2.5537   -1.3913 H   0  0  0  0  0  0  0  0  0  0  0  0
    6.5966    3.6011   -0.3169 H   0  0  0  0  0  0  0  0  0  0  0  0
    7.8069   -0.1727    1.1086 H   0  0  0  0  0  0  0  0  0  0  0  0
    5.9142   -1.2367    0.0614 H   0  0  0  0  0  0  0  0  0  0  0  0
  1  2  1  0
  2  3  1  0
  3  4  2  0
  4  5  1  0
  5  6  2  0
  6  7  1  0
  7  8  2  0
  6  9  1  0
  9 10  2  0
  9 11  2  0
  9 12  1  0
 12 13  1  0
 13 14  1  0
 14 15  1  0
 15 16  1  0
 16 17  1  0
 15 18  1  0
 18 19  1  0
 19 20  1  0
 20 21  1  0
 21 22  1  0
 22 23  1  0
 21 24  1  0
 24 25  2  0
 25 26  1  0
 26 27  2  0
 27 28  1  0
 28 29  2  0
 27 30  1  0
 30 31  3  0
  8  3  1  0
 17 12  1  0
 23 18  1  0
 29 24  1  0
  1 32  1  0
  1 33  1  0
  1 34  1  0
  4 35  1  0
  5 36  1  0
  7 37  1  0
  8 38  1  0
 13 39  1  0
 13 40  1  0
 14 41  1  0
 14 42  1  0
 15 43  1  0
 16 44  1  0
 16 45  1  0
 17 46  1  0
 17 47  1  0
 19 48  1  0
 19 49  1  0
 20 50  1  0
 20 51  1  0
 22 52  1  0
 22 53  1  0
 23 54  1  0
 23 55  1  0
 25 56  1  0
 26 57  1  0
 28 58  1  0
 29 59  1  0
M  END
$$$$
[H]c1c([H])c(C(F)(F)F)c([H])c([H])c1C(=O)N([H])[C@]([H])(C(F)(F)F)C([H])([H])C([H])(C([H])([H])[H])C([H])([H])[H]
     RDKit          3D

 37 37  0  0  0  0  0  0  0  0999 V2000
   -4.3744   -1.3131   -1.1376 C   0  0  0  0  0  0  0  0  0  0  0  0
   -3.8548    0.1266   -0.7545 C   0  0  0  0  0  0  0  0  0  0  0  0
   -4.9453    0.7301    0.0150 C   0  0  0  0  0  0  0  0  0  0  0  0
   -2.4929   -0.0433   -0.3385 C   0  0  0  0  0  0  0  0  0  0  0  0
   -1.5638    0.9910    0.1116 C   0  0  2  0  0  0  0  0  0  0  0  0
   -0.2038    0.3316    0.3310 N   0  0  0  0  0  0  0  0  0  0  0  0
    0.9331    0.8088   -0.3330 C   0  0  0  0  0  0  0  0  0  0  0  0
    0.8101    1.7840   -1.1149 O   0  0  0  0  0  0  0  0  0  0  0  0
    2.2552    0.2244   -0.1548 C   0  0  0  0  0  0  0  0  0  0  0  0
    2.4916   -1.0714    0.2127 C   0  0  0  0  0  0  0  0  0  0  0  0
    3.7902   -1.5651    0.3855 C   0  0  0  0  0  0  0  0  0  0  0  0
    4.8742   -0.7402    0.1852 C   0  0  0  0  0  0  0  0  0  0  0  0
    4.6367    0.5632   -0.1846 C   0  0  0  0  0  0  0  0  0  0  0  0
    3.3437    1.0553   -0.3577 C   0  0  0  0  0  0  0  0  0  0  0  0
    6.2632   -1.2230    0.3579 C   0  0  0  0  0  0  0  0  0  0  0  0
    6.4803   -2.2295   -0.5695 F   0  0  0  0  0  0  0  0  0  0  0  0
    6.5200   -1.6855    1.6301 F   0  0  0  0  0  0  0  0  0  0  0  0
    7.1919   -0.2359    0.0458 F   0  0  0  0  0  0  0  0  0  0  0  0
   -1.8080    1.5172    1.4958 C   0  0  0  0  0  0  0  0  0  0  0  0
   -2.9639    2.1312    1.7946 F   0  0  0  0  0  0  0  0  0  0  0  0
   -1.7517    0.3699    2.3290 F   0  0  0  0  0  0  0  0  0  0  0  0
   -0.7093    2.3146    1.8944 F   0  0  0  0  0  0  0  0  0  0  0  0
   -5.2349   -1.2055   -1.8009 H   0  0  0  0  0  0  0  0  0  0  0  0
   -4.6510   -1.7505   -0.1519 H   0  0  0  0  0  0  0  0  0  0  0  0
   -3.5226   -1.8446   -1.5442 H   0  0  0  0  0  0  0  0  0  0  0  0
   -3.8604    0.6261   -1.8019 H   0  0  0  0  0  0  0  0  0  0  0  0
   -5.0397    0.3523    1.0450 H   0  0  0  0  0  0  0  0  0  0  0  0
   -5.0231    1.8357    0.0268 H   0  0  0  0  0  0  0  0  0  0  0  0
   -5.9586    0.3829   -0.4466 H   0  0  0  0  0  0  0  0  0  0  0  0
   -1.9465   -0.5387   -1.2477 H   0  0  0  0  0  0  0  0  0  0  0  0
   -2.4471   -0.9667    0.3683 H   0  0  0  0  0  0  0  0  0  0  0  0
   -1.3380    1.7783   -0.6155 H   0  0  0  0  0  0  0  0  0  0  0  0
   -0.2277   -0.4557    0.9871 H   0  0  0  0  0  0  0  0  0  0  0  0
    1.6522   -1.7311    0.3738 H   0  0  0  0  0  0  0  0  0  0  0  0
    3.9716   -2.5830    0.6740 H   0  0  0  0  0  0  0  0  0  0  0  0
    5.5127    1.1892   -0.3350 H   0  0  0  0  0  0  0  0  0  0  0  0
    3.1911    2.0703   -0.6454 H   0  0  0  0  0  0  0  0  0  0  0  0
  1  2  1  0
  2  3  1  0
  2  4  1  0
  4  5  1  0
  5  6  1  0
  6  7  1  0
  7  8  2  0
  7  9  1  0
  9 10  2  0
 10 11  1  0
 11 12  2  0
 12 13  1  0
 13 14  2  0
 12 15  1  0
 15 16  1  0
 15 17  1  0
 15 18  1  0
  5 19  1  0
 19 20  1  0
 19 21  1  0
 19 22  1  0
 14  9  1  0
  1 23  1  0
  1 24  1  0
  1 25  1  0
  2 26  1  0
  3 27  1  0
  3 28  1  0
  3 29  1  0
  4 30  1  0
  4 31  1  0
  5 32  1  6
  6 33  1  0
 10 34  1  0
 11 35  1  0
 13 36  1  0
 14 37  1  0
M  END
$$$$
[H]O[C@@]1([H])O[C@]1([H])C([H])([H])C([H])([H])C([H])([H])C([H])([H])C([H])([H])C([H])([H])C([H])([H])C([H])([H])C([H])([H])C([H])([H])C([H])([H])C([H])([H])C([H])([H])C([H])([H])c1nc(N([H])[H])nc(N2C([H])([H])C([H])([H])OC([H])([H])C2([H])[H])c1[H]
     RDKit          3D

 73 75  0  0  0  0  0  0  0  0999 V2000
   -4.9701    3.6446   -1.4668 N   0  0  0  0  0  0  0  0  0  0  0  0
   -5.0827    2.4252   -0.7025 C   0  0  0  0  0  0  0  0  0  0  0  0
   -4.0441    2.0196    0.0479 N   0  0  0  0  0  0  0  0  0  0  0  0
   -4.1634    0.8930    0.7469 C   0  0  0  0  0  0  0  0  0  0  0  0
   -3.0690    0.3799    1.5950 C   0  0  0  0  0  0  0  0  0  0  0  0
   -2.1367   -0.5453    0.8874 C   0  0  0  0  0  0  0  0  0  0  0  0
   -1.3984    0.0061   -0.2676 C   0  0  0  0  0  0  0  0  0  0  0  0
   -0.4826    1.1478   -0.0036 C   0  0  0  0  0  0  0  0  0  0  0  0
    0.6129    0.8796    0.9541 C   0  0  0  0  0  0  0  0  0  0  0  0
    1.5275   -0.2259    0.5452 C   0  0  0  0  0  0  0  0  0  0  0  0
    2.1855    0.0804   -0.7492 C   0  0  0  0  0  0  0  0  0  0  0  0
    3.0945   -1.0568   -1.1438 C   0  0  0  0  0  0  0  0  0  0  0  0
    4.1450   -1.2500   -0.1024 C   0  0  0  0  0  0  0  0  0  0  0  0
    5.0720   -2.3857   -0.5172 C   0  0  0  0  0  0  0  0  0  0  0  0
    6.1466   -2.6256    0.4902 C   0  0  0  0  0  0  0  0  0  0  0  0
    7.0233   -1.3803    0.6938 C   0  0  0  0  0  0  0  0  0  0  0  0
    7.6398   -1.0541   -0.6229 C   0  0  0  0  0  0  0  0  0  0  0  0
    8.5666    0.1088   -0.6268 C   0  0  0  0  0  0  0  0  0  0  0  0
    7.9474    1.3954   -0.2422 C   0  0  1  0  0  0  0  0  0  0  0  0
    7.3841    1.4939    1.0762 O   0  0  0  0  0  0  0  0  0  0  0  0
    8.5474    2.2476    0.7969 C   0  0  2  0  0  0  0  0  0  0  0  0
    8.3511    3.6360    0.7068 O   0  0  0  0  0  0  0  0  0  0  0  0
   -5.3391    0.1846    0.6787 C   0  0  0  0  0  0  0  0  0  0  0  0
   -6.4210    0.5903   -0.0918 C   0  0  0  0  0  0  0  0  0  0  0  0
   -6.2416    1.7365   -0.7762 N   0  0  0  0  0  0  0  0  0  0  0  0
   -7.6324   -0.1527   -0.1529 N   0  0  0  0  0  0  0  0  0  0  0  0
   -7.7904   -1.3572    0.5892 C   0  0  0  0  0  0  0  0  0  0  0  0
   -9.1802   -1.8714    0.6961 C   0  0  0  0  0  0  0  0  0  0  0  0
  -10.1047   -1.2549   -0.1139 O   0  0  0  0  0  0  0  0  0  0  0  0
   -9.9778    0.1050   -0.2113 C   0  0  0  0  0  0  0  0  0  0  0  0
   -8.6923    0.3628   -0.9958 C   0  0  0  0  0  0  0  0  0  0  0  0
   -5.4796    3.7461   -2.3503 H   0  0  0  0  0  0  0  0  0  0  0  0
   -4.3683    4.4133   -1.1096 H   0  0  0  0  0  0  0  0  0  0  0  0
   -2.5237    1.2284    2.1052 H   0  0  0  0  0  0  0  0  0  0  0  0
   -3.5203   -0.1844    2.4646 H   0  0  0  0  0  0  0  0  0  0  0  0
   -2.7900   -1.3742    0.4747 H   0  0  0  0  0  0  0  0  0  0  0  0
   -1.4901   -1.0777    1.6266 H   0  0  0  0  0  0  0  0  0  0  0  0
   -2.1630    0.3658   -1.0109 H   0  0  0  0  0  0  0  0  0  0  0  0
   -0.8796   -0.8260   -0.7800 H   0  0  0  0  0  0  0  0  0  0  0  0
   -0.0458    1.4711   -0.9680 H   0  0  0  0  0  0  0  0  0  0  0  0
   -1.0521    2.0639    0.3383 H   0  0  0  0  0  0  0  0  0  0  0  0
    1.2485    1.8115    1.0216 H   0  0  0  0  0  0  0  0  0  0  0  0
    0.2905    0.6866    1.9924 H   0  0  0  0  0  0  0  0  0  0  0  0
    2.3288   -0.2668    1.3303 H   0  0  0  0  0  0  0  0  0  0  0  0
    0.9998   -1.1951    0.5392 H   0  0  0  0  0  0  0  0  0  0  0  0
    2.8401    0.9845   -0.6179 H   0  0  0  0  0  0  0  0  0  0  0  0
    1.4952    0.3603   -1.5741 H   0  0  0  0  0  0  0  0  0  0  0  0
    3.5044   -0.8068   -2.1363 H   0  0  0  0  0  0  0  0  0  0  0  0
    2.4541   -1.9821   -1.2242 H   0  0  0  0  0  0  0  0  0  0  0  0
    3.7182   -1.5973    0.8784 H   0  0  0  0  0  0  0  0  0  0  0  0
    4.6596   -0.3079    0.0849 H   0  0  0  0  0  0  0  0  0  0  0  0
    5.4141   -2.2982   -1.5560 H   0  0  0  0  0  0  0  0  0  0  0  0
    4.4182   -3.3067   -0.4968 H   0  0  0  0  0  0  0  0  0  0  0  0
    6.8196   -3.4026    0.1030 H   0  0  0  0  0  0  0  0  0  0  0  0
    5.7003   -2.8934    1.4485 H   0  0  0  0  0  0  0  0  0  0  0  0
    6.4290   -0.5871    1.1620 H   0  0  0  0  0  0  0  0  0  0  0  0
    7.8009   -1.6918    1.4209 H   0  0  0  0  0  0  0  0  0  0  0  0
    8.1743   -1.9351   -1.0636 H   0  0  0  0  0  0  0  0  0  0  0  0
    6.8199   -0.8369   -1.3703 H   0  0  0  0  0  0  0  0  0  0  0  0
    9.4292   -0.1268    0.0863 H   0  0  0  0  0  0  0  0  0  0  0  0
    9.0258    0.1590   -1.6506 H   0  0  0  0  0  0  0  0  0  0  0  0
    7.2953    1.9069   -0.9987 H   0  0  0  0  0  0  0  0  0  0  0  0
    9.4504    1.9315    1.3197 H   0  0  0  0  0  0  0  0  0  0  0  0
    9.1845    4.0400    0.3762 H   0  0  0  0  0  0  0  0  0  0  0  0
   -5.4731   -0.7447    1.2387 H   0  0  0  0  0  0  0  0  0  0  0  0
   -7.4187   -1.1952    1.6447 H   0  0  0  0  0  0  0  0  0  0  0  0
   -7.0846   -2.1157    0.1627 H   0  0  0  0  0  0  0  0  0  0  0  0
   -9.1654   -2.9560    0.4091 H   0  0  0  0  0  0  0  0  0  0  0  0
   -9.5837   -1.8516    1.7361 H   0  0  0  0  0  0  0  0  0  0  0  0
  -10.8593    0.5159   -0.7231 H   0  0  0  0  0  0  0  0  0  0  0  0
   -9.8045    0.5568    0.7957 H   0  0  0  0  0  0  0  0  0  0  0  0
   -8.7483   -0.2863   -1.8978 H   0  0  0  0  0  0  0  0  0  0  0  0
   -8.5675    1.4271   -1.2394 H   0  0  0  0  0  0  0  0  0  0  0  0
  1  2  1  0
  2  3  2  0
  3  4  1  0
  4  5  1  0
  5  6  1  0
  6  7  1  0
  7  8  1  0
  8  9  1  0
  9 10  1  0
 10 11  1  0
 11 12  1  0
 12 13  1  0
 13 14  1  0
 14 15  1  0
 15 16  1  0
 16 17  1  0
 17 18  1  0
 18 19  1  0
 19 20  1  0
 20 21  1  0
 21 22  1  0
  4 23  2  0
 23 24  1  0
 24 25  2  0
 24 26  1  0
 26 27  1  0
 27 28  1  0
 28 29  1  0
 29 30  1  0
 30 31  1  0
 25  2  1  0
 31 26  1  0
 21 19  1  0
  1 32  1  0
  1 33  1  0
  5 34  1  0
  5 35  1  0
  6 36  1  0
  6 37  1  0
  7 38  1  0
  7 39  1  0
  8 40  1  0
  8 41  1  0
  9 42  1  0
  9 43  1  0
 10 44  1  0
 10 45  1  0
 11 46  1  0
 11 47  1  0
 12 48  1  0
 12 49  1  0
 13 50  1  0
 13 51  1  0
 14 52  1  0
 14 53  1  0
 15 54  1  0
 15 55  1  0
 16 56  1  0
 16 57  1  0
 17 58  1  0
 17 59  1  0
 18 60  1  0
 18 61  1  0
 19 62  1  6
 21 63  1  1
 22 64  1  0
 23 65  1  0
 27 66  1  0
 27 67  1  0
 28 68  1  0
 28 69  1  0
 30 70  1  0
 30 71  1  0
 31 72  1  0
 31 73  1  0
M  END
$$$$
[H]OC([H])([H])C1(C([H])([H])c2c([H])c([H])c([H])c([H])c2[H])C([H])([H])C([H])([H])C([H])(OC(=O)C2([H])N=C(N([H])[H])N(c3c([H])c([H])c([H])c([H])c3[H])C2=O)C([H])([H])C1([H])[H]
     RDKit          3D

 58 61  0  0  0  0  0  0  0  0999 V2000
   -3.2031   -1.4394    3.0135 O   0  0  0  0  0  0  0  0  0  0  0  0
   -3.1401   -1.8708    1.6932 C   0  0  0  0  0  0  0  0  0  0  0  0
   -3.3725   -0.7127    0.7152 C   0  0  0  0  0  0  0  0  0  0  0  0
   -4.7188   -0.1725    1.0027 C   0  0  0  0  0  0  0  0  0  0  0  0
   -5.1759    0.9635    0.1814 C   0  0  0  0  0  0  0  0  0  0  0  0
   -5.8953    0.8312   -0.9889 C   0  0  0  0  0  0  0  0  0  0  0  0
   -6.3012    1.9398   -1.7234 C   0  0  0  0  0  0  0  0  0  0  0  0
   -6.0025    3.2177   -1.3137 C   0  0  0  0  0  0  0  0  0  0  0  0
   -5.2863    3.3724   -0.1490 C   0  0  0  0  0  0  0  0  0  0  0  0
   -4.8952    2.2590    0.5611 C   0  0  0  0  0  0  0  0  0  0  0  0
   -2.3342    0.3896    0.9904 C   0  0  0  0  0  0  0  0  0  0  0  0
   -0.9406   -0.1869    0.9007 C   0  0  0  0  0  0  0  0  0  0  0  0
   -0.7548   -0.8038   -0.4360 C   0  0  0  0  0  0  0  0  0  0  0  0
   -1.9431   -0.6022   -1.2959 C   0  0  0  0  0  0  0  0  0  0  0  0
   -3.1847   -1.2299   -0.6716 C   0  0  0  0  0  0  0  0  0  0  0  0
    0.4672   -0.4658   -1.0547 O   0  0  0  0  0  0  0  0  0  0  0  0
    1.5007   -1.3271   -1.3089 C   0  0  0  0  0  0  0  0  0  0  0  0
    1.3028   -2.5326   -0.9371 O   0  0  0  0  0  0  0  0  0  0  0  0
    2.7546   -0.8959   -1.9645 C   0  0  0  0  0  0  0  0  0  0  0  0
    3.6766   -1.9780   -2.0072 N   0  0  0  0  0  0  0  0  0  0  0  0
    4.7809   -1.7359   -1.4093 C   0  0  0  0  0  0  0  0  0  0  0  0
    5.9162   -2.6249   -1.2735 N   0  0  0  0  0  0  0  0  0  0  0  0
    4.7441   -0.4230   -0.8798 N   0  0  0  0  0  0  0  0  0  0  0  0
    3.4863    0.1372   -1.2142 C   0  0  0  0  0  0  0  0  0  0  0  0
    3.1160    1.2829   -0.9116 O   0  0  0  0  0  0  0  0  0  0  0  0
    5.8035    0.2246   -0.1324 C   0  0  0  0  0  0  0  0  0  0  0  0
    7.1225    0.1345   -0.5182 C   0  0  0  0  0  0  0  0  0  0  0  0
    8.1489    0.7398    0.1732 C   0  0  0  0  0  0  0  0  0  0  0  0
    7.8494    1.4635    1.2929 C   0  0  0  0  0  0  0  0  0  0  0  0
    6.5350    1.5780    1.7139 C   0  0  0  0  0  0  0  0  0  0  0  0
    5.5221    0.9621    1.0045 C   0  0  0  0  0  0  0  0  0  0  0  0
   -3.9627   -1.8163    3.5210 H   0  0  0  0  0  0  0  0  0  0  0  0
   -4.0216   -2.5683    1.5675 H   0  0  0  0  0  0  0  0  0  0  0  0
   -2.2621   -2.4658    1.4505 H   0  0  0  0  0  0  0  0  0  0  0  0
   -4.8145    0.1307    2.0921 H   0  0  0  0  0  0  0  0  0  0  0  0
   -5.5131   -0.9800    0.9273 H   0  0  0  0  0  0  0  0  0  0  0  0
   -6.1609   -0.1492   -1.3475 H   0  0  0  0  0  0  0  0  0  0  0  0
   -6.8627    1.8136   -2.6359 H   0  0  0  0  0  0  0  0  0  0  0  0
   -6.3289    4.0922   -1.9033 H   0  0  0  0  0  0  0  0  0  0  0  0
   -5.0474    4.3682    0.1818 H   0  0  0  0  0  0  0  0  0  0  0  0
   -4.3216    2.3635    1.4935 H   0  0  0  0  0  0  0  0  0  0  0  0
   -2.4766    1.2488    0.3305 H   0  0  0  0  0  0  0  0  0  0  0  0
   -2.5142    0.6875    2.0520 H   0  0  0  0  0  0  0  0  0  0  0  0
   -0.2538    0.7058    1.0098 H   0  0  0  0  0  0  0  0  0  0  0  0
   -0.7949   -0.8837    1.7516 H   0  0  0  0  0  0  0  0  0  0  0  0
   -0.6613   -1.9181   -0.2435 H   0  0  0  0  0  0  0  0  0  0  0  0
   -1.7361   -1.0840   -2.2898 H   0  0  0  0  0  0  0  0  0  0  0  0
   -2.1864    0.4418   -1.5177 H   0  0  0  0  0  0  0  0  0  0  0  0
   -3.9978   -1.0620   -1.3727 H   0  0  0  0  0  0  0  0  0  0  0  0
   -2.9939   -2.3201   -0.6313 H   0  0  0  0  0  0  0  0  0  0  0  0
    2.5943   -0.5367   -3.0013 H   0  0  0  0  0  0  0  0  0  0  0  0
    6.1610   -3.2667   -2.0511 H   0  0  0  0  0  0  0  0  0  0  0  0
    6.5074   -2.6489   -0.4169 H   0  0  0  0  0  0  0  0  0  0  0  0
    7.3765   -0.4324   -1.3992 H   0  0  0  0  0  0  0  0  0  0  0  0
    9.1768    0.6366   -0.1757 H   0  0  0  0  0  0  0  0  0  0  0  0
    8.6633    1.9440    1.8413 H   0  0  0  0  0  0  0  0  0  0  0  0
    6.3540    2.1625    2.6077 H   0  0  0  0  0  0  0  0  0  0  0  0
    4.4989    1.0425    1.3193 H   0  0  0  0  0  0  0  0  0  0  0  0
  1  2  1  0
  2  3  1  0
  3  4  1  0
  4  5  1  0
  5  6  2  0
  6  7  1  0
  7  8  2  0
  8  9  1  0
  9 10  2  0
  3 11  1  0
 11 12  1  0
 12 13  1  0
 13 14  1  0
 14 15  1  0
 13 16  1  0
 16 17  1  0
 17 18  2  0
 17 19  1  0
 19 20  1  0
 20 21  2  0
 21 22  1  0
 21 23  1  0
 23 24  1  0
 24 25  2  0
 23 26  1  0
 26 27  2  0
 27 28  1  0
 28 29  2  0
 29 30  1  0
 30 31  2  0
 15  3  1  0
 24 19  1  0
 31 26  1  0
 10  5  1  0
  1 32  1  0
  2 33  1  0
  2 34  1  0
  4 35  1  0
  4 36  1  0
  6 37  1  0
  7 38  1  0
  8 39  1  0
  9 40  1  0
 10 41  1  0
 11 42  1  0
 11 43  1  0
 12 44  1  0
 12 45  1  0
 13 46  1  0
 14 47  1  0
 14 48  1  0
 15 49  1  0
 15 50  1  0
 19 51  1  0
 22 52  1  0
 22 53  1  0
 27 54  1  0
 28 55  1  0
 29 56  1  0
 30 57  1  0
 31 58  1  0
M  END
$$$$
[H]c1c([H])c([H])c(C(=O)N([H])[C@]([H])(C(=O)N([H])[C@]([H])(C(=O)N([H])[C@]([H])(C(=O)N([H])[C@]([H])(C(=O)N2C([H])([H])C([H])([H])C([H])([H])[C@]2([H])C(=O)N([H])[H])C([H])([H])C([H])(C([H])([H])[H])C([H])([H])[H])C([H])([H])C([H])(C([H])([H])[H])C([H])([H])[H])C([H])([H])C([H])(C([H])([H])[H])C([H])([H])[H])C([H])([H])c2c([H])c([H])c([H])c([H])c2[H])c([H])c1[H]
     RDKit          3D

107109  0  0  0  0  0  0  0  0999 V2000
    8.2003    1.2258    0.0851 C   0  0  0  0  0  0  0  0  0  0  0  0
    6.9680    0.7848    0.6728 C   0  0  0  0  0  0  0  0  0  0  0  0
    7.0288    0.1685    1.7659 O   0  0  0  0  0  0  0  0  0  0  0  0
    5.6985    0.9989    0.1013 N   0  0  0  0  0  0  0  0  0  0  0  0
    4.4766    0.5254    0.7450 C   0  0  1  0  0  0  0  0  0  0  0  0
    3.6440    1.7086    1.1583 C   0  0  0  0  0  0  0  0  0  0  0  0
    3.2327    2.5896    0.0894 C   0  0  0  0  0  0  0  0  0  0  0  0
    4.0662    3.6459   -0.2441 C   0  0  0  0  0  0  0  0  0  0  0  0
    3.7623    4.5344   -1.2509 C   0  0  0  0  0  0  0  0  0  0  0  0
    2.5796    4.3943   -1.9807 C   0  0  0  0  0  0  0  0  0  0  0  0
    1.7425    3.3464   -1.6571 C   0  0  0  0  0  0  0  0  0  0  0  0
    2.0577    2.4632   -0.6472 C   0  0  0  0  0  0  0  0  0  0  0  0
    3.7436   -0.4743   -0.0401 C   0  0  0  0  0  0  0  0  0  0  0  0
    4.0972   -0.7586   -1.1893 O   0  0  0  0  0  0  0  0  0  0  0  0
    2.6131   -1.1457    0.4942 N   0  0  0  0  0  0  0  0  0  0  0  0
    1.8461   -2.1277   -0.2001 C   0  0  1  0  0  0  0  0  0  0  0  0
    2.2136   -3.5616    0.1171 C   0  0  0  0  0  0  0  0  0  0  0  0
    2.0770   -3.9835    1.5280 C   0  0  0  0  0  0  0  0  0  0  0  0
    2.9242   -3.2496    2.5304 C   0  0  0  0  0  0  0  0  0  0  0  0
    2.5044   -5.4585    1.5810 C   0  0  0  0  0  0  0  0  0  0  0  0
    0.3800   -1.9176   -0.0422 C   0  0  0  0  0  0  0  0  0  0  0  0
   -0.0350   -0.9615    0.6647 O   0  0  0  0  0  0  0  0  0  0  0  0
   -0.5992   -2.7512   -0.6534 N   0  0  0  0  0  0  0  0  0  0  0  0
   -2.0055   -2.5738   -0.5137 C   0  0  1  0  0  0  0  0  0  0  0  0
   -2.4418   -3.0161    0.8592 C   0  0  0  0  0  0  0  0  0  0  0  0
   -2.1685   -4.4653    1.1505 C   0  0  0  0  0  0  0  0  0  0  0  0
   -2.6499   -4.7565    2.5816 C   0  0  0  0  0  0  0  0  0  0  0  0
   -2.9561   -5.4037    0.2628 C   0  0  0  0  0  0  0  0  0  0  0  0
   -2.5267   -1.2474   -0.8729 C   0  0  0  0  0  0  0  0  0  0  0  0
   -1.7935   -0.3882   -1.4110 O   0  0  0  0  0  0  0  0  0  0  0  0
   -3.8785   -0.8732   -0.6243 N   0  0  0  0  0  0  0  0  0  0  0  0
   -4.4106    0.4548   -0.9717 C   0  0  1  0  0  0  0  0  0  0  0  0
   -5.6921    0.2738   -1.7527 C   0  0  0  0  0  0  0  0  0  0  0  0
   -5.4595   -0.5044   -3.0317 C   0  0  0  0  0  0  0  0  0  0  0  0
   -6.8256   -0.6189   -3.7027 C   0  0  0  0  0  0  0  0  0  0  0  0
   -4.5843    0.2362   -4.0194 C   0  0  0  0  0  0  0  0  0  0  0  0
   -4.5541    1.2829    0.2366 C   0  0  0  0  0  0  0  0  0  0  0  0
   -4.3206    0.6352    1.3422 O   0  0  0  0  0  0  0  0  0  0  0  0
   -4.8890    2.6108    0.3731 N   0  0  0  0  0  0  0  0  0  0  0  0
   -5.1806    3.6119   -0.6065 C   0  0  0  0  0  0  0  0  0  0  0  0
   -6.2909    4.4549    0.0089 C   0  0  0  0  0  0  0  0  0  0  0  0
   -6.2019    4.2107    1.4832 C   0  0  0  0  0  0  0  0  0  0  0  0
   -5.0229    3.3204    1.6590 C   0  0  2  0  0  0  0  0  0  0  0  0
   -3.8313    4.1676    1.9171 C   0  0  0  0  0  0  0  0  0  0  0  0
   -3.8033    4.9525    3.0876 N   0  0  0  0  0  0  0  0  0  0  0  0
   -2.8342    4.2335    1.1540 O   0  0  0  0  0  0  0  0  0  0  0  0
    8.1935    1.9045   -1.1075 C   0  0  0  0  0  0  0  0  0  0  0  0
    9.3474    2.3614   -1.7384 C   0  0  0  0  0  0  0  0  0  0  0  0
   10.5747    2.1235   -1.1380 C   0  0  0  0  0  0  0  0  0  0  0  0
   10.5818    1.4445    0.0554 C   0  0  0  0  0  0  0  0  0  0  0  0
    9.4364    0.9963    0.6722 C   0  0  0  0  0  0  0  0  0  0  0  0
    5.5544    1.5012   -0.8002 H   0  0  0  0  0  0  0  0  0  0  0  0
    4.8074    0.0397    1.6863 H   0  0  0  0  0  0  0  0  0  0  0  0
    2.7593    1.3484    1.7160 H   0  0  0  0  0  0  0  0  0  0  0  0
    4.2457    2.2848    1.8920 H   0  0  0  0  0  0  0  0  0  0  0  0
    5.0021    3.8242    0.2770 H   0  0  0  0  0  0  0  0  0  0  0  0
    4.4198    5.3598   -1.5075 H   0  0  0  0  0  0  0  0  0  0  0  0
    2.3452    5.0807   -2.7575 H   0  0  0  0  0  0  0  0  0  0  0  0
    0.8057    3.1701   -2.1782 H   0  0  0  0  0  0  0  0  0  0  0  0
    1.4327    1.6360   -0.3630 H   0  0  0  0  0  0  0  0  0  0  0  0
    2.3113   -0.8976    1.4692 H   0  0  0  0  0  0  0  0  0  0  0  0
    2.0752   -2.0266   -1.2892 H   0  0  0  0  0  0  0  0  0  0  0  0
    1.6520   -4.2322   -0.5678 H   0  0  0  0  0  0  0  0  0  0  0  0
    3.2963   -3.7202   -0.1685 H   0  0  0  0  0  0  0  0  0  0  0  0
    1.0004   -4.0211    1.8644 H   0  0  0  0  0  0  0  0  0  0  0  0
    2.3317   -2.5533    3.1603 H   0  0  0  0  0  0  0  0  0  0  0  0
    3.3149   -4.0070    3.2732 H   0  0  0  0  0  0  0  0  0  0  0  0
    3.7893   -2.8194    2.0307 H   0  0  0  0  0  0  0  0  0  0  0  0
    1.6553   -6.0583    1.1348 H   0  0  0  0  0  0  0  0  0  0  0  0
    3.3371   -5.5600    0.8865 H   0  0  0  0  0  0  0  0  0  0  0  0
    2.7480   -5.7673    2.5960 H   0  0  0  0  0  0  0  0  0  0  0  0
   -0.2006   -3.5432   -1.2405 H   0  0  0  0  0  0  0  0  0  0  0  0
   -2.4668   -3.2629   -1.3049 H   0  0  0  0  0  0  0  0  0  0  0  0
   -1.8984   -2.4326    1.6541 H   0  0  0  0  0  0  0  0  0  0  0  0
   -3.5222   -2.7618    1.0483 H   0  0  0  0  0  0  0  0  0  0  0  0
   -1.1063   -4.7079    1.0213 H   0  0  0  0  0  0  0  0  0  0  0  0
   -2.2091   -5.7051    2.9082 H   0  0  0  0  0  0  0  0  0  0  0  0
   -3.7568   -4.8573    2.5404 H   0  0  0  0  0  0  0  0  0  0  0  0
   -2.3898   -3.9239    3.2444 H   0  0  0  0  0  0  0  0  0  0  0  0
   -2.4954   -5.6242   -0.6979 H   0  0  0  0  0  0  0  0  0  0  0  0
   -4.0070   -5.0526    0.1938 H   0  0  0  0  0  0  0  0  0  0  0  0
   -3.0472   -6.3998    0.7920 H   0  0  0  0  0  0  0  0  0  0  0  0
   -4.5569   -1.5190   -0.1864 H   0  0  0  0  0  0  0  0  0  0  0  0
   -3.6628    0.9366   -1.6101 H   0  0  0  0  0  0  0  0  0  0  0  0
   -6.2953   -0.4507   -1.1057 H   0  0  0  0  0  0  0  0  0  0  0  0
   -6.3224    1.1378   -1.8592 H   0  0  0  0  0  0  0  0  0  0  0  0
   -5.0403   -1.4904   -2.8373 H   0  0  0  0  0  0  0  0  0  0  0  0
   -7.0187    0.2214   -4.3857 H   0  0  0  0  0  0  0  0  0  0  0  0
   -7.6230   -0.6752   -2.9302 H   0  0  0  0  0  0  0  0  0  0  0  0
   -6.8372   -1.5429   -4.3231 H   0  0  0  0  0  0  0  0  0  0  0  0
   -4.3837   -0.4943   -4.8438 H   0  0  0  0  0  0  0  0  0  0  0  0
   -3.6587    0.6310   -3.6148 H   0  0  0  0  0  0  0  0  0  0  0  0
   -5.1560    1.0723   -4.4863 H   0  0  0  0  0  0  0  0  0  0  0  0
   -4.2900    4.2614   -0.8277 H   0  0  0  0  0  0  0  0  0  0  0  0
   -5.5297    3.2716   -1.5843 H   0  0  0  0  0  0  0  0  0  0  0  0
   -7.2876    4.1004   -0.3297 H   0  0  0  0  0  0  0  0  0  0  0  0
   -6.1620    5.5008   -0.3061 H   0  0  0  0  0  0  0  0  0  0  0  0
   -6.0676    5.2049    1.9887 H   0  0  0  0  0  0  0  0  0  0  0  0
   -7.1396    3.7948    1.9191 H   0  0  0  0  0  0  0  0  0  0  0  0
   -5.1990    2.5943    2.4804 H   0  0  0  0  0  0  0  0  0  0  0  0
   -4.6775    5.3441    3.4654 H   0  0  0  0  0  0  0  0  0  0  0  0
   -2.9075    5.1358    3.5649 H   0  0  0  0  0  0  0  0  0  0  0  0
    7.2675    2.1340   -1.6472 H   0  0  0  0  0  0  0  0  0  0  0  0
    9.2934    2.8832   -2.6642 H   0  0  0  0  0  0  0  0  0  0  0  0
   11.4518    2.4890   -1.6489 H   0  0  0  0  0  0  0  0  0  0  0  0
   11.5524    1.2628    0.5235 H   0  0  0  0  0  0  0  0  0  0  0  0
    9.4320    0.4621    1.6088 H   0  0  0  0  0  0  0  0  0  0  0  0
  1  2  1  0
  2  3  2  0
  2  4  1  0
  4  5  1  0
  5  6  1  0
  6  7  1  0
  7  8  2  0
  8  9  1  0
  9 10  2  0
 10 11  1  0
 11 12  2  0
  5 13  1  0
 13 14  2  0
 13 15  1  0
 15 16  1  0
 16 17  1  0
 17 18  1  0
 18 19  1  0
 18 20  1  0
 16 21  1  0
 21 22  2  0
 21 23  1  0
 23 24  1  0
 24 25  1  0
 25 26  1  0
 26 27  1  0
 26 28  1  0
 24 29  1  0
 29 30  2  0
 29 31  1  0
 31 32  1  0
 32 33  1  0
 33 34  1  0
 34 35  1  0
 34 36  1  0
 32 37  1  0
 37 38  2  0
 37 39  1  0
 39 40  1  0
 40 41  1  0
 41 42  1  0
 42 43  1  0
 43 44  1  0
 44 45  1  0
 44 46  2  0
  1 47  2  0
 47 48  1  0
 48 49  2  0
 49 50  1  0
 50 51  2  0
 51  1  1  0
 12  7  1  0
 43 39  1  0
  4 52  1  0
  5 53  1  1
  6 54  1  0
  6 55  1  0
  8 56  1  0
  9 57  1  0
 10 58  1  0
 11 59  1  0
 12 60  1  0
 15 61  1  0
 16 62  1  6
 17 63  1  0
 17 64  1  0
 18 65  1  0
 19 66  1  0
 19 67  1  0
 19 68  1  0
 20 69  1  0
 20 70  1  0
 20 71  1  0
 23 72  1  0
 24 73  1  6
 25 74  1  0
 25 75  1  0
 26 76  1  0
 27 77  1  0
 27 78  1  0
 27 79  1  0
 28 80  1  0
 28 81  1  0
 28 82  1  0
 31 83  1  0
 32 84  1  6
 33 85  1  0
 33 86  1  0
 34 87  1  0
 35 88  1  0
 35 89  1  0
 35 90  1  0
 36 91  1  0
 36 92  1  0
 36 93  1  0
 40 94  1  0
 40 95  1  0
 41 96  1  0
 41 97  1  0
 42 98  1  0
 42 99  1  0
 43100  1  1
 45101  1  0
 45102  1  0
 47103  1  0
 48104  1  0
 49105  1  0
 50106  1  0
 51107  1  0
M  END
$$$$
[H]C1=C(C(=O)N([H])[H])N(C(=O)c2c([H])c([H])c(-c3c([H])nc([H])c([H])c3[H])c([H])c2[H])c2c([H])c([H])c([H])c([H])c2N=C1Oc1c([H])c([H])c([H])c([H])c1C([H])([H])[H]
     RDKit          3D

 58 62  0  0  0  0  0  0  0  0999 V2000
   -0.8041   -0.0656   -3.9732 N   0  0  0  0  0  0  0  0  0  0  0  0
   -0.1285    0.5713   -2.9090 C   0  0  0  0  0  0  0  0  0  0  0  0
    0.9631    1.0973   -3.1798 O   0  0  0  0  0  0  0  0  0  0  0  0
   -0.6926    0.5978   -1.5876 C   0  0  0  0  0  0  0  0  0  0  0  0
   -1.8834   -0.0366   -1.5338 C   0  0  0  0  0  0  0  0  0  0  0  0
   -2.7977   -0.2550   -0.4297 C   0  0  0  0  0  0  0  0  0  0  0  0
   -3.9655   -0.9753   -0.5956 O   0  0  0  0  0  0  0  0  0  0  0  0
   -5.2371   -0.5121   -0.2406 C   0  0  0  0  0  0  0  0  0  0  0  0
   -5.4807    0.7216    0.2969 C   0  0  0  0  0  0  0  0  0  0  0  0
   -6.7694    1.1487    0.6375 C   0  0  0  0  0  0  0  0  0  0  0  0
   -7.8478    0.3228    0.4364 C   0  0  0  0  0  0  0  0  0  0  0  0
   -7.5867   -0.9133   -0.1050 C   0  0  0  0  0  0  0  0  0  0  0  0
   -6.3334   -1.3440   -0.4422 C   0  0  0  0  0  0  0  0  0  0  0  0
   -6.0881   -2.6901   -1.0267 C   0  0  0  0  0  0  0  0  0  0  0  0
   -2.6851    0.1569    0.8113 N   0  0  0  0  0  0  0  0  0  0  0  0
   -1.6398    0.9199    1.3790 C   0  0  0  0  0  0  0  0  0  0  0  0
   -1.9116    1.1869    2.7047 C   0  0  0  0  0  0  0  0  0  0  0  0
   -1.0323    1.9201    3.4555 C   0  0  0  0  0  0  0  0  0  0  0  0
    0.1532    2.4116    2.8995 C   0  0  0  0  0  0  0  0  0  0  0  0
    0.4324    2.1511    1.5812 C   0  0  0  0  0  0  0  0  0  0  0  0
   -0.4494    1.4137    0.8221 C   0  0  0  0  0  0  0  0  0  0  0  0
    0.0069    1.2403   -0.5252 N   0  0  0  0  0  0  0  0  0  0  0  0
    1.2759    1.7633   -0.7796 C   0  0  0  0  0  0  0  0  0  0  0  0
    1.4190    2.9680   -1.1931 O   0  0  0  0  0  0  0  0  0  0  0  0
    2.5233    1.0097   -0.6022 C   0  0  0  0  0  0  0  0  0  0  0  0
    3.7685    1.5346   -0.8543 C   0  0  0  0  0  0  0  0  0  0  0  0
    4.9341    0.8393   -0.6909 C   0  0  0  0  0  0  0  0  0  0  0  0
    4.8631   -0.4687   -0.2463 C   0  0  0  0  0  0  0  0  0  0  0  0
    3.6286   -1.0455    0.0226 C   0  0  0  0  0  0  0  0  0  0  0  0
    2.4641   -0.2927   -0.1602 C   0  0  0  0  0  0  0  0  0  0  0  0
    6.1080   -1.1939   -0.0772 C   0  0  0  0  0  0  0  0  0  0  0  0
    7.2521   -0.5237    0.2934 C   0  0  0  0  0  0  0  0  0  0  0  0
    8.4612   -1.1891    0.4631 C   0  0  0  0  0  0  0  0  0  0  0  0
    8.4866   -2.5460    0.2497 C   0  0  0  0  0  0  0  0  0  0  0  0
    7.3609   -3.1865   -0.1119 N   0  0  0  0  0  0  0  0  0  0  0  0
    6.1755   -2.5514   -0.2811 C   0  0  0  0  0  0  0  0  0  0  0  0
   -1.1962    0.4875   -4.7578 H   0  0  0  0  0  0  0  0  0  0  0  0
   -0.9155   -1.0961   -3.9816 H   0  0  0  0  0  0  0  0  0  0  0  0
   -2.2154   -0.4624   -2.4785 H   0  0  0  0  0  0  0  0  0  0  0  0
   -4.7060    1.4686    0.4885 H   0  0  0  0  0  0  0  0  0  0  0  0
   -6.9551    2.1250    1.0625 H   0  0  0  0  0  0  0  0  0  0  0  0
   -8.8496    0.6455    0.6972 H   0  0  0  0  0  0  0  0  0  0  0  0
   -8.4594   -1.5605   -0.2591 H   0  0  0  0  0  0  0  0  0  0  0  0
   -5.3461   -3.1982   -0.3887 H   0  0  0  0  0  0  0  0  0  0  0  0
   -5.6139   -2.5217   -2.0213 H   0  0  0  0  0  0  0  0  0  0  0  0
   -7.0134   -3.2562   -1.1486 H   0  0  0  0  0  0  0  0  0  0  0  0
   -2.8115    0.8235    3.1571 H   0  0  0  0  0  0  0  0  0  0  0  0
   -1.2662    2.1158    4.4898 H   0  0  0  0  0  0  0  0  0  0  0  0
    0.8507    2.9883    3.4785 H   0  0  0  0  0  0  0  0  0  0  0  0
    1.3614    2.5474    1.1772 H   0  0  0  0  0  0  0  0  0  0  0  0
    3.8345    2.5662   -1.2056 H   0  0  0  0  0  0  0  0  0  0  0  0
    5.8739    1.3210   -0.9097 H   0  0  0  0  0  0  0  0  0  0  0  0
    3.5758   -2.0752    0.3723 H   0  0  0  0  0  0  0  0  0  0  0  0
    1.5234   -0.7460    0.0495 H   0  0  0  0  0  0  0  0  0  0  0  0
    7.2817    0.5425    0.4726 H   0  0  0  0  0  0  0  0  0  0  0  0
    9.3714   -0.6802    0.7538 H   0  0  0  0  0  0  0  0  0  0  0  0
    9.4296   -3.0776    0.3799 H   0  0  0  0  0  0  0  0  0  0  0  0
    5.3028   -3.1427   -0.5767 H   0  0  0  0  0  0  0  0  0  0  0  0
  1  2  1  0
  2  3  2  0
  2  4  1  0
  4  5  2  0
  5  6  1  0
  6  7  1  0
  7  8  1  0
  8  9  2  0
  9 10  1  0
 10 11  2  0
 11 12  1  0
 12 13  2  0
 13 14  1  0
  6 15  2  0
 15 16  1  0
 16 17  2  0
 17 18  1  0
 18 19  2  0
 19 20  1  0
 20 21  2  0
 21 22  1  0
 22 23  1  0
 23 24  2  0
 23 25  1  0
 25 26  2  0
 26 27  1  0
 27 28  2  0
 28 29  1  0
 29 30  2  0
 28 31  1  0
 31 32  2  0
 32 33  1  0
 33 34  2  0
 34 35  1  0
 35 36  2  0
 22  4  1  0
 30 25  1  0
 36 31  1  0
 13  8  1  0
 21 16  1  0
  1 37  1  0
  1 38  1  0
  5 39  1  0
  9 40  1  0
 10 41  1  0
 11 42  1  0
 12 43  1  0
 14 44  1  0
 14 45  1  0
 14 46  1  0
 17 47  1  0
 18 48  1  0
 19 49  1  0
 20 50  1  0
 26 51  1  0
 27 52  1  0
 29 53  1  0
 30 54  1  0
 32 55  1  0
 33 56  1  0
 34 57  1  0
 36 58  1  0
M  END
$$$$
[H]c1c(F)c([H])c2nc(N3C([H])([H])C([H])([H])N4C([H])([H])C([H])([H])C3([H])C([H])([H])C4([H])[H])sc2c1[H]
     RDKit          3D

 35 38  0  0  0  0  0  0  0  0999 V2000
    6.4651   -0.0863   -1.4219 F   0  0  0  0  0  0  0  0  0  0  0  0
    5.3503   -0.1613   -0.6194 C   0  0  0  0  0  0  0  0  0  0  0  0
    5.5955   -0.4182    0.7042 C   0  0  0  0  0  0  0  0  0  0  0  0
    4.4817   -0.4967    1.5257 C   0  0  0  0  0  0  0  0  0  0  0  0
    3.1975   -0.3155    0.9829 C   0  0  0  0  0  0  0  0  0  0  0  0
    1.5967   -0.3257    1.6007 S   0  0  0  0  0  0  0  0  0  0  0  0
    0.7543   -0.0066    0.1463 C   0  0  0  0  0  0  0  0  0  0  0  0
    1.7320    0.0900   -0.7272 N   0  0  0  0  0  0  0  0  0  0  0  0
    2.9753   -0.0600   -0.3409 C   0  0  0  0  0  0  0  0  0  0  0  0
    4.1227    0.0166   -1.1642 C   0  0  0  0  0  0  0  0  0  0  0  0
   -0.6576    0.1272   -0.0916 N   0  0  0  0  0  0  0  0  0  0  0  0
   -0.9662    0.3987   -1.4727 C   0  0  0  0  0  0  0  0  0  0  0  0
   -2.3801    0.1079   -1.8500 C   0  0  0  0  0  0  0  0  0  0  0  0
   -3.3212    0.2544   -0.7855 N   0  0  0  0  0  0  0  0  0  0  0  0
   -3.1566    1.4009    0.0282 C   0  0  0  0  0  0  0  0  0  0  0  0
   -2.3676    1.1988    1.2739 C   0  0  0  0  0  0  0  0  0  0  0  0
   -1.4798   -0.0337    1.0797 C   0  0  0  0  0  0  0  0  0  0  0  0
   -2.4292   -1.2103    0.9712 C   0  0  0  0  0  0  0  0  0  0  0  0
   -3.4615   -0.9871   -0.0864 C   0  0  0  0  0  0  0  0  0  0  0  0
    6.5613   -0.5600    1.1427 H   0  0  0  0  0  0  0  0  0  0  0  0
    4.5222   -0.6893    2.5681 H   0  0  0  0  0  0  0  0  0  0  0  0
    4.0441    0.2148   -2.2235 H   0  0  0  0  0  0  0  0  0  0  0  0
   -0.6818    1.4247   -1.7792 H   0  0  0  0  0  0  0  0  0  0  0  0
   -0.3166   -0.2959   -2.0818 H   0  0  0  0  0  0  0  0  0  0  0  0
   -2.6334    0.7779   -2.7212 H   0  0  0  0  0  0  0  0  0  0  0  0
   -2.4740   -0.9489   -2.2363 H   0  0  0  0  0  0  0  0  0  0  0  0
   -4.1400    1.8520    0.2745 H   0  0  0  0  0  0  0  0  0  0  0  0
   -2.6181    2.1837   -0.5829 H   0  0  0  0  0  0  0  0  0  0  0  0
   -3.0516    0.9862    2.1282 H   0  0  0  0  0  0  0  0  0  0  0  0
   -1.7344    2.0564    1.5481 H   0  0  0  0  0  0  0  0  0  0  0  0
   -0.8686   -0.1683    1.9697 H   0  0  0  0  0  0  0  0  0  0  0  0
   -1.8818   -2.1705    0.8666 H   0  0  0  0  0  0  0  0  0  0  0  0
   -2.9510   -1.2730    1.9599 H   0  0  0  0  0  0  0  0  0  0  0  0
   -3.3290   -1.8047   -0.8553 H   0  0  0  0  0  0  0  0  0  0  0  0
   -4.4987   -1.0780    0.2693 H   0  0  0  0  0  0  0  0  0  0  0  0
  1  2  1  0
  2  3  2  0
  3  4  1  0
  4  5  2  0
  5  6  1  0
  6  7  1  0
  7  8  2  0
  8  9  1  0
  9 10  2  0
  7 11  1  0
 11 12  1  0
 12 13  1  0
 13 14  1  0
 14 15  1  0
 15 16  1  0
 16 17  1  0
 17 18  1  0
 18 19  1  0
 10  2  1  0
 17 11  1  0
  9  5  1  0
 19 14  1  0
  3 20  1  0
  4 21  1  0
 10 22  1  0
 12 23  1  0
 12 24  1  0
 13 25  1  0
 13 26  1  0
 15 27  1  0
 15 28  1  0
 16 29  1  0
 16 30  1  0
 17 31  1  0
 18 32  1  0
 18 33  1  0
 19 34  1  0
 19 35  1  0
M  END
$$$$
[H]OC(=O)C([H])([H])[C@@]([H])(C(=O)O[H])N([H])C(=O)[C@@]([H])(N([H])C(=O)[C@@]([H])(N([H])C(=O)[C@@]1([H])N(C(=O)[C@@]([H])(N([H])[H])C([H])([H])c2c([H])c([H])c([H])c([H])c2[H])C([H])([H])C([H])([H])C1([H])[H])C([H])([H])c1c([H])c([H])c([H])c([H])c1[H])C([H])(C([H])([H])[H])C([H])([H])[H]
     RDKit          3D

 86 88  0  0  0  0  0  0  0  0999 V2000
    5.0958    3.0704    0.3081 C   0  0  0  0  0  0  0  0  0  0  0  0
    4.5771    2.1136   -0.7291 C   0  0  0  0  0  0  0  0  0  0  0  0
    5.6292    1.6054   -1.6566 C   0  0  0  0  0  0  0  0  0  0  0  0
    3.6730    1.0749   -0.2120 C   0  0  2  0  0  0  0  0  0  0  0  0
    2.4700    1.6690    0.4070 N   0  0  0  0  0  0  0  0  0  0  0  0
    1.2006    1.1568    0.2368 C   0  0  0  0  0  0  0  0  0  0  0  0
    1.1986    0.0566   -0.5202 O   0  0  0  0  0  0  0  0  0  0  0  0
   -0.1134    1.5095    0.6771 C   0  0  2  0  0  0  0  0  0  0  0  0
   -0.3953    2.7181    1.4275 C   0  0  0  0  0  0  0  0  0  0  0  0
   -0.1255    3.9852    0.7511 C   0  0  0  0  0  0  0  0  0  0  0  0
   -1.0567    4.3713   -0.2222 C   0  0  0  0  0  0  0  0  0  0  0  0
   -0.8862    5.5729   -0.8363 C   0  0  0  0  0  0  0  0  0  0  0  0
    0.1737    6.3766   -0.5029 C   0  0  0  0  0  0  0  0  0  0  0  0
    1.0950    5.9854    0.4668 C   0  0  0  0  0  0  0  0  0  0  0  0
    0.9238    4.7755    1.0854 C   0  0  0  0  0  0  0  0  0  0  0  0
   -0.8559    0.3722    1.2343 N   0  0  0  0  0  0  0  0  0  0  0  0
   -1.8167   -0.3825    0.4822 C   0  0  0  0  0  0  0  0  0  0  0  0
   -2.0025   -0.0361   -0.6932 O   0  0  0  0  0  0  0  0  0  0  0  0
   -2.5417   -1.5015    1.0696 C   0  0  2  0  0  0  0  0  0  0  0  0
   -1.5566   -2.6392    1.4400 C   0  0  0  0  0  0  0  0  0  0  0  0
   -1.3231   -3.2385    0.0512 C   0  0  0  0  0  0  0  0  0  0  0  0
   -2.5758   -2.9246   -0.7496 C   0  0  0  0  0  0  0  0  0  0  0  0
   -3.4130   -2.2417    0.2049 N   0  0  0  0  0  0  0  0  0  0  0  0
   -4.8299   -2.3406    0.2446 C   0  0  0  0  0  0  0  0  0  0  0  0
   -5.4482   -1.6771    1.1079 O   0  0  0  0  0  0  0  0  0  0  0  0
   -5.6050   -3.1961   -0.6789 C   0  0  1  0  0  0  0  0  0  0  0  0
   -6.9771   -3.3081   -0.1500 N   0  0  0  0  0  0  0  0  0  0  0  0
   -5.6774   -2.6396   -2.1006 C   0  0  0  0  0  0  0  0  0  0  0  0
   -6.3542   -1.3388   -2.0766 C   0  0  0  0  0  0  0  0  0  0  0  0
   -5.6540   -0.1820   -1.8884 C   0  0  0  0  0  0  0  0  0  0  0  0
   -6.3411    1.0314   -1.8790 C   0  0  0  0  0  0  0  0  0  0  0  0
   -7.7029    1.0665   -2.0569 C   0  0  0  0  0  0  0  0  0  0  0  0
   -8.4200   -0.1109   -2.2497 C   0  0  0  0  0  0  0  0  0  0  0  0
   -7.7315   -1.2851   -2.2552 C   0  0  0  0  0  0  0  0  0  0  0  0
    4.2128    0.0064    0.6254 C   0  0  0  0  0  0  0  0  0  0  0  0
    3.5316   -0.2845    1.6960 O   0  0  0  0  0  0  0  0  0  0  0  0
    5.3663   -0.7634    0.4405 N   0  0  0  0  0  0  0  0  0  0  0  0
    5.7067   -1.8263    1.4184 C   0  0  1  0  0  0  0  0  0  0  0  0
    6.1661   -3.0456    0.6694 C   0  0  0  0  0  0  0  0  0  0  0  0
    6.5237   -4.1908    1.5055 C   0  0  0  0  0  0  0  0  0  0  0  0
    5.5237   -5.0887    1.9009 O   0  0  0  0  0  0  0  0  0  0  0  0
    7.7001   -4.4197    1.8999 O   0  0  0  0  0  0  0  0  0  0  0  0
    6.7537   -1.2996    2.3179 C   0  0  0  0  0  0  0  0  0  0  0  0
    7.1814   -2.0595    3.3788 O   0  0  0  0  0  0  0  0  0  0  0  0
    7.2457   -0.1755    2.1208 O   0  0  0  0  0  0  0  0  0  0  0  0
    4.2580    3.7830    0.5467 H   0  0  0  0  0  0  0  0  0  0  0  0
    5.9260    3.6890   -0.0442 H   0  0  0  0  0  0  0  0  0  0  0  0
    5.2765    2.5359    1.2566 H   0  0  0  0  0  0  0  0  0  0  0  0
    3.9104    2.7766   -1.3963 H   0  0  0  0  0  0  0  0  0  0  0  0
    5.7429    2.3371   -2.5033 H   0  0  0  0  0  0  0  0  0  0  0  0
    5.2174    0.6636   -2.1162 H   0  0  0  0  0  0  0  0  0  0  0  0
    6.5809    1.4741   -1.1422 H   0  0  0  0  0  0  0  0  0  0  0  0
    3.2212    0.5251   -1.1098 H   0  0  0  0  0  0  0  0  0  0  0  0
    2.6781    2.4848    0.9985 H   0  0  0  0  0  0  0  0  0  0  0  0
   -0.6715    1.6603   -0.3864 H   0  0  0  0  0  0  0  0  0  0  0  0
   -1.5113    2.7487    1.6791 H   0  0  0  0  0  0  0  0  0  0  0  0
    0.0575    2.6959    2.4614 H   0  0  0  0  0  0  0  0  0  0  0  0
   -1.8837    3.7032   -0.4562 H   0  0  0  0  0  0  0  0  0  0  0  0
   -1.6072    5.8716   -1.5917 H   0  0  0  0  0  0  0  0  0  0  0  0
    0.3081    7.3291   -0.9874 H   0  0  0  0  0  0  0  0  0  0  0  0
    1.9223    6.6249    0.7189 H   0  0  0  0  0  0  0  0  0  0  0  0
    1.6269    4.4281    1.8627 H   0  0  0  0  0  0  0  0  0  0  0  0
   -0.6817    0.0986    2.2090 H   0  0  0  0  0  0  0  0  0  0  0  0
   -3.0546   -1.1405    1.9876 H   0  0  0  0  0  0  0  0  0  0  0  0
   -2.1413   -3.3035    2.0833 H   0  0  0  0  0  0  0  0  0  0  0  0
   -0.6492   -2.2665    1.9021 H   0  0  0  0  0  0  0  0  0  0  0  0
   -0.4183   -2.7970   -0.4319 H   0  0  0  0  0  0  0  0  0  0  0  0
   -1.1466   -4.3055    0.1709 H   0  0  0  0  0  0  0  0  0  0  0  0
   -3.0482   -3.8521   -1.1393 H   0  0  0  0  0  0  0  0  0  0  0  0
   -2.3886   -2.2772   -1.6028 H   0  0  0  0  0  0  0  0  0  0  0  0
   -5.2277   -4.2305   -0.7635 H   0  0  0  0  0  0  0  0  0  0  0  0
   -7.0815   -4.1358    0.4709 H   0  0  0  0  0  0  0  0  0  0  0  0
   -7.1852   -2.4744    0.4525 H   0  0  0  0  0  0  0  0  0  0  0  0
   -4.6259   -2.5325   -2.4382 H   0  0  0  0  0  0  0  0  0  0  0  0
   -6.2309   -3.4022   -2.6844 H   0  0  0  0  0  0  0  0  0  0  0  0
   -4.5985   -0.2446   -1.7578 H   0  0  0  0  0  0  0  0  0  0  0  0
   -5.7814    1.9413   -1.7292 H   0  0  0  0  0  0  0  0  0  0  0  0
   -8.2301    1.9912   -2.0504 H   0  0  0  0  0  0  0  0  0  0  0  0
   -9.5028   -0.0402   -2.3871 H   0  0  0  0  0  0  0  0  0  0  0  0
   -8.2499   -2.2319   -2.3997 H   0  0  0  0  0  0  0  0  0  0  0  0
    6.0254   -0.6665   -0.3356 H   0  0  0  0  0  0  0  0  0  0  0  0
    4.8190   -2.0900    2.0248 H   0  0  0  0  0  0  0  0  0  0  0  0
    5.4574   -3.3375   -0.1348 H   0  0  0  0  0  0  0  0  0  0  0  0
    7.1293   -2.7211    0.1559 H   0  0  0  0  0  0  0  0  0  0  0  0
    5.4027   -5.8998    1.2946 H   0  0  0  0  0  0  0  0  0  0  0  0
    7.8114   -1.7348    4.0778 H   0  0  0  0  0  0  0  0  0  0  0  0
  1  2  1  0
  2  3  1  0
  2  4  1  0
  4  5  1  0
  5  6  1  0
  6  7  2  0
  6  8  1  0
  8  9  1  0
  9 10  1  0
 10 11  2  0
 11 12  1  0
 12 13  2  0
 13 14  1  0
 14 15  2  0
  8 16  1  0
 16 17  1  0
 17 18  2  0
 17 19  1  0
 19 20  1  0
 20 21  1  0
 21 22  1  0
 22 23  1  0
 23 24  1  0
 24 25  2  0
 24 26  1  0
 26 27  1  0
 26 28  1  0
 28 29  1  0
 29 30  2  0
 30 31  1  0
 31 32  2  0
 32 33  1  0
 33 34  2  0
  4 35  1  0
 35 36  2  0
 35 37  1  0
 37 38  1  0
 38 39  1  0
 39 40  1  0
 40 41  1  0
 40 42  2  0
 38 43  1  0
 43 44  1  0
 43 45  2  0
 15 10  1  0
 23 19  1  0
 34 29  1  0
  1 46  1  0
  1 47  1  0
  1 48  1  0
  2 49  1  0
  3 50  1  0
  3 51  1  0
  3 52  1  0
  4 53  1  6
  5 54  1  0
  8 55  1  6
  9 56  1  0
  9 57  1  0
 11 58  1  0
 12 59  1  0
 13 60  1  0
 14 61  1  0
 15 62  1  0
 16 63  1  0
 19 64  1  1
 20 65  1  0
 20 66  1  0
 21 67  1  0
 21 68  1  0
 22 69  1  0
 22 70  1  0
 26 71  1  6
 27 72  1  0
 27 73  1  0
 28 74  1  0
 28 75  1  0
 30 76  1  0
 31 77  1  0
 32 78  1  0
 33 79  1  0
 34 80  1  0
 37 81  1  0
 38 82  1  1
 39 83  1  0
 39 84  1  0
 41 85  1  0
 44 86  1  0
M  END
$$$$
[H]Oc1nc([H])c(C(=O)C([H])([H])C([H])([H])N2C([H])([H])C([H])([H])C([H])([H])C2([H])[H])c([H])c1[H]
     RDKit          3D

 32 33  0  0  0  0  0  0  0  0999 V2000
    6.2840    1.9853    0.1388 O   0  0  0  0  0  0  0  0  0  0  0  0
    5.0541    1.3158    0.1651 C   0  0  0  0  0  0  0  0  0  0  0  0
    4.9650    0.0606    0.6899 C   0  0  0  0  0  0  0  0  0  0  0  0
    3.7315   -0.5520    0.6909 C   0  0  0  0  0  0  0  0  0  0  0  0
    2.5993    0.0426    0.1904 C   0  0  0  0  0  0  0  0  0  0  0  0
    2.7344    1.3126   -0.3310 C   0  0  0  0  0  0  0  0  0  0  0  0
    3.9531    1.9170   -0.3316 N   0  0  0  0  0  0  0  0  0  0  0  0
    1.2990   -0.6348    0.2051 C   0  0  0  0  0  0  0  0  0  0  0  0
    1.2573   -1.8032    0.7024 O   0  0  0  0  0  0  0  0  0  0  0  0
    0.0834    0.0263   -0.3421 C   0  0  0  0  0  0  0  0  0  0  0  0
   -1.0660   -0.9182   -0.1792 C   0  0  0  0  0  0  0  0  0  0  0  0
   -2.3139   -0.3972   -0.6725 N   0  0  0  0  0  0  0  0  0  0  0  0
   -3.3276   -1.4160   -0.4484 C   0  0  0  0  0  0  0  0  0  0  0  0
   -4.6203   -0.6510   -0.2139 C   0  0  0  0  0  0  0  0  0  0  0  0
   -4.1192    0.5603    0.5400 C   0  0  0  0  0  0  0  0  0  0  0  0
   -2.7452    0.8000   -0.0429 C   0  0  0  0  0  0  0  0  0  0  0  0
    7.1470    1.5494   -0.1267 H   0  0  0  0  0  0  0  0  0  0  0  0
    5.8522   -0.4066    1.0827 H   0  0  0  0  0  0  0  0  0  0  0  0
    3.6528   -1.5464    1.1049 H   0  0  0  0  0  0  0  0  0  0  0  0
    1.9002    1.8515   -0.7434 H   0  0  0  0  0  0  0  0  0  0  0  0
    0.2584    0.1588   -1.4498 H   0  0  0  0  0  0  0  0  0  0  0  0
   -0.0876    1.0170    0.1092 H   0  0  0  0  0  0  0  0  0  0  0  0
   -0.8340   -1.8306   -0.7741 H   0  0  0  0  0  0  0  0  0  0  0  0
   -1.1193   -1.2468    0.8765 H   0  0  0  0  0  0  0  0  0  0  0  0
   -3.0703   -1.9057    0.5209 H   0  0  0  0  0  0  0  0  0  0  0  0
   -3.3994   -2.1225   -1.2837 H   0  0  0  0  0  0  0  0  0  0  0  0
   -5.0800   -0.3866   -1.1836 H   0  0  0  0  0  0  0  0  0  0  0  0
   -5.2913   -1.2882    0.3865 H   0  0  0  0  0  0  0  0  0  0  0  0
   -4.0126    0.2489    1.6011 H   0  0  0  0  0  0  0  0  0  0  0  0
   -4.7608    1.4485    0.4071 H   0  0  0  0  0  0  0  0  0  0  0  0
   -2.0620    1.2011    0.7209 H   0  0  0  0  0  0  0  0  0  0  0  0
   -2.8623    1.6101   -0.8213 H   0  0  0  0  0  0  0  0  0  0  0  0
  1  2  1  0
  2  3  2  0
  3  4  1  0
  4  5  2  0
  5  6  1  0
  6  7  2  0
  5  8  1  0
  8  9  2  0
  8 10  1  0
 10 11  1  0
 11 12  1  0
 12 13  1  0
 13 14  1  0
 14 15  1  0
 15 16  1  0
  7  2  1  0
 16 12  1  0
  1 17  1  0
  3 18  1  0
  4 19  1  0
  6 20  1  0
 10 21  1  0
 10 22  1  0
 11 23  1  0
 11 24  1  0
 13 25  1  0
 13 26  1  0
 14 27  1  0
 14 28  1  0
 15 29  1  0
 15 30  1  0
 16 31  1  0
 16 32  1  0
M  END
$$$$
[H]N=C(N([H])[H])N([H])C([H])([H])C([H])([H])C([H])([H])[C@@]([H])(C(=O)N([H])[C@]([H])(C([H])=O)C([H])([H])c1c([H])c([H])c([H])c([H])c1[H])N([H])C(=O)[C@@]([H])(N([H])C(=O)OC(C([H])([H])[H])(C([H])([H])[H])C([H])([H])[H])C([H])([H])c1c([H])c([H])c([H])c([H])c1[H]
     RDKit          3D

 80 81  0  0  0  0  0  0  0  0999 V2000
    6.3508    2.1761    2.2747 C   0  0  0  0  0  0  0  0  0  0  0  0
    6.5825    0.7624    2.7337 C   0  0  0  0  0  0  0  0  0  0  0  0
    7.0672    0.8489    4.1790 C   0  0  0  0  0  0  0  0  0  0  0  0
    7.6952    0.0941    1.9519 C   0  0  0  0  0  0  0  0  0  0  0  0
    5.4358   -0.0282    2.7113 O   0  0  0  0  0  0  0  0  0  0  0  0
    4.6923   -0.2973    1.5650 C   0  0  0  0  0  0  0  0  0  0  0  0
    5.1595    0.2525    0.5075 O   0  0  0  0  0  0  0  0  0  0  0  0
    3.5439   -1.0911    1.5630 N   0  0  0  0  0  0  0  0  0  0  0  0
    2.8098   -1.3278    0.2972 C   0  0  1  0  0  0  0  0  0  0  0  0
    2.8028   -2.8003    0.1153 C   0  0  0  0  0  0  0  0  0  0  0  0
    2.1661   -3.4003   -1.0286 C   0  0  0  0  0  0  0  0  0  0  0  0
    0.8506   -3.8616   -0.8944 C   0  0  0  0  0  0  0  0  0  0  0  0
    0.2144   -4.4654   -1.9471 C   0  0  0  0  0  0  0  0  0  0  0  0
    0.8864   -4.6090   -3.1324 C   0  0  0  0  0  0  0  0  0  0  0  0
    2.1901   -4.1549   -3.2783 C   0  0  0  0  0  0  0  0  0  0  0  0
    2.8433   -3.5491   -2.2375 C   0  0  0  0  0  0  0  0  0  0  0  0
    1.4464   -0.7955    0.4422 C   0  0  0  0  0  0  0  0  0  0  0  0
    1.0655   -0.4912    1.6124 O   0  0  0  0  0  0  0  0  0  0  0  0
    0.5896   -0.6159   -0.6719 N   0  0  0  0  0  0  0  0  0  0  0  0
   -0.7619   -0.0548   -0.4239 C   0  0  1  0  0  0  0  0  0  0  0  0
   -0.5325    1.4473   -0.6481 C   0  0  0  0  0  0  0  0  0  0  0  0
   -1.7379    2.2881   -0.4734 C   0  0  0  0  0  0  0  0  0  0  0  0
   -1.3006    3.7394   -0.7008 C   0  0  0  0  0  0  0  0  0  0  0  0
   -2.4343    4.5938   -0.5427 N   0  0  0  0  0  0  0  0  0  0  0  0
   -2.2745    6.0018   -0.7091 C   0  0  0  0  0  0  0  0  0  0  0  0
   -0.9934    6.5738   -0.6837 N   0  0  0  0  0  0  0  0  0  0  0  0
   -3.3281    6.7380   -0.8830 N   0  0  0  0  0  0  0  0  0  0  0  0
   -1.7709   -0.6126   -1.3025 C   0  0  0  0  0  0  0  0  0  0  0  0
   -1.4159   -1.3224   -2.2769 O   0  0  0  0  0  0  0  0  0  0  0  0
   -3.1717   -0.4205   -1.1462 N   0  0  0  0  0  0  0  0  0  0  0  0
   -4.1545   -0.9792   -2.0271 C   0  0  1  0  0  0  0  0  0  0  0  0
   -4.9963   -2.0427   -1.3481 C   0  0  0  0  0  0  0  0  0  0  0  0
   -5.7360   -1.5557   -0.1845 C   0  0  0  0  0  0  0  0  0  0  0  0
   -5.1606   -1.6076    1.0629 C   0  0  0  0  0  0  0  0  0  0  0  0
   -5.8002   -1.1686    2.1917 C   0  0  0  0  0  0  0  0  0  0  0  0
   -7.0753   -0.6553    2.0545 C   0  0  0  0  0  0  0  0  0  0  0  0
   -7.6506   -0.6030    0.8097 C   0  0  0  0  0  0  0  0  0  0  0  0
   -7.0027   -1.0427   -0.3009 C   0  0  0  0  0  0  0  0  0  0  0  0
   -5.0640    0.0101   -2.6324 C   0  0  0  0  0  0  0  0  0  0  0  0
   -4.9974    1.1946   -2.4115 O   0  0  0  0  0  0  0  0  0  0  0  0
    6.3700    2.2900    1.1825 H   0  0  0  0  0  0  0  0  0  0  0  0
    7.2177    2.7798    2.6708 H   0  0  0  0  0  0  0  0  0  0  0  0
    5.4363    2.5738    2.7155 H   0  0  0  0  0  0  0  0  0  0  0  0
    6.8096   -0.0500    4.7563 H   0  0  0  0  0  0  0  0  0  0  0  0
    8.1617    1.0249    4.1364 H   0  0  0  0  0  0  0  0  0  0  0  0
    6.6427    1.7815    4.6470 H   0  0  0  0  0  0  0  0  0  0  0  0
    7.5877   -1.0152    2.0827 H   0  0  0  0  0  0  0  0  0  0  0  0
    7.6157    0.2717    0.8644 H   0  0  0  0  0  0  0  0  0  0  0  0
    8.6891    0.3847    2.2980 H   0  0  0  0  0  0  0  0  0  0  0  0
    3.1746   -1.5267    2.4073 H   0  0  0  0  0  0  0  0  0  0  0  0
    3.3960   -0.7880   -0.4748 H   0  0  0  0  0  0  0  0  0  0  0  0
    2.4054   -3.3340    1.0355 H   0  0  0  0  0  0  0  0  0  0  0  0
    3.8874   -3.1480    0.1076 H   0  0  0  0  0  0  0  0  0  0  0  0
    0.3055   -3.7552    0.0348 H   0  0  0  0  0  0  0  0  0  0  0  0
   -0.8156   -4.8293   -1.8471 H   0  0  0  0  0  0  0  0  0  0  0  0
    0.3858   -5.0868   -3.9689 H   0  0  0  0  0  0  0  0  0  0  0  0
    2.7364   -4.2589   -4.2059 H   0  0  0  0  0  0  0  0  0  0  0  0
    3.8548   -3.1731   -2.2807 H   0  0  0  0  0  0  0  0  0  0  0  0
    0.8115   -0.8337   -1.6543 H   0  0  0  0  0  0  0  0  0  0  0  0
   -0.9912   -0.1301    0.6508 H   0  0  0  0  0  0  0  0  0  0  0  0
    0.2405    1.7600    0.0885 H   0  0  0  0  0  0  0  0  0  0  0  0
   -0.0900    1.5930   -1.6534 H   0  0  0  0  0  0  0  0  0  0  0  0
   -2.4532    2.0191   -1.2998 H   0  0  0  0  0  0  0  0  0  0  0  0
   -2.1910    2.1764    0.5059 H   0  0  0  0  0  0  0  0  0  0  0  0
   -0.5532    3.9608    0.0908 H   0  0  0  0  0  0  0  0  0  0  0  0
   -0.8113    3.8401   -1.6872 H   0  0  0  0  0  0  0  0  0  0  0  0
   -3.3864    4.1852   -0.3038 H   0  0  0  0  0  0  0  0  0  0  0  0
   -0.8449    7.5746   -0.4500 H   0  0  0  0  0  0  0  0  0  0  0  0
   -0.1554    5.9979   -0.9021 H   0  0  0  0  0  0  0  0  0  0  0  0
   -4.2790    6.3351   -0.9047 H   0  0  0  0  0  0  0  0  0  0  0  0
   -3.5068    0.1509   -0.3424 H   0  0  0  0  0  0  0  0  0  0  0  0
   -3.5883   -1.5247   -2.8304 H   0  0  0  0  0  0  0  0  0  0  0  0
   -5.7117   -2.4720   -2.0790 H   0  0  0  0  0  0  0  0  0  0  0  0
   -4.3178   -2.8980   -1.0592 H   0  0  0  0  0  0  0  0  0  0  0  0
   -4.1506   -2.0102    1.1980 H   0  0  0  0  0  0  0  0  0  0  0  0
   -5.3191   -1.2252    3.1468 H   0  0  0  0  0  0  0  0  0  0  0  0
   -7.5791   -0.3081    2.9556 H   0  0  0  0  0  0  0  0  0  0  0  0
   -8.6602   -0.1898    0.7441 H   0  0  0  0  0  0  0  0  0  0  0  0
   -7.5261   -0.9676   -1.2533 H   0  0  0  0  0  0  0  0  0  0  0  0
   -5.8304   -0.3432   -3.3094 H   0  0  0  0  0  0  0  0  0  0  0  0
  1  2  1  0
  2  3  1  0
  2  4  1  0
  2  5  1  0
  5  6  1  0
  6  7  2  0
  6  8  1  0
  8  9  1  0
  9 10  1  0
 10 11  1  0
 11 12  2  0
 12 13  1  0
 13 14  2  0
 14 15  1  0
 15 16  2  0
  9 17  1  0
 17 18  2  0
 17 19  1  0
 19 20  1  0
 20 21  1  0
 21 22  1  0
 22 23  1  0
 23 24  1  0
 24 25  1  0
 25 26  1  0
 25 27  2  3
 20 28  1  0
 28 29  2  0
 28 30  1  0
 30 31  1  0
 31 32  1  0
 32 33  1  0
 33 34  2  0
 34 35  1  0
 35 36  2  0
 36 37  1  0
 37 38  2  0
 31 39  1  0
 39 40  2  0
 16 11  1  0
 38 33  1  0
  1 41  1  0
  1 42  1  0
  1 43  1  0
  3 44  1  0
  3 45  1  0
  3 46  1  0
  4 47  1  0
  4 48  1  0
  4 49  1  0
  8 50  1  0
  9 51  1  6
 10 52  1  0
 10 53  1  0
 12 54  1  0
 13 55  1  0
 14 56  1  0
 15 57  1  0
 16 58  1  0
 19 59  1  0
 20 60  1  1
 21 61  1  0
 21 62  1  0
 22 63  1  0
 22 64  1  0
 23 65  1  0
 23 66  1  0
 24 67  1  0
 26 68  1  0
 26 69  1  0
 27 70  1  0
 30 71  1  0
 31 72  1  6
 32 73  1  0
 32 74  1  0
 34 75  1  0
 35 76  1  0
 36 77  1  0
 37 78  1  0
 38 79  1  0
 39 80  1  0
M  END
$$$$
[H]OC([H])([H])C([H])(N=C([H])OC([H])([H])C([H])([H])n1nc2nc([H])nc(N([H])[H])c2c1[H])C([H])([H])[H]
     RDKit          3D

 35 36  0  0  0  0  0  0  0  0999 V2000
   -4.8668    1.6355   -2.1012 O   0  0  0  0  0  0  0  0  0  0  0  0
   -3.7792    1.3538   -1.2971 C   0  0  0  0  0  0  0  0  0  0  0  0
   -3.8987    0.0048   -0.6079 C   0  0  0  0  0  0  0  0  0  0  0  0
   -5.1437    0.0086    0.2879 C   0  0  0  0  0  0  0  0  0  0  0  0
   -2.7028   -0.1600    0.1946 N   0  0  0  0  0  0  0  0  0  0  0  0
   -1.8517   -1.0689   -0.1243 C   0  0  0  0  0  0  0  0  0  0  0  0
   -0.7097   -1.1937    0.6785 O   0  0  0  0  0  0  0  0  0  0  0  0
   -0.4080   -0.1344    1.5906 C   0  0  0  0  0  0  0  0  0  0  0  0
    0.8597   -0.5364    2.3131 C   0  0  0  0  0  0  0  0  0  0  0  0
    1.9190   -0.7065    1.3272 N   0  0  0  0  0  0  0  0  0  0  0  0
    2.7445    0.2779    0.9278 C   0  0  0  0  0  0  0  0  0  0  0  0
    3.6456   -0.1886   -0.0172 C   0  0  0  0  0  0  0  0  0  0  0  0
    3.3050   -1.5388   -0.1642 C   0  0  0  0  0  0  0  0  0  0  0  0
    4.0371   -2.2461   -1.0403 N   0  0  0  0  0  0  0  0  0  0  0  0
    5.0511   -1.7034   -1.7510 C   0  0  0  0  0  0  0  0  0  0  0  0
    5.3628   -0.3856   -1.5895 N   0  0  0  0  0  0  0  0  0  0  0  0
    4.6734    0.3755   -0.7330 C   0  0  0  0  0  0  0  0  0  0  0  0
    5.0050    1.7351   -0.5751 N   0  0  0  0  0  0  0  0  0  0  0  0
    2.2728   -1.7798    0.6622 N   0  0  0  0  0  0  0  0  0  0  0  0
   -5.5196    2.1562   -1.5479 H   0  0  0  0  0  0  0  0  0  0  0  0
   -2.8765    1.3277   -1.9348 H   0  0  0  0  0  0  0  0  0  0  0  0
   -3.6451    2.1066   -0.4770 H   0  0  0  0  0  0  0  0  0  0  0  0
   -3.9960   -0.8257   -1.3189 H   0  0  0  0  0  0  0  0  0  0  0  0
   -5.5090   -1.0149    0.4809 H   0  0  0  0  0  0  0  0  0  0  0  0
   -5.9356    0.5756   -0.2215 H   0  0  0  0  0  0  0  0  0  0  0  0
   -4.8950    0.5617    1.2312 H   0  0  0  0  0  0  0  0  0  0  0  0
   -1.9982   -1.7271   -0.9851 H   0  0  0  0  0  0  0  0  0  0  0  0
   -0.3299    0.8381    1.1035 H   0  0  0  0  0  0  0  0  0  0  0  0
   -1.2712   -0.0884    2.2846 H   0  0  0  0  0  0  0  0  0  0  0  0
    0.6894   -1.4428    2.9133 H   0  0  0  0  0  0  0  0  0  0  0  0
    1.1475    0.2663    2.9915 H   0  0  0  0  0  0  0  0  0  0  0  0
    2.7268    1.3061    1.2829 H   0  0  0  0  0  0  0  0  0  0  0  0
    5.6350   -2.2871   -2.4564 H   0  0  0  0  0  0  0  0  0  0  0  0
    5.6024    2.0476    0.2139 H   0  0  0  0  0  0  0  0  0  0  0  0
    4.6599    2.4511   -1.2423 H   0  0  0  0  0  0  0  0  0  0  0  0
  1  2  1  0
  2  3  1  0
  3  4  1  0
  3  5  1  0
  5  6  2  3
  6  7  1  0
  7  8  1  0
  8  9  1  0
  9 10  1  0
 10 11  1  0
 11 12  2  0
 12 13  1  0
 13 14  1  0
 14 15  2  0
 15 16  1  0
 16 17  2  0
 17 18  1  0
 13 19  2  0
 19 10  1  0
 17 12  1  0
  1 20  1  0
  2 21  1  0
  2 22  1  0
  3 23  1  0
  4 24  1  0
  4 25  1  0
  4 26  1  0
  6 27  1  0
  8 28  1  0
  8 29  1  0
  9 30  1  0
  9 31  1  0
 11 32  1  0
 15 33  1  0
 18 34  1  0
 18 35  1  0
M  END
$$$$
[H]c1c(C(=O)N([H])C2([H])C([H])([H])C2([H])[H])sc(-c2nc3c([H])c([H])c(Cl)c([H])c3n2C([H])([H])C(=O)N([H])[C@@]([H])(C([H])([H])C([H])([H])SC([H])([H])[H])C(C([H])([H])[H])(C([H])([H])[H])C([H])([H])[H])c1[H]
     RDKit          3D

 65 68  0  0  0  0  0  0  0  0999 V2000
   -6.2488    1.5870   -3.7394 C   0  0  0  0  0  0  0  0  0  0  0  0
   -5.4117    2.8763   -2.7801 S   0  0  0  0  0  0  0  0  0  0  0  0
   -4.8151    2.1915   -1.1665 C   0  0  0  0  0  0  0  0  0  0  0  0
   -3.7640    1.1829   -1.4892 C   0  0  0  0  0  0  0  0  0  0  0  0
   -3.0954    0.5016   -0.3410 C   0  0  2  0  0  0  0  0  0  0  0  0
   -2.1189   -0.4236   -0.9045 N   0  0  0  0  0  0  0  0  0  0  0  0
   -0.7171   -0.2010   -0.8634 C   0  0  0  0  0  0  0  0  0  0  0  0
   -0.3511    0.8551   -0.3080 O   0  0  0  0  0  0  0  0  0  0  0  0
    0.2708   -1.1309   -1.4300 C   0  0  0  0  0  0  0  0  0  0  0  0
    0.8748   -2.0317   -0.4605 N   0  0  0  0  0  0  0  0  0  0  0  0
    1.9901   -1.8520    0.2106 C   0  0  0  0  0  0  0  0  0  0  0  0
    2.1570   -2.9538    1.0266 N   0  0  0  0  0  0  0  0  0  0  0  0
    1.1555   -3.7744    0.8406 C   0  0  0  0  0  0  0  0  0  0  0  0
    0.8806   -5.0103    1.4279 C   0  0  0  0  0  0  0  0  0  0  0  0
   -0.2597   -5.6586    1.0327 C   0  0  0  0  0  0  0  0  0  0  0  0
   -1.0990   -5.0988    0.0863 C   0  0  0  0  0  0  0  0  0  0  0  0
   -2.5672   -5.9554   -0.4076 Cl  0  0  0  0  0  0  0  0  0  0  0  0
   -0.8093   -3.8758   -0.4824 C   0  0  0  0  0  0  0  0  0  0  0  0
    0.3320   -3.2318   -0.0835 C   0  0  0  0  0  0  0  0  0  0  0  0
    3.0019   -0.7627    0.2083 C   0  0  0  0  0  0  0  0  0  0  0  0
    3.1368    0.4021   -0.4536 C   0  0  0  0  0  0  0  0  0  0  0  0
    4.2090    1.1739   -0.2105 C   0  0  0  0  0  0  0  0  0  0  0  0
    5.1140    0.7303    0.7051 C   0  0  0  0  0  0  0  0  0  0  0  0
    4.4395   -0.7461    1.1946 S   0  0  0  0  0  0  0  0  0  0  0  0
    6.3549    1.3730    1.1546 C   0  0  0  0  0  0  0  0  0  0  0  0
    7.0800    0.8068    2.0339 O   0  0  0  0  0  0  0  0  0  0  0  0
    6.7911    2.6084    0.6521 N   0  0  0  0  0  0  0  0  0  0  0  0
    8.0092    3.2181    1.1105 C   0  0  0  0  0  0  0  0  0  0  0  0
    7.8944    4.7455    1.1842 C   0  0  0  0  0  0  0  0  0  0  0  0
    8.7416    4.0672    0.1283 C   0  0  0  0  0  0  0  0  0  0  0  0
   -3.9508   -0.1213    0.6872 C   0  0  0  0  0  0  0  0  0  0  0  0
   -4.8998   -1.1803    0.1565 C   0  0  0  0  0  0  0  0  0  0  0  0
   -2.9899   -0.8771    1.6641 C   0  0  0  0  0  0  0  0  0  0  0  0
   -4.7119    0.8170    1.5624 C   0  0  0  0  0  0  0  0  0  0  0  0
   -7.3543    1.7841   -3.7800 H   0  0  0  0  0  0  0  0  0  0  0  0
   -5.8785    1.5843   -4.8057 H   0  0  0  0  0  0  0  0  0  0  0  0
   -6.0070    0.5984   -3.3058 H   0  0  0  0  0  0  0  0  0  0  0  0
   -4.3861    3.0431   -0.6041 H   0  0  0  0  0  0  0  0  0  0  0  0
   -5.6784    1.7400   -0.6662 H   0  0  0  0  0  0  0  0  0  0  0  0
   -3.0006    1.7221   -2.1377 H   0  0  0  0  0  0  0  0  0  0  0  0
   -4.2268    0.4515   -2.2047 H   0  0  0  0  0  0  0  0  0  0  0  0
   -2.5000    1.3136    0.1910 H   0  0  0  0  0  0  0  0  0  0  0  0
   -2.4762   -1.2775   -1.3545 H   0  0  0  0  0  0  0  0  0  0  0  0
   -0.3711   -1.8222   -2.1036 H   0  0  0  0  0  0  0  0  0  0  0  0
    0.9922   -0.7244   -2.1237 H   0  0  0  0  0  0  0  0  0  0  0  0
    1.5725   -5.3845    2.1524 H   0  0  0  0  0  0  0  0  0  0  0  0
   -0.4644   -6.6173    1.4946 H   0  0  0  0  0  0  0  0  0  0  0  0
   -1.4333   -3.4069   -1.2230 H   0  0  0  0  0  0  0  0  0  0  0  0
    2.3639    0.7288   -1.1941 H   0  0  0  0  0  0  0  0  0  0  0  0
    4.3899    2.1476   -0.7155 H   0  0  0  0  0  0  0  0  0  0  0  0
    6.1732    3.0658   -0.0804 H   0  0  0  0  0  0  0  0  0  0  0  0
    8.5816    2.6821    1.8875 H   0  0  0  0  0  0  0  0  0  0  0  0
    6.9486    5.2300    0.8780 H   0  0  0  0  0  0  0  0  0  0  0  0
    8.3492    5.1934    2.0671 H   0  0  0  0  0  0  0  0  0  0  0  0
    8.3587    4.0717   -0.9277 H   0  0  0  0  0  0  0  0  0  0  0  0
    9.8488    4.1720    0.2129 H   0  0  0  0  0  0  0  0  0  0  0  0
   -5.2954   -0.9254   -0.8519 H   0  0  0  0  0  0  0  0  0  0  0  0
   -4.2754   -2.1059   -0.0057 H   0  0  0  0  0  0  0  0  0  0  0  0
   -5.6594   -1.4321    0.8954 H   0  0  0  0  0  0  0  0  0  0  0  0
   -2.2414   -1.4442    1.0817 H   0  0  0  0  0  0  0  0  0  0  0  0
   -3.5991   -1.6306    2.2266 H   0  0  0  0  0  0  0  0  0  0  0  0
   -2.5504   -0.1478    2.3714 H   0  0  0  0  0  0  0  0  0  0  0  0
   -5.8349    0.7169    1.4375 H   0  0  0  0  0  0  0  0  0  0  0  0
   -4.5768    0.5340    2.6529 H   0  0  0  0  0  0  0  0  0  0  0  0
   -4.3927    1.8883    1.4643 H   0  0  0  0  0  0  0  0  0  0  0  0
  1  2  1  0
  2  3  1  0
  3  4  1  0
  4  5  1  0
  5  6  1  0
  6  7  1  0
  7  8  2  0
  7  9  1  0
  9 10  1  0
 10 11  1  0
 11 12  2  0
 12 13  1  0
 13 14  2  0
 14 15  1  0
 15 16  2  0
 16 17  1  0
 16 18  1  0
 18 19  2  0
 11 20  1  0
 20 21  2  0
 21 22  1  0
 22 23  2  0
 23 24  1  0
 23 25  1  0
 25 26  2  0
 25 27  1  0
 27 28  1  0
 28 29  1  0
 29 30  1  0
  5 31  1  0
 31 32  1  0
 31 33  1  0
 31 34  1  0
 19 10  1  0
 24 20  1  0
 30 28  1  0
 19 13  1  0
  1 35  1  0
  1 36  1  0
  1 37  1  0
  3 38  1  0
  3 39  1  0
  4 40  1  0
  4 41  1  0
  5 42  1  1
  6 43  1  0
  9 44  1  0
  9 45  1  0
 14 46  1  0
 15 47  1  0
 18 48  1  0
 21 49  1  0
 22 50  1  0
 27 51  1  0
 28 52  1  0
 29 53  1  0
 29 54  1  0
 30 55  1  0
 30 56  1  0
 32 57  1  0
 32 58  1  0
 32 59  1  0
 33 60  1  0
 33 61  1  0
 33 62  1  0
 34 63  1  0
 34 64  1  0
 34 65  1  0
M  END
$$$$
[H]C(=O)N([H])[C@]([H])(C(=O)N([H])[C@]([H])(C(=O)N([H])[C@]([H])(C(=O)N([H])[C@]([H])(C(=O)N1C([H])([H])C([H])([H])C([H])([H])[C@@]1([H])C(=O)N([H])[C@]([H])(C(=O)N([H])[H])C([H])([H])c1c([H])c([H])c([H])c([H])c1[H])C([H])([H])C([H])(C([H])([H])[H])C([H])([H])[H])C([H])([H])C([H])([H])C(=O)N([H])[H])C([H])([H])C([H])([H])C(=O)N([H])[H])C([H])([H])C([H])([H])C(=O)N([H])[H]
     RDKit          3D

110111  0  0  0  0  0  0  0  0999 V2000
    1.5326   -2.7613   -4.1802 C   0  0  0  0  0  0  0  0  0  0  0  0
    1.9177   -1.3989   -3.7073 C   0  0  0  0  0  0  0  0  0  0  0  0
    1.5265   -0.3964   -4.8013 C   0  0  0  0  0  0  0  0  0  0  0  0
    1.2703   -0.9706   -2.4537 C   0  0  0  0  0  0  0  0  0  0  0  0
    1.5644   -1.8199   -1.2172 C   0  0  2  0  0  0  0  0  0  0  0  0
    0.7377   -1.1415   -0.1847 N   0  0  0  0  0  0  0  0  0  0  0  0
   -0.5113   -1.6358    0.1739 C   0  0  0  0  0  0  0  0  0  0  0  0
   -0.9235   -2.6950   -0.4157 O   0  0  0  0  0  0  0  0  0  0  0  0
   -1.4619   -1.0872    1.1686 C   0  0  2  0  0  0  0  0  0  0  0  0
   -1.4059   -1.7866    2.5040 C   0  0  0  0  0  0  0  0  0  0  0  0
   -1.7290   -3.2408    2.4352 C   0  0  0  0  0  0  0  0  0  0  0  0
   -1.6842   -3.9392    3.7208 C   0  0  0  0  0  0  0  0  0  0  0  0
   -1.9743   -5.3261    3.7602 N   0  0  0  0  0  0  0  0  0  0  0  0
   -1.3950   -3.3230    4.7670 O   0  0  0  0  0  0  0  0  0  0  0  0
   -2.8209   -1.1972    0.6482 N   0  0  0  0  0  0  0  0  0  0  0  0
   -3.6279   -0.0621    0.3899 C   0  0  0  0  0  0  0  0  0  0  0  0
   -3.1128    1.0650    0.6629 O   0  0  0  0  0  0  0  0  0  0  0  0
   -4.9722   -0.0951   -0.1609 C   0  0  2  0  0  0  0  0  0  0  0  0
   -4.9609   -0.6545   -1.5989 C   0  0  0  0  0  0  0  0  0  0  0  0
   -4.1089    0.1877   -2.4933 C   0  0  0  0  0  0  0  0  0  0  0  0
   -4.1352   -0.3966   -3.8605 C   0  0  0  0  0  0  0  0  0  0  0  0
   -3.4237    0.1796   -4.9472 N   0  0  0  0  0  0  0  0  0  0  0  0
   -4.7996   -1.4376   -4.1045 O   0  0  0  0  0  0  0  0  0  0  0  0
   -5.4980    1.2600   -0.2587 N   0  0  0  0  0  0  0  0  0  0  0  0
   -6.8554    1.6053   -0.2059 C   0  0  0  0  0  0  0  0  0  0  0  0
   -7.7098    0.6730   -0.0711 O   0  0  0  0  0  0  0  0  0  0  0  0
   -7.3026    3.0240   -0.3061 C   0  0  2  0  0  0  0  0  0  0  0  0
   -6.8128    3.7948    0.9132 C   0  0  0  0  0  0  0  0  0  0  0  0
   -7.3787    3.1920    2.1834 C   0  0  0  0  0  0  0  0  0  0  0  0
   -6.9237    3.9140    3.3882 C   0  0  0  0  0  0  0  0  0  0  0  0
   -7.3988    3.5813    4.6698 N   0  0  0  0  0  0  0  0  0  0  0  0
   -6.0795    4.8556    3.2209 O   0  0  0  0  0  0  0  0  0  0  0  0
   -8.7620    3.0947   -0.3778 N   0  0  0  0  0  0  0  0  0  0  0  0
   -9.4128    3.7510   -1.4545 C   0  0  0  0  0  0  0  0  0  0  0  0
   -8.7559    4.3033   -2.3944 O   0  0  0  0  0  0  0  0  0  0  0  0
    3.0035   -1.6382   -0.8633 C   0  0  0  0  0  0  0  0  0  0  0  0
    3.2539   -0.4375   -0.4829 O   0  0  0  0  0  0  0  0  0  0  0  0
    3.9933   -2.6024   -0.9161 N   0  0  0  0  0  0  0  0  0  0  0  0
    3.7778   -4.0291   -1.3164 C   0  0  0  0  0  0  0  0  0  0  0  0
    4.8894   -4.2019   -2.3204 C   0  0  0  0  0  0  0  0  0  0  0  0
    5.8621   -3.0273   -2.1046 C   0  0  0  0  0  0  0  0  0  0  0  0
    5.4053   -2.6218   -0.6906 C   0  0  1  0  0  0  0  0  0  0  0  0
    6.1066   -1.5056   -0.1578 C   0  0  0  0  0  0  0  0  0  0  0  0
    7.1692   -1.0972   -0.7804 O   0  0  0  0  0  0  0  0  0  0  0  0
    5.7629   -0.7892    1.0019 N   0  0  0  0  0  0  0  0  0  0  0  0
    6.5746    0.3625    1.4529 C   0  0  1  0  0  0  0  0  0  0  0  0
    5.6193    1.5191    1.4678 C   0  0  0  0  0  0  0  0  0  0  0  0
    6.1957    2.8114    1.8650 C   0  0  0  0  0  0  0  0  0  0  0  0
    6.8036    3.5539    0.8499 C   0  0  0  0  0  0  0  0  0  0  0  0
    7.3508    4.7865    1.1061 C   0  0  0  0  0  0  0  0  0  0  0  0
    7.2921    5.2855    2.3902 C   0  0  0  0  0  0  0  0  0  0  0  0
    6.7013    4.5855    3.4230 C   0  0  0  0  0  0  0  0  0  0  0  0
    6.1677    3.3627    3.1248 C   0  0  0  0  0  0  0  0  0  0  0  0
    7.0381    0.0197    2.8131 C   0  0  0  0  0  0  0  0  0  0  0  0
    7.9412    0.7963    3.5824 N   0  0  0  0  0  0  0  0  0  0  0  0
    6.6377   -1.0483    3.4038 O   0  0  0  0  0  0  0  0  0  0  0  0
    2.2813   -3.5457   -4.0314 H   0  0  0  0  0  0  0  0  0  0  0  0
    0.5265   -3.0681   -3.7711 H   0  0  0  0  0  0  0  0  0  0  0  0
    1.3581   -2.7168   -5.2815 H   0  0  0  0  0  0  0  0  0  0  0  0
    3.0323   -1.3627   -3.6743 H   0  0  0  0  0  0  0  0  0  0  0  0
    1.8430   -0.7389   -5.7904 H   0  0  0  0  0  0  0  0  0  0  0  0
    0.4009   -0.3473   -4.7555 H   0  0  0  0  0  0  0  0  0  0  0  0
    1.9417    0.5718   -4.5183 H   0  0  0  0  0  0  0  0  0  0  0  0
    0.1654   -0.8797   -2.6108 H   0  0  0  0  0  0  0  0  0  0  0  0
    1.6010    0.0810   -2.2246 H   0  0  0  0  0  0  0  0  0  0  0  0
    1.2829   -2.8329   -1.3157 H   0  0  0  0  0  0  0  0  0  0  0  0
    1.1475   -0.2966    0.2368 H   0  0  0  0  0  0  0  0  0  0  0  0
   -1.2394   -0.0168    1.2963 H   0  0  0  0  0  0  0  0  0  0  0  0
   -2.0948   -1.2910    3.2169 H   0  0  0  0  0  0  0  0  0  0  0  0
   -0.3930   -1.6725    2.9597 H   0  0  0  0  0  0  0  0  0  0  0  0
   -1.0890   -3.8148    1.7329 H   0  0  0  0  0  0  0  0  0  0  0  0
   -2.7893   -3.3260    2.0459 H   0  0  0  0  0  0  0  0  0  0  0  0
   -2.3086   -5.8140    4.6172 H   0  0  0  0  0  0  0  0  0  0  0  0
   -1.8628   -5.9295    2.9123 H   0  0  0  0  0  0  0  0  0  0  0  0
   -3.2162   -2.1358    0.4568 H   0  0  0  0  0  0  0  0  0  0  0  0
   -5.6585   -0.7397    0.3705 H   0  0  0  0  0  0  0  0  0  0  0  0
   -6.0073   -0.5906   -1.9447 H   0  0  0  0  0  0  0  0  0  0  0  0
   -4.6618   -1.7146   -1.6194 H   0  0  0  0  0  0  0  0  0  0  0  0
   -4.5121    1.2302   -2.6008 H   0  0  0  0  0  0  0  0  0  0  0  0
   -3.0551    0.2552   -2.1580 H   0  0  0  0  0  0  0  0  0  0  0  0
   -2.5249   -0.2371   -5.2133 H   0  0  0  0  0  0  0  0  0  0  0  0
   -3.8496    1.0004   -5.4203 H   0  0  0  0  0  0  0  0  0  0  0  0
   -4.7993    2.0598   -0.3804 H   0  0  0  0  0  0  0  0  0  0  0  0
   -6.8996    3.5171   -1.1972 H   0  0  0  0  0  0  0  0  0  0  0  0
   -5.7231    3.7997    0.8958 H   0  0  0  0  0  0  0  0  0  0  0  0
   -7.1849    4.8236    0.8171 H   0  0  0  0  0  0  0  0  0  0  0  0
   -8.4653    3.0833    2.1492 H   0  0  0  0  0  0  0  0  0  0  0  0
   -6.9638    2.1540    2.2434 H   0  0  0  0  0  0  0  0  0  0  0  0
   -7.7718    4.3094    5.3375 H   0  0  0  0  0  0  0  0  0  0  0  0
   -7.3848    2.5737    4.9799 H   0  0  0  0  0  0  0  0  0  0  0  0
   -9.3422    2.6598    0.3610 H   0  0  0  0  0  0  0  0  0  0  0  0
  -10.4936    3.7854   -1.4800 H   0  0  0  0  0  0  0  0  0  0  0  0
    4.0624   -4.6113   -0.4206 H   0  0  0  0  0  0  0  0  0  0  0  0
    2.7749   -4.1985   -1.6897 H   0  0  0  0  0  0  0  0  0  0  0  0
    4.4671   -4.1113   -3.3361 H   0  0  0  0  0  0  0  0  0  0  0  0
    5.4245   -5.1689   -2.2215 H   0  0  0  0  0  0  0  0  0  0  0  0
    6.8882   -3.3813   -2.1387 H   0  0  0  0  0  0  0  0  0  0  0  0
    5.6611   -2.2293   -2.8355 H   0  0  0  0  0  0  0  0  0  0  0  0
    5.6662   -3.5936   -0.1038 H   0  0  0  0  0  0  0  0  0  0  0  0
    4.9658   -0.9987    1.6292 H   0  0  0  0  0  0  0  0  0  0  0  0
    7.4152    0.5276    0.7671 H   0  0  0  0  0  0  0  0  0  0  0  0
    5.0632    1.6087    0.4932 H   0  0  0  0  0  0  0  0  0  0  0  0
    4.7863    1.3225    2.2119 H   0  0  0  0  0  0  0  0  0  0  0  0
    6.8475    3.1583   -0.1635 H   0  0  0  0  0  0  0  0  0  0  0  0
    7.8294    5.3699    0.3066 H   0  0  0  0  0  0  0  0  0  0  0  0
    7.7395    6.2700    2.5589 H   0  0  0  0  0  0  0  0  0  0  0  0
    6.6824    5.0258    4.4126 H   0  0  0  0  0  0  0  0  0  0  0  0
    5.6941    2.7968    3.9242 H   0  0  0  0  0  0  0  0  0  0  0  0
    7.8041    0.9935    4.5907 H   0  0  0  0  0  0  0  0  0  0  0  0
    8.7804    1.1863    3.1130 H   0  0  0  0  0  0  0  0  0  0  0  0
  1  2  1  0
  2  3  1  0
  2  4  1  0
  4  5  1  0
  5  6  1  0
  6  7  1  0
  7  8  2  0
  7  9  1  0
  9 10  1  0
 10 11  1  0
 11 12  1  0
 12 13  1  0
 12 14  2  0
  9 15  1  0
 15 16  1  0
 16 17  2  0
 16 18  1  0
 18 19  1  0
 19 20  1  0
 20 21  1  0
 21 22  1  0
 21 23  2  0
 18 24  1  0
 24 25  1  0
 25 26  2  0
 25 27  1  0
 27 28  1  0
 28 29  1  0
 29 30  1  0
 30 31  1  0
 30 32  2  0
 27 33  1  0
 33 34  1  0
 34 35  2  0
  5 36  1  0
 36 37  2  0
 36 38  1  0
 38 39  1  0
 39 40  1  0
 40 41  1  0
 41 42  1  0
 42 43  1  0
 43 44  2  0
 43 45  1  0
 45 46  1  0
 46 47  1  0
 47 48  1  0
 48 49  2  0
 49 50  1  0
 50 51  2  0
 51 52  1  0
 52 53  2  0
 46 54  1  0
 54 55  1  0
 54 56  2  0
 42 38  1  0
 53 48  1  0
  1 57  1  0
  1 58  1  0
  1 59  1  0
  2 60  1  0
  3 61  1  0
  3 62  1  0
  3 63  1  0
  4 64  1  0
  4 65  1  0
  5 66  1  6
  6 67  1  0
  9 68  1  1
 10 69  1  0
 10 70  1  0
 11 71  1  0
 11 72  1  0
 13 73  1  0
 13 74  1  0
 15 75  1  0
 18 76  1  1
 19 77  1  0
 19 78  1  0
 20 79  1  0
 20 80  1  0
 22 81  1  0
 22 82  1  0
 24 83  1  0
 27 84  1  6
 28 85  1  0
 28 86  1  0
 29 87  1  0
 29 88  1  0
 31 89  1  0
 31 90  1  0
 33 91  1  0
 34 92  1  0
 39 93  1  0
 39 94  1  0
 40 95  1  0
 40 96  1  0
 41 97  1  0
 41 98  1  0
 42 99  1  1
 45100  1  0
 46101  1  6
 47102  1  0
 47103  1  0
 49104  1  0
 50105  1  0
 51106  1  0
 52107  1  0
 53108  1  0
 55109  1  0
 55110  1  0
M  END
$$$$
[H]c1nc(N([H])c2c([H])c([H])c(N3C([H])([H])C([H])([H])C([H])(N4C([H])([H])C([H])([H])N(C([H])([H])[H])C([H])([H])C4([H])[H])C([H])([H])C3([H])[H])c([H])c2OC([H])([H])[H])nc(N([H])c2c([H])c([H])c([H])c([H])c2S(=O)(=O)C([H])(C([H])([H])[H])C([H])([H])[H])c1Cl
     RDKit          3D

 82 86  0  0  0  0  0  0  0  0999 V2000
   -0.1870    3.7228   -1.2569 C   0  0  0  0  0  0  0  0  0  0  0  0
    0.4390    2.5297   -0.8437 O   0  0  0  0  0  0  0  0  0  0  0  0
   -0.3483    1.4775   -0.4024 C   0  0  0  0  0  0  0  0  0  0  0  0
   -1.7220    1.6350   -0.3827 C   0  0  0  0  0  0  0  0  0  0  0  0
   -2.5624    0.6308    0.0436 C   0  0  0  0  0  0  0  0  0  0  0  0
   -1.9599   -0.5357    0.4478 C   0  0  0  0  0  0  0  0  0  0  0  0
   -0.5748   -0.7280    0.4408 C   0  0  0  0  0  0  0  0  0  0  0  0
    0.2576    0.2764    0.0150 C   0  0  0  0  0  0  0  0  0  0  0  0
    1.6540    0.2011   -0.0367 N   0  0  0  0  0  0  0  0  0  0  0  0
    2.4984   -0.8842    0.3177 C   0  0  0  0  0  0  0  0  0  0  0  0
    2.1033   -2.0726    0.7812 N   0  0  0  0  0  0  0  0  0  0  0  0
    2.9559   -3.0558    1.0957 C   0  0  0  0  0  0  0  0  0  0  0  0
    4.3092   -2.8632    0.9451 C   0  0  0  0  0  0  0  0  0  0  0  0
    5.4455   -4.1449    1.3534 Cl  0  0  0  0  0  0  0  0  0  0  0  0
    4.7527   -1.6166    0.4572 C   0  0  0  0  0  0  0  0  0  0  0  0
    6.1380   -1.4466    0.3110 N   0  0  0  0  0  0  0  0  0  0  0  0
    6.9009   -0.3576   -0.1368 C   0  0  0  0  0  0  0  0  0  0  0  0
    6.2766    0.8084   -0.5266 C   0  0  0  0  0  0  0  0  0  0  0  0
    7.0240    1.9039   -0.9778 C   0  0  0  0  0  0  0  0  0  0  0  0
    8.3820    1.8034   -1.0274 C   0  0  0  0  0  0  0  0  0  0  0  0
    9.0024    0.6381   -0.6374 C   0  0  0  0  0  0  0  0  0  0  0  0
    8.2961   -0.4485   -0.1920 C   0  0  0  0  0  0  0  0  0  0  0  0
    9.0842   -1.8926    0.2913 S   0  0  0  0  0  0  0  0  0  0  0  0
    8.6633   -3.0312   -0.6035 O   0  0  0  0  0  0  0  0  0  0  0  0
    8.8235   -2.3045    1.7132 O   0  0  0  0  0  0  0  0  0  0  0  0
   10.8572   -1.7881    0.1370 C   0  0  0  0  0  0  0  0  0  0  0  0
   11.2609   -1.6791   -1.2975 C   0  0  0  0  0  0  0  0  0  0  0  0
   11.4760   -0.7869    1.0544 C   0  0  0  0  0  0  0  0  0  0  0  0
    3.8248   -0.7008    0.1721 N   0  0  0  0  0  0  0  0  0  0  0  0
   -3.9818    0.8060    0.0512 N   0  0  0  0  0  0  0  0  0  0  0  0
   -4.5241    1.9609   -0.5784 C   0  0  0  0  0  0  0  0  0  0  0  0
   -6.0011    1.9283   -0.8544 C   0  0  0  0  0  0  0  0  0  0  0  0
   -6.8245    1.3726    0.2584 C   0  0  0  0  0  0  0  0  0  0  0  0
   -6.0036    0.6088    1.2781 C   0  0  0  0  0  0  0  0  0  0  0  0
   -4.8657   -0.1463    0.6796 C   0  0  0  0  0  0  0  0  0  0  0  0
   -7.9560    0.6086   -0.0875 N   0  0  0  0  0  0  0  0  0  0  0  0
   -7.7905   -0.5856   -0.8057 C   0  0  0  0  0  0  0  0  0  0  0  0
   -9.1362   -1.0235   -1.3907 C   0  0  0  0  0  0  0  0  0  0  0  0
  -10.1390   -0.8718   -0.3544 N   0  0  0  0  0  0  0  0  0  0  0  0
  -10.0361   -1.8235    0.7053 C   0  0  0  0  0  0  0  0  0  0  0  0
  -10.3349    0.4834    0.0484 C   0  0  0  0  0  0  0  0  0  0  0  0
   -9.1475    1.3193   -0.4248 C   0  0  0  0  0  0  0  0  0  0  0  0
    0.5375    4.4499   -1.6799 H   0  0  0  0  0  0  0  0  0  0  0  0
   -0.9481    3.5330   -2.0530 H   0  0  0  0  0  0  0  0  0  0  0  0
   -0.6880    4.2523   -0.4156 H   0  0  0  0  0  0  0  0  0  0  0  0
   -2.1476    2.5764   -0.7105 H   0  0  0  0  0  0  0  0  0  0  0  0
   -2.6020   -1.3517    0.7883 H   0  0  0  0  0  0  0  0  0  0  0  0
   -0.2121   -1.6859    0.7807 H   0  0  0  0  0  0  0  0  0  0  0  0
    2.1500    1.0935   -0.3956 H   0  0  0  0  0  0  0  0  0  0  0  0
    2.6174   -4.0222    1.4737 H   0  0  0  0  0  0  0  0  0  0  0  0
    6.7215   -2.3022    0.5911 H   0  0  0  0  0  0  0  0  0  0  0  0
    5.2202    0.9989   -0.5296 H   0  0  0  0  0  0  0  0  0  0  0  0
    6.5603    2.8305   -1.2896 H   0  0  0  0  0  0  0  0  0  0  0  0
    9.0220    2.6252   -1.3712 H   0  0  0  0  0  0  0  0  0  0  0  0
   10.0936    0.6299   -0.7052 H   0  0  0  0  0  0  0  0  0  0  0  0
   11.2252   -2.8031    0.4806 H   0  0  0  0  0  0  0  0  0  0  0  0
   11.9033   -0.7785   -1.4926 H   0  0  0  0  0  0  0  0  0  0  0  0
   10.3307   -1.5514   -1.9199 H   0  0  0  0  0  0  0  0  0  0  0  0
   11.7765   -2.5763   -1.6995 H   0  0  0  0  0  0  0  0  0  0  0  0
   12.0225   -1.2557    1.8769 H   0  0  0  0  0  0  0  0  0  0  0  0
   12.1781   -0.1622    0.4319 H   0  0  0  0  0  0  0  0  0  0  0  0
   10.7434   -0.0899    1.5079 H   0  0  0  0  0  0  0  0  0  0  0  0
   -4.2803    2.8410    0.0525 H   0  0  0  0  0  0  0  0  0  0  0  0
   -3.9354    2.1199   -1.5269 H   0  0  0  0  0  0  0  0  0  0  0  0
   -6.3084    2.9635   -1.1164 H   0  0  0  0  0  0  0  0  0  0  0  0
   -6.1470    1.3325   -1.7818 H   0  0  0  0  0  0  0  0  0  0  0  0
   -7.2139    2.2642    0.8421 H   0  0  0  0  0  0  0  0  0  0  0  0
   -6.6586   -0.1075    1.8153 H   0  0  0  0  0  0  0  0  0  0  0  0
   -5.5929    1.2907    2.0626 H   0  0  0  0  0  0  0  0  0  0  0  0
   -5.1731   -0.8869   -0.0780 H   0  0  0  0  0  0  0  0  0  0  0  0
   -4.3121   -0.6097    1.5260 H   0  0  0  0  0  0  0  0  0  0  0  0
   -7.5080   -1.4012   -0.0997 H   0  0  0  0  0  0  0  0  0  0  0  0
   -7.0082   -0.5774   -1.5870 H   0  0  0  0  0  0  0  0  0  0  0  0
   -9.4445   -0.3742   -2.2343 H   0  0  0  0  0  0  0  0  0  0  0  0
   -9.0261   -2.0597   -1.7202 H   0  0  0  0  0  0  0  0  0  0  0  0
   -9.1822   -2.5377    0.5321 H   0  0  0  0  0  0  0  0  0  0  0  0
   -9.9814   -1.3564    1.7041 H   0  0  0  0  0  0  0  0  0  0  0  0
  -10.9456   -2.4645    0.6802 H   0  0  0  0  0  0  0  0  0  0  0  0
  -11.2261    0.8855   -0.4545 H   0  0  0  0  0  0  0  0  0  0  0  0
  -10.4517    0.5517    1.1515 H   0  0  0  0  0  0  0  0  0  0  0  0
   -9.2778    1.5186   -1.4917 H   0  0  0  0  0  0  0  0  0  0  0  0
   -9.1611    2.2698    0.1783 H   0  0  0  0  0  0  0  0  0  0  0  0
  1  2  1  0
  2  3  1  0
  3  4  2  0
  4  5  1  0
  5  6  2  0
  6  7  1  0
  7  8  2  0
  8  9  1  0
  9 10  1  0
 10 11  2  0
 11 12  1  0
 12 13  2  0
 13 14  1  0
 13 15  1  0
 15 16  1  0
 16 17  1  0
 17 18  2  0
 18 19  1  0
 19 20  2  0
 20 21  1  0
 21 22  2  0
 22 23  1  0
 23 24  2  0
 23 25  2  0
 23 26  1  0
 26 27  1  0
 26 28  1  0
 15 29  2  0
  5 30  1  0
 30 31  1  0
 31 32  1  0
 32 33  1  0
 33 34  1  0
 34 35  1  0
 33 36  1  0
 36 37  1  0
 37 38  1  0
 38 39  1  0
 39 40  1  0
 39 41  1  0
 41 42  1  0
  8  3  1  0
 29 10  1  0
 35 30  1  0
 42 36  1  0
 22 17  1  0
  1 43  1  0
  1 44  1  0
  1 45  1  0
  4 46  1  0
  6 47  1  0
  7 48  1  0
  9 49  1  0
 12 50  1  0
 16 51  1  0
 18 52  1  0
 19 53  1  0
 20 54  1  0
 21 55  1  0
 26 56  1  0
 27 57  1  0
 27 58  1  0
 27 59  1  0
 28 60  1  0
 28 61  1  0
 28 62  1  0
 31 63  1  0
 31 64  1  0
 32 65  1  0
 32 66  1  0
 33 67  1  0
 34 68  1  0
 34 69  1  0
 35 70  1  0
 35 71  1  0
 37 72  1  0
 37 73  1  0
 38 74  1  0
 38 75  1  0
 40 76  1  0
 40 77  1  0
 40 78  1  0
 41 79  1  0
 41 80  1  0
 42 81  1  0
 42 82  1  0
M  END
$$$$
[H]c1nc(N2C([H])([H])C([H])([H])N(C(=O)c3c([H])c([H])c([H])c(-c4c([H])c([H])c([H])c(OC(F)(F)F)c4[H])c3[H])[C@]([H])(C([H])([H])[H])C2([H])[H])nc([H])c1Cl
     RDKit          3D

 53 56  0  0  0  0  0  0  0  0999 V2000
   -2.4796   -3.3985   -1.3517 C   0  0  0  0  0  0  0  0  0  0  0  0
   -2.6469   -1.9610   -0.8728 C   0  0  2  0  0  0  0  0  0  0  0  0
   -4.1329   -1.5667   -1.0510 C   0  0  0  0  0  0  0  0  0  0  0  0
   -4.1999   -0.1462   -1.1831 N   0  0  0  0  0  0  0  0  0  0  0  0
   -3.6008    0.4403   -2.3951 C   0  0  0  0  0  0  0  0  0  0  0  0
   -2.5074   -0.5298   -2.8490 C   0  0  0  0  0  0  0  0  0  0  0  0
   -1.8426   -1.0467   -1.6006 N   0  0  0  0  0  0  0  0  0  0  0  0
   -0.5723   -0.5610   -1.3799 C   0  0  0  0  0  0  0  0  0  0  0  0
   -0.1913    0.3126   -2.2965 O   0  0  0  0  0  0  0  0  0  0  0  0
    0.4476   -0.7807   -0.3762 C   0  0  0  0  0  0  0  0  0  0  0  0
    0.3308   -1.7372    0.5948 C   0  0  0  0  0  0  0  0  0  0  0  0
    1.3578   -1.8533    1.5484 C   0  0  0  0  0  0  0  0  0  0  0  0
    2.4571   -1.0336    1.5168 C   0  0  0  0  0  0  0  0  0  0  0  0
    2.5959   -0.0662    0.5499 C   0  0  0  0  0  0  0  0  0  0  0  0
    1.5989    0.0479   -0.3767 C   0  0  0  0  0  0  0  0  0  0  0  0
    3.7622    0.8232    0.4946 C   0  0  0  0  0  0  0  0  0  0  0  0
    3.6862    2.1152    0.0156 C   0  0  0  0  0  0  0  0  0  0  0  0
    4.8121    2.9370   -0.0246 C   0  0  0  0  0  0  0  0  0  0  0  0
    6.0388    2.4834    0.4140 C   0  0  0  0  0  0  0  0  0  0  0  0
    6.1091    1.1913    0.8918 C   0  0  0  0  0  0  0  0  0  0  0  0
    7.3464    0.7253    1.3371 O   0  0  0  0  0  0  0  0  0  0  0  0
    8.2594    0.0826    0.4813 C   0  0  0  0  0  0  0  0  0  0  0  0
    9.3710   -0.2513    1.2172 F   0  0  0  0  0  0  0  0  0  0  0  0
    8.6329    0.8609   -0.5726 F   0  0  0  0  0  0  0  0  0  0  0  0
    7.7126   -1.1036    0.0177 F   0  0  0  0  0  0  0  0  0  0  0  0
    4.9878    0.3742    0.9312 C   0  0  0  0  0  0  0  0  0  0  0  0
   -4.7958    0.6824   -0.2325 C   0  0  0  0  0  0  0  0  0  0  0  0
   -4.8596    2.0361   -0.3732 N   0  0  0  0  0  0  0  0  0  0  0  0
   -5.4301    2.8441    0.5344 C   0  0  0  0  0  0  0  0  0  0  0  0
   -5.9862    2.3108    1.6723 C   0  0  0  0  0  0  0  0  0  0  0  0
   -6.7397    3.3521    2.8762 Cl  0  0  0  0  0  0  0  0  0  0  0  0
   -5.9361    0.9454    1.8409 C   0  0  0  0  0  0  0  0  0  0  0  0
   -5.3574    0.1903    0.9079 N   0  0  0  0  0  0  0  0  0  0  0  0
   -1.5606   -3.5275   -1.9450 H   0  0  0  0  0  0  0  0  0  0  0  0
   -3.3385   -3.6349   -2.0119 H   0  0  0  0  0  0  0  0  0  0  0  0
   -2.5506   -4.0795   -0.4795 H   0  0  0  0  0  0  0  0  0  0  0  0
   -2.4888   -1.9443    0.2100 H   0  0  0  0  0  0  0  0  0  0  0  0
   -4.7051   -1.9636   -0.2011 H   0  0  0  0  0  0  0  0  0  0  0  0
   -4.4540   -2.0832   -1.9999 H   0  0  0  0  0  0  0  0  0  0  0  0
   -4.3614    0.4647   -3.1733 H   0  0  0  0  0  0  0  0  0  0  0  0
   -3.1557    1.4210   -2.2195 H   0  0  0  0  0  0  0  0  0  0  0  0
   -1.7972   -0.0009   -3.4485 H   0  0  0  0  0  0  0  0  0  0  0  0
   -2.9967   -1.3606   -3.3764 H   0  0  0  0  0  0  0  0  0  0  0  0
   -0.4862   -2.4233    0.6728 H   0  0  0  0  0  0  0  0  0  0  0  0
    1.2363   -2.6296    2.3166 H   0  0  0  0  0  0  0  0  0  0  0  0
    3.2127   -1.1563    2.2603 H   0  0  0  0  0  0  0  0  0  0  0  0
    1.6933    0.8059   -1.1436 H   0  0  0  0  0  0  0  0  0  0  0  0
    2.7179    2.4567   -0.3246 H   0  0  0  0  0  0  0  0  0  0  0  0
    4.6924    3.9534   -0.4148 H   0  0  0  0  0  0  0  0  0  0  0  0
    6.9063    3.1404    0.3747 H   0  0  0  0  0  0  0  0  0  0  0  0
    5.0651   -0.6357    1.3097 H   0  0  0  0  0  0  0  0  0  0  0  0
   -5.4754    3.9219    0.4123 H   0  0  0  0  0  0  0  0  0  0  0  0
   -6.3818    0.5564    2.7454 H   0  0  0  0  0  0  0  0  0  0  0  0
  1  2  1  0
  2  3  1  0
  3  4  1  0
  4  5  1  0
  5  6  1  0
  6  7  1  0
  7  8  1  0
  8  9  2  0
  8 10  1  0
 10 11  2  0
 11 12  1  0
 12 13  2  0
 13 14  1  0
 14 15  2  0
 14 16  1  0
 16 17  2  0
 17 18  1  0
 18 19  2  0
 19 20  1  0
 20 21  1  0
 21 22  1  0
 22 23  1  0
 22 24  1  0
 22 25  1  0
 20 26  2  0
  4 27  1  0
 27 28  2  0
 28 29  1  0
 29 30  2  0
 30 31  1  0
 30 32  1  0
 32 33  2  0
  7  2  1  0
 15 10  1  0
 26 16  1  0
 33 27  1  0
  1 34  1  0
  1 35  1  0
  1 36  1  0
  2 37  1  1
  3 38  1  0
  3 39  1  0
  5 40  1  0
  5 41  1  0
  6 42  1  0
  6 43  1  0
 11 44  1  0
 12 45  1  0
 13 46  1  0
 15 47  1  0
 17 48  1  0
 18 49  1  0
 19 50  1  0
 26 51  1  0
 29 52  1  0
 32 53  1  0
M  END
$$$$
[H]Oc1c([H])c([H])c(C2([H])c3c([H])c(O[H])c([H])c([H])c3Oc3c([H])c([H])c(O[H])c([H])c32)c([H])c1[H]
     RDKit          3D

 37 40  0  0  0  0  0  0  0  0999 V2000
   -2.3567   -2.9720   -0.0944 C   0  0  0  0  0  0  0  0  0  0  0  0
   -2.4064   -4.3196    0.2329 O   0  0  0  0  0  0  0  0  0  0  0  0
   -3.3117   -2.5007   -0.9699 C   0  0  0  0  0  0  0  0  0  0  0  0
   -3.2928   -1.1509   -1.3218 C   0  0  0  0  0  0  0  0  0  0  0  0
   -2.3331   -0.3064   -0.8001 C   0  0  0  0  0  0  0  0  0  0  0  0
   -1.3654   -0.7688    0.0830 C   0  0  0  0  0  0  0  0  0  0  0  0
   -1.4028   -2.1005    0.4155 C   0  0  0  0  0  0  0  0  0  0  0  0
   -0.3263    0.1279    0.6523 C   0  0  0  0  0  0  0  0  0  0  0  0
    1.0419   -0.4011    0.4963 C   0  0  0  0  0  0  0  0  0  0  0  0
    1.6309   -1.2002    1.4540 C   0  0  0  0  0  0  0  0  0  0  0  0
    2.9159   -1.7022    1.3166 C   0  0  0  0  0  0  0  0  0  0  0  0
    3.6564   -1.4114    0.1974 C   0  0  0  0  0  0  0  0  0  0  0  0
    4.9466   -1.9101    0.0500 O   0  0  0  0  0  0  0  0  0  0  0  0
    3.0933   -0.6115   -0.7824 C   0  0  0  0  0  0  0  0  0  0  0  0
    1.8153   -0.1229   -0.6269 C   0  0  0  0  0  0  0  0  0  0  0  0
   -0.4611    1.5139    0.1708 C   0  0  0  0  0  0  0  0  0  0  0  0
   -1.4263    1.9433   -0.7014 C   0  0  0  0  0  0  0  0  0  0  0  0
   -1.5063    3.2490   -1.1185 C   0  0  0  0  0  0  0  0  0  0  0  0
   -0.5740    4.1479   -0.6329 C   0  0  0  0  0  0  0  0  0  0  0  0
    0.4135    3.7566    0.2464 C   0  0  0  0  0  0  0  0  0  0  0  0
    1.3222    4.6852    0.7055 O   0  0  0  0  0  0  0  0  0  0  0  0
    0.4488    2.4439    0.6305 C   0  0  0  0  0  0  0  0  0  0  0  0
   -2.3523    1.0337   -1.1791 O   0  0  0  0  0  0  0  0  0  0  0  0
   -2.9185   -4.7091    0.9966 H   0  0  0  0  0  0  0  0  0  0  0  0
   -4.0590   -3.1384   -1.3816 H   0  0  0  0  0  0  0  0  0  0  0  0
   -4.0519   -0.8018   -2.0108 H   0  0  0  0  0  0  0  0  0  0  0  0
   -0.6722   -2.5148    1.1002 H   0  0  0  0  0  0  0  0  0  0  0  0
   -0.5235    0.1595    1.7644 H   0  0  0  0  0  0  0  0  0  0  0  0
    1.0784   -1.4519    2.3514 H   0  0  0  0  0  0  0  0  0  0  0  0
    3.3606   -2.3297    2.0831 H   0  0  0  0  0  0  0  0  0  0  0  0
    5.1110   -2.8115   -0.4034 H   0  0  0  0  0  0  0  0  0  0  0  0
    3.7032   -0.4015   -1.6516 H   0  0  0  0  0  0  0  0  0  0  0  0
    1.3926    0.5003   -1.4033 H   0  0  0  0  0  0  0  0  0  0  0  0
   -2.2790    3.5607   -1.8081 H   0  0  0  0  0  0  0  0  0  0  0  0
   -0.6204    5.1758   -0.9484 H   0  0  0  0  0  0  0  0  0  0  0  0
    1.0708    5.1828    1.5612 H   0  0  0  0  0  0  0  0  0  0  0  0
    1.2385    2.1564    1.3267 H   0  0  0  0  0  0  0  0  0  0  0  0
  1  2  1  0
  1  3  2  0
  3  4  1  0
  4  5  2  0
  5  6  1  0
  6  7  2  0
  6  8  1  0
  8  9  1  0
  9 10  2  0
 10 11  1  0
 11 12  2  0
 12 13  1  0
 12 14  1  0
 14 15  2  0
  8 16  1  0
 16 17  2  0
 17 18  1  0
 18 19  2  0
 19 20  1  0
 20 21  1  0
 20 22  2  0
 17 23  1  0
  7  1  1  0
 15  9  1  0
 22 16  1  0
 23  5  1  0
  2 24  1  0
  3 25  1  0
  4 26  1  0
  7 27  1  0
  8 28  1  0
 10 29  1  0
 11 30  1  0
 13 31  1  0
 14 32  1  0
 15 33  1  0
 18 34  1  0
 19 35  1  0
 21 36  1  0
 22 37  1  0
M  END
$$$$
[H]OC([H])(c1c([H])c([H])c(OC([H])([H])[H])c([H])c1[H])C([H])([H])C(=O)N([H])C([H])([H])C([H])([H])N([H])C(=O)c1c([H])c([H])c([H])c(-c2c([H])c([H])c([H])c(C(F)(F)F)c2[H])c1[H]
     RDKit          3D

 60 62  0  0  0  0  0  0  0  0999 V2000
   11.1786    0.1726    2.4506 C   0  0  0  0  0  0  0  0  0  0  0  0
   10.3022    1.1603    1.8120 O   0  0  0  0  0  0  0  0  0  0  0  0
    9.0496    0.5827    1.3513 C   0  0  0  0  0  0  0  0  0  0  0  0
    8.1796    1.5877    0.7481 C   0  0  0  0  0  0  0  0  0  0  0  0
    6.9793    1.1712    0.2280 C   0  0  0  0  0  0  0  0  0  0  0  0
    6.5741   -0.2330    0.2636 C   0  0  0  0  0  0  0  0  0  0  0  0
    7.4892   -1.0663    0.8918 C   0  0  0  0  0  0  0  0  0  0  0  0
    8.6481   -0.6102    1.3856 C   0  0  0  0  0  0  0  0  0  0  0  0
    5.5022   -0.8696   -0.3944 C   0  0  0  0  0  0  0  0  0  0  0  0
    5.9619   -2.1271   -0.9713 O   0  0  0  0  0  0  0  0  0  0  0  0
    4.1014   -0.9794   -0.1632 C   0  0  0  0  0  0  0  0  0  0  0  0
    3.4470    0.5952   -0.1499 C   0  0  0  0  0  0  0  0  0  0  0  0
    4.2004    1.0365    0.5553 O   0  0  0  0  0  0  0  0  0  0  0  0
    2.3714    0.5331   -0.9220 N   0  0  0  0  0  0  0  0  0  0  0  0
    1.2135    0.5042   -1.7313 C   0  0  0  0  0  0  0  0  0  0  0  0
    0.0819    0.1810   -0.8741 C   0  0  0  0  0  0  0  0  0  0  0  0
   -1.2561    0.2959   -1.1378 N   0  0  0  0  0  0  0  0  0  0  0  0
   -2.4032    0.3435   -1.8979 C   0  0  0  0  0  0  0  0  0  0  0  0
   -2.5273    0.2019   -3.1069 O   0  0  0  0  0  0  0  0  0  0  0  0
   -3.6238    0.6297   -1.0036 C   0  0  0  0  0  0  0  0  0  0  0  0
   -3.4132    1.3726    0.1031 C   0  0  0  0  0  0  0  0  0  0  0  0
   -4.4617    1.4996    1.0382 C   0  0  0  0  0  0  0  0  0  0  0  0
   -5.6304    0.8972    0.8265 C   0  0  0  0  0  0  0  0  0  0  0  0
   -5.9230    0.1120   -0.3581 C   0  0  0  0  0  0  0  0  0  0  0  0
   -4.8713    0.0396   -1.1874 C   0  0  0  0  0  0  0  0  0  0  0  0
   -7.2401   -0.3595   -0.5822 C   0  0  0  0  0  0  0  0  0  0  0  0
   -7.8184   -0.5721   -1.8656 C   0  0  0  0  0  0  0  0  0  0  0  0
   -9.1573   -0.8469   -2.0558 C   0  0  0  0  0  0  0  0  0  0  0  0
   -9.9915   -0.9121   -0.9541 C   0  0  0  0  0  0  0  0  0  0  0  0
   -9.5257   -0.7651    0.2476 C   0  0  0  0  0  0  0  0  0  0  0  0
   -8.1491   -0.5025    0.4104 C   0  0  0  0  0  0  0  0  0  0  0  0
  -10.3916   -0.6885    1.4888 C   0  0  0  0  0  0  0  0  0  0  0  0
  -10.1314   -1.7907    2.2319 F   0  0  0  0  0  0  0  0  0  0  0  0
  -11.6858   -0.4748    1.1911 F   0  0  0  0  0  0  0  0  0  0  0  0
   -9.9125    0.4680    2.1376 F   0  0  0  0  0  0  0  0  0  0  0  0
   12.2047    0.4736    2.2157 H   0  0  0  0  0  0  0  0  0  0  0  0
   10.9672    0.2245    3.5031 H   0  0  0  0  0  0  0  0  0  0  0  0
   11.0504   -0.8206    1.9933 H   0  0  0  0  0  0  0  0  0  0  0  0
    8.4559    2.6365    0.7692 H   0  0  0  0  0  0  0  0  0  0  0  0
    6.3541    1.8766   -0.2392 H   0  0  0  0  0  0  0  0  0  0  0  0
    7.2063   -2.0868    1.0053 H   0  0  0  0  0  0  0  0  0  0  0  0
    9.3149   -1.4057    1.8608 H   0  0  0  0  0  0  0  0  0  0  0  0
    5.4899   -0.3256   -1.4988 H   0  0  0  0  0  0  0  0  0  0  0  0
    5.4333   -2.8609   -0.5881 H   0  0  0  0  0  0  0  0  0  0  0  0
    3.7467   -1.2819    0.8846 H   0  0  0  0  0  0  0  0  0  0  0  0
    3.5628   -1.3768   -0.9933 H   0  0  0  0  0  0  0  0  0  0  0  0
    1.8609    1.6107   -0.2204 H   0  0  0  0  0  0  0  0  0  0  0  0
    1.0870    1.6284   -2.0848 H   0  0  0  0  0  0  0  0  0  0  0  0
    1.1670   -0.1216   -2.6378 H   0  0  0  0  0  0  0  0  0  0  0  0
    0.2913   -0.7424   -0.2257 H   0  0  0  0  0  0  0  0  0  0  0  0
    0.2243    0.9983    0.0638 H   0  0  0  0  0  0  0  0  0  0  0  0
   -1.7265   -0.1190   -0.0505 H   0  0  0  0  0  0  0  0  0  0  0  0
   -2.5453    1.8823    0.3661 H   0  0  0  0  0  0  0  0  0  0  0  0
   -4.2858    2.1215    1.9497 H   0  0  0  0  0  0  0  0  0  0  0  0
   -6.4400    0.9361    1.5633 H   0  0  0  0  0  0  0  0  0  0  0  0
   -4.9865   -0.5302   -2.1552 H   0  0  0  0  0  0  0  0  0  0  0  0
   -7.1548   -0.4812   -2.7213 H   0  0  0  0  0  0  0  0  0  0  0  0
   -9.5634   -1.0127   -3.0581 H   0  0  0  0  0  0  0  0  0  0  0  0
  -11.0786   -0.9987   -1.1508 H   0  0  0  0  0  0  0  0  0  0  0  0
   -7.8025   -0.3959    1.4432 H   0  0  0  0  0  0  0  0  0  0  0  0
  1  2  1  0
  2  3  1  0
  3  4  2  0
  4  5  1  0
  5  6  2  0
  6  7  1  0
  7  8  2  0
  6  9  1  0
  9 10  1  0
  9 11  1  0
 11 12  1  0
 12 13  2  0
 12 14  1  0
 14 15  1  0
 15 16  1  0
 16 17  1  0
 17 18  1  0
 18 19  2  0
 18 20  1  0
 20 21  2  0
 21 22  1  0
 22 23  2  0
 23 24  1  0
 24 25  2  0
 24 26  1  0
 26 27  2  0
 27 28  1  0
 28 29  2  0
 29 30  1  0
 30 31  2  0
 30 32  1  0
 32 33  1  0
 32 34  1  0
 32 35  1  0
  8  3  1  0
 25 20  1  0
 31 26  1  0
  1 36  1  0
  1 37  1  0
  1 38  1  0
  4 39  1  0
  5 40  1  0
  7 41  1  0
  8 42  1  0
  9 43  1  0
 10 44  1  0
 11 45  1  0
 11 46  1  0
 14 47  1  0
 15 48  1  0
 15 49  1  0
 16 50  1  0
 16 51  1  0
 17 52  1  0
 21 53  1  0
 22 54  1  0
 23 55  1  0
 25 56  1  0
 27 57  1  0
 28 58  1  0
 29 59  1  0
 31 60  1  0
M  END
$$$$
[H]N(C(=O)[C@@]([H])(N([H])C(=O)[C@@]([H])(N([H])C(=O)[C@]([H])(C([H])([H])C([H])(C([H])([H])[H])C([H])([H])[H])C([H])(C([H])([H])[H])C([H])([H])[H])C([H])([H])C([H])(C([H])([H])[H])C([H])([H])[H])C([H])([H])C([H])(C([H])([H])[H])C([H])([H])[H])[C@]([H])(C(=O)N([H])[C@]([H])(C(=O)N([H])[C@]([H])(C(=O)N([H])[C@@]([H])(C([H])([H])C([H])(C([H])([H])[H])C([H])([H])[H])C([H])(C([H])([H])[H])C([H])([H])[H])C([H])([H])C([H])(C([H])([H])[H])C([H])([H])[H])C([H])([H])C([H])(C([H])([H])[H])C([H])([H])[H])C([H])([H])[H]
     RDKit          3D

140139  0  0  0  0  0  0  0  0999 V2000
   11.9689    4.4713    0.5070 C   0  0  0  0  0  0  0  0  0  0  0  0
   11.1790    3.7627    1.5267 C   0  0  0  0  0  0  0  0  0  0  0  0
   12.1592    3.5070    2.7144 C   0  0  0  0  0  0  0  0  0  0  0  0
   10.4610    2.5131    1.2239 C   0  0  0  0  0  0  0  0  0  0  0  0
    9.3868    2.3968    0.2529 C   0  0  2  0  0  0  0  0  0  0  0  0
    8.9088    0.9685    0.3061 N   0  0  0  0  0  0  0  0  0  0  0  0
    7.5198    0.7985    0.3310 C   0  0  0  0  0  0  0  0  0  0  0  0
    6.7735    1.8309    0.3007 O   0  0  0  0  0  0  0  0  0  0  0  0
    6.8530   -0.5720    0.3944 C   0  0  2  0  0  0  0  0  0  0  0  0
    7.8809   -1.6097    0.2075 C   0  0  0  0  0  0  0  0  0  0  0  0
    7.3066   -3.0245    0.2629 C   0  0  0  0  0  0  0  0  0  0  0  0
    8.4333   -4.0022    0.0744 C   0  0  0  0  0  0  0  0  0  0  0  0
    6.7173   -3.2913    1.6508 C   0  0  0  0  0  0  0  0  0  0  0  0
    5.6411   -0.6033   -0.2793 N   0  0  0  0  0  0  0  0  0  0  0  0
    4.4744   -0.5729   -1.0030 C   0  0  0  0  0  0  0  0  0  0  0  0
    4.3434    0.1744   -2.0374 O   0  0  0  0  0  0  0  0  0  0  0  0
    3.2793   -1.3521   -0.6742 C   0  0  2  0  0  0  0  0  0  0  0  0
    3.2565   -2.7988   -0.8396 C   0  0  0  0  0  0  0  0  0  0  0  0
    3.4135   -3.5119   -2.0945 C   0  0  0  0  0  0  0  0  0  0  0  0
    4.6454   -3.3906   -2.9066 C   0  0  0  0  0  0  0  0  0  0  0  0
    2.2014   -3.4362   -3.0219 C   0  0  0  0  0  0  0  0  0  0  0  0
    2.0820   -0.7295   -1.3001 N   0  0  0  0  0  0  0  0  0  0  0  0
    0.9001   -0.5872   -0.5846 C   0  0  0  0  0  0  0  0  0  0  0  0
    0.8712   -1.0439    0.6118 O   0  0  0  0  0  0  0  0  0  0  0  0
   -0.3101    0.0382   -1.0656 C   0  0  2  0  0  0  0  0  0  0  0  0
   -0.4208    1.4090   -0.2944 C   0  0  0  0  0  0  0  0  0  0  0  0
   -1.5508   -0.6340   -0.6503 N   0  0  0  0  0  0  0  0  0  0  0  0
   -2.8243   -0.3146   -1.0897 C   0  0  0  0  0  0  0  0  0  0  0  0
   -2.8078    0.7131   -1.9482 O   0  0  0  0  0  0  0  0  0  0  0  0
   -4.1365   -0.7868   -0.8701 C   0  0  2  0  0  0  0  0  0  0  0  0
   -4.7158   -1.8741   -1.7191 C   0  0  0  0  0  0  0  0  0  0  0  0
   -4.1292   -3.2064   -1.7539 C   0  0  0  0  0  0  0  0  0  0  0  0
   -2.7134   -3.2427   -2.2443 C   0  0  0  0  0  0  0  0  0  0  0  0
   -4.3058   -3.9916   -0.4637 C   0  0  0  0  0  0  0  0  0  0  0  0
   -5.1710    0.2754   -0.9324 N   0  0  0  0  0  0  0  0  0  0  0  0
   -6.1731    0.4102   -0.0164 C   0  0  0  0  0  0  0  0  0  0  0  0
   -6.1267   -0.4804    0.9666 O   0  0  0  0  0  0  0  0  0  0  0  0
   -7.2960    1.3304    0.0881 C   0  0  2  0  0  0  0  0  0  0  0  0
   -7.0118    2.7551    0.3379 C   0  0  0  0  0  0  0  0  0  0  0  0
   -6.2027    3.4920   -0.6834 C   0  0  0  0  0  0  0  0  0  0  0  0
   -6.0322    4.9514   -0.2405 C   0  0  0  0  0  0  0  0  0  0  0  0
   -6.8416    3.5093   -2.0369 C   0  0  0  0  0  0  0  0  0  0  0  0
   -8.1455    0.7962    1.2011 N   0  0  0  0  0  0  0  0  0  0  0  0
   -9.1740   -0.1137    0.8997 C   0  0  0  0  0  0  0  0  0  0  0  0
   -9.2689   -0.3914   -0.3714 O   0  0  0  0  0  0  0  0  0  0  0  0
  -10.1091   -0.7564    1.8288 C   0  0  2  0  0  0  0  0  0  0  0  0
  -11.0698    0.2248    2.4355 C   0  0  0  0  0  0  0  0  0  0  0  0
  -11.9739    0.9459    1.5036 C   0  0  0  0  0  0  0  0  0  0  0  0
  -12.8450    0.0371    0.6608 C   0  0  0  0  0  0  0  0  0  0  0  0
  -11.3662    2.0773    0.7677 C   0  0  0  0  0  0  0  0  0  0  0  0
   -9.4793   -1.5697    2.9256 C   0  0  0  0  0  0  0  0  0  0  0  0
   -8.6073   -0.7920    3.8399 C   0  0  0  0  0  0  0  0  0  0  0  0
   -8.7899   -2.8101    2.3911 C   0  0  0  0  0  0  0  0  0  0  0  0
    9.5993    2.6327   -1.1996 C   0  0  0  0  0  0  0  0  0  0  0  0
   10.6294    1.7693   -1.8571 C   0  0  0  0  0  0  0  0  0  0  0  0
    9.4826    4.0314   -1.6640 C   0  0  0  0  0  0  0  0  0  0  0  0
   12.9547    4.8701    0.9313 H   0  0  0  0  0  0  0  0  0  0  0  0
   11.4722    5.4196    0.1466 H   0  0  0  0  0  0  0  0  0  0  0  0
   12.2928    3.8844   -0.3613 H   0  0  0  0  0  0  0  0  0  0  0  0
   10.4321    4.5125    1.9702 H   0  0  0  0  0  0  0  0  0  0  0  0
   12.9257    2.8165    2.2656 H   0  0  0  0  0  0  0  0  0  0  0  0
   11.5941    3.0485    3.5365 H   0  0  0  0  0  0  0  0  0  0  0  0
   12.5863    4.4899    2.9561 H   0  0  0  0  0  0  0  0  0  0  0  0
   10.0051    2.1891    2.2424 H   0  0  0  0  0  0  0  0  0  0  0  0
   11.2174    1.6452    1.0987 H   0  0  0  0  0  0  0  0  0  0  0  0
    8.5181    3.0650    0.5341 H   0  0  0  0  0  0  0  0  0  0  0  0
    9.6522    0.2789    0.3289 H   0  0  0  0  0  0  0  0  0  0  0  0
    6.6520   -0.5637    1.5585 H   0  0  0  0  0  0  0  0  0  0  0  0
    8.5358   -1.5120   -0.6802 H   0  0  0  0  0  0  0  0  0  0  0  0
    8.6169   -1.6123    1.0752 H   0  0  0  0  0  0  0  0  0  0  0  0
    6.5747   -3.2060   -0.5127 H   0  0  0  0  0  0  0  0  0  0  0  0
    8.4336   -4.3701   -0.9774 H   0  0  0  0  0  0  0  0  0  0  0  0
    9.3917   -3.6358    0.4438 H   0  0  0  0  0  0  0  0  0  0  0  0
    8.1890   -4.9204    0.6907 H   0  0  0  0  0  0  0  0  0  0  0  0
    7.3076   -2.8243    2.4607 H   0  0  0  0  0  0  0  0  0  0  0  0
    6.5674   -4.3638    1.8229 H   0  0  0  0  0  0  0  0  0  0  0  0
    5.7416   -2.7305    1.6597 H   0  0  0  0  0  0  0  0  0  0  0  0
    6.2700    0.1745   -1.2540 H   0  0  0  0  0  0  0  0  0  0  0  0
    3.0678   -1.1740    0.4345 H   0  0  0  0  0  0  0  0  0  0  0  0
    3.9983   -3.2758   -0.1011 H   0  0  0  0  0  0  0  0  0  0  0  0
    2.2727   -3.1493   -0.3798 H   0  0  0  0  0  0  0  0  0  0  0  0
    3.3996   -4.6314   -1.7972 H   0  0  0  0  0  0  0  0  0  0  0  0
    5.5154   -4.0041   -2.5016 H   0  0  0  0  0  0  0  0  0  0  0  0
    4.9724   -2.3617   -3.1675 H   0  0  0  0  0  0  0  0  0  0  0  0
    4.5020   -3.8907   -3.9245 H   0  0  0  0  0  0  0  0  0  0  0  0
    2.3464   -4.3133   -3.7205 H   0  0  0  0  0  0  0  0  0  0  0  0
    2.1759   -2.5684   -3.6650 H   0  0  0  0  0  0  0  0  0  0  0  0
    1.2836   -3.6636   -2.4517 H   0  0  0  0  0  0  0  0  0  0  0  0
    2.2174   -0.4299   -2.2848 H   0  0  0  0  0  0  0  0  0  0  0  0
   -0.4051    0.2666   -2.1312 H   0  0  0  0  0  0  0  0  0  0  0  0
   -0.8516    2.1558   -0.9519 H   0  0  0  0  0  0  0  0  0  0  0  0
   -1.0416    1.1737    0.5853 H   0  0  0  0  0  0  0  0  0  0  0  0
    0.5991    1.6078    0.0635 H   0  0  0  0  0  0  0  0  0  0  0  0
   -1.3478   -1.4355    0.0325 H   0  0  0  0  0  0  0  0  0  0  0  0
   -4.2365   -1.1683    0.1883 H   0  0  0  0  0  0  0  0  0  0  0  0
   -4.7501   -1.4324   -2.7699 H   0  0  0  0  0  0  0  0  0  0  0  0
   -5.8151   -1.9237   -1.4541 H   0  0  0  0  0  0  0  0  0  0  0  0
   -4.7266   -3.8174   -2.5088 H   0  0  0  0  0  0  0  0  0  0  0  0
   -1.9775   -3.3891   -1.4388 H   0  0  0  0  0  0  0  0  0  0  0  0
   -2.4369   -2.3840   -2.8874 H   0  0  0  0  0  0  0  0  0  0  0  0
   -2.5404   -4.1419   -2.9191 H   0  0  0  0  0  0  0  0  0  0  0  0
   -3.5359   -4.7335   -0.2733 H   0  0  0  0  0  0  0  0  0  0  0  0
   -5.2899   -4.5081   -0.4495 H   0  0  0  0  0  0  0  0  0  0  0  0
   -4.4029   -3.2299    0.3710 H   0  0  0  0  0  0  0  0  0  0  0  0
   -5.1000    0.9572   -1.7560 H   0  0  0  0  0  0  0  0  0  0  0  0
   -7.9763    1.2243   -0.8137 H   0  0  0  0  0  0  0  0  0  0  0  0
   -6.4682    2.9140    1.3242 H   0  0  0  0  0  0  0  0  0  0  0  0
   -7.9902    3.3119    0.4143 H   0  0  0  0  0  0  0  0  0  0  0  0
   -5.1995    3.0627   -0.7471 H   0  0  0  0  0  0  0  0  0  0  0  0
   -5.4325    5.4435   -1.0279 H   0  0  0  0  0  0  0  0  0  0  0  0
   -7.0172    5.4753   -0.2077 H   0  0  0  0  0  0  0  0  0  0  0  0
   -5.4978    5.0502    0.7136 H   0  0  0  0  0  0  0  0  0  0  0  0
   -7.7130    2.8023   -2.0886 H   0  0  0  0  0  0  0  0  0  0  0  0
   -7.2387    4.5148   -2.2537 H   0  0  0  0  0  0  0  0  0  0  0  0
   -6.0901    3.2818   -2.8251 H   0  0  0  0  0  0  0  0  0  0  0  0
   -7.9276    1.1393    2.1475 H   0  0  0  0  0  0  0  0  0  0  0  0
  -10.7054   -1.5368    1.2347 H   0  0  0  0  0  0  0  0  0  0  0  0
  -10.5050    1.0335    2.9965 H   0  0  0  0  0  0  0  0  0  0  0  0
  -11.6535   -0.2704    3.2699 H   0  0  0  0  0  0  0  0  0  0  0  0
  -12.7486    1.4402    2.2122 H   0  0  0  0  0  0  0  0  0  0  0  0
  -13.5711    0.5746    0.0300 H   0  0  0  0  0  0  0  0  0  0  0  0
  -13.2964   -0.7142    1.3271 H   0  0  0  0  0  0  0  0  0  0  0  0
  -12.1383   -0.5388   -0.0124 H   0  0  0  0  0  0  0  0  0  0  0  0
  -10.5767    2.5238    1.4265 H   0  0  0  0  0  0  0  0  0  0  0  0
  -12.1473    2.9008    0.6613 H   0  0  0  0  0  0  0  0  0  0  0  0
  -10.9613    1.8580   -0.2178 H   0  0  0  0  0  0  0  0  0  0  0  0
  -10.3490   -1.9463    3.5533 H   0  0  0  0  0  0  0  0  0  0  0  0
   -7.5544   -0.7331    3.5008 H   0  0  0  0  0  0  0  0  0  0  0  0
   -8.6124   -1.2524    4.8930 H   0  0  0  0  0  0  0  0  0  0  0  0
   -8.9709    0.2284    4.0123 H   0  0  0  0  0  0  0  0  0  0  0  0
   -9.1668   -3.1454    1.4219 H   0  0  0  0  0  0  0  0  0  0  0  0
   -7.6964   -2.6376    2.2864 H   0  0  0  0  0  0  0  0  0  0  0  0
   -8.9702   -3.6344    3.1037 H   0  0  0  0  0  0  0  0  0  0  0  0
    8.5935    2.1542   -1.6501 H   0  0  0  0  0  0  0  0  0  0  0  0
   10.2978    1.3827   -2.8312 H   0  0  0  0  0  0  0  0  0  0  0  0
   11.5696    2.3287   -2.0344 H   0  0  0  0  0  0  0  0  0  0  0  0
   10.8888    0.9448   -1.1467 H   0  0  0  0  0  0  0  0  0  0  0  0
    9.1464    4.6671   -0.8154 H   0  0  0  0  0  0  0  0  0  0  0  0
   10.4036    4.4396   -2.1636 H   0  0  0  0  0  0  0  0  0  0  0  0
    8.6821    4.1905   -2.4437 H   0  0  0  0  0  0  0  0  0  0  0  0
  1  2  1  0
  2  3  1  0
  2  4  1  0
  4  5  1  0
  5  6  1  0
  6  7  1  0
  7  8  2  0
  7  9  1  0
  9 10  1  0
 10 11  1  0
 11 12  1  0
 11 13  1  0
  9 14  1  0
 14 15  1  0
 15 16  2  0
 15 17  1  0
 17 18  1  0
 18 19  1  0
 19 20  1  0
 19 21  1  0
 17 22  1  0
 22 23  1  0
 23 24  2  0
 23 25  1  0
 25 26  1  0
 25 27  1  0
 27 28  1  0
 28 29  2  0
 28 30  1  0
 30 31  1  0
 31 32  1  0
 32 33  1  0
 32 34  1  0
 30 35  1  0
 35 36  1  0
 36 37  2  0
 36 38  1  0
 38 39  1  0
 39 40  1  0
 40 41  1  0
 40 42  1  0
 38 43  1  0
 43 44  1  0
 44 45  2  0
 44 46  1  0
 46 47  1  0
 47 48  1  0
 48 49  1  0
 48 50  1  0
 46 51  1  0
 51 52  1  0
 51 53  1  0
  5 54  1  0
 54 55  1  0
 54 56  1  0
  1 57  1  0
  1 58  1  0
  1 59  1  0
  2 60  1  0
  3 61  1  0
  3 62  1  0
  3 63  1  0
  4 64  1  0
  4 65  1  0
  5 66  1  1
  6 67  1  0
  9 68  1  1
 10 69  1  0
 10 70  1  0
 11 71  1  0
 12 72  1  0
 12 73  1  0
 12 74  1  0
 13 75  1  0
 13 76  1  0
 13 77  1  0
 14 78  1  0
 17 79  1  1
 18 80  1  0
 18 81  1  0
 19 82  1  0
 20 83  1  0
 20 84  1  0
 20 85  1  0
 21 86  1  0
 21 87  1  0
 21 88  1  0
 22 89  1  0
 25 90  1  6
 26 91  1  0
 26 92  1  0
 26 93  1  0
 27 94  1  0
 30 95  1  1
 31 96  1  0
 31 97  1  0
 32 98  1  0
 33 99  1  0
 33100  1  0
 33101  1  0
 34102  1  0
 34103  1  0
 34104  1  0
 35105  1  0
 38106  1  6
 39107  1  0
 39108  1  0
 40109  1  0
 41110  1  0
 41111  1  0
 41112  1  0
 42113  1  0
 42114  1  0
 42115  1  0
 43116  1  0
 46117  1  6
 47118  1  0
 47119  1  0
 48120  1  0
 49121  1  0
 49122  1  0
 49123  1  0
 50124  1  0
 50125  1  0
 50126  1  0
 51127  1  0
 52128  1  0
 52129  1  0
 52130  1  0
 53131  1  0
 53132  1  0
 53133  1  0
 54134  1  0
 55135  1  0
 55136  1  0
 55137  1  0
 56138  1  0
 56139  1  0
 56140  1  0
M  END
$$$$
