[H]c1nc(N([H])c2c([H])c([H])c(N3C([H])([H])C([H])([H])C([H])(N4C([H])([H])C([H])([H])N(C([H])([H])[H])C([H])([H])C4([H])[H])C([H])([H])C3([H])[H])c([H])c2OC([H])([H])[H])nc(N([H])c2c([H])c([H])c([H])c([H])c2S(=O)(=O)C([H])(C([H])([H])[H])C([H])([H])[H])c1F
     RDKit          3D

 82 86  0  0  0  0  0  0  0  0999 V2000
   -0.3063    2.3350   -2.9829 C   0  0  0  0  0  0  0  0  0  0  0  0
   -0.6870    1.5345   -1.9061 O   0  0  0  0  0  0  0  0  0  0  0  0
    0.1469    0.9955   -0.9491 C   0  0  0  0  0  0  0  0  0  0  0  0
    1.4910    1.1996   -0.9588 C   0  0  0  0  0  0  0  0  0  0  0  0
    2.3459    0.6675   -0.0071 C   0  0  0  0  0  0  0  0  0  0  0  0
    1.7761   -0.0920    0.9706 C   0  0  0  0  0  0  0  0  0  0  0  0
    0.3782   -0.3077    0.9858 C   0  0  0  0  0  0  0  0  0  0  0  0
   -0.4579    0.2118    0.0559 C   0  0  0  0  0  0  0  0  0  0  0  0
   -1.8514    0.0543    0.0634 N   0  0  0  0  0  0  0  0  0  0  0  0
   -2.5826   -0.8387    0.8452 C   0  0  0  0  0  0  0  0  0  0  0  0
   -2.0569   -1.6983    1.6961 N   0  0  0  0  0  0  0  0  0  0  0  0
   -2.8278   -2.5355    2.4065 C   0  0  0  0  0  0  0  0  0  0  0  0
   -4.1978   -2.5269    2.2729 C   0  0  0  0  0  0  0  0  0  0  0  0
   -4.9871   -3.3510    2.9679 F   0  0  0  0  0  0  0  0  0  0  0  0
   -4.7463   -1.6079    1.3658 C   0  0  0  0  0  0  0  0  0  0  0  0
   -6.1629   -1.5948    1.2068 N   0  0  0  0  0  0  0  0  0  0  0  0
   -6.9446   -0.7747    0.4063 C   0  0  0  0  0  0  0  0  0  0  0  0
   -6.4621    0.2732   -0.3309 C   0  0  0  0  0  0  0  0  0  0  0  0
   -7.2579    1.1020   -1.1134 C   0  0  0  0  0  0  0  0  0  0  0  0
   -8.5984    0.8824   -1.1699 C   0  0  0  0  0  0  0  0  0  0  0  0
   -9.1033   -0.1815   -0.4245 C   0  0  0  0  0  0  0  0  0  0  0  0
   -8.3405   -1.0059    0.3495 C   0  0  0  0  0  0  0  0  0  0  0  0
   -9.0572   -2.3155    1.2456 S   0  0  0  0  0  0  0  0  0  0  0  0
   -8.8846   -2.0892    2.7257 O   0  0  0  0  0  0  0  0  0  0  0  0
   -8.4523   -3.6372    0.8129 O   0  0  0  0  0  0  0  0  0  0  0  0
  -10.8251   -2.4362    1.0001 C   0  0  0  0  0  0  0  0  0  0  0  0
  -11.1927   -2.7251   -0.4183 C   0  0  0  0  0  0  0  0  0  0  0  0
  -11.4588   -1.2229    1.5998 C   0  0  0  0  0  0  0  0  0  0  0  0
   -3.9156   -0.8383    0.7234 N   0  0  0  0  0  0  0  0  0  0  0  0
    3.7709    0.8887   -0.0520 N   0  0  0  0  0  0  0  0  0  0  0  0
    4.5917    0.8141    1.1162 C   0  0  0  0  0  0  0  0  0  0  0  0
    5.8643    0.0417    0.9475 C   0  0  0  0  0  0  0  0  0  0  0  0
    6.5560    0.3396   -0.3600 C   0  0  0  0  0  0  0  0  0  0  0  0
    5.8471    1.4345   -1.1212 C   0  0  0  0  0  0  0  0  0  0  0  0
    4.3926    1.1814   -1.3161 C   0  0  0  0  0  0  0  0  0  0  0  0
    7.8837    0.7291   -0.0913 N   0  0  0  0  0  0  0  0  0  0  0  0
    8.7188   -0.2025    0.5495 C   0  0  0  0  0  0  0  0  0  0  0  0
   10.1143   -0.3042    0.0515 C   0  0  0  0  0  0  0  0  0  0  0  0
   10.6290    0.8802   -0.5554 N   0  0  0  0  0  0  0  0  0  0  0  0
   11.2947    1.7344    0.3787 C   0  0  0  0  0  0  0  0  0  0  0  0
    9.7021    1.5486   -1.4094 C   0  0  0  0  0  0  0  0  0  0  0  0
    8.4255    1.8875   -0.6197 C   0  0  0  0  0  0  0  0  0  0  0  0
    0.2465    3.2338   -2.6171 H   0  0  0  0  0  0  0  0  0  0  0  0
    0.2089    1.8220   -3.8032 H   0  0  0  0  0  0  0  0  0  0  0  0
   -1.2657    2.7411   -3.4217 H   0  0  0  0  0  0  0  0  0  0  0  0
    1.9575    1.8073   -1.7403 H   0  0  0  0  0  0  0  0  0  0  0  0
    2.3846   -0.5415    1.7503 H   0  0  0  0  0  0  0  0  0  0  0  0
    0.0469   -0.9165    1.8210 H   0  0  0  0  0  0  0  0  0  0  0  0
   -2.4035    0.7132   -0.6204 H   0  0  0  0  0  0  0  0  0  0  0  0
   -2.3413   -3.2212    3.0928 H   0  0  0  0  0  0  0  0  0  0  0  0
   -6.6935   -2.3160    1.7869 H   0  0  0  0  0  0  0  0  0  0  0  0
   -5.4061    0.5582   -0.3642 H   0  0  0  0  0  0  0  0  0  0  0  0
   -6.8492    1.9215   -1.6878 H   0  0  0  0  0  0  0  0  0  0  0  0
   -9.2521    1.5099   -1.7761 H   0  0  0  0  0  0  0  0  0  0  0  0
  -10.1903   -0.2916   -0.5185 H   0  0  0  0  0  0  0  0  0  0  0  0
  -11.1233   -3.3223    1.6450 H   0  0  0  0  0  0  0  0  0  0  0  0
  -12.0381   -2.1128   -0.7492 H   0  0  0  0  0  0  0  0  0  0  0  0
  -10.2922   -2.6171   -1.0663 H   0  0  0  0  0  0  0  0  0  0  0  0
  -11.4791   -3.8002   -0.5026 H   0  0  0  0  0  0  0  0  0  0  0  0
  -10.7157   -0.4855    1.9743 H   0  0  0  0  0  0  0  0  0  0  0  0
  -12.1451   -1.5203    2.4145 H   0  0  0  0  0  0  0  0  0  0  0  0
  -12.1033   -0.7479    0.8067 H   0  0  0  0  0  0  0  0  0  0  0  0
    4.0795    0.4867    2.0356 H   0  0  0  0  0  0  0  0  0  0  0  0
    4.9074    1.8805    1.3387 H   0  0  0  0  0  0  0  0  0  0  0  0
    5.6276   -1.0363    0.9737 H   0  0  0  0  0  0  0  0  0  0  0  0
    6.5299    0.2608    1.7987 H   0  0  0  0  0  0  0  0  0  0  0  0
    6.5477   -0.5641   -0.9901 H   0  0  0  0  0  0  0  0  0  0  0  0
    5.9603    2.4412   -0.6731 H   0  0  0  0  0  0  0  0  0  0  0  0
    6.3078    1.4737   -2.1310 H   0  0  0  0  0  0  0  0  0  0  0  0
    4.1668    0.4133   -2.0890 H   0  0  0  0  0  0  0  0  0  0  0  0
    3.9556    2.1402   -1.7222 H   0  0  0  0  0  0  0  0  0  0  0  0
    8.7806    0.0682    1.6428 H   0  0  0  0  0  0  0  0  0  0  0  0
    8.1963   -1.1966    0.5487 H   0  0  0  0  0  0  0  0  0  0  0  0
   10.1597   -1.1121   -0.7268 H   0  0  0  0  0  0  0  0  0  0  0  0
   10.8288   -0.6578    0.8487 H   0  0  0  0  0  0  0  0  0  0  0  0
   11.0206    1.5460    1.4354 H   0  0  0  0  0  0  0  0  0  0  0  0
   11.1782    2.8018    0.1077 H   0  0  0  0  0  0  0  0  0  0  0  0
   12.3969    1.5204    0.3048 H   0  0  0  0  0  0  0  0  0  0  0  0
    9.4852    1.0059   -2.3395 H   0  0  0  0  0  0  0  0  0  0  0  0
   10.1432    2.5374   -1.6889 H   0  0  0  0  0  0  0  0  0  0  0  0
    8.7879    2.6250    0.1623 H   0  0  0  0  0  0  0  0  0  0  0  0
    7.8229    2.5017   -1.3077 H   0  0  0  0  0  0  0  0  0  0  0  0
  1  2  1  0
  2  3  1  0
  3  4  2  0
  4  5  1  0
  5  6  2  0
  6  7  1  0
  7  8  2  0
  8  9  1  0
  9 10  1  0
 10 11  2  0
 11 12  1  0
 12 13  2  0
 13 14  1  0
 13 15  1  0
 15 16  1  0
 16 17  1  0
 17 18  2  0
 18 19  1  0
 19 20  2  0
 20 21  1  0
 21 22  2  0
 22 23  1  0
 23 24  2  0
 23 25  2  0
 23 26  1  0
 26 27  1  0
 26 28  1  0
 15 29  2  0
  5 30  1  0
 30 31  1  0
 31 32  1  0
 32 33  1  0
 33 34  1  0
 34 35  1  0
 33 36  1  0
 36 37  1  0
 37 38  1  0
 38 39  1  0
 39 40  1  0
 39 41  1  0
 41 42  1  0
  8  3  1  0
 29 10  1  0
 35 30  1  0
 42 36  1  0
 22 17  1  0
  1 43  1  0
  1 44  1  0
  1 45  1  0
  4 46  1  0
  6 47  1  0
  7 48  1  0
  9 49  1  0
 12 50  1  0
 16 51  1  0
 18 52  1  0
 19 53  1  0
 20 54  1  0
 21 55  1  0
 26 56  1  0
 27 57  1  0
 27 58  1  0
 27 59  1  0
 28 60  1  0
 28 61  1  0
 28 62  1  0
 31 63  1  0
 31 64  1  0
 32 65  1  0
 32 66  1  0
 33 67  1  0
 34 68  1  0
 34 69  1  0
 35 70  1  0
 35 71  1  0
 37 72  1  0
 37 73  1  0
 38 74  1  0
 38 75  1  0
 40 76  1  0
 40 77  1  0
 40 78  1  0
 41 79  1  0
 41 80  1  0
 42 81  1  0
 42 82  1  0
M  END
$$$$
[H]Oc1c([H])c([H])c(-c2c([H])nc([H])c(-c3c([H])c([H])c4nc([H])c([H])c([H])c4c3[H])c2[H])c([H])c1[H]
     RDKit          3D

 37 40  0  0  0  0  0  0  0  0999 V2000
   -6.7044    1.3555   -0.1496 O   0  0  0  0  0  0  0  0  0  0  0  0
   -5.4915    0.6564   -0.1736 C   0  0  0  0  0  0  0  0  0  0  0  0
   -5.3526   -0.4686   -0.9553 C   0  0  0  0  0  0  0  0  0  0  0  0
   -4.1576   -1.1356   -0.9621 C   0  0  0  0  0  0  0  0  0  0  0  0
   -3.1207   -0.6699   -0.1895 C   0  0  0  0  0  0  0  0  0  0  0  0
   -3.2708    0.4583    0.5901 C   0  0  0  0  0  0  0  0  0  0  0  0
   -4.4587    1.1237    0.5989 C   0  0  0  0  0  0  0  0  0  0  0  0
   -1.8365   -1.3615   -0.1603 C   0  0  0  0  0  0  0  0  0  0  0  0
   -1.8473   -2.7378   -0.3128 C   0  0  0  0  0  0  0  0  0  0  0  0
   -0.6638   -3.3730   -0.2808 N   0  0  0  0  0  0  0  0  0  0  0  0
    0.5058   -2.7292   -0.1103 C   0  0  0  0  0  0  0  0  0  0  0  0
    0.5671   -1.3564    0.0446 C   0  0  0  0  0  0  0  0  0  0  0  0
   -0.6268   -0.6796    0.0172 C   0  0  0  0  0  0  0  0  0  0  0  0
    1.8589   -0.6891    0.2301 C   0  0  0  0  0  0  0  0  0  0  0  0
    2.8799   -1.3350    0.8991 C   0  0  0  0  0  0  0  0  0  0  0  0
    4.1027   -0.7841    1.0861 C   0  0  0  0  0  0  0  0  0  0  0  0
    4.3507    0.4863    0.5872 C   0  0  0  0  0  0  0  0  0  0  0  0
    5.5814    0.9930    0.7910 N   0  0  0  0  0  0  0  0  0  0  0  0
    5.8747    2.2078    0.3281 C   0  0  0  0  0  0  0  0  0  0  0  0
    4.9174    2.9096   -0.3436 C   0  0  0  0  0  0  0  0  0  0  0  0
    3.6372    2.4256   -0.5759 C   0  0  0  0  0  0  0  0  0  0  0  0
    3.3454    1.1613   -0.0887 C   0  0  0  0  0  0  0  0  0  0  0  0
    2.1090    0.5753   -0.2644 C   0  0  0  0  0  0  0  0  0  0  0  0
   -6.8321    2.1747    0.4103 H   0  0  0  0  0  0  0  0  0  0  0  0
   -6.2154   -0.7932   -1.5519 H   0  0  0  0  0  0  0  0  0  0  0  0
   -4.0648   -2.0219   -1.5872 H   0  0  0  0  0  0  0  0  0  0  0  0
   -2.4565    0.8201    1.1935 H   0  0  0  0  0  0  0  0  0  0  0  0
   -4.5396    2.0132    1.2339 H   0  0  0  0  0  0  0  0  0  0  0  0
   -2.7935   -3.2548   -0.4515 H   0  0  0  0  0  0  0  0  0  0  0  0
    1.4740   -3.2506   -0.0841 H   0  0  0  0  0  0  0  0  0  0  0  0
   -0.6315    0.3805    0.1329 H   0  0  0  0  0  0  0  0  0  0  0  0
    2.6872   -2.3376    1.2974 H   0  0  0  0  0  0  0  0  0  0  0  0
    4.9121   -1.3051    1.6205 H   0  0  0  0  0  0  0  0  0  0  0  0
    6.8855    2.5654    0.5220 H   0  0  0  0  0  0  0  0  0  0  0  0
    5.1715    3.8914   -0.7126 H   0  0  0  0  0  0  0  0  0  0  0  0
    2.8908    2.9840   -1.1049 H   0  0  0  0  0  0  0  0  0  0  0  0
    1.3129    1.1008   -0.7943 H   0  0  0  0  0  0  0  0  0  0  0  0
  1  2  1  0
  2  3  2  0
  3  4  1  0
  4  5  2  0
  5  6  1  0
  6  7  2  0
  5  8  1  0
  8  9  2  0
  9 10  1  0
 10 11  2  0
 11 12  1  0
 12 13  2  0
 12 14  1  0
 14 15  2  0
 15 16  1  0
 16 17  2  0
 17 18  1  0
 18 19  2  0
 19 20  1  0
 20 21  2  0
 21 22  1  0
 22 23  2  0
  7  2  1  0
 13  8  1  0
 23 14  1  0
 22 17  1  0
  1 24  1  0
  3 25  1  0
  4 26  1  0
  6 27  1  0
  7 28  1  0
  9 29  1  0
 11 30  1  0
 13 31  1  0
 15 32  1  0
 16 33  1  0
 19 34  1  0
 20 35  1  0
 21 36  1  0
 23 37  1  0
M  END
$$$$
[H]/C(=C1/C(=O)N([H])c2c([H])c([H])c(F)c([H])c21)c1c(C([H])([H])[H])c(C(=O)N2C([H])([H])C([H])([H])N(C([H])([H])[H])C([H])([H])C2([H])[H])c(C([H])([H])[H])n1[H]
     RDKit          3D

 51 54  0  0  0  0  0  0  0  0999 V2000
   -5.6108    1.9102    1.3940 C   0  0  0  0  0  0  0  0  0  0  0  0
   -4.6788    1.1910    0.5564 N   0  0  0  0  0  0  0  0  0  0  0  0
   -3.3449    1.1334    1.0663 C   0  0  0  0  0  0  0  0  0  0  0  0
   -2.7173   -0.2405    0.9707 C   0  0  0  0  0  0  0  0  0  0  0  0
   -3.0673   -0.9357   -0.2412 N   0  0  0  0  0  0  0  0  0  0  0  0
   -4.4277   -0.8911   -0.7092 C   0  0  0  0  0  0  0  0  0  0  0  0
   -5.2624   -0.0965    0.2678 C   0  0  0  0  0  0  0  0  0  0  0  0
   -2.0845   -1.6576   -0.9632 C   0  0  0  0  0  0  0  0  0  0  0  0
   -2.3868   -2.2794   -2.0379 O   0  0  0  0  0  0  0  0  0  0  0  0
   -0.6899   -1.7526   -0.5589 C   0  0  0  0  0  0  0  0  0  0  0  0
   -0.1078   -2.7006    0.2621 C   0  0  0  0  0  0  0  0  0  0  0  0
   -0.8334   -3.8302    0.9028 C   0  0  0  0  0  0  0  0  0  0  0  0
    1.1946   -2.4310    0.3774 N   0  0  0  0  0  0  0  0  0  0  0  0
    1.5184   -1.3401   -0.3306 C   0  0  0  0  0  0  0  0  0  0  0  0
    2.8526   -0.8037   -0.4682 C   0  0  0  0  0  0  0  0  0  0  0  0
    3.2913    0.3052    0.1056 C   0  0  0  0  0  0  0  0  0  0  0  0
    2.5366    1.1844    0.9785 C   0  0  0  0  0  0  0  0  0  0  0  0
    1.3511    1.0203    1.3573 O   0  0  0  0  0  0  0  0  0  0  0  0
    3.4148    2.2688    1.3213 N   0  0  0  0  0  0  0  0  0  0  0  0
    4.6606    2.0524    0.6778 C   0  0  0  0  0  0  0  0  0  0  0  0
    5.8428    2.7971    0.6785 C   0  0  0  0  0  0  0  0  0  0  0  0
    6.9534    2.3937   -0.0313 C   0  0  0  0  0  0  0  0  0  0  0  0
    6.9136    1.2207   -0.7706 C   0  0  0  0  0  0  0  0  0  0  0  0
    8.0171    0.8200   -1.4766 F   0  0  0  0  0  0  0  0  0  0  0  0
    5.7520    0.4919   -0.7693 C   0  0  0  0  0  0  0  0  0  0  0  0
    4.6402    0.8920   -0.0613 C   0  0  0  0  0  0  0  0  0  0  0  0
    0.3634   -0.9055   -0.9193 C   0  0  0  0  0  0  0  0  0  0  0  0
    0.1748    0.2321   -1.8321 C   0  0  0  0  0  0  0  0  0  0  0  0
   -5.1444    2.3057    2.3279 H   0  0  0  0  0  0  0  0  0  0  0  0
   -6.4553    1.2493    1.7495 H   0  0  0  0  0  0  0  0  0  0  0  0
   -6.1395    2.7277    0.8285 H   0  0  0  0  0  0  0  0  0  0  0  0
   -2.6558    1.8757    0.5805 H   0  0  0  0  0  0  0  0  0  0  0  0
   -3.3759    1.4494    2.1399 H   0  0  0  0  0  0  0  0  0  0  0  0
   -1.6200   -0.1599    1.1096 H   0  0  0  0  0  0  0  0  0  0  0  0
   -3.1391   -0.8280    1.8375 H   0  0  0  0  0  0  0  0  0  0  0  0
   -4.8972   -1.8906   -0.8129 H   0  0  0  0  0  0  0  0  0  0  0  0
   -4.5205   -0.3977   -1.7163 H   0  0  0  0  0  0  0  0  0  0  0  0
   -5.4846   -0.6708    1.1921 H   0  0  0  0  0  0  0  0  0  0  0  0
   -6.2380    0.1224   -0.2559 H   0  0  0  0  0  0  0  0  0  0  0  0
   -1.8975   -3.8568    0.6148 H   0  0  0  0  0  0  0  0  0  0  0  0
   -0.3928   -4.7753    0.4728 H   0  0  0  0  0  0  0  0  0  0  0  0
   -0.6835   -3.8222    2.0002 H   0  0  0  0  0  0  0  0  0  0  0  0
    1.8743   -2.9829    0.9365 H   0  0  0  0  0  0  0  0  0  0  0  0
    3.6126   -1.3194   -1.0910 H   0  0  0  0  0  0  0  0  0  0  0  0
    3.1476    3.0632    1.9408 H   0  0  0  0  0  0  0  0  0  0  0  0
    5.8261    3.7153    1.2755 H   0  0  0  0  0  0  0  0  0  0  0  0
    7.8567    2.9793   -0.0207 H   0  0  0  0  0  0  0  0  0  0  0  0
    5.7101   -0.4190   -1.3388 H   0  0  0  0  0  0  0  0  0  0  0  0
   -0.5183   -0.0872   -2.6346 H   0  0  0  0  0  0  0  0  0  0  0  0
    1.0974    0.5652   -2.3404 H   0  0  0  0  0  0  0  0  0  0  0  0
   -0.2283    1.1079   -1.2574 H   0  0  0  0  0  0  0  0  0  0  0  0
  1  2  1  0
  2  3  1  0
  3  4  1  0
  4  5  1  0
  5  6  1  0
  6  7  1  0
  5  8  1  0
  8  9  2  0
  8 10  1  0
 10 11  2  0
 11 12  1  0
 11 13  1  0
 13 14  1  0
 14 15  1  0
 15 16  2  0
 16 17  1  0
 17 18  2  0
 17 19  1  0
 19 20  1  0
 20 21  2  0
 21 22  1  0
 22 23  2  0
 23 24  1  0
 23 25  1  0
 25 26  2  0
 14 27  2  0
 27 28  1  0
  7  2  1  0
 27 10  1  0
 26 16  1  0
 26 20  1  0
  1 29  1  0
  1 30  1  0
  1 31  1  0
  3 32  1  0
  3 33  1  0
  4 34  1  0
  4 35  1  0
  6 36  1  0
  6 37  1  0
  7 38  1  0
  7 39  1  0
 12 40  1  0
 12 41  1  0
 12 42  1  0
 13 43  1  0
 15 44  1  0
 19 45  1  0
 21 46  1  0
 22 47  1  0
 25 48  1  0
 28 49  1  0
 28 50  1  0
 28 51  1  0
M  END
$$$$
[H]c1c([H])c([H])c2c(c1[H])c1c3c(c4c5c([H])c([H])c([H])c([H])c5n5c4c1n2[C@]1([H])O[C@]5(C([H])([H])[H])[C@@]([H])(OC([H])([H])[H])[C@]([H])(N([H])C([H])([H])[H])C1([H])[H])C([H])([H])N([H])C3=O
     RDKit          3D

 61 68  0  0  0  0  0  0  0  0999 V2000
   -5.0032    2.3015   -0.0847 C   0  0  0  0  0  0  0  0  0  0  0  0
   -4.2911    1.1206   -0.5239 N   0  0  0  0  0  0  0  0  0  0  0  0
   -3.1564    0.9314    0.3042 C   0  0  2  0  0  0  0  0  0  0  0  0
   -2.1540    2.1226    0.1663 C   0  0  0  0  0  0  0  0  0  0  0  0
   -0.9665    1.4540   -0.0205 C   0  0  1  0  0  0  0  0  0  0  0  0
   -1.1415    0.7448   -1.1981 O   0  0  0  0  0  0  0  0  0  0  0  0
   -1.4119   -0.5987   -0.7868 C   0  0  2  0  0  0  0  0  0  0  0  0
   -1.8712   -1.2254   -2.1322 C   0  0  0  0  0  0  0  0  0  0  0  0
   -2.4889   -0.4501    0.1598 C   0  0  1  0  0  0  0  0  0  0  0  0
   -2.3890   -1.1153    1.3880 O   0  0  0  0  0  0  0  0  0  0  0  0
   -3.3269   -2.1274    1.5521 C   0  0  0  0  0  0  0  0  0  0  0  0
   -0.1378   -1.2020   -0.4914 N   0  0  0  0  0  0  0  0  0  0  0  0
    0.1616   -2.5344   -0.6109 C   0  0  0  0  0  0  0  0  0  0  0  0
   -0.5901   -3.6465   -0.8619 C   0  0  0  0  0  0  0  0  0  0  0  0
    0.0056   -4.9014   -0.9123 C   0  0  0  0  0  0  0  0  0  0  0  0
    1.3589   -5.0700   -0.7130 C   0  0  0  0  0  0  0  0  0  0  0  0
    2.1437   -3.9569   -0.4556 C   0  0  0  0  0  0  0  0  0  0  0  0
    1.5172   -2.7445   -0.4151 C   0  0  0  0  0  0  0  0  0  0  0  0
    2.0596   -1.5148   -0.1645 C   0  0  0  0  0  0  0  0  0  0  0  0
    3.3310   -1.0167    0.0798 C   0  0  0  0  0  0  0  0  0  0  0  0
    4.6039   -1.7769    0.1721 C   0  0  0  0  0  0  0  0  0  0  0  0
    5.6037   -0.7850    0.4503 N   0  0  0  0  0  0  0  0  0  0  0  0
    5.0034    0.5280    0.5134 C   0  0  0  0  0  0  0  0  0  0  0  0
    5.7188    1.5160    0.7371 O   0  0  0  0  0  0  0  0  0  0  0  0
    3.6006    0.3262    0.2783 C   0  0  0  0  0  0  0  0  0  0  0  0
    2.5644    1.2461    0.2408 C   0  0  0  0  0  0  0  0  0  0  0  0
    2.4247    2.5831    0.4378 C   0  0  0  0  0  0  0  0  0  0  0  0
    3.2960    3.5951    0.7015 C   0  0  0  0  0  0  0  0  0  0  0  0
    2.7602    4.8881    0.8432 C   0  0  0  0  0  0  0  0  0  0  0  0
    1.4157    5.1498    0.7252 C   0  0  0  0  0  0  0  0  0  0  0  0
    0.5372    4.1127    0.4564 C   0  0  0  0  0  0  0  0  0  0  0  0
    1.0796    2.8483    0.3203 C   0  0  0  0  0  0  0  0  0  0  0  0
    0.4024    1.7469    0.0621 N   0  0  0  0  0  0  0  0  0  0  0  0
    1.3106    0.7318   -0.0025 C   0  0  0  0  0  0  0  0  0  0  0  0
    1.0507   -0.6266   -0.2113 C   0  0  0  0  0  0  0  0  0  0  0  0
   -4.4222    3.2206   -0.0758 H   0  0  0  0  0  0  0  0  0  0  0  0
   -5.9751    2.4312   -0.6421 H   0  0  0  0  0  0  0  0  0  0  0  0
   -5.3325    2.1331    0.9827 H   0  0  0  0  0  0  0  0  0  0  0  0
   -4.9231    0.3185   -0.4524 H   0  0  0  0  0  0  0  0  0  0  0  0
   -3.5204    0.9543    1.3717 H   0  0  0  0  0  0  0  0  0  0  0  0
   -2.2319    2.7634    1.0681 H   0  0  0  0  0  0  0  0  0  0  0  0
   -2.5549    2.7584   -0.6810 H   0  0  0  0  0  0  0  0  0  0  0  0
   -1.0177    0.7572    0.9341 H   0  0  0  0  0  0  0  0  0  0  0  0
   -2.1640   -0.4180   -2.8609 H   0  0  0  0  0  0  0  0  0  0  0  0
   -1.0623   -1.7738   -2.6232 H   0  0  0  0  0  0  0  0  0  0  0  0
   -2.8063   -1.7859   -1.9703 H   0  0  0  0  0  0  0  0  0  0  0  0
   -3.3692   -1.0206   -0.3155 H   0  0  0  0  0  0  0  0  0  0  0  0
   -4.3685   -1.7465    1.5031 H   0  0  0  0  0  0  0  0  0  0  0  0
   -3.1360   -2.7642    2.4105 H   0  0  0  0  0  0  0  0  0  0  0  0
   -3.2309   -2.7727    0.6280 H   0  0  0  0  0  0  0  0  0  0  0  0
   -1.6587   -3.5713   -1.0137 H   0  0  0  0  0  0  0  0  0  0  0  0
   -0.5879   -5.7740   -1.1105 H   0  0  0  0  0  0  0  0  0  0  0  0
    1.8233   -6.0462   -0.7522 H   0  0  0  0  0  0  0  0  0  0  0  0
    3.2016   -4.0714   -0.2980 H   0  0  0  0  0  0  0  0  0  0  0  0
    4.5688   -2.4736    1.0276 H   0  0  0  0  0  0  0  0  0  0  0  0
    4.8295   -2.3223   -0.7651 H   0  0  0  0  0  0  0  0  0  0  0  0
    6.6092   -1.0259    0.5823 H   0  0  0  0  0  0  0  0  0  0  0  0
    4.3503    3.4578    0.8021 H   0  0  0  0  0  0  0  0  0  0  0  0
    3.4660    5.6873    1.0540 H   0  0  0  0  0  0  0  0  0  0  0  0
    1.0161    6.1615    0.8387 H   0  0  0  0  0  0  0  0  0  0  0  0
   -0.5241    4.2689    0.3538 H   0  0  0  0  0  0  0  0  0  0  0  0
  1  2  1  0
  2  3  1  0
  3  4  1  0
  4  5  1  0
  5  6  1  0
  6  7  1  0
  7  8  1  6
  7  9  1  0
  9 10  1  0
 10 11  1  0
  7 12  1  0
 12 13  1  0
 13 14  2  0
 14 15  1  0
 15 16  2  0
 16 17  1  0
 17 18  2  0
 18 19  1  0
 19 20  2  0
 20 21  1  0
 21 22  1  0
 22 23  1  0
 23 24  2  0
 23 25  1  0
 25 26  2  0
 26 27  1  0
 27 28  2  0
 28 29  1  0
 29 30  2  0
 30 31  1  0
 31 32  2  0
 32 33  1  0
 33 34  1  0
 34 35  2  0
  9  3  1  0
 35 12  1  0
 33  5  1  0
 18 13  1  0
 35 19  1  0
 25 20  1  0
 34 26  1  0
 32 27  1  0
  1 36  1  0
  1 37  1  0
  1 38  1  0
  2 39  1  0
  3 40  1  1
  4 41  1  0
  4 42  1  0
  5 43  1  1
  8 44  1  0
  8 45  1  0
  8 46  1  0
  9 47  1  6
 11 48  1  0
 11 49  1  0
 11 50  1  0
 14 51  1  0
 15 52  1  0
 16 53  1  0
 17 54  1  0
 21 55  1  0
 21 56  1  0
 22 57  1  0
 28 58  1  0
 29 59  1  0
 30 60  1  0
 31 61  1  0
M  END
$$$$
[H]Oc1c([H])c([H])c(N([H])c2nc([H])c3nnn(-c4c([H])c([H])c(OC([H])([H])C([H])([H])N5C([H])([H])C([H])([H])OC([H])([H])C5([H])[H])c([H])c4[H])c3n2)c([H])c1[H]
     RDKit          3D

 55 59  0  0  0  0  0  0  0  0999 V2000
   -5.2752    4.0689    0.2172 O   0  0  0  0  0  0  0  0  0  0  0  0
   -5.4394    2.6795    0.2093 C   0  0  0  0  0  0  0  0  0  0  0  0
   -6.6445    2.0911    0.5365 C   0  0  0  0  0  0  0  0  0  0  0  0
   -6.7806    0.7186    0.5209 C   0  0  0  0  0  0  0  0  0  0  0  0
   -5.7262   -0.1273    0.1799 C   0  0  0  0  0  0  0  0  0  0  0  0
   -5.9258   -1.4996    0.1662 N   0  0  0  0  0  0  0  0  0  0  0  0
   -5.0085   -2.5579    0.1013 C   0  0  0  0  0  0  0  0  0  0  0  0
   -5.4844   -3.8288    0.0940 N   0  0  0  0  0  0  0  0  0  0  0  0
   -4.7274   -4.9236    0.0468 C   0  0  0  0  0  0  0  0  0  0  0  0
   -3.3575   -4.7796    0.0013 C   0  0  0  0  0  0  0  0  0  0  0  0
   -2.3014   -5.5993   -0.0524 N   0  0  0  0  0  0  0  0  0  0  0  0
   -1.2008   -4.8658   -0.0782 N   0  0  0  0  0  0  0  0  0  0  0  0
   -1.5255   -3.5686   -0.0413 N   0  0  0  0  0  0  0  0  0  0  0  0
   -0.6084   -2.4825   -0.0535 C   0  0  0  0  0  0  0  0  0  0  0  0
   -0.6837   -1.4102    0.8057 C   0  0  0  0  0  0  0  0  0  0  0  0
    0.2558   -0.4039    0.7165 C   0  0  0  0  0  0  0  0  0  0  0  0
    1.2887   -0.4007   -0.1970 C   0  0  0  0  0  0  0  0  0  0  0  0
    2.2230    0.6161   -0.2736 O   0  0  0  0  0  0  0  0  0  0  0  0
    3.2426    0.5517   -1.2259 C   0  0  0  0  0  0  0  0  0  0  0  0
    4.1757    1.7260   -1.1840 C   0  0  0  0  0  0  0  0  0  0  0  0
    4.8544    1.9060    0.0403 N   0  0  0  0  0  0  0  0  0  0  0  0
    5.8193    0.9313    0.3965 C   0  0  0  0  0  0  0  0  0  0  0  0
    7.1260    1.3062   -0.3123 C   0  0  0  0  0  0  0  0  0  0  0  0
    7.3177    2.6718   -0.3070 O   0  0  0  0  0  0  0  0  0  0  0  0
    6.6416    3.3146    0.7226 C   0  0  0  0  0  0  0  0  0  0  0  0
    5.1394    3.2442    0.4219 C   0  0  0  0  0  0  0  0  0  0  0  0
    1.3566   -1.4908   -1.0629 C   0  0  0  0  0  0  0  0  0  0  0  0
    0.4195   -2.4950   -0.9738 C   0  0  0  0  0  0  0  0  0  0  0  0
   -2.8658   -3.4803    0.0087 C   0  0  0  0  0  0  0  0  0  0  0  0
   -3.6845   -2.4174    0.0574 N   0  0  0  0  0  0  0  0  0  0  0  0
   -4.5457    0.4671   -0.1400 C   0  0  0  0  0  0  0  0  0  0  0  0
   -4.3847    1.8632   -0.1307 C   0  0  0  0  0  0  0  0  0  0  0  0
   -5.4721    4.5683   -0.6533 H   0  0  0  0  0  0  0  0  0  0  0  0
   -7.4921    2.6984    0.8079 H   0  0  0  0  0  0  0  0  0  0  0  0
   -7.7721    0.3259    0.7933 H   0  0  0  0  0  0  0  0  0  0  0  0
   -6.9736   -1.7894    0.2092 H   0  0  0  0  0  0  0  0  0  0  0  0
   -5.1234   -5.9310    0.0409 H   0  0  0  0  0  0  0  0  0  0  0  0
   -1.4920   -1.3742    1.5505 H   0  0  0  0  0  0  0  0  0  0  0  0
    0.1944    0.4424    1.3979 H   0  0  0  0  0  0  0  0  0  0  0  0
    2.7572    0.5578   -2.2309 H   0  0  0  0  0  0  0  0  0  0  0  0
    3.7598   -0.4187   -1.1406 H   0  0  0  0  0  0  0  0  0  0  0  0
    4.9023    1.6346   -2.0071 H   0  0  0  0  0  0  0  0  0  0  0  0
    3.5668    2.6294   -1.3929 H   0  0  0  0  0  0  0  0  0  0  0  0
    6.0300    0.9581    1.4805 H   0  0  0  0  0  0  0  0  0  0  0  0
    5.5296   -0.0461    0.0146 H   0  0  0  0  0  0  0  0  0  0  0  0
    7.0879    0.9847   -1.3839 H   0  0  0  0  0  0  0  0  0  0  0  0
    7.9964    0.7904    0.1305 H   0  0  0  0  0  0  0  0  0  0  0  0
    6.8201    2.8323    1.6942 H   0  0  0  0  0  0  0  0  0  0  0  0
    6.9300    4.3843    0.7037 H   0  0  0  0  0  0  0  0  0  0  0  0
    4.5338    3.6246    1.2493 H   0  0  0  0  0  0  0  0  0  0  0  0
    4.9492    3.9112   -0.4551 H   0  0  0  0  0  0  0  0  0  0  0  0
    2.1464   -1.5365   -1.7988 H   0  0  0  0  0  0  0  0  0  0  0  0
    0.5192   -3.3183   -1.6687 H   0  0  0  0  0  0  0  0  0  0  0  0
   -3.6498   -0.0620   -0.4315 H   0  0  0  0  0  0  0  0  0  0  0  0
   -3.4384    2.3090   -0.3875 H   0  0  0  0  0  0  0  0  0  0  0  0
  1  2  1  0
  2  3  2  0
  3  4  1  0
  4  5  2  0
  5  6  1  0
  6  7  1  0
  7  8  2  0
  8  9  1  0
  9 10  2  0
 10 11  1  0
 11 12  2  0
 12 13  1  0
 13 14  1  0
 14 15  2  0
 15 16  1  0
 16 17  2  0
 17 18  1  0
 18 19  1  0
 19 20  1  0
 20 21  1  0
 21 22  1  0
 22 23  1  0
 23 24  1  0
 24 25  1  0
 25 26  1  0
 17 27  1  0
 27 28  2  0
 13 29  1  0
 29 30  2  0
  5 31  1  0
 31 32  2  0
 32  2  1  0
 30  7  1  0
 29 10  1  0
 28 14  1  0
 26 21  1  0
  1 33  1  0
  3 34  1  0
  4 35  1  0
  6 36  1  0
  9 37  1  0
 15 38  1  0
 16 39  1  0
 19 40  1  0
 19 41  1  0
 20 42  1  0
 20 43  1  0
 22 44  1  0
 22 45  1  0
 23 46  1  0
 23 47  1  0
 25 48  1  0
 25 49  1  0
 26 50  1  0
 26 51  1  0
 27 52  1  0
 28 53  1  0
 31 54  1  0
 32 55  1  0
M  END
$$$$
[H]c1nc(N([H])c2c([H])c(C([H])([H])[H])c(C(=O)N([H])C([H])([H])[H])c([H])c2F)nc(-c2c([H])nn3c([H])c([H])c(C(=O)N([H])[H])c([H])c23)c1[H]
     RDKit          3D

 49 52  0  0  0  0  0  0  0  0999 V2000
   -8.0610   -1.6593    1.7786 C   0  0  0  0  0  0  0  0  0  0  0  0
   -6.7973   -1.3860    1.0883 N   0  0  0  0  0  0  0  0  0  0  0  0
   -5.6402   -1.1320    1.8393 C   0  0  0  0  0  0  0  0  0  0  0  0
   -5.7830   -1.1763    3.1311 O   0  0  0  0  0  0  0  0  0  0  0  0
   -4.3023   -0.8345    1.3873 C   0  0  0  0  0  0  0  0  0  0  0  0
   -3.2284   -1.5415    1.9721 C   0  0  0  0  0  0  0  0  0  0  0  0
   -1.9494   -1.3878    1.5439 C   0  0  0  0  0  0  0  0  0  0  0  0
   -0.9421   -2.0793    2.1288 F   0  0  0  0  0  0  0  0  0  0  0  0
   -1.6207   -0.5171    0.4924 C   0  0  0  0  0  0  0  0  0  0  0  0
   -0.2758   -0.3945    0.1377 N   0  0  0  0  0  0  0  0  0  0  0  0
    0.2965    0.2878   -0.9599 C   0  0  0  0  0  0  0  0  0  0  0  0
   -0.4115    0.9248   -1.8882 N   0  0  0  0  0  0  0  0  0  0  0  0
    0.1134    1.5930   -2.9270 C   0  0  0  0  0  0  0  0  0  0  0  0
    1.4834    1.6247   -3.0440 C   0  0  0  0  0  0  0  0  0  0  0  0
    2.2861    0.9676   -2.0907 C   0  0  0  0  0  0  0  0  0  0  0  0
    1.6387    0.3453   -1.1157 N   0  0  0  0  0  0  0  0  0  0  0  0
    3.7306    1.0329   -2.1975 C   0  0  0  0  0  0  0  0  0  0  0  0
    4.4612    1.5809   -3.2576 C   0  0  0  0  0  0  0  0  0  0  0  0
    5.7654    1.4709   -2.9649 N   0  0  0  0  0  0  0  0  0  0  0  0
    5.9176    0.8896   -1.7867 N   0  0  0  0  0  0  0  0  0  0  0  0
    7.0427    0.5980   -1.1141 C   0  0  0  0  0  0  0  0  0  0  0  0
    6.9191   -0.0074    0.1198 C   0  0  0  0  0  0  0  0  0  0  0  0
    5.6829   -0.3106    0.6616 C   0  0  0  0  0  0  0  0  0  0  0  0
    4.5410    0.0008   -0.0534 C   0  0  0  0  0  0  0  0  0  0  0  0
    4.6677    0.6086   -1.2927 C   0  0  0  0  0  0  0  0  0  0  0  0
    5.6082   -0.9449    1.9794 C   0  0  0  0  0  0  0  0  0  0  0  0
    4.3922   -1.2996    2.6147 N   0  0  0  0  0  0  0  0  0  0  0  0
    6.6788   -1.1976    2.5983 O   0  0  0  0  0  0  0  0  0  0  0  0
   -2.6430    0.1626   -0.0695 C   0  0  0  0  0  0  0  0  0  0  0  0
   -3.9946    0.0120    0.3746 C   0  0  0  0  0  0  0  0  0  0  0  0
   -5.0095    0.8968   -0.2602 C   0  0  0  0  0  0  0  0  0  0  0  0
   -8.1380   -0.9361    2.6021 H   0  0  0  0  0  0  0  0  0  0  0  0
   -8.0534   -2.7216    2.1546 H   0  0  0  0  0  0  0  0  0  0  0  0
   -8.9276   -1.5508    1.1135 H   0  0  0  0  0  0  0  0  0  0  0  0
   -6.8610   -1.4365    0.0545 H   0  0  0  0  0  0  0  0  0  0  0  0
   -3.5022   -2.2048    2.7806 H   0  0  0  0  0  0  0  0  0  0  0  0
    0.4759   -0.8747    0.7653 H   0  0  0  0  0  0  0  0  0  0  0  0
   -0.5467    2.0858   -3.6385 H   0  0  0  0  0  0  0  0  0  0  0  0
    1.9571    2.1501   -3.8561 H   0  0  0  0  0  0  0  0  0  0  0  0
    3.9775    1.9952   -4.1196 H   0  0  0  0  0  0  0  0  0  0  0  0
    8.0111    0.8243   -1.5155 H   0  0  0  0  0  0  0  0  0  0  0  0
    7.7902   -0.2712    0.7210 H   0  0  0  0  0  0  0  0  0  0  0  0
    3.5822   -0.2409    0.3781 H   0  0  0  0  0  0  0  0  0  0  0  0
    3.6250   -0.5960    2.6200 H   0  0  0  0  0  0  0  0  0  0  0  0
    4.2085   -2.2134    3.0751 H   0  0  0  0  0  0  0  0  0  0  0  0
   -2.5081    0.8590   -0.8730 H   0  0  0  0  0  0  0  0  0  0  0  0
   -5.0617    1.7887    0.4522 H   0  0  0  0  0  0  0  0  0  0  0  0
   -5.9902    0.5057   -0.3498 H   0  0  0  0  0  0  0  0  0  0  0  0
   -4.6049    1.3675   -1.1902 H   0  0  0  0  0  0  0  0  0  0  0  0
  1  2  1  0
  2  3  1  0
  3  4  2  0
  3  5  1  0
  5  6  2  0
  6  7  1  0
  7  8  1  0
  7  9  2  0
  9 10  1  0
 10 11  1  0
 11 12  2  0
 12 13  1  0
 13 14  2  0
 14 15  1  0
 15 16  2  0
 15 17  1  0
 17 18  1  0
 18 19  2  0
 19 20  1  0
 20 21  1  0
 21 22  2  0
 22 23  1  0
 23 24  2  0
 24 25  1  0
 23 26  1  0
 26 27  1  0
 26 28  2  0
  9 29  1  0
 29 30  2  0
 30 31  1  0
 30  5  1  0
 16 11  1  0
 25 17  2  0
 25 20  1  0
  1 32  1  0
  1 33  1  0
  1 34  1  0
  2 35  1  0
  6 36  1  0
 10 37  1  0
 13 38  1  0
 14 39  1  0
 18 40  1  0
 21 41  1  0
 22 42  1  0
 24 43  1  0
 27 44  1  0
 27 45  1  0
 29 46  1  0
 31 47  1  0
 31 48  1  0
 31 49  1  0
M  END
$$$$
[H]Oc1c([H])c([H])c(-c2c([H])nc3c(c2[H])c(-c2c([H])c([H])c([H])c(O[H])c2[H])c([H])n3[H])c(O[H])c1[H]
     RDKit          3D

 38 41  0  0  0  0  0  0  0  0999 V2000
    5.3591    1.3579    2.6279 O   0  0  0  0  0  0  0  0  0  0  0  0
    4.4059    1.2567    1.6234 C   0  0  0  0  0  0  0  0  0  0  0  0
    4.1467    2.3845    0.8820 C   0  0  0  0  0  0  0  0  0  0  0  0
    3.2054    2.3037   -0.1178 C   0  0  0  0  0  0  0  0  0  0  0  0
    2.5296    1.1062   -0.3739 C   0  0  0  0  0  0  0  0  0  0  0  0
    2.7858   -0.0280    0.3668 C   0  0  0  0  0  0  0  0  0  0  0  0
    3.7384    0.0762    1.3696 C   0  0  0  0  0  0  0  0  0  0  0  0
    2.1160   -1.3023    0.1514 C   0  0  0  0  0  0  0  0  0  0  0  0
    2.7056   -2.5473    0.0819 C   0  0  0  0  0  0  0  0  0  0  0  0
    1.7506   -3.4992   -0.1336 N   0  0  0  0  0  0  0  0  0  0  0  0
    0.5529   -2.8949   -0.2050 C   0  0  0  0  0  0  0  0  0  0  0  0
   -0.6841   -3.3762   -0.4004 N   0  0  0  0  0  0  0  0  0  0  0  0
   -1.7206   -2.5243   -0.4250 C   0  0  0  0  0  0  0  0  0  0  0  0
   -1.5587   -1.1513   -0.2543 C   0  0  0  0  0  0  0  0  0  0  0  0
   -0.2913   -0.6485   -0.0532 C   0  0  0  0  0  0  0  0  0  0  0  0
    0.7661   -1.5337   -0.0299 C   0  0  0  0  0  0  0  0  0  0  0  0
   -2.6837   -0.2347   -0.2844 C   0  0  0  0  0  0  0  0  0  0  0  0
   -3.6322   -0.3461   -1.2792 C   0  0  0  0  0  0  0  0  0  0  0  0
   -4.7246    0.5246   -1.3332 C   0  0  0  0  0  0  0  0  0  0  0  0
   -4.8617    1.4983   -0.3951 C   0  0  0  0  0  0  0  0  0  0  0  0
   -5.9465    2.3851   -0.4245 O   0  0  0  0  0  0  0  0  0  0  0  0
   -3.9254    1.6215    0.6014 C   0  0  0  0  0  0  0  0  0  0  0  0
   -2.8333    0.7567    0.6616 C   0  0  0  0  0  0  0  0  0  0  0  0
   -1.9205    0.9292    1.6910 O   0  0  0  0  0  0  0  0  0  0  0  0
    6.3411    1.1771    2.4846 H   0  0  0  0  0  0  0  0  0  0  0  0
    4.6343    3.3341    1.0321 H   0  0  0  0  0  0  0  0  0  0  0  0
    2.9789    3.1827   -0.7225 H   0  0  0  0  0  0  0  0  0  0  0  0
    1.8007    1.0608   -1.1574 H   0  0  0  0  0  0  0  0  0  0  0  0
    3.9491   -0.8169    1.9626 H   0  0  0  0  0  0  0  0  0  0  0  0
    3.7598   -2.7707    0.1789 H   0  0  0  0  0  0  0  0  0  0  0  0
    1.9259   -4.5385   -0.2283 H   0  0  0  0  0  0  0  0  0  0  0  0
   -2.7423   -2.8675   -0.5804 H   0  0  0  0  0  0  0  0  0  0  0  0
   -0.1397    0.4136    0.0815 H   0  0  0  0  0  0  0  0  0  0  0  0
   -3.5993   -1.0911   -2.0632 H   0  0  0  0  0  0  0  0  0  0  0  0
   -5.4760    0.4383   -2.1191 H   0  0  0  0  0  0  0  0  0  0  0  0
   -6.6548    2.3254   -1.1418 H   0  0  0  0  0  0  0  0  0  0  0  0
   -4.0351    2.3963    1.3472 H   0  0  0  0  0  0  0  0  0  0  0  0
   -2.0219    1.6422    2.3769 H   0  0  0  0  0  0  0  0  0  0  0  0
  1  2  1  0
  2  3  2  0
  3  4  1  0
  4  5  2  0
  5  6  1  0
  6  7  2  0
  6  8  1  0
  8  9  2  0
  9 10  1  0
 10 11  1  0
 11 12  2  0
 12 13  1  0
 13 14  2  0
 14 15  1  0
 15 16  2  0
 14 17  1  0
 17 18  2  0
 18 19  1  0
 19 20  2  0
 20 21  1  0
 20 22  1  0
 22 23  2  0
 23 24  1  0
  7  2  1  0
 16  8  1  0
 23 17  1  0
 16 11  1  0
  1 25  1  0
  3 26  1  0
  4 27  1  0
  5 28  1  0
  7 29  1  0
  9 30  1  0
 10 31  1  0
 13 32  1  0
 15 33  1  0
 18 34  1  0
 19 35  1  0
 21 36  1  0
 22 37  1  0
 24 38  1  0
M  END
$$$$
[H]c1nc(N([H])c2c(OC([H])([H])[H])nc(N3C([H])([H])C([H])([H])C([H])(N4C([H])([H])C([H])([H])N(C([H])([H])[H])C([H])([H])C4([H])[H])C([H])([H])C3([H])[H])c([H])c2[H])nc(N([H])[H])c1Cl
     RDKit          3D

 59 62  0  0  0  0  0  0  0  0999 V2000
    2.4123   -2.2522   -3.1667 C   0  0  0  0  0  0  0  0  0  0  0  0
    3.1603   -1.4673   -2.2643 O   0  0  0  0  0  0  0  0  0  0  0  0
    2.6122   -1.1545   -1.0377 C   0  0  0  0  0  0  0  0  0  0  0  0
    1.4150   -1.5662   -0.6869 N   0  0  0  0  0  0  0  0  0  0  0  0
    0.8483   -1.2804    0.5012 C   0  0  0  0  0  0  0  0  0  0  0  0
    1.5720   -0.5193    1.3775 C   0  0  0  0  0  0  0  0  0  0  0  0
    2.8644   -0.0459    1.0602 C   0  0  0  0  0  0  0  0  0  0  0  0
    3.3874   -0.3646   -0.1527 C   0  0  0  0  0  0  0  0  0  0  0  0
    4.6619    0.0511   -0.5738 N   0  0  0  0  0  0  0  0  0  0  0  0
    5.5690    0.8317    0.1539 C   0  0  0  0  0  0  0  0  0  0  0  0
    5.4282    1.3369    1.3683 N   0  0  0  0  0  0  0  0  0  0  0  0
    6.3171    2.0809    2.0368 C   0  0  0  0  0  0  0  0  0  0  0  0
    7.5255    2.3817    1.4395 C   0  0  0  0  0  0  0  0  0  0  0  0
    8.7191    3.3477    2.2671 Cl  0  0  0  0  0  0  0  0  0  0  0  0
    7.7169    1.8746    0.1694 C   0  0  0  0  0  0  0  0  0  0  0  0
    8.9637    2.1868   -0.4432 N   0  0  0  0  0  0  0  0  0  0  0  0
    6.7851    1.1377   -0.4402 N   0  0  0  0  0  0  0  0  0  0  0  0
   -0.4439   -1.7311    0.8480 N   0  0  0  0  0  0  0  0  0  0  0  0
   -1.0516   -1.6156    2.1478 C   0  0  0  0  0  0  0  0  0  0  0  0
   -2.2745   -0.6858    2.0928 C   0  0  0  0  0  0  0  0  0  0  0  0
   -2.6968   -0.6714    0.6438 C   0  0  0  0  0  0  0  0  0  0  0  0
   -2.6681   -2.1110    0.1431 C   0  0  0  0  0  0  0  0  0  0  0  0
   -1.2073   -2.3620   -0.2596 C   0  0  0  0  0  0  0  0  0  0  0  0
   -4.0008   -0.1372    0.4332 N   0  0  0  0  0  0  0  0  0  0  0  0
   -4.2653   -0.1334   -0.9938 C   0  0  0  0  0  0  0  0  0  0  0  0
   -4.5950    1.2559   -1.4957 C   0  0  0  0  0  0  0  0  0  0  0  0
   -5.7387    1.7933   -0.7917 N   0  0  0  0  0  0  0  0  0  0  0  0
   -6.9292    1.2270   -1.3811 C   0  0  0  0  0  0  0  0  0  0  0  0
   -5.6395    1.5794    0.6225 C   0  0  0  0  0  0  0  0  0  0  0  0
   -4.2212    1.1479    1.0189 C   0  0  0  0  0  0  0  0  0  0  0  0
    2.7784   -2.1948   -4.1978 H   0  0  0  0  0  0  0  0  0  0  0  0
    1.3609   -1.9384   -3.0876 H   0  0  0  0  0  0  0  0  0  0  0  0
    2.4596   -3.3015   -2.7844 H   0  0  0  0  0  0  0  0  0  0  0  0
    1.2180   -0.2266    2.3515 H   0  0  0  0  0  0  0  0  0  0  0  0
    3.3684    0.5396    1.7890 H   0  0  0  0  0  0  0  0  0  0  0  0
    4.9779   -0.2629   -1.5624 H   0  0  0  0  0  0  0  0  0  0  0  0
    6.1338    2.4624    3.0325 H   0  0  0  0  0  0  0  0  0  0  0  0
    8.9798    2.4516   -1.4415 H   0  0  0  0  0  0  0  0  0  0  0  0
    9.8259    2.1447    0.1131 H   0  0  0  0  0  0  0  0  0  0  0  0
   -1.3921   -2.6457    2.4466 H   0  0  0  0  0  0  0  0  0  0  0  0
   -0.3245   -1.3129    2.8889 H   0  0  0  0  0  0  0  0  0  0  0  0
   -3.0381   -1.0687    2.7747 H   0  0  0  0  0  0  0  0  0  0  0  0
   -1.9339    0.3240    2.3951 H   0  0  0  0  0  0  0  0  0  0  0  0
   -1.9503   -0.0793    0.0837 H   0  0  0  0  0  0  0  0  0  0  0  0
   -3.3619   -2.2768   -0.6876 H   0  0  0  0  0  0  0  0  0  0  0  0
   -2.8620   -2.7715    1.0156 H   0  0  0  0  0  0  0  0  0  0  0  0
   -0.9716   -3.4156   -0.3707 H   0  0  0  0  0  0  0  0  0  0  0  0
   -1.0256   -1.7263   -1.1452 H   0  0  0  0  0  0  0  0  0  0  0  0
   -3.3519   -0.4467   -1.5796 H   0  0  0  0  0  0  0  0  0  0  0  0
   -5.0519   -0.8656   -1.2686 H   0  0  0  0  0  0  0  0  0  0  0  0
   -4.8154    1.1678   -2.5699 H   0  0  0  0  0  0  0  0  0  0  0  0
   -3.6944    1.8907   -1.3679 H   0  0  0  0  0  0  0  0  0  0  0  0
   -6.8999    1.5211   -2.4698 H   0  0  0  0  0  0  0  0  0  0  0  0
   -7.8611    1.5749   -0.8949 H   0  0  0  0  0  0  0  0  0  0  0  0
   -6.8334    0.1276   -1.3699 H   0  0  0  0  0  0  0  0  0  0  0  0
   -5.9284    2.5079    1.1729 H   0  0  0  0  0  0  0  0  0  0  0  0
   -6.3125    0.7422    0.8907 H   0  0  0  0  0  0  0  0  0  0  0  0
   -3.4796    1.8795    0.6964 H   0  0  0  0  0  0  0  0  0  0  0  0
   -4.2408    1.0645    2.1225 H   0  0  0  0  0  0  0  0  0  0  0  0
  1  2  1  0
  2  3  1  0
  3  4  2  0
  4  5  1  0
  5  6  2  0
  6  7  1  0
  7  8  2  0
  8  9  1  0
  9 10  1  0
 10 11  2  0
 11 12  1  0
 12 13  2  0
 13 14  1  0
 13 15  1  0
 15 16  1  0
 15 17  2  0
  5 18  1  0
 18 19  1  0
 19 20  1  0
 20 21  1  0
 21 22  1  0
 22 23  1  0
 21 24  1  0
 24 25  1  0
 25 26  1  0
 26 27  1  0
 27 28  1  0
 27 29  1  0
 29 30  1  0
  8  3  1  0
 17 10  1  0
 23 18  1  0
 30 24  1  0
  1 31  1  0
  1 32  1  0
  1 33  1  0
  6 34  1  0
  7 35  1  0
  9 36  1  0
 12 37  1  0
 16 38  1  0
 16 39  1  0
 19 40  1  0
 19 41  1  0
 20 42  1  0
 20 43  1  0
 21 44  1  0
 22 45  1  0
 22 46  1  0
 23 47  1  0
 23 48  1  0
 25 49  1  0
 25 50  1  0
 26 51  1  0
 26 52  1  0
 28 53  1  0
 28 54  1  0
 28 55  1  0
 29 56  1  0
 29 57  1  0
 30 58  1  0
 30 59  1  0
M  END
$$$$
[H]Oc1c([H])c(O[H])c2nc(N([H])C(=O)c3c([H])nc([H])c([H])c3[H])c(N(c3c([H])c([H])c([H])c([H])c3[H])C([H])([H])C([H])([H])[H])c([H])c2c1[H]
     RDKit          3D

 50 53  0  0  0  0  0  0  0  0999 V2000
   -1.6296   -1.6703   -3.2165 C   0  0  0  0  0  0  0  0  0  0  0  0
   -0.5238   -1.2885   -2.2465 C   0  0  0  0  0  0  0  0  0  0  0  0
   -1.0281   -1.0568   -0.9227 N   0  0  0  0  0  0  0  0  0  0  0  0
   -1.6791   -2.1009   -0.1707 C   0  0  0  0  0  0  0  0  0  0  0  0
   -3.0376   -2.3155   -0.2620 C   0  0  0  0  0  0  0  0  0  0  0  0
   -3.6211   -3.3319    0.4812 C   0  0  0  0  0  0  0  0  0  0  0  0
   -2.8777   -4.1443    1.3183 C   0  0  0  0  0  0  0  0  0  0  0  0
   -1.5210   -3.9227    1.4032 C   0  0  0  0  0  0  0  0  0  0  0  0
   -0.9547   -2.9204    0.6686 C   0  0  0  0  0  0  0  0  0  0  0  0
   -0.9124    0.2110   -0.3003 C   0  0  0  0  0  0  0  0  0  0  0  0
   -2.0731    0.9244   -0.0471 C   0  0  0  0  0  0  0  0  0  0  0  0
   -1.9699    2.1585    0.5383 C   0  0  0  0  0  0  0  0  0  0  0  0
   -3.1163    2.9059    0.8081 C   0  0  0  0  0  0  0  0  0  0  0  0
   -2.9964    4.1278    1.3886 C   0  0  0  0  0  0  0  0  0  0  0  0
   -4.1511    4.8645    1.6528 O   0  0  0  0  0  0  0  0  0  0  0  0
   -1.7642    4.6379    1.7136 C   0  0  0  0  0  0  0  0  0  0  0  0
   -0.6248    3.9011    1.4482 C   0  0  0  0  0  0  0  0  0  0  0  0
    0.6364    4.3743    1.7579 O   0  0  0  0  0  0  0  0  0  0  0  0
   -0.7236    2.6460    0.8536 C   0  0  0  0  0  0  0  0  0  0  0  0
    0.3794    1.9272    0.5942 N   0  0  0  0  0  0  0  0  0  0  0  0
    0.3315    0.6925    0.0127 C   0  0  0  0  0  0  0  0  0  0  0  0
    1.5516    0.0059   -0.2048 N   0  0  0  0  0  0  0  0  0  0  0  0
    2.8118    0.5670    0.1361 C   0  0  0  0  0  0  0  0  0  0  0  0
    2.8457    1.7382    0.6525 O   0  0  0  0  0  0  0  0  0  0  0  0
    4.0821   -0.0986   -0.0604 C   0  0  0  0  0  0  0  0  0  0  0  0
    5.2612    0.5276    0.2803 C   0  0  0  0  0  0  0  0  0  0  0  0
    6.4952   -0.1012    0.0971 C   0  0  0  0  0  0  0  0  0  0  0  0
    6.5317   -1.3725   -0.4349 C   0  0  0  0  0  0  0  0  0  0  0  0
    5.3947   -1.9921   -0.7700 N   0  0  0  0  0  0  0  0  0  0  0  0
    4.2019   -1.3660   -0.5852 C   0  0  0  0  0  0  0  0  0  0  0  0
   -2.5758   -1.1666   -3.0154 H   0  0  0  0  0  0  0  0  0  0  0  0
   -1.7114   -2.7739   -3.2237 H   0  0  0  0  0  0  0  0  0  0  0  0
   -1.3034   -1.3800   -4.2548 H   0  0  0  0  0  0  0  0  0  0  0  0
    0.2402   -2.0953   -2.2349 H   0  0  0  0  0  0  0  0  0  0  0  0
   -0.0261   -0.3695   -2.6065 H   0  0  0  0  0  0  0  0  0  0  0  0
   -3.6230   -1.6839   -0.9153 H   0  0  0  0  0  0  0  0  0  0  0  0
   -4.6818   -3.4871    0.3994 H   0  0  0  0  0  0  0  0  0  0  0  0
   -3.3074   -4.9379    1.9039 H   0  0  0  0  0  0  0  0  0  0  0  0
   -0.8770   -4.5311    2.0476 H   0  0  0  0  0  0  0  0  0  0  0  0
    0.1163   -2.7678    0.7544 H   0  0  0  0  0  0  0  0  0  0  0  0
   -3.0522    0.5560   -0.2882 H   0  0  0  0  0  0  0  0  0  0  0  0
   -4.0660    2.4650    0.5354 H   0  0  0  0  0  0  0  0  0  0  0  0
   -4.4958    5.4980    0.9382 H   0  0  0  0  0  0  0  0  0  0  0  0
   -1.7032    5.6127    2.1743 H   0  0  0  0  0  0  0  0  0  0  0  0
    0.8366    5.2482    2.1811 H   0  0  0  0  0  0  0  0  0  0  0  0
    1.5281   -0.9395   -0.6213 H   0  0  0  0  0  0  0  0  0  0  0  0
    5.2033    1.5254    0.6958 H   0  0  0  0  0  0  0  0  0  0  0  0
    7.3937    0.4288    0.3790 H   0  0  0  0  0  0  0  0  0  0  0  0
    7.5140   -1.8468   -0.5697 H   0  0  0  0  0  0  0  0  0  0  0  0
    3.2724   -1.8829   -0.8634 H   0  0  0  0  0  0  0  0  0  0  0  0
  1  2  1  0
  2  3  1  0
  3  4  1  0
  4  5  2  0
  5  6  1  0
  6  7  2  0
  7  8  1  0
  8  9  2  0
  3 10  1  0
 10 11  2  0
 11 12  1  0
 12 13  2  0
 13 14  1  0
 14 15  1  0
 14 16  2  0
 16 17  1  0
 17 18  1  0
 17 19  2  0
 19 20  1  0
 20 21  2  0
 21 22  1  0
 22 23  1  0
 23 24  2  0
 23 25  1  0
 25 26  2  0
 26 27  1  0
 27 28  2  0
 28 29  1  0
 29 30  2  0
  9  4  1  0
 21 10  1  0
 30 25  1  0
 19 12  1  0
  1 31  1  0
  1 32  1  0
  1 33  1  0
  2 34  1  0
  2 35  1  0
  5 36  1  0
  6 37  1  0
  7 38  1  0
  8 39  1  0
  9 40  1  0
 11 41  1  0
 13 42  1  0
 15 43  1  0
 16 44  1  0
 18 45  1  0
 22 46  1  0
 26 47  1  0
 27 48  1  0
 28 49  1  0
 30 50  1  0
M  END
$$$$
[H]Oc1c([H])c([H])c([H])c2c3c4c(c5c([H])c(C(=O)OC([H])([H])[H])c([H])c([H])c5c3n([H])c12)C(=O)N([H])C4=O
     RDKit          3D

 39 43  0  0  0  0  0  0  0  0999 V2000
    6.7225    1.9298    0.1822 C   0  0  0  0  0  0  0  0  0  0  0  0
    5.2876    1.9100    0.1926 O   0  0  0  0  0  0  0  0  0  0  0  0
    4.5958    0.7296    0.0478 C   0  0  0  0  0  0  0  0  0  0  0  0
    5.2284   -0.3421   -0.0950 O   0  0  0  0  0  0  0  0  0  0  0  0
    3.1360    0.7002    0.0573 C   0  0  0  0  0  0  0  0  0  0  0  0
    2.3857    1.8478    0.2108 C   0  0  0  0  0  0  0  0  0  0  0  0
    1.0115    1.7949    0.2165 C   0  0  0  0  0  0  0  0  0  0  0  0
    0.4021    0.5628    0.0645 C   0  0  0  0  0  0  0  0  0  0  0  0
   -0.9727    0.4793    0.0662 C   0  0  0  0  0  0  0  0  0  0  0  0
   -1.9072    1.4507    0.1990 N   0  0  0  0  0  0  0  0  0  0  0  0
   -3.1363    0.9138    0.1414 C   0  0  0  0  0  0  0  0  0  0  0  0
   -4.3707    1.5417    0.2330 C   0  0  0  0  0  0  0  0  0  0  0  0
   -4.4125    2.9086    0.4082 O   0  0  0  0  0  0  0  0  0  0  0  0
   -5.5311    0.7840    0.1466 C   0  0  0  0  0  0  0  0  0  0  0  0
   -5.4261   -0.5778   -0.0286 C   0  0  0  0  0  0  0  0  0  0  0  0
   -4.1708   -1.1805   -0.1171 C   0  0  0  0  0  0  0  0  0  0  0  0
   -3.0162   -0.4560   -0.0349 C   0  0  0  0  0  0  0  0  0  0  0  0
   -1.6683   -0.7058   -0.0790 C   0  0  0  0  0  0  0  0  0  0  0  0
   -0.9392   -1.8880   -0.2369 C   0  0  0  0  0  0  0  0  0  0  0  0
   -1.3123   -3.2608   -0.4091 C   0  0  0  0  0  0  0  0  0  0  0  0
   -2.4531   -3.7802   -0.4652 O   0  0  0  0  0  0  0  0  0  0  0  0
   -0.1273   -4.0951   -0.5265 N   0  0  0  0  0  0  0  0  0  0  0  0
    0.9551   -3.1933   -0.4210 C   0  0  0  0  0  0  0  0  0  0  0  0
    2.1507   -3.5546   -0.4780 O   0  0  0  0  0  0  0  0  0  0  0  0
    0.4604   -1.8363   -0.2429 C   0  0  0  0  0  0  0  0  0  0  0  0
    1.0967   -0.6108   -0.0920 C   0  0  0  0  0  0  0  0  0  0  0  0
    2.4808   -0.5246   -0.0935 C   0  0  0  0  0  0  0  0  0  0  0  0
    7.1132    0.9085   -0.0246 H   0  0  0  0  0  0  0  0  0  0  0  0
    7.1209    2.6716   -0.5160 H   0  0  0  0  0  0  0  0  0  0  0  0
    7.0643    2.1925    1.1994 H   0  0  0  0  0  0  0  0  0  0  0  0
    2.8995    2.8095    0.3292 H   0  0  0  0  0  0  0  0  0  0  0  0
    0.4249    2.7099    0.3389 H   0  0  0  0  0  0  0  0  0  0  0  0
   -1.6493    2.4629    0.3261 H   0  0  0  0  0  0  0  0  0  0  0  0
   -5.3182    3.3585    0.4739 H   0  0  0  0  0  0  0  0  0  0  0  0
   -6.4787    1.2643    0.2166 H   0  0  0  0  0  0  0  0  0  0  0  0
   -6.3414   -1.1478   -0.0932 H   0  0  0  0  0  0  0  0  0  0  0  0
   -4.1899   -2.2252   -0.2505 H   0  0  0  0  0  0  0  0  0  0  0  0
   -0.1455   -5.1205   -0.6575 H   0  0  0  0  0  0  0  0  0  0  0  0
    3.0308   -1.4315   -0.2145 H   0  0  0  0  0  0  0  0  0  0  0  0
  1  2  1  0
  2  3  1  0
  3  4  2  0
  3  5  1  0
  5  6  2  0
  6  7  1  0
  7  8  2  0
  8  9  1  0
  9 10  1  0
 10 11  1  0
 11 12  2  0
 12 13  1  0
 12 14  1  0
 14 15  2  0
 15 16  1  0
 16 17  2  0
 17 18  1  0
 18 19  1  0
 19 20  1  0
 20 21  2  0
 20 22  1  0
 22 23  1  0
 23 24  2  0
 23 25  1  0
 25 26  1  0
 26 27  2  0
 27  5  1  0
 26  8  1  0
 18  9  2  0
 25 19  2  0
 17 11  1  0
  1 28  1  0
  1 29  1  0
  1 30  1  0
  6 31  1  0
  7 32  1  0
 10 33  1  0
 13 34  1  0
 14 35  1  0
 15 36  1  0
 16 37  1  0
 22 38  1  0
 27 39  1  0
M  END
$$$$
[H]c1c([H])c(C([H])([H])N2C([H])([H])C([H])([H])N(C([H])([H])C([H])([H])[H])C([H])([H])C2([H])[H])c(Cl)c([H])c1SC1=C(C([H])([H])[H])C2=C3N([H])C(=O)C(=c4c(C([H])([H])[H])c(C([H])([H])[H])sc4=N1)C23[H]
     RDKit          3D

 64 69  0  0  0  0  0  0  0  0999 V2000
    9.2363   -0.5824    0.0003 C   0  0  0  0  0  0  0  0  0  0  0  0
    7.8468   -0.5572    0.6214 C   0  0  0  0  0  0  0  0  0  0  0  0
    7.3981    0.8003    0.6239 N   0  0  0  0  0  0  0  0  0  0  0  0
    7.1281    1.3678   -0.6615 C   0  0  0  0  0  0  0  0  0  0  0  0
    5.9125    0.8204   -1.3246 C   0  0  0  0  0  0  0  0  0  0  0  0
    4.8209    0.5313   -0.3574 N   0  0  0  0  0  0  0  0  0  0  0  0
    3.5554    0.8530   -0.9853 C   0  0  0  0  0  0  0  0  0  0  0  0
    2.4175    0.3303   -0.2337 C   0  0  0  0  0  0  0  0  0  0  0  0
    2.5115   -0.4763    0.8804 C   0  0  0  0  0  0  0  0  0  0  0  0
    1.4091   -0.9777    1.5303 C   0  0  0  0  0  0  0  0  0  0  0  0
    0.1183   -0.6786    1.0697 C   0  0  0  0  0  0  0  0  0  0  0  0
   -1.2968   -1.2783    1.9653 S   0  0  0  0  0  0  0  0  0  0  0  0
   -2.7552   -1.0726    1.0691 C   0  0  0  0  0  0  0  0  0  0  0  0
   -3.8956   -0.5108    1.7131 N   0  0  0  0  0  0  0  0  0  0  0  0
   -5.0914   -0.0647    1.4726 C   0  0  0  0  0  0  0  0  0  0  0  0
   -6.0091    0.4917    2.8161 S   0  0  0  0  0  0  0  0  0  0  0  0
   -7.4716    0.7509    1.9985 C   0  0  0  0  0  0  0  0  0  0  0  0
   -8.7853    1.2740    2.5552 C   0  0  0  0  0  0  0  0  0  0  0  0
   -7.2707    0.4061    0.6479 C   0  0  0  0  0  0  0  0  0  0  0  0
   -8.5015    0.2461   -0.2212 C   0  0  0  0  0  0  0  0  0  0  0  0
   -6.0005   -0.0001    0.4084 C   0  0  0  0  0  0  0  0  0  0  0  0
   -5.6995   -0.1138   -0.8553 C   0  0  0  0  0  0  0  0  0  0  0  0
   -6.5251   -0.0465   -2.0145 C   0  0  0  0  0  0  0  0  0  0  0  0
   -7.3334    0.8141   -2.1416 O   0  0  0  0  0  0  0  0  0  0  0  0
   -6.0492   -1.2145   -2.8290 N   0  0  0  0  0  0  0  0  0  0  0  0
   -5.0054   -1.7802   -1.9736 C   0  0  0  0  0  0  0  0  0  0  0  0
   -3.9048   -1.6336   -1.1274 C   0  0  0  0  0  0  0  0  0  0  0  0
   -4.3632   -0.4127   -1.6156 C   0  0  0  0  0  0  0  0  0  0  0  0
   -2.7598   -1.6928   -0.1802 C   0  0  0  0  0  0  0  0  0  0  0  0
   -1.6960   -2.5738   -0.5448 C   0  0  0  0  0  0  0  0  0  0  0  0
    0.0648    0.1293   -0.0451 C   0  0  0  0  0  0  0  0  0  0  0  0
    1.1383    0.6432   -0.7133 C   0  0  0  0  0  0  0  0  0  0  0  0
    0.9492    1.6724   -2.1402 Cl  0  0  0  0  0  0  0  0  0  0  0  0
    5.0505    1.4361    0.7853 C   0  0  0  0  0  0  0  0  0  0  0  0
    6.2834    0.9964    1.5460 C   0  0  0  0  0  0  0  0  0  0  0  0
    9.7378    0.3886    0.2651 H   0  0  0  0  0  0  0  0  0  0  0  0
    9.1188   -0.6083   -1.1000 H   0  0  0  0  0  0  0  0  0  0  0  0
    9.8159   -1.4495    0.3332 H   0  0  0  0  0  0  0  0  0  0  0  0
    7.1592   -1.2501    0.0648 H   0  0  0  0  0  0  0  0  0  0  0  0
    7.9124   -0.9029    1.6622 H   0  0  0  0  0  0  0  0  0  0  0  0
    7.9986    1.1619   -1.3218 H   0  0  0  0  0  0  0  0  0  0  0  0
    7.0475    2.4698   -0.5609 H   0  0  0  0  0  0  0  0  0  0  0  0
    5.5074    1.5939   -2.0017 H   0  0  0  0  0  0  0  0  0  0  0  0
    6.1557   -0.0642   -1.9317 H   0  0  0  0  0  0  0  0  0  0  0  0
    3.5366    0.3976   -2.0048 H   0  0  0  0  0  0  0  0  0  0  0  0
    3.4935    1.9610   -1.0455 H   0  0  0  0  0  0  0  0  0  0  0  0
    3.4857   -0.7570    1.2755 H   0  0  0  0  0  0  0  0  0  0  0  0
    1.4692   -1.6087    2.4035 H   0  0  0  0  0  0  0  0  0  0  0  0
   -9.4712    1.5542    1.7594 H   0  0  0  0  0  0  0  0  0  0  0  0
   -8.5706    2.1669    3.2024 H   0  0  0  0  0  0  0  0  0  0  0  0
   -9.1985    0.5009    3.2337 H   0  0  0  0  0  0  0  0  0  0  0  0
   -9.3155   -0.1386    0.5758 H   0  0  0  0  0  0  0  0  0  0  0  0
   -9.0357    1.1534   -0.3950 H   0  0  0  0  0  0  0  0  0  0  0  0
   -8.6331   -0.6763   -0.7837 H   0  0  0  0  0  0  0  0  0  0  0  0
   -6.4435   -1.4303   -3.6927 H   0  0  0  0  0  0  0  0  0  0  0  0
   -4.0149    0.2483   -2.3584 H   0  0  0  0  0  0  0  0  0  0  0  0
   -1.1133   -2.3190   -1.4619 H   0  0  0  0  0  0  0  0  0  0  0  0
   -2.2071   -3.5561   -0.8797 H   0  0  0  0  0  0  0  0  0  0  0  0
   -1.0599   -2.9243    0.2768 H   0  0  0  0  0  0  0  0  0  0  0  0
   -0.9226    0.3967   -0.4261 H   0  0  0  0  0  0  0  0  0  0  0  0
    5.2336    2.4474    0.3699 H   0  0  0  0  0  0  0  0  0  0  0  0
    4.1875    1.4336    1.4261 H   0  0  0  0  0  0  0  0  0  0  0  0
    6.1341    0.0716    2.1191 H   0  0  0  0  0  0  0  0  0  0  0  0
    6.5657    1.8426    2.2101 H   0  0  0  0  0  0  0  0  0  0  0  0
  1  2  1  0
  2  3  1  0
  3  4  1  0
  4  5  1  0
  5  6  1  0
  6  7  1  0
  7  8  1  0
  8  9  2  0
  9 10  1  0
 10 11  2  0
 11 12  1  0
 12 13  1  0
 13 14  1  0
 14 15  2  0
 15 16  1  0
 16 17  1  0
 17 18  1  0
 17 19  2  0
 19 20  1  0
 19 21  1  0
 21 22  2  0
 22 23  1  0
 23 24  2  0
 23 25  1  0
 25 26  1  0
 26 27  2  0
 27 28  1  0
 27 29  1  0
 29 30  1  0
 11 31  1  0
 31 32  2  0
 32 33  1  0
  6 34  1  0
 34 35  1  0
 35  3  1  0
 32  8  1  0
 29 13  2  0
 21 15  1  0
 28 22  1  0
 28 26  1  0
  1 36  1  0
  1 37  1  0
  1 38  1  0
  2 39  1  0
  2 40  1  0
  4 41  1  0
  4 42  1  0
  5 43  1  0
  5 44  1  0
  7 45  1  0
  7 46  1  0
  9 47  1  0
 10 48  1  0
 18 49  1  0
 18 50  1  0
 18 51  1  0
 20 52  1  0
 20 53  1  0
 20 54  1  0
 25 55  1  0
 28 56  1  0
 30 57  1  0
 30 58  1  0
 30 59  1  0
 31 60  1  0
 34 61  1  0
 34 62  1  0
 35 63  1  0
 35 64  1  0
M  END
$$$$
[H]c1c([H])c([H])c2c(c1[H])c1c3c(c4c5c([H])c([H])c([H])c([H])c5n5c4c1n2[C@@]1([H])O[C@]5(C([H])([H])[H])[C@@]([H])(OC([H])([H])[H])[C@@]([H])(N([H])C([H])([H])[H])C1([H])[H])C([H])([H])N([H])C3=O
     RDKit          3D

 61 68  0  0  0  0  0  0  0  0999 V2000
   -2.5900    1.1246    2.6909 C   0  0  0  0  0  0  0  0  0  0  0  0
   -2.2701    0.1494    1.6691 N   0  0  0  0  0  0  0  0  0  0  0  0
   -2.7037    0.7256    0.3894 C   0  0  1  0  0  0  0  0  0  0  0  0
   -1.9693    1.9591    0.0600 C   0  0  0  0  0  0  0  0  0  0  0  0
   -1.0374    1.8542   -1.1025 C   0  0  2  0  0  0  0  0  0  0  0  0
   -1.1108    0.8211   -1.8978 O   0  0  0  0  0  0  0  0  0  0  0  0
   -1.4719   -0.4453   -1.4993 C   0  0  2  0  0  0  0  0  0  0  0  0
   -1.8587   -1.0747   -2.8537 C   0  0  0  0  0  0  0  0  0  0  0  0
   -2.6627   -0.3659   -0.6565 C   0  0  1  0  0  0  0  0  0  0  0  0
   -3.0555   -1.5061    0.0270 O   0  0  0  0  0  0  0  0  0  0  0  0
   -4.3079   -1.9695   -0.2639 C   0  0  0  0  0  0  0  0  0  0  0  0
   -0.3020   -1.1026   -0.9411 N   0  0  0  0  0  0  0  0  0  0  0  0
   -0.0368   -2.4107   -0.8661 C   0  0  0  0  0  0  0  0  0  0  0  0
   -0.7505   -3.5118   -1.2342 C   0  0  0  0  0  0  0  0  0  0  0  0
   -0.2313   -4.7829   -1.0386 C   0  0  0  0  0  0  0  0  0  0  0  0
    1.0025   -5.0019   -0.4761 C   0  0  0  0  0  0  0  0  0  0  0  0
    1.7444   -3.8826   -0.0939 C   0  0  0  0  0  0  0  0  0  0  0  0
    1.2038   -2.6348   -0.3003 C   0  0  0  0  0  0  0  0  0  0  0  0
    1.7282   -1.3877   -0.0109 C   0  0  0  0  0  0  0  0  0  0  0  0
    2.9250   -0.9637    0.5498 C   0  0  0  0  0  0  0  0  0  0  0  0
    4.0703   -1.7821    1.0519 C   0  0  0  0  0  0  0  0  0  0  0  0
    5.0490   -0.8360    1.5052 N   0  0  0  0  0  0  0  0  0  0  0  0
    4.5511    0.4878    1.3292 C   0  0  0  0  0  0  0  0  0  0  0  0
    5.2116    1.4752    1.6612 O   0  0  0  0  0  0  0  0  0  0  0  0
    3.2325    0.3685    0.7340 C   0  0  0  0  0  0  0  0  0  0  0  0
    2.2736    1.2731    0.3281 C   0  0  0  0  0  0  0  0  0  0  0  0
    2.1943    2.6494    0.3519 C   0  0  0  0  0  0  0  0  0  0  0  0
    3.0346    3.6410    0.7719 C   0  0  0  0  0  0  0  0  0  0  0  0
    2.6237    4.9672    0.6424 C   0  0  0  0  0  0  0  0  0  0  0  0
    1.4040    5.3207    0.1079 C   0  0  0  0  0  0  0  0  0  0  0  0
    0.5569    4.3176   -0.3154 C   0  0  0  0  0  0  0  0  0  0  0  0
    0.9564    3.0255   -0.1896 C   0  0  0  0  0  0  0  0  0  0  0  0
    0.3179    1.9031   -0.5262 N   0  0  0  0  0  0  0  0  0  0  0  0
    1.0813    0.8475   -0.2300 C   0  0  0  0  0  0  0  0  0  0  0  0
    0.8029   -0.4946   -0.4048 C   0  0  0  0  0  0  0  0  0  0  0  0
   -1.7275    1.7656    2.9459 H   0  0  0  0  0  0  0  0  0  0  0  0
   -3.4000    1.7830    2.2910 H   0  0  0  0  0  0  0  0  0  0  0  0
   -3.0290    0.6437    3.5924 H   0  0  0  0  0  0  0  0  0  0  0  0
   -2.7602   -0.7186    1.9035 H   0  0  0  0  0  0  0  0  0  0  0  0
   -3.7998    0.9480    0.5957 H   0  0  0  0  0  0  0  0  0  0  0  0
   -1.4594    2.3204    1.0029 H   0  0  0  0  0  0  0  0  0  0  0  0
   -2.7065    2.7776   -0.1658 H   0  0  0  0  0  0  0  0  0  0  0  0
   -1.0912    2.7965   -1.7221 H   0  0  0  0  0  0  0  0  0  0  0  0
   -2.0056   -0.3257   -3.6573 H   0  0  0  0  0  0  0  0  0  0  0  0
   -1.0068   -1.6950   -3.1940 H   0  0  0  0  0  0  0  0  0  0  0  0
   -2.8277   -1.6039   -2.8044 H   0  0  0  0  0  0  0  0  0  0  0  0
   -3.5358   -0.1252   -1.3381 H   0  0  0  0  0  0  0  0  0  0  0  0
   -4.4650   -2.8889    0.3782 H   0  0  0  0  0  0  0  0  0  0  0  0
   -4.4865   -2.3125   -1.2897 H   0  0  0  0  0  0  0  0  0  0  0  0
   -5.1216   -1.2643    0.0633 H   0  0  0  0  0  0  0  0  0  0  0  0
   -1.7208   -3.3825   -1.6725 H   0  0  0  0  0  0  0  0  0  0  0  0
   -0.8491   -5.6109   -1.3524 H   0  0  0  0  0  0  0  0  0  0  0  0
    1.4213   -5.9802   -0.3168 H   0  0  0  0  0  0  0  0  0  0  0  0
    2.7206   -4.0420    0.3513 H   0  0  0  0  0  0  0  0  0  0  0  0
    3.7648   -2.4865    1.8473 H   0  0  0  0  0  0  0  0  0  0  0  0
    4.5351   -2.3717    0.2322 H   0  0  0  0  0  0  0  0  0  0  0  0
    5.9960   -1.0989    1.9084 H   0  0  0  0  0  0  0  0  0  0  0  0
    3.9823    3.4684    1.1903 H   0  0  0  0  0  0  0  0  0  0  0  0
    3.2909    5.7541    0.9750 H   0  0  0  0  0  0  0  0  0  0  0  0
    1.0902    6.3566    0.0099 H   0  0  0  0  0  0  0  0  0  0  0  0
   -0.4140    4.5350   -0.7434 H   0  0  0  0  0  0  0  0  0  0  0  0
  1  2  1  0
  2  3  1  0
  3  4  1  0
  4  5  1  0
  5  6  1  0
  6  7  1  0
  7  8  1  6
  7  9  1  0
  9 10  1  0
 10 11  1  0
  7 12  1  0
 12 13  1  0
 13 14  2  0
 14 15  1  0
 15 16  2  0
 16 17  1  0
 17 18  2  0
 18 19  1  0
 19 20  2  0
 20 21  1  0
 21 22  1  0
 22 23  1  0
 23 24  2  0
 23 25  1  0
 25 26  2  0
 26 27  1  0
 27 28  2  0
 28 29  1  0
 29 30  2  0
 30 31  1  0
 31 32  2  0
 32 33  1  0
 33 34  1  0
 34 35  2  0
  9  3  1  0
 35 12  1  0
 33  5  1  0
 18 13  1  0
 35 19  1  0
 25 20  1  0
 34 26  1  0
 32 27  1  0
  1 36  1  0
  1 37  1  0
  1 38  1  0
  2 39  1  0
  3 40  1  1
  4 41  1  0
  4 42  1  0
  5 43  1  6
  8 44  1  0
  8 45  1  0
  8 46  1  0
  9 47  1  6
 11 48  1  0
 11 49  1  0
 11 50  1  0
 14 51  1  0
 15 52  1  0
 16 53  1  0
 17 54  1  0
 21 55  1  0
 21 56  1  0
 22 57  1  0
 28 58  1  0
 29 59  1  0
 30 60  1  0
 31 61  1  0
M  END
$$$$
[H]c1nc([H])c([H])c(-c2c([H])c([H])c3c(N([H])[H])nn([H])c3c2[H])c1[H]
     RDKit          3D

 26 28  0  0  0  0  0  0  0  0999 V2000
    4.7378    0.1837    0.1800 N   0  0  0  0  0  0  0  0  0  0  0  0
    3.5606   -0.4164   -0.3493 C   0  0  0  0  0  0  0  0  0  0  0  0
    3.4408   -1.3788   -1.2831 N   0  0  0  0  0  0  0  0  0  0  0  0
    2.1664   -1.6664   -1.5027 N   0  0  0  0  0  0  0  0  0  0  0  0
    1.3789   -0.8934   -0.7103 C   0  0  0  0  0  0  0  0  0  0  0  0
    0.0134   -0.7870   -0.5408 C   0  0  0  0  0  0  0  0  0  0  0  0
   -0.4869    0.1224    0.3711 C   0  0  0  0  0  0  0  0  0  0  0  0
    0.4073    0.9124    1.0994 C   0  0  0  0  0  0  0  0  0  0  0  0
    1.7689    0.7926    0.9171 C   0  0  0  0  0  0  0  0  0  0  0  0
    2.2540   -0.1098    0.0127 C   0  0  0  0  0  0  0  0  0  0  0  0
   -1.9274    0.2513    0.5662 C   0  0  0  0  0  0  0  0  0  0  0  0
   -2.5560    1.4195    0.9165 C   0  0  0  0  0  0  0  0  0  0  0  0
   -3.9193    1.4881    1.0883 C   0  0  0  0  0  0  0  0  0  0  0  0
   -4.6913    0.4074    0.9184 N   0  0  0  0  0  0  0  0  0  0  0  0
   -4.0898   -0.7573    0.5720 C   0  0  0  0  0  0  0  0  0  0  0  0
   -2.7361   -0.8670    0.3915 C   0  0  0  0  0  0  0  0  0  0  0  0
    4.8594    1.2122    0.3134 H   0  0  0  0  0  0  0  0  0  0  0  0
    5.5436   -0.4176    0.4599 H   0  0  0  0  0  0  0  0  0  0  0  0
    1.7653   -2.3595   -2.1602 H   0  0  0  0  0  0  0  0  0  0  0  0
   -0.6472   -1.4160   -1.1232 H   0  0  0  0  0  0  0  0  0  0  0  0
   -0.0072    1.6117    1.8019 H   0  0  0  0  0  0  0  0  0  0  0  0
    2.4759    1.3929    1.4692 H   0  0  0  0  0  0  0  0  0  0  0  0
   -1.9688    2.3037    1.0604 H   0  0  0  0  0  0  0  0  0  0  0  0
   -4.3539    2.4180    1.3599 H   0  0  0  0  0  0  0  0  0  0  0  0
   -4.7204   -1.6375    0.4341 H   0  0  0  0  0  0  0  0  0  0  0  0
   -2.2681   -1.8093    0.1132 H   0  0  0  0  0  0  0  0  0  0  0  0
  1  2  1  0
  2  3  2  0
  3  4  1  0
  4  5  1  0
  5  6  2  0
  6  7  1  0
  7  8  2  0
  8  9  1  0
  9 10  2  0
  7 11  1  0
 11 12  2  0
 12 13  1  0
 13 14  2  0
 14 15  1  0
 15 16  2  0
 10  2  1  0
 16 11  1  0
 10  5  1  0
  1 17  1  0
  1 18  1  0
  4 19  1  0
  6 20  1  0
  8 21  1  0
  9 22  1  0
 12 23  1  0
 13 24  1  0
 15 25  1  0
 16 26  1  0
M  END
$$$$
[H]c1c([H])c([H])c2c(c1[H])c1c3c(c4c5c([H])c([H])c([H])c([H])c5n5c4c1n2[C@@]1(C([H])([H])[H])O[C@]5([H])C([H])([H])[C@]([H])(N([H])C([H])([H])[H])[C@]1([H])OC([H])([H])[H])C(=O)N([H])C3([H])[H]
     RDKit          3D

 61 68  0  0  0  0  0  0  0  0999 V2000
   -4.0469   -1.7704    1.7208 C   0  0  0  0  0  0  0  0  0  0  0  0
   -2.8051   -1.1267    1.8532 N   0  0  0  0  0  0  0  0  0  0  0  0
   -2.0631   -0.7295    0.7453 C   0  0  1  0  0  0  0  0  0  0  0  0
   -1.6837   -1.8762   -0.1711 C   0  0  0  0  0  0  0  0  0  0  0  0
   -0.8984   -1.4098   -1.3642 C   0  0  1  0  0  0  0  0  0  0  0  0
   -1.1746   -0.2090   -1.8664 O   0  0  0  0  0  0  0  0  0  0  0  0
   -1.4577    0.8633   -1.0142 C   0  0  1  0  0  0  0  0  0  0  0  0
   -2.0247    1.8974   -1.9699 C   0  0  0  0  0  0  0  0  0  0  0  0
   -2.5753    0.3728   -0.1181 C   0  0  1  0  0  0  0  0  0  0  0  0
   -3.5198   -0.1711   -0.9735 O   0  0  0  0  0  0  0  0  0  0  0  0
   -4.7628    0.3638   -0.9969 C   0  0  0  0  0  0  0  0  0  0  0  0
   -0.2701    1.3169   -0.3284 N   0  0  0  0  0  0  0  0  0  0  0  0
   -0.0959    2.5647    0.1722 C   0  0  0  0  0  0  0  0  0  0  0  0
   -0.9035    3.6566    0.2781 C   0  0  0  0  0  0  0  0  0  0  0  0
   -0.4867    4.8568    0.8587 C   0  0  0  0  0  0  0  0  0  0  0  0
    0.7815    4.9813    1.3559 C   0  0  0  0  0  0  0  0  0  0  0  0
    1.6018    3.8897    1.2562 C   0  0  0  0  0  0  0  0  0  0  0  0
    1.2013    2.7011    0.6855 C   0  0  0  0  0  0  0  0  0  0  0  0
    1.8231    1.4953    0.4914 C   0  0  0  0  0  0  0  0  0  0  0  0
    3.0935    1.0534    0.7971 C   0  0  0  0  0  0  0  0  0  0  0  0
    4.2347    1.7462    1.4443 C   0  0  0  0  0  0  0  0  0  0  0  0
    5.2812    0.7805    1.4850 N   0  0  0  0  0  0  0  0  0  0  0  0
    4.8379   -0.4605    0.9036 C   0  0  0  0  0  0  0  0  0  0  0  0
    5.5848   -1.4446    0.8345 O   0  0  0  0  0  0  0  0  0  0  0  0
    3.4679   -0.2585    0.4835 C   0  0  0  0  0  0  0  0  0  0  0  0
    2.5253   -1.0802   -0.1335 C   0  0  0  0  0  0  0  0  0  0  0  0
    2.5255   -2.4091   -0.5522 C   0  0  0  0  0  0  0  0  0  0  0  0
    3.4661   -3.3824   -0.5335 C   0  0  0  0  0  0  0  0  0  0  0  0
    3.1394   -4.6508   -1.0457 C   0  0  0  0  0  0  0  0  0  0  0  0
    1.8931   -4.8946   -1.5532 C   0  0  0  0  0  0  0  0  0  0  0  0
    0.9234   -3.9194   -1.5814 C   0  0  0  0  0  0  0  0  0  0  0  0
    1.2579   -2.6757   -1.0743 C   0  0  0  0  0  0  0  0  0  0  0  0
    0.5170   -1.5633   -0.9812 N   0  0  0  0  0  0  0  0  0  0  0  0
    1.2574   -0.6011   -0.4262 C   0  0  0  0  0  0  0  0  0  0  0  0
    0.9293    0.6883   -0.1091 C   0  0  0  0  0  0  0  0  0  0  0  0
   -4.8662   -1.0159    1.9108 H   0  0  0  0  0  0  0  0  0  0  0  0
   -4.1813   -2.6236    2.4398 H   0  0  0  0  0  0  0  0  0  0  0  0
   -4.2705   -2.2084    0.7307 H   0  0  0  0  0  0  0  0  0  0  0  0
   -2.8232   -0.4664    2.6590 H   0  0  0  0  0  0  0  0  0  0  0  0
   -1.0753   -0.3131    1.1783 H   0  0  0  0  0  0  0  0  0  0  0  0
   -1.0881   -2.5934    0.4138 H   0  0  0  0  0  0  0  0  0  0  0  0
   -2.6116   -2.3396   -0.5348 H   0  0  0  0  0  0  0  0  0  0  0  0
   -1.0616   -2.1696   -2.1624 H   0  0  0  0  0  0  0  0  0  0  0  0
   -2.9480    2.3656   -1.6768 H   0  0  0  0  0  0  0  0  0  0  0  0
   -1.2023    2.6448   -2.1814 H   0  0  0  0  0  0  0  0  0  0  0  0
   -2.2291    1.4720   -2.9983 H   0  0  0  0  0  0  0  0  0  0  0  0
   -3.0338    1.1533    0.4695 H   0  0  0  0  0  0  0  0  0  0  0  0
   -5.2481    0.3628   -0.0036 H   0  0  0  0  0  0  0  0  0  0  0  0
   -4.9197    1.3034   -1.5454 H   0  0  0  0  0  0  0  0  0  0  0  0
   -5.3837   -0.3816   -1.6336 H   0  0  0  0  0  0  0  0  0  0  0  0
   -1.9195    3.5996   -0.0805 H   0  0  0  0  0  0  0  0  0  0  0  0
   -1.1927    5.6764    0.9018 H   0  0  0  0  0  0  0  0  0  0  0  0
    1.1278    5.9226    1.8176 H   0  0  0  0  0  0  0  0  0  0  0  0
    2.6056    3.9573    1.6392 H   0  0  0  0  0  0  0  0  0  0  0  0
    4.5809    2.6270    0.8499 H   0  0  0  0  0  0  0  0  0  0  0  0
    3.9928    2.1189    2.4526 H   0  0  0  0  0  0  0  0  0  0  0  0
    6.2242    0.9648    1.8822 H   0  0  0  0  0  0  0  0  0  0  0  0
    4.4453   -3.2357   -0.1500 H   0  0  0  0  0  0  0  0  0  0  0  0
    3.9157   -5.4107   -1.0164 H   0  0  0  0  0  0  0  0  0  0  0  0
    1.6559   -5.8901   -1.9485 H   0  0  0  0  0  0  0  0  0  0  0  0
   -0.0671   -4.1156   -1.9855 H   0  0  0  0  0  0  0  0  0  0  0  0
  1  2  1  0
  2  3  1  0
  3  4  1  0
  4  5  1  0
  5  6  1  0
  6  7  1  0
  7  8  1  6
  7  9  1  0
  9 10  1  0
 10 11  1  0
  7 12  1  0
 12 13  1  0
 13 14  2  0
 14 15  1  0
 15 16  2  0
 16 17  1  0
 17 18  2  0
 18 19  1  0
 19 20  2  0
 20 21  1  0
 21 22  1  0
 22 23  1  0
 23 24  2  0
 23 25  1  0
 25 26  2  0
 26 27  1  0
 27 28  2  0
 28 29  1  0
 29 30  2  0
 30 31  1  0
 31 32  2  0
 32 33  1  0
 33 34  1  0
 34 35  2  0
  9  3  1  0
 35 12  1  0
 33  5  1  0
 18 13  1  0
 35 19  1  0
 25 20  1  0
 34 26  1  0
 32 27  1  0
  1 36  1  0
  1 37  1  0
  1 38  1  0
  2 39  1  0
  3 40  1  1
  4 41  1  0
  4 42  1  0
  5 43  1  6
  8 44  1  0
  8 45  1  0
  8 46  1  0
  9 47  1  1
 11 48  1  0
 11 49  1  0
 11 50  1  0
 14 51  1  0
 15 52  1  0
 16 53  1  0
 17 54  1  0
 21 55  1  0
 21 56  1  0
 22 57  1  0
 28 58  1  0
 29 59  1  0
 30 60  1  0
 31 61  1  0
M  END
$$$$
[H]c1nc2c([H])c(OC([H])([H])[H])c([H])c([H])c2c(Oc2c([H])c([H])c(N([H])C(=O)c3nnn(C([H])([H])c4c([H])c([H])c(F)c(F)c4[H])c3C([H])([H])[H])c([H])c2F)c1[H]
     RDKit          3D

 58 62  0  0  0  0  0  0  0  0999 V2000
  -10.9333   -1.7193    0.1261 C   0  0  0  0  0  0  0  0  0  0  0  0
  -10.3289   -0.8016    1.0293 O   0  0  0  0  0  0  0  0  0  0  0  0
   -8.9311   -0.6271    1.0322 C   0  0  0  0  0  0  0  0  0  0  0  0
   -8.1246   -1.3353    0.1677 C   0  0  0  0  0  0  0  0  0  0  0  0
   -6.7462   -1.1944    0.1372 C   0  0  0  0  0  0  0  0  0  0  0  0
   -6.1456   -0.3053    1.0102 C   0  0  0  0  0  0  0  0  0  0  0  0
   -4.7558   -0.1884    0.9528 C   0  0  0  0  0  0  0  0  0  0  0  0
   -4.0358   -0.9459    0.0438 O   0  0  0  0  0  0  0  0  0  0  0  0
   -2.7030   -0.9293   -0.1838 C   0  0  0  0  0  0  0  0  0  0  0  0
   -1.9148   -2.0371    0.0445 C   0  0  0  0  0  0  0  0  0  0  0  0
   -0.5653   -2.0515   -0.1773 C   0  0  0  0  0  0  0  0  0  0  0  0
    0.0868   -0.8998   -0.6616 C   0  0  0  0  0  0  0  0  0  0  0  0
    1.4844   -0.9844   -0.8906 N   0  0  0  0  0  0  0  0  0  0  0  0
    2.3691    0.0895   -1.0140 C   0  0  0  0  0  0  0  0  0  0  0  0
    1.9766    1.2716   -0.9207 O   0  0  0  0  0  0  0  0  0  0  0  0
    3.8016   -0.1668   -1.2604 C   0  0  0  0  0  0  0  0  0  0  0  0
    4.3302   -1.3880   -1.3754 N   0  0  0  0  0  0  0  0  0  0  0  0
    5.6393   -1.2027   -1.5908 N   0  0  0  0  0  0  0  0  0  0  0  0
    5.9267    0.0940   -1.6108 N   0  0  0  0  0  0  0  0  0  0  0  0
    7.2399    0.6185   -1.8122 C   0  0  0  0  0  0  0  0  0  0  0  0
    7.9314    0.7362   -0.5081 C   0  0  0  0  0  0  0  0  0  0  0  0
    7.9185    1.9172    0.1713 C   0  0  0  0  0  0  0  0  0  0  0  0
    8.5703    2.0145    1.4032 C   0  0  0  0  0  0  0  0  0  0  0  0
    9.2177    0.9127    1.9134 C   0  0  0  0  0  0  0  0  0  0  0  0
    9.8648    0.9394    3.0950 F   0  0  0  0  0  0  0  0  0  0  0  0
    9.2143   -0.2688    1.2038 C   0  0  0  0  0  0  0  0  0  0  0  0
    9.8554   -1.3637    1.7064 F   0  0  0  0  0  0  0  0  0  0  0  0
    8.5741   -0.3802   -0.0154 C   0  0  0  0  0  0  0  0  0  0  0  0
    4.7915    0.7576   -1.4064 C   0  0  0  0  0  0  0  0  0  0  0  0
    4.6198    2.2283   -1.3525 C   0  0  0  0  0  0  0  0  0  0  0  0
   -0.6871    0.2066   -0.8928 C   0  0  0  0  0  0  0  0  0  0  0  0
   -2.0611    0.1862   -0.6556 C   0  0  0  0  0  0  0  0  0  0  0  0
   -2.7515    1.3358   -0.9355 F   0  0  0  0  0  0  0  0  0  0  0  0
   -4.1907    0.6984    1.8288 C   0  0  0  0  0  0  0  0  0  0  0  0
   -4.9831    1.4162    2.7013 C   0  0  0  0  0  0  0  0  0  0  0  0
   -6.3282    1.2691    2.7202 N   0  0  0  0  0  0  0  0  0  0  0  0
   -6.9390    0.4038    1.8738 C   0  0  0  0  0  0  0  0  0  0  0  0
   -8.3258    0.2547    1.8967 C   0  0  0  0  0  0  0  0  0  0  0  0
  -10.4922   -2.7155    0.1572 H   0  0  0  0  0  0  0  0  0  0  0  0
  -12.0367   -1.7115    0.2206 H   0  0  0  0  0  0  0  0  0  0  0  0
  -10.7293   -1.3063   -0.9028 H   0  0  0  0  0  0  0  0  0  0  0  0
   -8.6092   -2.0252   -0.5074 H   0  0  0  0  0  0  0  0  0  0  0  0
   -6.1238   -1.7557   -0.5457 H   0  0  0  0  0  0  0  0  0  0  0  0
   -2.3750   -2.9518    0.4194 H   0  0  0  0  0  0  0  0  0  0  0  0
    0.0401   -2.9246    0.0069 H   0  0  0  0  0  0  0  0  0  0  0  0
    1.8816   -1.9766   -0.9808 H   0  0  0  0  0  0  0  0  0  0  0  0
    7.7793   -0.0644   -2.5075 H   0  0  0  0  0  0  0  0  0  0  0  0
    7.2006    1.6455   -2.2537 H   0  0  0  0  0  0  0  0  0  0  0  0
    7.4406    2.8237   -0.1578 H   0  0  0  0  0  0  0  0  0  0  0  0
    8.5888    2.9213    1.9764 H   0  0  0  0  0  0  0  0  0  0  0  0
    8.5792   -1.3180   -0.5645 H   0  0  0  0  0  0  0  0  0  0  0  0
    5.5267    2.7739   -1.6806 H   0  0  0  0  0  0  0  0  0  0  0  0
    4.3844    2.5640   -0.3280 H   0  0  0  0  0  0  0  0  0  0  0  0
    3.7617    2.5742   -2.0004 H   0  0  0  0  0  0  0  0  0  0  0  0
   -0.2611    1.1111   -1.2727 H   0  0  0  0  0  0  0  0  0  0  0  0
   -3.1240    0.8391    1.8560 H   0  0  0  0  0  0  0  0  0  0  0  0
   -4.4758    2.1062    3.3735 H   0  0  0  0  0  0  0  0  0  0  0  0
   -8.9173    0.8298    2.5903 H   0  0  0  0  0  0  0  0  0  0  0  0
  1  2  1  0
  2  3  1  0
  3  4  2  0
  4  5  1  0
  5  6  2  0
  6  7  1  0
  7  8  1  0
  8  9  1  0
  9 10  2  0
 10 11  1  0
 11 12  2  0
 12 13  1  0
 13 14  1  0
 14 15  2  0
 14 16  1  0
 16 17  1  0
 17 18  2  0
 18 19  1  0
 19 20  1  0
 20 21  1  0
 21 22  2  0
 22 23  1  0
 23 24  2  0
 24 25  1  0
 24 26  1  0
 26 27  1  0
 26 28  2  0
 19 29  1  0
 29 30  1  0
 12 31  1  0
 31 32  2  0
 32 33  1  0
  7 34  2  0
 34 35  1  0
 35 36  2  0
 36 37  1  0
 37 38  2  0
 38  3  1  0
 37  6  1  0
 32  9  1  0
 29 16  2  0
 28 21  1  0
  1 39  1  0
  1 40  1  0
  1 41  1  0
  4 42  1  0
  5 43  1  0
 10 44  1  0
 11 45  1  0
 13 46  1  0
 20 47  1  0
 20 48  1  0
 22 49  1  0
 23 50  1  0
 28 51  1  0
 30 52  1  0
 30 53  1  0
 30 54  1  0
 31 55  1  0
 34 56  1  0
 35 57  1  0
 38 58  1  0
M  END
$$$$
[H]c1c([H])c([H])c2c(c1[H])c1c3c(c4c5c([H])c([H])c([H])c([H])c5n5c4c1n2[C@@]1([H])O[C@]5(C([H])([H])[H])[C@@]([H])(OC([H])([H])[H])[C@@]([H])(N([H])C([H])([H])[H])C1([H])[H])C([H])([H])N([H])C3=O
     RDKit          3D

 61 68  0  0  0  0  0  0  0  0999 V2000
   -2.5900    1.1246    2.6909 C   0  0  0  0  0  0  0  0  0  0  0  0
   -2.2701    0.1494    1.6691 N   0  0  0  0  0  0  0  0  0  0  0  0
   -2.7037    0.7256    0.3894 C   0  0  1  0  0  0  0  0  0  0  0  0
   -1.9693    1.9591    0.0600 C   0  0  0  0  0  0  0  0  0  0  0  0
   -1.0374    1.8542   -1.1025 C   0  0  2  0  0  0  0  0  0  0  0  0
   -1.1108    0.8211   -1.8978 O   0  0  0  0  0  0  0  0  0  0  0  0
   -1.4719   -0.4453   -1.4993 C   0  0  2  0  0  0  0  0  0  0  0  0
   -1.8587   -1.0747   -2.8537 C   0  0  0  0  0  0  0  0  0  0  0  0
   -2.6627   -0.3659   -0.6565 C   0  0  1  0  0  0  0  0  0  0  0  0
   -3.0555   -1.5061    0.0270 O   0  0  0  0  0  0  0  0  0  0  0  0
   -4.3079   -1.9695   -0.2639 C   0  0  0  0  0  0  0  0  0  0  0  0
   -0.3020   -1.1026   -0.9411 N   0  0  0  0  0  0  0  0  0  0  0  0
   -0.0368   -2.4107   -0.8661 C   0  0  0  0  0  0  0  0  0  0  0  0
   -0.7505   -3.5118   -1.2342 C   0  0  0  0  0  0  0  0  0  0  0  0
   -0.2313   -4.7829   -1.0386 C   0  0  0  0  0  0  0  0  0  0  0  0
    1.0025   -5.0019   -0.4761 C   0  0  0  0  0  0  0  0  0  0  0  0
    1.7444   -3.8826   -0.0939 C   0  0  0  0  0  0  0  0  0  0  0  0
    1.2038   -2.6348   -0.3003 C   0  0  0  0  0  0  0  0  0  0  0  0
    1.7282   -1.3877   -0.0109 C   0  0  0  0  0  0  0  0  0  0  0  0
    2.9250   -0.9637    0.5498 C   0  0  0  0  0  0  0  0  0  0  0  0
    4.0703   -1.7821    1.0519 C   0  0  0  0  0  0  0  0  0  0  0  0
    5.0490   -0.8360    1.5052 N   0  0  0  0  0  0  0  0  0  0  0  0
    4.5511    0.4878    1.3292 C   0  0  0  0  0  0  0  0  0  0  0  0
    5.2116    1.4752    1.6612 O   0  0  0  0  0  0  0  0  0  0  0  0
    3.2325    0.3685    0.7340 C   0  0  0  0  0  0  0  0  0  0  0  0
    2.2736    1.2731    0.3281 C   0  0  0  0  0  0  0  0  0  0  0  0
    2.1943    2.6494    0.3519 C   0  0  0  0  0  0  0  0  0  0  0  0
    3.0346    3.6410    0.7719 C   0  0  0  0  0  0  0  0  0  0  0  0
    2.6237    4.9672    0.6424 C   0  0  0  0  0  0  0  0  0  0  0  0
    1.4040    5.3207    0.1079 C   0  0  0  0  0  0  0  0  0  0  0  0
    0.5569    4.3176   -0.3154 C   0  0  0  0  0  0  0  0  0  0  0  0
    0.9564    3.0255   -0.1896 C   0  0  0  0  0  0  0  0  0  0  0  0
    0.3179    1.9031   -0.5262 N   0  0  0  0  0  0  0  0  0  0  0  0
    1.0813    0.8475   -0.2300 C   0  0  0  0  0  0  0  0  0  0  0  0
    0.8029   -0.4946   -0.4048 C   0  0  0  0  0  0  0  0  0  0  0  0
   -1.7275    1.7656    2.9459 H   0  0  0  0  0  0  0  0  0  0  0  0
   -3.4000    1.7830    2.2910 H   0  0  0  0  0  0  0  0  0  0  0  0
   -3.0290    0.6437    3.5924 H   0  0  0  0  0  0  0  0  0  0  0  0
   -2.7602   -0.7186    1.9035 H   0  0  0  0  0  0  0  0  0  0  0  0
   -3.7998    0.9480    0.5957 H   0  0  0  0  0  0  0  0  0  0  0  0
   -1.4594    2.3204    1.0029 H   0  0  0  0  0  0  0  0  0  0  0  0
   -2.7065    2.7776   -0.1658 H   0  0  0  0  0  0  0  0  0  0  0  0
   -1.0912    2.7965   -1.7221 H   0  0  0  0  0  0  0  0  0  0  0  0
   -2.0056   -0.3257   -3.6573 H   0  0  0  0  0  0  0  0  0  0  0  0
   -1.0068   -1.6950   -3.1940 H   0  0  0  0  0  0  0  0  0  0  0  0
   -2.8277   -1.6039   -2.8044 H   0  0  0  0  0  0  0  0  0  0  0  0
   -3.5358   -0.1252   -1.3381 H   0  0  0  0  0  0  0  0  0  0  0  0
   -4.4650   -2.8889    0.3782 H   0  0  0  0  0  0  0  0  0  0  0  0
   -4.4865   -2.3125   -1.2897 H   0  0  0  0  0  0  0  0  0  0  0  0
   -5.1216   -1.2643    0.0633 H   0  0  0  0  0  0  0  0  0  0  0  0
   -1.7208   -3.3825   -1.6725 H   0  0  0  0  0  0  0  0  0  0  0  0
   -0.8491   -5.6109   -1.3524 H   0  0  0  0  0  0  0  0  0  0  0  0
    1.4213   -5.9802   -0.3168 H   0  0  0  0  0  0  0  0  0  0  0  0
    2.7206   -4.0420    0.3513 H   0  0  0  0  0  0  0  0  0  0  0  0
    3.7648   -2.4865    1.8473 H   0  0  0  0  0  0  0  0  0  0  0  0
    4.5351   -2.3717    0.2322 H   0  0  0  0  0  0  0  0  0  0  0  0
    5.9960   -1.0989    1.9084 H   0  0  0  0  0  0  0  0  0  0  0  0
    3.9823    3.4684    1.1903 H   0  0  0  0  0  0  0  0  0  0  0  0
    3.2909    5.7541    0.9750 H   0  0  0  0  0  0  0  0  0  0  0  0
    1.0902    6.3566    0.0099 H   0  0  0  0  0  0  0  0  0  0  0  0
   -0.4140    4.5350   -0.7434 H   0  0  0  0  0  0  0  0  0  0  0  0
  1  2  1  0
  2  3  1  0
  3  4  1  0
  4  5  1  0
  5  6  1  0
  6  7  1  0
  7  8  1  6
  7  9  1  0
  9 10  1  0
 10 11  1  0
  7 12  1  0
 12 13  1  0
 13 14  2  0
 14 15  1  0
 15 16  2  0
 16 17  1  0
 17 18  2  0
 18 19  1  0
 19 20  2  0
 20 21  1  0
 21 22  1  0
 22 23  1  0
 23 24  2  0
 23 25  1  0
 25 26  2  0
 26 27  1  0
 27 28  2  0
 28 29  1  0
 29 30  2  0
 30 31  1  0
 31 32  2  0
 32 33  1  0
 33 34  1  0
 34 35  2  0
  9  3  1  0
 35 12  1  0
 33  5  1  0
 18 13  1  0
 35 19  1  0
 25 20  1  0
 34 26  1  0
 32 27  1  0
  1 36  1  0
  1 37  1  0
  1 38  1  0
  2 39  1  0
  3 40  1  1
  4 41  1  0
  4 42  1  0
  5 43  1  6
  8 44  1  0
  8 45  1  0
  8 46  1  0
  9 47  1  6
 11 48  1  0
 11 49  1  0
 11 50  1  0
 14 51  1  0
 15 52  1  0
 16 53  1  0
 17 54  1  0
 21 55  1  0
 21 56  1  0
 22 57  1  0
 28 58  1  0
 29 59  1  0
 30 60  1  0
 31 61  1  0
M  END
$$$$
[H]c1nc(N([H])c2c([H])c([H])c(N3C([H])([H])C([H])([H])OC([H])([H])C3([H])[H])c([H])c2[H])nc(-c2c(F)c([H])c(C(=O)N([H])[H])c([H])c2F)c1[H]
     RDKit          3D

 49 52  0  0  0  0  0  0  0  0999 V2000
    9.4743   -0.5911    1.0151 N   0  0  0  0  0  0  0  0  0  0  0  0
    8.7321    0.5326    0.5751 C   0  0  0  0  0  0  0  0  0  0  0  0
    9.2958    1.6517    0.5643 O   0  0  0  0  0  0  0  0  0  0  0  0
    7.3540    0.4237    0.1423 C   0  0  0  0  0  0  0  0  0  0  0  0
    6.7563   -0.8134    0.1623 C   0  0  0  0  0  0  0  0  0  0  0  0
    5.4605   -0.9501   -0.2387 C   0  0  0  0  0  0  0  0  0  0  0  0
    4.8355   -2.1566   -0.2330 F   0  0  0  0  0  0  0  0  0  0  0  0
    4.7537    0.1754   -0.6670 C   0  0  0  0  0  0  0  0  0  0  0  0
    5.3280    1.4213   -0.6962 C   0  0  0  0  0  0  0  0  0  0  0  0
    4.5917    2.4718   -1.1210 F   0  0  0  0  0  0  0  0  0  0  0  0
    6.6342    1.5293   -0.2868 C   0  0  0  0  0  0  0  0  0  0  0  0
    3.3643    0.0159   -1.0946 C   0  0  0  0  0  0  0  0  0  0  0  0
    3.0698   -0.2547   -2.4114 C   0  0  0  0  0  0  0  0  0  0  0  0
    1.7341   -0.3880   -2.7188 C   0  0  0  0  0  0  0  0  0  0  0  0
    0.7885   -0.2601   -1.7851 N   0  0  0  0  0  0  0  0  0  0  0  0
    1.0488    0.0025   -0.4994 C   0  0  0  0  0  0  0  0  0  0  0  0
    0.1020    0.1487    0.5334 N   0  0  0  0  0  0  0  0  0  0  0  0
   -1.2977    0.0622    0.4475 C   0  0  0  0  0  0  0  0  0  0  0  0
   -2.0151   -0.0565    1.6462 C   0  0  0  0  0  0  0  0  0  0  0  0
   -3.3911   -0.1344    1.6633 C   0  0  0  0  0  0  0  0  0  0  0  0
   -4.1340   -0.1004    0.5107 C   0  0  0  0  0  0  0  0  0  0  0  0
   -3.4609    0.0155   -0.6773 C   0  0  0  0  0  0  0  0  0  0  0  0
   -2.0568    0.0954   -0.6960 C   0  0  0  0  0  0  0  0  0  0  0  0
   -5.5801   -0.1835    0.5198 N   0  0  0  0  0  0  0  0  0  0  0  0
   -6.3210   -0.1076   -0.7095 C   0  0  0  0  0  0  0  0  0  0  0  0
   -7.7353   -0.5360   -0.6348 C   0  0  0  0  0  0  0  0  0  0  0  0
   -7.9068   -1.4067    0.4360 O   0  0  0  0  0  0  0  0  0  0  0  0
   -7.6746   -0.6615    1.6177 C   0  0  0  0  0  0  0  0  0  0  0  0
   -6.2279   -0.3370    1.7801 C   0  0  0  0  0  0  0  0  0  0  0  0
    2.3735    0.1323   -0.2075 N   0  0  0  0  0  0  0  0  0  0  0  0
    8.9947   -1.3870    1.5219 H   0  0  0  0  0  0  0  0  0  0  0  0
   10.5103   -0.6727    0.8563 H   0  0  0  0  0  0  0  0  0  0  0  0
    7.2680   -1.7230    0.4889 H   0  0  0  0  0  0  0  0  0  0  0  0
    7.0964    2.4899   -0.3030 H   0  0  0  0  0  0  0  0  0  0  0  0
    3.8552   -0.3547   -3.1544 H   0  0  0  0  0  0  0  0  0  0  0  0
    1.5077   -0.6028   -3.7662 H   0  0  0  0  0  0  0  0  0  0  0  0
    0.5105    0.3541    1.4878 H   0  0  0  0  0  0  0  0  0  0  0  0
   -1.4456   -0.0877    2.5843 H   0  0  0  0  0  0  0  0  0  0  0  0
   -3.9024   -0.2228    2.6135 H   0  0  0  0  0  0  0  0  0  0  0  0
   -3.9952    0.0494   -1.6279 H   0  0  0  0  0  0  0  0  0  0  0  0
   -1.5681    0.1947   -1.6403 H   0  0  0  0  0  0  0  0  0  0  0  0
   -6.1839    0.8826   -1.2142 H   0  0  0  0  0  0  0  0  0  0  0  0
   -5.8083   -0.8234   -1.4270 H   0  0  0  0  0  0  0  0  0  0  0  0
   -8.3953    0.3674   -0.5024 H   0  0  0  0  0  0  0  0  0  0  0  0
   -8.0712   -1.1062   -1.5502 H   0  0  0  0  0  0  0  0  0  0  0  0
   -8.0712   -1.2861    2.4440 H   0  0  0  0  0  0  0  0  0  0  0  0
   -8.3175    0.2477    1.5047 H   0  0  0  0  0  0  0  0  0  0  0  0
   -6.1631    0.6667    2.2967 H   0  0  0  0  0  0  0  0  0  0  0  0
   -5.7169   -1.0685    2.4506 H   0  0  0  0  0  0  0  0  0  0  0  0
  1  2  1  0
  2  3  2  0
  2  4  1  0
  4  5  2  0
  5  6  1  0
  6  7  1  0
  6  8  2  0
  8  9  1  0
  9 10  1  0
  9 11  2  0
  8 12  1  0
 12 13  2  0
 13 14  1  0
 14 15  2  0
 15 16  1  0
 16 17  1  0
 17 18  1  0
 18 19  2  0
 19 20  1  0
 20 21  2  0
 21 22  1  0
 22 23  2  0
 21 24  1  0
 24 25  1  0
 25 26  1  0
 26 27  1  0
 27 28  1  0
 28 29  1  0
 16 30  2  0
 11  4  1  0
 30 12  1  0
 23 18  1  0
 29 24  1  0
  1 31  1  0
  1 32  1  0
  5 33  1  0
 11 34  1  0
 13 35  1  0
 14 36  1  0
 17 37  1  0
 19 38  1  0
 20 39  1  0
 22 40  1  0
 23 41  1  0
 25 42  1  0
 25 43  1  0
 26 44  1  0
 26 45  1  0
 28 46  1  0
 28 47  1  0
 29 48  1  0
 29 49  1  0
M  END
$$$$
[H]c1c([H])c([H])c(N([H])C2=C(C3([H])C(=O)N3C([H])([H])C([H])([H])[H])C([H])([H])C([H])([H])C2=O)c(F)c1[H]
     RDKit          3D

 35 37  0  0  0  0  0  0  0  0999 V2000
    4.5983    0.1999   -0.1542 C   0  0  0  0  0  0  0  0  0  0  0  0
    3.8574    1.4720   -0.4652 C   0  0  0  0  0  0  0  0  0  0  0  0
    2.4874    1.3150   -0.1474 N   0  0  0  0  0  0  0  0  0  0  0  0
    1.1249    0.9716   -0.4189 C   0  0  0  0  0  0  0  0  0  0  0  0
    0.7401   -0.4906   -0.4049 C   0  0  0  0  0  0  0  0  0  0  0  0
   -0.4398   -0.9302   -0.7845 C   0  0  0  0  0  0  0  0  0  0  0  0
   -1.5014   -0.0982   -1.2543 N   0  0  0  0  0  0  0  0  0  0  0  0
   -2.5735    0.3230   -0.4481 C   0  0  0  0  0  0  0  0  0  0  0  0
   -2.6337   -0.0734    0.8808 C   0  0  0  0  0  0  0  0  0  0  0  0
   -3.6421    0.2915    1.7346 C   0  0  0  0  0  0  0  0  0  0  0  0
   -4.6582    1.0926    1.2709 C   0  0  0  0  0  0  0  0  0  0  0  0
   -4.6240    1.5053   -0.0564 C   0  0  0  0  0  0  0  0  0  0  0  0
   -3.5964    1.1230   -0.8948 C   0  0  0  0  0  0  0  0  0  0  0  0
   -3.5731    1.5336   -2.1948 F   0  0  0  0  0  0  0  0  0  0  0  0
   -0.5024   -2.3764   -0.6559 C   0  0  0  0  0  0  0  0  0  0  0  0
   -1.3760   -3.1624   -1.1592 O   0  0  0  0  0  0  0  0  0  0  0  0
    0.6523   -2.7776    0.1799 C   0  0  0  0  0  0  0  0  0  0  0  0
    1.5926   -1.6160    0.0219 C   0  0  0  0  0  0  0  0  0  0  0  0
    1.4886    1.4768    0.9432 C   0  0  0  0  0  0  0  0  0  0  0  0
    1.2332    1.8059    2.1193 O   0  0  0  0  0  0  0  0  0  0  0  0
    4.2782   -0.1830    0.8339 H   0  0  0  0  0  0  0  0  0  0  0  0
    4.4271   -0.5992   -0.9022 H   0  0  0  0  0  0  0  0  0  0  0  0
    5.6772    0.4505   -0.0727 H   0  0  0  0  0  0  0  0  0  0  0  0
    4.3700    2.2766    0.1247 H   0  0  0  0  0  0  0  0  0  0  0  0
    4.0374    1.7626   -1.5289 H   0  0  0  0  0  0  0  0  0  0  0  0
    0.4986    1.6006   -1.0545 H   0  0  0  0  0  0  0  0  0  0  0  0
   -1.4549    0.1986   -2.2521 H   0  0  0  0  0  0  0  0  0  0  0  0
   -1.8480   -0.7042    1.2736 H   0  0  0  0  0  0  0  0  0  0  0  0
   -3.6883   -0.0184    2.7716 H   0  0  0  0  0  0  0  0  0  0  0  0
   -5.4613    1.3863    1.9418 H   0  0  0  0  0  0  0  0  0  0  0  0
   -5.4178    2.1364   -0.4345 H   0  0  0  0  0  0  0  0  0  0  0  0
    0.3932   -2.9819    1.2249 H   0  0  0  0  0  0  0  0  0  0  0  0
    1.1345   -3.7092   -0.2139 H   0  0  0  0  0  0  0  0  0  0  0  0
    2.2890   -1.8408   -0.8007 H   0  0  0  0  0  0  0  0  0  0  0  0
    2.1109   -1.3602    0.9770 H   0  0  0  0  0  0  0  0  0  0  0  0
  1  2  1  0
  2  3  1  0
  3  4  1  0
  4  5  1  0
  5  6  2  0
  6  7  1  0
  7  8  1  0
  8  9  2  0
  9 10  1  0
 10 11  2  0
 11 12  1  0
 12 13  2  0
 13 14  1  0
  6 15  1  0
 15 16  2  0
 15 17  1  0
 17 18  1  0
  4 19  1  0
 19 20  2  0
 19  3  1  0
 18  5  1  0
 13  8  1  0
  1 21  1  0
  1 22  1  0
  1 23  1  0
  2 24  1  0
  2 25  1  0
  4 26  1  0
  7 27  1  0
  9 28  1  0
 10 29  1  0
 11 30  1  0
 12 31  1  0
 17 32  1  0
 17 33  1  0
 18 34  1  0
 18 35  1  0
M  END
$$$$
