[H]Oc1c(C(=O)OC([H])([H])C([H])([H])C([H])([H])C([H])([H])C([H])([H])[H])c(=O)n(C([H])([H])[H])c(=O)c2c([H])c([H])c([H])c([H])c12
     RDKit          3D

 42 43  0  0  0  0  0  0  0  0999 V2000
    5.2065    0.2969    1.3087 C   0  0  0  0  0  0  0  0  0  0  0  0
    5.3542   -0.6517    0.1355 C   0  0  0  0  0  0  0  0  0  0  0  0
    4.9137    0.0660   -1.1192 C   0  0  0  0  0  0  0  0  0  0  0  0
    3.4800    0.5295   -1.0436 C   0  0  0  0  0  0  0  0  0  0  0  0
    2.5864   -0.6560   -0.8544 C   0  0  0  0  0  0  0  0  0  0  0  0
    1.2250   -0.1963   -0.7959 O   0  0  0  0  0  0  0  0  0  0  0  0
    0.1783   -1.0890   -0.6246 C   0  0  0  0  0  0  0  0  0  0  0  0
    0.5455   -2.3053   -0.5296 O   0  0  0  0  0  0  0  0  0  0  0  0
   -1.2204   -0.7522   -0.5479 C   0  0  0  0  0  0  0  0  0  0  0  0
   -1.5723    0.5678   -0.6580 C   0  0  0  0  0  0  0  0  0  0  0  0
   -0.8909    1.3346   -1.5557 O   0  0  0  0  0  0  0  0  0  0  0  0
   -2.5857    1.2339    0.0687 C   0  0  0  0  0  0  0  0  0  0  0  0
   -2.3640    2.5781    0.0919 C   0  0  0  0  0  0  0  0  0  0  0  0
   -3.2660    3.3767    0.7606 C   0  0  0  0  0  0  0  0  0  0  0  0
   -4.3540    2.7848    1.3779 C   0  0  0  0  0  0  0  0  0  0  0  0
   -4.5816    1.4341    1.3575 C   0  0  0  0  0  0  0  0  0  0  0  0
   -3.6691    0.6418    0.6829 C   0  0  0  0  0  0  0  0  0  0  0  0
   -3.9807   -0.7121    0.7143 C   0  0  0  0  0  0  0  0  0  0  0  0
   -5.0500   -0.9713    1.3606 O   0  0  0  0  0  0  0  0  0  0  0  0
   -3.3498   -1.7867    0.1822 N   0  0  0  0  0  0  0  0  0  0  0  0
   -4.0997   -3.0236    0.1805 C   0  0  0  0  0  0  0  0  0  0  0  0
   -2.0858   -1.8000   -0.3435 C   0  0  0  0  0  0  0  0  0  0  0  0
   -1.7253   -2.9550   -0.6621 O   0  0  0  0  0  0  0  0  0  0  0  0
    5.8442   -0.1035    2.1235 H   0  0  0  0  0  0  0  0  0  0  0  0
    4.1486    0.3900    1.5763 H   0  0  0  0  0  0  0  0  0  0  0  0
    5.6258    1.2883    0.9873 H   0  0  0  0  0  0  0  0  0  0  0  0
    4.7931   -1.5781    0.3415 H   0  0  0  0  0  0  0  0  0  0  0  0
    6.4275   -0.9615    0.0346 H   0  0  0  0  0  0  0  0  0  0  0  0
    5.0671   -0.6559   -1.9580 H   0  0  0  0  0  0  0  0  0  0  0  0
    5.5827    0.9204   -1.3516 H   0  0  0  0  0  0  0  0  0  0  0  0
    3.3977    1.2305   -0.1611 H   0  0  0  0  0  0  0  0  0  0  0  0
    3.1879    1.1187   -1.9268 H   0  0  0  0  0  0  0  0  0  0  0  0
    2.6890   -1.3430   -1.6932 H   0  0  0  0  0  0  0  0  0  0  0  0
    2.8545   -1.1192    0.1396 H   0  0  0  0  0  0  0  0  0  0  0  0
   -0.1808    1.0523   -2.1709 H   0  0  0  0  0  0  0  0  0  0  0  0
   -1.4887    2.9964   -0.4122 H   0  0  0  0  0  0  0  0  0  0  0  0
   -3.1352    4.4491    0.8084 H   0  0  0  0  0  0  0  0  0  0  0  0
   -5.0587    3.4172    1.9014 H   0  0  0  0  0  0  0  0  0  0  0  0
   -5.4130    0.9416    1.8243 H   0  0  0  0  0  0  0  0  0  0  0  0
   -4.0160   -3.5836    1.1174 H   0  0  0  0  0  0  0  0  0  0  0  0
   -5.1904   -2.7726    0.0396 H   0  0  0  0  0  0  0  0  0  0  0  0
   -3.8298   -3.6319   -0.7068 H   0  0  0  0  0  0  0  0  0  0  0  0
  1  2  1  0
  2  3  1  0
  3  4  1  0
  4  5  1  0
  5  6  1  0
  6  7  1  0
  7  8  2  0
  7  9  1  0
  9 10  2  0
 10 11  1  0
 10 12  1  0
 12 13  2  0
 13 14  1  0
 14 15  2  0
 15 16  1  0
 16 17  2  0
 17 18  1  0
 18 19  2  0
 18 20  1  0
 20 21  1  0
 20 22  1  0
 22 23  2  0
 22  9  1  0
 17 12  1  0
  1 24  1  0
  1 25  1  0
  1 26  1  0
  2 27  1  0
  2 28  1  0
  3 29  1  0
  3 30  1  0
  4 31  1  0
  4 32  1  0
  5 33  1  0
  5 34  1  0
 11 35  1  0
 13 36  1  0
 14 37  1  0
 15 38  1  0
 16 39  1  0
 21 40  1  0
 21 41  1  0
 21 42  1  0
M  END
$$$$
[H]c1c([H])c(C([H])([H])[H])c([H])c(-c2c([H])c([H])c3nnn(C([H])(C([H])([H])[H])C([H])([H])[H])c3c2[H])c1F
     RDKit          3D

 36 38  0  0  0  0  0  0  0  0999 V2000
   -2.8660    1.2410    1.6852 C   0  0  0  0  0  0  0  0  0  0  0  0
   -3.4336    1.1131    0.2928 C   0  0  0  0  0  0  0  0  0  0  0  0
   -2.9144    2.2226   -0.6126 C   0  0  0  0  0  0  0  0  0  0  0  0
   -3.2194   -0.1934   -0.2717 N   0  0  0  0  0  0  0  0  0  0  0  0
   -4.1358   -1.0247   -0.7741 N   0  0  0  0  0  0  0  0  0  0  0  0
   -3.5458   -2.1265   -1.1945 N   0  0  0  0  0  0  0  0  0  0  0  0
   -2.2249   -2.0124   -0.9630 C   0  0  0  0  0  0  0  0  0  0  0  0
   -1.1852   -2.8819   -1.2167 C   0  0  0  0  0  0  0  0  0  0  0  0
    0.0784   -2.4836   -0.8639 C   0  0  0  0  0  0  0  0  0  0  0  0
    0.3643   -1.2644   -0.2708 C   0  0  0  0  0  0  0  0  0  0  0  0
   -0.7324   -0.4439   -0.0472 C   0  0  0  0  0  0  0  0  0  0  0  0
   -2.0118   -0.7866   -0.3770 C   0  0  0  0  0  0  0  0  0  0  0  0
    1.7082   -0.8818    0.0877 C   0  0  0  0  0  0  0  0  0  0  0  0
    2.1893    0.3931   -0.2268 C   0  0  0  0  0  0  0  0  0  0  0  0
    3.4754    0.7638    0.1124 C   0  0  0  0  0  0  0  0  0  0  0  0
    4.0021    2.1338   -0.2219 C   0  0  0  0  0  0  0  0  0  0  0  0
    4.2937   -0.1387    0.7703 C   0  0  0  0  0  0  0  0  0  0  0  0
    3.8476   -1.4017    1.0934 C   0  0  0  0  0  0  0  0  0  0  0  0
    2.5463   -1.7565    0.7424 C   0  0  0  0  0  0  0  0  0  0  0  0
    2.1114   -2.9912    1.0609 F   0  0  0  0  0  0  0  0  0  0  0  0
   -3.6343    1.5818    2.4253 H   0  0  0  0  0  0  0  0  0  0  0  0
   -2.0695    2.0221    1.6918 H   0  0  0  0  0  0  0  0  0  0  0  0
   -2.4957    0.2565    2.0146 H   0  0  0  0  0  0  0  0  0  0  0  0
   -4.5324    1.2684    0.3802 H   0  0  0  0  0  0  0  0  0  0  0  0
   -1.9718    2.6463   -0.2444 H   0  0  0  0  0  0  0  0  0  0  0  0
   -2.7014    1.7649   -1.6118 H   0  0  0  0  0  0  0  0  0  0  0  0
   -3.6804    3.0041   -0.7795 H   0  0  0  0  0  0  0  0  0  0  0  0
   -1.3733   -3.8574   -1.6855 H   0  0  0  0  0  0  0  0  0  0  0  0
    0.8792   -3.1996   -1.0820 H   0  0  0  0  0  0  0  0  0  0  0  0
   -0.5657    0.5113    0.4095 H   0  0  0  0  0  0  0  0  0  0  0  0
    1.5429    1.0828   -0.7375 H   0  0  0  0  0  0  0  0  0  0  0  0
    5.0575    2.0078   -0.5359 H   0  0  0  0  0  0  0  0  0  0  0  0
    3.4025    2.6182   -0.9920 H   0  0  0  0  0  0  0  0  0  0  0  0
    4.0253    2.7012    0.7312 H   0  0  0  0  0  0  0  0  0  0  0  0
    5.2953    0.2096    1.0112 H   0  0  0  0  0  0  0  0  0  0  0  0
    4.4744   -2.0985    1.5994 H   0  0  0  0  0  0  0  0  0  0  0  0
  1  2  1  0
  2  3  1  0
  2  4  1  0
  4  5  1  0
  5  6  2  0
  6  7  1  0
  7  8  2  0
  8  9  1  0
  9 10  2  0
 10 11  1  0
 11 12  2  0
 10 13  1  0
 13 14  2  0
 14 15  1  0
 15 16  1  0
 15 17  2  0
 17 18  1  0
 18 19  2  0
 19 20  1  0
 12  4  1  0
 19 13  1  0
 12  7  1  0
  1 21  1  0
  1 22  1  0
  1 23  1  0
  2 24  1  0
  3 25  1  0
  3 26  1  0
  3 27  1  0
  8 28  1  0
  9 29  1  0
 11 30  1  0
 14 31  1  0
 16 32  1  0
 16 33  1  0
 16 34  1  0
 17 35  1  0
 18 36  1  0
M  END
$$$$
[H]Oc1c([H])c([H])c(-c2c([H])c3nc(N([H])C(=O)N([H])C([H])([H])C([H])([H])[H])sc3n(C([H])(C([H])([H])[H])C([H])([H])[H])c2=O)c([H])c1C([H])([H])[H]
     RDKit          3D

 49 51  0  0  0  0  0  0  0  0999 V2000
    7.7097    0.1055    0.5550 C   0  0  0  0  0  0  0  0  0  0  0  0
    7.5226    0.7512   -0.7944 C   0  0  0  0  0  0  0  0  0  0  0  0
    6.2854    1.4948   -0.8799 N   0  0  0  0  0  0  0  0  0  0  0  0
    5.0144    0.8992   -0.7021 C   0  0  0  0  0  0  0  0  0  0  0  0
    4.9961   -0.3478   -0.4575 O   0  0  0  0  0  0  0  0  0  0  0  0
    3.8227    1.6263   -0.7867 N   0  0  0  0  0  0  0  0  0  0  0  0
    2.5687    0.9490   -0.5937 C   0  0  0  0  0  0  0  0  0  0  0  0
    1.3468    1.4385   -0.6303 N   0  0  0  0  0  0  0  0  0  0  0  0
    0.3249    0.6639   -0.4295 C   0  0  0  0  0  0  0  0  0  0  0  0
   -1.0495    1.0239   -0.4335 C   0  0  0  0  0  0  0  0  0  0  0  0
   -2.0090    0.0803   -0.2026 C   0  0  0  0  0  0  0  0  0  0  0  0
   -3.4203    0.5145   -0.2196 C   0  0  0  0  0  0  0  0  0  0  0  0
   -4.3653   -0.2314   -0.8905 C   0  0  0  0  0  0  0  0  0  0  0  0
   -5.6657    0.2172   -0.8751 C   0  0  0  0  0  0  0  0  0  0  0  0
   -6.0464    1.3881   -0.2091 C   0  0  0  0  0  0  0  0  0  0  0  0
   -7.3583    1.8020   -0.2181 O   0  0  0  0  0  0  0  0  0  0  0  0
   -5.0914    2.1269    0.4593 C   0  0  0  0  0  0  0  0  0  0  0  0
   -5.4971    3.3728    1.1677 C   0  0  0  0  0  0  0  0  0  0  0  0
   -3.7993    1.6763    0.4408 C   0  0  0  0  0  0  0  0  0  0  0  0
   -1.7114   -1.2435    0.0419 C   0  0  0  0  0  0  0  0  0  0  0  0
   -2.5511   -2.1385    0.2575 O   0  0  0  0  0  0  0  0  0  0  0  0
   -0.4050   -1.5922    0.0469 N   0  0  0  0  0  0  0  0  0  0  0  0
    0.0272   -2.9252    0.2866 C   0  0  0  0  0  0  0  0  0  0  0  0
   -0.6795   -3.9623   -0.5488 C   0  0  0  0  0  0  0  0  0  0  0  0
   -0.2954   -3.2633    1.7476 C   0  0  0  0  0  0  0  0  0  0  0  0
    0.5611   -0.6563   -0.1828 C   0  0  0  0  0  0  0  0  0  0  0  0
    2.2675   -0.7079   -0.2552 S   0  0  0  0  0  0  0  0  0  0  0  0
    6.8692    0.3230    1.2476 H   0  0  0  0  0  0  0  0  0  0  0  0
    7.7945   -0.9902    0.4472 H   0  0  0  0  0  0  0  0  0  0  0  0
    8.6279    0.5142    1.0657 H   0  0  0  0  0  0  0  0  0  0  0  0
    7.5112   -0.0320   -1.5746 H   0  0  0  0  0  0  0  0  0  0  0  0
    8.3598    1.4268   -0.9872 H   0  0  0  0  0  0  0  0  0  0  0  0
    6.3028    2.5300   -1.0830 H   0  0  0  0  0  0  0  0  0  0  0  0
    3.8242    2.6425   -0.9854 H   0  0  0  0  0  0  0  0  0  0  0  0
   -1.3459    2.0421   -0.6182 H   0  0  0  0  0  0  0  0  0  0  0  0
   -4.0676   -1.1437   -1.4094 H   0  0  0  0  0  0  0  0  0  0  0  0
   -6.4017   -0.3674   -1.3998 H   0  0  0  0  0  0  0  0  0  0  0  0
   -7.6109    2.6402    0.2627 H   0  0  0  0  0  0  0  0  0  0  0  0
   -6.0897    3.9960    0.4803 H   0  0  0  0  0  0  0  0  0  0  0  0
   -6.1053    3.1436    2.0787 H   0  0  0  0  0  0  0  0  0  0  0  0
   -4.5766    3.8793    1.5261 H   0  0  0  0  0  0  0  0  0  0  0  0
   -3.0546    2.2663    0.9709 H   0  0  0  0  0  0  0  0  0  0  0  0
    1.1001   -3.0543    0.1752 H   0  0  0  0  0  0  0  0  0  0  0  0
    0.0052   -4.8289   -0.6623 H   0  0  0  0  0  0  0  0  0  0  0  0
   -1.5826   -4.3864   -0.0192 H   0  0  0  0  0  0  0  0  0  0  0  0
   -0.9235   -3.6050   -1.5623 H   0  0  0  0  0  0  0  0  0  0  0  0
   -1.2442   -3.8297    1.8123 H   0  0  0  0  0  0  0  0  0  0  0  0
    0.5032   -3.8953    2.1956 H   0  0  0  0  0  0  0  0  0  0  0  0
   -0.3978   -2.3331    2.3451 H   0  0  0  0  0  0  0  0  0  0  0  0
  1  2  1  0
  2  3  1  0
  3  4  1  0
  4  5  2  0
  4  6  1  0
  6  7  1  0
  7  8  2  0
  8  9  1  0
  9 10  1  0
 10 11  2  0
 11 12  1  0
 12 13  2  0
 13 14  1  0
 14 15  2  0
 15 16  1  0
 15 17  1  0
 17 18  1  0
 17 19  2  0
 11 20  1  0
 20 21  2  0
 20 22  1  0
 22 23  1  0
 23 24  1  0
 23 25  1  0
 22 26  1  0
 26 27  1  0
 27  7  1  0
 26  9  2  0
 19 12  1  0
  1 28  1  0
  1 29  1  0
  1 30  1  0
  2 31  1  0
  2 32  1  0
  3 33  1  0
  6 34  1  0
 10 35  1  0
 13 36  1  0
 14 37  1  0
 16 38  1  0
 18 39  1  0
 18 40  1  0
 18 41  1  0
 19 42  1  0
 23 43  1  0
 24 44  1  0
 24 45  1  0
 24 46  1  0
 25 47  1  0
 25 48  1  0
 25 49  1  0
M  END
$$$$
[H]c1nc(N([H])c2c([H])c(OC([H])([H])[H])c(OC([H])([H])[H])c(OC([H])([H])[H])c2[H])nc(Oc2c([H])c([H])c(N([H])C(=O)N([H])c3c([H])c(C(C([H])([H])[H])(C([H])([H])[H])C([H])([H])[H])c([H])c(N([H])S(=O)(=O)C([H])([H])[H])c3OC([H])([H])[H])c3c([H])c([H])c([H])c([H])c23)c1[H]
     RDKit          3D

 91 95  0  0  0  0  0  0  0  0999 V2000
   10.7634   -0.1563    0.1856 C   0  0  0  0  0  0  0  0  0  0  0  0
   10.5911    1.2430    0.2913 O   0  0  0  0  0  0  0  0  0  0  0  0
    9.4432    1.8840   -0.1644 C   0  0  0  0  0  0  0  0  0  0  0  0
    8.3945    1.1816   -0.7478 C   0  0  0  0  0  0  0  0  0  0  0  0
    7.2513    1.8177   -1.2023 C   0  0  0  0  0  0  0  0  0  0  0  0
    6.1779    1.0839   -1.7628 N   0  0  0  0  0  0  0  0  0  0  0  0
    5.7085   -0.1452   -1.1763 C   0  0  0  0  0  0  0  0  0  0  0  0
    6.2581   -0.6127   -0.0389 N   0  0  0  0  0  0  0  0  0  0  0  0
    5.8499   -1.7535    0.5347 C   0  0  0  0  0  0  0  0  0  0  0  0
    4.8373   -2.5063   -0.0197 C   0  0  0  0  0  0  0  0  0  0  0  0
    4.2696   -2.0168   -1.2001 C   0  0  0  0  0  0  0  0  0  0  0  0
    3.2636   -2.8037   -1.7242 O   0  0  0  0  0  0  0  0  0  0  0  0
    1.9327   -2.7593   -1.4124 C   0  0  0  0  0  0  0  0  0  0  0  0
    1.3823   -1.8603   -0.5610 C   0  0  0  0  0  0  0  0  0  0  0  0
    0.0198   -1.8781   -0.2942 C   0  0  0  0  0  0  0  0  0  0  0  0
   -0.8504   -2.7792   -0.8529 C   0  0  0  0  0  0  0  0  0  0  0  0
   -2.2219   -2.8917   -0.6075 N   0  0  0  0  0  0  0  0  0  0  0  0
   -3.0240   -1.8418   -0.0497 C   0  0  0  0  0  0  0  0  0  0  0  0
   -2.4823   -0.7600    0.2254 O   0  0  0  0  0  0  0  0  0  0  0  0
   -4.3923   -2.0128    0.1859 N   0  0  0  0  0  0  0  0  0  0  0  0
   -5.3564   -1.1383    0.6942 C   0  0  0  0  0  0  0  0  0  0  0  0
   -5.0756    0.1730    0.9730 C   0  0  0  0  0  0  0  0  0  0  0  0
   -6.0575    1.0428    1.4467 C   0  0  0  0  0  0  0  0  0  0  0  0
   -7.3357    0.5900    1.6408 C   0  0  0  0  0  0  0  0  0  0  0  0
   -7.6449   -0.7138    1.3683 C   0  0  0  0  0  0  0  0  0  0  0  0
   -8.9811   -1.1808    1.5909 N   0  0  0  0  0  0  0  0  0  0  0  0
  -10.3913   -0.2614    1.2608 S   0  0  0  0  0  0  0  0  0  0  0  0
  -10.4940    0.1261   -0.4965 C   0  0  0  0  0  0  0  0  0  0  0  0
  -11.6413   -1.0386    1.6543 O   0  0  0  0  0  0  0  0  0  0  0  0
  -10.4490    1.0192    2.0211 O   0  0  0  0  0  0  0  0  0  0  0  0
   -6.6749   -1.5732    0.9022 C   0  0  0  0  0  0  0  0  0  0  0  0
   -7.0063   -2.8879    0.6305 O   0  0  0  0  0  0  0  0  0  0  0  0
   -7.4707   -3.3567   -0.6097 C   0  0  0  0  0  0  0  0  0  0  0  0
   -5.6711    2.4511    1.7173 C   0  0  0  0  0  0  0  0  0  0  0  0
   -6.8550    3.3816    1.6414 C   0  0  0  0  0  0  0  0  0  0  0  0
   -4.6971    2.8777    0.6280 C   0  0  0  0  0  0  0  0  0  0  0  0
   -5.0166    2.6224    3.0720 C   0  0  0  0  0  0  0  0  0  0  0  0
   -0.2656   -3.7090   -1.7342 C   0  0  0  0  0  0  0  0  0  0  0  0
   -1.0211   -4.6764   -2.3724 C   0  0  0  0  0  0  0  0  0  0  0  0
   -0.4501   -5.6032   -3.2534 C   0  0  0  0  0  0  0  0  0  0  0  0
    0.8834   -5.5606   -3.4950 C   0  0  0  0  0  0  0  0  0  0  0  0
    1.6665   -4.6095   -2.8766 C   0  0  0  0  0  0  0  0  0  0  0  0
    1.0772   -3.6910   -1.9979 C   0  0  0  0  0  0  0  0  0  0  0  0
    4.7219   -0.8691   -1.7255 N   0  0  0  0  0  0  0  0  0  0  0  0
    7.2228    3.2027   -1.0359 C   0  0  0  0  0  0  0  0  0  0  0  0
    8.2641    3.8984   -0.4541 C   0  0  0  0  0  0  0  0  0  0  0  0
    8.2211    5.2915   -0.2862 O   0  0  0  0  0  0  0  0  0  0  0  0
    7.1195    6.0670   -0.6927 C   0  0  0  0  0  0  0  0  0  0  0  0
    9.3956    3.2589   -0.0063 C   0  0  0  0  0  0  0  0  0  0  0  0
   10.4595    3.9212    0.5739 O   0  0  0  0  0  0  0  0  0  0  0  0
   10.5310    4.1193    1.9760 C   0  0  0  0  0  0  0  0  0  0  0  0
    9.9256   -0.6471    0.6940 H   0  0  0  0  0  0  0  0  0  0  0  0
   11.7361   -0.4580    0.6277 H   0  0  0  0  0  0  0  0  0  0  0  0
   10.8143   -0.4026   -0.9075 H   0  0  0  0  0  0  0  0  0  0  0  0
    8.5070    0.0988   -0.8498 H   0  0  0  0  0  0  0  0  0  0  0  0
    5.7044    1.4374   -2.6276 H   0  0  0  0  0  0  0  0  0  0  0  0
    6.2954   -2.1405    1.4604 H   0  0  0  0  0  0  0  0  0  0  0  0
    4.4993   -3.4247    0.4299 H   0  0  0  0  0  0  0  0  0  0  0  0
    1.9980   -1.1169   -0.0791 H   0  0  0  0  0  0  0  0  0  0  0  0
   -0.3673   -1.1507    0.4066 H   0  0  0  0  0  0  0  0  0  0  0  0
   -2.7391   -3.8071   -0.8155 H   0  0  0  0  0  0  0  0  0  0  0  0
   -4.7600   -2.9949   -0.0730 H   0  0  0  0  0  0  0  0  0  0  0  0
   -4.1044    0.6113    0.8501 H   0  0  0  0  0  0  0  0  0  0  0  0
   -8.0703    1.3060    2.0131 H   0  0  0  0  0  0  0  0  0  0  0  0
   -9.1317   -2.1634    1.9890 H   0  0  0  0  0  0  0  0  0  0  0  0
   -9.7372   -0.4284   -1.0606 H   0  0  0  0  0  0  0  0  0  0  0  0
  -10.3274    1.2058   -0.6609 H   0  0  0  0  0  0  0  0  0  0  0  0
  -11.5128   -0.1188   -0.8453 H   0  0  0  0  0  0  0  0  0  0  0  0
   -6.6978   -3.6915   -1.3046 H   0  0  0  0  0  0  0  0  0  0  0  0
   -8.1609   -4.2214   -0.3709 H   0  0  0  0  0  0  0  0  0  0  0  0
   -8.1362   -2.6026   -1.1096 H   0  0  0  0  0  0  0  0  0  0  0  0
   -7.6186    3.0069    0.9196 H   0  0  0  0  0  0  0  0  0  0  0  0
   -6.4988    4.3452    1.2242 H   0  0  0  0  0  0  0  0  0  0  0  0
   -7.2847    3.5979    2.6412 H   0  0  0  0  0  0  0  0  0  0  0  0
   -4.9384    3.8926    0.2516 H   0  0  0  0  0  0  0  0  0  0  0  0
   -3.6586    2.7913    1.0110 H   0  0  0  0  0  0  0  0  0  0  0  0
   -4.8371    2.1995   -0.2291 H   0  0  0  0  0  0  0  0  0  0  0  0
   -5.2372    1.7606    3.7267 H   0  0  0  0  0  0  0  0  0  0  0  0
   -3.9208    2.7391    2.8998 H   0  0  0  0  0  0  0  0  0  0  0  0
   -5.3774    3.5635    3.5122 H   0  0  0  0  0  0  0  0  0  0  0  0
   -2.0645   -4.7394   -2.2086 H   0  0  0  0  0  0  0  0  0  0  0  0
   -1.0733   -6.3253   -3.7221 H   0  0  0  0  0  0  0  0  0  0  0  0
    1.3962   -6.2538   -4.1628 H   0  0  0  0  0  0  0  0  0  0  0  0
    2.7233   -4.5804   -3.0684 H   0  0  0  0  0  0  0  0  0  0  0  0
    6.3344    3.7123   -1.3825 H   0  0  0  0  0  0  0  0  0  0  0  0
    7.2985    7.1104   -0.3554 H   0  0  0  0  0  0  0  0  0  0  0  0
    6.1772    5.7618   -0.1585 H   0  0  0  0  0  0  0  0  0  0  0  0
    6.9675    6.1060   -1.7894 H   0  0  0  0  0  0  0  0  0  0  0  0
   10.3228    3.1518    2.5109 H   0  0  0  0  0  0  0  0  0  0  0  0
   11.5671    4.4126    2.2580 H   0  0  0  0  0  0  0  0  0  0  0  0
    9.8083    4.8504    2.3656 H   0  0  0  0  0  0  0  0  0  0  0  0
  1  2  1  0
  2  3  1  0
  3  4  2  0
  4  5  1  0
  5  6  1  0
  6  7  1  0
  7  8  2  0
  8  9  1  0
  9 10  2  0
 10 11  1  0
 11 12  1  0
 12 13  1  0
 13 14  2  0
 14 15  1  0
 15 16  2  0
 16 17  1  0
 17 18  1  0
 18 19  2  0
 18 20  1  0
 20 21  1  0
 21 22  2  0
 22 23  1  0
 23 24  2  0
 24 25  1  0
 25 26  1  0
 26 27  1  0
 27 28  1  0
 27 29  2  0
 27 30  2  0
 25 31  2  0
 31 32  1  0
 32 33  1  0
 23 34  1  0
 34 35  1  0
 34 36  1  0
 34 37  1  0
 16 38  1  0
 38 39  2  0
 39 40  1  0
 40 41  2  0
 41 42  1  0
 42 43  2  0
 11 44  2  0
  5 45  2  0
 45 46  1  0
 46 47  1  0
 47 48  1  0
 46 49  2  0
 49 50  1  0
 50 51  1  0
 49  3  1  0
 44  7  1  0
 43 13  1  0
 31 21  1  0
 43 38  1  0
  1 52  1  0
  1 53  1  0
  1 54  1  0
  4 55  1  0
  6 56  1  0
  9 57  1  0
 10 58  1  0
 14 59  1  0
 15 60  1  0
 17 61  1  0
 20 62  1  0
 22 63  1  0
 24 64  1  0
 26 65  1  0
 28 66  1  0
 28 67  1  0
 28 68  1  0
 33 69  1  0
 33 70  1  0
 33 71  1  0
 35 72  1  0
 35 73  1  0
 35 74  1  0
 36 75  1  0
 36 76  1  0
 36 77  1  0
 37 78  1  0
 37 79  1  0
 37 80  1  0
 39 81  1  0
 40 82  1  0
 41 83  1  0
 42 84  1  0
 45 85  1  0
 48 86  1  0
 48 87  1  0
 48 88  1  0
 51 89  1  0
 51 90  1  0
 51 91  1  0
M  END
$$$$
[H]c1nc([H])n(-c2c([H])c([C@@]([H])(N([H])C(=O)c3c(-c4c([H])c([H])c([H])c([H])c4F)noc3N([H])[H])C([H])([H])[H])c([H])c([H])c2F)c1[H]
     RDKit          3D

 47 50  0  0  0  0  0  0  0  0999 V2000
    1.9005    0.5135   -2.7024 C   0  0  0  0  0  0  0  0  0  0  0  0
    0.7191   -0.3865   -2.3736 C   0  0  2  0  0  0  0  0  0  0  0  0
   -0.3090    0.4066   -1.6545 N   0  0  0  0  0  0  0  0  0  0  0  0
   -1.5686    0.5764   -2.2091 C   0  0  0  0  0  0  0  0  0  0  0  0
   -1.7627    0.0228   -3.3686 O   0  0  0  0  0  0  0  0  0  0  0  0
   -2.6583    1.3064   -1.6253 C   0  0  0  0  0  0  0  0  0  0  0  0
   -3.8727    1.5627   -2.3163 C   0  0  0  0  0  0  0  0  0  0  0  0
   -4.1686    1.1435   -3.6285 N   0  0  0  0  0  0  0  0  0  0  0  0
   -4.6139    2.2406   -1.4988 O   0  0  0  0  0  0  0  0  0  0  0  0
   -4.0325    2.4460   -0.3839 N   0  0  0  0  0  0  0  0  0  0  0  0
   -2.7650    1.8690   -0.3890 C   0  0  0  0  0  0  0  0  0  0  0  0
   -1.8906    1.9452    0.7583 C   0  0  0  0  0  0  0  0  0  0  0  0
   -1.5584    0.8795    1.5732 C   0  0  0  0  0  0  0  0  0  0  0  0
   -0.8045    1.0092    2.7027 C   0  0  0  0  0  0  0  0  0  0  0  0
   -0.3220    2.2358    3.1035 C   0  0  0  0  0  0  0  0  0  0  0  0
   -0.6362    3.3375    2.3066 C   0  0  0  0  0  0  0  0  0  0  0  0
   -1.3968    3.1849    1.1726 C   0  0  0  0  0  0  0  0  0  0  0  0
   -1.6903    4.2678    0.4111 F   0  0  0  0  0  0  0  0  0  0  0  0
    1.1441   -1.5079   -1.4970 C   0  0  0  0  0  0  0  0  0  0  0  0
    1.2656   -2.8080   -1.9449 C   0  0  0  0  0  0  0  0  0  0  0  0
    1.6723   -3.8175   -1.0969 C   0  0  0  0  0  0  0  0  0  0  0  0
    1.9652   -3.5424    0.2181 C   0  0  0  0  0  0  0  0  0  0  0  0
    2.3678   -4.5108    1.0729 F   0  0  0  0  0  0  0  0  0  0  0  0
    1.8582   -2.2542    0.7133 C   0  0  0  0  0  0  0  0  0  0  0  0
    1.4468   -1.2778   -0.1755 C   0  0  0  0  0  0  0  0  0  0  0  0
    2.1467   -1.8980    2.0578 N   0  0  0  0  0  0  0  0  0  0  0  0
    2.7693   -0.7569    2.4751 C   0  0  0  0  0  0  0  0  0  0  0  0
    2.8752   -0.7582    3.8530 C   0  0  0  0  0  0  0  0  0  0  0  0
    2.3169   -1.8979    4.2548 N   0  0  0  0  0  0  0  0  0  0  0  0
    1.8759   -2.5874    3.1677 C   0  0  0  0  0  0  0  0  0  0  0  0
    2.8186    0.0168   -2.2912 H   0  0  0  0  0  0  0  0  0  0  0  0
    1.7207    1.5090   -2.2719 H   0  0  0  0  0  0  0  0  0  0  0  0
    1.9918    0.5670   -3.8005 H   0  0  0  0  0  0  0  0  0  0  0  0
    0.3228   -0.7904   -3.3158 H   0  0  0  0  0  0  0  0  0  0  0  0
   -0.0131    0.8256   -0.7781 H   0  0  0  0  0  0  0  0  0  0  0  0
   -3.6334    1.4111   -4.4845 H   0  0  0  0  0  0  0  0  0  0  0  0
   -4.9895    0.5052   -3.8171 H   0  0  0  0  0  0  0  0  0  0  0  0
   -1.9147   -0.1028    1.2997 H   0  0  0  0  0  0  0  0  0  0  0  0
   -0.5729    0.1229    3.3136 H   0  0  0  0  0  0  0  0  0  0  0  0
    0.2819    2.3497    4.0071 H   0  0  0  0  0  0  0  0  0  0  0  0
   -0.2492    4.2957    2.6368 H   0  0  0  0  0  0  0  0  0  0  0  0
    1.0340   -3.0332   -2.9845 H   0  0  0  0  0  0  0  0  0  0  0  0
    1.7528   -4.8171   -1.4887 H   0  0  0  0  0  0  0  0  0  0  0  0
    1.3657   -0.2622    0.2242 H   0  0  0  0  0  0  0  0  0  0  0  0
    3.1107    0.0037    1.7905 H   0  0  0  0  0  0  0  0  0  0  0  0
    3.3209    0.0104    4.4803 H   0  0  0  0  0  0  0  0  0  0  0  0
    1.3791   -3.5553    3.2296 H   0  0  0  0  0  0  0  0  0  0  0  0
  1  2  1  0
  2  3  1  0
  3  4  1  0
  4  5  2  0
  4  6  1  0
  6  7  2  0
  7  8  1  0
  7  9  1  0
  9 10  1  0
 10 11  2  0
 11 12  1  0
 12 13  2  0
 13 14  1  0
 14 15  2  0
 15 16  1  0
 16 17  2  0
 17 18  1  0
  2 19  1  0
 19 20  2  0
 20 21  1  0
 21 22  2  0
 22 23  1  0
 22 24  1  0
 24 25  2  0
 24 26  1  0
 26 27  1  0
 27 28  2  0
 28 29  1  0
 29 30  2  0
 11  6  1  0
 17 12  1  0
 25 19  1  0
 30 26  1  0
  1 31  1  0
  1 32  1  0
  1 33  1  0
  2 34  1  6
  3 35  1  0
  8 36  1  0
  8 37  1  0
 13 38  1  0
 14 39  1  0
 15 40  1  0
 16 41  1  0
 20 42  1  0
 21 43  1  0
 25 44  1  0
 27 45  1  0
 28 46  1  0
 30 47  1  0
M  END
$$$$
[H]OC(=O)C([H])([H])C1([H])c2c([H])c([H])c(OC([H])([H])C([H])([H])C([H])([H])c3c([H])c([H])c([H])c([H])c3[H])c([H])c2N(C([H])([H])C([H])([H])C([H])([H])C([H])([H])C([H])([H])C([H])([H])C([H])([H])[H])C(=O)C1([H])[H]
     RDKit          3D

 67 69  0  0  0  0  0  0  0  0999 V2000
   -5.0428   -5.8331   -0.2917 C   0  0  0  0  0  0  0  0  0  0  0  0
   -4.7983   -4.3796    0.1328 C   0  0  0  0  0  0  0  0  0  0  0  0
   -3.4362   -4.3574    0.7731 C   0  0  0  0  0  0  0  0  0  0  0  0
   -3.0169   -3.0029    1.2611 C   0  0  0  0  0  0  0  0  0  0  0  0
   -2.9747   -2.0169    0.1007 C   0  0  0  0  0  0  0  0  0  0  0  0
   -2.5428   -0.6347    0.6042 C   0  0  0  0  0  0  0  0  0  0  0  0
   -2.5315    0.2686   -0.6149 C   0  0  0  0  0  0  0  0  0  0  0  0
   -2.1485    1.6023   -0.3220 N   0  0  0  0  0  0  0  0  0  0  0  0
   -3.1205    2.5762    0.0308 C   0  0  0  0  0  0  0  0  0  0  0  0
   -4.2359    2.3106    0.5224 O   0  0  0  0  0  0  0  0  0  0  0  0
   -2.8006    4.0376   -0.1977 C   0  0  0  0  0  0  0  0  0  0  0  0
   -1.4170    4.3073    0.3550 C   0  0  0  0  0  0  0  0  0  0  0  0
   -1.0795    5.7444    0.1967 C   0  0  0  0  0  0  0  0  0  0  0  0
   -1.0367    6.2572   -1.1754 C   0  0  0  0  0  0  0  0  0  0  0  0
   -0.7523    7.6341   -1.3114 O   0  0  0  0  0  0  0  0  0  0  0  0
   -1.2167    5.6436   -2.2312 O   0  0  0  0  0  0  0  0  0  0  0  0
   -0.3966    3.3437   -0.0695 C   0  0  0  0  0  0  0  0  0  0  0  0
    0.8980    3.7497   -0.1383 C   0  0  0  0  0  0  0  0  0  0  0  0
    1.8833    2.8438   -0.5093 C   0  0  0  0  0  0  0  0  0  0  0  0
    1.5593    1.5397   -0.8068 C   0  0  0  0  0  0  0  0  0  0  0  0
    2.4728    0.5955   -1.1739 O   0  0  0  0  0  0  0  0  0  0  0  0
    3.8194    0.5811   -1.3332 C   0  0  0  0  0  0  0  0  0  0  0  0
    4.6704    0.8304   -0.1285 C   0  0  0  0  0  0  0  0  0  0  0  0
    4.4685   -0.1827    0.9796 C   0  0  0  0  0  0  0  0  0  0  0  0
    4.7861   -1.5637    0.5810 C   0  0  0  0  0  0  0  0  0  0  0  0
    3.8001   -2.3766    0.0776 C   0  0  0  0  0  0  0  0  0  0  0  0
    4.0563   -3.6879   -0.3168 C   0  0  0  0  0  0  0  0  0  0  0  0
    5.3365   -4.1677   -0.1925 C   0  0  0  0  0  0  0  0  0  0  0  0
    6.3491   -3.3831    0.3075 C   0  0  0  0  0  0  0  0  0  0  0  0
    6.0533   -2.1006    0.6828 C   0  0  0  0  0  0  0  0  0  0  0  0
    0.2079    1.1588   -0.7248 C   0  0  0  0  0  0  0  0  0  0  0  0
   -0.7894    2.0384   -0.3600 C   0  0  0  0  0  0  0  0  0  0  0  0
   -6.0358   -5.9394   -0.7748 H   0  0  0  0  0  0  0  0  0  0  0  0
   -4.2665   -6.1832   -0.9930 H   0  0  0  0  0  0  0  0  0  0  0  0
   -5.0610   -6.4704    0.6138 H   0  0  0  0  0  0  0  0  0  0  0  0
   -4.8844   -3.7514   -0.7633 H   0  0  0  0  0  0  0  0  0  0  0  0
   -5.5800   -4.1505    0.8908 H   0  0  0  0  0  0  0  0  0  0  0  0
   -3.5041   -5.0367    1.6714 H   0  0  0  0  0  0  0  0  0  0  0  0
   -2.7050   -4.8211    0.0928 H   0  0  0  0  0  0  0  0  0  0  0  0
   -3.6318   -2.6429    2.0878 H   0  0  0  0  0  0  0  0  0  0  0  0
   -1.9743   -3.0614    1.6380 H   0  0  0  0  0  0  0  0  0  0  0  0
   -2.2817   -2.3741   -0.6647 H   0  0  0  0  0  0  0  0  0  0  0  0
   -3.9871   -1.9828   -0.3276 H   0  0  0  0  0  0  0  0  0  0  0  0
   -1.5499   -0.7343    1.0718 H   0  0  0  0  0  0  0  0  0  0  0  0
   -3.2388   -0.2715    1.3778 H   0  0  0  0  0  0  0  0  0  0  0  0
   -1.9508   -0.2242   -1.4132 H   0  0  0  0  0  0  0  0  0  0  0  0
   -3.5971    0.2309   -0.9964 H   0  0  0  0  0  0  0  0  0  0  0  0
   -2.9055    4.2164   -1.2666 H   0  0  0  0  0  0  0  0  0  0  0  0
   -3.4984    4.6502    0.3725 H   0  0  0  0  0  0  0  0  0  0  0  0
   -1.5331    4.1397    1.4739 H   0  0  0  0  0  0  0  0  0  0  0  0
   -1.8730    6.3044    0.7972 H   0  0  0  0  0  0  0  0  0  0  0  0
   -0.1488    5.9901    0.7307 H   0  0  0  0  0  0  0  0  0  0  0  0
    0.2063    7.9366   -1.5322 H   0  0  0  0  0  0  0  0  0  0  0  0
    1.2379    4.7729    0.0830 H   0  0  0  0  0  0  0  0  0  0  0  0
    2.9143    3.1953   -0.5745 H   0  0  0  0  0  0  0  0  0  0  0  0
    4.1798    1.3428   -2.1021 H   0  0  0  0  0  0  0  0  0  0  0  0
    4.0905   -0.4303   -1.7887 H   0  0  0  0  0  0  0  0  0  0  0  0
    4.5101    1.8273    0.2680 H   0  0  0  0  0  0  0  0  0  0  0  0
    5.7420    0.7372   -0.4438 H   0  0  0  0  0  0  0  0  0  0  0  0
    3.4036   -0.1426    1.3492 H   0  0  0  0  0  0  0  0  0  0  0  0
    5.1008    0.1178    1.8379 H   0  0  0  0  0  0  0  0  0  0  0  0
    2.7829   -2.0151   -0.0234 H   0  0  0  0  0  0  0  0  0  0  0  0
    3.2645   -4.3155   -0.7126 H   0  0  0  0  0  0  0  0  0  0  0  0
    5.5639   -5.1812   -0.4906 H   0  0  0  0  0  0  0  0  0  0  0  0
    7.3703   -3.7816    0.4011 H   0  0  0  0  0  0  0  0  0  0  0  0
    6.8215   -1.4582    1.0783 H   0  0  0  0  0  0  0  0  0  0  0  0
   -0.0053    0.1306   -0.9649 H   0  0  0  0  0  0  0  0  0  0  0  0
  1  2  1  0
  2  3  1  0
  3  4  1  0
  4  5  1  0
  5  6  1  0
  6  7  1  0
  7  8  1  0
  8  9  1  0
  9 10  2  0
  9 11  1  0
 11 12  1  0
 12 13  1  0
 13 14  1  0
 14 15  1  0
 14 16  2  0
 12 17  1  0
 17 18  2  0
 18 19  1  0
 19 20  2  0
 20 21  1  0
 21 22  1  0
 22 23  1  0
 23 24  1  0
 24 25  1  0
 25 26  2  0
 26 27  1  0
 27 28  2  0
 28 29  1  0
 29 30  2  0
 20 31  1  0
 31 32  2  0
 32  8  1  0
 32 17  1  0
 30 25  1  0
  1 33  1  0
  1 34  1  0
  1 35  1  0
  2 36  1  0
  2 37  1  0
  3 38  1  0
  3 39  1  0
  4 40  1  0
  4 41  1  0
  5 42  1  0
  5 43  1  0
  6 44  1  0
  6 45  1  0
  7 46  1  0
  7 47  1  0
 11 48  1  0
 11 49  1  0
 12 50  1  0
 13 51  1  0
 13 52  1  0
 15 53  1  0
 18 54  1  0
 19 55  1  0
 22 56  1  0
 22 57  1  0
 23 58  1  0
 23 59  1  0
 24 60  1  0
 24 61  1  0
 26 62  1  0
 27 63  1  0
 28 64  1  0
 29 65  1  0
 30 66  1  0
 31 67  1  0
M  END
$$$$
[H]OC([H])([H])[C@@]1(O[H])C([H])([H])[C@@]2([H])O[C@]1(C([H])([H])[H])n1c3c([H])c([H])c([H])c([H])c3c3c4c(c5c6c([H])c([H])c([H])c([H])c6n2c5c31)C(=O)N([H])C4([H])[H]
     RDKit          3D

 54 61  0  0  0  0  0  0  0  0999 V2000
    3.1800    0.8838    1.3878 C   0  0  0  0  0  0  0  0  0  0  0  0
    2.1176    0.2237    0.5774 C   0  0  2  0  0  0  0  0  0  0  0  0
    1.6968   -0.7870    1.4854 O   0  0  0  0  0  0  0  0  0  0  0  0
    1.2511   -1.8639    0.7986 C   0  0  2  0  0  0  0  0  0  0  0  0
    2.0328   -1.9517   -0.4419 C   0  0  0  0  0  0  0  0  0  0  0  0
    2.6347   -0.5714   -0.5849 C   0  0  1  0  0  0  0  0  0  0  0  0
    2.2138   -0.0799   -1.8115 O   0  0  0  0  0  0  0  0  0  0  0  0
    4.1191   -0.7109   -0.6110 C   0  0  0  0  0  0  0  0  0  0  0  0
    4.4589   -1.5975   -1.6334 O   0  0  0  0  0  0  0  0  0  0  0  0
   -0.2014   -1.7853    0.5955 N   0  0  0  0  0  0  0  0  0  0  0  0
   -1.1044   -2.7499    0.6347 C   0  0  0  0  0  0  0  0  0  0  0  0
   -0.9179   -4.0868    0.8734 C   0  0  0  0  0  0  0  0  0  0  0  0
   -2.0299   -4.9199    0.8648 C   0  0  0  0  0  0  0  0  0  0  0  0
   -3.2823   -4.4161    0.6235 C   0  0  0  0  0  0  0  0  0  0  0  0
   -3.4758   -3.0511    0.3794 C   0  0  0  0  0  0  0  0  0  0  0  0
   -2.3768   -2.2421    0.3902 C   0  0  0  0  0  0  0  0  0  0  0  0
   -2.2053   -0.8905    0.1945 C   0  0  0  0  0  0  0  0  0  0  0  0
   -3.0670    0.1511   -0.0975 C   0  0  0  0  0  0  0  0  0  0  0  0
   -4.5001    0.2660   -0.2996 C   0  0  0  0  0  0  0  0  0  0  0  0
   -5.3884   -0.5871   -0.2658 O   0  0  0  0  0  0  0  0  0  0  0  0
   -4.7851    1.6416   -0.5724 N   0  0  0  0  0  0  0  0  0  0  0  0
   -3.5735    2.4248   -0.5610 C   0  0  0  0  0  0  0  0  0  0  0  0
   -2.5314    1.4168   -0.2472 C   0  0  0  0  0  0  0  0  0  0  0  0
   -1.1701    1.6669   -0.1133 C   0  0  0  0  0  0  0  0  0  0  0  0
   -0.3770    2.7657   -0.2198 C   0  0  0  0  0  0  0  0  0  0  0  0
   -0.7006    4.0705   -0.5126 C   0  0  0  0  0  0  0  0  0  0  0  0
    0.3203    5.0230   -0.5829 C   0  0  0  0  0  0  0  0  0  0  0  0
    1.6233    4.6180   -0.3553 C   0  0  0  0  0  0  0  0  0  0  0  0
    1.9232    3.2989   -0.0625 C   0  0  0  0  0  0  0  0  0  0  0  0
    0.9354    2.3466    0.0129 C   0  0  0  0  0  0  0  0  0  0  0  0
    0.9590    1.0103    0.2643 N   0  0  0  0  0  0  0  0  0  0  0  0
   -0.3578    0.6223    0.1746 C   0  0  0  0  0  0  0  0  0  0  0  0
   -0.8544   -0.6533    0.3299 C   0  0  0  0  0  0  0  0  0  0  0  0
    4.0624    1.2462    0.8471 H   0  0  0  0  0  0  0  0  0  0  0  0
    3.5596    0.1949    2.1815 H   0  0  0  0  0  0  0  0  0  0  0  0
    2.7312    1.7230    1.9466 H   0  0  0  0  0  0  0  0  0  0  0  0
    1.4219   -2.7643    1.4120 H   0  0  0  0  0  0  0  0  0  0  0  0
    1.4720   -2.2700   -1.3403 H   0  0  0  0  0  0  0  0  0  0  0  0
    2.8377   -2.7359   -0.3258 H   0  0  0  0  0  0  0  0  0  0  0  0
    2.8799   -0.3390   -2.4928 H   0  0  0  0  0  0  0  0  0  0  0  0
    4.5238   -1.1579    0.3296 H   0  0  0  0  0  0  0  0  0  0  0  0
    4.6358    0.2581   -0.8438 H   0  0  0  0  0  0  0  0  0  0  0  0
    4.7979   -2.4633   -1.2908 H   0  0  0  0  0  0  0  0  0  0  0  0
    0.0592   -4.4684    1.0598 H   0  0  0  0  0  0  0  0  0  0  0  0
   -1.8569   -5.9719    1.0560 H   0  0  0  0  0  0  0  0  0  0  0  0
   -4.1224   -5.0759    0.6219 H   0  0  0  0  0  0  0  0  0  0  0  0
   -4.4721   -2.7398    0.2018 H   0  0  0  0  0  0  0  0  0  0  0  0
   -5.7336    2.0654   -0.7610 H   0  0  0  0  0  0  0  0  0  0  0  0
   -3.6366    3.2333    0.1993 H   0  0  0  0  0  0  0  0  0  0  0  0
   -3.3846    2.8954   -1.5673 H   0  0  0  0  0  0  0  0  0  0  0  0
   -1.7294    4.3700   -0.6881 H   0  0  0  0  0  0  0  0  0  0  0  0
    0.0587    6.0490   -0.8135 H   0  0  0  0  0  0  0  0  0  0  0  0
    2.3774    5.3965   -0.4223 H   0  0  0  0  0  0  0  0  0  0  0  0
    2.9510    3.0689    0.0761 H   0  0  0  0  0  0  0  0  0  0  0  0
  2  1  1  1
  2  3  1  0
  3  4  1  0
  4  5  1  0
  5  6  1  0
  6  7  1  6
  6  8  1  0
  8  9  1  0
  4 10  1  0
 10 11  1  0
 11 12  2  0
 12 13  1  0
 13 14  2  0
 14 15  1  0
 15 16  2  0
 16 17  1  0
 17 18  2  0
 18 19  1  0
 19 20  2  0
 19 21  1  0
 21 22  1  0
 22 23  1  0
 23 24  2  0
 24 25  1  0
 25 26  2  0
 26 27  1  0
 27 28  2  0
 28 29  1  0
 29 30  2  0
 30 31  1  0
 31 32  1  0
 32 33  2  0
  6  2  1  0
 33 10  1  0
 31  2  1  0
 16 11  1  0
 33 17  1  0
 23 18  1  0
 32 24  1  0
 30 25  1  0
  1 34  1  0
  1 35  1  0
  1 36  1  0
  4 37  1  1
  5 38  1  0
  5 39  1  0
  7 40  1  0
  8 41  1  0
  8 42  1  0
  9 43  1  0
 12 44  1  0
 13 45  1  0
 14 46  1  0
 15 47  1  0
 21 48  1  0
 22 49  1  0
 22 50  1  0
 26 51  1  0
 27 52  1  0
 28 53  1  0
 29 54  1  0
M  END
$$$$
[H]ON([H])C(=O)C([H])(c1c([H])c([H])c([H])c([H])c1[H])C([H])([H])C([H])(C([H])([H])[H])C([H])([H])[H]
     RDKit          3D

 32 32  0  0  0  0  0  0  0  0999 V2000
   -3.0375   -0.2698   -1.2190 C   0  0  0  0  0  0  0  0  0  0  0  0
   -1.8235   -0.4520   -0.3114 C   0  0  0  0  0  0  0  0  0  0  0  0
   -2.3604   -0.6702    1.0827 C   0  0  0  0  0  0  0  0  0  0  0  0
   -0.9895    0.7780   -0.4329 C   0  0  0  0  0  0  0  0  0  0  0  0
    0.2550    0.7607    0.4042 C   0  0  0  0  0  0  0  0  0  0  0  0
    1.0124    2.0214    0.2147 C   0  0  0  0  0  0  0  0  0  0  0  0
    2.2181    1.9376   -0.1125 O   0  0  0  0  0  0  0  0  0  0  0  0
    0.4390    3.3035    0.3855 N   0  0  0  0  0  0  0  0  0  0  0  0
    1.1655    4.4080    0.2025 O   0  0  0  0  0  0  0  0  0  0  0  0
    1.1321   -0.3916    0.1531 C   0  0  0  0  0  0  0  0  0  0  0  0
    1.7098   -0.6825   -1.0624 C   0  0  0  0  0  0  0  0  0  0  0  0
    2.5297   -1.7727   -1.2679 C   0  0  0  0  0  0  0  0  0  0  0  0
    2.8092   -2.6370   -0.2325 C   0  0  0  0  0  0  0  0  0  0  0  0
    2.2470   -2.3733    0.9940 C   0  0  0  0  0  0  0  0  0  0  0  0
    1.4225   -1.2670    1.1779 C   0  0  0  0  0  0  0  0  0  0  0  0
   -3.6407    0.5903   -0.8683 H   0  0  0  0  0  0  0  0  0  0  0  0
   -2.7293   -0.1160   -2.2755 H   0  0  0  0  0  0  0  0  0  0  0  0
   -3.7026   -1.1589   -1.1881 H   0  0  0  0  0  0  0  0  0  0  0  0
   -1.2787   -1.3342   -0.6990 H   0  0  0  0  0  0  0  0  0  0  0  0
   -2.7399   -1.7327    1.1008 H   0  0  0  0  0  0  0  0  0  0  0  0
   -3.2742   -0.0502    1.2525 H   0  0  0  0  0  0  0  0  0  0  0  0
   -1.6281   -0.4989    1.8683 H   0  0  0  0  0  0  0  0  0  0  0  0
   -0.6922    0.8995   -1.4951 H   0  0  0  0  0  0  0  0  0  0  0  0
   -1.6394    1.6445   -0.1933 H   0  0  0  0  0  0  0  0  0  0  0  0
   -0.1006    0.7947    1.4764 H   0  0  0  0  0  0  0  0  0  0  0  0
   -0.5619    3.3660    0.6570 H   0  0  0  0  0  0  0  0  0  0  0  0
    1.9384    4.4740    0.8430 H   0  0  0  0  0  0  0  0  0  0  0  0
    1.4909    0.0039   -1.8946 H   0  0  0  0  0  0  0  0  0  0  0  0
    2.9728   -1.9789   -2.2381 H   0  0  0  0  0  0  0  0  0  0  0  0
    3.4484   -3.5063   -0.3492 H   0  0  0  0  0  0  0  0  0  0  0  0
    2.4248   -3.0154    1.8597 H   0  0  0  0  0  0  0  0  0  0  0  0
    0.9832   -1.0747    2.1672 H   0  0  0  0  0  0  0  0  0  0  0  0
  1  2  1  0
  2  3  1  0
  2  4  1  0
  4  5  1  0
  5  6  1  0
  6  7  2  0
  6  8  1  0
  8  9  1  0
  5 10  1  0
 10 11  2  0
 11 12  1  0
 12 13  2  0
 13 14  1  0
 14 15  2  0
 15 10  1  0
  1 16  1  0
  1 17  1  0
  1 18  1  0
  2 19  1  0
  3 20  1  0
  3 21  1  0
  3 22  1  0
  4 23  1  0
  4 24  1  0
  5 25  1  0
  8 26  1  0
  9 27  1  0
 11 28  1  0
 12 29  1  0
 13 30  1  0
 14 31  1  0
 15 32  1  0
M  END
$$$$
[H]c1nc(N([H])C(=O)C([H])([H])[H])c(-c2c([H])c([H])c(OC([H])([H])[H])c([H])c2[H])c(C([H])([H])C([H])([H])C([H])([H])[H])c1[H]
     RDKit          3D

 41 42  0  0  0  0  0  0  0  0999 V2000
    3.7240   -2.6823   -0.3086 C   0  0  0  0  0  0  0  0  0  0  0  0
    3.2447   -1.2634   -0.3144 C   0  0  0  0  0  0  0  0  0  0  0  0
    2.4833   -0.9270    0.9537 C   0  0  0  0  0  0  0  0  0  0  0  0
    1.9998    0.4640    0.7971 C   0  0  0  0  0  0  0  0  0  0  0  0
    2.9438    1.4551    1.0881 C   0  0  0  0  0  0  0  0  0  0  0  0
    2.6631    2.7812    0.8473 C   0  0  0  0  0  0  0  0  0  0  0  0
    1.4646    3.0677    0.3315 N   0  0  0  0  0  0  0  0  0  0  0  0
    0.5461    2.1353    0.0475 C   0  0  0  0  0  0  0  0  0  0  0  0
   -0.6995    2.5293   -0.5201 N   0  0  0  0  0  0  0  0  0  0  0  0
   -1.0029    3.8967   -0.7839 C   0  0  0  0  0  0  0  0  0  0  0  0
   -2.2841    4.3097   -1.3764 C   0  0  0  0  0  0  0  0  0  0  0  0
   -0.1368    4.7528   -0.4934 O   0  0  0  0  0  0  0  0  0  0  0  0
    0.7790    0.7653    0.2756 C   0  0  0  0  0  0  0  0  0  0  0  0
   -0.3024   -0.1863    0.0700 C   0  0  0  0  0  0  0  0  0  0  0  0
   -0.3656   -1.0366   -0.9831 C   0  0  0  0  0  0  0  0  0  0  0  0
   -1.4334   -1.8846   -1.1224 C   0  0  0  0  0  0  0  0  0  0  0  0
   -2.5041   -1.9369   -0.2209 C   0  0  0  0  0  0  0  0  0  0  0  0
   -3.5288   -2.7301   -0.3305 O   0  0  0  0  0  0  0  0  0  0  0  0
   -4.5894   -3.4487   -0.3114 C   0  0  0  0  0  0  0  0  0  0  0  0
   -2.4069   -1.0425    0.8588 C   0  0  0  0  0  0  0  0  0  0  0  0
   -1.3559   -0.1963    1.0111 C   0  0  0  0  0  0  0  0  0  0  0  0
    4.5982   -2.7796    0.3665 H   0  0  0  0  0  0  0  0  0  0  0  0
    2.8647   -3.3218   -0.0281 H   0  0  0  0  0  0  0  0  0  0  0  0
    4.0383   -3.0039   -1.3311 H   0  0  0  0  0  0  0  0  0  0  0  0
    4.1856   -0.5998   -0.2933 H   0  0  0  0  0  0  0  0  0  0  0  0
    2.6716   -1.0484   -1.2013 H   0  0  0  0  0  0  0  0  0  0  0  0
    1.6979   -1.6643    1.1864 H   0  0  0  0  0  0  0  0  0  0  0  0
    3.2302   -0.9578    1.7654 H   0  0  0  0  0  0  0  0  0  0  0  0
    3.9088    1.2073    1.5030 H   0  0  0  0  0  0  0  0  0  0  0  0
    3.4151    3.5131    1.0916 H   0  0  0  0  0  0  0  0  0  0  0  0
   -1.4113    1.7936   -0.7550 H   0  0  0  0  0  0  0  0  0  0  0  0
   -2.8097    5.0301   -0.7273 H   0  0  0  0  0  0  0  0  0  0  0  0
   -2.9118    3.4090   -1.4892 H   0  0  0  0  0  0  0  0  0  0  0  0
   -2.1570    4.8391   -2.3610 H   0  0  0  0  0  0  0  0  0  0  0  0
    0.4355   -1.0622   -1.7582 H   0  0  0  0  0  0  0  0  0  0  0  0
   -1.4866   -2.5785   -1.9660 H   0  0  0  0  0  0  0  0  0  0  0  0
   -5.3035   -3.1745   -1.1590 H   0  0  0  0  0  0  0  0  0  0  0  0
   -4.4426   -4.5667   -0.4561 H   0  0  0  0  0  0  0  0  0  0  0  0
   -5.2622   -3.3015    0.5901 H   0  0  0  0  0  0  0  0  0  0  0  0
   -3.2243   -1.0498    1.5901 H   0  0  0  0  0  0  0  0  0  0  0  0
   -1.2753    0.4943    1.8417 H   0  0  0  0  0  0  0  0  0  0  0  0
  1  2  1  0
  2  3  1  0
  3  4  1  0
  4  5  2  0
  5  6  1  0
  6  7  2  0
  7  8  1  0
  8  9  1  0
  9 10  1  0
 10 11  1  0
 10 12  2  0
  8 13  2  0
 13 14  1  0
 14 15  2  0
 15 16  1  0
 16 17  2  0
 17 18  1  0
 18 19  1  0
 17 20  1  0
 20 21  2  0
 13  4  1  0
 21 14  1  0
  1 22  1  0
  1 23  1  0
  1 24  1  0
  2 25  1  0
  2 26  1  0
  3 27  1  0
  3 28  1  0
  5 29  1  0
  6 30  1  0
  9 31  1  0
 11 32  1  0
 11 33  1  0
 11 34  1  0
 15 35  1  0
 16 36  1  0
 19 37  1  0
 19 38  1  0
 19 39  1  0
 20 40  1  0
 21 41  1  0
M  END
$$$$
[H]c1c([H])c(C([H])([H])[H])c([H])c([H])c1C(=O)N([H])N(C(=O)C([H])([H])C1([H])C([H])([H])C([H])([H])C([H])([H])C([H])([H])C1([H])[H])C(C([H])([H])[H])(C([H])([H])[H])C([H])([H])[H]
     RDKit          3D

 54 55  0  0  0  0  0  0  0  0999 V2000
    6.3687    3.1900    0.5621 C   0  0  0  0  0  0  0  0  0  0  0  0
    5.2211    2.2869    0.2904 C   0  0  0  0  0  0  0  0  0  0  0  0
    5.2965    0.9271    0.5040 C   0  0  0  0  0  0  0  0  0  0  0  0
    4.2334    0.0592    0.2526 C   0  0  0  0  0  0  0  0  0  0  0  0
    3.0603    0.5847   -0.2285 C   0  0  0  0  0  0  0  0  0  0  0  0
    2.9734    1.9416   -0.4442 C   0  0  0  0  0  0  0  0  0  0  0  0
    4.0314    2.7882   -0.1921 C   0  0  0  0  0  0  0  0  0  0  0  0
    1.8842   -0.2235   -0.5182 C   0  0  0  0  0  0  0  0  0  0  0  0
    1.5493   -0.2586   -1.7431 O   0  0  0  0  0  0  0  0  0  0  0  0
    1.1788   -0.9040    0.4890 N   0  0  0  0  0  0  0  0  0  0  0  0
    0.0439   -1.6625    0.1945 N   0  0  0  0  0  0  0  0  0  0  0  0
   -1.2474   -1.0593    0.0861 C   0  0  0  0  0  0  0  0  0  0  0  0
   -2.2452   -1.7490   -0.1795 O   0  0  0  0  0  0  0  0  0  0  0  0
   -1.3730    0.3770    0.2923 C   0  0  0  0  0  0  0  0  0  0  0  0
   -2.7034    0.9848    0.1606 C   0  0  0  0  0  0  0  0  0  0  0  0
   -3.7818    0.5139    1.0682 C   0  0  0  0  0  0  0  0  0  0  0  0
   -4.8030    1.6248    1.1126 C   0  0  0  0  0  0  0  0  0  0  0  0
   -5.1755    2.2036   -0.1919 C   0  0  0  0  0  0  0  0  0  0  0  0
   -4.2758    2.0484   -1.3395 C   0  0  0  0  0  0  0  0  0  0  0  0
   -3.2863    0.9194   -1.2476 C   0  0  0  0  0  0  0  0  0  0  0  0
    0.1778   -3.1123   -0.0106 C   0  0  0  0  0  0  0  0  0  0  0  0
    1.6395   -3.4974    0.1631 C   0  0  0  0  0  0  0  0  0  0  0  0
   -0.2039   -3.5214   -1.4146 C   0  0  0  0  0  0  0  0  0  0  0  0
   -0.6186   -3.8894    1.0148 C   0  0  0  0  0  0  0  0  0  0  0  0
    7.2988    2.8337    0.0477 H   0  0  0  0  0  0  0  0  0  0  0  0
    6.1089    4.2093    0.1894 H   0  0  0  0  0  0  0  0  0  0  0  0
    6.5797    3.2098    1.6391 H   0  0  0  0  0  0  0  0  0  0  0  0
    6.2191    0.4772    0.8846 H   0  0  0  0  0  0  0  0  0  0  0  0
    4.3449   -0.9985    0.4372 H   0  0  0  0  0  0  0  0  0  0  0  0
    2.0397    2.3790   -0.8271 H   0  0  0  0  0  0  0  0  0  0  0  0
    3.9485    3.8648   -0.3701 H   0  0  0  0  0  0  0  0  0  0  0  0
    1.4923   -0.8510    1.4713 H   0  0  0  0  0  0  0  0  0  0  0  0
   -0.9772    0.5905    1.3240 H   0  0  0  0  0  0  0  0  0  0  0  0
   -0.6991    0.9107   -0.4411 H   0  0  0  0  0  0  0  0  0  0  0  0
   -2.5771    2.0942    0.3616 H   0  0  0  0  0  0  0  0  0  0  0  0
   -4.3158   -0.4004    0.7420 H   0  0  0  0  0  0  0  0  0  0  0  0
   -3.3844    0.3995    2.1001 H   0  0  0  0  0  0  0  0  0  0  0  0
   -5.6879    1.2491    1.6560 H   0  0  0  0  0  0  0  0  0  0  0  0
   -4.3577    2.4089    1.7957 H   0  0  0  0  0  0  0  0  0  0  0  0
   -6.2097    1.8534   -0.4811 H   0  0  0  0  0  0  0  0  0  0  0  0
   -5.3216    3.3168   -0.0348 H   0  0  0  0  0  0  0  0  0  0  0  0
   -4.8434    1.9105   -2.2932 H   0  0  0  0  0  0  0  0  0  0  0  0
   -3.6732    2.9878   -1.5240 H   0  0  0  0  0  0  0  0  0  0  0  0
   -2.5199    1.0329   -2.0071 H   0  0  0  0  0  0  0  0  0  0  0  0
   -3.8699   -0.0211   -1.2952 H   0  0  0  0  0  0  0  0  0  0  0  0
    2.2154   -2.9945   -0.6428 H   0  0  0  0  0  0  0  0  0  0  0  0
    1.7107   -4.6075    0.0866 H   0  0  0  0  0  0  0  0  0  0  0  0
    2.0403   -3.1166    1.1304 H   0  0  0  0  0  0  0  0  0  0  0  0
    0.6082   -4.0551   -1.9533 H   0  0  0  0  0  0  0  0  0  0  0  0
   -1.0520   -4.2457   -1.3359 H   0  0  0  0  0  0  0  0  0  0  0  0
   -0.5475   -2.7093   -2.0534 H   0  0  0  0  0  0  0  0  0  0  0  0
   -0.8294   -3.2532    1.8994 H   0  0  0  0  0  0  0  0  0  0  0  0
   -1.5773   -4.2123    0.5216 H   0  0  0  0  0  0  0  0  0  0  0  0
   -0.1077   -4.8352    1.2905 H   0  0  0  0  0  0  0  0  0  0  0  0
  1  2  1  0
  2  3  2  0
  3  4  1  0
  4  5  2  0
  5  6  1  0
  6  7  2  0
  5  8  1  0
  8  9  2  0
  8 10  1  0
 10 11  1  0
 11 12  1  0
 12 13  2  0
 12 14  1  0
 14 15  1  0
 15 16  1  0
 16 17  1  0
 17 18  1  0
 18 19  1  0
 19 20  1  0
 11 21  1  0
 21 22  1  0
 21 23  1  0
 21 24  1  0
  7  2  1  0
 20 15  1  0
  1 25  1  0
  1 26  1  0
  1 27  1  0
  3 28  1  0
  4 29  1  0
  6 30  1  0
  7 31  1  0
 10 32  1  0
 14 33  1  0
 14 34  1  0
 15 35  1  0
 16 36  1  0
 16 37  1  0
 17 38  1  0
 17 39  1  0
 18 40  1  0
 18 41  1  0
 19 42  1  0
 19 43  1  0
 20 44  1  0
 20 45  1  0
 22 46  1  0
 22 47  1  0
 22 48  1  0
 23 49  1  0
 23 50  1  0
 23 51  1  0
 24 52  1  0
 24 53  1  0
 24 54  1  0
M  END
$$$$
[H]c1c([H])c([H])c(C([H])([H])C2([H])c3c([H])c([H])c(Br)c([H])c3C([H])(N3C([H])([H])C([H])([H])C([H])([H])C3([H])[H])C([H])([H])C2([H])[H])c(C([H])([H])C([H])([H])[H])c1[H]
     RDKit          3D

 53 56  0  0  0  0  0  0  0  0999 V2000
    4.6209   -1.6549   -0.3628 C   0  0  0  0  0  0  0  0  0  0  0  0
    3.9105   -0.5783   -1.2065 C   0  0  0  0  0  0  0  0  0  0  0  0
    3.7775    0.5973   -0.3842 C   0  0  0  0  0  0  0  0  0  0  0  0
    4.7056    1.6321   -0.5679 C   0  0  0  0  0  0  0  0  0  0  0  0
    4.7080    2.7710    0.2068 C   0  0  0  0  0  0  0  0  0  0  0  0
    3.7818    2.9129    1.1917 C   0  0  0  0  0  0  0  0  0  0  0  0
    2.8707    1.9025    1.3740 C   0  0  0  0  0  0  0  0  0  0  0  0
    2.8498    0.7312    0.5929 C   0  0  0  0  0  0  0  0  0  0  0  0
    1.8362   -0.2456    0.8609 C   0  0  0  0  0  0  0  0  0  0  0  0
    0.6434   -0.1462   -0.0749 C   0  0  0  0  0  0  0  0  0  0  0  0
   -0.0624    1.1623    0.0144 C   0  0  0  0  0  0  0  0  0  0  0  0
   -1.1812    1.0770    1.0545 C   0  0  0  0  0  0  0  0  0  0  0  0
   -2.2729    0.1479    0.5004 C   0  0  0  0  0  0  0  0  0  0  0  0
   -2.8936    0.6545   -0.6378 N   0  0  0  0  0  0  0  0  0  0  0  0
   -3.6185    1.8757   -0.5111 C   0  0  0  0  0  0  0  0  0  0  0  0
   -5.0943    1.5295   -0.5977 C   0  0  0  0  0  0  0  0  0  0  0  0
   -5.1026    0.0432   -0.7492 C   0  0  0  0  0  0  0  0  0  0  0  0
   -3.7321   -0.1954   -1.4156 C   0  0  0  0  0  0  0  0  0  0  0  0
   -1.5898   -1.1564    0.3976 C   0  0  0  0  0  0  0  0  0  0  0  0
   -2.3858   -2.2967    0.6035 C   0  0  0  0  0  0  0  0  0  0  0  0
   -1.8752   -3.5715    0.5385 C   0  0  0  0  0  0  0  0  0  0  0  0
   -3.0195   -5.0793    0.8302 Br  0  0  0  0  0  0  0  0  0  0  0  0
   -0.5373   -3.7187    0.2612 C   0  0  0  0  0  0  0  0  0  0  0  0
    0.2445   -2.5870    0.0590 C   0  0  0  0  0  0  0  0  0  0  0  0
   -0.2695   -1.2991    0.1252 C   0  0  0  0  0  0  0  0  0  0  0  0
    4.5455   -1.3672    0.6907 H   0  0  0  0  0  0  0  0  0  0  0  0
    5.6916   -1.7396   -0.6119 H   0  0  0  0  0  0  0  0  0  0  0  0
    4.1925   -2.6641   -0.5432 H   0  0  0  0  0  0  0  0  0  0  0  0
    4.6741   -0.3633   -2.0261 H   0  0  0  0  0  0  0  0  0  0  0  0
    3.0386   -1.0702   -1.6074 H   0  0  0  0  0  0  0  0  0  0  0  0
    5.4664    1.5684   -1.3409 H   0  0  0  0  0  0  0  0  0  0  0  0
    5.4553    3.5458    0.0195 H   0  0  0  0  0  0  0  0  0  0  0  0
    3.7734    3.8166    1.8186 H   0  0  0  0  0  0  0  0  0  0  0  0
    2.1437    2.0434    2.1667 H   0  0  0  0  0  0  0  0  0  0  0  0
    1.4137   -0.0813    1.9035 H   0  0  0  0  0  0  0  0  0  0  0  0
    2.1711   -1.3014    0.8838 H   0  0  0  0  0  0  0  0  0  0  0  0
    0.9999   -0.2964   -1.1504 H   0  0  0  0  0  0  0  0  0  0  0  0
   -0.4901    1.3705   -0.9953 H   0  0  0  0  0  0  0  0  0  0  0  0
    0.5862    1.9871    0.3044 H   0  0  0  0  0  0  0  0  0  0  0  0
   -0.7479    0.5253    1.9051 H   0  0  0  0  0  0  0  0  0  0  0  0
   -1.5420    2.0270    1.4068 H   0  0  0  0  0  0  0  0  0  0  0  0
   -3.0165    0.0645    1.3302 H   0  0  0  0  0  0  0  0  0  0  0  0
   -3.4603    2.4455    0.3913 H   0  0  0  0  0  0  0  0  0  0  0  0
   -3.3691    2.5277   -1.3736 H   0  0  0  0  0  0  0  0  0  0  0  0
   -5.5956    2.0707   -1.4498 H   0  0  0  0  0  0  0  0  0  0  0  0
   -5.6392    1.8730    0.3198 H   0  0  0  0  0  0  0  0  0  0  0  0
   -5.9114   -0.3495   -1.3971 H   0  0  0  0  0  0  0  0  0  0  0  0
   -5.0651   -0.4208    0.2493 H   0  0  0  0  0  0  0  0  0  0  0  0
   -3.5608   -1.2574   -1.4000 H   0  0  0  0  0  0  0  0  0  0  0  0
   -3.8354    0.2144   -2.4583 H   0  0  0  0  0  0  0  0  0  0  0  0
   -3.4336   -2.1850    0.8207 H   0  0  0  0  0  0  0  0  0  0  0  0
   -0.1017   -4.7030    0.2015 H   0  0  0  0  0  0  0  0  0  0  0  0
    1.3023   -2.7888   -0.1611 H   0  0  0  0  0  0  0  0  0  0  0  0
  1  2  1  0
  2  3  1  0
  3  4  2  0
  4  5  1  0
  5  6  2  0
  6  7  1  0
  7  8  2  0
  8  9  1  0
  9 10  1  0
 10 11  1  0
 11 12  1  0
 12 13  1  0
 13 14  1  0
 14 15  1  0
 15 16  1  0
 16 17  1  0
 17 18  1  0
 13 19  1  0
 19 20  2  0
 20 21  1  0
 21 22  1  0
 21 23  2  0
 23 24  1  0
 24 25  2  0
  8  3  1  0
 25 10  1  0
 18 14  1  0
 25 19  1  0
  1 26  1  0
  1 27  1  0
  1 28  1  0
  2 29  1  0
  2 30  1  0
  4 31  1  0
  5 32  1  0
  6 33  1  0
  7 34  1  0
  9 35  1  0
  9 36  1  0
 10 37  1  0
 11 38  1  0
 11 39  1  0
 12 40  1  0
 12 41  1  0
 13 42  1  0
 15 43  1  0
 15 44  1  0
 16 45  1  0
 16 46  1  0
 17 47  1  0
 17 48  1  0
 18 49  1  0
 18 50  1  0
 20 51  1  0
 23 52  1  0
 24 53  1  0
M  END
$$$$
[H]C([H])=C([H])C(=O)N1C([H])([H])c2c(n([H])c3c(C(=O)N([H])[H])c([H])c(-c4c([H])c([H])c5c(nc(C([H])([H])[H])n5C([H])([H])[C@]5([H])N(C(=O)C([H])=C([H])[H])C([H])([H])C([H])([H])C5([H])[H])c4[H])c([H])c23)C([H])([H])C1([H])[H]
     RDKit          3D

 72 77  0  0  0  0  0  0  0  0999 V2000
   -5.4729    3.3443   -0.8071 C   0  0  0  0  0  0  0  0  0  0  0  0
   -4.1562    2.5951   -0.8602 C   0  0  0  0  0  0  0  0  0  0  0  0
   -2.9508    3.1481   -1.0842 N   0  0  0  0  0  0  0  0  0  0  0  0
   -1.9689    2.2374   -1.1099 C   0  0  0  0  0  0  0  0  0  0  0  0
   -0.5952    2.2696   -1.2943 C   0  0  0  0  0  0  0  0  0  0  0  0
    0.1772    1.1289   -1.2625 C   0  0  0  0  0  0  0  0  0  0  0  0
   -0.4754   -0.0697   -1.0368 C   0  0  0  0  0  0  0  0  0  0  0  0
   -1.8433   -0.1084   -0.8527 C   0  0  0  0  0  0  0  0  0  0  0  0
   -2.6055    1.0408   -0.8867 C   0  0  0  0  0  0  0  0  0  0  0  0
   -3.9519    1.2719   -0.7336 N   0  0  0  0  0  0  0  0  0  0  0  0
   -4.8994    0.2453   -0.4509 C   0  0  0  0  0  0  0  0  0  0  0  0
   -5.0244   -0.2230    0.9429 C   0  0  1  0  0  0  0  0  0  0  0  0
   -5.4062    0.7886    1.9896 C   0  0  0  0  0  0  0  0  0  0  0  0
   -6.8924    0.7056    2.1247 C   0  0  0  0  0  0  0  0  0  0  0  0
   -7.3181   -0.4770    1.3116 C   0  0  0  0  0  0  0  0  0  0  0  0
   -6.1173   -1.2174    1.0619 N   0  0  0  0  0  0  0  0  0  0  0  0
   -5.9632   -2.5985    0.9418 C   0  0  0  0  0  0  0  0  0  0  0  0
   -6.9567   -3.3544    1.0673 O   0  0  0  0  0  0  0  0  0  0  0  0
   -4.6656   -3.1815    0.6718 C   0  0  0  0  0  0  0  0  0  0  0  0
   -4.5069   -4.4880    0.5573 C   0  0  0  0  0  0  0  0  0  0  0  0
    1.6253    1.1244   -1.4530 C   0  0  0  0  0  0  0  0  0  0  0  0
    2.1756    2.0654   -2.2906 C   0  0  0  0  0  0  0  0  0  0  0  0
    3.5539    2.1485   -2.5358 C   0  0  0  0  0  0  0  0  0  0  0  0
    4.0886    3.1509   -3.4221 C   0  0  0  0  0  0  0  0  0  0  0  0
    5.4432    3.3216   -3.7077 N   0  0  0  0  0  0  0  0  0  0  0  0
    3.2811    3.9398   -3.9882 O   0  0  0  0  0  0  0  0  0  0  0  0
    4.3419    1.2238   -1.8838 C   0  0  0  0  0  0  0  0  0  0  0  0
    5.6644    0.9838   -1.8587 N   0  0  0  0  0  0  0  0  0  0  0  0
    5.9381   -0.0717   -1.0334 C   0  0  0  0  0  0  0  0  0  0  0  0
    7.1868   -0.7656   -0.6284 C   0  0  0  0  0  0  0  0  0  0  0  0
    7.1433   -0.8316    0.8991 C   0  0  0  0  0  0  0  0  0  0  0  0
    5.9354   -1.5276    1.3416 N   0  0  0  0  0  0  0  0  0  0  0  0
    4.8154   -1.6997    0.4434 C   0  0  0  0  0  0  0  0  0  0  0  0
    4.7638   -0.5374   -0.5022 C   0  0  0  0  0  0  0  0  0  0  0  0
    3.7787    0.2665   -1.0309 C   0  0  0  0  0  0  0  0  0  0  0  0
    2.4267    0.2194   -0.8186 C   0  0  0  0  0  0  0  0  0  0  0  0
    5.9141   -2.0143    2.6704 C   0  0  0  0  0  0  0  0  0  0  0  0
    6.9115   -1.8425    3.4451 O   0  0  0  0  0  0  0  0  0  0  0  0
    4.7764   -2.7257    3.2228 C   0  0  0  0  0  0  0  0  0  0  0  0
    4.7699   -3.1773    4.4782 C   0  0  0  0  0  0  0  0  0  0  0  0
   -6.2776    2.7403   -1.2668 H   0  0  0  0  0  0  0  0  0  0  0  0
   -5.3906    4.2699   -1.4157 H   0  0  0  0  0  0  0  0  0  0  0  0
   -5.6822    3.6584    0.2230 H   0  0  0  0  0  0  0  0  0  0  0  0
   -0.1026    3.2098   -1.4690 H   0  0  0  0  0  0  0  0  0  0  0  0
    0.1142   -0.9747   -1.0086 H   0  0  0  0  0  0  0  0  0  0  0  0
   -2.3630   -1.0489   -0.6748 H   0  0  0  0  0  0  0  0  0  0  0  0
   -5.9356    0.5112   -0.8245 H   0  0  0  0  0  0  0  0  0  0  0  0
   -4.6355   -0.6644   -1.0737 H   0  0  0  0  0  0  0  0  0  0  0  0
   -4.0555   -0.6763    1.3038 H   0  0  0  0  0  0  0  0  0  0  0  0
   -5.1060    1.8139    1.7522 H   0  0  0  0  0  0  0  0  0  0  0  0
   -4.9804    0.4855    2.9953 H   0  0  0  0  0  0  0  0  0  0  0  0
   -7.1585    0.5932    3.2047 H   0  0  0  0  0  0  0  0  0  0  0  0
   -7.4069    1.6067    1.7037 H   0  0  0  0  0  0  0  0  0  0  0  0
   -7.7544   -0.1181    0.3489 H   0  0  0  0  0  0  0  0  0  0  0  0
   -8.0844   -1.0767    1.8569 H   0  0  0  0  0  0  0  0  0  0  0  0
   -3.8040   -2.5464    0.5591 H   0  0  0  0  0  0  0  0  0  0  0  0
   -3.5586   -4.9572    0.3570 H   0  0  0  0  0  0  0  0  0  0  0  0
   -5.3741   -5.1143    0.6714 H   0  0  0  0  0  0  0  0  0  0  0  0
    1.5727    2.8020   -2.8129 H   0  0  0  0  0  0  0  0  0  0  0  0
    5.8501    2.8602   -4.5513 H   0  0  0  0  0  0  0  0  0  0  0  0
    6.1095    3.8904   -3.1312 H   0  0  0  0  0  0  0  0  0  0  0  0
    6.3993    1.5159   -2.3884 H   0  0  0  0  0  0  0  0  0  0  0  0
    7.1208   -1.8228   -0.9662 H   0  0  0  0  0  0  0  0  0  0  0  0
    8.1025   -0.2546   -0.9187 H   0  0  0  0  0  0  0  0  0  0  0  0
    8.0676   -1.3030    1.3018 H   0  0  0  0  0  0  0  0  0  0  0  0
    7.0747    0.2389    1.2252 H   0  0  0  0  0  0  0  0  0  0  0  0
    3.8597   -1.7550    1.0073 H   0  0  0  0  0  0  0  0  0  0  0  0
    5.0083   -2.5885   -0.1682 H   0  0  0  0  0  0  0  0  0  0  0  0
    2.0041   -0.5323   -0.1520 H   0  0  0  0  0  0  0  0  0  0  0  0
    3.8840   -2.9251    2.6479 H   0  0  0  0  0  0  0  0  0  0  0  0
    5.6303   -3.0206    5.1277 H   0  0  0  0  0  0  0  0  0  0  0  0
    3.9312   -3.7070    4.8994 H   0  0  0  0  0  0  0  0  0  0  0  0
  1  2  1  0
  2  3  2  0
  3  4  1  0
  4  5  2  0
  5  6  1  0
  6  7  2  0
  7  8  1  0
  8  9  2  0
  9 10  1  0
 10 11  1  0
 11 12  1  0
 12 13  1  0
 13 14  1  0
 14 15  1  0
 15 16  1  0
 16 17  1  0
 17 18  2  0
 17 19  1  0
 19 20  2  3
  6 21  1  0
 21 22  2  0
 22 23  1  0
 23 24  1  0
 24 25  1  0
 24 26  2  0
 23 27  2  0
 27 28  1  0
 28 29  1  0
 29 30  1  0
 30 31  1  0
 31 32  1  0
 32 33  1  0
 33 34  1  0
 34 35  1  0
 35 36  2  0
 32 37  1  0
 37 38  2  0
 37 39  1  0
 39 40  2  3
 10  2  1  0
 16 12  1  0
 36 21  1  0
  9  4  1  0
 35 27  1  0
 34 29  2  0
  1 41  1  0
  1 42  1  0
  1 43  1  0
  5 44  1  0
  7 45  1  0
  8 46  1  0
 11 47  1  0
 11 48  1  0
 12 49  1  1
 13 50  1  0
 13 51  1  0
 14 52  1  0
 14 53  1  0
 15 54  1  0
 15 55  1  0
 19 56  1  0
 20 57  1  0
 20 58  1  0
 22 59  1  0
 25 60  1  0
 25 61  1  0
 28 62  1  0
 30 63  1  0
 30 64  1  0
 31 65  1  0
 31 66  1  0
 33 67  1  0
 33 68  1  0
 36 69  1  0
 39 70  1  0
 40 71  1  0
 40 72  1  0
M  END
$$$$
[H]OC(=O)c1c([H])c(-n2c([H])c([H])c3c([H])nc(N([H])c4c([H])c([H])c(N5C([H])([H])C([H])([H])N(C([H])([H])[H])C([H])([H])C5([H])[H])c([H])c4OC([H])([H])[H])nc32)c(C([H])([H])[H])c([H])c1C([H])([H])[H]
     RDKit          3D

 66 70  0  0  0  0  0  0  0  0999 V2000
    1.5215   -3.3465    1.6643 C   0  0  0  0  0  0  0  0  0  0  0  0
    1.0190   -2.1496    1.1179 O   0  0  0  0  0  0  0  0  0  0  0  0
    1.8762   -1.1532    0.6826 C   0  0  0  0  0  0  0  0  0  0  0  0
    3.2301   -1.3327    0.7838 C   0  0  0  0  0  0  0  0  0  0  0  0
    4.1307   -0.3756    0.3666 C   0  0  0  0  0  0  0  0  0  0  0  0
    3.5970    0.7795   -0.1610 C   0  0  0  0  0  0  0  0  0  0  0  0
    2.2114    0.9770   -0.2707 C   0  0  0  0  0  0  0  0  0  0  0  0
    1.3256    0.0273    0.1431 C   0  0  0  0  0  0  0  0  0  0  0  0
   -0.0690    0.1669    0.0682 N   0  0  0  0  0  0  0  0  0  0  0  0
   -0.8337    1.2244   -0.4675 C   0  0  0  0  0  0  0  0  0  0  0  0
   -0.3410    2.3309   -1.0277 N   0  0  0  0  0  0  0  0  0  0  0  0
   -1.0799    3.3330   -1.5403 C   0  0  0  0  0  0  0  0  0  0  0  0
   -2.4452    3.2086   -1.4828 C   0  0  0  0  0  0  0  0  0  0  0  0
   -3.4465    4.0397   -1.9117 C   0  0  0  0  0  0  0  0  0  0  0  0
   -4.6266    3.3808   -1.5827 C   0  0  0  0  0  0  0  0  0  0  0  0
   -4.3755    2.2069   -0.9832 N   0  0  0  0  0  0  0  0  0  0  0  0
   -5.2815    1.2300   -0.4858 C   0  0  0  0  0  0  0  0  0  0  0  0
   -6.0489    1.4235    0.6338 C   0  0  0  0  0  0  0  0  0  0  0  0
   -6.9372    0.4395    1.1044 C   0  0  0  0  0  0  0  0  0  0  0  0
   -7.0679   -0.7617    0.4521 C   0  0  0  0  0  0  0  0  0  0  0  0
   -7.9965   -1.8401    0.9074 C   0  0  0  0  0  0  0  0  0  0  0  0
   -6.2843   -0.9548   -0.6889 C   0  0  0  0  0  0  0  0  0  0  0  0
   -5.4230    0.0240   -1.1282 C   0  0  0  0  0  0  0  0  0  0  0  0
   -4.6143   -0.2342   -2.3424 C   0  0  0  0  0  0  0  0  0  0  0  0
   -7.7111    0.7251    2.2982 C   0  0  0  0  0  0  0  0  0  0  0  0
   -8.6055   -0.1390    2.8638 O   0  0  0  0  0  0  0  0  0  0  0  0
   -7.5525    1.8423    2.8567 O   0  0  0  0  0  0  0  0  0  0  0  0
   -3.0157    2.0936   -0.9179 C   0  0  0  0  0  0  0  0  0  0  0  0
   -2.1961    1.1532   -0.4365 N   0  0  0  0  0  0  0  0  0  0  0  0
    5.5322   -0.5578    0.4605 N   0  0  0  0  0  0  0  0  0  0  0  0
    6.3954    0.5607    0.1402 C   0  0  0  0  0  0  0  0  0  0  0  0
    7.8152    0.2998    0.6196 C   0  0  0  0  0  0  0  0  0  0  0  0
    8.2459   -0.9347    0.0479 N   0  0  0  0  0  0  0  0  0  0  0  0
    8.6097   -0.8181   -1.3397 C   0  0  0  0  0  0  0  0  0  0  0  0
    7.4703   -2.0847    0.3757 C   0  0  0  0  0  0  0  0  0  0  0  0
    6.0744   -1.8124    0.8554 C   0  0  0  0  0  0  0  0  0  0  0  0
    2.3099   -3.8174    1.0359 H   0  0  0  0  0  0  0  0  0  0  0  0
    1.8844   -3.1177    2.6963 H   0  0  0  0  0  0  0  0  0  0  0  0
    0.7328   -4.1159    1.7921 H   0  0  0  0  0  0  0  0  0  0  0  0
    3.6196   -2.2677    1.2148 H   0  0  0  0  0  0  0  0  0  0  0  0
    4.3029    1.5362   -0.4939 H   0  0  0  0  0  0  0  0  0  0  0  0
    1.9468    1.9260   -0.6978 H   0  0  0  0  0  0  0  0  0  0  0  0
   -0.6631   -0.6292    0.4704 H   0  0  0  0  0  0  0  0  0  0  0  0
   -0.5504    4.1725   -1.9631 H   0  0  0  0  0  0  0  0  0  0  0  0
   -3.3249    5.0082   -2.4049 H   0  0  0  0  0  0  0  0  0  0  0  0
   -5.6183    3.7513   -1.7783 H   0  0  0  0  0  0  0  0  0  0  0  0
   -5.9487    2.3811    1.1587 H   0  0  0  0  0  0  0  0  0  0  0  0
   -7.9164   -2.6827    0.1727 H   0  0  0  0  0  0  0  0  0  0  0  0
   -9.0326   -1.4481    0.8953 H   0  0  0  0  0  0  0  0  0  0  0  0
   -7.7374   -2.1653    1.9120 H   0  0  0  0  0  0  0  0  0  0  0  0
   -6.3964   -1.9069   -1.1963 H   0  0  0  0  0  0  0  0  0  0  0  0
   -5.2588   -0.8590   -3.0229 H   0  0  0  0  0  0  0  0  0  0  0  0
   -3.7805   -0.9057   -2.0522 H   0  0  0  0  0  0  0  0  0  0  0  0
   -4.2364    0.6617   -2.8354 H   0  0  0  0  0  0  0  0  0  0  0  0
   -9.4287    0.2134    3.3312 H   0  0  0  0  0  0  0  0  0  0  0  0
    6.0525    1.4741    0.6879 H   0  0  0  0  0  0  0  0  0  0  0  0
    6.4266    0.7806   -0.9322 H   0  0  0  0  0  0  0  0  0  0  0  0
    8.4643    1.1040    0.2506 H   0  0  0  0  0  0  0  0  0  0  0  0
    7.8695    0.2232    1.7182 H   0  0  0  0  0  0  0  0  0  0  0  0
    7.8379   -1.2243   -1.9980 H   0  0  0  0  0  0  0  0  0  0  0  0
    8.8245    0.2630   -1.5237 H   0  0  0  0  0  0  0  0  0  0  0  0
    9.5833   -1.3502   -1.4767 H   0  0  0  0  0  0  0  0  0  0  0  0
    8.0409   -2.6836    1.1422 H   0  0  0  0  0  0  0  0  0  0  0  0
    7.4750   -2.7546   -0.5355 H   0  0  0  0  0  0  0  0  0  0  0  0
    5.4326   -2.6212    0.4104 H   0  0  0  0  0  0  0  0  0  0  0  0
    5.9865   -1.9173    1.9653 H   0  0  0  0  0  0  0  0  0  0  0  0
  1  2  1  0
  2  3  1  0
  3  4  2  0
  4  5  1  0
  5  6  2  0
  6  7  1  0
  7  8  2  0
  8  9  1  0
  9 10  1  0
 10 11  2  0
 11 12  1  0
 12 13  2  0
 13 14  1  0
 14 15  2  0
 15 16  1  0
 16 17  1  0
 17 18  2  0
 18 19  1  0
 19 20  2  0
 20 21  1  0
 20 22  1  0
 22 23  2  0
 23 24  1  0
 19 25  1  0
 25 26  1  0
 25 27  2  0
 16 28  1  0
 28 29  2  0
  5 30  1  0
 30 31  1  0
 31 32  1  0
 32 33  1  0
 33 34  1  0
 33 35  1  0
 35 36  1  0
  8  3  1  0
 29 10  1  0
 36 30  1  0
 28 13  1  0
 23 17  1  0
  1 37  1  0
  1 38  1  0
  1 39  1  0
  4 40  1  0
  6 41  1  0
  7 42  1  0
  9 43  1  0
 12 44  1  0
 14 45  1  0
 15 46  1  0
 18 47  1  0
 21 48  1  0
 21 49  1  0
 21 50  1  0
 22 51  1  0
 24 52  1  0
 24 53  1  0
 24 54  1  0
 26 55  1  0
 31 56  1  0
 31 57  1  0
 32 58  1  0
 32 59  1  0
 34 60  1  0
 34 61  1  0
 34 62  1  0
 35 63  1  0
 35 64  1  0
 36 65  1  0
 36 66  1  0
M  END
$$$$
[H]OC(=O)C([H])([H])[C@@]([H])(c1c([H])c([H])c(C([H])([H])C([H])([H])O[H])c([H])c1C([H])([H])[H])N([H])C(=O)[C@@]([H])(N([H])[C@]([H])(C(=O)O[H])C([H])([H])c1c([H])c([H])c(-c2c([H])c([H])c([H])c([H])c2[H])c([H])c1[H])C([H])([H])C([H])(C([H])([H])[H])C([H])([H])[H]
     RDKit          3D

 81 83  0  0  0  0  0  0  0  0999 V2000
   -3.7935   -0.0698   -2.6786 C   0  0  0  0  0  0  0  0  0  0  0  0
   -4.2122    0.4520   -1.3775 C   0  0  0  0  0  0  0  0  0  0  0  0
   -4.4423    1.8127   -1.3126 C   0  0  0  0  0  0  0  0  0  0  0  0
   -4.8899    2.4684   -0.1980 C   0  0  0  0  0  0  0  0  0  0  0  0
   -5.1286    3.9347   -0.1372 C   0  0  0  0  0  0  0  0  0  0  0  0
   -3.8907    4.6668    0.3373 C   0  0  0  0  0  0  0  0  0  0  0  0
   -2.8684    4.3932   -0.5656 O   0  0  0  0  0  0  0  0  0  0  0  0
   -5.1145    1.6745    0.9136 C   0  0  0  0  0  0  0  0  0  0  0  0
   -4.8913    0.3097    0.8756 C   0  0  0  0  0  0  0  0  0  0  0  0
   -4.4455   -0.3425   -0.2259 C   0  0  0  0  0  0  0  0  0  0  0  0
   -4.1791   -1.7669   -0.4098 C   0  0  2  0  0  0  0  0  0  0  0  0
   -4.7193   -2.6379    0.6495 C   0  0  0  0  0  0  0  0  0  0  0  0
   -4.2185   -2.5530    2.0087 C   0  0  0  0  0  0  0  0  0  0  0  0
   -4.9511   -3.2343    2.9970 O   0  0  0  0  0  0  0  0  0  0  0  0
   -3.2157   -1.9495    2.4160 O   0  0  0  0  0  0  0  0  0  0  0  0
   -2.8059   -2.1095   -0.7126 N   0  0  0  0  0  0  0  0  0  0  0  0
   -1.6728   -1.3635   -0.5081 C   0  0  0  0  0  0  0  0  0  0  0  0
   -1.6987   -0.2268    0.0232 O   0  0  0  0  0  0  0  0  0  0  0  0
   -0.3281   -1.8895   -0.9249 C   0  0  2  0  0  0  0  0  0  0  0  0
   -0.0483   -3.2772   -0.5109 C   0  0  0  0  0  0  0  0  0  0  0  0
   -0.0525   -3.6077    0.9308 C   0  0  0  0  0  0  0  0  0  0  0  0
    0.2675   -5.1151    1.0150 C   0  0  0  0  0  0  0  0  0  0  0  0
    0.9667   -2.9239    1.7767 C   0  0  0  0  0  0  0  0  0  0  0  0
    0.7514   -0.9456   -0.7616 N   0  0  0  0  0  0  0  0  0  0  0  0
    0.6295    0.1943   -1.6473 C   0  0  1  0  0  0  0  0  0  0  0  0
    1.0799    1.4881   -1.0545 C   0  0  0  0  0  0  0  0  0  0  0  0
    2.4950    1.5227   -0.6345 C   0  0  0  0  0  0  0  0  0  0  0  0
    2.8494    1.2146    0.6532 C   0  0  0  0  0  0  0  0  0  0  0  0
    4.1638    1.2294    1.1091 C   0  0  0  0  0  0  0  0  0  0  0  0
    5.1756    1.5676    0.2402 C   0  0  0  0  0  0  0  0  0  0  0  0
    4.8462    1.8799   -1.0552 C   0  0  0  0  0  0  0  0  0  0  0  0
    3.5352    1.8593   -1.4882 C   0  0  0  0  0  0  0  0  0  0  0  0
    6.5625    1.6250    0.6464 C   0  0  0  0  0  0  0  0  0  0  0  0
    6.8812    1.9967    1.9340 C   0  0  0  0  0  0  0  0  0  0  0  0
    8.2072    2.0717    2.3562 C   0  0  0  0  0  0  0  0  0  0  0  0
    9.2032    1.7658    1.4621 C   0  0  0  0  0  0  0  0  0  0  0  0
    8.9045    1.3905    0.1701 C   0  0  0  0  0  0  0  0  0  0  0  0
    7.5797    1.3240   -0.2256 C   0  0  0  0  0  0  0  0  0  0  0  0
    1.3128   -0.0980   -2.9547 C   0  0  0  0  0  0  0  0  0  0  0  0
    1.2598    0.7887   -3.9999 O   0  0  0  0  0  0  0  0  0  0  0  0
    1.9520   -1.1800   -3.1113 O   0  0  0  0  0  0  0  0  0  0  0  0
   -4.5160    0.3422   -3.4516 H   0  0  0  0  0  0  0  0  0  0  0  0
   -2.8299    0.4336   -2.9550 H   0  0  0  0  0  0  0  0  0  0  0  0
   -3.7779   -1.1314   -2.8408 H   0  0  0  0  0  0  0  0  0  0  0  0
   -4.2615    2.4321   -2.2015 H   0  0  0  0  0  0  0  0  0  0  0  0
   -5.3530    4.3044   -1.1519 H   0  0  0  0  0  0  0  0  0  0  0  0
   -6.0116    4.1746    0.4890 H   0  0  0  0  0  0  0  0  0  0  0  0
   -4.1231    5.7558    0.2638 H   0  0  0  0  0  0  0  0  0  0  0  0
   -3.5843    4.3565    1.3600 H   0  0  0  0  0  0  0  0  0  0  0  0
   -3.0622    4.8107   -1.4468 H   0  0  0  0  0  0  0  0  0  0  0  0
   -5.4686    2.1458    1.8147 H   0  0  0  0  0  0  0  0  0  0  0  0
   -5.1328   -0.2165    1.7735 H   0  0  0  0  0  0  0  0  0  0  0  0
   -4.7334   -2.0085   -1.3809 H   0  0  0  0  0  0  0  0  0  0  0  0
   -5.8385   -2.3900    0.7297 H   0  0  0  0  0  0  0  0  0  0  0  0
   -4.6599   -3.7257    0.3252 H   0  0  0  0  0  0  0  0  0  0  0  0
   -5.5474   -3.9945    2.7398 H   0  0  0  0  0  0  0  0  0  0  0  0
   -2.6449   -3.0921   -1.1687 H   0  0  0  0  0  0  0  0  0  0  0  0
   -0.4457   -1.9518   -2.0657 H   0  0  0  0  0  0  0  0  0  0  0  0
    0.9486   -3.5568   -0.9144 H   0  0  0  0  0  0  0  0  0  0  0  0
   -0.7656   -3.9548   -1.0235 H   0  0  0  0  0  0  0  0  0  0  0  0
   -1.0788   -3.5651    1.3984 H   0  0  0  0  0  0  0  0  0  0  0  0
    0.6274   -5.3687    2.0391 H   0  0  0  0  0  0  0  0  0  0  0  0
   -0.6131   -5.7136    0.7104 H   0  0  0  0  0  0  0  0  0  0  0  0
    1.0935   -5.2891    0.2977 H   0  0  0  0  0  0  0  0  0  0  0  0
    0.6428   -1.9645    2.2272 H   0  0  0  0  0  0  0  0  0  0  0  0
    1.1286   -3.5969    2.6743 H   0  0  0  0  0  0  0  0  0  0  0  0
    1.9220   -2.8843    1.2486 H   0  0  0  0  0  0  0  0  0  0  0  0
    0.8518   -0.6757    0.2334 H   0  0  0  0  0  0  0  0  0  0  0  0
   -0.4425    0.3209   -1.9263 H   0  0  0  0  0  0  0  0  0  0  0  0
    0.4062    1.7012   -0.1739 H   0  0  0  0  0  0  0  0  0  0  0  0
    0.9132    2.3532   -1.7583 H   0  0  0  0  0  0  0  0  0  0  0  0
    2.0641    0.9519    1.3702 H   0  0  0  0  0  0  0  0  0  0  0  0
    4.3799    0.9724    2.1474 H   0  0  0  0  0  0  0  0  0  0  0  0
    5.6428    2.1434   -1.7320 H   0  0  0  0  0  0  0  0  0  0  0  0
    3.2783    2.1130   -2.5052 H   0  0  0  0  0  0  0  0  0  0  0  0
    6.1122    2.2458    2.6624 H   0  0  0  0  0  0  0  0  0  0  0  0
    8.4553    2.3651    3.3666 H   0  0  0  0  0  0  0  0  0  0  0  0
   10.2317    1.8131    1.7516 H   0  0  0  0  0  0  0  0  0  0  0  0
    9.6730    1.1504   -0.5239 H   0  0  0  0  0  0  0  0  0  0  0  0
    7.3872    1.0192   -1.2577 H   0  0  0  0  0  0  0  0  0  0  0  0
    2.0758    0.8358   -4.6109 H   0  0  0  0  0  0  0  0  0  0  0  0
  1  2  1  0
  2  3  2  0
  3  4  1  0
  4  5  1  0
  5  6  1  0
  6  7  1  0
  4  8  2  0
  8  9  1  0
  9 10  2  0
 10 11  1  0
 11 12  1  0
 12 13  1  0
 13 14  1  0
 13 15  2  0
 11 16  1  0
 16 17  1  0
 17 18  2  0
 17 19  1  0
 19 20  1  0
 20 21  1  0
 21 22  1  0
 21 23  1  0
 19 24  1  0
 24 25  1  0
 25 26  1  0
 26 27  1  0
 27 28  2  0
 28 29  1  0
 29 30  2  0
 30 31  1  0
 31 32  2  0
 30 33  1  0
 33 34  2  0
 34 35  1  0
 35 36  2  0
 36 37  1  0
 37 38  2  0
 25 39  1  0
 39 40  1  0
 39 41  2  0
 10  2  1  0
 32 27  1  0
 38 33  1  0
  1 42  1  0
  1 43  1  0
  1 44  1  0
  3 45  1  0
  5 46  1  0
  5 47  1  0
  6 48  1  0
  6 49  1  0
  7 50  1  0
  8 51  1  0
  9 52  1  0
 11 53  1  6
 12 54  1  0
 12 55  1  0
 14 56  1  0
 16 57  1  0
 19 58  1  6
 20 59  1  0
 20 60  1  0
 21 61  1  0
 22 62  1  0
 22 63  1  0
 22 64  1  0
 23 65  1  0
 23 66  1  0
 23 67  1  0
 24 68  1  0
 25 69  1  6
 26 70  1  0
 26 71  1  0
 28 72  1  0
 29 73  1  0
 31 74  1  0
 32 75  1  0
 34 76  1  0
 35 77  1  0
 36 78  1  0
 37 79  1  0
 38 80  1  0
 40 81  1  0
M  END
$$$$
[H]c1nc2c([H])c([H])c([H])c([H])n2c1-c1c([H])c(N([H])C(=O)c2c([H])c([H])c(C([H])([H])N3C([H])([H])C([H])([H])N(C([H])([H])[H])C([H])([H])C3([H])[H])c(C(F)(F)F)c2[H])c([H])c([H])c1C([H])([H])[H]
     RDKit          3D

 65 69  0  0  0  0  0  0  0  0999 V2000
    8.9739    0.3589   -1.0819 C   0  0  0  0  0  0  0  0  0  0  0  0
    7.5959    0.2892   -0.5907 N   0  0  0  0  0  0  0  0  0  0  0  0
    7.5975   -0.4572    0.6592 C   0  0  0  0  0  0  0  0  0  0  0  0
    6.8275    0.3100    1.6894 C   0  0  0  0  0  0  0  0  0  0  0  0
    5.4924    0.6758    1.2241 N   0  0  0  0  0  0  0  0  0  0  0  0
    4.8711   -0.5916    0.8227 C   0  0  0  0  0  0  0  0  0  0  0  0
    3.4214   -0.4474    0.5577 C   0  0  0  0  0  0  0  0  0  0  0  0
    2.7749    0.7528    0.7635 C   0  0  0  0  0  0  0  0  0  0  0  0
    1.4186    0.8179    0.5264 C   0  0  0  0  0  0  0  0  0  0  0  0
    0.6845   -0.2662    0.0939 C   0  0  0  0  0  0  0  0  0  0  0  0
    1.3626   -1.4313   -0.0956 C   0  0  0  0  0  0  0  0  0  0  0  0
    2.7337   -1.5726    0.1232 C   0  0  0  0  0  0  0  0  0  0  0  0
    3.3872   -2.8820   -0.1085 C   0  0  0  0  0  0  0  0  0  0  0  0
    4.3618   -2.8649   -1.0589 F   0  0  0  0  0  0  0  0  0  0  0  0
    2.4114   -3.7896   -0.5236 F   0  0  0  0  0  0  0  0  0  0  0  0
    3.8556   -3.3843    1.1041 F   0  0  0  0  0  0  0  0  0  0  0  0
   -0.7793   -0.1285   -0.1507 C   0  0  0  0  0  0  0  0  0  0  0  0
   -1.1443    1.0715   -0.2862 O   0  0  0  0  0  0  0  0  0  0  0  0
   -1.6023   -1.2614   -0.2102 N   0  0  0  0  0  0  0  0  0  0  0  0
   -3.0041   -1.2851   -0.4349 C   0  0  0  0  0  0  0  0  0  0  0  0
   -3.6388   -2.5371   -0.5768 C   0  0  0  0  0  0  0  0  0  0  0  0
   -4.9847   -2.6349   -0.7939 C   0  0  0  0  0  0  0  0  0  0  0  0
   -5.8002   -1.5002   -0.8861 C   0  0  0  0  0  0  0  0  0  0  0  0
   -7.2348   -1.7348   -1.2844 C   0  0  0  0  0  0  0  0  0  0  0  0
   -5.2244   -0.2868   -0.7491 C   0  0  0  0  0  0  0  0  0  0  0  0
   -3.8200   -0.2015   -0.5258 C   0  0  0  0  0  0  0  0  0  0  0  0
   -5.9301    0.9822   -0.6584 C   0  0  0  0  0  0  0  0  0  0  0  0
   -5.4225    2.1470   -1.2817 C   0  0  0  0  0  0  0  0  0  0  0  0
   -6.2209    3.1359   -0.9416 N   0  0  0  0  0  0  0  0  0  0  0  0
   -7.1995    2.6426   -0.1337 C   0  0  0  0  0  0  0  0  0  0  0  0
   -8.2057    3.3900    0.4551 C   0  0  0  0  0  0  0  0  0  0  0  0
   -9.0858    2.7446    1.2853 C   0  0  0  0  0  0  0  0  0  0  0  0
   -8.8780    1.4038    1.4535 C   0  0  0  0  0  0  0  0  0  0  0  0
   -7.8718    0.6881    0.8558 C   0  0  0  0  0  0  0  0  0  0  0  0
   -7.0050    1.3227    0.0316 N   0  0  0  0  0  0  0  0  0  0  0  0
    5.6333    1.5190    0.0290 C   0  0  0  0  0  0  0  0  0  0  0  0
    7.0682    1.6264   -0.3849 C   0  0  0  0  0  0  0  0  0  0  0  0
    9.1293   -0.4773   -1.7643 H   0  0  0  0  0  0  0  0  0  0  0  0
    9.0745    1.3630   -1.5712 H   0  0  0  0  0  0  0  0  0  0  0  0
    9.6343    0.2773   -0.1937 H   0  0  0  0  0  0  0  0  0  0  0  0
    8.6530   -0.5378    1.0433 H   0  0  0  0  0  0  0  0  0  0  0  0
    7.1434   -1.4486    0.5232 H   0  0  0  0  0  0  0  0  0  0  0  0
    7.4159    1.1727    2.0333 H   0  0  0  0  0  0  0  0  0  0  0  0
    6.6694   -0.3197    2.5959 H   0  0  0  0  0  0  0  0  0  0  0  0
    5.3510   -0.8623   -0.1628 H   0  0  0  0  0  0  0  0  0  0  0  0
    5.0828   -1.3229    1.6204 H   0  0  0  0  0  0  0  0  0  0  0  0
    3.3379    1.5943    1.1182 H   0  0  0  0  0  0  0  0  0  0  0  0
    0.9202    1.7570    0.6879 H   0  0  0  0  0  0  0  0  0  0  0  0
    0.8325   -2.3261   -0.4436 H   0  0  0  0  0  0  0  0  0  0  0  0
   -1.0975   -2.1919   -0.0618 H   0  0  0  0  0  0  0  0  0  0  0  0
   -3.0091   -3.4091   -0.5059 H   0  0  0  0  0  0  0  0  0  0  0  0
   -5.4812   -3.6026   -0.9040 H   0  0  0  0  0  0  0  0  0  0  0  0
   -7.8328   -2.1498   -0.4640 H   0  0  0  0  0  0  0  0  0  0  0  0
   -7.2577   -2.5550   -2.0764 H   0  0  0  0  0  0  0  0  0  0  0  0
   -7.6646   -0.8692   -1.8096 H   0  0  0  0  0  0  0  0  0  0  0  0
   -3.4005    0.7871   -0.4228 H   0  0  0  0  0  0  0  0  0  0  0  0
   -4.5290    2.1874   -1.9226 H   0  0  0  0  0  0  0  0  0  0  0  0
   -8.3023    4.4622    0.2688 H   0  0  0  0  0  0  0  0  0  0  0  0
   -9.8820    3.2945    1.7598 H   0  0  0  0  0  0  0  0  0  0  0  0
   -9.5690    0.8607    2.1168 H   0  0  0  0  0  0  0  0  0  0  0  0
   -7.7315   -0.3525    1.0718 H   0  0  0  0  0  0  0  0  0  0  0  0
    5.2979    2.5742    0.2342 H   0  0  0  0  0  0  0  0  0  0  0  0
    5.0272    1.1107   -0.7981 H   0  0  0  0  0  0  0  0  0  0  0  0
    7.6436    2.2301    0.3188 H   0  0  0  0  0  0  0  0  0  0  0  0
    7.1252    2.1326   -1.3742 H   0  0  0  0  0  0  0  0  0  0  0  0
  1  2  1  0
  2  3  1  0
  3  4  1  0
  4  5  1  0
  5  6  1  0
  6  7  1  0
  7  8  2  0
  8  9  1  0
  9 10  2  0
 10 11  1  0
 11 12  2  0
 12 13  1  0
 13 14  1  0
 13 15  1  0
 13 16  1  0
 10 17  1  0
 17 18  2  0
 17 19  1  0
 19 20  1  0
 20 21  2  0
 21 22  1  0
 22 23  2  0
 23 24  1  0
 23 25  1  0
 25 26  2  0
 25 27  1  0
 27 28  2  0
 28 29  1  0
 29 30  2  0
 30 31  1  0
 31 32  2  0
 32 33  1  0
 33 34  2  0
 34 35  1  0
  5 36  1  0
 36 37  1  0
 37  2  1  0
 12  7  1  0
 26 20  1  0
 35 27  1  0
 35 30  1  0
  1 38  1  0
  1 39  1  0
  1 40  1  0
  3 41  1  0
  3 42  1  0
  4 43  1  0
  4 44  1  0
  6 45  1  0
  6 46  1  0
  8 47  1  0
  9 48  1  0
 11 49  1  0
 19 50  1  0
 21 51  1  0
 22 52  1  0
 24 53  1  0
 24 54  1  0
 24 55  1  0
 26 56  1  0
 28 57  1  0
 31 58  1  0
 32 59  1  0
 33 60  1  0
 34 61  1  0
 36 62  1  0
 36 63  1  0
 37 64  1  0
 37 65  1  0
M  END
$$$$
[H]OC([H])([H])c1c([H])c([H])c(OC([H])([H])[H])c(-c2c(C([H])(C([H])([H])[H])C([H])([H])[H])c3c([H])c(C4([H])C([H])([H])C([H])([H])N(C([H])([H])C(=O)N(C([H])([H])C([H])([H])[H])C([H])([H])C([H])([H])[H])C([H])([H])C4([H])[H])c([H])c([H])c3n2[H])c1OC([H])([H])[H]
     RDKit          3D

 81 84  0  0  0  0  0  0  0  0999 V2000
   -8.6000    0.0162    2.4376 C   0  0  0  0  0  0  0  0  0  0  0  0
   -8.4824   -0.8141    1.1873 C   0  0  0  0  0  0  0  0  0  0  0  0
   -7.7385   -0.1869    0.1156 N   0  0  0  0  0  0  0  0  0  0  0  0
   -8.5232    0.6823   -0.7811 C   0  0  0  0  0  0  0  0  0  0  0  0
   -8.4749    2.1331   -0.3978 C   0  0  0  0  0  0  0  0  0  0  0  0
   -6.3924   -0.4309   -0.1057 C   0  0  0  0  0  0  0  0  0  0  0  0
   -5.8248   -1.2975    0.6480 O   0  0  0  0  0  0  0  0  0  0  0  0
   -5.5609    0.2238   -1.1399 C   0  0  0  0  0  0  0  0  0  0  0  0
   -4.2129   -0.2218   -1.1753 N   0  0  0  0  0  0  0  0  0  0  0  0
   -3.4365    0.1085   -0.0674 C   0  0  0  0  0  0  0  0  0  0  0  0
   -2.0501   -0.4817   -0.0907 C   0  0  0  0  0  0  0  0  0  0  0  0
   -1.7687   -0.7440   -1.6043 C   0  0  0  0  0  0  0  0  0  0  0  0
   -2.5747   -1.9294   -1.9377 C   0  0  0  0  0  0  0  0  0  0  0  0
   -4.0544   -1.4241   -1.8791 C   0  0  0  0  0  0  0  0  0  0  0  0
   -0.3530   -0.6129   -1.8502 C   0  0  0  0  0  0  0  0  0  0  0  0
    0.0615    0.2050   -2.8991 C   0  0  0  0  0  0  0  0  0  0  0  0
    1.3600    0.6413   -3.0548 C   0  0  0  0  0  0  0  0  0  0  0  0
    2.2879    0.2233   -2.1066 C   0  0  0  0  0  0  0  0  0  0  0  0
    3.5540    0.6631   -1.8602 N   0  0  0  0  0  0  0  0  0  0  0  0
    3.9944    0.1676   -0.7095 C   0  0  0  0  0  0  0  0  0  0  0  0
    3.0330   -0.6258   -0.1839 C   0  0  0  0  0  0  0  0  0  0  0  0
    2.9720   -1.2529    1.1200 C   0  0  0  0  0  0  0  0  0  0  0  0
    2.8005   -2.7539    1.0727 C   0  0  0  0  0  0  0  0  0  0  0  0
    3.6750   -0.7188    2.2917 C   0  0  0  0  0  0  0  0  0  0  0  0
    1.9381   -0.5778   -1.0731 C   0  0  0  0  0  0  0  0  0  0  0  0
    0.6327   -1.0150   -0.9194 C   0  0  0  0  0  0  0  0  0  0  0  0
    5.2187    0.5914   -0.0174 C   0  0  0  0  0  0  0  0  0  0  0  0
    5.1126    1.9759    0.4513 C   0  0  0  0  0  0  0  0  0  0  0  0
    3.9172    2.5379    0.2253 O   0  0  0  0  0  0  0  0  0  0  0  0
    3.2311    3.6442    0.4448 C   0  0  0  0  0  0  0  0  0  0  0  0
    6.2004    2.5196    1.0502 C   0  0  0  0  0  0  0  0  0  0  0  0
    7.3895    1.8493    1.2441 C   0  0  0  0  0  0  0  0  0  0  0  0
    7.4752    0.5266    0.7993 C   0  0  0  0  0  0  0  0  0  0  0  0
    8.6057   -0.3546    1.1778 C   0  0  0  0  0  0  0  0  0  0  0  0
    9.7888   -0.1724    0.4830 O   0  0  0  0  0  0  0  0  0  0  0  0
    6.3568   -0.0291    0.1815 C   0  0  0  0  0  0  0  0  0  0  0  0
    6.5215   -1.3713   -0.2711 O   0  0  0  0  0  0  0  0  0  0  0  0
    7.1060   -1.4493   -1.6131 C   0  0  0  0  0  0  0  0  0  0  0  0
   -8.1428    1.0116    2.2809 H   0  0  0  0  0  0  0  0  0  0  0  0
   -9.6909    0.2421    2.6856 H   0  0  0  0  0  0  0  0  0  0  0  0
   -8.1459   -0.4990    3.3155 H   0  0  0  0  0  0  0  0  0  0  0  0
   -9.4405   -1.1827    0.8393 H   0  0  0  0  0  0  0  0  0  0  0  0
   -7.8035   -1.7226    1.4987 H   0  0  0  0  0  0  0  0  0  0  0  0
   -8.2273    0.5827   -1.8475 H   0  0  0  0  0  0  0  0  0  0  0  0
   -9.6141    0.3409   -0.7665 H   0  0  0  0  0  0  0  0  0  0  0  0
   -9.4442    2.6630   -0.4791 H   0  0  0  0  0  0  0  0  0  0  0  0
   -8.0472    2.3732    0.5718 H   0  0  0  0  0  0  0  0  0  0  0  0
   -7.8241    2.6822   -1.1564 H   0  0  0  0  0  0  0  0  0  0  0  0
   -6.0685    0.0854   -2.1531 H   0  0  0  0  0  0  0  0  0  0  0  0
   -5.5768    1.3291   -0.9530 H   0  0  0  0  0  0  0  0  0  0  0  0
   -3.2433    1.2422   -0.1163 H   0  0  0  0  0  0  0  0  0  0  0  0
   -3.8620   -0.0354    0.9070 H   0  0  0  0  0  0  0  0  0  0  0  0
   -1.2702    0.0560    0.4020 H   0  0  0  0  0  0  0  0  0  0  0  0
   -2.1043   -1.4959    0.3386 H   0  0  0  0  0  0  0  0  0  0  0  0
   -2.3195    0.1425   -2.0806 H   0  0  0  0  0  0  0  0  0  0  0  0
   -2.5190   -2.6307   -1.0419 H   0  0  0  0  0  0  0  0  0  0  0  0
   -2.3612   -2.4431   -2.8677 H   0  0  0  0  0  0  0  0  0  0  0  0
   -4.6766   -2.2916   -1.6031 H   0  0  0  0  0  0  0  0  0  0  0  0
   -4.2910   -1.2239   -2.9801 H   0  0  0  0  0  0  0  0  0  0  0  0
   -0.7383    0.4725   -3.6149 H   0  0  0  0  0  0  0  0  0  0  0  0
    1.6740    1.2432   -3.8930 H   0  0  0  0  0  0  0  0  0  0  0  0
    4.0888    1.2979   -2.5555 H   0  0  0  0  0  0  0  0  0  0  0  0
    1.7939   -0.9782    1.4711 H   0  0  0  0  0  0  0  0  0  0  0  0
    3.5804   -3.2510    1.7093 H   0  0  0  0  0  0  0  0  0  0  0  0
    3.0960   -3.1199    0.0290 H   0  0  0  0  0  0  0  0  0  0  0  0
    1.7945   -3.1478    1.2308 H   0  0  0  0  0  0  0  0  0  0  0  0
    3.4009    0.3759    2.4125 H   0  0  0  0  0  0  0  0  0  0  0  0
    3.1308   -1.1773    3.2274 H   0  0  0  0  0  0  0  0  0  0  0  0
    4.6975   -0.9711    2.4964 H   0  0  0  0  0  0  0  0  0  0  0  0
    0.3758   -1.6344   -0.0854 H   0  0  0  0  0  0  0  0  0  0  0  0
    2.5398    3.8865   -0.3609 H   0  0  0  0  0  0  0  0  0  0  0  0
    2.5795    3.6197    1.3883 H   0  0  0  0  0  0  0  0  0  0  0  0
    3.8706    4.5361    0.6293 H   0  0  0  0  0  0  0  0  0  0  0  0
    6.1377    3.5760    1.3812 H   0  0  0  0  0  0  0  0  0  0  0  0
    8.1967    2.3345    1.7370 H   0  0  0  0  0  0  0  0  0  0  0  0
    8.9359    0.2331    2.2320 H   0  0  0  0  0  0  0  0  0  0  0  0
    8.2987   -1.2640    1.6183 H   0  0  0  0  0  0  0  0  0  0  0  0
   10.2905   -1.0218    0.3692 H   0  0  0  0  0  0  0  0  0  0  0  0
    7.6576   -0.5322   -1.8198 H   0  0  0  0  0  0  0  0  0  0  0  0
    6.2683   -1.6364   -2.2509 H   0  0  0  0  0  0  0  0  0  0  0  0
    7.8178   -2.3121   -1.5613 H   0  0  0  0  0  0  0  0  0  0  0  0
  1  2  1  0
  2  3  1  0
  3  4  1  0
  4  5  1  0
  3  6  1  0
  6  7  2  0
  6  8  1  0
  8  9  1  0
  9 10  1  0
 10 11  1  0
 11 12  1  0
 12 13  1  0
 13 14  1  0
 12 15  1  0
 15 16  2  0
 16 17  1  0
 17 18  2  0
 18 19  1  0
 19 20  1  0
 20 21  2  0
 21 22  1  0
 22 23  1  0
 22 24  1  0
 21 25  1  0
 25 26  2  0
 20 27  1  0
 27 28  2  0
 28 29  1  0
 29 30  1  0
 28 31  1  0
 31 32  2  0
 32 33  1  0
 33 34  1  0
 34 35  1  0
 33 36  2  0
 36 37  1  0
 37 38  1  0
 14  9  1  0
 26 15  1  0
 36 27  1  0
 25 18  1  0
  1 39  1  0
  1 40  1  0
  1 41  1  0
  2 42  1  0
  2 43  1  0
  4 44  1  0
  4 45  1  0
  5 46  1  0
  5 47  1  0
  5 48  1  0
  8 49  1  0
  8 50  1  0
 10 51  1  0
 10 52  1  0
 11 53  1  0
 11 54  1  0
 12 55  1  0
 13 56  1  0
 13 57  1  0
 14 58  1  0
 14 59  1  0
 16 60  1  0
 17 61  1  0
 19 62  1  0
 22 63  1  0
 23 64  1  0
 23 65  1  0
 23 66  1  0
 24 67  1  0
 24 68  1  0
 24 69  1  0
 26 70  1  0
 30 71  1  0
 30 72  1  0
 30 73  1  0
 31 74  1  0
 32 75  1  0
 34 76  1  0
 34 77  1  0
 35 78  1  0
 38 79  1  0
 38 80  1  0
 38 81  1  0
M  END
$$$$
[H]OC([H])([H])C([H])([H])C1(N([H])[H])C([H])([H])C([H])([H])N(c2c(N([H])C(=O)c3nc(-c4nc([H])c([H])c([H])c4C(F)(F)F)c([H])nc3N([H])[H])nc([H])c([H])c2[H])C([H])([H])C1([H])[H]
     RDKit          3D

 61 64  0  0  0  0  0  0  0  0999 V2000
   -4.1668    2.2981   -3.5674 N   0  0  0  0  0  0  0  0  0  0  0  0
   -4.2090    2.0638   -2.1783 C   0  0  0  0  0  0  0  0  0  0  0  0
   -5.2847    2.3115   -1.4203 N   0  0  0  0  0  0  0  0  0  0  0  0
   -5.2636    2.0680   -0.1038 C   0  0  0  0  0  0  0  0  0  0  0  0
   -4.1497    1.5468    0.5864 C   0  0  0  0  0  0  0  0  0  0  0  0
   -3.1529    1.3370   -0.2255 N   0  0  0  0  0  0  0  0  0  0  0  0
   -3.0829    1.5479   -1.5388 C   0  0  0  0  0  0  0  0  0  0  0  0
   -1.9082    1.2829   -2.3551 C   0  0  0  0  0  0  0  0  0  0  0  0
   -1.9581    1.5168   -3.6142 O   0  0  0  0  0  0  0  0  0  0  0  0
   -0.6868    0.7778   -1.8585 N   0  0  0  0  0  0  0  0  0  0  0  0
    0.4185    0.5508   -2.7127 C   0  0  0  0  0  0  0  0  0  0  0  0
    0.3265    0.8153   -4.0539 N   0  0  0  0  0  0  0  0  0  0  0  0
    1.3074    0.6360   -4.9169 C   0  0  0  0  0  0  0  0  0  0  0  0
    2.5345    0.1526   -4.5085 C   0  0  0  0  0  0  0  0  0  0  0  0
    2.7020   -0.1330   -3.1916 C   0  0  0  0  0  0  0  0  0  0  0  0
    1.6396    0.0689   -2.3017 C   0  0  0  0  0  0  0  0  0  0  0  0
    1.8617   -0.2479   -0.9394 N   0  0  0  0  0  0  0  0  0  0  0  0
    1.1707   -1.2929   -0.2416 C   0  0  0  0  0  0  0  0  0  0  0  0
    2.1505   -2.2991    0.3672 C   0  0  0  0  0  0  0  0  0  0  0  0
    3.1168   -1.4761    1.1905 C   0  0  0  0  0  0  0  0  0  0  0  0
    2.2692   -0.6639    2.0816 N   0  0  0  0  0  0  0  0  0  0  0  0
    4.0081   -2.2755    2.0739 C   0  0  0  0  0  0  0  0  0  0  0  0
    4.8941   -3.2611    1.3907 C   0  0  0  0  0  0  0  0  0  0  0  0
    5.7777   -2.6916    0.4807 O   0  0  0  0  0  0  0  0  0  0  0  0
    3.8578   -0.4925    0.3326 C   0  0  0  0  0  0  0  0  0  0  0  0
    2.8558    0.5235   -0.1882 C   0  0  0  0  0  0  0  0  0  0  0  0
   -4.3005    1.3379    1.9921 C   0  0  0  0  0  0  0  0  0  0  0  0
   -5.5024    1.6716    2.5639 N   0  0  0  0  0  0  0  0  0  0  0  0
   -5.8026    1.5350    3.8508 C   0  0  0  0  0  0  0  0  0  0  0  0
   -4.8692    1.0250    4.7122 C   0  0  0  0  0  0  0  0  0  0  0  0
   -3.6567    0.6812    4.1718 C   0  0  0  0  0  0  0  0  0  0  0  0
   -3.3455    0.8296    2.8005 C   0  0  0  0  0  0  0  0  0  0  0  0
   -2.0453    0.4345    2.2933 C   0  0  0  0  0  0  0  0  0  0  0  0
   -1.3282   -0.0571    3.4314 F   0  0  0  0  0  0  0  0  0  0  0  0
   -1.1888    1.4052    1.8842 F   0  0  0  0  0  0  0  0  0  0  0  0
   -2.0612   -0.7210    1.5281 F   0  0  0  0  0  0  0  0  0  0  0  0
   -4.5138    1.6446   -4.3015 H   0  0  0  0  0  0  0  0  0  0  0  0
   -3.7561    3.1997   -3.9173 H   0  0  0  0  0  0  0  0  0  0  0  0
   -6.2000    2.3071    0.4259 H   0  0  0  0  0  0  0  0  0  0  0  0
   -0.5998    0.5742   -0.8528 H   0  0  0  0  0  0  0  0  0  0  0  0
    1.1255    0.8801   -5.9649 H   0  0  0  0  0  0  0  0  0  0  0  0
    3.3418    0.0038   -5.2116 H   0  0  0  0  0  0  0  0  0  0  0  0
    3.6371   -0.5168   -2.7921 H   0  0  0  0  0  0  0  0  0  0  0  0
    0.6810   -0.8169    0.6580 H   0  0  0  0  0  0  0  0  0  0  0  0
    0.3797   -1.7624   -0.8240 H   0  0  0  0  0  0  0  0  0  0  0  0
    1.5644   -2.9411    1.0493 H   0  0  0  0  0  0  0  0  0  0  0  0
    2.6391   -2.9239   -0.3799 H   0  0  0  0  0  0  0  0  0  0  0  0
    2.8893    0.0244    2.5776 H   0  0  0  0  0  0  0  0  0  0  0  0
    1.9606   -1.3321    2.8343 H   0  0  0  0  0  0  0  0  0  0  0  0
    3.4135   -2.7319    2.8814 H   0  0  0  0  0  0  0  0  0  0  0  0
    4.6868   -1.5307    2.5865 H   0  0  0  0  0  0  0  0  0  0  0  0
    4.3376   -4.0500    0.8445 H   0  0  0  0  0  0  0  0  0  0  0  0
    5.5128   -3.7504    2.1811 H   0  0  0  0  0  0  0  0  0  0  0  0
    6.0109   -3.2789   -0.2653 H   0  0  0  0  0  0  0  0  0  0  0  0
    4.6191    0.0254    0.9272 H   0  0  0  0  0  0  0  0  0  0  0  0
    4.2934   -1.0365   -0.5333 H   0  0  0  0  0  0  0  0  0  0  0  0
    3.3820    1.2512   -0.8340 H   0  0  0  0  0  0  0  0  0  0  0  0
    2.3670    0.9797    0.6939 H   0  0  0  0  0  0  0  0  0  0  0  0
   -6.7744    1.8211    4.2285 H   0  0  0  0  0  0  0  0  0  0  0  0
   -5.0424    0.8855    5.7718 H   0  0  0  0  0  0  0  0  0  0  0  0
   -2.8830    0.2687    4.8337 H   0  0  0  0  0  0  0  0  0  0  0  0
  1  2  1  0
  2  3  2  0
  3  4  1  0
  4  5  2  0
  5  6  1  0
  6  7  2  0
  7  8  1  0
  8  9  2  0
  8 10  1  0
 10 11  1  0
 11 12  2  0
 12 13  1  0
 13 14  2  0
 14 15  1  0
 15 16  2  0
 16 17  1  0
 17 18  1  0
 18 19  1  0
 19 20  1  0
 20 21  1  0
 20 22  1  0
 22 23  1  0
 23 24  1  0
 20 25  1  0
 25 26  1  0
  5 27  1  0
 27 28  2  0
 28 29  1  0
 29 30  2  0
 30 31  1  0
 31 32  2  0
 32 33  1  0
 33 34  1  0
 33 35  1  0
 33 36  1  0
  7  2  1  0
 16 11  1  0
 26 17  1  0
 32 27  1  0
  1 37  1  0
  1 38  1  0
  4 39  1  0
 10 40  1  0
 13 41  1  0
 14 42  1  0
 15 43  1  0
 18 44  1  0
 18 45  1  0
 19 46  1  0
 19 47  1  0
 21 48  1  0
 21 49  1  0
 22 50  1  0
 22 51  1  0
 23 52  1  0
 23 53  1  0
 24 54  1  0
 25 55  1  0
 25 56  1  0
 26 57  1  0
 26 58  1  0
 29 59  1  0
 30 60  1  0
 31 61  1  0
M  END
$$$$
[H]c1nc2c(c([H])nn2C2([H])C([H])([H])C([H])([H])C([H])(N3C([H])([H])C([H])([H])C([H])([H])C3([H])[H])C([H])([H])C2([H])[H])c(C([H])([H])C([H])([H])[H])c1C(=O)N([H])S(=O)(=O)c1c([H])c([H])c(N([H])[C@@]([H])(C([H])([H])Sc2c([H])c([H])c([H])c([H])c2[H])C([H])([H])C([H])([H])N(C([H])([H])[H])C([H])([H])[H])c([N+](=O)[O-])c1[H]
     RDKit          3D

100105  0  0  0  0  0  0  0  0999 V2000
   -0.2121    0.9190    1.6828 C   0  0  0  0  0  0  0  0  0  0  0  0
   -1.2108    1.7847    0.8765 C   0  0  0  0  0  0  0  0  0  0  0  0
   -2.0311    0.9367    0.0118 C   0  0  0  0  0  0  0  0  0  0  0  0
   -1.6061    0.3966   -1.1554 C   0  0  0  0  0  0  0  0  0  0  0  0
   -2.4953   -0.4703   -1.8171 C   0  0  0  0  0  0  0  0  0  0  0  0
   -3.7011   -0.7788   -1.3722 N   0  0  0  0  0  0  0  0  0  0  0  0
   -4.1402   -0.2456   -0.2115 C   0  0  0  0  0  0  0  0  0  0  0  0
   -5.2890   -0.3732    0.4649 N   0  0  0  0  0  0  0  0  0  0  0  0
   -5.2015    0.3705    1.5506 N   0  0  0  0  0  0  0  0  0  0  0  0
   -4.0120    0.9884    1.6021 C   0  0  0  0  0  0  0  0  0  0  0  0
   -3.3088    0.6093    0.4792 C   0  0  0  0  0  0  0  0  0  0  0  0
   -6.4373   -1.1712    0.0942 C   0  0  0  0  0  0  0  0  0  0  0  0
   -7.1387   -1.7588    1.2740 C   0  0  0  0  0  0  0  0  0  0  0  0
   -8.0341   -0.8165    2.0135 C   0  0  0  0  0  0  0  0  0  0  0  0
   -8.7952    0.1215    1.0974 C   0  0  0  0  0  0  0  0  0  0  0  0
   -8.7589   -0.5135   -0.2757 C   0  0  0  0  0  0  0  0  0  0  0  0
   -7.3460   -0.3587   -0.8037 C   0  0  0  0  0  0  0  0  0  0  0  0
  -10.1081    0.3251    1.6092 N   0  0  0  0  0  0  0  0  0  0  0  0
  -10.9260   -0.8283    1.6711 C   0  0  0  0  0  0  0  0  0  0  0  0
  -12.1514   -0.5856    0.8482 C   0  0  0  0  0  0  0  0  0  0  0  0
  -12.1858    0.8854    0.6154 C   0  0  0  0  0  0  0  0  0  0  0  0
  -10.7926    1.3542    0.8829 C   0  0  0  0  0  0  0  0  0  0  0  0
   -0.3498    0.7038   -1.8339 C   0  0  0  0  0  0  0  0  0  0  0  0
    0.3360   -0.3017   -2.2503 O   0  0  0  0  0  0  0  0  0  0  0  0
    0.1035    2.0126   -2.0417 N   0  0  0  0  0  0  0  0  0  0  0  0
    1.5653    2.4521   -2.8109 S   0  0  0  0  0  0  0  0  0  0  0  0
    1.9978    3.8436   -2.4055 O   0  0  0  0  0  0  0  0  0  0  0  0
    1.3142    2.4422   -4.3118 O   0  0  0  0  0  0  0  0  0  0  0  0
    2.8194    1.3032   -2.5019 C   0  0  0  0  0  0  0  0  0  0  0  0
    3.5829    1.4054   -1.3737 C   0  0  0  0  0  0  0  0  0  0  0  0
    4.6202    0.5283   -1.0992 C   0  0  0  0  0  0  0  0  0  0  0  0
    4.9120   -0.5069   -1.9974 C   0  0  0  0  0  0  0  0  0  0  0  0
    5.9785   -1.3483   -1.6708 N   0  0  0  0  0  0  0  0  0  0  0  0
    6.7292   -1.2768   -0.4072 C   0  0  2  0  0  0  0  0  0  0  0  0
    7.9946   -2.0957   -0.5595 C   0  0  0  0  0  0  0  0  0  0  0  0
    8.8600   -1.6160   -1.6737 C   0  0  0  0  0  0  0  0  0  0  0  0
    9.3480   -0.3086   -1.6334 N   0  0  0  0  0  0  0  0  0  0  0  0
   10.3059    0.0725   -0.6808 C   0  0  0  0  0  0  0  0  0  0  0  0
    8.8321    0.6615   -2.5170 C   0  0  0  0  0  0  0  0  0  0  0  0
    5.8645   -1.8386    0.6981 C   0  0  0  0  0  0  0  0  0  0  0  0
    6.5893   -1.8201    2.3240 S   0  0  0  0  0  0  0  0  0  0  0  0
    6.8128   -0.1871    2.9951 C   0  0  0  0  0  0  0  0  0  0  0  0
    5.7696    0.4061    3.7177 C   0  0  0  0  0  0  0  0  0  0  0  0
    5.9264    1.6658    4.2471 C   0  0  0  0  0  0  0  0  0  0  0  0
    7.0930    2.4016    4.1006 C   0  0  0  0  0  0  0  0  0  0  0  0
    8.1137    1.8061    3.3867 C   0  0  0  0  0  0  0  0  0  0  0  0
    7.9631    0.5454    2.8546 C   0  0  0  0  0  0  0  0  0  0  0  0
    4.1565   -0.6211   -3.1301 C   0  0  0  0  0  0  0  0  0  0  0  0
    3.1047    0.2927   -3.3775 C   0  0  0  0  0  0  0  0  0  0  0  0
    4.3769   -1.6355   -4.0847 N   0  0  0  0  0  0  0  0  0  0  0  0
    3.2420   -2.1193   -4.7505 O   0  0  0  0  0  0  0  0  0  0  0  0
    5.4373   -2.1390   -4.4355 O   0  0  0  0  0  0  0  0  0  0  0  0
   -0.6351   -0.1058    1.6710 H   0  0  0  0  0  0  0  0  0  0  0  0
   -0.1456    1.3142    2.7318 H   0  0  0  0  0  0  0  0  0  0  0  0
    0.7722    0.8912    1.2089 H   0  0  0  0  0  0  0  0  0  0  0  0
   -1.8398    2.3380    1.6322 H   0  0  0  0  0  0  0  0  0  0  0  0
   -0.5950    2.5424    0.4070 H   0  0  0  0  0  0  0  0  0  0  0  0
   -2.1324   -0.8963   -2.7522 H   0  0  0  0  0  0  0  0  0  0  0  0
   -3.6480    1.6574    2.3622 H   0  0  0  0  0  0  0  0  0  0  0  0
   -6.0750   -2.0437   -0.5256 H   0  0  0  0  0  0  0  0  0  0  0  0
   -6.3334   -2.0579    2.0093 H   0  0  0  0  0  0  0  0  0  0  0  0
   -7.6744   -2.7073    1.0350 H   0  0  0  0  0  0  0  0  0  0  0  0
   -8.7712   -1.4438    2.5666 H   0  0  0  0  0  0  0  0  0  0  0  0
   -7.4588   -0.2599    2.7862 H   0  0  0  0  0  0  0  0  0  0  0  0
   -8.2161    1.0616    1.0386 H   0  0  0  0  0  0  0  0  0  0  0  0
   -9.4717   -0.0909   -0.9904 H   0  0  0  0  0  0  0  0  0  0  0  0
   -8.9120   -1.6255   -0.1720 H   0  0  0  0  0  0  0  0  0  0  0  0
   -7.2669   -0.6801   -1.8656 H   0  0  0  0  0  0  0  0  0  0  0  0
   -7.0836    0.7164   -0.6619 H   0  0  0  0  0  0  0  0  0  0  0  0
  -10.4164   -1.7772    1.4169 H   0  0  0  0  0  0  0  0  0  0  0  0
  -11.2684   -0.9612    2.7391 H   0  0  0  0  0  0  0  0  0  0  0  0
  -13.0726   -0.9579    1.3797 H   0  0  0  0  0  0  0  0  0  0  0  0
  -12.1162   -1.1439   -0.1138 H   0  0  0  0  0  0  0  0  0  0  0  0
  -12.9485    1.4146    1.2248 H   0  0  0  0  0  0  0  0  0  0  0  0
  -12.4635    1.0536   -0.4512 H   0  0  0  0  0  0  0  0  0  0  0  0
  -10.8076    2.2957    1.4887 H   0  0  0  0  0  0  0  0  0  0  0  0
  -10.2874    1.5463   -0.1054 H   0  0  0  0  0  0  0  0  0  0  0  0
   -0.5609    2.7962   -1.7221 H   0  0  0  0  0  0  0  0  0  0  0  0
    3.3646    2.1992   -0.6749 H   0  0  0  0  0  0  0  0  0  0  0  0
    5.1817    0.6819   -0.2006 H   0  0  0  0  0  0  0  0  0  0  0  0
    6.2882   -2.0877   -2.3269 H   0  0  0  0  0  0  0  0  0  0  0  0
    6.9740   -0.2487   -0.2088 H   0  0  0  0  0  0  0  0  0  0  0  0
    8.5785   -2.1718    0.3517 H   0  0  0  0  0  0  0  0  0  0  0  0
    7.6663   -3.1297   -0.8163 H   0  0  0  0  0  0  0  0  0  0  0  0
    8.2704   -1.7413   -2.6166 H   0  0  0  0  0  0  0  0  0  0  0  0
    9.7418   -2.3098   -1.8338 H   0  0  0  0  0  0  0  0  0  0  0  0
    9.7944    0.4770    0.2141 H   0  0  0  0  0  0  0  0  0  0  0  0
   10.9841   -0.7294   -0.3360 H   0  0  0  0  0  0  0  0  0  0  0  0
   10.8865    0.9498   -1.0841 H   0  0  0  0  0  0  0  0  0  0  0  0
    9.6816    1.3189   -2.8628 H   0  0  0  0  0  0  0  0  0  0  0  0
    8.0736    1.3422   -2.0963 H   0  0  0  0  0  0  0  0  0  0  0  0
    8.4629    0.1489   -3.4326 H   0  0  0  0  0  0  0  0  0  0  0  0
    4.8511   -1.4078    0.7373 H   0  0  0  0  0  0  0  0  0  0  0  0
    5.6671   -2.9373    0.4551 H   0  0  0  0  0  0  0  0  0  0  0  0
    4.8532   -0.1774    3.8307 H   0  0  0  0  0  0  0  0  0  0  0  0
    5.1173    2.1194    4.8049 H   0  0  0  0  0  0  0  0  0  0  0  0
    7.1393    3.3809    4.5427 H   0  0  0  0  0  0  0  0  0  0  0  0
    9.0364    2.3848    3.2685 H   0  0  0  0  0  0  0  0  0  0  0  0
    8.7842    0.1170    2.3119 H   0  0  0  0  0  0  0  0  0  0  0  0
    2.5135    0.1872   -4.2803 H   0  0  0  0  0  0  0  0  0  0  0  0
  1  2  1  0
  2  3  1  0
  3  4  2  0
  4  5  1  0
  5  6  2  0
  6  7  1  0
  7  8  1  0
  8  9  1  0
  9 10  2  0
 10 11  1  0
  8 12  1  0
 12 13  1  0
 13 14  1  0
 14 15  1  0
 15 16  1  0
 16 17  1  0
 15 18  1  0
 18 19  1  0
 19 20  1  0
 20 21  1  0
 21 22  1  0
  4 23  1  0
 23 24  2  0
 23 25  1  0
 25 26  1  0
 26 27  2  0
 26 28  2  0
 26 29  1  0
 29 30  2  0
 30 31  1  0
 31 32  2  0
 32 33  1  0
 33 34  1  0
 34 35  1  0
 35 36  1  0
 36 37  1  0
 37 38  1  0
 37 39  1  0
 34 40  1  0
 40 41  1  0
 41 42  1  0
 42 43  2  0
 43 44  1  0
 44 45  2  0
 45 46  1  0
 46 47  2  0
 32 48  1  0
 48 49  2  0
 48 50  1  0
 50 51  1  0
 50 52  2  0
 11  3  1  0
 17 12  1  0
 22 18  1  0
 49 29  1  0
 11  7  2  0
 47 42  1  0
  1 53  1  0
  1 54  1  0
  1 55  1  0
  2 56  1  0
  2 57  1  0
  5 58  1  0
 10 59  1  0
 12 60  1  0
 13 61  1  0
 13 62  1  0
 14 63  1  0
 14 64  1  0
 15 65  1  0
 16 66  1  0
 16 67  1  0
 17 68  1  0
 17 69  1  0
 19 70  1  0
 19 71  1  0
 20 72  1  0
 20 73  1  0
 21 74  1  0
 21 75  1  0
 22 76  1  0
 22 77  1  0
 25 78  1  0
 30 79  1  0
 31 80  1  0
 33 81  1  0
 34 82  1  1
 35 83  1  0
 35 84  1  0
 36 85  1  0
 36 86  1  0
 38 87  1  0
 38 88  1  0
 38 89  1  0
 39 90  1  0
 39 91  1  0
 39 92  1  0
 40 93  1  0
 40 94  1  0
 43 95  1  0
 44 96  1  0
 45 97  1  0
 46 98  1  0
 47 99  1  0
 49100  1  0
M  CHG  2  50   1  51  -1
M  END
$$$$
[H]Oc1c([H])c(-c2c([H])c([H])c3c(c2[H])C([H])(N(C([H])([H])[H])C([H])([H])[H])C([H])([H])C3([H])[H])nc2c([H])c(OC([H])([H])[H])c(-c3oc([H])nc3[H])c([H])c12
     RDKit          3D

 53 57  0  0  0  0  0  0  0  0999 V2000
    5.2258    1.9238   -2.8251 C   0  0  0  0  0  0  0  0  0  0  0  0
    5.6313    1.0553   -1.7884 O   0  0  0  0  0  0  0  0  0  0  0  0
    4.6282    0.4913   -0.9727 C   0  0  0  0  0  0  0  0  0  0  0  0
    3.3065    0.7992   -1.2084 C   0  0  0  0  0  0  0  0  0  0  0  0
    2.2987    0.2555   -0.4183 C   0  0  0  0  0  0  0  0  0  0  0  0
    1.0147    0.5625   -0.6566 N   0  0  0  0  0  0  0  0  0  0  0  0
   -0.0135    0.0704    0.0722 C   0  0  0  0  0  0  0  0  0  0  0  0
    0.2860   -0.7871    1.1070 C   0  0  0  0  0  0  0  0  0  0  0  0
    1.5909   -1.1419    1.4024 C   0  0  0  0  0  0  0  0  0  0  0  0
    1.9220   -2.0069    2.4429 O   0  0  0  0  0  0  0  0  0  0  0  0
    2.5921   -0.6050    0.6209 C   0  0  0  0  0  0  0  0  0  0  0  0
    3.8976   -0.9031    0.8460 C   0  0  0  0  0  0  0  0  0  0  0  0
    4.9241   -0.3644    0.0601 C   0  0  0  0  0  0  0  0  0  0  0  0
    6.2798   -0.7371    0.3763 C   0  0  0  0  0  0  0  0  0  0  0  0
    7.4543   -0.3616   -0.2095 C   0  0  0  0  0  0  0  0  0  0  0  0
    8.4783   -0.9845    0.4497 N   0  0  0  0  0  0  0  0  0  0  0  0
    7.9183   -1.7169    1.4105 C   0  0  0  0  0  0  0  0  0  0  0  0
    6.6255   -1.5587    1.3513 O   0  0  0  0  0  0  0  0  0  0  0  0
   -1.3874    0.4426   -0.2358 C   0  0  0  0  0  0  0  0  0  0  0  0
   -1.5896    1.3081   -1.2936 C   0  0  0  0  0  0  0  0  0  0  0  0
   -2.8598    1.6792   -1.6120 C   0  0  0  0  0  0  0  0  0  0  0  0
   -3.9384    1.1944   -0.8834 C   0  0  0  0  0  0  0  0  0  0  0  0
   -5.3799    1.4735   -1.0687 C   0  0  0  0  0  0  0  0  0  0  0  0
   -6.1075    0.4313   -0.2451 C   0  0  0  0  0  0  0  0  0  0  0  0
   -5.0424   -0.0204    0.7577 C   0  0  0  0  0  0  0  0  0  0  0  0
   -5.2532   -1.3900    1.0545 N   0  0  0  0  0  0  0  0  0  0  0  0
   -5.1259   -2.3022   -0.0272 C   0  0  0  0  0  0  0  0  0  0  0  0
   -4.7756   -1.8486    2.3159 C   0  0  0  0  0  0  0  0  0  0  0  0
   -3.7584    0.3287    0.1772 C   0  0  0  0  0  0  0  0  0  0  0  0
   -2.4553   -0.0294    0.4757 C   0  0  0  0  0  0  0  0  0  0  0  0
    4.5617    1.3815   -3.5493 H   0  0  0  0  0  0  0  0  0  0  0  0
    6.0780    2.3065   -3.4051 H   0  0  0  0  0  0  0  0  0  0  0  0
    4.6013    2.7654   -2.4413 H   0  0  0  0  0  0  0  0  0  0  0  0
    3.0455    1.4697   -2.0140 H   0  0  0  0  0  0  0  0  0  0  0  0
   -0.5030   -1.2107    1.7235 H   0  0  0  0  0  0  0  0  0  0  0  0
    1.2526   -2.4274    3.0421 H   0  0  0  0  0  0  0  0  0  0  0  0
    4.1189   -1.5870    1.6716 H   0  0  0  0  0  0  0  0  0  0  0  0
    7.6598    0.2888   -1.0316 H   0  0  0  0  0  0  0  0  0  0  0  0
    8.4741   -2.3332    2.1111 H   0  0  0  0  0  0  0  0  0  0  0  0
   -0.7638    1.7041   -1.8830 H   0  0  0  0  0  0  0  0  0  0  0  0
   -3.0206    2.3665   -2.4508 H   0  0  0  0  0  0  0  0  0  0  0  0
   -5.6603    2.4894   -0.7080 H   0  0  0  0  0  0  0  0  0  0  0  0
   -5.7110    1.4069   -2.1198 H   0  0  0  0  0  0  0  0  0  0  0  0
   -6.9776    0.8738    0.2426 H   0  0  0  0  0  0  0  0  0  0  0  0
   -6.4462   -0.4299   -0.8621 H   0  0  0  0  0  0  0  0  0  0  0  0
   -5.2818    0.5595    1.6950 H   0  0  0  0  0  0  0  0  0  0  0  0
   -6.0828   -2.8982   -0.0955 H   0  0  0  0  0  0  0  0  0  0  0  0
   -4.3425   -3.0642    0.1984 H   0  0  0  0  0  0  0  0  0  0  0  0
   -4.9466   -1.8558   -1.0088 H   0  0  0  0  0  0  0  0  0  0  0  0
   -4.2758   -1.0326    2.8761 H   0  0  0  0  0  0  0  0  0  0  0  0
   -5.6788   -2.1114    2.9415 H   0  0  0  0  0  0  0  0  0  0  0  0
   -4.1462   -2.7416    2.2803 H   0  0  0  0  0  0  0  0  0  0  0  0
   -2.3420   -0.7077    1.3118 H   0  0  0  0  0  0  0  0  0  0  0  0
  1  2  1  0
  2  3  1  0
  3  4  2  0
  4  5  1  0
  5  6  2  0
  6  7  1  0
  7  8  2  0
  8  9  1  0
  9 10  1  0
  9 11  2  0
 11 12  1  0
 12 13  2  0
 13 14  1  0
 14 15  2  0
 15 16  1  0
 16 17  2  0
 17 18  1  0
  7 19  1  0
 19 20  2  0
 20 21  1  0
 21 22  2  0
 22 23  1  0
 23 24  1  0
 24 25  1  0
 25 26  1  0
 26 27  1  0
 26 28  1  0
 25 29  1  0
 29 30  2  0
 13  3  1  0
 18 14  1  0
 30 19  1  0
 11  5  1  0
 29 22  1  0
  1 31  1  0
  1 32  1  0
  1 33  1  0
  4 34  1  0
  8 35  1  0
 10 36  1  0
 12 37  1  0
 15 38  1  0
 17 39  1  0
 20 40  1  0
 21 41  1  0
 23 42  1  0
 23 43  1  0
 24 44  1  0
 24 45  1  0
 25 46  1  0
 27 47  1  0
 27 48  1  0
 27 49  1  0
 28 50  1  0
 28 51  1  0
 28 52  1  0
 30 53  1  0
M  END
$$$$
[H]ON([H])C(=O)C1([H])N(S(=O)(=O)c2c([H])c([H])c(OC([H])([H])C([H])([H])C([H])([H])C([H])([H])[H])c([H])c2[H])C([H])([H])C([H])([H])S(=O)(=O)C1([H])[H]
     RDKit          3D

 48 49  0  0  0  0  0  0  0  0999 V2000
    7.4658    1.0940   -0.4943 C   0  0  0  0  0  0  0  0  0  0  0  0
    6.0585    0.5477   -0.5702 C   0  0  0  0  0  0  0  0  0  0  0  0
    5.9895   -0.8445    0.0470 C   0  0  0  0  0  0  0  0  0  0  0  0
    4.5596   -1.3327   -0.0605 C   0  0  0  0  0  0  0  0  0  0  0  0
    3.7465   -0.4421    0.6326 O   0  0  0  0  0  0  0  0  0  0  0  0
    2.3750   -0.5385    0.7696 C   0  0  0  0  0  0  0  0  0  0  0  0
    1.6146   -1.5350    0.2369 C   0  0  0  0  0  0  0  0  0  0  0  0
    0.2408   -1.5616    0.4193 C   0  0  0  0  0  0  0  0  0  0  0  0
   -0.4178   -0.5859    1.1448 C   0  0  0  0  0  0  0  0  0  0  0  0
    0.3590    0.4180    1.6800 C   0  0  0  0  0  0  0  0  0  0  0  0
    1.7406    0.4506    1.5003 C   0  0  0  0  0  0  0  0  0  0  0  0
   -2.1434   -0.6075    1.3914 S   0  0  0  0  0  0  0  0  0  0  0  0
   -2.5011    0.0977    2.6967 O   0  0  0  0  0  0  0  0  0  0  0  0
   -2.5873   -2.0297    1.5871 O   0  0  0  0  0  0  0  0  0  0  0  0
   -3.0127    0.1827    0.1156 N   0  0  0  0  0  0  0  0  0  0  0  0
   -2.5931    1.5548    0.0992 C   0  0  0  0  0  0  0  0  0  0  0  0
   -2.7863    2.0326   -1.3522 C   0  0  0  0  0  0  0  0  0  0  0  0
   -4.5855    2.0749   -1.4873 S   0  0  0  0  0  0  0  0  0  0  0  0
   -5.0415    1.4763   -2.7855 O   0  0  0  0  0  0  0  0  0  0  0  0
   -4.9677    3.5268   -1.4956 O   0  0  0  0  0  0  0  0  0  0  0  0
   -5.2600    1.2278   -0.0795 C   0  0  0  0  0  0  0  0  0  0  0  0
   -4.4046    0.0753    0.3667 C   0  0  0  0  0  0  0  0  0  0  0  0
   -4.9910   -1.1528   -0.2342 C   0  0  0  0  0  0  0  0  0  0  0  0
   -6.2092   -1.3617   -0.0189 O   0  0  0  0  0  0  0  0  0  0  0  0
   -4.2829   -2.0860   -1.0190 N   0  0  0  0  0  0  0  0  0  0  0  0
   -4.8831   -3.1759   -1.5286 O   0  0  0  0  0  0  0  0  0  0  0  0
    8.2199    0.3620   -0.8131 H   0  0  0  0  0  0  0  0  0  0  0  0
    7.6877    1.5380    0.5006 H   0  0  0  0  0  0  0  0  0  0  0  0
    7.5184    1.9409   -1.2236 H   0  0  0  0  0  0  0  0  0  0  0  0
    5.7947    0.5002   -1.6556 H   0  0  0  0  0  0  0  0  0  0  0  0
    5.4003    1.2333   -0.0271 H   0  0  0  0  0  0  0  0  0  0  0  0
    6.2404   -0.6998    1.1305 H   0  0  0  0  0  0  0  0  0  0  0  0
    6.7221   -1.5199   -0.3886 H   0  0  0  0  0  0  0  0  0  0  0  0
    4.3322   -1.4098   -1.1404 H   0  0  0  0  0  0  0  0  0  0  0  0
    4.5410   -2.3670    0.3394 H   0  0  0  0  0  0  0  0  0  0  0  0
    2.1317   -2.3109   -0.3391 H   0  0  0  0  0  0  0  0  0  0  0  0
   -0.3304   -2.3545   -0.0095 H   0  0  0  0  0  0  0  0  0  0  0  0
   -0.0945    1.1966    2.2488 H   0  0  0  0  0  0  0  0  0  0  0  0
    2.3120    1.2468    1.9313 H   0  0  0  0  0  0  0  0  0  0  0  0
   -3.3007    2.1966    0.7011 H   0  0  0  0  0  0  0  0  0  0  0  0
   -1.5726    1.7452    0.4407 H   0  0  0  0  0  0  0  0  0  0  0  0
   -2.3444    3.0135   -1.5187 H   0  0  0  0  0  0  0  0  0  0  0  0
   -2.4345    1.2365   -2.0281 H   0  0  0  0  0  0  0  0  0  0  0  0
   -5.3797    1.9775    0.7298 H   0  0  0  0  0  0  0  0  0  0  0  0
   -6.2830    0.9046   -0.3634 H   0  0  0  0  0  0  0  0  0  0  0  0
   -4.5523   -0.0324    1.4781 H   0  0  0  0  0  0  0  0  0  0  0  0
   -3.2774   -1.9323   -1.2127 H   0  0  0  0  0  0  0  0  0  0  0  0
   -4.8136   -3.9703   -0.9293 H   0  0  0  0  0  0  0  0  0  0  0  0
  1  2  1  0
  2  3  1  0
  3  4  1  0
  4  5  1  0
  5  6  1  0
  6  7  2  0
  7  8  1  0
  8  9  2  0
  9 10  1  0
 10 11  2  0
  9 12  1  0
 12 13  2  0
 12 14  2  0
 12 15  1  0
 15 16  1  0
 16 17  1  0
 17 18  1  0
 18 19  2  0
 18 20  2  0
 18 21  1  0
 21 22  1  0
 22 23  1  0
 23 24  2  0
 23 25  1  0
 25 26  1  0
 11  6  1  0
 22 15  1  0
  1 27  1  0
  1 28  1  0
  1 29  1  0
  2 30  1  0
  2 31  1  0
  3 32  1  0
  3 33  1  0
  4 34  1  0
  4 35  1  0
  7 36  1  0
  8 37  1  0
 10 38  1  0
 11 39  1  0
 16 40  1  0
 16 41  1  0
 17 42  1  0
 17 43  1  0
 21 44  1  0
 21 45  1  0
 22 46  1  0
 25 47  1  0
 26 48  1  0
M  END
$$$$
[H]OC([H])(C([H])([H])n1nnc(C(F)(F)F)c1[H])C([H])([H])n1c2nn(C([H])([H])C([H])([H])N(C([H])([H])[H])C([H])([H])[H])c([H])c2c2c([H])c([H])c([H])c([H])c21
     RDKit          3D

 52 55  0  0  0  0  0  0  0  0999 V2000
   -6.2197    2.7183   -1.0481 C   0  0  0  0  0  0  0  0  0  0  0  0
   -5.7511    1.8139    0.0211 N   0  0  0  0  0  0  0  0  0  0  0  0
   -6.7220    0.7143    0.0840 C   0  0  0  0  0  0  0  0  0  0  0  0
   -4.5010    1.1605   -0.4316 C   0  0  0  0  0  0  0  0  0  0  0  0
   -3.9426    0.4756    0.7741 C   0  0  0  0  0  0  0  0  0  0  0  0
   -2.6901   -0.2200    0.4525 N   0  0  0  0  0  0  0  0  0  0  0  0
   -2.5657   -1.5210    0.1080 C   0  0  0  0  0  0  0  0  0  0  0  0
   -1.2212   -1.8082   -0.1584 C   0  0  0  0  0  0  0  0  0  0  0  0
   -0.5726   -0.6157    0.0460 C   0  0  0  0  0  0  0  0  0  0  0  0
   -1.4885    0.2884    0.4045 N   0  0  0  0  0  0  0  0  0  0  0  0
    0.7434   -0.8675   -0.2148 N   0  0  0  0  0  0  0  0  0  0  0  0
    1.7022    0.2065   -0.1726 C   0  0  0  0  0  0  0  0  0  0  0  0
    2.2452    0.4528    1.2150 C   0  0  0  0  0  0  0  0  0  0  0  0
    2.9319   -0.6102    1.7469 O   0  0  0  0  0  0  0  0  0  0  0  0
    2.9219    1.7852    1.2795 C   0  0  0  0  0  0  0  0  0  0  0  0
    4.0341    1.9056    0.3602 N   0  0  0  0  0  0  0  0  0  0  0  0
    5.3212    1.6174    0.6610 C   0  0  0  0  0  0  0  0  0  0  0  0
    6.0636    1.8575   -0.4796 C   0  0  0  0  0  0  0  0  0  0  0  0
    5.1954    2.2739   -1.4064 N   0  0  0  0  0  0  0  0  0  0  0  0
    3.9798    2.3072   -0.9159 N   0  0  0  0  0  0  0  0  0  0  0  0
    7.5519    1.6987   -0.6566 C   0  0  0  0  0  0  0  0  0  0  0  0
    8.0062    0.5134   -0.1105 F   0  0  0  0  0  0  0  0  0  0  0  0
    8.1026    2.8090   -0.0390 F   0  0  0  0  0  0  0  0  0  0  0  0
    7.7970    1.6730   -2.0136 F   0  0  0  0  0  0  0  0  0  0  0  0
    0.9367   -2.1553   -0.5638 C   0  0  0  0  0  0  0  0  0  0  0  0
    2.0644   -2.8845   -0.9220 C   0  0  0  0  0  0  0  0  0  0  0  0
    1.9959   -4.2083   -1.2484 C   0  0  0  0  0  0  0  0  0  0  0  0
    0.7421   -4.8246   -1.2151 C   0  0  0  0  0  0  0  0  0  0  0  0
   -0.3572   -4.0948   -0.8629 C   0  0  0  0  0  0  0  0  0  0  0  0
   -0.3068   -2.7580   -0.5307 C   0  0  0  0  0  0  0  0  0  0  0  0
   -5.3654    3.0103   -1.6765 H   0  0  0  0  0  0  0  0  0  0  0  0
   -6.5682    3.6379   -0.4775 H   0  0  0  0  0  0  0  0  0  0  0  0
   -7.0852    2.2992   -1.5675 H   0  0  0  0  0  0  0  0  0  0  0  0
   -6.4300   -0.1569   -0.5040 H   0  0  0  0  0  0  0  0  0  0  0  0
   -7.7061    1.0384   -0.3083 H   0  0  0  0  0  0  0  0  0  0  0  0
   -6.8528    0.3951    1.1415 H   0  0  0  0  0  0  0  0  0  0  0  0
   -3.8396    1.8849   -0.9218 H   0  0  0  0  0  0  0  0  0  0  0  0
   -4.8328    0.4382   -1.2004 H   0  0  0  0  0  0  0  0  0  0  0  0
   -4.7000   -0.1664    1.2029 H   0  0  0  0  0  0  0  0  0  0  0  0
   -3.6529    1.2043    1.5682 H   0  0  0  0  0  0  0  0  0  0  0  0
   -3.3412   -2.2729    0.0370 H   0  0  0  0  0  0  0  0  0  0  0  0
    2.5947   -0.1429   -0.7747 H   0  0  0  0  0  0  0  0  0  0  0  0
    1.3237    1.1395   -0.6374 H   0  0  0  0  0  0  0  0  0  0  0  0
    1.3323    0.5730    1.9231 H   0  0  0  0  0  0  0  0  0  0  0  0
    2.6994   -0.8019    2.6878 H   0  0  0  0  0  0  0  0  0  0  0  0
    2.1605    2.5492    0.9435 H   0  0  0  0  0  0  0  0  0  0  0  0
    3.3133    2.0305    2.2838 H   0  0  0  0  0  0  0  0  0  0  0  0
    5.7070    1.2702    1.6023 H   0  0  0  0  0  0  0  0  0  0  0  0
    3.0278   -2.3846   -0.9332 H   0  0  0  0  0  0  0  0  0  0  0  0
    2.8810   -4.8116   -1.5328 H   0  0  0  0  0  0  0  0  0  0  0  0
    0.6914   -5.8656   -1.4801 H   0  0  0  0  0  0  0  0  0  0  0  0
   -1.3540   -4.5708   -0.8343 H   0  0  0  0  0  0  0  0  0  0  0  0
  1  2  1  0
  2  3  1  0
  2  4  1  0
  4  5  1  0
  5  6  1  0
  6  7  1  0
  7  8  2  0
  8  9  1  0
  9 10  2  0
  9 11  1  0
 11 12  1  0
 12 13  1  0
 13 14  1  0
 13 15  1  0
 15 16  1  0
 16 17  1  0
 17 18  2  0
 18 19  1  0
 19 20  2  0
 18 21  1  0
 21 22  1  0
 21 23  1  0
 21 24  1  0
 11 25  1  0
 25 26  2  0
 26 27  1  0
 27 28  2  0
 28 29  1  0
 29 30  2  0
 10  6  1  0
 20 16  1  0
 30 25  1  0
 30  8  1  0
  1 31  1  0
  1 32  1  0
  1 33  1  0
  3 34  1  0
  3 35  1  0
  3 36  1  0
  4 37  1  0
  4 38  1  0
  5 39  1  0
  5 40  1  0
  7 41  1  0
 12 42  1  0
 12 43  1  0
 13 44  1  0
 14 45  1  0
 15 46  1  0
 15 47  1  0
 17 48  1  0
 26 49  1  0
 27 50  1  0
 28 51  1  0
 29 52  1  0
M  END
$$$$
[H]c1nc([H])n(C([H])([H])c2c([H])c([H])c3c(-c4c([H])c([H])c(F)c([H])c4[H])c([H])c(C(=O)N([H])[H])nc3c2[H])c1[H]
     RDKit          3D

 41 44  0  0  0  0  0  0  0  0999 V2000
   -1.0024   -5.1229    0.3918 N   0  0  0  0  0  0  0  0  0  0  0  0
   -1.8634   -4.0143    0.4763 C   0  0  0  0  0  0  0  0  0  0  0  0
   -3.0537   -4.1752    0.8282 O   0  0  0  0  0  0  0  0  0  0  0  0
   -1.4034   -2.6685    0.1621 C   0  0  0  0  0  0  0  0  0  0  0  0
   -2.2673   -1.5988    0.2528 C   0  0  0  0  0  0  0  0  0  0  0  0
   -1.8612   -0.2907   -0.0410 C   0  0  0  0  0  0  0  0  0  0  0  0
   -2.7884    0.8198    0.1054 C   0  0  0  0  0  0  0  0  0  0  0  0
   -2.5907    1.9178    0.9115 C   0  0  0  0  0  0  0  0  0  0  0  0
   -3.4797    2.9594    1.0351 C   0  0  0  0  0  0  0  0  0  0  0  0
   -4.6598    2.9442    0.3229 C   0  0  0  0  0  0  0  0  0  0  0  0
   -5.5637    3.9681    0.4266 F   0  0  0  0  0  0  0  0  0  0  0  0
   -4.8941    1.8628   -0.4944 C   0  0  0  0  0  0  0  0  0  0  0  0
   -3.9979    0.8314   -0.6074 C   0  0  0  0  0  0  0  0  0  0  0  0
   -0.5516   -0.1286   -0.4276 C   0  0  0  0  0  0  0  0  0  0  0  0
   -0.0386    1.0899   -0.7535 C   0  0  0  0  0  0  0  0  0  0  0  0
    1.2682    1.2710   -1.1522 C   0  0  0  0  0  0  0  0  0  0  0  0
    2.1373    0.2088   -1.2435 C   0  0  0  0  0  0  0  0  0  0  0  0
    3.5315    0.4351   -1.6730 C   0  0  0  0  0  0  0  0  0  0  0  0
    4.3276    0.6974   -0.4772 N   0  0  0  0  0  0  0  0  0  0  0  0
    4.9680   -0.1788    0.2843 C   0  0  0  0  0  0  0  0  0  0  0  0
    5.5850    0.5085    1.3022 C   0  0  0  0  0  0  0  0  0  0  0  0
    5.2849    1.8002    1.1089 N   0  0  0  0  0  0  0  0  0  0  0  0
    4.5148    1.9270    0.0212 C   0  0  0  0  0  0  0  0  0  0  0  0
    1.6286   -1.0219   -0.9185 C   0  0  0  0  0  0  0  0  0  0  0  0
    0.3177   -1.2163   -0.5169 C   0  0  0  0  0  0  0  0  0  0  0  0
   -0.1373   -2.4318   -0.2214 N   0  0  0  0  0  0  0  0  0  0  0  0
   -0.7098   -5.6072    1.2546 H   0  0  0  0  0  0  0  0  0  0  0  0
   -0.6630   -5.4532   -0.5246 H   0  0  0  0  0  0  0  0  0  0  0  0
   -3.2937   -1.7180    0.5534 H   0  0  0  0  0  0  0  0  0  0  0  0
   -1.6412    1.9092    1.4734 H   0  0  0  0  0  0  0  0  0  0  0  0
   -3.2625    3.7963    1.6890 H   0  0  0  0  0  0  0  0  0  0  0  0
   -5.8341    1.8590   -1.0565 H   0  0  0  0  0  0  0  0  0  0  0  0
   -4.1866   -0.0256   -1.2570 H   0  0  0  0  0  0  0  0  0  0  0  0
   -0.6767    1.9576   -0.7157 H   0  0  0  0  0  0  0  0  0  0  0  0
    1.6625    2.2590   -1.4098 H   0  0  0  0  0  0  0  0  0  0  0  0
    3.6157    1.3036   -2.3344 H   0  0  0  0  0  0  0  0  0  0  0  0
    3.9790   -0.4567   -2.1654 H   0  0  0  0  0  0  0  0  0  0  0  0
    4.9883   -1.2705    0.1109 H   0  0  0  0  0  0  0  0  0  0  0  0
    6.1891    0.0531    2.0894 H   0  0  0  0  0  0  0  0  0  0  0  0
    4.1112    2.8711   -0.3858 H   0  0  0  0  0  0  0  0  0  0  0  0
    2.3116   -1.8712   -0.9884 H   0  0  0  0  0  0  0  0  0  0  0  0
  1  2  1  0
  2  3  2  0
  2  4  1  0
  4  5  2  0
  5  6  1  0
  6  7  1  0
  7  8  2  0
  8  9  1  0
  9 10  2  0
 10 11  1  0
 10 12  1  0
 12 13  2  0
  6 14  2  0
 14 15  1  0
 15 16  2  0
 16 17  1  0
 17 18  1  0
 18 19  1  0
 19 20  1  0
 20 21  2  0
 21 22  1  0
 22 23  2  0
 17 24  2  0
 24 25  1  0
 25 26  2  0
 26  4  1  0
 13  7  1  0
 25 14  1  0
 23 19  1  0
  1 27  1  0
  1 28  1  0
  5 29  1  0
  8 30  1  0
  9 31  1  0
 12 32  1  0
 13 33  1  0
 15 34  1  0
 16 35  1  0
 18 36  1  0
 18 37  1  0
 20 38  1  0
 21 39  1  0
 23 40  1  0
 24 41  1  0
M  END
$$$$
[H]c1c([H])c([H])c(-c2c([H])c([H])c3nc(N([H])[H])oc3c2[H])c(C(=O)N2C([H])([H])C([H])([H])C([H])([H])C([H])([H])C2([H])[H])c1[H]
     RDKit          3D

 43 46  0  0  0  0  0  0  0  0999 V2000
    6.4494    1.5834    2.4697 N   0  0  0  0  0  0  0  0  0  0  0  0
    5.1924    1.3570    1.8171 C   0  0  0  0  0  0  0  0  0  0  0  0
    4.1252    2.1649    1.8441 N   0  0  0  0  0  0  0  0  0  0  0  0
    3.1716    1.5777    1.1075 C   0  0  0  0  0  0  0  0  0  0  0  0
    1.8856    1.9331    0.7800 C   0  0  0  0  0  0  0  0  0  0  0  0
    1.1217    1.0973   -0.0228 C   0  0  0  0  0  0  0  0  0  0  0  0
    1.5702   -0.0857   -0.5230 C   0  0  0  0  0  0  0  0  0  0  0  0
    2.8916   -0.4200   -0.1693 C   0  0  0  0  0  0  0  0  0  0  0  0
    3.6736    0.3847    0.6224 C   0  0  0  0  0  0  0  0  0  0  0  0
    4.8956    0.3188    1.0907 O   0  0  0  0  0  0  0  0  0  0  0  0
    0.8598   -1.0331   -1.3378 C   0  0  0  0  0  0  0  0  0  0  0  0
    1.3841   -1.4146   -2.5898 C   0  0  0  0  0  0  0  0  0  0  0  0
    0.7695   -2.3306   -3.4003 C   0  0  0  0  0  0  0  0  0  0  0  0
   -0.4114   -2.9165   -2.9952 C   0  0  0  0  0  0  0  0  0  0  0  0
   -0.9374   -2.5600   -1.7842 C   0  0  0  0  0  0  0  0  0  0  0  0
   -0.3009   -1.6161   -0.9540 C   0  0  0  0  0  0  0  0  0  0  0  0
   -0.9743   -1.3102    0.2766 C   0  0  0  0  0  0  0  0  0  0  0  0
   -0.5441   -1.8849    1.3350 O   0  0  0  0  0  0  0  0  0  0  0  0
   -2.0720   -0.4353    0.4139 N   0  0  0  0  0  0  0  0  0  0  0  0
   -2.6136    0.2178   -0.7367 C   0  0  0  0  0  0  0  0  0  0  0  0
   -3.3825    1.4730   -0.4024 C   0  0  0  0  0  0  0  0  0  0  0  0
   -4.3088    1.3099    0.7591 C   0  0  0  0  0  0  0  0  0  0  0  0
   -4.1274    0.0362    1.5195 C   0  0  0  0  0  0  0  0  0  0  0  0
   -2.6437   -0.2002    1.7007 C   0  0  0  0  0  0  0  0  0  0  0  0
    7.3059    1.5969    1.8900 H   0  0  0  0  0  0  0  0  0  0  0  0
    6.4381    1.7227    3.4931 H   0  0  0  0  0  0  0  0  0  0  0  0
    1.5031    2.8684    1.1647 H   0  0  0  0  0  0  0  0  0  0  0  0
    0.1467    1.4244   -0.2618 H   0  0  0  0  0  0  0  0  0  0  0  0
    3.3081   -1.3514   -0.5377 H   0  0  0  0  0  0  0  0  0  0  0  0
    2.3033   -0.9567   -2.9021 H   0  0  0  0  0  0  0  0  0  0  0  0
    1.1607   -2.6340   -4.3658 H   0  0  0  0  0  0  0  0  0  0  0  0
   -0.8928   -3.6499   -3.6556 H   0  0  0  0  0  0  0  0  0  0  0  0
   -1.8664   -3.0304   -1.4813 H   0  0  0  0  0  0  0  0  0  0  0  0
   -3.2470   -0.4663   -1.3589 H   0  0  0  0  0  0  0  0  0  0  0  0
   -1.7659    0.5139   -1.3901 H   0  0  0  0  0  0  0  0  0  0  0  0
   -2.6814    2.3057   -0.1750 H   0  0  0  0  0  0  0  0  0  0  0  0
   -3.9360    1.7672   -1.3187 H   0  0  0  0  0  0  0  0  0  0  0  0
   -4.1904    2.1587    1.4937 H   0  0  0  0  0  0  0  0  0  0  0  0
   -5.3745    1.3631    0.4257 H   0  0  0  0  0  0  0  0  0  0  0  0
   -4.5545    0.1792    2.5507 H   0  0  0  0  0  0  0  0  0  0  0  0
   -4.6566   -0.8197    1.0905 H   0  0  0  0  0  0  0  0  0  0  0  0
   -2.4534   -0.9979    2.4308 H   0  0  0  0  0  0  0  0  0  0  0  0
   -2.2211    0.7595    2.0868 H   0  0  0  0  0  0  0  0  0  0  0  0
  1  2  1  0
  2  3  2  0
  3  4  1  0
  4  5  2  0
  5  6  1  0
  6  7  2  0
  7  8  1  0
  8  9  2  0
  9 10  1  0
  7 11  1  0
 11 12  2  0
 12 13  1  0
 13 14  2  0
 14 15  1  0
 15 16  2  0
 16 17  1  0
 17 18  2  0
 17 19  1  0
 19 20  1  0
 20 21  1  0
 21 22  1  0
 22 23  1  0
 23 24  1  0
 10  2  1  0
 16 11  1  0
 24 19  1  0
  9  4  1  0
  1 25  1  0
  1 26  1  0
  5 27  1  0
  6 28  1  0
  8 29  1  0
 12 30  1  0
 13 31  1  0
 14 32  1  0
 15 33  1  0
 20 34  1  0
 20 35  1  0
 21 36  1  0
 21 37  1  0
 22 38  1  0
 22 39  1  0
 23 40  1  0
 23 41  1  0
 24 42  1  0
 24 43  1  0
M  END
$$$$
[H]c1nc(C([H])([H])[H])oc1-c1c([H])c(F)c([H])c(C(=O)N2C([H])([H])C([H])([H])C([H])(N([H])C(=O)N([H])c3c([H])c([H])c([H])c(Cl)c3[H])C([H])([H])C2([H])[H])c1[H]
     RDKit          3D

 54 57  0  0  0  0  0  0  0  0999 V2000
   -9.3716    2.1463   -0.0487 C   0  0  0  0  0  0  0  0  0  0  0  0
   -8.0706    1.4481   -0.3510 C   0  0  0  0  0  0  0  0  0  0  0  0
   -7.7093    0.8878   -1.5179 N   0  0  0  0  0  0  0  0  0  0  0  0
   -6.4758    0.3705   -1.3774 C   0  0  0  0  0  0  0  0  0  0  0  0
   -6.0753    0.6260   -0.0803 C   0  0  0  0  0  0  0  0  0  0  0  0
   -7.0674    1.2661    0.4686 O   0  0  0  0  0  0  0  0  0  0  0  0
   -4.7943    0.2388    0.5091 C   0  0  0  0  0  0  0  0  0  0  0  0
   -4.4837    0.5372    1.8126 C   0  0  0  0  0  0  0  0  0  0  0  0
   -3.2856    0.1795    2.3769 C   0  0  0  0  0  0  0  0  0  0  0  0
   -2.9643    0.4688    3.6682 F   0  0  0  0  0  0  0  0  0  0  0  0
   -2.3226   -0.5121    1.6352 C   0  0  0  0  0  0  0  0  0  0  0  0
   -2.6042   -0.8235    0.3326 C   0  0  0  0  0  0  0  0  0  0  0  0
   -3.8542   -0.4375   -0.2184 C   0  0  0  0  0  0  0  0  0  0  0  0
   -1.7045   -1.5304   -0.5351 C   0  0  0  0  0  0  0  0  0  0  0  0
   -2.1489   -1.7333   -1.7571 O   0  0  0  0  0  0  0  0  0  0  0  0
   -0.4401   -2.0467   -0.3282 N   0  0  0  0  0  0  0  0  0  0  0  0
    0.2131   -2.7358   -1.4904 C   0  0  0  0  0  0  0  0  0  0  0  0
    1.5423   -2.0759   -1.7871 C   0  0  0  0  0  0  0  0  0  0  0  0
    2.4671   -2.1206   -0.6038 C   0  0  0  0  0  0  0  0  0  0  0  0
    1.7297   -2.7522    0.5545 C   0  0  0  0  0  0  0  0  0  0  0  0
    0.4010   -2.0495    0.8413 C   0  0  0  0  0  0  0  0  0  0  0  0
    2.8149   -0.7727   -0.2264 N   0  0  0  0  0  0  0  0  0  0  0  0
    4.1855   -0.3247   -0.1324 C   0  0  0  0  0  0  0  0  0  0  0  0
    5.0391   -1.1772   -0.3979 O   0  0  0  0  0  0  0  0  0  0  0  0
    4.4998    0.9866    0.2353 N   0  0  0  0  0  0  0  0  0  0  0  0
    5.7425    1.6043    0.3867 C   0  0  0  0  0  0  0  0  0  0  0  0
    6.9257    0.9128    0.3300 C   0  0  0  0  0  0  0  0  0  0  0  0
    8.1474    1.5907    0.4771 C   0  0  0  0  0  0  0  0  0  0  0  0
    8.2166    2.9465    0.6805 C   0  0  0  0  0  0  0  0  0  0  0  0
    7.0396    3.6418    0.7384 C   0  0  0  0  0  0  0  0  0  0  0  0
    7.1310    5.3732    0.9980 Cl  0  0  0  0  0  0  0  0  0  0  0  0
    5.8496    2.9812    0.5949 C   0  0  0  0  0  0  0  0  0  0  0  0
   -9.3876    3.0757   -0.6428 H   0  0  0  0  0  0  0  0  0  0  0  0
  -10.2308    1.4810   -0.2721 H   0  0  0  0  0  0  0  0  0  0  0  0
   -9.3452    2.4449    1.0189 H   0  0  0  0  0  0  0  0  0  0  0  0
   -5.9399   -0.1428   -2.1689 H   0  0  0  0  0  0  0  0  0  0  0  0
   -5.2252    1.0717    2.3898 H   0  0  0  0  0  0  0  0  0  0  0  0
   -1.3940   -0.7805    2.0966 H   0  0  0  0  0  0  0  0  0  0  0  0
   -4.1122   -0.6686   -1.2514 H   0  0  0  0  0  0  0  0  0  0  0  0
    0.3368   -3.8052   -1.2374 H   0  0  0  0  0  0  0  0  0  0  0  0
   -0.4634   -2.6270   -2.3399 H   0  0  0  0  0  0  0  0  0  0  0  0
    1.3561   -1.0398   -2.0770 H   0  0  0  0  0  0  0  0  0  0  0  0
    1.9820   -2.5975   -2.6448 H   0  0  0  0  0  0  0  0  0  0  0  0
    3.3661   -2.7348   -0.8085 H   0  0  0  0  0  0  0  0  0  0  0  0
    1.5602   -3.8258    0.3837 H   0  0  0  0  0  0  0  0  0  0  0  0
    2.4027   -2.6756    1.4332 H   0  0  0  0  0  0  0  0  0  0  0  0
   -0.0602   -2.5972    1.6856 H   0  0  0  0  0  0  0  0  0  0  0  0
    0.6961   -1.0471    1.2006 H   0  0  0  0  0  0  0  0  0  0  0  0
    2.0312   -0.1105   -0.0178 H   0  0  0  0  0  0  0  0  0  0  0  0
    3.6566    1.6344    0.4393 H   0  0  0  0  0  0  0  0  0  0  0  0
    6.9928   -0.1574    0.1802 H   0  0  0  0  0  0  0  0  0  0  0  0
    9.0707    1.0194    0.4279 H   0  0  0  0  0  0  0  0  0  0  0  0
    9.1915    3.4103    0.7864 H   0  0  0  0  0  0  0  0  0  0  0  0
    4.9428    3.5586    0.6455 H   0  0  0  0  0  0  0  0  0  0  0  0
  1  2  1  0
  2  3  2  0
  3  4  1  0
  4  5  2  0
  5  6  1  0
  5  7  1  0
  7  8  2  0
  8  9  1  0
  9 10  1  0
  9 11  2  0
 11 12  1  0
 12 13  2  0
 12 14  1  0
 14 15  2  0
 14 16  1  0
 16 17  1  0
 17 18  1  0
 18 19  1  0
 19 20  1  0
 20 21  1  0
 19 22  1  0
 22 23  1  0
 23 24  2  0
 23 25  1  0
 25 26  1  0
 26 27  2  0
 27 28  1  0
 28 29  2  0
 29 30  1  0
 30 31  1  0
 30 32  2  0
  6  2  1  0
 13  7  1  0
 21 16  1  0
 32 26  1  0
  1 33  1  0
  1 34  1  0
  1 35  1  0
  4 36  1  0
  8 37  1  0
 11 38  1  0
 13 39  1  0
 17 40  1  0
 17 41  1  0
 18 42  1  0
 18 43  1  0
 19 44  1  0
 20 45  1  0
 20 46  1  0
 21 47  1  0
 21 48  1  0
 22 49  1  0
 25 50  1  0
 27 51  1  0
 28 52  1  0
 29 53  1  0
 32 54  1  0
M  END
$$$$
[H]c1c(C(=O)C([H])([H])[H])c([H])c2sc(S(=O)(=O)C([H])([H])[H])c(N(C(=O)C3(C([H])([H])[H])C([H])([H])C3(Cl)Cl)C([H])([H])[H])c2c1[H]
     RDKit          3D

 43 45  0  0  0  0  0  0  0  0999 V2000
    6.3057   -1.0867    0.3021 C   0  0  0  0  0  0  0  0  0  0  0  0
    5.0984   -1.6952   -0.3118 C   0  0  0  0  0  0  0  0  0  0  0  0
    5.2291   -2.7652   -0.9402 O   0  0  0  0  0  0  0  0  0  0  0  0
    3.7817   -1.1143   -0.2197 C   0  0  0  0  0  0  0  0  0  0  0  0
    2.6557   -1.6584   -0.7758 C   0  0  0  0  0  0  0  0  0  0  0  0
    1.4181   -1.0754   -0.6649 C   0  0  0  0  0  0  0  0  0  0  0  0
    1.2271    0.1363    0.0383 C   0  0  0  0  0  0  0  0  0  0  0  0
    0.0735    0.8333    0.2387 C   0  0  0  0  0  0  0  0  0  0  0  0
   -1.2169    0.3601   -0.3031 N   0  0  0  0  0  0  0  0  0  0  0  0
   -1.7559    1.1648   -1.3440 C   0  0  0  0  0  0  0  0  0  0  0  0
   -1.7719   -0.8092    0.2393 C   0  0  0  0  0  0  0  0  0  0  0  0
   -1.1030   -1.3776    1.1879 O   0  0  0  0  0  0  0  0  0  0  0  0
   -3.0101   -1.4664   -0.1326 C   0  0  0  0  0  0  0  0  0  0  0  0
   -3.9182   -0.9631   -1.2284 C   0  0  0  0  0  0  0  0  0  0  0  0
   -3.0841   -2.9968   -0.0183 C   0  0  0  0  0  0  0  0  0  0  0  0
   -3.7377   -2.1877    1.0098 C   0  0  0  0  0  0  0  0  0  0  0  0
   -3.0258   -2.2239    2.6158 Cl  0  0  0  0  0  0  0  0  0  0  0  0
   -5.5164   -1.9975    1.0060 Cl  0  0  0  0  0  0  0  0  0  0  0  0
    0.1609    1.9820    0.9610 C   0  0  0  0  0  0  0  0  0  0  0  0
   -1.0892    3.1238    1.4219 S   0  0  0  0  0  0  0  0  0  0  0  0
   -1.2885    4.3884    0.2105 C   0  0  0  0  0  0  0  0  0  0  0  0
   -2.3763    2.4841    1.7703 O   0  0  0  0  0  0  0  0  0  0  0  0
   -0.6027    3.8027    2.6995 O   0  0  0  0  0  0  0  0  0  0  0  0
    1.8146    2.0843    1.3497 S   0  0  0  0  0  0  0  0  0  0  0  0
    2.3644    0.6646    0.5869 C   0  0  0  0  0  0  0  0  0  0  0  0
    3.6285    0.0673    0.4725 C   0  0  0  0  0  0  0  0  0  0  0  0
    6.3722    0.0112    0.1030 H   0  0  0  0  0  0  0  0  0  0  0  0
    6.3468   -1.2330    1.3943 H   0  0  0  0  0  0  0  0  0  0  0  0
    7.2256   -1.5377   -0.1192 H   0  0  0  0  0  0  0  0  0  0  0  0
    2.7844   -2.6049   -1.3283 H   0  0  0  0  0  0  0  0  0  0  0  0
    0.6071   -1.5986   -1.1464 H   0  0  0  0  0  0  0  0  0  0  0  0
   -2.0384    0.6198   -2.2621 H   0  0  0  0  0  0  0  0  0  0  0  0
   -2.5985    1.8224   -1.0293 H   0  0  0  0  0  0  0  0  0  0  0  0
   -0.9855    1.9141   -1.7152 H   0  0  0  0  0  0  0  0  0  0  0  0
   -4.1689    0.0820   -1.0452 H   0  0  0  0  0  0  0  0  0  0  0  0
   -4.9085   -1.5239   -1.1605 H   0  0  0  0  0  0  0  0  0  0  0  0
   -3.5432   -1.1773   -2.2361 H   0  0  0  0  0  0  0  0  0  0  0  0
   -3.7086   -3.5691   -0.7038 H   0  0  0  0  0  0  0  0  0  0  0  0
   -2.1075   -3.4786    0.1966 H   0  0  0  0  0  0  0  0  0  0  0  0
   -0.3545    4.4655   -0.3614 H   0  0  0  0  0  0  0  0  0  0  0  0
   -2.1753    4.1664   -0.4005 H   0  0  0  0  0  0  0  0  0  0  0  0
   -1.4454    5.3799    0.6916 H   0  0  0  0  0  0  0  0  0  0  0  0
    4.4371    0.5873    0.9510 H   0  0  0  0  0  0  0  0  0  0  0  0
  1  2  1  0
  2  3  2  0
  2  4  1  0
  4  5  2  0
  5  6  1  0
  6  7  2  0
  7  8  1  0
  8  9  1  0
  9 10  1  0
  9 11  1  0
 11 12  2  0
 11 13  1  0
 13 14  1  0
 13 15  1  0
 15 16  1  0
 16 17  1  0
 16 18  1  0
  8 19  2  0
 19 20  1  0
 20 21  1  0
 20 22  2  0
 20 23  2  0
 19 24  1  0
 24 25  1  0
 25 26  2  0
 26  4  1  0
 25  7  1  0
 16 13  1  0
  1 27  1  0
  1 28  1  0
  1 29  1  0
  5 30  1  0
  6 31  1  0
 10 32  1  0
 10 33  1  0
 10 34  1  0
 14 35  1  0
 14 36  1  0
 14 37  1  0
 15 38  1  0
 15 39  1  0
 21 40  1  0
 21 41  1  0
 21 42  1  0
 26 43  1  0
M  END
$$$$
[H]c1c([H])c([H])c(C([H])([H])c2c([H])c([H])c([H])c([H])c2C(=O)N([H])[C@@]2([H])C([H])([H])N3C([H])([H])C([H])([H])N(c4c([H])c([H])c([H])c([H])c4OC([H])([H])[H])C([H])([H])C3([H])C2([H])[H])c([H])c1[H]
     RDKit          3D

 64 68  0  0  0  0  0  0  0  0999 V2000
    5.2986   -0.9051   -2.8107 C   0  0  0  0  0  0  0  0  0  0  0  0
    5.4826    0.1563   -2.1048 O   0  0  0  0  0  0  0  0  0  0  0  0
    5.6694    1.2127   -1.4070 C   0  0  0  0  0  0  0  0  0  0  0  0
    6.6218    2.1624   -1.8304 C   0  0  0  0  0  0  0  0  0  0  0  0
    6.8459    3.2908   -1.1129 C   0  0  0  0  0  0  0  0  0  0  0  0
    6.1519    3.5339    0.0377 C   0  0  0  0  0  0  0  0  0  0  0  0
    5.2043    2.5976    0.4653 C   0  0  0  0  0  0  0  0  0  0  0  0
    4.9518    1.4478   -0.2340 C   0  0  0  0  0  0  0  0  0  0  0  0
    3.9997    0.4783    0.1596 N   0  0  0  0  0  0  0  0  0  0  0  0
    4.2304   -0.7965    0.7250 C   0  0  0  0  0  0  0  0  0  0  0  0
    3.3107   -1.1162    1.8412 C   0  0  0  0  0  0  0  0  0  0  0  0
    1.9944   -0.6434    1.7492 N   0  0  0  0  0  0  0  0  0  0  0  0
    0.9765   -1.5395    1.3552 C   0  0  0  0  0  0  0  0  0  0  0  0
   -0.2802   -0.6633    1.3810 C   0  0  1  0  0  0  0  0  0  0  0  0
    0.3138    0.6183    0.7729 C   0  0  0  0  0  0  0  0  0  0  0  0
    1.7684    0.6156    1.1639 C   0  0  0  0  0  0  0  0  0  0  0  0
    2.6131    0.8289   -0.0664 C   0  0  0  0  0  0  0  0  0  0  0  0
   -1.3251   -1.1758    0.5562 N   0  0  0  0  0  0  0  0  0  0  0  0
   -2.5788   -1.5533    1.1416 C   0  0  0  0  0  0  0  0  0  0  0  0
   -2.7288   -1.4400    2.3625 O   0  0  0  0  0  0  0  0  0  0  0  0
   -3.6031   -2.0622    0.2081 C   0  0  0  0  0  0  0  0  0  0  0  0
   -4.0300   -3.3904    0.3825 C   0  0  0  0  0  0  0  0  0  0  0  0
   -4.8629   -3.9314   -0.5480 C   0  0  0  0  0  0  0  0  0  0  0  0
   -5.2879   -3.2007   -1.6520 C   0  0  0  0  0  0  0  0  0  0  0  0
   -4.8816   -1.9186   -1.8235 C   0  0  0  0  0  0  0  0  0  0  0  0
   -4.0200   -1.3439   -0.8597 C   0  0  0  0  0  0  0  0  0  0  0  0
   -3.7249    0.1097   -0.9823 C   0  0  0  0  0  0  0  0  0  0  0  0
   -4.8153    0.8462   -0.2660 C   0  0  0  0  0  0  0  0  0  0  0  0
   -5.8221    0.2196    0.4193 C   0  0  0  0  0  0  0  0  0  0  0  0
   -6.8359    0.9431    1.0425 C   0  0  0  0  0  0  0  0  0  0  0  0
   -6.8745    2.3106    0.9997 C   0  0  0  0  0  0  0  0  0  0  0  0
   -5.8653    2.9419    0.3152 C   0  0  0  0  0  0  0  0  0  0  0  0
   -4.8348    2.2393   -0.3199 C   0  0  0  0  0  0  0  0  0  0  0  0
    5.7765   -1.8821   -2.4295 H   0  0  0  0  0  0  0  0  0  0  0  0
    5.5357   -0.8611   -3.9213 H   0  0  0  0  0  0  0  0  0  0  0  0
    4.1955   -1.2616   -2.8618 H   0  0  0  0  0  0  0  0  0  0  0  0
    7.1831    1.9756   -2.7407 H   0  0  0  0  0  0  0  0  0  0  0  0
    7.5850    4.0379   -1.4327 H   0  0  0  0  0  0  0  0  0  0  0  0
    6.3412    4.4356    0.5928 H   0  0  0  0  0  0  0  0  0  0  0  0
    4.6800    2.8385    1.3760 H   0  0  0  0  0  0  0  0  0  0  0  0
    5.2974   -0.9759    1.0211 H   0  0  0  0  0  0  0  0  0  0  0  0
    4.0572   -1.5661   -0.0685 H   0  0  0  0  0  0  0  0  0  0  0  0
    3.2458   -2.2527    1.8821 H   0  0  0  0  0  0  0  0  0  0  0  0
    3.7743   -0.7481    2.7886 H   0  0  0  0  0  0  0  0  0  0  0  0
    0.8692   -2.3784    2.0819 H   0  0  0  0  0  0  0  0  0  0  0  0
    1.0578   -1.8994    0.3064 H   0  0  0  0  0  0  0  0  0  0  0  0
   -0.5426   -0.5254    2.4338 H   0  0  0  0  0  0  0  0  0  0  0  0
   -0.2761    1.4553    1.1603 H   0  0  0  0  0  0  0  0  0  0  0  0
    0.1978    0.5910   -0.3343 H   0  0  0  0  0  0  0  0  0  0  0  0
    1.8948    1.3938    1.9231 H   0  0  0  0  0  0  0  0  0  0  0  0
    2.2275    0.0840   -0.8251 H   0  0  0  0  0  0  0  0  0  0  0  0
    2.4533    1.8243   -0.5079 H   0  0  0  0  0  0  0  0  0  0  0  0
   -1.1332   -1.2736   -0.4775 H   0  0  0  0  0  0  0  0  0  0  0  0
   -3.6731   -3.9138    1.2598 H   0  0  0  0  0  0  0  0  0  0  0  0
   -5.1979   -4.9491   -0.4219 H   0  0  0  0  0  0  0  0  0  0  0  0
   -5.9468   -3.6353   -2.4004 H   0  0  0  0  0  0  0  0  0  0  0  0
   -5.1610   -1.3025   -2.6489 H   0  0  0  0  0  0  0  0  0  0  0  0
   -2.7708    0.3812   -0.5519 H   0  0  0  0  0  0  0  0  0  0  0  0
   -3.7219    0.4176   -2.0439 H   0  0  0  0  0  0  0  0  0  0  0  0
   -5.8521   -0.8533    0.4909 H   0  0  0  0  0  0  0  0  0  0  0  0
   -7.6065    0.3911    1.5705 H   0  0  0  0  0  0  0  0  0  0  0  0
   -7.6732    2.8560    1.4848 H   0  0  0  0  0  0  0  0  0  0  0  0
   -5.8360    3.9990    0.2464 H   0  0  0  0  0  0  0  0  0  0  0  0
   -4.0430    2.7246   -0.8493 H   0  0  0  0  0  0  0  0  0  0  0  0
  1  2  1  0
  2  3  1  0
  3  4  2  0
  4  5  1  0
  5  6  2  0
  6  7  1  0
  7  8  2  0
  8  9  1  0
  9 10  1  0
 10 11  1  0
 11 12  1  0
 12 13  1  0
 13 14  1  0
 14 15  1  0
 15 16  1  0
 16 17  1  0
 14 18  1  0
 18 19  1  0
 19 20  2  0
 19 21  1  0
 21 22  2  0
 22 23  1  0
 23 24  2  0
 24 25  1  0
 25 26  2  0
 26 27  1  0
 27 28  1  0
 28 29  2  0
 29 30  1  0
 30 31  2  0
 31 32  1  0
 32 33  2  0
  8  3  1  0
 17  9  1  0
 26 21  1  0
 33 28  1  0
 16 12  1  0
  1 34  1  0
  1 35  1  0
  1 36  1  0
  4 37  1  0
  5 38  1  0
  6 39  1  0
  7 40  1  0
 10 41  1  0
 10 42  1  0
 11 43  1  0
 11 44  1  0
 13 45  1  0
 13 46  1  0
 14 47  1  1
 15 48  1  0
 15 49  1  0
 16 50  1  0
 17 51  1  0
 17 52  1  0
 18 53  1  0
 22 54  1  0
 23 55  1  0
 24 56  1  0
 25 57  1  0
 27 58  1  0
 27 59  1  0
 29 60  1  0
 30 61  1  0
 31 62  1  0
 32 63  1  0
 33 64  1  0
M  END
$$$$
[H]c1c([H])c([H])c(/C(=C2/C(=O)N([H])c3c([H])c(C(=O)OC([H])([H])[H])c([H])c([H])c32)N([H])c2c([H])c([H])c(N(c3c([H])c([H])c([H])c([H])c3[H])C([H])([H])C([H])([H])C([H])([H])N(C([H])([H])[H])C([H])([H])[H])c([H])c2[H])c([H])c1[H]
     RDKit          3D

 75 79  0  0  0  0  0  0  0  0999 V2000
   10.5121    3.2970   -0.7037 C   0  0  0  0  0  0  0  0  0  0  0  0
    9.2115    2.9114   -0.2301 O   0  0  0  0  0  0  0  0  0  0  0  0
    8.5841    1.7844   -0.7482 C   0  0  0  0  0  0  0  0  0  0  0  0
    9.2231    1.1476   -1.6399 O   0  0  0  0  0  0  0  0  0  0  0  0
    7.2722    1.3621   -0.2925 C   0  0  0  0  0  0  0  0  0  0  0  0
    6.7037    0.2437   -0.8187 C   0  0  0  0  0  0  0  0  0  0  0  0
    5.4509   -0.2057   -0.4145 C   0  0  0  0  0  0  0  0  0  0  0  0
    4.7826    0.5093    0.5415 C   0  0  0  0  0  0  0  0  0  0  0  0
    3.4701    0.3240    1.1952 C   0  0  0  0  0  0  0  0  0  0  0  0
    2.6323   -0.6854    1.0187 C   0  0  0  0  0  0  0  0  0  0  0  0
    1.4113   -0.6445    1.7671 N   0  0  0  0  0  0  0  0  0  0  0  0
    0.1003   -0.5026    1.3577 C   0  0  0  0  0  0  0  0  0  0  0  0
   -0.9042   -0.8473    2.2774 C   0  0  0  0  0  0  0  0  0  0  0  0
   -2.2358   -0.7608    1.9747 C   0  0  0  0  0  0  0  0  0  0  0  0
   -2.6624   -0.3204    0.7194 C   0  0  0  0  0  0  0  0  0  0  0  0
   -1.7251    0.0187   -0.1802 C   0  0  0  0  0  0  0  0  0  0  0  0
   -0.3602   -0.0731    0.1420 C   0  0  0  0  0  0  0  0  0  0  0  0
   -4.0939   -0.3109    0.5264 N   0  0  0  0  0  0  0  0  0  0  0  0
   -4.7911    0.8265    1.0093 C   0  0  0  0  0  0  0  0  0  0  0  0
   -4.6306    2.1025    0.2948 C   0  0  0  0  0  0  0  0  0  0  0  0
   -5.1955    2.2592   -1.0676 C   0  0  0  0  0  0  0  0  0  0  0  0
   -6.5892    2.2698   -1.2227 N   0  0  0  0  0  0  0  0  0  0  0  0
   -7.3886    1.1459   -1.0123 C   0  0  0  0  0  0  0  0  0  0  0  0
   -7.2359    3.4427   -0.6341 C   0  0  0  0  0  0  0  0  0  0  0  0
   -4.6238   -1.4373   -0.1085 C   0  0  0  0  0  0  0  0  0  0  0  0
   -5.3108   -2.4396    0.5496 C   0  0  0  0  0  0  0  0  0  0  0  0
   -5.7968   -3.5454   -0.1025 C   0  0  0  0  0  0  0  0  0  0  0  0
   -5.5930   -3.6610   -1.4647 C   0  0  0  0  0  0  0  0  0  0  0  0
   -4.9195   -2.6976   -2.1652 C   0  0  0  0  0  0  0  0  0  0  0  0
   -4.4418   -1.5919   -1.4706 C   0  0  0  0  0  0  0  0  0  0  0  0
    2.8810   -1.8772    0.2594 C   0  0  0  0  0  0  0  0  0  0  0  0
    3.6205   -2.9183    0.8596 C   0  0  0  0  0  0  0  0  0  0  0  0
    3.8448   -4.0859    0.1791 C   0  0  0  0  0  0  0  0  0  0  0  0
    3.3664   -4.2850   -1.0934 C   0  0  0  0  0  0  0  0  0  0  0  0
    2.6546   -3.2706   -1.6596 C   0  0  0  0  0  0  0  0  0  0  0  0
    2.4138   -2.0798   -0.9926 C   0  0  0  0  0  0  0  0  0  0  0  0
    3.2891    1.4294    2.1558 C   0  0  0  0  0  0  0  0  0  0  0  0
    2.2823    1.5743    2.8726 O   0  0  0  0  0  0  0  0  0  0  0  0
    4.4582    2.2212    2.0607 N   0  0  0  0  0  0  0  0  0  0  0  0
    5.3442    1.6668    1.0990 C   0  0  0  0  0  0  0  0  0  0  0  0
    6.5917    2.0720    0.6654 C   0  0  0  0  0  0  0  0  0  0  0  0
   10.3524    3.8574   -1.6529 H   0  0  0  0  0  0  0  0  0  0  0  0
   11.1888    2.4367   -0.8303 H   0  0  0  0  0  0  0  0  0  0  0  0
   10.9127    4.0197    0.0562 H   0  0  0  0  0  0  0  0  0  0  0  0
    7.2188   -0.3236   -1.5688 H   0  0  0  0  0  0  0  0  0  0  0  0
    5.0640   -1.0720   -0.8756 H   0  0  0  0  0  0  0  0  0  0  0  0
    1.5732   -0.7435    2.8465 H   0  0  0  0  0  0  0  0  0  0  0  0
   -0.5980   -1.1916    3.2622 H   0  0  0  0  0  0  0  0  0  0  0  0
   -2.9475   -1.0421    2.7270 H   0  0  0  0  0  0  0  0  0  0  0  0
   -2.0371    0.3575   -1.1491 H   0  0  0  0  0  0  0  0  0  0  0  0
    0.3700    0.2171   -0.5883 H   0  0  0  0  0  0  0  0  0  0  0  0
   -4.4779    1.0388    2.0938 H   0  0  0  0  0  0  0  0  0  0  0  0
   -5.8902    0.6242    1.1394 H   0  0  0  0  0  0  0  0  0  0  0  0
   -3.5337    2.4287    0.3162 H   0  0  0  0  0  0  0  0  0  0  0  0
   -5.1003    2.9131    0.9476 H   0  0  0  0  0  0  0  0  0  0  0  0
   -4.7797    1.5118   -1.7931 H   0  0  0  0  0  0  0  0  0  0  0  0
   -4.8009    3.2475   -1.4611 H   0  0  0  0  0  0  0  0  0  0  0  0
   -7.8357    1.2265    0.0278 H   0  0  0  0  0  0  0  0  0  0  0  0
   -8.3273    1.2380   -1.6589 H   0  0  0  0  0  0  0  0  0  0  0  0
   -6.9754    0.1617   -1.1713 H   0  0  0  0  0  0  0  0  0  0  0  0
   -7.6952    3.0995    0.3344 H   0  0  0  0  0  0  0  0  0  0  0  0
   -6.5607    4.2900   -0.4975 H   0  0  0  0  0  0  0  0  0  0  0  0
   -8.0348    3.7470   -1.3333 H   0  0  0  0  0  0  0  0  0  0  0  0
   -5.4606   -2.3329    1.6102 H   0  0  0  0  0  0  0  0  0  0  0  0
   -6.3340   -4.3053    0.4695 H   0  0  0  0  0  0  0  0  0  0  0  0
   -5.9850   -4.5383   -1.9542 H   0  0  0  0  0  0  0  0  0  0  0  0
   -4.7660   -2.8061   -3.2415 H   0  0  0  0  0  0  0  0  0  0  0  0
   -3.9158   -0.8479   -2.0529 H   0  0  0  0  0  0  0  0  0  0  0  0
    4.0122   -2.7974    1.8611 H   0  0  0  0  0  0  0  0  0  0  0  0
    4.4095   -4.8753    0.6443 H   0  0  0  0  0  0  0  0  0  0  0  0
    3.5432   -5.2001   -1.6188 H   0  0  0  0  0  0  0  0  0  0  0  0
    2.2717   -3.4131   -2.6598 H   0  0  0  0  0  0  0  0  0  0  0  0
    1.8614   -1.3418   -1.5299 H   0  0  0  0  0  0  0  0  0  0  0  0
    4.6588    3.0791    2.6030 H   0  0  0  0  0  0  0  0  0  0  0  0
    7.0166    2.9687    1.1070 H   0  0  0  0  0  0  0  0  0  0  0  0
  1  2  1  0
  2  3  1  0
  3  4  2  0
  3  5  1  0
  5  6  2  0
  6  7  1  0
  7  8  2  0
  8  9  1  0
  9 10  2  0
 10 11  1  0
 11 12  1  0
 12 13  2  0
 13 14  1  0
 14 15  2  0
 15 16  1  0
 16 17  2  0
 15 18  1  0
 18 19  1  0
 19 20  1  0
 20 21  1  0
 21 22  1  0
 22 23  1  0
 22 24  1  0
 18 25  1  0
 25 26  2  0
 26 27  1  0
 27 28  2  0
 28 29  1  0
 29 30  2  0
 10 31  1  0
 31 32  2  0
 32 33  1  0
 33 34  2  0
 34 35  1  0
 35 36  2  0
  9 37  1  0
 37 38  2  0
 37 39  1  0
 39 40  1  0
 40 41  2  0
 41  5  1  0
 40  8  1  0
 17 12  1  0
 30 25  1  0
 36 31  1  0
  1 42  1  0
  1 43  1  0
  1 44  1  0
  6 45  1  0
  7 46  1  0
 11 47  1  0
 13 48  1  0
 14 49  1  0
 16 50  1  0
 17 51  1  0
 19 52  1  0
 19 53  1  0
 20 54  1  0
 20 55  1  0
 21 56  1  0
 21 57  1  0
 23 58  1  0
 23 59  1  0
 23 60  1  0
 24 61  1  0
 24 62  1  0
 24 63  1  0
 26 64  1  0
 27 65  1  0
 28 66  1  0
 29 67  1  0
 30 68  1  0
 32 69  1  0
 33 70  1  0
 34 71  1  0
 35 72  1  0
 36 73  1  0
 39 74  1  0
 41 75  1  0
M  END
$$$$
[H]c1nc(N([H])c2c([H])c(OC([H])([H])[H])c(OC([H])([H])[H])c(OC([H])([H])[H])c2[H])nc(N([H])c2nc3c(c([H])c2[H])OC(C([H])([H])[H])(C([H])([H])[H])C(=O)N3[H])c1F
     RDKit          3D

 57 60  0  0  0  0  0  0  0  0999 V2000
   -5.6364    2.1181   -1.8630 C   0  0  0  0  0  0  0  0  0  0  0  0
   -5.8443    0.7587   -1.5880 O   0  0  0  0  0  0  0  0  0  0  0  0
   -4.8072    0.0010   -1.0783 C   0  0  0  0  0  0  0  0  0  0  0  0
   -3.5618    0.6012   -0.8432 C   0  0  0  0  0  0  0  0  0  0  0  0
   -2.5031   -0.0703   -0.3477 C   0  0  0  0  0  0  0  0  0  0  0  0
   -1.2316    0.4626   -0.0655 N   0  0  0  0  0  0  0  0  0  0  0  0
   -0.9067    1.8244    0.0656 C   0  0  0  0  0  0  0  0  0  0  0  0
   -1.7494    2.8585   -0.0431 N   0  0  0  0  0  0  0  0  0  0  0  0
   -1.4116    4.1432    0.0863 C   0  0  0  0  0  0  0  0  0  0  0  0
   -0.1125    4.4539    0.3502 C   0  0  0  0  0  0  0  0  0  0  0  0
    0.3587    5.6995    0.5032 F   0  0  0  0  0  0  0  0  0  0  0  0
    0.8217    3.4140    0.4762 C   0  0  0  0  0  0  0  0  0  0  0  0
    2.1801    3.7060    0.7505 N   0  0  0  0  0  0  0  0  0  0  0  0
    3.1050    2.6399    0.8733 C   0  0  0  0  0  0  0  0  0  0  0  0
    4.4571    2.8965    1.1446 C   0  0  0  0  0  0  0  0  0  0  0  0
    5.3443    1.8517    1.2613 C   0  0  0  0  0  0  0  0  0  0  0  0
    4.9285    0.5481    1.1161 C   0  0  0  0  0  0  0  0  0  0  0  0
    5.7961   -0.5293    1.2273 O   0  0  0  0  0  0  0  0  0  0  0  0
    5.5066   -1.7939    0.6515 C   0  0  0  0  0  0  0  0  0  0  0  0
    6.2846   -2.8749    1.3459 C   0  0  0  0  0  0  0  0  0  0  0  0
    5.8127   -1.7705   -0.8228 C   0  0  0  0  0  0  0  0  0  0  0  0
    4.0556   -2.1122    0.8177 C   0  0  0  0  0  0  0  0  0  0  0  0
    3.6763   -3.3008    1.0572 O   0  0  0  0  0  0  0  0  0  0  0  0
    3.1427   -1.0383    0.6962 N   0  0  0  0  0  0  0  0  0  0  0  0
    3.5828    0.3027    0.8467 C   0  0  0  0  0  0  0  0  0  0  0  0
    2.7547    1.3550    0.7416 N   0  0  0  0  0  0  0  0  0  0  0  0
    0.3826    2.1601    0.3289 N   0  0  0  0  0  0  0  0  0  0  0  0
   -2.7045   -1.4372   -0.0691 C   0  0  0  0  0  0  0  0  0  0  0  0
   -3.9082   -2.0549   -0.2874 C   0  0  0  0  0  0  0  0  0  0  0  0
   -4.0666   -3.3859   -0.0045 O   0  0  0  0  0  0  0  0  0  0  0  0
   -2.9762   -4.1177    0.5153 C   0  0  0  0  0  0  0  0  0  0  0  0
   -4.9761   -1.3425   -0.7952 C   0  0  0  0  0  0  0  0  0  0  0  0
   -6.2188   -1.9257   -1.0338 O   0  0  0  0  0  0  0  0  0  0  0  0
   -7.1743   -1.9137    0.0186 C   0  0  0  0  0  0  0  0  0  0  0  0
   -4.7813    2.3111   -2.5387 H   0  0  0  0  0  0  0  0  0  0  0  0
   -5.4850    2.7232   -0.9417 H   0  0  0  0  0  0  0  0  0  0  0  0
   -6.5386    2.5082   -2.4098 H   0  0  0  0  0  0  0  0  0  0  0  0
   -3.4970    1.6360   -1.0973 H   0  0  0  0  0  0  0  0  0  0  0  0
   -0.4103   -0.2136    0.0641 H   0  0  0  0  0  0  0  0  0  0  0  0
   -2.1604    4.9024   -0.0184 H   0  0  0  0  0  0  0  0  0  0  0  0
    2.4712    4.6872    0.8556 H   0  0  0  0  0  0  0  0  0  0  0  0
    4.7318    3.9285    1.2492 H   0  0  0  0  0  0  0  0  0  0  0  0
    6.3943    2.0780    1.4734 H   0  0  0  0  0  0  0  0  0  0  0  0
    5.7812   -3.1588    2.2953 H   0  0  0  0  0  0  0  0  0  0  0  0
    7.3278   -2.5920    1.5737 H   0  0  0  0  0  0  0  0  0  0  0  0
    6.3119   -3.7970    0.7168 H   0  0  0  0  0  0  0  0  0  0  0  0
    5.5475   -2.7321   -1.2838 H   0  0  0  0  0  0  0  0  0  0  0  0
    5.2428   -0.9509   -1.3072 H   0  0  0  0  0  0  0  0  0  0  0  0
    6.8942   -1.5474   -0.9277 H   0  0  0  0  0  0  0  0  0  0  0  0
    2.1474   -1.2464    0.4955 H   0  0  0  0  0  0  0  0  0  0  0  0
   -1.8577   -2.0119    0.3366 H   0  0  0  0  0  0  0  0  0  0  0  0
   -2.2185   -4.1935   -0.2936 H   0  0  0  0  0  0  0  0  0  0  0  0
   -3.3828   -5.1246    0.7905 H   0  0  0  0  0  0  0  0  0  0  0  0
   -2.5554   -3.6060    1.4036 H   0  0  0  0  0  0  0  0  0  0  0  0
   -7.4919   -2.9486    0.2973 H   0  0  0  0  0  0  0  0  0  0  0  0
   -8.0902   -1.3564   -0.3279 H   0  0  0  0  0  0  0  0  0  0  0  0
   -6.7818   -1.4227    0.9319 H   0  0  0  0  0  0  0  0  0  0  0  0
  1  2  1  0
  2  3  1  0
  3  4  2  0
  4  5  1  0
  5  6  1  0
  6  7  1  0
  7  8  2  0
  8  9  1  0
  9 10  2  0
 10 11  1  0
 10 12  1  0
 12 13  1  0
 13 14  1  0
 14 15  2  0
 15 16  1  0
 16 17  2  0
 17 18  1  0
 18 19  1  0
 19 20  1  0
 19 21  1  0
 19 22  1  0
 22 23  2  0
 22 24  1  0
 24 25  1  0
 25 26  2  0
 12 27  2  0
  5 28  2  0
 28 29  1  0
 29 30  1  0
 30 31  1  0
 29 32  2  0
 32 33  1  0
 33 34  1  0
 32  3  1  0
 27  7  1  0
 26 14  1  0
 25 17  1  0
  1 35  1  0
  1 36  1  0
  1 37  1  0
  4 38  1  0
  6 39  1  0
  9 40  1  0
 13 41  1  0
 15 42  1  0
 16 43  1  0
 20 44  1  0
 20 45  1  0
 20 46  1  0
 21 47  1  0
 21 48  1  0
 21 49  1  0
 24 50  1  0
 28 51  1  0
 31 52  1  0
 31 53  1  0
 31 54  1  0
 34 55  1  0
 34 56  1  0
 34 57  1  0
M  END
$$$$
[H]c1c([H])c([H])c2c([H])c(N3C([H])([H])C([H])([H])C([H])([H])[C@]([H])(N(C([H])([H])[H])C([H])([H])[H])[C@@]3([H])C([H])([H])[H])c([H])c([H])c2c1[H]
     RDKit          3D

 44 46  0  0  0  0  0  0  0  0999 V2000
   -0.9424    1.5626   -1.3049 C   0  0  0  0  0  0  0  0  0  0  0  0
   -1.0471    0.4287   -0.3165 C   0  0  2  0  0  0  0  0  0  0  0  0
   -2.5167    0.3507    0.1039 C   0  0  2  0  0  0  0  0  0  0  0  0
   -2.6893   -0.4406    1.3591 C   0  0  0  0  0  0  0  0  0  0  0  0
   -1.8336    0.0351    2.4874 C   0  0  0  0  0  0  0  0  0  0  0  0
   -0.9015    1.1415    2.0264 C   0  0  0  0  0  0  0  0  0  0  0  0
   -0.2272    0.6434    0.8568 N   0  0  0  0  0  0  0  0  0  0  0  0
    1.1547    0.3653    0.8057 C   0  0  0  0  0  0  0  0  0  0  0  0
    2.0044    0.4853    1.8738 C   0  0  0  0  0  0  0  0  0  0  0  0
    3.3732    0.2059    1.8055 C   0  0  0  0  0  0  0  0  0  0  0  0
    3.9178   -0.2131    0.6120 C   0  0  0  0  0  0  0  0  0  0  0  0
    5.2678   -0.4990    0.5102 C   0  0  0  0  0  0  0  0  0  0  0  0
    5.8223   -0.9219   -0.6868 C   0  0  0  0  0  0  0  0  0  0  0  0
    5.0110   -1.0573   -1.7850 C   0  0  0  0  0  0  0  0  0  0  0  0
    3.6678   -0.7695   -1.6702 C   0  0  0  0  0  0  0  0  0  0  0  0
    3.0846   -0.3469   -0.4973 C   0  0  0  0  0  0  0  0  0  0  0  0
    1.7420   -0.0613   -0.3863 C   0  0  0  0  0  0  0  0  0  0  0  0
   -3.2795   -0.1165   -0.9997 N   0  0  0  0  0  0  0  0  0  0  0  0
   -2.9652   -1.4242   -1.4587 C   0  0  0  0  0  0  0  0  0  0  0  0
   -4.6710    0.1948   -0.9653 C   0  0  0  0  0  0  0  0  0  0  0  0
   -1.8771    2.1858   -1.3395 H   0  0  0  0  0  0  0  0  0  0  0  0
   -0.8228    1.1751   -2.3491 H   0  0  0  0  0  0  0  0  0  0  0  0
   -0.1099    2.2349   -1.0226 H   0  0  0  0  0  0  0  0  0  0  0  0
   -0.7753   -0.5477   -0.7376 H   0  0  0  0  0  0  0  0  0  0  0  0
   -2.8283    1.4005    0.3174 H   0  0  0  0  0  0  0  0  0  0  0  0
   -2.5573   -1.5318    1.2075 H   0  0  0  0  0  0  0  0  0  0  0  0
   -3.7597   -0.2955    1.6952 H   0  0  0  0  0  0  0  0  0  0  0  0
   -1.1958   -0.8197    2.8338 H   0  0  0  0  0  0  0  0  0  0  0  0
   -2.4129    0.3368    3.3847 H   0  0  0  0  0  0  0  0  0  0  0  0
   -1.5557    2.0182    1.7815 H   0  0  0  0  0  0  0  0  0  0  0  0
   -0.2449    1.4951    2.8320 H   0  0  0  0  0  0  0  0  0  0  0  0
    1.6463    0.8061    2.8260 H   0  0  0  0  0  0  0  0  0  0  0  0
    3.9934    0.3172    2.6716 H   0  0  0  0  0  0  0  0  0  0  0  0
    5.9329   -0.4012    1.3621 H   0  0  0  0  0  0  0  0  0  0  0  0
    6.8689   -1.1519   -0.7975 H   0  0  0  0  0  0  0  0  0  0  0  0
    5.4331   -1.3919   -2.7434 H   0  0  0  0  0  0  0  0  0  0  0  0
    3.0416   -0.8794   -2.5397 H   0  0  0  0  0  0  0  0  0  0  0  0
    1.1452   -0.1839   -1.2822 H   0  0  0  0  0  0  0  0  0  0  0  0
   -2.0776   -1.3728   -2.1425 H   0  0  0  0  0  0  0  0  0  0  0  0
   -2.8644   -2.1923   -0.6909 H   0  0  0  0  0  0  0  0  0  0  0  0
   -3.8115   -1.7647   -2.1244 H   0  0  0  0  0  0  0  0  0  0  0  0
   -4.7857    1.1873   -0.4535 H   0  0  0  0  0  0  0  0  0  0  0  0
   -5.0604    0.3583   -1.9939 H   0  0  0  0  0  0  0  0  0  0  0  0
   -5.2941   -0.5456   -0.4278 H   0  0  0  0  0  0  0  0  0  0  0  0
  1  2  1  0
  2  3  1  0
  3  4  1  0
  4  5  1  0
  5  6  1  0
  6  7  1  0
  7  8  1  0
  8  9  2  0
  9 10  1  0
 10 11  2  0
 11 12  1  0
 12 13  2  0
 13 14  1  0
 14 15  2  0
 15 16  1  0
 16 17  2  0
  3 18  1  0
 18 19  1  0
 18 20  1  0
  7  2  1  0
 17  8  1  0
 16 11  1  0
  1 21  1  0
  1 22  1  0
  1 23  1  0
  2 24  1  6
  3 25  1  1
  4 26  1  0
  4 27  1  0
  5 28  1  0
  5 29  1  0
  6 30  1  0
  6 31  1  0
  9 32  1  0
 10 33  1  0
 12 34  1  0
 13 35  1  0
 14 36  1  0
 15 37  1  0
 17 38  1  0
 19 39  1  0
 19 40  1  0
 19 41  1  0
 20 42  1  0
 20 43  1  0
 20 44  1  0
M  END
$$$$
[H]c1c([H])c(C([H])([H])n2c(C(=O)N([H])C3(C(=O)N([H])C4(c5c([H])c(C([H])([H])[H])c([H])c(C([H])([H])[H])c5[H])C([H])([H])C4([H])[H])C([H])([H])C3([H])[H])c([H])c3c([H])c([H])c([H])c([H])c32)c(Cl)c([H])c1F
     RDKit          3D

 67 72  0  0  0  0  0  0  0  0999 V2000
    8.2541   -1.3736    0.1202 C   0  0  0  0  0  0  0  0  0  0  0  0
    7.0422   -0.5344    0.1850 C   0  0  0  0  0  0  0  0  0  0  0  0
    7.2021    0.8217   -0.0077 C   0  0  0  0  0  0  0  0  0  0  0  0
    6.1528    1.6701    0.0546 C   0  0  0  0  0  0  0  0  0  0  0  0
    6.3381    3.1284   -0.1465 C   0  0  0  0  0  0  0  0  0  0  0  0
    4.8527    1.1982    0.3217 C   0  0  0  0  0  0  0  0  0  0  0  0
    4.6624   -0.1613    0.5232 C   0  0  0  0  0  0  0  0  0  0  0  0
    5.7705   -1.0023    0.4484 C   0  0  0  0  0  0  0  0  0  0  0  0
    3.2839   -0.6732    0.8801 C   0  0  0  0  0  0  0  0  0  0  0  0
    3.2760   -2.0320    1.5116 C   0  0  0  0  0  0  0  0  0  0  0  0
    3.0495   -0.7789    2.3225 C   0  0  0  0  0  0  0  0  0  0  0  0
    2.2533   -0.4531   -0.0657 N   0  0  0  0  0  0  0  0  0  0  0  0
    1.4060    0.7181   -0.1589 C   0  0  0  0  0  0  0  0  0  0  0  0
    1.5695    1.6386    0.6820 O   0  0  0  0  0  0  0  0  0  0  0  0
    0.3814    0.8615   -1.2107 C   0  0  0  0  0  0  0  0  0  0  0  0
    0.9474    1.1134   -2.6102 C   0  0  0  0  0  0  0  0  0  0  0  0
    0.1777    2.1672   -1.8785 C   0  0  0  0  0  0  0  0  0  0  0  0
   -0.6644   -0.1452   -1.2345 N   0  0  0  0  0  0  0  0  0  0  0  0
   -1.7511   -0.0365   -0.2961 C   0  0  0  0  0  0  0  0  0  0  0  0
   -1.7582    0.9582    0.4631 O   0  0  0  0  0  0  0  0  0  0  0  0
   -2.8145   -1.0003   -0.1942 C   0  0  0  0  0  0  0  0  0  0  0  0
   -2.5054   -2.3333    0.0819 C   0  0  0  0  0  0  0  0  0  0  0  0
   -3.6776   -3.0132    0.1352 C   0  0  0  0  0  0  0  0  0  0  0  0
   -3.9670   -4.3612    0.3703 C   0  0  0  0  0  0  0  0  0  0  0  0
   -5.2544   -4.8352    0.3663 C   0  0  0  0  0  0  0  0  0  0  0  0
   -6.2507   -3.9264    0.1134 C   0  0  0  0  0  0  0  0  0  0  0  0
   -5.9682   -2.6046   -0.1175 C   0  0  0  0  0  0  0  0  0  0  0  0
   -4.6799   -2.1086   -0.1085 C   0  0  0  0  0  0  0  0  0  0  0  0
   -4.1421   -0.8507   -0.3152 N   0  0  0  0  0  0  0  0  0  0  0  0
   -4.9315    0.2315   -0.7272 C   0  0  0  0  0  0  0  0  0  0  0  0
   -5.2977    1.3861    0.0204 C   0  0  0  0  0  0  0  0  0  0  0  0
   -4.7852    2.6277   -0.4464 C   0  0  0  0  0  0  0  0  0  0  0  0
   -5.1057    3.8384    0.0756 C   0  0  0  0  0  0  0  0  0  0  0  0
   -5.9821    3.9284    1.1325 C   0  0  0  0  0  0  0  0  0  0  0  0
   -6.3290    5.1039    1.6758 F   0  0  0  0  0  0  0  0  0  0  0  0
   -6.4975    2.7628    1.6171 C   0  0  0  0  0  0  0  0  0  0  0  0
   -6.1590    1.5064    1.0689 C   0  0  0  0  0  0  0  0  0  0  0  0
   -6.9170    0.1706    1.8702 Cl  0  0  0  0  0  0  0  0  0  0  0  0
    8.6671   -1.2829   -0.9273 H   0  0  0  0  0  0  0  0  0  0  0  0
    9.0334   -0.9141    0.8017 H   0  0  0  0  0  0  0  0  0  0  0  0
    8.1396   -2.4028    0.4022 H   0  0  0  0  0  0  0  0  0  0  0  0
    8.2283    1.1945   -0.2149 H   0  0  0  0  0  0  0  0  0  0  0  0
    5.8776    3.6793    0.7227 H   0  0  0  0  0  0  0  0  0  0  0  0
    7.4031    3.3911   -0.1144 H   0  0  0  0  0  0  0  0  0  0  0  0
    5.8441    3.4180   -1.0886 H   0  0  0  0  0  0  0  0  0  0  0  0
    4.0960    1.9332    0.3459 H   0  0  0  0  0  0  0  0  0  0  0  0
    5.6480   -2.0413    0.5923 H   0  0  0  0  0  0  0  0  0  0  0  0
    2.3943   -2.7008    1.3114 H   0  0  0  0  0  0  0  0  0  0  0  0
    4.1646   -2.5913    1.7839 H   0  0  0  0  0  0  0  0  0  0  0  0
    3.8344   -0.4440    3.0166 H   0  0  0  0  0  0  0  0  0  0  0  0
    2.0329   -0.7222    2.7523 H   0  0  0  0  0  0  0  0  0  0  0  0
    2.0850   -1.2022   -0.8238 H   0  0  0  0  0  0  0  0  0  0  0  0
    0.5760    0.5642   -3.4723 H   0  0  0  0  0  0  0  0  0  0  0  0
    2.0553    1.3172   -2.6689 H   0  0  0  0  0  0  0  0  0  0  0  0
   -0.7810    2.4332   -2.3124 H   0  0  0  0  0  0  0  0  0  0  0  0
    0.7588    3.0473   -1.4670 H   0  0  0  0  0  0  0  0  0  0  0  0
   -0.6345   -0.9314   -1.9011 H   0  0  0  0  0  0  0  0  0  0  0  0
   -1.4934   -2.7527    0.2170 H   0  0  0  0  0  0  0  0  0  0  0  0
   -3.0994   -5.0093    0.5531 H   0  0  0  0  0  0  0  0  0  0  0  0
   -5.4680   -5.8804    0.5581 H   0  0  0  0  0  0  0  0  0  0  0  0
   -7.3095   -4.2835    0.1101 H   0  0  0  0  0  0  0  0  0  0  0  0
   -6.8095   -1.9699   -0.3227 H   0  0  0  0  0  0  0  0  0  0  0  0
   -4.4992    0.5351   -1.7581 H   0  0  0  0  0  0  0  0  0  0  0  0
   -5.9546   -0.1867   -1.1295 H   0  0  0  0  0  0  0  0  0  0  0  0
   -4.0925    2.6090   -1.2819 H   0  0  0  0  0  0  0  0  0  0  0  0
   -4.6927    4.7561   -0.3335 H   0  0  0  0  0  0  0  0  0  0  0  0
   -7.1854    2.8300    2.4580 H   0  0  0  0  0  0  0  0  0  0  0  0
  1  2  1  0
  2  3  2  0
  3  4  1  0
  4  5  1  0
  4  6  2  0
  6  7  1  0
  7  8  2  0
  7  9  1  0
  9 10  1  0
 10 11  1  0
  9 12  1  0
 12 13  1  0
 13 14  2  0
 13 15  1  0
 15 16  1  0
 16 17  1  0
 15 18  1  0
 18 19  1  0
 19 20  2  0
 19 21  1  0
 21 22  2  0
 22 23  1  0
 23 24  2  0
 24 25  1  0
 25 26  2  0
 26 27  1  0
 27 28  2  0
 28 29  1  0
 29 30  1  0
 30 31  1  0
 31 32  2  0
 32 33  1  0
 33 34  2  0
 34 35  1  0
 34 36  1  0
 36 37  2  0
 37 38  1  0
  8  2  1  0
 11  9  1  0
 17 15  1  0
 29 21  1  0
 37 31  1  0
 28 23  1  0
  1 39  1  0
  1 40  1  0
  1 41  1  0
  3 42  1  0
  5 43  1  0
  5 44  1  0
  5 45  1  0
  6 46  1  0
  8 47  1  0
 10 48  1  0
 10 49  1  0
 11 50  1  0
 11 51  1  0
 12 52  1  0
 16 53  1  0
 16 54  1  0
 17 55  1  0
 17 56  1  0
 18 57  1  0
 22 58  1  0
 24 59  1  0
 25 60  1  0
 26 61  1  0
 27 62  1  0
 30 63  1  0
 30 64  1  0
 32 65  1  0
 33 66  1  0
 36 67  1  0
M  END
$$$$
[H]c1nc2c(=O)n(-c3c([H])c([H])c(C([H])(C([H])([H])[H])C([H])([H])[H])c([H])c3[H])c(C([H])([H])C(C([H])([H])[H])(C([H])([H])[H])C([H])([H])[H])nc2c([H])c1[H]
     RDKit          3D

 50 52  0  0  0  0  0  0  0  0999 V2000
    5.0885   -2.1755   -0.1694 C   0  0  0  0  0  0  0  0  0  0  0  0
    4.9544   -0.6950    0.1511 C   0  0  0  0  0  0  0  0  0  0  0  0
    5.8437    0.0319   -0.8666 C   0  0  0  0  0  0  0  0  0  0  0  0
    3.5726   -0.2137    0.0600 C   0  0  0  0  0  0  0  0  0  0  0  0
    3.0011    0.3776    1.1787 C   0  0  0  0  0  0  0  0  0  0  0  0
    1.7051    0.8468    1.1460 C   0  0  0  0  0  0  0  0  0  0  0  0
    0.9457    0.7439    0.0127 C   0  0  0  0  0  0  0  0  0  0  0  0
    1.5117    0.1605   -1.0888 C   0  0  0  0  0  0  0  0  0  0  0  0
    2.8017   -0.3144   -1.0791 C   0  0  0  0  0  0  0  0  0  0  0  0
   -0.3748    1.2276   -0.0047 N   0  0  0  0  0  0  0  0  0  0  0  0
   -1.3647    0.3195    0.0657 C   0  0  0  0  0  0  0  0  0  0  0  0
   -1.1645   -1.1239    0.1565 C   0  0  0  0  0  0  0  0  0  0  0  0
   -2.4607   -1.9004    0.2287 C   0  0  0  0  0  0  0  0  0  0  0  0
   -3.2830   -1.5146    1.4330 C   0  0  0  0  0  0  0  0  0  0  0  0
   -3.3092   -1.7794   -0.9854 C   0  0  0  0  0  0  0  0  0  0  0  0
   -2.0311   -3.3601    0.4497 C   0  0  0  0  0  0  0  0  0  0  0  0
   -2.6264    0.7880    0.0487 N   0  0  0  0  0  0  0  0  0  0  0  0
   -2.9206    2.0991   -0.0342 C   0  0  0  0  0  0  0  0  0  0  0  0
   -4.2128    2.5880   -0.0522 C   0  0  0  0  0  0  0  0  0  0  0  0
   -4.4282    3.9363   -0.1384 C   0  0  0  0  0  0  0  0  0  0  0  0
   -3.3775    4.8266   -0.2083 C   0  0  0  0  0  0  0  0  0  0  0  0
   -2.1059    4.3510   -0.1909 N   0  0  0  0  0  0  0  0  0  0  0  0
   -1.8962    3.0205   -0.1059 C   0  0  0  0  0  0  0  0  0  0  0  0
   -0.5965    2.5602   -0.0898 C   0  0  0  0  0  0  0  0  0  0  0  0
    0.3888    3.3573   -0.1529 O   0  0  0  0  0  0  0  0  0  0  0  0
    5.0122   -2.3768   -1.2450 H   0  0  0  0  0  0  0  0  0  0  0  0
    4.4289   -2.8020    0.4598 H   0  0  0  0  0  0  0  0  0  0  0  0
    6.1421   -2.4460    0.1271 H   0  0  0  0  0  0  0  0  0  0  0  0
    5.4198   -0.5359    1.1281 H   0  0  0  0  0  0  0  0  0  0  0  0
    6.8699   -0.3572   -0.6951 H   0  0  0  0  0  0  0  0  0  0  0  0
    5.4860   -0.2152   -1.8754 H   0  0  0  0  0  0  0  0  0  0  0  0
    5.8324    1.1248   -0.6910 H   0  0  0  0  0  0  0  0  0  0  0  0
    3.6115    0.4563    2.0779 H   0  0  0  0  0  0  0  0  0  0  0  0
    1.3452    1.2988    2.0852 H   0  0  0  0  0  0  0  0  0  0  0  0
    0.9764    0.0376   -2.0362 H   0  0  0  0  0  0  0  0  0  0  0  0
    3.2454   -0.7781   -1.9613 H   0  0  0  0  0  0  0  0  0  0  0  0
   -0.4695   -1.5612   -0.5613 H   0  0  0  0  0  0  0  0  0  0  0  0
   -0.6679   -1.3116    1.1599 H   0  0  0  0  0  0  0  0  0  0  0  0
   -2.6858   -0.8632    2.1140 H   0  0  0  0  0  0  0  0  0  0  0  0
   -3.5984   -2.4336    1.9884 H   0  0  0  0  0  0  0  0  0  0  0  0
   -4.1889   -0.9877    1.0722 H   0  0  0  0  0  0  0  0  0  0  0  0
   -2.8685   -1.1541   -1.7949 H   0  0  0  0  0  0  0  0  0  0  0  0
   -3.4506   -2.7888   -1.4253 H   0  0  0  0  0  0  0  0  0  0  0  0
   -4.3508   -1.4148   -0.7582 H   0  0  0  0  0  0  0  0  0  0  0  0
   -1.5762   -3.4441    1.4541 H   0  0  0  0  0  0  0  0  0  0  0  0
   -1.2842   -3.6762   -0.2998 H   0  0  0  0  0  0  0  0  0  0  0  0
   -2.9442   -3.9815    0.3367 H   0  0  0  0  0  0  0  0  0  0  0  0
   -5.0093    1.8565    0.0045 H   0  0  0  0  0  0  0  0  0  0  0  0
   -5.4428    4.3059   -0.1516 H   0  0  0  0  0  0  0  0  0  0  0  0
   -3.4939    5.8906   -0.2769 H   0  0  0  0  0  0  0  0  0  0  0  0
  1  2  1  0
  2  3  1  0
  2  4  1  0
  4  5  2  0
  5  6  1  0
  6  7  2  0
  7  8  1  0
  8  9  2  0
  7 10  1  0
 10 11  1  0
 11 12  1  0
 12 13  1  0
 13 14  1  0
 13 15  1  0
 13 16  1  0
 11 17  2  0
 17 18  1  0
 18 19  2  0
 19 20  1  0
 20 21  2  0
 21 22  1  0
 22 23  2  0
 23 24  1  0
 24 25  2  0
  9  4  1  0
 24 10  1  0
 23 18  1  0
  1 26  1  0
  1 27  1  0
  1 28  1  0
  2 29  1  0
  3 30  1  0
  3 31  1  0
  3 32  1  0
  5 33  1  0
  6 34  1  0
  8 35  1  0
  9 36  1  0
 12 37  1  0
 12 38  1  0
 14 39  1  0
 14 40  1  0
 14 41  1  0
 15 42  1  0
 15 43  1  0
 15 44  1  0
 16 45  1  0
 16 46  1  0
 16 47  1  0
 19 48  1  0
 20 49  1  0
 21 50  1  0
M  END
$$$$
[H]c1c([H])c(C([H])([H])[H])c([H])c(C(C(=O)N2C([H])([H])C3(C2([H])[H])C([H])([H])C([H])([H])N(C(=O)C([H])(N([H])C(=O)C(N([H])[H])(C([H])([H])[H])C([H])([H])[H])C([H])([H])c2c([H])c([H])c([H])c4c([H])c([H])c([H])c([H])c24)C([H])([H])C3([H])[H])(C([H])([H])[H])C([H])([H])[H])c1[H]
     RDKit          3D

 86 90  0  0  0  0  0  0  0  0999 V2000
   10.5638   -1.7329    0.1416 C   0  0  0  0  0  0  0  0  0  0  0  0
    9.6819   -0.5212    0.1693 C   0  0  0  0  0  0  0  0  0  0  0  0
   10.1300    0.7093   -0.2112 C   0  0  0  0  0  0  0  0  0  0  0  0
    9.3066    1.8261   -0.1739 C   0  0  0  0  0  0  0  0  0  0  0  0
    7.9892    1.6500    0.2701 C   0  0  0  0  0  0  0  0  0  0  0  0
    7.5180    0.4190    0.6572 C   0  0  0  0  0  0  0  0  0  0  0  0
    8.3722   -0.6566    0.6026 C   0  0  0  0  0  0  0  0  0  0  0  0
    6.1030    0.2842    1.1154 C   0  0  0  0  0  0  0  0  0  0  0  0
    6.0270    0.7256    2.5365 C   0  0  0  0  0  0  0  0  0  0  0  0
    5.7656   -1.1963    0.9420 C   0  0  0  0  0  0  0  0  0  0  0  0
    5.1694    1.0010    0.2040 C   0  0  0  0  0  0  0  0  0  0  0  0
    5.6617    1.4328   -0.8880 O   0  0  0  0  0  0  0  0  0  0  0  0
    3.8289    1.2012    0.5055 N   0  0  0  0  0  0  0  0  0  0  0  0
    2.9199    0.9324    1.5861 C   0  0  0  0  0  0  0  0  0  0  0  0
    1.7216    1.0670    0.6980 C   0  0  0  0  0  0  0  0  0  0  0  0
    2.7113    1.7948   -0.2285 C   0  0  0  0  0  0  0  0  0  0  0  0
    1.3223   -0.2926    0.1633 C   0  0  0  0  0  0  0  0  0  0  0  0
    0.3813   -0.0344   -0.9633 C   0  0  0  0  0  0  0  0  0  0  0  0
   -0.8747    0.4843   -0.3337 N   0  0  0  0  0  0  0  0  0  0  0  0
   -0.7751    1.5663    0.5890 C   0  0  0  0  0  0  0  0  0  0  0  0
    0.5887    1.9131    1.0910 C   0  0  0  0  0  0  0  0  0  0  0  0
   -2.0323   -0.1720   -0.6918 C   0  0  0  0  0  0  0  0  0  0  0  0
   -1.7691   -1.2469   -1.4735 O   0  0  0  0  0  0  0  0  0  0  0  0
   -3.4610   -0.0548   -0.4843 C   0  0  0  0  0  0  0  0  0  0  0  0
   -3.8980    0.8123    0.5918 C   0  0  0  0  0  0  0  0  0  0  0  0
   -5.3795    0.8905    0.7527 C   0  0  0  0  0  0  0  0  0  0  0  0
   -6.0056    0.0965    1.7114 C   0  0  0  0  0  0  0  0  0  0  0  0
   -7.3566    0.1318    1.8111 C   0  0  0  0  0  0  0  0  0  0  0  0
   -8.1232    0.9236    0.9988 C   0  0  0  0  0  0  0  0  0  0  0  0
   -7.5218    1.7310    0.0308 C   0  0  0  0  0  0  0  0  0  0  0  0
   -8.3102    2.5284   -0.7761 C   0  0  0  0  0  0  0  0  0  0  0  0
   -7.7052    3.3263   -1.7236 C   0  0  0  0  0  0  0  0  0  0  0  0
   -6.3364    3.2935   -1.8237 C   0  0  0  0  0  0  0  0  0  0  0  0
   -5.5146    2.5110   -1.0377 C   0  0  0  0  0  0  0  0  0  0  0  0
   -6.1341    1.7006   -0.0772 C   0  0  0  0  0  0  0  0  0  0  0  0
   -4.1176   -1.3714   -0.5037 N   0  0  0  0  0  0  0  0  0  0  0  0
   -4.5472   -2.0556   -1.6207 C   0  0  0  0  0  0  0  0  0  0  0  0
   -4.3860   -1.5699   -2.7665 O   0  0  0  0  0  0  0  0  0  0  0  0
   -5.2027   -3.3736   -1.5301 C   0  0  0  0  0  0  0  0  0  0  0  0
   -6.0296   -3.6751   -2.7504 C   0  0  0  0  0  0  0  0  0  0  0  0
   -4.0867   -4.4562   -1.5131 C   0  0  0  0  0  0  0  0  0  0  0  0
   -6.0239   -3.5515   -0.3534 N   0  0  0  0  0  0  0  0  0  0  0  0
    9.9672   -2.6321    0.4071 H   0  0  0  0  0  0  0  0  0  0  0  0
   10.9554   -1.9215   -0.8867 H   0  0  0  0  0  0  0  0  0  0  0  0
   11.3824   -1.6196    0.8808 H   0  0  0  0  0  0  0  0  0  0  0  0
   11.1713    0.7815   -0.5492 H   0  0  0  0  0  0  0  0  0  0  0  0
    9.6524    2.7951   -0.4716 H   0  0  0  0  0  0  0  0  0  0  0  0
    7.4042    2.5632    0.2853 H   0  0  0  0  0  0  0  0  0  0  0  0
    8.0567   -1.6327    0.8963 H   0  0  0  0  0  0  0  0  0  0  0  0
    5.5865    1.7193    2.6400 H   0  0  0  0  0  0  0  0  0  0  0  0
    5.5470   -0.0428    3.1946 H   0  0  0  0  0  0  0  0  0  0  0  0
    7.0708    0.8058    2.9702 H   0  0  0  0  0  0  0  0  0  0  0  0
    6.2556   -1.5018   -0.0156 H   0  0  0  0  0  0  0  0  0  0  0  0
    4.6754   -1.3581    0.7512 H   0  0  0  0  0  0  0  0  0  0  0  0
    6.1279   -1.7768    1.7923 H   0  0  0  0  0  0  0  0  0  0  0  0
    3.1252   -0.0647    2.0230 H   0  0  0  0  0  0  0  0  0  0  0  0
    2.9890    1.6752    2.4113 H   0  0  0  0  0  0  0  0  0  0  0  0
    2.6367    1.5079   -1.2766 H   0  0  0  0  0  0  0  0  0  0  0  0
    2.7140    2.8911   -0.0559 H   0  0  0  0  0  0  0  0  0  0  0  0
    2.2174   -0.7944   -0.2336 H   0  0  0  0  0  0  0  0  0  0  0  0
    0.8271   -0.8502    0.9729 H   0  0  0  0  0  0  0  0  0  0  0  0
    0.7521    0.8419   -1.5470 H   0  0  0  0  0  0  0  0  0  0  0  0
    0.1835   -0.8995   -1.5906 H   0  0  0  0  0  0  0  0  0  0  0  0
   -1.2496    2.4846    0.1896 H   0  0  0  0  0  0  0  0  0  0  0  0
   -1.3779    1.2557    1.4985 H   0  0  0  0  0  0  0  0  0  0  0  0
    0.5876    1.9908    2.2149 H   0  0  0  0  0  0  0  0  0  0  0  0
    0.8147    2.9766    0.7742 H   0  0  0  0  0  0  0  0  0  0  0  0
   -3.8302    0.3621   -1.4980 H   0  0  0  0  0  0  0  0  0  0  0  0
   -3.5375    0.4024    1.5779 H   0  0  0  0  0  0  0  0  0  0  0  0
   -3.4603    1.8132    0.4968 H   0  0  0  0  0  0  0  0  0  0  0  0
   -5.3634   -0.5122    2.3330 H   0  0  0  0  0  0  0  0  0  0  0  0
   -7.8250   -0.4928    2.5609 H   0  0  0  0  0  0  0  0  0  0  0  0
   -9.2063    0.9540    1.0717 H   0  0  0  0  0  0  0  0  0  0  0  0
   -9.3817    2.5020   -0.6360 H   0  0  0  0  0  0  0  0  0  0  0  0
   -8.3247    3.9461   -2.3545 H   0  0  0  0  0  0  0  0  0  0  0  0
   -5.8258    3.9131   -2.5666 H   0  0  0  0  0  0  0  0  0  0  0  0
   -4.4440    2.5181   -1.1246 H   0  0  0  0  0  0  0  0  0  0  0  0
   -4.2370   -1.7783    0.4523 H   0  0  0  0  0  0  0  0  0  0  0  0
   -6.9179   -4.2704   -2.4197 H   0  0  0  0  0  0  0  0  0  0  0  0
   -5.4673   -4.3104   -3.4575 H   0  0  0  0  0  0  0  0  0  0  0  0
   -6.3867   -2.7307   -3.2458 H   0  0  0  0  0  0  0  0  0  0  0  0
   -3.3676   -4.1834   -2.2981 H   0  0  0  0  0  0  0  0  0  0  0  0
   -3.6101   -4.4253   -0.5016 H   0  0  0  0  0  0  0  0  0  0  0  0
   -4.5477   -5.4184   -1.7216 H   0  0  0  0  0  0  0  0  0  0  0  0
   -5.5331   -3.3089    0.5132 H   0  0  0  0  0  0  0  0  0  0  0  0
   -6.9780   -3.1661   -0.4462 H   0  0  0  0  0  0  0  0  0  0  0  0
  1  2  1  0
  2  3  2  0
  3  4  1  0
  4  5  2  0
  5  6  1  0
  6  7  2  0
  6  8  1  0
  8  9  1  0
  8 10  1  0
  8 11  1  0
 11 12  2  0
 11 13  1  0
 13 14  1  0
 14 15  1  0
 15 16  1  0
 15 17  1  0
 17 18  1  0
 18 19  1  0
 19 20  1  0
 20 21  1  0
 19 22  1  0
 22 23  2  0
 22 24  1  0
 24 25  1  0
 25 26  1  0
 26 27  2  0
 27 28  1  0
 28 29  2  0
 29 30  1  0
 30 31  2  0
 31 32  1  0
 32 33  2  0
 33 34  1  0
 34 35  2  0
 24 36  1  0
 36 37  1  0
 37 38  2  0
 37 39  1  0
 39 40  1  0
 39 41  1  0
 39 42  1  0
  7  2  1  0
 16 13  1  0
 35 26  1  0
 21 15  1  0
 35 30  1  0
  1 43  1  0
  1 44  1  0
  1 45  1  0
  3 46  1  0
  4 47  1  0
  5 48  1  0
  7 49  1  0
  9 50  1  0
  9 51  1  0
  9 52  1  0
 10 53  1  0
 10 54  1  0
 10 55  1  0
 14 56  1  0
 14 57  1  0
 16 58  1  0
 16 59  1  0
 17 60  1  0
 17 61  1  0
 18 62  1  0
 18 63  1  0
 20 64  1  0
 20 65  1  0
 21 66  1  0
 21 67  1  0
 24 68  1  0
 25 69  1  0
 25 70  1  0
 27 71  1  0
 28 72  1  0
 29 73  1  0
 31 74  1  0
 32 75  1  0
 33 76  1  0
 34 77  1  0
 36 78  1  0
 40 79  1  0
 40 80  1  0
 40 81  1  0
 41 82  1  0
 41 83  1  0
 41 84  1  0
 42 85  1  0
 42 86  1  0
M  END
$$$$
[H]OC(=O)c1nc(C(=O)c2c([H])c([H])c(OC([H])([H])c3c([H])c([H])c([H])c([H])c3[H])c([H])c2[H])c2c([H])c(O[H])c(O[H])c([H])c2c1[H]
     RDKit          3D

 48 51  0  0  0  0  0  0  0  0999 V2000
   -5.4708    3.5271    1.6945 O   0  0  0  0  0  0  0  0  0  0  0  0
   -4.3201    2.7852    1.6996 C   0  0  0  0  0  0  0  0  0  0  0  0
   -3.3068    3.2520    2.2928 O   0  0  0  0  0  0  0  0  0  0  0  0
   -4.2217    1.4635    1.0378 C   0  0  0  0  0  0  0  0  0  0  0  0
   -5.2966    0.9312    0.3767 C   0  0  0  0  0  0  0  0  0  0  0  0
   -5.2349   -0.2985   -0.2449 C   0  0  0  0  0  0  0  0  0  0  0  0
   -6.3254   -0.8141   -0.9113 C   0  0  0  0  0  0  0  0  0  0  0  0
   -6.2898   -2.0344   -1.5462 C   0  0  0  0  0  0  0  0  0  0  0  0
   -7.4031   -2.5410   -2.2152 O   0  0  0  0  0  0  0  0  0  0  0  0
   -5.1057   -2.7277   -1.4896 C   0  0  0  0  0  0  0  0  0  0  0  0
   -5.0696   -3.9574   -2.1295 O   0  0  0  0  0  0  0  0  0  0  0  0
   -4.0037   -2.2107   -0.8186 C   0  0  0  0  0  0  0  0  0  0  0  0
   -4.0191   -0.9914   -0.1743 C   0  0  0  0  0  0  0  0  0  0  0  0
   -2.9213   -0.4726    0.4907 C   0  0  0  0  0  0  0  0  0  0  0  0
   -3.1078    0.7488    1.0619 N   0  0  0  0  0  0  0  0  0  0  0  0
   -1.6778   -1.1907    0.6453 C   0  0  0  0  0  0  0  0  0  0  0  0
   -1.7577   -2.4478    0.9438 O   0  0  0  0  0  0  0  0  0  0  0  0
   -0.3336   -0.6902    0.5131 C   0  0  0  0  0  0  0  0  0  0  0  0
   -0.0418    0.6435    0.5545 C   0  0  0  0  0  0  0  0  0  0  0  0
    1.2727    1.1236    0.4541 C   0  0  0  0  0  0  0  0  0  0  0  0
    2.3099    0.2245    0.3080 C   0  0  0  0  0  0  0  0  0  0  0  0
    3.6149    0.6869    0.2116 O   0  0  0  0  0  0  0  0  0  0  0  0
    4.7188   -0.1845    0.0684 C   0  0  0  0  0  0  0  0  0  0  0  0
    6.0022    0.5445   -0.0033 C   0  0  0  0  0  0  0  0  0  0  0  0
    6.0438    1.8272   -0.5057 C   0  0  0  0  0  0  0  0  0  0  0  0
    7.2056    2.5614   -0.5906 C   0  0  0  0  0  0  0  0  0  0  0  0
    8.3824    1.9905   -0.1534 C   0  0  0  0  0  0  0  0  0  0  0  0
    8.3908    0.7135    0.3551 C   0  0  0  0  0  0  0  0  0  0  0  0
    7.2023    0.0151    0.4205 C   0  0  0  0  0  0  0  0  0  0  0  0
    2.0313   -1.1222    0.2627 C   0  0  0  0  0  0  0  0  0  0  0  0
    0.7297   -1.5546    0.3645 C   0  0  0  0  0  0  0  0  0  0  0  0
   -5.4589    4.5424    1.6232 H   0  0  0  0  0  0  0  0  0  0  0  0
   -6.2133    1.4889    0.3377 H   0  0  0  0  0  0  0  0  0  0  0  0
   -7.2495   -0.2648   -0.9520 H   0  0  0  0  0  0  0  0  0  0  0  0
   -7.3729   -3.4353   -2.6851 H   0  0  0  0  0  0  0  0  0  0  0  0
   -4.2911   -4.5758   -2.1768 H   0  0  0  0  0  0  0  0  0  0  0  0
   -3.0779   -2.7702   -0.8080 H   0  0  0  0  0  0  0  0  0  0  0  0
   -0.7704    1.4274    0.6640 H   0  0  0  0  0  0  0  0  0  0  0  0
    1.4831    2.1795    0.4925 H   0  0  0  0  0  0  0  0  0  0  0  0
    4.7725   -0.9248    0.9056 H   0  0  0  0  0  0  0  0  0  0  0  0
    4.5827   -0.7139   -0.8974 H   0  0  0  0  0  0  0  0  0  0  0  0
    5.1338    2.2831   -0.8528 H   0  0  0  0  0  0  0  0  0  0  0  0
    7.2155    3.5642   -0.9871 H   0  0  0  0  0  0  0  0  0  0  0  0
    9.3047    2.5475   -0.2081 H   0  0  0  0  0  0  0  0  0  0  0  0
    9.3439    0.2947    0.6919 H   0  0  0  0  0  0  0  0  0  0  0  0
    7.2285   -0.9936    0.8251 H   0  0  0  0  0  0  0  0  0  0  0  0
    2.8349   -1.8158    0.1457 H   0  0  0  0  0  0  0  0  0  0  0  0
    0.5373   -2.6340    0.3212 H   0  0  0  0  0  0  0  0  0  0  0  0
  1  2  1  0
  2  3  2  0
  2  4  1  0
  4  5  2  0
  5  6  1  0
  6  7  2  0
  7  8  1  0
  8  9  1  0
  8 10  2  0
 10 11  1  0
 10 12  1  0
 12 13  2  0
 13 14  1  0
 14 15  2  0
 14 16  1  0
 16 17  2  0
 16 18  1  0
 18 19  2  0
 19 20  1  0
 20 21  2  0
 21 22  1  0
 22 23  1  0
 23 24  1  0
 24 25  2  0
 25 26  1  0
 26 27  2  0
 27 28  1  0
 28 29  2  0
 21 30  1  0
 30 31  2  0
 15  4  1  0
 31 18  1  0
 13  6  1  0
 29 24  1  0
  1 32  1  0
  5 33  1  0
  7 34  1  0
  9 35  1  0
 11 36  1  0
 12 37  1  0
 19 38  1  0
 20 39  1  0
 23 40  1  0
 23 41  1  0
 25 42  1  0
 26 43  1  0
 27 44  1  0
 28 45  1  0
 29 46  1  0
 30 47  1  0
 31 48  1  0
M  END
$$$$
[H]c1nn(C([H])(F)F)c(-c2c([H])c([H])c(C(=O)N([H])c3sc(N([H])c4c([H])c([H])c5c([H])c([H])c([H])c([H])c5c4[H])nc3C(=O)N([H])[H])c([H])c2[N+](=O)[O-])c1[H]
     RDKit          3D

 56 60  0  0  0  0  0  0  0  0999 V2000
    4.2282   -0.5454   -0.9091 N   0  0  0  0  0  0  0  0  0  0  0  0
    2.8315   -0.4919   -1.1456 C   0  0  0  0  0  0  0  0  0  0  0  0
    2.5217   -0.5027   -2.4068 O   0  0  0  0  0  0  0  0  0  0  0  0
    1.8786   -0.4335   -0.1054 C   0  0  0  0  0  0  0  0  0  0  0  0
    2.2859   -0.6217    1.1590 N   0  0  0  0  0  0  0  0  0  0  0  0
    1.4934   -0.6454    2.1578 C   0  0  0  0  0  0  0  0  0  0  0  0
    1.7895   -0.8242    3.5296 N   0  0  0  0  0  0  0  0  0  0  0  0
    3.0517   -0.9816    4.1118 C   0  0  0  0  0  0  0  0  0  0  0  0
    4.2415   -0.9531    3.4584 C   0  0  0  0  0  0  0  0  0  0  0  0
    5.4865   -1.1244    4.1128 C   0  0  0  0  0  0  0  0  0  0  0  0
    5.5144   -1.3251    5.4552 C   0  0  0  0  0  0  0  0  0  0  0  0
    6.7458   -1.4779    6.0517 C   0  0  0  0  0  0  0  0  0  0  0  0
    6.8411   -1.6787    7.4248 C   0  0  0  0  0  0  0  0  0  0  0  0
    5.6510   -1.7143    8.1265 C   0  0  0  0  0  0  0  0  0  0  0  0
    4.4200   -1.5621    7.5327 C   0  0  0  0  0  0  0  0  0  0  0  0
    4.3302   -1.3589    6.1530 C   0  0  0  0  0  0  0  0  0  0  0  0
    3.1426   -1.1945    5.5103 C   0  0  0  0  0  0  0  0  0  0  0  0
   -0.0185   -0.3867    1.3951 S   0  0  0  0  0  0  0  0  0  0  0  0
    0.5294   -0.2622   -0.2466 C   0  0  0  0  0  0  0  0  0  0  0  0
   -0.2915   -0.0062   -1.4040 N   0  0  0  0  0  0  0  0  0  0  0  0
   -1.6604    0.1960   -1.1521 C   0  0  0  0  0  0  0  0  0  0  0  0
   -2.1098    0.1323    0.0492 O   0  0  0  0  0  0  0  0  0  0  0  0
   -2.6153    0.4832   -2.1954 C   0  0  0  0  0  0  0  0  0  0  0  0
   -3.5390    1.5260   -1.9020 C   0  0  0  0  0  0  0  0  0  0  0  0
   -4.4635    1.7828   -2.8410 C   0  0  0  0  0  0  0  0  0  0  0  0
   -4.5725    1.0981   -4.0664 C   0  0  0  0  0  0  0  0  0  0  0  0
   -5.6983    1.4909   -4.8973 C   0  0  0  0  0  0  0  0  0  0  0  0
   -7.0396    1.2006   -4.5704 C   0  0  0  0  0  0  0  0  0  0  0  0
   -7.8756    1.8272   -5.4882 C   0  0  0  0  0  0  0  0  0  0  0  0
   -7.0517    2.4541   -6.3097 N   0  0  0  0  0  0  0  0  0  0  0  0
   -5.7664    2.2701   -5.9793 N   0  0  0  0  0  0  0  0  0  0  0  0
   -4.6885    2.9198   -6.6923 C   0  0  0  0  0  0  0  0  0  0  0  0
   -4.2348    3.9943   -5.9072 F   0  0  0  0  0  0  0  0  0  0  0  0
   -5.1322    3.4787   -7.8712 F   0  0  0  0  0  0  0  0  0  0  0  0
   -3.6836    0.0962   -4.3393 C   0  0  0  0  0  0  0  0  0  0  0  0
   -2.6983   -0.1801   -3.3527 C   0  0  0  0  0  0  0  0  0  0  0  0
   -3.7397   -0.7454   -5.4593 N   0  0  0  0  0  0  0  0  0  0  0  0
   -3.3534   -2.0811   -5.2462 O   0  0  0  0  0  0  0  0  0  0  0  0
   -4.0966   -0.4645   -6.5714 O   0  0  0  0  0  0  0  0  0  0  0  0
    4.6420   -0.3602    0.0538 H   0  0  0  0  0  0  0  0  0  0  0  0
    4.9580   -0.7559   -1.6198 H   0  0  0  0  0  0  0  0  0  0  0  0
    0.9365   -0.8328    4.1630 H   0  0  0  0  0  0  0  0  0  0  0  0
    4.2971   -0.7929    2.3954 H   0  0  0  0  0  0  0  0  0  0  0  0
    6.3952   -1.0937    3.5281 H   0  0  0  0  0  0  0  0  0  0  0  0
    7.6428   -1.4462    5.4533 H   0  0  0  0  0  0  0  0  0  0  0  0
    7.8019   -1.7998    7.9131 H   0  0  0  0  0  0  0  0  0  0  0  0
    5.7212   -1.8686    9.1888 H   0  0  0  0  0  0  0  0  0  0  0  0
    3.4859   -1.5911    8.0778 H   0  0  0  0  0  0  0  0  0  0  0  0
    2.2285   -1.2312    6.0639 H   0  0  0  0  0  0  0  0  0  0  0  0
    0.0726    0.0380   -2.3619 H   0  0  0  0  0  0  0  0  0  0  0  0
   -3.4599    2.0522   -0.9658 H   0  0  0  0  0  0  0  0  0  0  0  0
   -5.1987    2.5895   -2.6508 H   0  0  0  0  0  0  0  0  0  0  0  0
   -7.3518    0.5901   -3.7448 H   0  0  0  0  0  0  0  0  0  0  0  0
   -8.9647    1.8250   -5.5430 H   0  0  0  0  0  0  0  0  0  0  0  0
   -3.8502    2.2776   -6.9467 H   0  0  0  0  0  0  0  0  0  0  0  0
   -2.0100   -0.9887   -3.6265 H   0  0  0  0  0  0  0  0  0  0  0  0
  1  2  1  0
  2  3  2  0
  2  4  1  0
  4  5  1  0
  5  6  2  0
  6  7  1  0
  7  8  1  0
  8  9  2  0
  9 10  1  0
 10 11  2  0
 11 12  1  0
 12 13  2  0
 13 14  1  0
 14 15  2  0
 15 16  1  0
 16 17  2  0
  6 18  1  0
 18 19  1  0
 19 20  1  0
 20 21  1  0
 21 22  2  0
 21 23  1  0
 23 24  2  0
 24 25  1  0
 25 26  2  0
 26 27  1  0
 27 28  2  0
 28 29  1  0
 29 30  2  0
 30 31  1  0
 31 32  1  0
 32 33  1  0
 32 34  1  0
 26 35  1  0
 35 36  2  0
 35 37  1  0
 37 38  1  0
 37 39  2  0
 19  4  2  0
 36 23  1  0
 17  8  1  0
 31 27  1  0
 16 11  1  0
  1 40  1  0
  1 41  1  0
  7 42  1  0
  9 43  1  0
 10 44  1  0
 12 45  1  0
 13 46  1  0
 14 47  1  0
 15 48  1  0
 17 49  1  0
 20 50  1  0
 24 51  1  0
 25 52  1  0
 28 53  1  0
 29 54  1  0
 32 55  1  0
 36 56  1  0
M  CHG  2  37   1  38  -1
M  END
$$$$
[H]c1c([H])c([H])c2c(c1[H])N(C(=O)C([H])([H])c1c([H])c([H])c([H])c(C(F)(F)F)c1[H])C([H])([H])C([H])(C([H])([H])[H])C([H])([H])C2([H])C([H])([H])[H]
     RDKit          3D

 48 50  0  0  0  0  0  0  0  0999 V2000
   -5.0257   -0.2180    1.2717 C   0  0  0  0  0  0  0  0  0  0  0  0
   -3.6093    0.0185    0.9887 C   0  0  0  0  0  0  0  0  0  0  0  0
   -3.2373    1.4861    1.0205 C   0  0  0  0  0  0  0  0  0  0  0  0
   -1.8111    1.7877    1.0663 C   0  0  0  0  0  0  0  0  0  0  0  0
   -1.3618    2.4829   -0.2104 C   0  0  0  0  0  0  0  0  0  0  0  0
   -0.8211    0.7446    1.3831 C   0  0  0  0  0  0  0  0  0  0  0  0
   -0.6430   -0.1730    0.2311 N   0  0  0  0  0  0  0  0  0  0  0  0
    0.6304   -0.7246    0.0380 C   0  0  0  0  0  0  0  0  0  0  0  0
    0.9221   -1.6897   -0.6315 O   0  0  0  0  0  0  0  0  0  0  0  0
    1.7369   -0.0178    0.7538 C   0  0  0  0  0  0  0  0  0  0  0  0
    3.0792   -0.5755    0.4931 C   0  0  0  0  0  0  0  0  0  0  0  0
    3.5437   -1.7598    0.9720 C   0  0  0  0  0  0  0  0  0  0  0  0
    4.8617   -2.1478    0.7385 C   0  0  0  0  0  0  0  0  0  0  0  0
    5.7406   -1.3572    0.0142 C   0  0  0  0  0  0  0  0  0  0  0  0
    5.2821   -0.1527   -0.4818 C   0  0  0  0  0  0  0  0  0  0  0  0
    3.9944    0.2044   -0.2399 C   0  0  0  0  0  0  0  0  0  0  0  0
    6.2408    0.6799   -1.2519 C   0  0  0  0  0  0  0  0  0  0  0  0
    7.4366    0.7573   -0.5267 F   0  0  0  0  0  0  0  0  0  0  0  0
    6.4721    0.1428   -2.5049 F   0  0  0  0  0  0  0  0  0  0  0  0
    5.6942    1.9185   -1.3908 F   0  0  0  0  0  0  0  0  0  0  0  0
   -1.7201   -0.5461   -0.5979 C   0  0  0  0  0  0  0  0  0  0  0  0
   -1.3241   -0.9967   -1.8357 C   0  0  0  0  0  0  0  0  0  0  0  0
   -2.2918   -1.4006   -2.7326 C   0  0  0  0  0  0  0  0  0  0  0  0
   -3.6554   -1.3654   -2.4347 C   0  0  0  0  0  0  0  0  0  0  0  0
   -4.0482   -0.9138   -1.2112 C   0  0  0  0  0  0  0  0  0  0  0  0
   -3.0959   -0.5136   -0.3121 C   0  0  0  0  0  0  0  0  0  0  0  0
   -5.6765    0.6681    1.0167 H   0  0  0  0  0  0  0  0  0  0  0  0
   -5.4771   -1.1577    0.9050 H   0  0  0  0  0  0  0  0  0  0  0  0
   -5.1867   -0.2921    2.4034 H   0  0  0  0  0  0  0  0  0  0  0  0
   -2.9755   -0.4688    1.7846 H   0  0  0  0  0  0  0  0  0  0  0  0
   -3.7625    1.9627    0.1685 H   0  0  0  0  0  0  0  0  0  0  0  0
   -3.7371    1.8920    1.9308 H   0  0  0  0  0  0  0  0  0  0  0  0
   -1.6332    2.6019    1.8623 H   0  0  0  0  0  0  0  0  0  0  0  0
   -0.2477    2.5270   -0.1999 H   0  0  0  0  0  0  0  0  0  0  0  0
   -1.7507    2.0268   -1.1258 H   0  0  0  0  0  0  0  0  0  0  0  0
   -1.7189    3.5520   -0.1564 H   0  0  0  0  0  0  0  0  0  0  0  0
    0.1317    1.2466    1.6264 H   0  0  0  0  0  0  0  0  0  0  0  0
   -1.0719    0.1345    2.2873 H   0  0  0  0  0  0  0  0  0  0  0  0
    1.7430    1.0828    0.5291 H   0  0  0  0  0  0  0  0  0  0  0  0
    1.5312   -0.1798    1.8396 H   0  0  0  0  0  0  0  0  0  0  0  0
    2.9118   -2.4253    1.5153 H   0  0  0  0  0  0  0  0  0  0  0  0
    5.2881   -3.0759    1.1170 H   0  0  0  0  0  0  0  0  0  0  0  0
    6.7715   -1.6303   -0.1731 H   0  0  0  0  0  0  0  0  0  0  0  0
    3.6323    1.1577   -0.6186 H   0  0  0  0  0  0  0  0  0  0  0  0
   -0.2833   -0.9813   -2.0878 H   0  0  0  0  0  0  0  0  0  0  0  0
   -1.9982   -1.7581   -3.6984 H   0  0  0  0  0  0  0  0  0  0  0  0
   -4.3907   -1.6888   -3.1514 H   0  0  0  0  0  0  0  0  0  0  0  0
   -5.0897   -0.8643   -0.9707 H   0  0  0  0  0  0  0  0  0  0  0  0
  1  2  1  0
  2  3  1  0
  3  4  1  0
  4  5  1  0
  4  6  1  0
  6  7  1  0
  7  8  1  0
  8  9  2  0
  8 10  1  0
 10 11  1  0
 11 12  2  0
 12 13  1  0
 13 14  2  0
 14 15  1  0
 15 16  2  0
 15 17  1  0
 17 18  1  0
 17 19  1  0
 17 20  1  0
  7 21  1  0
 21 22  2  0
 22 23  1  0
 23 24  2  0
 24 25  1  0
 25 26  2  0
 26  2  1  0
 16 11  1  0
 26 21  1  0
  1 27  1  0
  1 28  1  0
  1 29  1  0
  2 30  1  0
  3 31  1  0
  3 32  1  0
  4 33  1  0
  5 34  1  0
  5 35  1  0
  5 36  1  0
  6 37  1  0
  6 38  1  0
 10 39  1  0
 10 40  1  0
 12 41  1  0
 13 42  1  0
 14 43  1  0
 16 44  1  0
 22 45  1  0
 23 46  1  0
 24 47  1  0
 25 48  1  0
M  END
$$$$
[H]c1c([H])c([H])c(N(C(=O)[C@@]2([H])O[C@@]([H])(C(=O)C([H])([H])F)C([H])([H])[C@@]2([H])OC([H])([H])[H])C([H])([H])c2c([H])c([H])c([H])c([H])c2[H])c([H])c1[H]
     RDKit          3D

 49 51  0  0  0  0  0  0  0  0999 V2000
    2.7988   -2.9745   -1.8899 C   0  0  0  0  0  0  0  0  0  0  0  0
    2.0472   -2.1697   -1.0417 O   0  0  0  0  0  0  0  0  0  0  0  0
    2.4273   -0.8521   -1.0788 C   0  0  2  0  0  0  0  0  0  0  0  0
    2.9434   -0.3081    0.2358 C   0  0  0  0  0  0  0  0  0  0  0  0
    2.6461    1.1892    0.0370 C   0  0  1  0  0  0  0  0  0  0  0  0
    1.3468    1.1306   -0.4624 O   0  0  0  0  0  0  0  0  0  0  0  0
    1.3143    0.1070   -1.3730 C   0  0  2  0  0  0  0  0  0  0  0  0
    0.0259   -0.5104   -1.6445 C   0  0  0  0  0  0  0  0  0  0  0  0
   -0.0114   -1.6010   -2.3401 O   0  0  0  0  0  0  0  0  0  0  0  0
   -1.2211   -0.0266   -1.2134 N   0  0  0  0  0  0  0  0  0  0  0  0
   -2.4451   -0.8181   -1.2478 C   0  0  0  0  0  0  0  0  0  0  0  0
   -2.7705   -1.5257   -0.0199 C   0  0  0  0  0  0  0  0  0  0  0  0
   -1.9030   -2.4006    0.5661 C   0  0  0  0  0  0  0  0  0  0  0  0
   -2.1996   -3.0894    1.7386 C   0  0  0  0  0  0  0  0  0  0  0  0
   -3.4092   -2.9119    2.3714 C   0  0  0  0  0  0  0  0  0  0  0  0
   -4.3069   -2.0284    1.7956 C   0  0  0  0  0  0  0  0  0  0  0  0
   -3.9964   -1.3535    0.6325 C   0  0  0  0  0  0  0  0  0  0  0  0
   -1.3470    1.2711   -0.6829 C   0  0  0  0  0  0  0  0  0  0  0  0
   -1.6136    1.4918    0.6394 C   0  0  0  0  0  0  0  0  0  0  0  0
   -1.7655    2.7938    1.1408 C   0  0  0  0  0  0  0  0  0  0  0  0
   -1.6271    3.8011    0.2167 C   0  0  0  0  0  0  0  0  0  0  0  0
   -1.3596    3.5992   -1.1094 C   0  0  0  0  0  0  0  0  0  0  0  0
   -1.2179    2.3136   -1.5649 C   0  0  0  0  0  0  0  0  0  0  0  0
    2.7426    1.9146    1.3174 C   0  0  0  0  0  0  0  0  0  0  0  0
    1.7437    2.3601    1.8354 O   0  0  0  0  0  0  0  0  0  0  0  0
    4.0504    2.1304    2.0213 C   0  0  0  0  0  0  0  0  0  0  0  0
    3.8732    2.8438    3.1821 F   0  0  0  0  0  0  0  0  0  0  0  0
    2.4107   -4.0134   -1.7756 H   0  0  0  0  0  0  0  0  0  0  0  0
    3.8504   -2.9691   -1.6041 H   0  0  0  0  0  0  0  0  0  0  0  0
    2.6186   -2.6495   -2.9402 H   0  0  0  0  0  0  0  0  0  0  0  0
    3.2843   -0.7649   -1.8080 H   0  0  0  0  0  0  0  0  0  0  0  0
    2.3677   -0.6882    1.0949 H   0  0  0  0  0  0  0  0  0  0  0  0
    4.0384   -0.4648    0.3554 H   0  0  0  0  0  0  0  0  0  0  0  0
    3.3628    1.6114   -0.6978 H   0  0  0  0  0  0  0  0  0  0  0  0
    1.6155    0.5980   -2.3605 H   0  0  0  0  0  0  0  0  0  0  0  0
   -2.3229   -1.5123   -2.1324 H   0  0  0  0  0  0  0  0  0  0  0  0
   -3.3248   -0.1856   -1.5297 H   0  0  0  0  0  0  0  0  0  0  0  0
   -0.9419   -2.5804    0.1234 H   0  0  0  0  0  0  0  0  0  0  0  0
   -1.4994   -3.7796    2.1878 H   0  0  0  0  0  0  0  0  0  0  0  0
   -3.6662   -3.4318    3.2805 H   0  0  0  0  0  0  0  0  0  0  0  0
   -5.2714   -1.8863    2.2982 H   0  0  0  0  0  0  0  0  0  0  0  0
   -4.7344   -0.6735    0.2290 H   0  0  0  0  0  0  0  0  0  0  0  0
   -1.7208    0.6926    1.3591 H   0  0  0  0  0  0  0  0  0  0  0  0
   -1.9752    2.9957    2.1814 H   0  0  0  0  0  0  0  0  0  0  0  0
   -1.7355    4.8231    0.5501 H   0  0  0  0  0  0  0  0  0  0  0  0
   -1.2565    4.4307   -1.8104 H   0  0  0  0  0  0  0  0  0  0  0  0
   -1.0069    2.1353   -2.5944 H   0  0  0  0  0  0  0  0  0  0  0  0
    4.6378    2.7863    1.3360 H   0  0  0  0  0  0  0  0  0  0  0  0
    4.5038    1.1498    2.1959 H   0  0  0  0  0  0  0  0  0  0  0  0
  1  2  1  0
  2  3  1  0
  3  4  1  0
  4  5  1  0
  5  6  1  0
  6  7  1  0
  7  8  1  0
  8  9  2  0
  8 10  1  0
 10 11  1  0
 11 12  1  0
 12 13  2  0
 13 14  1  0
 14 15  2  0
 15 16  1  0
 16 17  2  0
 10 18  1  0
 18 19  2  0
 19 20  1  0
 20 21  2  0
 21 22  1  0
 22 23  2  0
  5 24  1  0
 24 25  2  0
 24 26  1  0
 26 27  1  0
  7  3  1  0
 17 12  1  0
 23 18  1  0
  1 28  1  0
  1 29  1  0
  1 30  1  0
  3 31  1  6
  4 32  1  0
  4 33  1  0
  5 34  1  6
  7 35  1  6
 11 36  1  0
 11 37  1  0
 13 38  1  0
 14 39  1  0
 15 40  1  0
 16 41  1  0
 17 42  1  0
 19 43  1  0
 20 44  1  0
 21 45  1  0
 22 46  1  0
 23 47  1  0
 26 48  1  0
 26 49  1  0
M  END
$$$$
[H]ON([H])C(=O)[C@@]([H])(N([H])C(=O)[C@@]([H])(C([H])([H])C([H])(C([H])([H])[H])C([H])([H])[H])[C@]([H])(OC(=O)N([H])C([H])([H])[H])c1c([H])c([H])c([H])c([H])c1[H])[C@]([H])(C(=O)N([H])C([H])([H])C([H])([H])c1nc([H])c([H])c([H])c1[H])C([H])([H])C([H])(C([H])([H])[H])C([H])([H])[H]
     RDKit          3D

 84 85  0  0  0  0  0  0  0  0999 V2000
   -4.7927    5.1207   -2.0876 C   0  0  0  0  0  0  0  0  0  0  0  0
   -4.8460    4.0761   -1.0608 N   0  0  0  0  0  0  0  0  0  0  0  0
   -4.2971    2.8000   -1.2896 C   0  0  0  0  0  0  0  0  0  0  0  0
   -3.7507    2.5629   -2.3930 O   0  0  0  0  0  0  0  0  0  0  0  0
   -4.3440    1.7910   -0.3472 O   0  0  0  0  0  0  0  0  0  0  0  0
   -3.8358    0.4964   -0.4828 C   0  0  1  0  0  0  0  0  0  0  0  0
   -2.9207   -0.0099    0.5806 C   0  0  2  0  0  0  0  0  0  0  0  0
   -3.5658    0.0559    1.9243 C   0  0  0  0  0  0  0  0  0  0  0  0
   -2.7940   -0.4371    3.0980 C   0  0  0  0  0  0  0  0  0  0  0  0
   -3.7343   -0.2634    4.3275 C   0  0  0  0  0  0  0  0  0  0  0  0
   -1.5241    0.1779    3.4789 C   0  0  0  0  0  0  0  0  0  0  0  0
   -1.5640    0.4852    0.4216 C   0  0  0  0  0  0  0  0  0  0  0  0
   -1.2023    1.5884    0.8315 O   0  0  0  0  0  0  0  0  0  0  0  0
   -0.6196   -0.3753   -0.2381 N   0  0  0  0  0  0  0  0  0  0  0  0
    0.7512   -0.1207   -0.4405 C   0  0  1  0  0  0  0  0  0  0  0  0
    1.7388   -1.2651   -0.2522 C   0  0  1  0  0  0  0  0  0  0  0  0
    1.6073   -2.3406   -1.2206 C   0  0  0  0  0  0  0  0  0  0  0  0
    2.4112   -3.5753   -1.2271 C   0  0  0  0  0  0  0  0  0  0  0  0
    2.3805   -4.4490   -0.0190 C   0  0  0  0  0  0  0  0  0  0  0  0
    3.7820   -3.4772   -1.8251 C   0  0  0  0  0  0  0  0  0  0  0  0
    2.9874   -0.7084    0.1713 C   0  0  0  0  0  0  0  0  0  0  0  0
    2.9767    0.6148    0.1575 O   0  0  0  0  0  0  0  0  0  0  0  0
    4.2150   -1.2184    0.6107 N   0  0  0  0  0  0  0  0  0  0  0  0
    5.2526   -0.2454    0.9973 C   0  0  0  0  0  0  0  0  0  0  0  0
    5.7057    0.6636   -0.0595 C   0  0  0  0  0  0  0  0  0  0  0  0
    6.6026    1.6976    0.5398 C   0  0  0  0  0  0  0  0  0  0  0  0
    5.9834    2.8594    1.0371 C   0  0  0  0  0  0  0  0  0  0  0  0
    6.6859    3.8737    1.6188 C   0  0  0  0  0  0  0  0  0  0  0  0
    8.0400    3.7636    1.7214 C   0  0  0  0  0  0  0  0  0  0  0  0
    8.6539    2.6075    1.2239 C   0  0  0  0  0  0  0  0  0  0  0  0
    7.9145    1.6129    0.6510 N   0  0  0  0  0  0  0  0  0  0  0  0
    0.8889    0.6543   -1.7184 C   0  0  0  0  0  0  0  0  0  0  0  0
    1.2448    1.8708   -1.6252 O   0  0  0  0  0  0  0  0  0  0  0  0
    0.6213    0.0156   -2.9417 N   0  0  0  0  0  0  0  0  0  0  0  0
    0.3851   -0.5458   -4.0352 O   0  0  0  0  0  0  0  0  0  0  0  0
   -4.9502   -0.4734   -0.8366 C   0  0  0  0  0  0  0  0  0  0  0  0
   -6.1308   -0.4851   -0.1761 C   0  0  0  0  0  0  0  0  0  0  0  0
   -7.1075   -1.3883   -0.5806 C   0  0  0  0  0  0  0  0  0  0  0  0
   -6.8989   -2.2852   -1.6401 C   0  0  0  0  0  0  0  0  0  0  0  0
   -5.6968   -2.2745   -2.3140 C   0  0  0  0  0  0  0  0  0  0  0  0
   -4.7517   -1.3676   -1.8929 C   0  0  0  0  0  0  0  0  0  0  0  0
   -4.2009    5.9408   -1.7417 H   0  0  0  0  0  0  0  0  0  0  0  0
   -5.8570    5.3389   -2.3687 H   0  0  0  0  0  0  0  0  0  0  0  0
   -4.3669    4.6510   -3.0270 H   0  0  0  0  0  0  0  0  0  0  0  0
   -5.2907    4.2633   -0.1438 H   0  0  0  0  0  0  0  0  0  0  0  0
   -3.2329    0.5586   -1.4735 H   0  0  0  0  0  0  0  0  0  0  0  0
   -2.9043   -1.1637    0.3173 H   0  0  0  0  0  0  0  0  0  0  0  0
   -3.9777    1.0701    2.0975 H   0  0  0  0  0  0  0  0  0  0  0  0
   -4.4633   -0.6315    1.8620 H   0  0  0  0  0  0  0  0  0  0  0  0
   -2.6438   -1.5463    2.9801 H   0  0  0  0  0  0  0  0  0  0  0  0
   -3.3876    0.6195    4.9593 H   0  0  0  0  0  0  0  0  0  0  0  0
   -4.7463   -0.0363    3.9853 H   0  0  0  0  0  0  0  0  0  0  0  0
   -3.6835   -1.1459    4.9778 H   0  0  0  0  0  0  0  0  0  0  0  0
   -1.5370    1.2804    3.5905 H   0  0  0  0  0  0  0  0  0  0  0  0
   -0.6395   -0.2272    2.9453 H   0  0  0  0  0  0  0  0  0  0  0  0
   -1.3167   -0.1722    4.5693 H   0  0  0  0  0  0  0  0  0  0  0  0
   -0.9785   -1.3079   -0.6103 H   0  0  0  0  0  0  0  0  0  0  0  0
    0.9988    0.6952    0.3296 H   0  0  0  0  0  0  0  0  0  0  0  0
    1.2966   -1.6741    0.7953 H   0  0  0  0  0  0  0  0  0  0  0  0
    0.5537   -2.6186   -1.4982 H   0  0  0  0  0  0  0  0  0  0  0  0
    1.9471   -1.8381   -2.2376 H   0  0  0  0  0  0  0  0  0  0  0  0
    1.8858   -4.2985   -2.0397 H   0  0  0  0  0  0  0  0  0  0  0  0
    1.3279   -4.7768    0.1872 H   0  0  0  0  0  0  0  0  0  0  0  0
    2.9258   -5.3948   -0.3312 H   0  0  0  0  0  0  0  0  0  0  0  0
    2.9126   -4.0852    0.8469 H   0  0  0  0  0  0  0  0  0  0  0  0
    4.5540   -3.7652   -1.1024 H   0  0  0  0  0  0  0  0  0  0  0  0
    3.9410   -2.3981   -2.1697 H   0  0  0  0  0  0  0  0  0  0  0  0
    3.9458   -4.0871   -2.7360 H   0  0  0  0  0  0  0  0  0  0  0  0
    4.4346   -2.2010    0.7162 H   0  0  0  0  0  0  0  0  0  0  0  0
    6.1647   -0.8114    1.3600 H   0  0  0  0  0  0  0  0  0  0  0  0
    4.8743    0.3147    1.8533 H   0  0  0  0  0  0  0  0  0  0  0  0
    5.0032    1.1551   -0.7067 H   0  0  0  0  0  0  0  0  0  0  0  0
    6.4209    0.0611   -0.7391 H   0  0  0  0  0  0  0  0  0  0  0  0
    4.8989    2.9042    0.9236 H   0  0  0  0  0  0  0  0  0  0  0  0
    6.1850    4.7684    2.0013 H   0  0  0  0  0  0  0  0  0  0  0  0
    8.6018    4.5666    2.1874 H   0  0  0  0  0  0  0  0  0  0  0  0
    9.7118    2.5561    1.3050 H   0  0  0  0  0  0  0  0  0  0  0  0
    1.0007    1.1115   -3.6308 H   0  0  0  0  0  0  0  0  0  0  0  0
   -0.4138   -1.2029   -3.9911 H   0  0  0  0  0  0  0  0  0  0  0  0
   -6.3632    0.1848    0.6801 H   0  0  0  0  0  0  0  0  0  0  0  0
   -8.0502   -1.4319   -0.0919 H   0  0  0  0  0  0  0  0  0  0  0  0
   -7.6947   -2.9776   -1.9296 H   0  0  0  0  0  0  0  0  0  0  0  0
   -5.5404   -2.9696   -3.1423 H   0  0  0  0  0  0  0  0  0  0  0  0
   -3.7977   -1.3609   -2.4457 H   0  0  0  0  0  0  0  0  0  0  0  0
  1  2  1  0
  2  3  1  0
  3  4  2  0
  3  5  1  0
  5  6  1  0
  6  7  1  0
  7  8  1  0
  8  9  1  0
  9 10  1  0
  9 11  1  0
  7 12  1  0
 12 13  2  0
 12 14  1  0
 14 15  1  0
 15 16  1  0
 16 17  1  0
 17 18  1  0
 18 19  1  0
 18 20  1  0
 16 21  1  0
 21 22  2  0
 21 23  1  0
 23 24  1  0
 24 25  1  0
 25 26  1  0
 26 27  2  0
 27 28  1  0
 28 29  2  0
 29 30  1  0
 30 31  2  0
 15 32  1  0
 32 33  2  0
 32 34  1  0
 34 35  1  0
  6 36  1  0
 36 37  2  0
 37 38  1  0
 38 39  2  0
 39 40  1  0
 40 41  2  0
 31 26  1  0
 41 36  1  0
  1 42  1  0
  1 43  1  0
  1 44  1  0
  2 45  1  0
  6 46  1  6
  7 47  1  6
  8 48  1  0
  8 49  1  0
  9 50  1  0
 10 51  1  0
 10 52  1  0
 10 53  1  0
 11 54  1  0
 11 55  1  0
 11 56  1  0
 14 57  1  0
 15 58  1  1
 16 59  1  1
 17 60  1  0
 17 61  1  0
 18 62  1  0
 19 63  1  0
 19 64  1  0
 19 65  1  0
 20 66  1  0
 20 67  1  0
 20 68  1  0
 23 69  1  0
 24 70  1  0
 24 71  1  0
 25 72  1  0
 25 73  1  0
 27 74  1  0
 28 75  1  0
 29 76  1  0
 30 77  1  0
 34 78  1  0
 35 79  1  0
 37 80  1  0
 38 81  1  0
 39 82  1  0
 40 83  1  0
 41 84  1  0
M  END
$$$$
[H]c1c([H])c([H])c(C2=C(c3c([H])c([H])c(C([H])([H])OC([H])([H])C([H])(c4c([H])c([H])c([H])c([H])c4[H])c4c([H])c([H])c([H])c([H])c4[H])c([H])c3[H])C(=O)N([H])C2=O)c([H])c1[H]
     RDKit          3D

 60 64  0  0  0  0  0  0  0  0999 V2000
    6.5267   -3.5102    0.2218 O   0  0  0  0  0  0  0  0  0  0  0  0
    5.3345   -3.1963    0.4338 C   0  0  0  0  0  0  0  0  0  0  0  0
    4.3112   -4.1003    0.7912 N   0  0  0  0  0  0  0  0  0  0  0  0
    3.1479   -3.2949    0.9227 C   0  0  0  0  0  0  0  0  0  0  0  0
    2.0005   -3.7290    1.2371 O   0  0  0  0  0  0  0  0  0  0  0  0
    3.5278   -1.9110    0.6321 C   0  0  0  0  0  0  0  0  0  0  0  0
    4.8080   -1.8149    0.3412 C   0  0  0  0  0  0  0  0  0  0  0  0
    5.6367   -0.6579    0.0252 C   0  0  0  0  0  0  0  0  0  0  0  0
    5.5514    0.5218    0.7091 C   0  0  0  0  0  0  0  0  0  0  0  0
    6.3123    1.6447    0.4425 C   0  0  0  0  0  0  0  0  0  0  0  0
    7.2242    1.5601   -0.5927 C   0  0  0  0  0  0  0  0  0  0  0  0
    7.3582    0.3875   -1.3255 C   0  0  0  0  0  0  0  0  0  0  0  0
    6.5718   -0.7069   -1.0172 C   0  0  0  0  0  0  0  0  0  0  0  0
    2.5674   -0.8455    0.6408 C   0  0  0  0  0  0  0  0  0  0  0  0
    1.6915   -0.7266    1.6856 C   0  0  0  0  0  0  0  0  0  0  0  0
    0.7539    0.2650    1.6860 C   0  0  0  0  0  0  0  0  0  0  0  0
    0.6706    1.1653    0.6343 C   0  0  0  0  0  0  0  0  0  0  0  0
   -0.3520    2.2282    0.6634 C   0  0  0  0  0  0  0  0  0  0  0  0
   -1.4319    1.9055   -0.1055 O   0  0  0  0  0  0  0  0  0  0  0  0
   -2.0378    0.7365    0.3410 C   0  0  0  0  0  0  0  0  0  0  0  0
   -3.2316    0.4895   -0.5681 C   0  0  0  0  0  0  0  0  0  0  0  0
   -4.2028    1.5869   -0.5270 C   0  0  0  0  0  0  0  0  0  0  0  0
   -4.5362    2.2734    0.6283 C   0  0  0  0  0  0  0  0  0  0  0  0
   -5.4723    3.3002    0.5436 C   0  0  0  0  0  0  0  0  0  0  0  0
   -6.0640    3.6443   -0.6379 C   0  0  0  0  0  0  0  0  0  0  0  0
   -5.7382    2.9618   -1.8108 C   0  0  0  0  0  0  0  0  0  0  0  0
   -4.8195    1.9594   -1.7075 C   0  0  0  0  0  0  0  0  0  0  0  0
   -3.8579   -0.8222   -0.2517 C   0  0  0  0  0  0  0  0  0  0  0  0
   -4.5690   -1.4644   -1.2594 C   0  0  0  0  0  0  0  0  0  0  0  0
   -5.1440   -2.6680   -0.9837 C   0  0  0  0  0  0  0  0  0  0  0  0
   -5.0688   -3.3031    0.2411 C   0  0  0  0  0  0  0  0  0  0  0  0
   -4.3570   -2.6412    1.2176 C   0  0  0  0  0  0  0  0  0  0  0  0
   -3.7579   -1.4153    0.9767 C   0  0  0  0  0  0  0  0  0  0  0  0
    1.5629    1.0349   -0.4183 C   0  0  0  0  0  0  0  0  0  0  0  0
    2.5117    0.0356   -0.4227 C   0  0  0  0  0  0  0  0  0  0  0  0
    4.3985   -5.1338    0.9272 H   0  0  0  0  0  0  0  0  0  0  0  0
    4.8609    0.6151    1.5199 H   0  0  0  0  0  0  0  0  0  0  0  0
    6.1903    2.5422    1.0240 H   0  0  0  0  0  0  0  0  0  0  0  0
    7.8162    2.4501   -0.7916 H   0  0  0  0  0  0  0  0  0  0  0  0
    8.0884    0.3755   -2.1241 H   0  0  0  0  0  0  0  0  0  0  0  0
    6.6926   -1.5977   -1.5940 H   0  0  0  0  0  0  0  0  0  0  0  0
    1.7407   -1.4109    2.5065 H   0  0  0  0  0  0  0  0  0  0  0  0
    0.0333    0.3832    2.5185 H   0  0  0  0  0  0  0  0  0  0  0  0
   -0.6852    2.4028    1.7079 H   0  0  0  0  0  0  0  0  0  0  0  0
    0.1609    3.1605    0.3248 H   0  0  0  0  0  0  0  0  0  0  0  0
   -1.3635   -0.1463    0.2009 H   0  0  0  0  0  0  0  0  0  0  0  0
   -2.4049    0.8405    1.3818 H   0  0  0  0  0  0  0  0  0  0  0  0
   -2.8357    0.4034   -1.6179 H   0  0  0  0  0  0  0  0  0  0  0  0
   -4.0700    2.0028    1.5663 H   0  0  0  0  0  0  0  0  0  0  0  0
   -5.7255    3.8278    1.4409 H   0  0  0  0  0  0  0  0  0  0  0  0
   -6.7830    4.4512   -0.6359 H   0  0  0  0  0  0  0  0  0  0  0  0
   -6.2205    3.2617   -2.7091 H   0  0  0  0  0  0  0  0  0  0  0  0
   -4.5638    1.4239   -2.6253 H   0  0  0  0  0  0  0  0  0  0  0  0
   -4.6655   -1.0166   -2.2480 H   0  0  0  0  0  0  0  0  0  0  0  0
   -5.7083   -3.1837   -1.7754 H   0  0  0  0  0  0  0  0  0  0  0  0
   -5.5471   -4.2706    0.4182 H   0  0  0  0  0  0  0  0  0  0  0  0
   -4.2587   -3.0938    2.2155 H   0  0  0  0  0  0  0  0  0  0  0  0
   -3.2109   -0.9470    1.7879 H   0  0  0  0  0  0  0  0  0  0  0  0
    1.4625    1.7657   -1.2267 H   0  0  0  0  0  0  0  0  0  0  0  0
    3.1701    0.0008   -1.2791 H   0  0  0  0  0  0  0  0  0  0  0  0
  1  2  2  0
  2  3  1  0
  3  4  1  0
  4  5  2  0
  4  6  1  0
  6  7  2  0
  7  8  1  0
  8  9  2  0
  9 10  1  0
 10 11  2  0
 11 12  1  0
 12 13  2  0
  6 14  1  0
 14 15  2  0
 15 16  1  0
 16 17  2  0
 17 18  1  0
 18 19  1  0
 19 20  1  0
 20 21  1  0
 21 22  1  0
 22 23  2  0
 23 24  1  0
 24 25  2  0
 25 26  1  0
 26 27  2  0
 21 28  1  0
 28 29  2  0
 29 30  1  0
 30 31  2  0
 31 32  1  0
 32 33  2  0
 17 34  1  0
 34 35  2  0
  7  2  1  0
 13  8  1  0
 35 14  1  0
 27 22  1  0
 33 28  1  0
  3 36  1  0
  9 37  1  0
 10 38  1  0
 11 39  1  0
 12 40  1  0
 13 41  1  0
 15 42  1  0
 16 43  1  0
 18 44  1  0
 18 45  1  0
 20 46  1  0
 20 47  1  0
 21 48  1  0
 23 49  1  0
 24 50  1  0
 25 51  1  0
 26 52  1  0
 27 53  1  0
 29 54  1  0
 30 55  1  0
 31 56  1  0
 32 57  1  0
 33 58  1  0
 34 59  1  0
 35 60  1  0
M  END
$$$$
[H]c1c([H])c([H])c(C2(C(=O)N([H])[H])C([H])([H])C([H])([H])N(C([H])([H])C([H])([H])[C@@]3(c4c([H])c([H])c(Cl)c(Cl)c4[H])C([H])([H])N(C(=O)c4c([H])c(OC([H])([H])[H])c(OC([H])([H])[H])c(OC([H])([H])[H])c4[H])C([H])([H])C3([H])[H])C([H])([H])C2([H])[H])c([H])c1[H]
     RDKit          3D

 83 87  0  0  0  0  0  0  0  0999 V2000
   -4.3454   -0.3403    3.3861 C   0  0  0  0  0  0  0  0  0  0  0  0
   -5.1707    0.6956    2.9146 O   0  0  0  0  0  0  0  0  0  0  0  0
   -5.1559    1.1938    1.6413 C   0  0  0  0  0  0  0  0  0  0  0  0
   -4.2810    0.6791    0.6808 C   0  0  0  0  0  0  0  0  0  0  0  0
   -4.2106    1.1266   -0.6083 C   0  0  0  0  0  0  0  0  0  0  0  0
   -5.0991    2.1690   -0.9227 C   0  0  0  0  0  0  0  0  0  0  0  0
   -5.9691    2.6849    0.0232 C   0  0  0  0  0  0  0  0  0  0  0  0
   -6.8459    3.7314   -0.3255 O   0  0  0  0  0  0  0  0  0  0  0  0
   -6.8142    4.2467   -1.6558 C   0  0  0  0  0  0  0  0  0  0  0  0
   -6.0118    2.2151    1.2955 C   0  0  0  0  0  0  0  0  0  0  0  0
   -6.9080    2.7697    2.2060 O   0  0  0  0  0  0  0  0  0  0  0  0
   -8.2242    2.3244    2.3885 C   0  0  0  0  0  0  0  0  0  0  0  0
   -3.3424    0.6662   -1.6503 C   0  0  0  0  0  0  0  0  0  0  0  0
   -3.5343    1.2085   -2.8200 O   0  0  0  0  0  0  0  0  0  0  0  0
   -2.3090   -0.2802   -1.6264 N   0  0  0  0  0  0  0  0  0  0  0  0
   -1.5654   -0.6200   -2.8542 C   0  0  0  0  0  0  0  0  0  0  0  0
   -0.7632   -1.8416   -2.5688 C   0  0  0  0  0  0  0  0  0  0  0  0
   -0.6380   -1.8724   -1.0717 C   0  0  1  0  0  0  0  0  0  0  0  0
    0.7565   -1.4283   -0.7357 C   0  0  0  0  0  0  0  0  0  0  0  0
    1.1757   -0.0904   -1.1877 C   0  0  0  0  0  0  0  0  0  0  0  0
    2.5309    0.1572   -0.8181 N   0  0  0  0  0  0  0  0  0  0  0  0
    2.7635    0.3177    0.5521 C   0  0  0  0  0  0  0  0  0  0  0  0
    4.1366    0.6513    0.9779 C   0  0  0  0  0  0  0  0  0  0  0  0
    5.0979    1.1266   -0.0916 C   0  0  0  0  0  0  0  0  0  0  0  0
    4.7221    0.6874   -1.4754 C   0  0  0  0  0  0  0  0  0  0  0  0
    3.2459    1.0700   -1.6782 C   0  0  0  0  0  0  0  0  0  0  0  0
    5.2104    2.5945   -0.0655 C   0  0  0  0  0  0  0  0  0  0  0  0
    5.2947    3.3436    1.1040 N   0  0  0  0  0  0  0  0  0  0  0  0
    5.2289    3.2098   -1.1873 O   0  0  0  0  0  0  0  0  0  0  0  0
    6.4278    0.5597    0.3249 C   0  0  0  0  0  0  0  0  0  0  0  0
    7.1030   -0.3309   -0.4826 C   0  0  0  0  0  0  0  0  0  0  0  0
    8.2996   -0.8477   -0.0372 C   0  0  0  0  0  0  0  0  0  0  0  0
    8.8702   -0.5297    1.1710 C   0  0  0  0  0  0  0  0  0  0  0  0
    8.1867    0.3561    1.9607 C   0  0  0  0  0  0  0  0  0  0  0  0
    6.9626    0.8961    1.5273 C   0  0  0  0  0  0  0  0  0  0  0  0
   -1.7516   -1.0460   -0.5870 C   0  0  0  0  0  0  0  0  0  0  0  0
   -0.8358   -3.2866   -0.5784 C   0  0  0  0  0  0  0  0  0  0  0  0
   -2.0055   -3.9166   -0.9409 C   0  0  0  0  0  0  0  0  0  0  0  0
   -2.2050   -5.2192   -0.5075 C   0  0  0  0  0  0  0  0  0  0  0  0
   -1.2903   -5.8926    0.2594 C   0  0  0  0  0  0  0  0  0  0  0  0
   -1.5406   -7.5525    0.8103 Cl  0  0  0  0  0  0  0  0  0  0  0  0
   -0.1277   -5.2452    0.6110 C   0  0  0  0  0  0  0  0  0  0  0  0
    1.0942   -6.0435    1.5979 Cl  0  0  0  0  0  0  0  0  0  0  0  0
    0.0992   -3.9365    0.1897 C   0  0  0  0  0  0  0  0  0  0  0  0
   -3.2993   -0.0434    3.2372 H   0  0  0  0  0  0  0  0  0  0  0  0
   -4.6232   -1.2734    2.8405 H   0  0  0  0  0  0  0  0  0  0  0  0
   -4.5403   -0.4506    4.4843 H   0  0  0  0  0  0  0  0  0  0  0  0
   -3.6518   -0.1246    1.0220 H   0  0  0  0  0  0  0  0  0  0  0  0
   -5.1460    2.6120   -1.8994 H   0  0  0  0  0  0  0  0  0  0  0  0
   -5.8208    4.7281   -1.8316 H   0  0  0  0  0  0  0  0  0  0  0  0
   -7.5818    5.0140   -1.8124 H   0  0  0  0  0  0  0  0  0  0  0  0
   -7.0042    3.4049   -2.3341 H   0  0  0  0  0  0  0  0  0  0  0  0
   -8.6087    1.9865    1.3943 H   0  0  0  0  0  0  0  0  0  0  0  0
   -8.8882    3.1208    2.7974 H   0  0  0  0  0  0  0  0  0  0  0  0
   -8.3153    1.4555    3.0679 H   0  0  0  0  0  0  0  0  0  0  0  0
   -2.2972   -0.7977   -3.6849 H   0  0  0  0  0  0  0  0  0  0  0  0
   -0.9864    0.2677   -3.1561 H   0  0  0  0  0  0  0  0  0  0  0  0
    0.2518   -1.8091   -3.0406 H   0  0  0  0  0  0  0  0  0  0  0  0
   -1.3470   -2.7096   -2.9602 H   0  0  0  0  0  0  0  0  0  0  0  0
    1.5182   -2.1689   -1.0386 H   0  0  0  0  0  0  0  0  0  0  0  0
    0.7923   -1.4180    0.3982 H   0  0  0  0  0  0  0  0  0  0  0  0
    0.5473    0.7467   -0.8346 H   0  0  0  0  0  0  0  0  0  0  0  0
    1.1628   -0.0073   -2.3229 H   0  0  0  0  0  0  0  0  0  0  0  0
    1.9950    1.0392    0.9833 H   0  0  0  0  0  0  0  0  0  0  0  0
    2.4905   -0.6453    1.0858 H   0  0  0  0  0  0  0  0  0  0  0  0
    4.6008   -0.1683    1.5808 H   0  0  0  0  0  0  0  0  0  0  0  0
    4.0575    1.4998    1.7245 H   0  0  0  0  0  0  0  0  0  0  0  0
    5.3778    1.1892   -2.1975 H   0  0  0  0  0  0  0  0  0  0  0  0
    4.7535   -0.4195   -1.6107 H   0  0  0  0  0  0  0  0  0  0  0  0
    2.9461    0.8321   -2.7169 H   0  0  0  0  0  0  0  0  0  0  0  0
    3.1122    2.1142   -1.4199 H   0  0  0  0  0  0  0  0  0  0  0  0
    4.5240    3.4776    1.7729 H   0  0  0  0  0  0  0  0  0  0  0  0
    6.2196    3.8130    1.3295 H   0  0  0  0  0  0  0  0  0  0  0  0
    6.6830   -0.5968   -1.4434 H   0  0  0  0  0  0  0  0  0  0  0  0
    8.8176   -1.5520   -0.6918 H   0  0  0  0  0  0  0  0  0  0  0  0
    9.8312   -0.9697    1.4893 H   0  0  0  0  0  0  0  0  0  0  0  0
    8.5748    0.6527    2.9253 H   0  0  0  0  0  0  0  0  0  0  0  0
    6.4785    1.5818    2.2380 H   0  0  0  0  0  0  0  0  0  0  0  0
   -2.5667   -1.7567   -0.2442 H   0  0  0  0  0  0  0  0  0  0  0  0
   -1.5041   -0.4640    0.3349 H   0  0  0  0  0  0  0  0  0  0  0  0
   -2.7285   -3.3869   -1.5453 H   0  0  0  0  0  0  0  0  0  0  0  0
   -3.1029   -5.7195   -0.7795 H   0  0  0  0  0  0  0  0  0  0  0  0
    1.0162   -3.4152    0.4631 H   0  0  0  0  0  0  0  0  0  0  0  0
  1  2  1  0
  2  3  1  0
  3  4  2  0
  4  5  1  0
  5  6  2  0
  6  7  1  0
  7  8  1  0
  8  9  1  0
  7 10  2  0
 10 11  1  0
 11 12  1  0
  5 13  1  0
 13 14  2  0
 13 15  1  0
 15 16  1  0
 16 17  1  0
 17 18  1  0
 18 19  1  6
 19 20  1  0
 20 21  1  0
 21 22  1  0
 22 23  1  0
 23 24  1  0
 24 25  1  0
 25 26  1  0
 24 27  1  0
 27 28  1  0
 27 29  2  0
 24 30  1  0
 30 31  2  0
 31 32  1  0
 32 33  2  0
 33 34  1  0
 34 35  2  0
 18 36  1  0
 18 37  1  0
 37 38  2  0
 38 39  1  0
 39 40  2  0
 40 41  1  0
 40 42  1  0
 42 43  1  0
 42 44  2  0
 10  3  1  0
 36 15  1  0
 44 37  1  0
 26 21  1  0
 35 30  1  0
  1 45  1  0
  1 46  1  0
  1 47  1  0
  4 48  1  0
  6 49  1  0
  9 50  1  0
  9 51  1  0
  9 52  1  0
 12 53  1  0
 12 54  1  0
 12 55  1  0
 16 56  1  0
 16 57  1  0
 17 58  1  0
 17 59  1  0
 19 60  1  0
 19 61  1  0
 20 62  1  0
 20 63  1  0
 22 64  1  0
 22 65  1  0
 23 66  1  0
 23 67  1  0
 25 68  1  0
 25 69  1  0
 26 70  1  0
 26 71  1  0
 28 72  1  0
 28 73  1  0
 31 74  1  0
 32 75  1  0
 33 76  1  0
 34 77  1  0
 35 78  1  0
 36 79  1  0
 36 80  1  0
 38 81  1  0
 39 82  1  0
 44 83  1  0
M  END
$$$$
[H]OC(=O)C([H])(C1=NC([H])(N([H])C([H])([H])C([H])([H])C([H])([H])[H])C([H])([H])O1)C([H])([H])S[H]
     RDKit          3D

 31 31  0  0  0  0  0  0  0  0999 V2000
    4.7354   -0.0660    0.6483 C   0  0  0  0  0  0  0  0  0  0  0  0
    3.1912    0.0173    0.6910 C   0  0  0  0  0  0  0  0  0  0  0  0
    2.7119    0.9035   -0.4077 C   0  0  0  0  0  0  0  0  0  0  0  0
    1.3432    1.0981   -0.5055 N   0  0  0  0  0  0  0  0  0  0  0  0
    0.4203    0.1563   -0.9329 C   0  0  0  0  0  0  0  0  0  0  0  0
    0.3028   -1.0841   -0.0937 C   0  0  0  0  0  0  0  0  0  0  0  0
   -1.0499   -1.4947   -0.4345 O   0  0  0  0  0  0  0  0  0  0  0  0
   -1.7492   -0.3043   -0.5397 C   0  0  0  0  0  0  0  0  0  0  0  0
   -0.9739    0.6660   -0.8187 N   0  0  0  0  0  0  0  0  0  0  0  0
   -3.2123   -0.1490   -0.3602 C   0  0  0  0  0  0  0  0  0  0  0  0
   -3.6713   -0.9335    0.8839 C   0  0  0  0  0  0  0  0  0  0  0  0
   -3.2595   -2.7033    0.6465 S   0  0  0  0  0  0  0  0  0  0  0  0
   -3.5733    1.2684   -0.0677 C   0  0  0  0  0  0  0  0  0  0  0  0
   -3.1971    1.9011    1.1004 O   0  0  0  0  0  0  0  0  0  0  0  0
   -4.2384    1.8795   -0.9266 O   0  0  0  0  0  0  0  0  0  0  0  0
    5.0314   -0.6482   -0.2524 H   0  0  0  0  0  0  0  0  0  0  0  0
    5.1165   -0.6458    1.5202 H   0  0  0  0  0  0  0  0  0  0  0  0
    5.1625    0.9557    0.6441 H   0  0  0  0  0  0  0  0  0  0  0  0
    2.8092   -1.0034    0.6358 H   0  0  0  0  0  0  0  0  0  0  0  0
    2.8838    0.4813    1.6692 H   0  0  0  0  0  0  0  0  0  0  0  0
    3.2042    0.5667   -1.3702 H   0  0  0  0  0  0  0  0  0  0  0  0
    3.1901    1.9185   -0.2188 H   0  0  0  0  0  0  0  0  0  0  0  0
    0.9814    2.0552   -0.2895 H   0  0  0  0  0  0  0  0  0  0  0  0
    0.4929   -0.1186   -2.0201 H   0  0  0  0  0  0  0  0  0  0  0  0
    0.9944   -1.9046   -0.4166 H   0  0  0  0  0  0  0  0  0  0  0  0
    0.3065   -0.8732    0.9731 H   0  0  0  0  0  0  0  0  0  0  0  0
   -3.8074   -0.4864   -1.2120 H   0  0  0  0  0  0  0  0  0  0  0  0
   -4.7725   -0.8384    0.9605 H   0  0  0  0  0  0  0  0  0  0  0  0
   -3.1479   -0.5642    1.7693 H   0  0  0  0  0  0  0  0  0  0  0  0
   -3.2372   -2.9282   -0.7609 H   0  0  0  0  0  0  0  0  0  0  0  0
   -2.9877    2.8784    1.0672 H   0  0  0  0  0  0  0  0  0  0  0  0
  1  2  1  0
  2  3  1  0
  3  4  1  0
  4  5  1  0
  5  6  1  0
  6  7  1  0
  7  8  1  0
  8  9  2  0
  8 10  1  0
 10 11  1  0
 11 12  1  0
 10 13  1  0
 13 14  1  0
 13 15  2  0
  9  5  1  0
  1 16  1  0
  1 17  1  0
  1 18  1  0
  2 19  1  0
  2 20  1  0
  3 21  1  0
  3 22  1  0
  4 23  1  0
  5 24  1  0
  6 25  1  0
  6 26  1  0
 10 27  1  0
 11 28  1  0
 11 29  1  0
 12 30  1  0
 14 31  1  0
M  END
$$$$
[H]c1c(Br)c([H])c2nc(-c3c(OC([H])([H])C4([H])C([H])([H])OC([H])([H])C4([H])[H])nc4sc(N([H])C(=O)N([H])C([H])([H])C([H])([H])[H])nc4c3[H])n([H])c2c1[H]
     RDKit          3D

 53 57  0  0  0  0  0  0  0  0999 V2000
    6.9797    6.0932   -0.5573 C   0  0  0  0  0  0  0  0  0  0  0  0
    7.0224    4.6326   -0.0067 C   0  0  0  0  0  0  0  0  0  0  0  0
    5.9388    4.1431    0.2555 N   0  0  0  0  0  0  0  0  0  0  0  0
    4.6186    3.5475    0.5755 C   0  0  0  0  0  0  0  0  0  0  0  0
    3.8458    3.9833    1.4006 O   0  0  0  0  0  0  0  0  0  0  0  0
    4.3055    2.3866   -0.1727 N   0  0  0  0  0  0  0  0  0  0  0  0
    3.0946    1.6755    0.0313 C   0  0  0  0  0  0  0  0  0  0  0  0
    2.7086    0.6048   -0.6247 N   0  0  0  0  0  0  0  0  0  0  0  0
    1.5739    0.0436   -0.3189 C   0  0  0  0  0  0  0  0  0  0  0  0
    1.0034   -1.0962   -0.9125 C   0  0  0  0  0  0  0  0  0  0  0  0
   -0.1987   -1.5687   -0.4881 C   0  0  0  0  0  0  0  0  0  0  0  0
   -0.8311   -2.7383   -1.1418 C   0  0  0  0  0  0  0  0  0  0  0  0
   -2.0237   -3.2748   -0.8807 N   0  0  0  0  0  0  0  0  0  0  0  0
   -2.2586   -4.3065   -1.7187 C   0  0  0  0  0  0  0  0  0  0  0  0
   -3.3180   -5.1820   -1.8895 C   0  0  0  0  0  0  0  0  0  0  0  0
   -3.2485   -6.1368   -2.8674 C   0  0  0  0  0  0  0  0  0  0  0  0
   -4.6874   -7.3642   -3.1551 Br  0  0  0  0  0  0  0  0  0  0  0  0
   -2.1156   -6.1871   -3.6498 C   0  0  0  0  0  0  0  0  0  0  0  0
   -1.0509   -5.3445   -3.5146 C   0  0  0  0  0  0  0  0  0  0  0  0
   -1.1452   -4.3786   -2.5101 C   0  0  0  0  0  0  0  0  0  0  0  0
   -0.2726   -3.4136   -2.1513 N   0  0  0  0  0  0  0  0  0  0  0  0
   -0.9299   -0.9853    0.5289 C   0  0  0  0  0  0  0  0  0  0  0  0
   -2.1547   -1.4793    0.9639 O   0  0  0  0  0  0  0  0  0  0  0  0
   -2.9176   -0.8756    1.9899 C   0  0  0  0  0  0  0  0  0  0  0  0
   -3.3881    0.5135    1.5675 C   0  0  0  0  0  0  0  0  0  0  0  0
   -4.1707    1.1619    2.6969 C   0  0  0  0  0  0  0  0  0  0  0  0
   -5.1943    1.9397    1.8709 C   0  0  0  0  0  0  0  0  0  0  0  0
   -5.5432    1.0220    0.8815 O   0  0  0  0  0  0  0  0  0  0  0  0
   -4.4148    0.3968    0.4658 C   0  0  0  0  0  0  0  0  0  0  0  0
   -0.3663    0.1038    1.0804 N   0  0  0  0  0  0  0  0  0  0  0  0
    0.8323    0.6086    0.6864 C   0  0  0  0  0  0  0  0  0  0  0  0
    1.8225    1.9290    1.1359 S   0  0  0  0  0  0  0  0  0  0  0  0
    5.8995    6.3223   -0.6920 H   0  0  0  0  0  0  0  0  0  0  0  0
    7.5508    6.1990   -1.4756 H   0  0  0  0  0  0  0  0  0  0  0  0
    7.3698    6.7262    0.2559 H   0  0  0  0  0  0  0  0  0  0  0  0
    7.6533    4.1244   -0.8718 H   0  0  0  0  0  0  0  0  0  0  0  0
    7.8718    4.6824    0.8150 H   0  0  0  0  0  0  0  0  0  0  0  0
    5.6648    5.0820    1.2363 H   0  0  0  0  0  0  0  0  0  0  0  0
    4.9648    2.0406   -0.8857 H   0  0  0  0  0  0  0  0  0  0  0  0
    1.5385   -1.6095   -1.7273 H   0  0  0  0  0  0  0  0  0  0  0  0
   -4.1873   -5.0812   -1.2352 H   0  0  0  0  0  0  0  0  0  0  0  0
   -2.0614   -6.9427   -4.4301 H   0  0  0  0  0  0  0  0  0  0  0  0
   -0.1602   -5.3572   -4.1006 H   0  0  0  0  0  0  0  0  0  0  0  0
    0.6593   -3.2227   -2.5731 H   0  0  0  0  0  0  0  0  0  0  0  0
   -3.8189   -1.4781    2.1403 H   0  0  0  0  0  0  0  0  0  0  0  0
   -2.3009   -0.8337    2.9014 H   0  0  0  0  0  0  0  0  0  0  0  0
   -2.5601    1.1728    1.2793 H   0  0  0  0  0  0  0  0  0  0  0  0
   -3.5174    1.9177    3.1715 H   0  0  0  0  0  0  0  0  0  0  0  0
   -4.6537    0.4567    3.3742 H   0  0  0  0  0  0  0  0  0  0  0  0
   -4.7800    2.8308    1.3954 H   0  0  0  0  0  0  0  0  0  0  0  0
   -6.0190    2.2305    2.5378 H   0  0  0  0  0  0  0  0  0  0  0  0
   -4.6043   -0.6727    0.1990 H   0  0  0  0  0  0  0  0  0  0  0  0
   -4.0259    0.9588   -0.4152 H   0  0  0  0  0  0  0  0  0  0  0  0
  1  2  1  0
  2  3  1  0
  3  4  1  0
  4  5  2  0
  4  6  1  0
  6  7  1  0
  7  8  2  0
  8  9  1  0
  9 10  2  0
 10 11  1  0
 11 12  1  0
 12 13  2  0
 13 14  1  0
 14 15  2  0
 15 16  1  0
 16 17  1  0
 16 18  2  0
 18 19  1  0
 19 20  2  0
 20 21  1  0
 11 22  2  0
 22 23  1  0
 23 24  1  0
 24 25  1  0
 25 26  1  0
 26 27  1  0
 27 28  1  0
 28 29  1  0
 22 30  1  0
 30 31  2  0
 31 32  1  0
 32  7  1  0
 31  9  1  0
 21 12  1  0
 29 25  1  0
 20 14  1  0
  1 33  1  0
  1 34  1  0
  1 35  1  0
  2 36  1  0
  2 37  1  0
  3 38  1  0
  6 39  1  0
 10 40  1  0
 15 41  1  0
 18 42  1  0
 19 43  1  0
 21 44  1  0
 24 45  1  0
 24 46  1  0
 25 47  1  0
 26 48  1  0
 26 49  1  0
 27 50  1  0
 27 51  1  0
 29 52  1  0
 29 53  1  0
M  END
$$$$
[H]/C(c1c([H])c([H])c(OC([H])([H])[H])c(OC([H])([H])[H])c1[H])=c1/s/c(=C(/[H])c2c(C([H])([H])[H])c(C(=O)OC([H])([H])C([H])([H])[H])c(C([H])([H])[H])n2[H])c2c([H])c([H])c([H])c([H])c12
     RDKit          3D

 60 63  0  0  0  0  0  0  0  0999 V2000
   -7.4495   -2.8977    1.4058 C   0  0  0  0  0  0  0  0  0  0  0  0
   -6.0902   -3.2228    0.8388 C   0  0  0  0  0  0  0  0  0  0  0  0
   -5.2519   -2.0879    0.9371 O   0  0  0  0  0  0  0  0  0  0  0  0
   -3.9500   -2.0555    0.5098 C   0  0  0  0  0  0  0  0  0  0  0  0
   -3.4673   -3.0947   -0.0009 O   0  0  0  0  0  0  0  0  0  0  0  0
   -3.1567   -0.8468    0.6479 C   0  0  0  0  0  0  0  0  0  0  0  0
   -2.3824   -0.5304    1.7415 C   0  0  0  0  0  0  0  0  0  0  0  0
   -2.2245   -1.3709    2.9698 C   0  0  0  0  0  0  0  0  0  0  0  0
   -1.8015    0.6553    1.5084 N   0  0  0  0  0  0  0  0  0  0  0  0
   -2.1468    1.1522    0.3122 C   0  0  0  0  0  0  0  0  0  0  0  0
   -1.7548    2.3919   -0.3333 C   0  0  0  0  0  0  0  0  0  0  0  0
   -0.4430    2.5252   -0.5816 C   0  0  0  0  0  0  0  0  0  0  0  0
    0.8052    1.4155   -0.2290 S   0  0  0  0  0  0  0  0  0  0  0  0
    2.1378    2.2937   -0.8349 C   0  0  0  0  0  0  0  0  0  0  0  0
    3.4294    1.9265   -0.8422 C   0  0  0  0  0  0  0  0  0  0  0  0
    3.7116    0.6209   -0.2604 C   0  0  0  0  0  0  0  0  0  0  0  0
    3.4360    0.3105    1.0547 C   0  0  0  0  0  0  0  0  0  0  0  0
    3.7301   -0.9615    1.5560 C   0  0  0  0  0  0  0  0  0  0  0  0
    4.3017   -1.9307    0.7447 C   0  0  0  0  0  0  0  0  0  0  0  0
    4.5654   -3.1707    1.3126 O   0  0  0  0  0  0  0  0  0  0  0  0
    4.2822   -3.4784    2.6516 C   0  0  0  0  0  0  0  0  0  0  0  0
    4.5737   -1.6244   -0.5529 C   0  0  0  0  0  0  0  0  0  0  0  0
    5.1461   -2.6067   -1.3512 O   0  0  0  0  0  0  0  0  0  0  0  0
    5.4728   -2.4052   -2.7125 C   0  0  0  0  0  0  0  0  0  0  0  0
    4.2791   -0.3599   -1.0436 C   0  0  0  0  0  0  0  0  0  0  0  0
    1.5658    3.4392   -1.2998 C   0  0  0  0  0  0  0  0  0  0  0  0
    2.2728    4.5012   -1.9053 C   0  0  0  0  0  0  0  0  0  0  0  0
    1.6599    5.6394   -2.3610 C   0  0  0  0  0  0  0  0  0  0  0  0
    0.3035    5.7676   -2.2310 C   0  0  0  0  0  0  0  0  0  0  0  0
   -0.3905    4.7415   -1.6445 C   0  0  0  0  0  0  0  0  0  0  0  0
    0.2252    3.5631   -1.1700 C   0  0  0  0  0  0  0  0  0  0  0  0
   -2.9985    0.2070   -0.2273 C   0  0  0  0  0  0  0  0  0  0  0  0
   -3.6559    0.2904   -1.5467 C   0  0  0  0  0  0  0  0  0  0  0  0
   -8.2399   -3.5203    0.9233 H   0  0  0  0  0  0  0  0  0  0  0  0
   -7.6894   -1.8139    1.3412 H   0  0  0  0  0  0  0  0  0  0  0  0
   -7.4951   -3.1451    2.4979 H   0  0  0  0  0  0  0  0  0  0  0  0
   -6.1635   -3.4769   -0.2399 H   0  0  0  0  0  0  0  0  0  0  0  0
   -5.6810   -4.1052    1.3638 H   0  0  0  0  0  0  0  0  0  0  0  0
   -3.0948   -2.0705    3.0379 H   0  0  0  0  0  0  0  0  0  0  0  0
   -1.3160   -1.9780    2.9551 H   0  0  0  0  0  0  0  0  0  0  0  0
   -2.2861   -0.7233    3.8806 H   0  0  0  0  0  0  0  0  0  0  0  0
   -1.1607    1.1333    2.1735 H   0  0  0  0  0  0  0  0  0  0  0  0
   -2.4468    3.1790   -0.6106 H   0  0  0  0  0  0  0  0  0  0  0  0
    4.1836    2.5798   -1.2596 H   0  0  0  0  0  0  0  0  0  0  0  0
    2.9917    1.0746    1.6725 H   0  0  0  0  0  0  0  0  0  0  0  0
    3.4992   -1.1574    2.5812 H   0  0  0  0  0  0  0  0  0  0  0  0
    3.1700   -3.5657    2.7511 H   0  0  0  0  0  0  0  0  0  0  0  0
    4.6078   -2.6820    3.3565 H   0  0  0  0  0  0  0  0  0  0  0  0
    4.6953   -4.4490    2.9548 H   0  0  0  0  0  0  0  0  0  0  0  0
    4.6259   -2.5747   -3.3901 H   0  0  0  0  0  0  0  0  0  0  0  0
    5.9088   -1.4123   -2.8959 H   0  0  0  0  0  0  0  0  0  0  0  0
    6.2642   -3.1472   -2.9855 H   0  0  0  0  0  0  0  0  0  0  0  0
    4.5102   -0.1667   -2.0668 H   0  0  0  0  0  0  0  0  0  0  0  0
    3.3448    4.4600   -2.0367 H   0  0  0  0  0  0  0  0  0  0  0  0
    2.2074    6.4545   -2.8264 H   0  0  0  0  0  0  0  0  0  0  0  0
   -0.1720    6.6581   -2.5881 H   0  0  0  0  0  0  0  0  0  0  0  0
   -1.4594    4.8899   -1.5645 H   0  0  0  0  0  0  0  0  0  0  0  0
   -3.0614    0.8226   -2.3062 H   0  0  0  0  0  0  0  0  0  0  0  0
   -3.7959   -0.7532   -1.9439 H   0  0  0  0  0  0  0  0  0  0  0  0
   -4.6818    0.6929   -1.4225 H   0  0  0  0  0  0  0  0  0  0  0  0
  1  2  1  0
  2  3  1  0
  3  4  1  0
  4  5  2  0
  4  6  1  0
  6  7  2  0
  7  8  1  0
  7  9  1  0
  9 10  1  0
 10 11  1  0
 11 12  2  0
 12 13  1  0
 13 14  1  0
 14 15  2  0
 15 16  1  0
 16 17  2  0
 17 18  1  0
 18 19  2  0
 19 20  1  0
 20 21  1  0
 19 22  1  0
 22 23  1  0
 23 24  1  0
 22 25  2  0
 14 26  1  0
 26 27  2  0
 27 28  1  0
 28 29  2  0
 29 30  1  0
 30 31  2  0
 10 32  2  0
 32 33  1  0
 32  6  1  0
 31 12  1  0
 25 16  1  0
 31 26  1  0
  1 34  1  0
  1 35  1  0
  1 36  1  0
  2 37  1  0
  2 38  1  0
  8 39  1  0
  8 40  1  0
  8 41  1  0
  9 42  1  0
 11 43  1  0
 15 44  1  0
 17 45  1  0
 18 46  1  0
 21 47  1  0
 21 48  1  0
 21 49  1  0
 24 50  1  0
 24 51  1  0
 24 52  1  0
 25 53  1  0
 27 54  1  0
 28 55  1  0
 29 56  1  0
 30 57  1  0
 33 58  1  0
 33 59  1  0
 33 60  1  0
M  END
$$$$
[H]ON([H])C(=O)C1(S(=O)(=O)c2c([H])c([H])c(Oc3c([H])c([H])c(Cl)c([H])c3[H])c([H])c2[H])C([H])([H])C([H])([H])OC([H])([H])C1([H])[H]
     RDKit          3D

 45 47  0  0  0  0  0  0  0  0999 V2000
   -3.1360   -3.5397    0.9913 O   0  0  0  0  0  0  0  0  0  0  0  0
   -3.1609   -2.3925    0.2689 N   0  0  0  0  0  0  0  0  0  0  0  0
   -3.0055   -1.1149    0.8532 C   0  0  0  0  0  0  0  0  0  0  0  0
   -2.8377   -1.0294    2.1008 O   0  0  0  0  0  0  0  0  0  0  0  0
   -3.0444    0.0830   -0.0207 C   0  0  0  0  0  0  0  0  0  0  0  0
   -4.3737    0.0150   -0.7795 C   0  0  0  0  0  0  0  0  0  0  0  0
   -5.3249    0.9337   -0.0411 C   0  0  0  0  0  0  0  0  0  0  0  0
   -4.9235    2.2386   -0.2968 O   0  0  0  0  0  0  0  0  0  0  0  0
   -3.6539    2.5126    0.1770 C   0  0  0  0  0  0  0  0  0  0  0  0
   -2.9544    1.3573    0.7854 C   0  0  0  0  0  0  0  0  0  0  0  0
   -1.7459    0.0752   -1.2089 S   0  0  0  0  0  0  0  0  0  0  0  0
   -1.8731   -1.1011   -2.1343 O   0  0  0  0  0  0  0  0  0  0  0  0
   -1.8990    1.3519   -2.0280 O   0  0  0  0  0  0  0  0  0  0  0  0
   -0.1737    0.0437   -0.4934 C   0  0  0  0  0  0  0  0  0  0  0  0
    0.4230   -1.1666   -0.2178 C   0  0  0  0  0  0  0  0  0  0  0  0
    1.6761   -1.2647    0.3516 C   0  0  0  0  0  0  0  0  0  0  0  0
    2.3476   -0.1036    0.6519 C   0  0  0  0  0  0  0  0  0  0  0  0
    3.6135   -0.1469    1.2269 O   0  0  0  0  0  0  0  0  0  0  0  0
    4.7364   -0.1722    0.4366 C   0  0  0  0  0  0  0  0  0  0  0  0
    5.2492   -1.3881    0.0382 C   0  0  0  0  0  0  0  0  0  0  0  0
    6.3730   -1.4618   -0.7542 C   0  0  0  0  0  0  0  0  0  0  0  0
    6.9825   -0.3013   -1.1467 C   0  0  0  0  0  0  0  0  0  0  0  0
    8.4108   -0.4335   -2.1550 Cl  0  0  0  0  0  0  0  0  0  0  0  0
    6.5019    0.9305   -0.7703 C   0  0  0  0  0  0  0  0  0  0  0  0
    5.3759    0.9854    0.0230 C   0  0  0  0  0  0  0  0  0  0  0  0
    1.7819    1.1337    0.3903 C   0  0  0  0  0  0  0  0  0  0  0  0
    0.5291    1.1799   -0.1787 C   0  0  0  0  0  0  0  0  0  0  0  0
   -3.8712   -3.5699    1.6392 H   0  0  0  0  0  0  0  0  0  0  0  0
   -3.3066   -2.5048   -0.7562 H   0  0  0  0  0  0  0  0  0  0  0  0
   -4.2107    0.3783   -1.8148 H   0  0  0  0  0  0  0  0  0  0  0  0
   -4.7400   -1.0275   -0.8363 H   0  0  0  0  0  0  0  0  0  0  0  0
   -5.3024    0.6772    1.0370 H   0  0  0  0  0  0  0  0  0  0  0  0
   -6.3251    0.8016   -0.5015 H   0  0  0  0  0  0  0  0  0  0  0  0
   -3.0834    3.0044   -0.6345 H   0  0  0  0  0  0  0  0  0  0  0  0
   -3.7758    3.2960    0.9700 H   0  0  0  0  0  0  0  0  0  0  0  0
   -3.3208    1.1781    1.8287 H   0  0  0  0  0  0  0  0  0  0  0  0
   -1.8807    1.6133    0.8929 H   0  0  0  0  0  0  0  0  0  0  0  0
   -0.0763   -2.1076   -0.4408 H   0  0  0  0  0  0  0  0  0  0  0  0
    2.1443   -2.2361    0.5680 H   0  0  0  0  0  0  0  0  0  0  0  0
    4.7267   -2.2873    0.3775 H   0  0  0  0  0  0  0  0  0  0  0  0
    6.7463   -2.4503   -1.0475 H   0  0  0  0  0  0  0  0  0  0  0  0
    7.0085    1.8526   -1.0979 H   0  0  0  0  0  0  0  0  0  0  0  0
    5.0002    1.9515    0.3173 H   0  0  0  0  0  0  0  0  0  0  0  0
    2.2823    2.0650    0.6138 H   0  0  0  0  0  0  0  0  0  0  0  0
    0.0902    2.1413   -0.3817 H   0  0  0  0  0  0  0  0  0  0  0  0
  1  2  1  0
  2  3  1  0
  3  4  2  0
  3  5  1  0
  5  6  1  0
  6  7  1  0
  7  8  1  0
  8  9  1  0
  9 10  1  0
  5 11  1  0
 11 12  2  0
 11 13  2  0
 11 14  1  0
 14 15  2  0
 15 16  1  0
 16 17  2  0
 17 18  1  0
 18 19  1  0
 19 20  2  0
 20 21  1  0
 21 22  2  0
 22 23  1  0
 22 24  1  0
 24 25  2  0
 17 26  1  0
 26 27  2  0
 10  5  1  0
 27 14  1  0
 25 19  1  0
  1 28  1  0
  2 29  1  0
  6 30  1  0
  6 31  1  0
  7 32  1  0
  7 33  1  0
  9 34  1  0
  9 35  1  0
 10 36  1  0
 10 37  1  0
 15 38  1  0
 16 39  1  0
 20 40  1  0
 21 41  1  0
 24 42  1  0
 25 43  1  0
 26 44  1  0
 27 45  1  0
M  END
$$$$
[H]c1nc2c(c([H])c1[H])S(=O)(=O)N(C([H])([H])C([H])([H])C([H])([H])C([H])([H])N(C(=O)c1c([H])c([H])c(C#N)c([H])c1[H])C([H])([H])C(=O)N([H])[H])C2=O
     RDKit          3D

 50 52  0  0  0  0  0  0  0  0999 V2000
    2.5286    0.7999    6.0115 N   0  0  0  0  0  0  0  0  0  0  0  0
    2.6170    0.4012    4.6518 C   0  0  0  0  0  0  0  0  0  0  0  0
    3.7200   -0.0134    4.2201 O   0  0  0  0  0  0  0  0  0  0  0  0
    1.3859    0.5073    3.8399 C   0  0  0  0  0  0  0  0  0  0  0  0
    1.6927    0.0349    2.4251 N   0  0  0  0  0  0  0  0  0  0  0  0
    1.4546   -1.3294    2.1675 C   0  0  0  0  0  0  0  0  0  0  0  0
    0.0735   -1.7475    1.8225 C   0  0  0  0  0  0  0  0  0  0  0  0
   -0.5813   -1.1408    0.6306 C   0  0  0  0  0  0  0  0  0  0  0  0
   -1.9809   -1.7695    0.5553 C   0  0  0  0  0  0  0  0  0  0  0  0
   -2.6747   -1.2199   -0.5877 N   0  0  0  0  0  0  0  0  0  0  0  0
   -3.4996   -0.0849   -0.6957 C   0  0  0  0  0  0  0  0  0  0  0  0
   -3.7278    0.6396    0.3411 O   0  0  0  0  0  0  0  0  0  0  0  0
   -4.0285    0.1636   -2.0102 C   0  0  0  0  0  0  0  0  0  0  0  0
   -4.8423    1.1762   -2.3952 N   0  0  0  0  0  0  0  0  0  0  0  0
   -5.2726    1.3050   -3.6556 C   0  0  0  0  0  0  0  0  0  0  0  0
   -4.9172    0.4182   -4.6425 C   0  0  0  0  0  0  0  0  0  0  0  0
   -4.0850   -0.6147   -4.2420 C   0  0  0  0  0  0  0  0  0  0  0  0
   -3.6502   -0.7382   -2.9516 C   0  0  0  0  0  0  0  0  0  0  0  0
   -2.6216   -1.9051   -2.1712 S   0  0  0  0  0  0  0  0  0  0  0  0
   -3.1830   -3.2862   -2.2119 O   0  0  0  0  0  0  0  0  0  0  0  0
   -1.2209   -1.8446   -2.7058 O   0  0  0  0  0  0  0  0  0  0  0  0
    2.1277    1.0506    1.5857 C   0  0  0  0  0  0  0  0  0  0  0  0
    2.1586    2.2531    2.1736 O   0  0  0  0  0  0  0  0  0  0  0  0
    2.5570    1.0815    0.2169 C   0  0  0  0  0  0  0  0  0  0  0  0
    2.9289    2.3292   -0.3158 C   0  0  0  0  0  0  0  0  0  0  0  0
    3.3789    2.4893   -1.6046 C   0  0  0  0  0  0  0  0  0  0  0  0
    3.4910    1.4168   -2.4570 C   0  0  0  0  0  0  0  0  0  0  0  0
    3.1366    0.1888   -1.9699 C   0  0  0  0  0  0  0  0  0  0  0  0
    2.6810    0.0427   -0.6584 C   0  0  0  0  0  0  0  0  0  0  0  0
    3.9638    1.5958   -3.8024 C   0  0  0  0  0  0  0  0  0  0  0  0
    4.3593    1.7281   -4.8770 N   0  0  0  0  0  0  0  0  0  0  0  0
    2.9366    0.2212    6.7908 H   0  0  0  0  0  0  0  0  0  0  0  0
    2.0571    1.6842    6.3175 H   0  0  0  0  0  0  0  0  0  0  0  0
    0.5691   -0.1144    4.2279 H   0  0  0  0  0  0  0  0  0  0  0  0
    1.0711    1.5385    3.7765 H   0  0  0  0  0  0  0  0  0  0  0  0
    1.6238   -1.8794    3.2045 H   0  0  0  0  0  0  0  0  0  0  0  0
    2.1943   -1.7989    1.5221 H   0  0  0  0  0  0  0  0  0  0  0  0
    0.0838   -2.8692    1.6582 H   0  0  0  0  0  0  0  0  0  0  0  0
   -0.6466   -1.6204    2.6719 H   0  0  0  0  0  0  0  0  0  0  0  0
   -0.0664   -1.4236   -0.3349 H   0  0  0  0  0  0  0  0  0  0  0  0
   -0.6400   -0.0427    0.6857 H   0  0  0  0  0  0  0  0  0  0  0  0
   -1.8131   -2.8601    0.4473 H   0  0  0  0  0  0  0  0  0  0  0  0
   -2.4608   -1.5682    1.5120 H   0  0  0  0  0  0  0  0  0  0  0  0
   -5.9341    2.1401   -3.9371 H   0  0  0  0  0  0  0  0  0  0  0  0
   -5.2862    0.5629   -5.6343 H   0  0  0  0  0  0  0  0  0  0  0  0
   -3.7795   -1.3442   -5.0052 H   0  0  0  0  0  0  0  0  0  0  0  0
    2.8551    3.2100    0.3252 H   0  0  0  0  0  0  0  0  0  0  0  0
    3.6597    3.4718   -1.9870 H   0  0  0  0  0  0  0  0  0  0  0  0
    3.2085   -0.6866   -2.6068 H   0  0  0  0  0  0  0  0  0  0  0  0
    2.3982   -0.9335   -0.3210 H   0  0  0  0  0  0  0  0  0  0  0  0
  1  2  1  0
  2  3  2  0
  2  4  1  0
  4  5  1  0
  5  6  1  0
  6  7  1  0
  7  8  1  0
  8  9  1  0
  9 10  1  0
 10 11  1  0
 11 12  2  0
 11 13  1  0
 13 14  2  0
 14 15  1  0
 15 16  2  0
 16 17  1  0
 17 18  2  0
 18 19  1  0
 19 20  2  0
 19 21  2  0
  5 22  1  0
 22 23  2  0
 22 24  1  0
 24 25  2  0
 25 26  1  0
 26 27  2  0
 27 28  1  0
 28 29  2  0
 27 30  1  0
 30 31  3  0
 19 10  1  0
 29 24  1  0
 18 13  1  0
  1 32  1  0
  1 33  1  0
  4 34  1  0
  4 35  1  0
  6 36  1  0
  6 37  1  0
  7 38  1  0
  7 39  1  0
  8 40  1  0
  8 41  1  0
  9 42  1  0
  9 43  1  0
 15 44  1  0
 16 45  1  0
 17 46  1  0
 25 47  1  0
 26 48  1  0
 28 49  1  0
 29 50  1  0
M  END
$$$$
[H]Oc1c([H])c2c(c([H])c1O[H])C([H])([H])C([H])([H])c1c(C(=O)N([H])[H])c3n(c1C2=C([H])c1c([H])c([H])c(C([H])([H])[H])c([H])c1[H])C([H])(C([H])([H])[H])C([H])([H])C([H])([H])C3([H])[H]
     RDKit          3D

 60 64  0  0  0  0  0  0  0  0999 V2000
   -1.3904   -3.2371    1.7519 C   0  0  0  0  0  0  0  0  0  0  0  0
   -1.0884   -1.7569    1.9279 C   0  0  0  0  0  0  0  0  0  0  0  0
   -1.8453   -1.4244    3.2530 C   0  0  0  0  0  0  0  0  0  0  0  0
   -3.2743   -1.7489    3.1461 C   0  0  0  0  0  0  0  0  0  0  0  0
   -3.8746   -1.9311    1.7890 C   0  0  0  0  0  0  0  0  0  0  0  0
   -3.0892   -1.1393    0.8195 C   0  0  0  0  0  0  0  0  0  0  0  0
   -3.5233   -0.3504   -0.2702 C   0  0  0  0  0  0  0  0  0  0  0  0
   -4.8962   -0.2176   -0.7163 C   0  0  0  0  0  0  0  0  0  0  0  0
   -5.2912    0.7424   -1.6652 N   0  0  0  0  0  0  0  0  0  0  0  0
   -5.7789   -1.0112   -0.2173 O   0  0  0  0  0  0  0  0  0  0  0  0
   -2.3956    0.2409   -0.8505 C   0  0  0  0  0  0  0  0  0  0  0  0
   -2.2687    1.0814   -2.0379 C   0  0  0  0  0  0  0  0  0  0  0  0
   -1.5135    2.3469   -1.9992 C   0  0  0  0  0  0  0  0  0  0  0  0
   -0.2275    2.4036   -1.2882 C   0  0  0  0  0  0  0  0  0  0  0  0
    0.3342    3.6790   -1.4206 C   0  0  0  0  0  0  0  0  0  0  0  0
    1.5214    4.0084   -0.7557 C   0  0  0  0  0  0  0  0  0  0  0  0
    2.0385    5.2860   -0.9215 O   0  0  0  0  0  0  0  0  0  0  0  0
    2.1745    3.1056    0.0454 C   0  0  0  0  0  0  0  0  0  0  0  0
    3.3495    3.3566    0.7345 O   0  0  0  0  0  0  0  0  0  0  0  0
    1.6464    1.8613    0.1886 C   0  0  0  0  0  0  0  0  0  0  0  0
    0.4871    1.5540   -0.4737 C   0  0  0  0  0  0  0  0  0  0  0  0
    0.1035    0.1603   -0.2108 C   0  0  0  0  0  0  0  0  0  0  0  0
    0.9014   -0.8052   -0.1956 C   0  0  0  0  0  0  0  0  0  0  0  0
    2.3302   -0.8887   -0.4268 C   0  0  0  0  0  0  0  0  0  0  0  0
    2.9098   -0.3801   -1.5649 C   0  0  0  0  0  0  0  0  0  0  0  0
    4.2454   -0.4847   -1.8258 C   0  0  0  0  0  0  0  0  0  0  0  0
    5.1043   -1.1162   -0.9509 C   0  0  0  0  0  0  0  0  0  0  0  0
    6.5658   -1.2372   -1.2236 C   0  0  0  0  0  0  0  0  0  0  0  0
    4.5595   -1.6470    0.2147 C   0  0  0  0  0  0  0  0  0  0  0  0
    3.2243   -1.5257    0.4456 C   0  0  0  0  0  0  0  0  0  0  0  0
   -1.3444   -0.2362   -0.0592 C   0  0  0  0  0  0  0  0  0  0  0  0
   -1.7477   -1.0422    0.9094 N   0  0  0  0  0  0  0  0  0  0  0  0
   -2.0058   -3.6787    2.5290 H   0  0  0  0  0  0  0  0  0  0  0  0
   -1.8266   -3.3756    0.7206 H   0  0  0  0  0  0  0  0  0  0  0  0
   -0.4372   -3.8403    1.7640 H   0  0  0  0  0  0  0  0  0  0  0  0
   -0.0839   -1.6835    2.1843 H   0  0  0  0  0  0  0  0  0  0  0  0
   -1.7135   -0.3374    3.4334 H   0  0  0  0  0  0  0  0  0  0  0  0
   -1.3471   -1.9461    4.0963 H   0  0  0  0  0  0  0  0  0  0  0  0
   -3.4436   -2.7030    3.7338 H   0  0  0  0  0  0  0  0  0  0  0  0
   -3.8510   -0.9693    3.7131 H   0  0  0  0  0  0  0  0  0  0  0  0
   -4.0390   -2.9874    1.4922 H   0  0  0  0  0  0  0  0  0  0  0  0
   -4.9318   -1.5340    1.8929 H   0  0  0  0  0  0  0  0  0  0  0  0
   -5.4337    1.7627   -1.4817 H   0  0  0  0  0  0  0  0  0  0  0  0
   -5.4636    0.4309   -2.6487 H   0  0  0  0  0  0  0  0  0  0  0  0
   -1.6489    0.4193   -2.7881 H   0  0  0  0  0  0  0  0  0  0  0  0
   -3.2277    1.2745   -2.5316 H   0  0  0  0  0  0  0  0  0  0  0  0
   -1.2765    2.6202   -3.0668 H   0  0  0  0  0  0  0  0  0  0  0  0
   -2.1801    3.2202   -1.6831 H   0  0  0  0  0  0  0  0  0  0  0  0
   -0.1401    4.4192   -2.0344 H   0  0  0  0  0  0  0  0  0  0  0  0
    2.8835    5.5852   -0.4743 H   0  0  0  0  0  0  0  0  0  0  0  0
    3.7957    4.2373    0.6808 H   0  0  0  0  0  0  0  0  0  0  0  0
    2.0492    1.1065    0.8587 H   0  0  0  0  0  0  0  0  0  0  0  0
    0.5318   -1.8499    0.0016 H   0  0  0  0  0  0  0  0  0  0  0  0
    2.2611    0.1035   -2.2638 H   0  0  0  0  0  0  0  0  0  0  0  0
    4.6894   -0.0721   -2.7419 H   0  0  0  0  0  0  0  0  0  0  0  0
    6.7703   -1.1902   -2.3126 H   0  0  0  0  0  0  0  0  0  0  0  0
    7.0785   -0.3986   -0.7099 H   0  0  0  0  0  0  0  0  0  0  0  0
    6.9941   -2.1665   -0.7863 H   0  0  0  0  0  0  0  0  0  0  0  0
    5.2441   -2.1455    0.9034 H   0  0  0  0  0  0  0  0  0  0  0  0
    2.8061   -1.9479    1.3676 H   0  0  0  0  0  0  0  0  0  0  0  0
  1  2  1  0
  2  3  1  0
  3  4  1  0
  4  5  1  0
  5  6  1  0
  6  7  2  0
  7  8  1  0
  8  9  1  0
  8 10  2  0
  7 11  1  0
 11 12  1  0
 12 13  1  0
 13 14  1  0
 14 15  2  0
 15 16  1  0
 16 17  1  0
 16 18  2  0
 18 19  1  0
 18 20  1  0
 20 21  2  0
 21 22  1  0
 22 23  2  3
 23 24  1  0
 24 25  2  0
 25 26  1  0
 26 27  2  0
 27 28  1  0
 27 29  1  0
 29 30  2  0
 22 31  1  0
 31 32  1  0
 32  2  1  0
 32  6  1  0
 31 11  2  0
 21 14  1  0
 30 24  1  0
  1 33  1  0
  1 34  1  0
  1 35  1  0
  2 36  1  0
  3 37  1  0
  3 38  1  0
  4 39  1  0
  4 40  1  0
  5 41  1  0
  5 42  1  0
  9 43  1  0
  9 44  1  0
 12 45  1  0
 12 46  1  0
 13 47  1  0
 13 48  1  0
 15 49  1  0
 17 50  1  0
 19 51  1  0
 20 52  1  0
 23 53  1  0
 25 54  1  0
 26 55  1  0
 28 56  1  0
 28 57  1  0
 28 58  1  0
 29 59  1  0
 30 60  1  0
M  END
$$$$
[H]c1nc(Cl)c([H])c([H])c1N1C([H])([H])C2([H])C([H])([H])N([H])C([H])([H])C2([H])C1([H])[H]
     RDKit          3D

 29 31  0  0  0  0  0  0  0  0999 V2000
    6.3978   -0.0284   -0.3393 Cl  0  0  0  0  0  0  0  0  0  0  0  0
    4.6312   -0.0387   -0.2255 C   0  0  0  0  0  0  0  0  0  0  0  0
    4.0022   -0.1205    0.9973 C   0  0  0  0  0  0  0  0  0  0  0  0
    2.6160   -0.1275    1.0707 C   0  0  0  0  0  0  0  0  0  0  0  0
    1.8347   -0.0539   -0.0634 C   0  0  0  0  0  0  0  0  0  0  0  0
    2.5133    0.0264   -1.2630 C   0  0  0  0  0  0  0  0  0  0  0  0
    3.8583    0.0324   -1.3219 N   0  0  0  0  0  0  0  0  0  0  0  0
    0.4150   -0.0603   -0.0016 N   0  0  0  0  0  0  0  0  0  0  0  0
   -0.3946   -0.1416    1.1896 C   0  0  0  0  0  0  0  0  0  0  0  0
   -1.7490    0.4104    0.8412 C   0  0  0  0  0  0  0  0  0  0  0  0
   -2.8348   -0.6494    0.8713 C   0  0  0  0  0  0  0  0  0  0  0  0
   -3.7669   -0.2225   -0.1598 N   0  0  0  0  0  0  0  0  0  0  0  0
   -2.9339    0.1860   -1.2625 C   0  0  0  0  0  0  0  0  0  0  0  0
   -1.7097    0.7728   -0.6179 C   0  0  0  0  0  0  0  0  0  0  0  0
   -0.5111    0.0129   -1.1120 C   0  0  0  0  0  0  0  0  0  0  0  0
    4.6318   -0.1781    1.8861 H   0  0  0  0  0  0  0  0  0  0  0  0
    2.1311   -0.1913    2.0247 H   0  0  0  0  0  0  0  0  0  0  0  0
    1.9127    0.0857   -2.1766 H   0  0  0  0  0  0  0  0  0  0  0  0
    0.0673    0.3405    2.0692 H   0  0  0  0  0  0  0  0  0  0  0  0
   -0.5562   -1.2131    1.4866 H   0  0  0  0  0  0  0  0  0  0  0  0
   -2.0290    1.2792    1.4912 H   0  0  0  0  0  0  0  0  0  0  0  0
   -2.3581   -1.6072    0.6280 H   0  0  0  0  0  0  0  0  0  0  0  0
   -3.3051   -0.6969    1.8568 H   0  0  0  0  0  0  0  0  0  0  0  0
   -4.2518    0.6269    0.1936 H   0  0  0  0  0  0  0  0  0  0  0  0
   -3.4378    0.8514   -1.9674 H   0  0  0  0  0  0  0  0  0  0  0  0
   -2.6914   -0.7537   -1.8369 H   0  0  0  0  0  0  0  0  0  0  0  0
   -1.6367    1.8581   -0.7820 H   0  0  0  0  0  0  0  0  0  0  0  0
   -0.7903   -0.9778   -1.5090 H   0  0  0  0  0  0  0  0  0  0  0  0
   -0.0552    0.5780   -1.9675 H   0  0  0  0  0  0  0  0  0  0  0  0
  1  2  1  0
  2  3  2  0
  3  4  1  0
  4  5  2  0
  5  6  1  0
  6  7  2  0
  5  8  1  0
  8  9  1  0
  9 10  1  0
 10 11  1  0
 11 12  1  0
 12 13  1  0
 13 14  1  0
 14 15  1  0
  7  2  1  0
 15  8  1  0
 14 10  1  0
  3 16  1  0
  4 17  1  0
  6 18  1  0
  9 19  1  0
  9 20  1  0
 10 21  1  0
 11 22  1  0
 11 23  1  0
 12 24  1  0
 13 25  1  0
 13 26  1  0
 14 27  1  0
 15 28  1  0
 15 29  1  0
M  END
$$$$
[H]c1nc(N([H])c2c([H])c([H])c(N3C([H])([H])C([H])([H])OC([H])([H])C3([H])[H])c([H])c2[H])nc(SC([H])([H])[C@@]2([H])OC(=O)[C@@]([H])(N([H])[H])C2([H])[H])c1C(F)(F)F
     RDKit          3D

 54 57  0  0  0  0  0  0  0  0999 V2000
    7.0697    3.2353   -0.0249 N   0  0  0  0  0  0  0  0  0  0  0  0
    7.5935    1.9372   -0.4102 C   0  0  1  0  0  0  0  0  0  0  0  0
    7.0012    0.8483    0.4347 C   0  0  0  0  0  0  0  0  0  0  0  0
    6.7755   -0.3158   -0.5039 C   0  0  1  0  0  0  0  0  0  0  0  0
    5.2938   -0.6061   -0.6715 C   0  0  0  0  0  0  0  0  0  0  0  0
    4.4995   -1.0211    0.8719 S   0  0  0  0  0  0  0  0  0  0  0  0
    2.7827   -1.3830    0.6214 C   0  0  0  0  0  0  0  0  0  0  0  0
    1.8665   -0.3955    0.5978 N   0  0  0  0  0  0  0  0  0  0  0  0
    0.5291   -0.6271    0.4427 C   0  0  0  0  0  0  0  0  0  0  0  0
   -0.3693    0.4519    0.4502 N   0  0  0  0  0  0  0  0  0  0  0  0
   -1.7718    0.4104    0.2921 C   0  0  0  0  0  0  0  0  0  0  0  0
   -2.5471    1.4787    0.7745 C   0  0  0  0  0  0  0  0  0  0  0  0
   -3.9112    1.5280    0.6479 C   0  0  0  0  0  0  0  0  0  0  0  0
   -4.6163    0.5175    0.0304 C   0  0  0  0  0  0  0  0  0  0  0  0
   -3.8781   -0.5327   -0.4474 C   0  0  0  0  0  0  0  0  0  0  0  0
   -2.4839   -0.5865   -0.3201 C   0  0  0  0  0  0  0  0  0  0  0  0
   -6.0226    0.5808   -0.0962 N   0  0  0  0  0  0  0  0  0  0  0  0
   -6.7828   -0.5604   -0.5581 C   0  0  0  0  0  0  0  0  0  0  0  0
   -8.0805   -0.5310    0.2395 C   0  0  0  0  0  0  0  0  0  0  0  0
   -7.9059    0.0697    1.4818 O   0  0  0  0  0  0  0  0  0  0  0  0
   -7.6348    1.4280    1.4148 C   0  0  0  0  0  0  0  0  0  0  0  0
   -6.7645    1.7682    0.2180 C   0  0  0  0  0  0  0  0  0  0  0  0
    0.1470   -1.8885    0.3123 N   0  0  0  0  0  0  0  0  0  0  0  0
    0.9730   -2.9281    0.3232 C   0  0  0  0  0  0  0  0  0  0  0  0
    2.3492   -2.6689    0.4848 C   0  0  0  0  0  0  0  0  0  0  0  0
    3.2402   -3.8236    0.5242 C   0  0  0  0  0  0  0  0  0  0  0  0
    4.1688   -3.8198   -0.4577 F   0  0  0  0  0  0  0  0  0  0  0  0
    2.5416   -5.0224    0.5886 F   0  0  0  0  0  0  0  0  0  0  0  0
    3.9416   -3.7667    1.7399 F   0  0  0  0  0  0  0  0  0  0  0  0
    7.2241    0.1436   -1.7859 O   0  0  0  0  0  0  0  0  0  0  0  0
    7.1800    1.5488   -1.7827 C   0  0  0  0  0  0  0  0  0  0  0  0
    6.8543    2.2589   -2.7575 O   0  0  0  0  0  0  0  0  0  0  0  0
    6.7793    3.1928    0.9693 H   0  0  0  0  0  0  0  0  0  0  0  0
    6.2106    3.4513   -0.6061 H   0  0  0  0  0  0  0  0  0  0  0  0
    8.7001    1.9548   -0.3848 H   0  0  0  0  0  0  0  0  0  0  0  0
    6.0106    1.2223    0.8179 H   0  0  0  0  0  0  0  0  0  0  0  0
    7.6836    0.6009    1.2682 H   0  0  0  0  0  0  0  0  0  0  0  0
    7.2934   -1.2294   -0.2102 H   0  0  0  0  0  0  0  0  0  0  0  0
    4.8271    0.3564   -1.0290 H   0  0  0  0  0  0  0  0  0  0  0  0
    5.1553   -1.3715   -1.4213 H   0  0  0  0  0  0  0  0  0  0  0  0
    0.0350    1.4441    0.5867 H   0  0  0  0  0  0  0  0  0  0  0  0
   -1.9966    2.2883    1.2692 H   0  0  0  0  0  0  0  0  0  0  0  0
   -4.3825    2.4165    1.0723 H   0  0  0  0  0  0  0  0  0  0  0  0
   -4.3470   -1.3683   -0.9468 H   0  0  0  0  0  0  0  0  0  0  0  0
   -1.9631   -1.4353   -0.7326 H   0  0  0  0  0  0  0  0  0  0  0  0
   -7.0362   -0.4709   -1.6553 H   0  0  0  0  0  0  0  0  0  0  0  0
   -6.2923   -1.5237   -0.4256 H   0  0  0  0  0  0  0  0  0  0  0  0
   -8.3559   -1.5866    0.4396 H   0  0  0  0  0  0  0  0  0  0  0  0
   -8.8868   -0.0989   -0.3588 H   0  0  0  0  0  0  0  0  0  0  0  0
   -7.0405    1.6853    2.3279 H   0  0  0  0  0  0  0  0  0  0  0  0
   -8.5552    2.0582    1.4667 H   0  0  0  0  0  0  0  0  0  0  0  0
   -6.1983    2.6871    0.3201 H   0  0  0  0  0  0  0  0  0  0  0  0
   -7.4893    1.9166   -0.6381 H   0  0  0  0  0  0  0  0  0  0  0  0
    0.5861   -3.9182    0.2111 H   0  0  0  0  0  0  0  0  0  0  0  0
  1  2  1  0
  2  3  1  0
  3  4  1  0
  4  5  1  0
  5  6  1  0
  6  7  1  0
  7  8  2  0
  8  9  1  0
  9 10  1  0
 10 11  1  0
 11 12  2  0
 12 13  1  0
 13 14  2  0
 14 15  1  0
 15 16  2  0
 14 17  1  0
 17 18  1  0
 18 19  1  0
 19 20  1  0
 20 21  1  0
 21 22  1  0
  9 23  2  0
 23 24  1  0
 24 25  2  0
 25 26  1  0
 26 27  1  0
 26 28  1  0
 26 29  1  0
  4 30  1  0
 30 31  1  0
 31 32  2  0
 31  2  1  0
 25  7  1  0
 16 11  1  0
 22 17  1  0
  1 33  1  0
  1 34  1  0
  2 35  1  6
  3 36  1  0
  3 37  1  0
  4 38  1  1
  5 39  1  0
  5 40  1  0
 10 41  1  0
 12 42  1  0
 13 43  1  0
 15 44  1  0
 16 45  1  0
 18 46  1  0
 18 47  1  0
 19 48  1  0
 19 49  1  0
 21 50  1  0
 21 51  1  0
 22 52  1  0
 22 53  1  0
 24 54  1  0
M  END
$$$$
[H]c1c2c(c3c(nnn3[H])c1[H])C([H])([H])C1(C([H])([H])C([H])([H])C([H])([H])C([H])([H])[H])C2=C(Br)C(=O)C([H])([H])C1([H])[H]
     RDKit          3D

 40 43  0  0  0  0  0  0  0  0999 V2000
    4.0335    1.7871    0.6671 C   0  0  0  0  0  0  0  0  0  0  0  0
    2.5314    1.3725    0.5935 C   0  0  0  0  0  0  0  0  0  0  0  0
    2.3624    0.3921   -0.5211 C   0  0  0  0  0  0  0  0  0  0  0  0
    1.0637   -0.1215   -0.8891 C   0  0  0  0  0  0  0  0  0  0  0  0
    0.1535   -0.8549   -0.0217 C   0  0  0  0  0  0  0  0  0  0  0  0
   -0.3993   -0.1575    1.1842 C   0  0  0  0  0  0  0  0  0  0  0  0
   -1.6138    0.5537    0.6591 C   0  0  0  0  0  0  0  0  0  0  0  0
   -2.0080   -0.0863   -0.4924 C   0  0  0  0  0  0  0  0  0  0  0  0
   -3.1232    0.3639   -1.2094 C   0  0  0  0  0  0  0  0  0  0  0  0
   -3.8060    1.4753   -0.7083 C   0  0  0  0  0  0  0  0  0  0  0  0
   -3.4036    2.1118    0.4486 C   0  0  0  0  0  0  0  0  0  0  0  0
   -3.8859    3.1640    1.1031 N   0  0  0  0  0  0  0  0  0  0  0  0
   -3.1164    3.3660    2.1739 N   0  0  0  0  0  0  0  0  0  0  0  0
   -2.1606    2.4579    2.2006 N   0  0  0  0  0  0  0  0  0  0  0  0
   -2.2835    1.6402    1.1464 C   0  0  0  0  0  0  0  0  0  0  0  0
   -1.1188   -1.2027   -0.7713 C   0  0  0  0  0  0  0  0  0  0  0  0
   -1.2408   -2.3079   -1.4828 C   0  0  0  0  0  0  0  0  0  0  0  0
   -2.8642   -2.7249   -2.4213 Br  0  0  0  0  0  0  0  0  0  0  0  0
   -0.1486   -3.2643   -1.5966 C   0  0  0  0  0  0  0  0  0  0  0  0
   -0.2334   -4.2532   -2.3671 O   0  0  0  0  0  0  0  0  0  0  0  0
    1.0667   -3.0350   -0.7752 C   0  0  0  0  0  0  0  0  0  0  0  0
    0.6743   -2.2177    0.4237 C   0  0  0  0  0  0  0  0  0  0  0  0
    4.6612    0.9203    0.4399 H   0  0  0  0  0  0  0  0  0  0  0  0
    4.2371    2.5904   -0.0569 H   0  0  0  0  0  0  0  0  0  0  0  0
    4.2748    2.1571    1.6651 H   0  0  0  0  0  0  0  0  0  0  0  0
    1.9004    2.2439    0.5957 H   0  0  0  0  0  0  0  0  0  0  0  0
    2.4291    0.8356    1.5944 H   0  0  0  0  0  0  0  0  0  0  0  0
    3.1434   -0.3958   -0.3078 H   0  0  0  0  0  0  0  0  0  0  0  0
    2.8110    0.8716   -1.4656 H   0  0  0  0  0  0  0  0  0  0  0  0
    1.1235   -0.7193   -1.8719 H   0  0  0  0  0  0  0  0  0  0  0  0
    0.4629    0.7879   -1.2892 H   0  0  0  0  0  0  0  0  0  0  0  0
    0.2713    0.5177    1.6855 H   0  0  0  0  0  0  0  0  0  0  0  0
   -0.7617   -0.9844    1.8734 H   0  0  0  0  0  0  0  0  0  0  0  0
   -3.4858   -0.0712   -2.1033 H   0  0  0  0  0  0  0  0  0  0  0  0
   -4.6779    1.8237   -1.2726 H   0  0  0  0  0  0  0  0  0  0  0  0
   -1.4289    2.4111    2.9503 H   0  0  0  0  0  0  0  0  0  0  0  0
    1.8398   -2.5450   -1.4180 H   0  0  0  0  0  0  0  0  0  0  0  0
    1.4785   -4.0296   -0.4411 H   0  0  0  0  0  0  0  0  0  0  0  0
    1.4437   -2.1473    1.1957 H   0  0  0  0  0  0  0  0  0  0  0  0
   -0.2017   -2.7253    0.8828 H   0  0  0  0  0  0  0  0  0  0  0  0
  1  2  1  0
  2  3  1  0
  3  4  1  0
  4  5  1  0
  5  6  1  0
  6  7  1  0
  7  8  2  0
  8  9  1  0
  9 10  2  0
 10 11  1  0
 11 12  1  0
 12 13  2  0
 13 14  1  0
 14 15  1  0
  8 16  1  0
 16 17  2  0
 17 18  1  0
 17 19  1  0
 19 20  2  0
 19 21  1  0
 21 22  1  0
 16  5  1  0
 22  5  1  0
 15  7  1  0
 15 11  2  0
  1 23  1  0
  1 24  1  0
  1 25  1  0
  2 26  1  0
  2 27  1  0
  3 28  1  0
  3 29  1  0
  4 30  1  0
  4 31  1  0
  6 32  1  0
  6 33  1  0
  9 34  1  0
 10 35  1  0
 14 36  1  0
 21 37  1  0
 21 38  1  0
 22 39  1  0
 22 40  1  0
M  END
$$$$
[H]c1nc(N(C([H])([H])[H])S(=O)(=O)C([H])([H])C([H])([H])[H])nc(N([H])c2c([H])c([H])c3c(c2[H])c([H])c([H])n3[H])c1C(=O)N([H])[H]
     RDKit          3D

 44 46  0  0  0  0  0  0  0  0999 V2000
    4.1819    2.6777   -0.2110 C   0  0  0  0  0  0  0  0  0  0  0  0
    4.6447    1.3863    0.4077 C   0  0  0  0  0  0  0  0  0  0  0  0
    4.1325   -0.0369   -0.4997 S   0  0  0  0  0  0  0  0  0  0  0  0
    4.7030   -1.2412    0.2400 O   0  0  0  0  0  0  0  0  0  0  0  0
    4.7471   -0.0474   -1.8466 O   0  0  0  0  0  0  0  0  0  0  0  0
    2.4352   -0.1750   -0.6339 N   0  0  0  0  0  0  0  0  0  0  0  0
    1.8209   -0.1504   -1.9303 C   0  0  0  0  0  0  0  0  0  0  0  0
    1.6416   -0.3125    0.5328 C   0  0  0  0  0  0  0  0  0  0  0  0
    2.1896   -0.3390    1.7718 N   0  0  0  0  0  0  0  0  0  0  0  0
    1.4652   -0.4667    2.8779 C   0  0  0  0  0  0  0  0  0  0  0  0
    0.0660   -0.5843    2.8384 C   0  0  0  0  0  0  0  0  0  0  0  0
   -0.6633   -0.7045    4.0919 C   0  0  0  0  0  0  0  0  0  0  0  0
    0.1141   -0.7221    5.2917 N   0  0  0  0  0  0  0  0  0  0  0  0
   -1.8820   -0.7963    4.2866 O   0  0  0  0  0  0  0  0  0  0  0  0
   -0.4991   -0.5588    1.5815 C   0  0  0  0  0  0  0  0  0  0  0  0
   -1.8862   -0.7114    1.4297 N   0  0  0  0  0  0  0  0  0  0  0  0
   -2.6227   -0.6623    0.2040 C   0  0  0  0  0  0  0  0  0  0  0  0
   -3.8492   -1.3427    0.1325 C   0  0  0  0  0  0  0  0  0  0  0  0
   -4.6190   -1.3146   -0.9981 C   0  0  0  0  0  0  0  0  0  0  0  0
   -4.2332   -0.6195   -2.1233 C   0  0  0  0  0  0  0  0  0  0  0  0
   -4.7792   -0.4279   -3.3352 N   0  0  0  0  0  0  0  0  0  0  0  0
   -3.9578    0.3447   -4.0424 C   0  0  0  0  0  0  0  0  0  0  0  0
   -2.8582    0.6593   -3.2727 C   0  0  0  0  0  0  0  0  0  0  0  0
   -3.0373    0.0475   -2.0611 C   0  0  0  0  0  0  0  0  0  0  0  0
   -2.2406    0.0264   -0.9087 C   0  0  0  0  0  0  0  0  0  0  0  0
    0.3137   -0.4256    0.5147 N   0  0  0  0  0  0  0  0  0  0  0  0
    4.8885    3.4758    0.1514 H   0  0  0  0  0  0  0  0  0  0  0  0
    4.2481    2.6854   -1.3085 H   0  0  0  0  0  0  0  0  0  0  0  0
    3.1873    2.9723    0.1811 H   0  0  0  0  0  0  0  0  0  0  0  0
    4.3371    1.3654    1.4564 H   0  0  0  0  0  0  0  0  0  0  0  0
    5.7554    1.4013    0.3950 H   0  0  0  0  0  0  0  0  0  0  0  0
    0.9083   -0.8149   -1.9502 H   0  0  0  0  0  0  0  0  0  0  0  0
    1.4554    0.8525   -2.2231 H   0  0  0  0  0  0  0  0  0  0  0  0
    2.5111   -0.5830   -2.6898 H   0  0  0  0  0  0  0  0  0  0  0  0
    1.9480   -0.4835    3.8588 H   0  0  0  0  0  0  0  0  0  0  0  0
    0.7374   -1.5230    5.4595 H   0  0  0  0  0  0  0  0  0  0  0  0
    0.0522    0.0444    5.9684 H   0  0  0  0  0  0  0  0  0  0  0  0
   -2.4786   -0.8831    2.2608 H   0  0  0  0  0  0  0  0  0  0  0  0
   -4.1776   -1.8962    0.9993 H   0  0  0  0  0  0  0  0  0  0  0  0
   -5.5699   -1.8318   -1.0782 H   0  0  0  0  0  0  0  0  0  0  0  0
   -5.7082   -0.8293   -3.6619 H   0  0  0  0  0  0  0  0  0  0  0  0
   -4.1155    0.6826   -5.0663 H   0  0  0  0  0  0  0  0  0  0  0  0
   -1.9958    1.2675   -3.5312 H   0  0  0  0  0  0  0  0  0  0  0  0
   -1.3108    0.5946   -0.9225 H   0  0  0  0  0  0  0  0  0  0  0  0
  1  2  1  0
  2  3  1  0
  3  4  2  0
  3  5  2  0
  3  6  1  0
  6  7  1  0
  6  8  1  0
  8  9  2  0
  9 10  1  0
 10 11  2  0
 11 12  1  0
 12 13  1  0
 12 14  2  0
 11 15  1  0
 15 16  1  0
 16 17  1  0
 17 18  2  0
 18 19  1  0
 19 20  2  0
 20 21  1  0
 21 22  1  0
 22 23  2  0
 23 24  1  0
 24 25  2  0
 15 26  2  0
 26  8  1  0
 25 17  1  0
 24 20  1  0
  1 27  1  0
  1 28  1  0
  1 29  1  0
  2 30  1  0
  2 31  1  0
  7 32  1  0
  7 33  1  0
  7 34  1  0
 10 35  1  0
 13 36  1  0
 13 37  1  0
 16 38  1  0
 18 39  1  0
 19 40  1  0
 21 41  1  0
 22 42  1  0
 23 43  1  0
 25 44  1  0
M  END
$$$$
[H]c1c([H])c([H])c(C2([H])C([H])([H])N(C(=O)O[C@@]3(C([H])([H])[H])C(C([H])([H])[H])(C([H])([H])[H])C([H])(OC(=O)N4C([H])([H])C([H])([H])OC([H])([H])C4([H])[H])[C@@]([H])(C([H])([H])[H])C3([H])[H])C2([H])[H])c([H])c1[H]
     RDKit          3D

 65 68  0  0  0  0  0  0  0  0999 V2000
   -2.8107    2.8025   -1.3931 C   0  0  0  0  0  0  0  0  0  0  0  0
   -2.0352    1.5195   -1.5883 C   0  0  1  0  0  0  0  0  0  0  0  0
   -0.5443    1.7642   -1.6818 C   0  0  0  0  0  0  0  0  0  0  0  0
   -0.0395    0.3051   -1.6228 C   0  0  1  0  0  0  0  0  0  0  0  0
   -0.2025   -0.2105   -3.0475 C   0  0  0  0  0  0  0  0  0  0  0  0
    1.2922    0.3978   -1.2388 O   0  0  0  0  0  0  0  0  0  0  0  0
    2.2079   -0.6116   -1.0612 C   0  0  0  0  0  0  0  0  0  0  0  0
    1.8104   -1.7910   -1.2732 O   0  0  0  0  0  0  0  0  0  0  0  0
    3.5590   -0.3552   -0.6534 N   0  0  0  0  0  0  0  0  0  0  0  0
    4.3893    0.7770   -0.3221 C   0  0  0  0  0  0  0  0  0  0  0  0
    5.5862   -0.0409   -0.7786 C   0  0  0  0  0  0  0  0  0  0  0  0
    4.6978   -1.2056   -0.3974 C   0  0  0  0  0  0  0  0  0  0  0  0
    6.7893    0.1009    0.0415 C   0  0  0  0  0  0  0  0  0  0  0  0
    8.0087    0.2849   -0.5729 C   0  0  0  0  0  0  0  0  0  0  0  0
    9.1814    0.4239    0.1779 C   0  0  0  0  0  0  0  0  0  0  0  0
    9.1167    0.3763    1.5481 C   0  0  0  0  0  0  0  0  0  0  0  0
    7.9144    0.1944    2.1701 C   0  0  0  0  0  0  0  0  0  0  0  0
    6.7491    0.0567    1.4076 C   0  0  0  0  0  0  0  0  0  0  0  0
   -0.9641   -0.3592   -0.6488 C   0  0  0  0  0  0  0  0  0  0  0  0
   -0.3494   -0.6853    0.6790 C   0  0  0  0  0  0  0  0  0  0  0  0
   -1.5947   -1.6261   -1.2053 C   0  0  0  0  0  0  0  0  0  0  0  0
   -2.0986    0.6313   -0.3709 C   0  0  0  0  0  0  0  0  0  0  0  0
   -3.3459   -0.0228   -0.2542 O   0  0  0  0  0  0  0  0  0  0  0  0
   -4.1465    0.0741    0.8742 C   0  0  0  0  0  0  0  0  0  0  0  0
   -3.7159    0.7812    1.8164 O   0  0  0  0  0  0  0  0  0  0  0  0
   -5.3922   -0.5686    1.0105 N   0  0  0  0  0  0  0  0  0  0  0  0
   -5.9179   -1.3883   -0.0547 C   0  0  0  0  0  0  0  0  0  0  0  0
   -7.3907   -0.9836   -0.2081 C   0  0  0  0  0  0  0  0  0  0  0  0
   -8.0657   -1.2193    0.9578 O   0  0  0  0  0  0  0  0  0  0  0  0
   -7.6358   -0.4432    2.0239 C   0  0  0  0  0  0  0  0  0  0  0  0
   -6.1551   -0.4174    2.2114 C   0  0  0  0  0  0  0  0  0  0  0  0
   -3.7013    2.5662   -0.7720 H   0  0  0  0  0  0  0  0  0  0  0  0
   -3.1852    3.1935   -2.3622 H   0  0  0  0  0  0  0  0  0  0  0  0
   -2.2323    3.5634   -0.8372 H   0  0  0  0  0  0  0  0  0  0  0  0
   -2.3391    0.9879   -2.5114 H   0  0  0  0  0  0  0  0  0  0  0  0
   -0.2450    2.3083   -0.7687 H   0  0  0  0  0  0  0  0  0  0  0  0
   -0.2422    2.2556   -2.6089 H   0  0  0  0  0  0  0  0  0  0  0  0
    0.4816   -1.0650   -3.2166 H   0  0  0  0  0  0  0  0  0  0  0  0
    0.1345    0.5833   -3.7788 H   0  0  0  0  0  0  0  0  0  0  0  0
   -1.2184   -0.5306   -3.2694 H   0  0  0  0  0  0  0  0  0  0  0  0
    4.2066    1.6862   -0.9271 H   0  0  0  0  0  0  0  0  0  0  0  0
    4.4424    0.9358    0.7665 H   0  0  0  0  0  0  0  0  0  0  0  0
    5.7370   -0.0108   -1.8748 H   0  0  0  0  0  0  0  0  0  0  0  0
    4.8005   -2.0731   -1.0817 H   0  0  0  0  0  0  0  0  0  0  0  0
    4.8245   -1.4539    0.6822 H   0  0  0  0  0  0  0  0  0  0  0  0
    8.0924    0.3272   -1.6505 H   0  0  0  0  0  0  0  0  0  0  0  0
   10.1473    0.5690   -0.2883 H   0  0  0  0  0  0  0  0  0  0  0  0
    9.9996    0.4794    2.1681 H   0  0  0  0  0  0  0  0  0  0  0  0
    7.7992    0.1479    3.2471 H   0  0  0  0  0  0  0  0  0  0  0  0
    5.8048   -0.0862    1.8875 H   0  0  0  0  0  0  0  0  0  0  0  0
   -1.1092   -0.4534    1.4850 H   0  0  0  0  0  0  0  0  0  0  0  0
   -0.1389   -1.7650    0.8302 H   0  0  0  0  0  0  0  0  0  0  0  0
    0.5224   -0.0399    0.9143 H   0  0  0  0  0  0  0  0  0  0  0  0
   -2.6205   -1.4016   -1.5717 H   0  0  0  0  0  0  0  0  0  0  0  0
   -0.9561   -2.0734   -1.9715 H   0  0  0  0  0  0  0  0  0  0  0  0
   -1.6948   -2.3400   -0.3693 H   0  0  0  0  0  0  0  0  0  0  0  0
   -1.8229    1.2221    0.5068 H   0  0  0  0  0  0  0  0  0  0  0  0
   -5.9091   -2.4478    0.2865 H   0  0  0  0  0  0  0  0  0  0  0  0
   -5.3895   -1.2460   -1.0088 H   0  0  0  0  0  0  0  0  0  0  0  0
   -7.8200   -1.5929   -1.0082 H   0  0  0  0  0  0  0  0  0  0  0  0
   -7.3729    0.0989   -0.4427 H   0  0  0  0  0  0  0  0  0  0  0  0
   -7.9612    0.6058    1.8118 H   0  0  0  0  0  0  0  0  0  0  0  0
   -8.1780   -0.7416    2.9447 H   0  0  0  0  0  0  0  0  0  0  0  0
   -5.8488    0.4977    2.7561 H   0  0  0  0  0  0  0  0  0  0  0  0
   -5.9050   -1.2681    2.9100 H   0  0  0  0  0  0  0  0  0  0  0  0
  1  2  1  0
  2  3  1  0
  3  4  1  0
  4  5  1  0
  4  6  1  1
  6  7  1  0
  7  8  2  0
  7  9  1  0
  9 10  1  0
 10 11  1  0
 11 12  1  0
 11 13  1  0
 13 14  2  0
 14 15  1  0
 15 16  2  0
 16 17  1  0
 17 18  2  0
  4 19  1  0
 19 20  1  0
 19 21  1  0
 19 22  1  0
 22 23  1  0
 23 24  1  0
 24 25  2  0
 24 26  1  0
 26 27  1  0
 27 28  1  0
 28 29  1  0
 29 30  1  0
 30 31  1  0
 22  2  1  0
 31 26  1  0
 12  9  1  0
 18 13  1  0
  1 32  1  0
  1 33  1  0
  1 34  1  0
  2 35  1  6
  3 36  1  0
  3 37  1  0
  5 38  1  0
  5 39  1  0
  5 40  1  0
 10 41  1  0
 10 42  1  0
 11 43  1  0
 12 44  1  0
 12 45  1  0
 14 46  1  0
 15 47  1  0
 16 48  1  0
 17 49  1  0
 18 50  1  0
 20 51  1  0
 20 52  1  0
 20 53  1  0
 21 54  1  0
 21 55  1  0
 21 56  1  0
 22 57  1  0
 27 58  1  0
 27 59  1  0
 28 60  1  0
 28 61  1  0
 30 62  1  0
 30 63  1  0
 31 64  1  0
 31 65  1  0
M  END
$$$$
[H]c1c([H])c([H])c(-c2c([H])c([H])c(C([H])([H])OC(=O)N([H])[C@]([H])(C(=O)N([H])[C@]([H])(C(=O)N([H])[C@@]([H])(C(=O)N([H])c3c([H])c([H])c([H])c([H])c3[H])C([H])(C([H])([H])[H])C([H])([H])[H])C([H])([H])C([H])([H])C([H])([H])C([H])([H])N([H])C(=O)c3c([H])c([H])c([N+](=O)[O-])c([H])c3[H])C([H])([H])C([H])(C([H])([H])[H])C([H])([H])[H])c([H])c2[H])c([H])c1[H]
     RDKit          2D

110113  0  0  0  0  0  0  0  0999 V2000
    7.5000   -8.1962    0.0000 C   0  0  0  0  0  0  0  0  0  0  0  0
    6.0000   -8.1962    0.0000 C   0  0  0  0  0  0  0  0  0  0  0  0
    4.5000   -8.1962    0.0000 C   0  0  0  0  0  0  0  0  0  0  0  0
    6.0000   -6.6962    0.0000 C   0  0  0  0  0  0  0  0  0  0  0  0
    6.0000   -5.1962    0.0000 C   0  0  0  0  0  0  0  0  0  0  0  0
    7.5000   -5.1962    0.0000 N   0  0  0  0  0  0  0  0  0  0  0  0
    8.2500   -6.4952    0.0000 C   0  0  0  0  0  0  0  0  0  0  0  0
    7.9788   -7.4412    0.0000 O   0  0  0  0  0  0  0  0  0  0  0  0
    9.7500   -6.4952    0.0000 O   0  0  0  0  0  0  0  0  0  0  0  0
   10.5000   -7.7942    0.0000 C   0  0  0  0  0  0  0  0  0  0  0  0
   11.2500   -9.0933    0.0000 C   0  0  0  0  0  0  0  0  0  0  0  0
   10.5000  -10.3923    0.0000 C   0  0  0  0  0  0  0  0  0  0  0  0
   11.2500  -11.6913    0.0000 C   0  0  0  0  0  0  0  0  0  0  0  0
   12.7500  -11.6913    0.0000 C   0  0  0  0  0  0  0  0  0  0  0  0
   13.5000  -10.3923    0.0000 C   0  0  0  0  0  0  0  0  0  0  0  0
   12.7500   -9.0933    0.0000 C   0  0  0  0  0  0  0  0  0  0  0  0
   13.5000  -12.9904    0.0000 C   0  0  0  0  0  0  0  0  0  0  0  0
   12.7500  -14.2894    0.0000 C   0  0  0  0  0  0  0  0  0  0  0  0
   13.5000  -15.5885    0.0000 C   0  0  0  0  0  0  0  0  0  0  0  0
   15.0000  -15.5885    0.0000 C   0  0  0  0  0  0  0  0  0  0  0  0
   15.7500  -14.2894    0.0000 C   0  0  0  0  0  0  0  0  0  0  0  0
   15.0000  -12.9904    0.0000 C   0  0  0  0  0  0  0  0  0  0  0  0
    6.0000   -3.6962    0.0000 C   0  0  0  0  0  0  0  0  0  0  0  0
    5.2329   -3.2533    0.0000 O   0  0  0  0  0  0  0  0  0  0  0  0
    7.2990   -2.9462    0.0000 N   0  0  0  0  0  0  0  0  0  0  0  0
    7.2990   -1.4462    0.0000 C   0  0  0  0  0  0  0  0  0  0  0  0
    8.7990   -1.4462    0.0000 C   0  0  0  0  0  0  0  0  0  0  0  0
   10.2990   -1.4462    0.0000 C   0  0  0  0  0  0  0  0  0  0  0  0
   11.7990   -1.4462    0.0000 C   0  0  0  0  0  0  0  0  0  0  0  0
   13.2990   -1.4462    0.0000 C   0  0  0  0  0  0  0  0  0  0  0  0
   14.7990   -1.4462    0.0000 N   0  0  0  0  0  0  0  0  0  0  0  0
   15.5490   -0.1471    0.0000 C   0  0  0  0  0  0  0  0  0  0  0  0
   14.7990    1.1519    0.0000 O   0  0  0  0  0  0  0  0  0  0  0  0
   17.0490   -0.1471    0.0000 C   0  0  0  0  0  0  0  0  0  0  0  0
   17.7990   -1.4462    0.0000 C   0  0  0  0  0  0  0  0  0  0  0  0
   19.2990   -1.4462    0.0000 C   0  0  0  0  0  0  0  0  0  0  0  0
   20.0490   -0.1471    0.0000 C   0  0  0  0  0  0  0  0  0  0  0  0
   19.2990    1.1519    0.0000 C   0  0  0  0  0  0  0  0  0  0  0  0
   17.7990    1.1519    0.0000 C   0  0  0  0  0  0  0  0  0  0  0  0
   21.5490   -0.1471    0.0000 N   0  0  0  0  0  0  0  0  0  0  0  0
   22.2990    1.1519    0.0000 O   0  0  0  0  0  0  0  0  0  0  0  0
   22.2990   -1.4462    0.0000 O   0  0  0  0  0  0  0  0  0  0  0  0
    5.7990   -1.4462    0.0000 C   0  0  0  0  0  0  0  0  0  0  0  0
    5.4005   -2.1365    0.0000 O   0  0  0  0  0  0  0  0  0  0  0  0
    5.0490   -0.1471    0.0000 N   0  0  0  0  0  0  0  0  0  0  0  0
    3.5490   -0.1471    0.0000 C   0  0  0  0  0  0  0  0  0  0  0  0
    3.5490   -1.6471    0.0000 C   0  0  0  0  0  0  0  0  0  0  0  0
    4.4960   -2.1939    0.0000 O   0  0  0  0  0  0  0  0  0  0  0  0
    2.2500   -2.3971    0.0000 N   0  0  0  0  0  0  0  0  0  0  0  0
    2.2500   -3.8971    0.0000 C   0  0  0  0  0  0  0  0  0  0  0  0
    0.9510   -4.6471    0.0000 C   0  0  0  0  0  0  0  0  0  0  0  0
    0.9510   -6.1471    0.0000 C   0  0  0  0  0  0  0  0  0  0  0  0
    2.2500   -6.8971    0.0000 C   0  0  0  0  0  0  0  0  0  0  0  0
    3.5490   -6.1471    0.0000 C   0  0  0  0  0  0  0  0  0  0  0  0
    3.5490   -4.6471    0.0000 C   0  0  0  0  0  0  0  0  0  0  0  0
    3.5490    1.3529    0.0000 C   0  0  0  0  0  0  0  0  0  0  0  0
    3.5490    2.8529    0.0000 C   0  0  0  0  0  0  0  0  0  0  0  0
    2.0490    1.3529    0.0000 C   0  0  0  0  0  0  0  0  0  0  0  0
    8.9888   -8.3790    0.0000 H   0  0  0  0  0  0  0  0  0  0  0  0
    7.5000   -9.6962    0.0000 H   0  0  0  0  0  0  0  0  0  0  0  0
    7.3172   -6.7073    0.0000 H   0  0  0  0  0  0  0  0  0  0  0  0
    6.0000   -9.6962    0.0000 H   0  0  0  0  0  0  0  0  0  0  0  0
    3.0112   -8.3790    0.0000 H   0  0  0  0  0  0  0  0  0  0  0  0
    4.5000   -9.6962    0.0000 H   0  0  0  0  0  0  0  0  0  0  0  0
    4.5000   -6.6962    0.0000 H   0  0  0  0  0  0  0  0  0  0  0  0
    4.5000   -6.6962    0.0000 H   0  0  0  0  0  0  0  0  0  0  0  0
    7.4888   -6.8790    0.0000 H   0  0  0  0  0  0  0  0  0  0  0  0
    4.5000   -5.1962    0.0000 H   0  0  0  0  0  0  0  0  0  0  0  0
    8.4028   -3.9982    0.0000 H   0  0  0  0  0  0  0  0  0  0  0  0
   11.7990   -7.0442    0.0000 H   0  0  0  0  0  0  0  0  0  0  0  0
    9.3021   -8.6970    0.0000 H   0  0  0  0  0  0  0  0  0  0  0  0
    9.0000  -10.3923    0.0000 H   0  0  0  0  0  0  0  0  0  0  0  0
   10.5000  -12.9904    0.0000 H   0  0  0  0  0  0  0  0  0  0  0  0
   15.0000  -10.3923    0.0000 H   0  0  0  0  0  0  0  0  0  0  0  0
   13.5000   -7.7942    0.0000 H   0  0  0  0  0  0  0  0  0  0  0  0
   11.2500  -14.2894    0.0000 H   0  0  0  0  0  0  0  0  0  0  0  0
   12.7500  -16.8875    0.0000 H   0  0  0  0  0  0  0  0  0  0  0  0
   15.7500  -16.8875    0.0000 H   0  0  0  0  0  0  0  0  0  0  0  0
   17.2500  -14.2894    0.0000 H   0  0  0  0  0  0  0  0  0  0  0  0
   15.7500  -11.6913    0.0000 H   0  0  0  0  0  0  0  0  0  0  0  0
    8.5981   -3.6962    0.0000 H   0  0  0  0  0  0  0  0  0  0  0  0
    7.2990    0.0538    0.0000 H   0  0  0  0  0  0  0  0  0  0  0  0
    8.7990    0.0538    0.0000 H   0  0  0  0  0  0  0  0  0  0  0  0
    8.9819   -2.9350    0.0000 H   0  0  0  0  0  0  0  0  0  0  0  0
   10.2990   -2.9462    0.0000 H   0  0  0  0  0  0  0  0  0  0  0  0
   10.2990    0.0538    0.0000 H   0  0  0  0  0  0  0  0  0  0  0  0
   11.7990    0.0538    0.0000 H   0  0  0  0  0  0  0  0  0  0  0  0
   11.7990   -2.9462    0.0000 H   0  0  0  0  0  0  0  0  0  0  0  0
   13.2990   -2.9462    0.0000 H   0  0  0  0  0  0  0  0  0  0  0  0
   13.2990    0.0538    0.0000 H   0  0  0  0  0  0  0  0  0  0  0  0
   15.5490   -2.7452    0.0000 H   0  0  0  0  0  0  0  0  0  0  0  0
   17.0490   -2.7452    0.0000 H   0  0  0  0  0  0  0  0  0  0  0  0
   20.0490   -2.7452    0.0000 H   0  0  0  0  0  0  0  0  0  0  0  0
   20.0490    2.4510    0.0000 H   0  0  0  0  0  0  0  0  0  0  0  0
   17.0490    2.4510    0.0000 H   0  0  0  0  0  0  0  0  0  0  0  0
    5.9518    1.0508    0.0000 H   0  0  0  0  0  0  0  0  0  0  0  0
    2.0602   -0.3300    0.0000 H   0  0  0  0  0  0  0  0  0  0  0  0
    0.9510   -1.6471    0.0000 H   0  0  0  0  0  0  0  0  0  0  0  0
   -0.3481   -3.8971    0.0000 H   0  0  0  0  0  0  0  0  0  0  0  0
   -0.3481   -6.8971    0.0000 H   0  0  0  0  0  0  0  0  0  0  0  0
    2.0672   -8.3859    0.0000 H   0  0  0  0  0  0  0  0  0  0  0  0
    4.8481   -6.8971    0.0000 H   0  0  0  0  0  0  0  0  0  0  0  0
    4.8481   -3.8971    0.0000 H   0  0  0  0  0  0  0  0  0  0  0  0
    5.0379    1.5357    0.0000 H   0  0  0  0  0  0  0  0  0  0  0  0
    3.5490    4.3529    0.0000 H   0  0  0  0  0  0  0  0  0  0  0  0
    5.0490    2.8529    0.0000 H   0  0  0  0  0  0  0  0  0  0  0  0
    2.0602    3.0357    0.0000 H   0  0  0  0  0  0  0  0  0  0  0  0
    0.5490    1.3529    0.0000 H   0  0  0  0  0  0  0  0  0  0  0  0
    1.8662    2.8417    0.0000 H   0  0  0  0  0  0  0  0  0  0  0  0
    1.8662   -0.1359    0.0000 H   0  0  0  0  0  0  0  0  0  0  0  0
  1  2  1  0
  2  3  1  0
  2  4  1  0
  4  5  1  0
  5  6  1  0
  6  7  1  0
  7  8  2  0
  7  9  1  0
  9 10  1  0
 10 11  1  0
 11 12  2  0
 12 13  1  0
 13 14  2  0
 14 15  1  0
 15 16  2  0
 14 17  1  0
 17 18  2  0
 18 19  1  0
 19 20  2  0
 20 21  1  0
 21 22  2  0
  5 23  1  0
 23 24  2  0
 23 25  1  0
 25 26  1  0
 26 27  1  0
 27 28  1  0
 28 29  1  0
 29 30  1  0
 30 31  1  0
 31 32  1  0
 32 33  2  0
 32 34  1  0
 34 35  2  0
 35 36  1  0
 36 37  2  0
 37 38  1  0
 38 39  2  0
 37 40  1  0
 40 41  1  0
 40 42  2  0
 26 43  1  0
 43 44  2  0
 43 45  1  0
 45 46  1  0
 46 47  1  0
 47 48  2  0
 47 49  1  0
 49 50  1  0
 50 51  2  0
 51 52  1  0
 52 53  2  0
 53 54  1  0
 54 55  2  0
 46 56  1  0
 56 57  1  0
 56 58  1  0
 16 11  1  0
 22 17  1  0
 39 34  1  0
 55 50  1  0
  1 59  1  0
  1 60  1  0
  1 61  1  0
  2 62  1  0
  3 63  1  0
  3 64  1  0
  3 65  1  0
  4 66  1  0
  4 67  1  0
  5 68  1  6
  6 69  1  0
 10 70  1  0
 10 71  1  0
 12 72  1  0
 13 73  1  0
 15 74  1  0
 16 75  1  0
 18 76  1  0
 19 77  1  0
 20 78  1  0
 21 79  1  0
 22 80  1  0
 25 81  1  0
 26 82  1  1
 27 83  1  0
 27 84  1  0
 28 85  1  0
 28 86  1  0
 29 87  1  0
 29 88  1  0
 30 89  1  0
 30 90  1  0
 31 91  1  0
 35 92  1  0
 36 93  1  0
 38 94  1  0
 39 95  1  0
 45 96  1  0
 46 97  1  6
 49 98  1  0
 51 99  1  0
 52100  1  0
 53101  1  0
 54102  1  0
 55103  1  0
 56104  1  0
 57105  1  0
 57106  1  0
 57107  1  0
 58108  1  0
 58109  1  0
 58110  1  0
M  CHG  2  40   1  41  -1
M  END
$$$$
[H]OC(=O)[C@@]([H])(N([H])C(=O)[C@@]([H])(N([H])C(=O)OC([H])([H])c1c([H])c([H])c([H])c([H])c1[H])C([H])([H])C([H])([H])C([H])([H])C([H])([H])N([H])[H])C([H])([H])C([H])(C([H])([H])[H])C([H])([H])[H]
     RDKit          3D

 59 59  0  0  0  0  0  0  0  0999 V2000
   -5.8015   -1.6866    0.5676 C   0  0  0  0  0  0  0  0  0  0  0  0
   -4.3700   -2.1059    0.7154 C   0  0  0  0  0  0  0  0  0  0  0  0
   -4.2554   -2.8579    2.0564 C   0  0  0  0  0  0  0  0  0  0  0  0
   -3.3411   -1.0726    0.6324 C   0  0  0  0  0  0  0  0  0  0  0  0
   -3.1417   -0.2733   -0.5954 C   0  0  2  0  0  0  0  0  0  0  0  0
   -2.0070    0.6475   -0.2825 N   0  0  0  0  0  0  0  0  0  0  0  0
   -0.6903    0.3040   -0.5847 C   0  0  0  0  0  0  0  0  0  0  0  0
   -0.5226   -0.8560   -1.1212 O   0  0  0  0  0  0  0  0  0  0  0  0
    0.5236    1.0974   -0.3659 C   0  0  2  0  0  0  0  0  0  0  0  0
    0.7291    2.1707   -1.4148 C   0  0  0  0  0  0  0  0  0  0  0  0
   -0.3359    3.1960   -1.5089 C   0  0  0  0  0  0  0  0  0  0  0  0
   -0.5564    4.0285   -0.2954 C   0  0  0  0  0  0  0  0  0  0  0  0
   -1.6863    5.0086   -0.6088 C   0  0  0  0  0  0  0  0  0  0  0  0
   -1.9444    5.8609    0.5637 N   0  0  0  0  0  0  0  0  0  0  0  0
    1.6583    0.1687   -0.5643 N   0  0  0  0  0  0  0  0  0  0  0  0
    2.6760    0.0228    0.4182 C   0  0  0  0  0  0  0  0  0  0  0  0
    2.6119    0.7126    1.4655 O   0  0  0  0  0  0  0  0  0  0  0  0
    3.7087   -0.8515    0.2453 O   0  0  0  0  0  0  0  0  0  0  0  0
    4.7542   -1.0539    1.1831 C   0  0  0  0  0  0  0  0  0  0  0  0
    5.6318   -2.1031    0.6400 C   0  0  0  0  0  0  0  0  0  0  0  0
    5.4268   -2.6524   -0.5945 C   0  0  0  0  0  0  0  0  0  0  0  0
    6.2354   -3.6602   -1.1116 C   0  0  0  0  0  0  0  0  0  0  0  0
    7.2770   -4.0944   -0.3117 C   0  0  0  0  0  0  0  0  0  0  0  0
    7.5071   -3.5666    0.9205 C   0  0  0  0  0  0  0  0  0  0  0  0
    6.6795   -2.5610    1.4048 C   0  0  0  0  0  0  0  0  0  0  0  0
   -4.2080    0.5126   -1.1477 C   0  0  0  0  0  0  0  0  0  0  0  0
   -5.2345    0.0592   -1.9448 O   0  0  0  0  0  0  0  0  0  0  0  0
   -4.2293    1.7675   -0.8963 O   0  0  0  0  0  0  0  0  0  0  0  0
   -6.2551   -1.9949   -0.3963 H   0  0  0  0  0  0  0  0  0  0  0  0
   -6.4557   -2.2148    1.3300 H   0  0  0  0  0  0  0  0  0  0  0  0
   -5.9657   -0.6007    0.6980 H   0  0  0  0  0  0  0  0  0  0  0  0
   -4.2327   -2.9373   -0.0405 H   0  0  0  0  0  0  0  0  0  0  0  0
   -4.0579   -2.1780    2.8939 H   0  0  0  0  0  0  0  0  0  0  0  0
   -5.1709   -3.4790    2.2080 H   0  0  0  0  0  0  0  0  0  0  0  0
   -3.3929   -3.5729    1.9562 H   0  0  0  0  0  0  0  0  0  0  0  0
   -3.4987   -0.3739    1.5205 H   0  0  0  0  0  0  0  0  0  0  0  0
   -2.3346   -1.5353    0.9087 H   0  0  0  0  0  0  0  0  0  0  0  0
   -2.7127   -0.9456   -1.4006 H   0  0  0  0  0  0  0  0  0  0  0  0
   -2.2554    1.5319    0.1678 H   0  0  0  0  0  0  0  0  0  0  0  0
    0.6119    1.4955    0.6384 H   0  0  0  0  0  0  0  0  0  0  0  0
    0.7379    1.6245   -2.4032 H   0  0  0  0  0  0  0  0  0  0  0  0
    1.7274    2.6166   -1.2768 H   0  0  0  0  0  0  0  0  0  0  0  0
   -1.2977    2.7421   -1.8427 H   0  0  0  0  0  0  0  0  0  0  0  0
   -0.0217    3.9064   -2.3312 H   0  0  0  0  0  0  0  0  0  0  0  0
   -0.8993    3.4517    0.5842 H   0  0  0  0  0  0  0  0  0  0  0  0
    0.3489    4.6193   -0.0698 H   0  0  0  0  0  0  0  0  0  0  0  0
   -1.4293    5.6692   -1.4616 H   0  0  0  0  0  0  0  0  0  0  0  0
   -2.6393    4.4983   -0.8139 H   0  0  0  0  0  0  0  0  0  0  0  0
   -1.0972    5.7535    1.1996 H   0  0  0  0  0  0  0  0  0  0  0  0
   -2.7628    5.5293    1.0941 H   0  0  0  0  0  0  0  0  0  0  0  0
    1.7209   -0.3878   -1.4256 H   0  0  0  0  0  0  0  0  0  0  0  0
    4.3461   -1.2781    2.1884 H   0  0  0  0  0  0  0  0  0  0  0  0
    5.3633   -0.1083    1.2743 H   0  0  0  0  0  0  0  0  0  0  0  0
    4.5897   -2.2840   -1.2075 H   0  0  0  0  0  0  0  0  0  0  0  0
    6.0134   -4.0442   -2.0888 H   0  0  0  0  0  0  0  0  0  0  0  0
    7.9158   -4.8844   -0.7090 H   0  0  0  0  0  0  0  0  0  0  0  0
    8.3079   -3.9037    1.5321 H   0  0  0  0  0  0  0  0  0  0  0  0
    6.8560   -2.1394    2.3790 H   0  0  0  0  0  0  0  0  0  0  0  0
   -5.1546   -0.7376   -2.5702 H   0  0  0  0  0  0  0  0  0  0  0  0
  1  2  1  0
  2  3  1  0
  2  4  1  0
  4  5  1  0
  5  6  1  0
  6  7  1  0
  7  8  2  0
  7  9  1  0
  9 10  1  0
 10 11  1  0
 11 12  1  0
 12 13  1  0
 13 14  1  0
  9 15  1  0
 15 16  1  0
 16 17  2  0
 16 18  1  0
 18 19  1  0
 19 20  1  0
 20 21  2  0
 21 22  1  0
 22 23  2  0
 23 24  1  0
 24 25  2  0
  5 26  1  0
 26 27  1  0
 26 28  2  0
 25 20  1  0
  1 29  1  0
  1 30  1  0
  1 31  1  0
  2 32  1  0
  3 33  1  0
  3 34  1  0
  3 35  1  0
  4 36  1  0
  4 37  1  0
  5 38  1  6
  6 39  1  0
  9 40  1  1
 10 41  1  0
 10 42  1  0
 11 43  1  0
 11 44  1  0
 12 45  1  0
 12 46  1  0
 13 47  1  0
 13 48  1  0
 14 49  1  0
 14 50  1  0
 15 51  1  0
 19 52  1  0
 19 53  1  0
 21 54  1  0
 22 55  1  0
 23 56  1  0
 24 57  1  0
 25 58  1  0
 27 59  1  0
M  END
$$$$
[H]c1c([H])c(C([H])([H])c2nc(N3C([H])([H])C([H])([H])OC([H])([H])C3([H])[H])c([H])c(C(=O)N([H])C3(C(F)(F)F)C([H])([H])C([H])([H])OC([H])([H])C3([H])[H])c2[H])c([H])c([H])c1F
     RDKit          3D

 58 61  0  0  0  0  0  0  0  0999 V2000
   -4.8327    4.4636    3.6416 F   0  0  0  0  0  0  0  0  0  0  0  0
   -4.3449    3.9665    2.4680 C   0  0  0  0  0  0  0  0  0  0  0  0
   -5.0405    3.0678    1.6947 C   0  0  0  0  0  0  0  0  0  0  0  0
   -4.5072    2.5875    0.5071 C   0  0  0  0  0  0  0  0  0  0  0  0
   -3.2677    2.9859    0.0533 C   0  0  0  0  0  0  0  0  0  0  0  0
   -2.7176    2.4618   -1.2159 C   0  0  0  0  0  0  0  0  0  0  0  0
   -1.9154    1.2275   -1.0356 C   0  0  0  0  0  0  0  0  0  0  0  0
   -0.5703    1.3575   -0.8003 C   0  0  0  0  0  0  0  0  0  0  0  0
    0.2935    0.2735   -0.6136 C   0  0  0  0  0  0  0  0  0  0  0  0
   -0.3083   -0.9637   -0.6829 C   0  0  0  0  0  0  0  0  0  0  0  0
   -1.6788   -1.1183   -0.9220 C   0  0  0  0  0  0  0  0  0  0  0  0
   -2.4175   -0.0147   -1.0870 N   0  0  0  0  0  0  0  0  0  0  0  0
   -2.2277   -2.4286   -0.9811 N   0  0  0  0  0  0  0  0  0  0  0  0
   -3.6532   -2.5452   -1.1582 C   0  0  0  0  0  0  0  0  0  0  0  0
   -4.0629   -3.9273   -0.6592 C   0  0  0  0  0  0  0  0  0  0  0  0
   -3.4279   -4.8307   -1.4820 O   0  0  0  0  0  0  0  0  0  0  0  0
   -2.0684   -4.8545   -1.3355 C   0  0  0  0  0  0  0  0  0  0  0  0
   -1.4162   -3.6029   -0.8700 C   0  0  0  0  0  0  0  0  0  0  0  0
    1.7074    0.4833   -0.3686 C   0  0  0  0  0  0  0  0  0  0  0  0
    2.1168    1.6689   -0.3379 O   0  0  0  0  0  0  0  0  0  0  0  0
    2.6077   -0.5791   -0.1696 N   0  0  0  0  0  0  0  0  0  0  0  0
    4.0479   -0.3683    0.0738 C   0  0  0  0  0  0  0  0  0  0  0  0
    4.6307    0.2883   -1.1225 C   0  0  0  0  0  0  0  0  0  0  0  0
    5.7568    1.2462   -0.8622 C   0  0  0  0  0  0  0  0  0  0  0  0
    6.2247    1.1644    0.4489 O   0  0  0  0  0  0  0  0  0  0  0  0
    5.1568    1.5148    1.2621 C   0  0  0  0  0  0  0  0  0  0  0  0
    4.2286    0.3426    1.3740 C   0  0  0  0  0  0  0  0  0  0  0  0
    4.6706   -1.7638    0.2508 C   0  0  0  0  0  0  0  0  0  0  0  0
    4.1134   -2.4273    1.2995 F   0  0  0  0  0  0  0  0  0  0  0  0
    6.0215   -1.7298    0.3825 F   0  0  0  0  0  0  0  0  0  0  0  0
    4.3932   -2.4464   -0.9399 F   0  0  0  0  0  0  0  0  0  0  0  0
   -2.5759    3.8897    0.8380 C   0  0  0  0  0  0  0  0  0  0  0  0
   -3.1062    4.3737    2.0285 C   0  0  0  0  0  0  0  0  0  0  0  0
   -6.0181    2.7221    2.0046 H   0  0  0  0  0  0  0  0  0  0  0  0
   -5.0598    1.8802   -0.0972 H   0  0  0  0  0  0  0  0  0  0  0  0
   -2.1215    3.2599   -1.7430 H   0  0  0  0  0  0  0  0  0  0  0  0
   -3.5850    2.2790   -1.9156 H   0  0  0  0  0  0  0  0  0  0  0  0
   -0.1348    2.3454   -0.7529 H   0  0  0  0  0  0  0  0  0  0  0  0
    0.3256   -1.8320   -0.5415 H   0  0  0  0  0  0  0  0  0  0  0  0
   -4.1966   -1.8081   -0.5053 H   0  0  0  0  0  0  0  0  0  0  0  0
   -3.9905   -2.4727   -2.1980 H   0  0  0  0  0  0  0  0  0  0  0  0
   -3.7941   -4.0666    0.4119 H   0  0  0  0  0  0  0  0  0  0  0  0
   -5.1478   -4.0145   -0.7627 H   0  0  0  0  0  0  0  0  0  0  0  0
   -1.8520   -5.6660   -0.5766 H   0  0  0  0  0  0  0  0  0  0  0  0
   -1.6420   -5.1960   -2.3206 H   0  0  0  0  0  0  0  0  0  0  0  0
   -1.1418   -3.6960    0.2181 H   0  0  0  0  0  0  0  0  0  0  0  0
   -0.4654   -3.4495   -1.4421 H   0  0  0  0  0  0  0  0  0  0  0  0
    2.2547   -1.5801   -0.1919 H   0  0  0  0  0  0  0  0  0  0  0  0
    3.8220    0.7357   -1.7348 H   0  0  0  0  0  0  0  0  0  0  0  0
    5.0545   -0.5483   -1.7761 H   0  0  0  0  0  0  0  0  0  0  0  0
    5.3181    2.2795   -0.9570 H   0  0  0  0  0  0  0  0  0  0  0  0
    6.5662    1.1868   -1.6165 H   0  0  0  0  0  0  0  0  0  0  0  0
    4.6775    2.4035    0.7594 H   0  0  0  0  0  0  0  0  0  0  0  0
    5.5644    1.8258    2.2550 H   0  0  0  0  0  0  0  0  0  0  0  0
    4.6694   -0.3167    2.1746 H   0  0  0  0  0  0  0  0  0  0  0  0
    3.2355    0.6531    1.8191 H   0  0  0  0  0  0  0  0  0  0  0  0
   -1.6000    4.2240    0.5121 H   0  0  0  0  0  0  0  0  0  0  0  0
   -2.5688    5.0887    2.6570 H   0  0  0  0  0  0  0  0  0  0  0  0
  1  2  1  0
  2  3  2  0
  3  4  1  0
  4  5  2  0
  5  6  1  0
  6  7  1  0
  7  8  2  0
  8  9  1  0
  9 10  2  0
 10 11  1  0
 11 12  2  0
 11 13  1  0
 13 14  1  0
 14 15  1  0
 15 16  1  0
 16 17  1  0
 17 18  1  0
  9 19  1  0
 19 20  2  0
 19 21  1  0
 21 22  1  0
 22 23  1  0
 23 24  1  0
 24 25  1  0
 25 26  1  0
 26 27  1  0
 22 28  1  0
 28 29  1  0
 28 30  1  0
 28 31  1  0
  5 32  1  0
 32 33  2  0
 33  2  1  0
 12  7  1  0
 18 13  1  0
 27 22  1  0
  3 34  1  0
  4 35  1  0
  6 36  1  0
  6 37  1  0
  8 38  1  0
 10 39  1  0
 14 40  1  0
 14 41  1  0
 15 42  1  0
 15 43  1  0
 17 44  1  0
 17 45  1  0
 18 46  1  0
 18 47  1  0
 21 48  1  0
 23 49  1  0
 23 50  1  0
 24 51  1  0
 24 52  1  0
 26 53  1  0
 26 54  1  0
 27 55  1  0
 27 56  1  0
 32 57  1  0
 33 58  1  0
M  END
$$$$
[H]c1c(C(C([H])([H])[H])(C([H])([H])[H])C([H])([H])[H])nc(C([H])([H])C([H])([H])C([H])([H])[H])c(C([H])([H])N([H])C(=O)C([H])(c2c([H])c([H])c(N([H])S(=O)(=O)C([H])([H])[H])c(F)c2[H])C([H])([H])[H])c1[H]
     RDKit          3D

 63 64  0  0  0  0  0  0  0  0999 V2000
   -2.7416    4.2498    1.1464 C   0  0  0  0  0  0  0  0  0  0  0  0
   -3.0101    2.9228    0.4673 C   0  0  0  0  0  0  0  0  0  0  0  0
   -3.1486    1.8191    1.4741 C   0  0  0  0  0  0  0  0  0  0  0  0
   -3.3930    0.4919    0.8702 C   0  0  0  0  0  0  0  0  0  0  0  0
   -4.6288    0.0236    0.6508 N   0  0  0  0  0  0  0  0  0  0  0  0
   -4.8923   -1.1665    0.0647 C   0  0  0  0  0  0  0  0  0  0  0  0
   -3.8343   -1.9395   -0.3289 C   0  0  0  0  0  0  0  0  0  0  0  0
   -2.5198   -1.4962   -0.1230 C   0  0  0  0  0  0  0  0  0  0  0  0
   -2.2898   -0.2882    0.4738 C   0  0  0  0  0  0  0  0  0  0  0  0
   -0.9232    0.2138    0.7273 C   0  0  0  0  0  0  0  0  0  0  0  0
    0.0815   -0.7110    0.3044 N   0  0  0  0  0  0  0  0  0  0  0  0
    1.4498   -0.2806    0.4223 C   0  0  0  0  0  0  0  0  0  0  0  0
    1.6988    0.8418    0.8619 O   0  0  0  0  0  0  0  0  0  0  0  0
    2.5652   -1.1844    0.0196 C   0  0  0  0  0  0  0  0  0  0  0  0
    2.3849   -1.7507   -1.3491 C   0  0  0  0  0  0  0  0  0  0  0  0
    3.8366   -0.4467    0.2063 C   0  0  0  0  0  0  0  0  0  0  0  0
    4.5709   -0.0554   -0.8916 C   0  0  0  0  0  0  0  0  0  0  0  0
    5.7704    0.6371   -0.7468 C   0  0  0  0  0  0  0  0  0  0  0  0
    6.2652    0.9549    0.5025 C   0  0  0  0  0  0  0  0  0  0  0  0
    7.4780    1.6751    0.7063 N   0  0  0  0  0  0  0  0  0  0  0  0
    8.9641    0.8409    0.4809 S   0  0  0  0  0  0  0  0  0  0  0  0
    9.0745    0.2784   -1.1902 C   0  0  0  0  0  0  0  0  0  0  0  0
    9.0011   -0.3625    1.3849 O   0  0  0  0  0  0  0  0  0  0  0  0
   10.1070    1.7610    0.8165 O   0  0  0  0  0  0  0  0  0  0  0  0
    5.5300    0.5643    1.6098 C   0  0  0  0  0  0  0  0  0  0  0  0
    6.0198    0.8803    2.8287 F   0  0  0  0  0  0  0  0  0  0  0  0
    4.3379   -0.1242    1.4462 C   0  0  0  0  0  0  0  0  0  0  0  0
   -6.2911   -1.6027   -0.1462 C   0  0  0  0  0  0  0  0  0  0  0  0
   -6.3493   -2.3697   -1.4677 C   0  0  0  0  0  0  0  0  0  0  0  0
   -6.7803   -2.4204    1.0008 C   0  0  0  0  0  0  0  0  0  0  0  0
   -7.1037   -0.3510   -0.3835 C   0  0  0  0  0  0  0  0  0  0  0  0
   -2.3359    4.0479    2.1677 H   0  0  0  0  0  0  0  0  0  0  0  0
   -2.0912    4.9022    0.5468 H   0  0  0  0  0  0  0  0  0  0  0  0
   -3.7037    4.7753    1.2595 H   0  0  0  0  0  0  0  0  0  0  0  0
   -2.2737    2.7599   -0.3288 H   0  0  0  0  0  0  0  0  0  0  0  0
   -3.9953    3.0495   -0.0902 H   0  0  0  0  0  0  0  0  0  0  0  0
   -4.0172    2.0510    2.1433 H   0  0  0  0  0  0  0  0  0  0  0  0
   -2.1977    1.8169    2.0955 H   0  0  0  0  0  0  0  0  0  0  0  0
   -4.0090   -2.8990   -0.7995 H   0  0  0  0  0  0  0  0  0  0  0  0
   -1.7158   -2.1553   -0.4610 H   0  0  0  0  0  0  0  0  0  0  0  0
   -0.7289    1.2122    0.2802 H   0  0  0  0  0  0  0  0  0  0  0  0
   -0.7916    0.3940    1.8536 H   0  0  0  0  0  0  0  0  0  0  0  0
   -0.0565   -1.6615   -0.0671 H   0  0  0  0  0  0  0  0  0  0  0  0
    2.5246   -2.0052    0.8011 H   0  0  0  0  0  0  0  0  0  0  0  0
    3.2954   -2.0804   -1.8467 H   0  0  0  0  0  0  0  0  0  0  0  0
    1.8792   -0.9586   -1.9783 H   0  0  0  0  0  0  0  0  0  0  0  0
    1.6856   -2.6277   -1.3301 H   0  0  0  0  0  0  0  0  0  0  0  0
    4.2210   -0.2846   -1.8952 H   0  0  0  0  0  0  0  0  0  0  0  0
    6.3230    0.9307   -1.6277 H   0  0  0  0  0  0  0  0  0  0  0  0
    7.4006    2.6744    0.9803 H   0  0  0  0  0  0  0  0  0  0  0  0
    8.2521   -0.4250   -1.4027 H   0  0  0  0  0  0  0  0  0  0  0  0
    8.9713    1.1591   -1.8594 H   0  0  0  0  0  0  0  0  0  0  0  0
   10.0703   -0.2181   -1.3021 H   0  0  0  0  0  0  0  0  0  0  0  0
    3.7916   -0.4141    2.3313 H   0  0  0  0  0  0  0  0  0  0  0  0
   -5.5861   -1.9114   -2.1294 H   0  0  0  0  0  0  0  0  0  0  0  0
   -6.2099   -3.4308   -1.2603 H   0  0  0  0  0  0  0  0  0  0  0  0
   -7.3727   -2.2348   -1.8818 H   0  0  0  0  0  0  0  0  0  0  0  0
   -6.1508   -2.3590    1.9117 H   0  0  0  0  0  0  0  0  0  0  0  0
   -6.7959   -3.4900    0.7127 H   0  0  0  0  0  0  0  0  0  0  0  0
   -7.8044   -2.1422    1.3333 H   0  0  0  0  0  0  0  0  0  0  0  0
   -6.8104    0.0132   -1.3932 H   0  0  0  0  0  0  0  0  0  0  0  0
   -6.8041    0.4344    0.3364 H   0  0  0  0  0  0  0  0  0  0  0  0
   -8.1938   -0.5280   -0.3836 H   0  0  0  0  0  0  0  0  0  0  0  0
  1  2  1  0
  2  3  1  0
  3  4  1  0
  4  5  2  0
  5  6  1  0
  6  7  2  0
  7  8  1  0
  8  9  2  0
  9 10  1  0
 10 11  1  0
 11 12  1  0
 12 13  2  0
 12 14  1  0
 14 15  1  0
 14 16  1  0
 16 17  2  0
 17 18  1  0
 18 19  2  0
 19 20  1  0
 20 21  1  0
 21 22  1  0
 21 23  2  0
 21 24  2  0
 19 25  1  0
 25 26  1  0
 25 27  2  0
  6 28  1  0
 28 29  1  0
 28 30  1  0
 28 31  1  0
  9  4  1  0
 27 16  1  0
  1 32  1  0
  1 33  1  0
  1 34  1  0
  2 35  1  0
  2 36  1  0
  3 37  1  0
  3 38  1  0
  7 39  1  0
  8 40  1  0
 10 41  1  0
 10 42  1  0
 11 43  1  0
 14 44  1  0
 15 45  1  0
 15 46  1  0
 15 47  1  0
 17 48  1  0
 18 49  1  0
 20 50  1  0
 22 51  1  0
 22 52  1  0
 22 53  1  0
 27 54  1  0
 29 55  1  0
 29 56  1  0
 29 57  1  0
 30 58  1  0
 30 59  1  0
 30 60  1  0
 31 61  1  0
 31 62  1  0
 31 63  1  0
M  END
$$$$
[H]C1=C([H])C(C([H])([H])[H])(C([H])([H])[H])C2(C([H])=C1[H])C([H])([H])N(S(=O)(=O)C([H])([H])C([H])([H])C([H])([H])C([H])([H])[H])C([H])([H])C2([H])[H]
     RDKit          3D

 44 45  0  0  0  0  0  0  0  0999 V2000
    6.6618    0.0775    0.4967 C   0  0  0  0  0  0  0  0  0  0  0  0
    5.3370    0.7103    0.1214 C   0  0  0  0  0  0  0  0  0  0  0  0
    4.2302   -0.1529    0.7372 C   0  0  0  0  0  0  0  0  0  0  0  0
    2.9247    0.4950    0.3512 C   0  0  0  0  0  0  0  0  0  0  0  0
    1.5286   -0.3831    0.9872 S   0  0  0  0  0  0  0  0  0  0  0  0
    1.4642   -1.7592    0.3729 O   0  0  0  0  0  0  0  0  0  0  0  0
    1.5675   -0.5256    2.4663 O   0  0  0  0  0  0  0  0  0  0  0  0
    0.1021    0.4641    0.4725 N   0  0  0  0  0  0  0  0  0  0  0  0
    0.0969    0.4383   -0.9699 C   0  0  0  0  0  0  0  0  0  0  0  0
   -1.2501   -0.1246   -1.3905 C   0  0  0  0  0  0  0  0  0  0  0  0
   -2.1182    0.2175   -0.1439 C   0  0  0  0  0  0  0  0  0  0  0  0
   -1.0979   -0.1877    0.9406 C   0  0  0  0  0  0  0  0  0  0  0  0
   -2.2619    1.6659   -0.1878 C   0  0  0  0  0  0  0  0  0  0  0  0
   -3.4448    2.2365   -0.2006 C   0  0  0  0  0  0  0  0  0  0  0  0
   -4.6689    1.4454   -0.1721 C   0  0  0  0  0  0  0  0  0  0  0  0
   -4.5909    0.1413   -0.1340 C   0  0  0  0  0  0  0  0  0  0  0  0
   -3.3233   -0.5761   -0.1189 C   0  0  0  0  0  0  0  0  0  0  0  0
   -3.3631   -1.4119    1.2027 C   0  0  0  0  0  0  0  0  0  0  0  0
   -3.3346   -1.6868   -1.1948 C   0  0  0  0  0  0  0  0  0  0  0  0
    7.3290    0.0556   -0.3984 H   0  0  0  0  0  0  0  0  0  0  0  0
    6.5404   -0.9817    0.8155 H   0  0  0  0  0  0  0  0  0  0  0  0
    7.0981    0.6551    1.3381 H   0  0  0  0  0  0  0  0  0  0  0  0
    5.2259    0.7635   -0.9797 H   0  0  0  0  0  0  0  0  0  0  0  0
    5.2504    1.7492    0.5022 H   0  0  0  0  0  0  0  0  0  0  0  0
    4.2766   -1.1676    0.3402 H   0  0  0  0  0  0  0  0  0  0  0  0
    4.3800   -0.1869    1.8247 H   0  0  0  0  0  0  0  0  0  0  0  0
    2.8551    0.5470   -0.7376 H   0  0  0  0  0  0  0  0  0  0  0  0
    2.9203    1.5302    0.7414 H   0  0  0  0  0  0  0  0  0  0  0  0
    0.2190    1.4877   -1.3430 H   0  0  0  0  0  0  0  0  0  0  0  0
    0.9168   -0.1629   -1.4048 H   0  0  0  0  0  0  0  0  0  0  0  0
   -1.2207   -1.1898   -1.5875 H   0  0  0  0  0  0  0  0  0  0  0  0
   -1.5844    0.4329   -2.2711 H   0  0  0  0  0  0  0  0  0  0  0  0
   -1.3392    0.2182    1.9198 H   0  0  0  0  0  0  0  0  0  0  0  0
   -0.9889   -1.2671    0.8671 H   0  0  0  0  0  0  0  0  0  0  0  0
   -1.3512    2.3104   -0.2112 H   0  0  0  0  0  0  0  0  0  0  0  0
   -3.4916    3.3238   -0.2332 H   0  0  0  0  0  0  0  0  0  0  0  0
   -5.6173    1.9645   -0.1834 H   0  0  0  0  0  0  0  0  0  0  0  0
   -5.5529   -0.4316   -0.1125 H   0  0  0  0  0  0  0  0  0  0  0  0
   -2.7195   -2.3060    1.1071 H   0  0  0  0  0  0  0  0  0  0  0  0
   -4.3925   -1.7785    1.3611 H   0  0  0  0  0  0  0  0  0  0  0  0
   -3.1071   -0.7713    2.0675 H   0  0  0  0  0  0  0  0  0  0  0  0
   -4.3455   -2.1324   -1.1418 H   0  0  0  0  0  0  0  0  0  0  0  0
   -3.1379   -1.3057   -2.1876 H   0  0  0  0  0  0  0  0  0  0  0  0
   -2.6225   -2.4405   -0.8621 H   0  0  0  0  0  0  0  0  0  0  0  0
  1  2  1  0
  2  3  1  0
  3  4  1  0
  4  5  1  0
  5  6  2  0
  5  7  2  0
  5  8  1  0
  8  9  1  0
  9 10  1  0
 10 11  1  0
 11 12  1  0
 11 13  1  0
 13 14  2  0
 14 15  1  0
 15 16  2  0
 16 17  1  0
 17 18  1  0
 17 19  1  0
 12  8  1  0
 17 11  1  0
  1 20  1  0
  1 21  1  0
  1 22  1  0
  2 23  1  0
  2 24  1  0
  3 25  1  0
  3 26  1  0
  4 27  1  0
  4 28  1  0
  9 29  1  0
  9 30  1  0
 10 31  1  0
 10 32  1  0
 12 33  1  0
 12 34  1  0
 13 35  1  0
 14 36  1  0
 15 37  1  0
 16 38  1  0
 18 39  1  0
 18 40  1  0
 18 41  1  0
 19 42  1  0
 19 43  1  0
 19 44  1  0
M  END
$$$$
[H]c1c([H])c([H])c(C([H])([H])C([H])([H])Oc2c([H])c([H])c([H])c([H])c2OC([H])([H])C([H])([H])N([H])C([H])([H])C([H])([H])Oc2c([H])c([H])c([H])c([H])c2OC([H])([H])C([H])([H])[H])c([H])c1[H]
     RDKit          3D

 62 64  0  0  0  0  0  0  0  0999 V2000
   -9.2147    2.2156    1.5585 C   0  0  0  0  0  0  0  0  0  0  0  0
   -7.8460    2.1376    2.1930 C   0  0  0  0  0  0  0  0  0  0  0  0
   -6.8584    1.6073    1.3508 O   0  0  0  0  0  0  0  0  0  0  0  0
   -6.4476    2.1560    0.1347 C   0  0  0  0  0  0  0  0  0  0  0  0
   -6.9472    3.2909   -0.3871 C   0  0  0  0  0  0  0  0  0  0  0  0
   -6.4901    3.7824   -1.6113 C   0  0  0  0  0  0  0  0  0  0  0  0
   -5.5208    3.0960   -2.2859 C   0  0  0  0  0  0  0  0  0  0  0  0
   -5.0178    1.9451   -1.7520 C   0  0  0  0  0  0  0  0  0  0  0  0
   -5.4357    1.4153   -0.5411 C   0  0  0  0  0  0  0  0  0  0  0  0
   -4.9647    0.3072    0.0004 O   0  0  0  0  0  0  0  0  0  0  0  0
   -4.1512   -0.7365    0.0083 C   0  0  0  0  0  0  0  0  0  0  0  0
   -2.6629   -0.5463    0.1141 C   0  0  0  0  0  0  0  0  0  0  0  0
   -2.0322    0.2029   -0.8991 N   0  0  0  0  0  0  0  0  0  0  0  0
   -0.6030    0.3455   -0.7552 C   0  0  0  0  0  0  0  0  0  0  0  0
    0.1543   -0.9198   -0.9655 C   0  0  0  0  0  0  0  0  0  0  0  0
    1.5194   -0.7967   -0.8242 O   0  0  0  0  0  0  0  0  0  0  0  0
    2.3100   -0.4738    0.2290 C   0  0  0  0  0  0  0  0  0  0  0  0
    1.8329   -0.2093    1.4852 C   0  0  0  0  0  0  0  0  0  0  0  0
    2.6686    0.1177    2.5320 C   0  0  0  0  0  0  0  0  0  0  0  0
    4.0216    0.1806    2.3111 C   0  0  0  0  0  0  0  0  0  0  0  0
    4.4850   -0.0869    1.0483 C   0  0  0  0  0  0  0  0  0  0  0  0
    3.7201   -0.4190   -0.0439 C   0  0  0  0  0  0  0  0  0  0  0  0
    4.1172   -0.6898   -1.2823 O   0  0  0  0  0  0  0  0  0  0  0  0
    5.1514   -0.8400   -2.0829 C   0  0  0  0  0  0  0  0  0  0  0  0
    6.1422   -1.9209   -1.9744 C   0  0  0  0  0  0  0  0  0  0  0  0
    6.9418   -2.1277   -0.8019 C   0  0  0  0  0  0  0  0  0  0  0  0
    6.6268   -3.0450    0.2016 C   0  0  0  0  0  0  0  0  0  0  0  0
    7.4128   -3.2168    1.3169 C   0  0  0  0  0  0  0  0  0  0  0  0
    8.5569   -2.4546    1.4517 C   0  0  0  0  0  0  0  0  0  0  0  0
    8.8858   -1.5349    0.4600 C   0  0  0  0  0  0  0  0  0  0  0  0
    8.0990   -1.3629   -0.6563 C   0  0  0  0  0  0  0  0  0  0  0  0
   -9.9613    1.6056    2.1133 H   0  0  0  0  0  0  0  0  0  0  0  0
   -9.2074    1.8835    0.4849 H   0  0  0  0  0  0  0  0  0  0  0  0
   -9.5545    3.2682    1.5831 H   0  0  0  0  0  0  0  0  0  0  0  0
   -7.9144    1.5045    3.0953 H   0  0  0  0  0  0  0  0  0  0  0  0
   -7.5018    3.1576    2.5082 H   0  0  0  0  0  0  0  0  0  0  0  0
   -7.7271    3.8559    0.1538 H   0  0  0  0  0  0  0  0  0  0  0  0
   -6.9251    4.6836   -1.9697 H   0  0  0  0  0  0  0  0  0  0  0  0
   -5.1568    3.4707   -3.2437 H   0  0  0  0  0  0  0  0  0  0  0  0
   -4.2550    1.3686   -2.2906 H   0  0  0  0  0  0  0  0  0  0  0  0
   -4.4557   -1.4163    0.8991 H   0  0  0  0  0  0  0  0  0  0  0  0
   -4.3894   -1.4166   -0.8762 H   0  0  0  0  0  0  0  0  0  0  0  0
   -2.1526   -1.5492    0.2772 H   0  0  0  0  0  0  0  0  0  0  0  0
   -2.4928   -0.0440    1.1175 H   0  0  0  0  0  0  0  0  0  0  0  0
   -2.3339   -0.0270   -1.8687 H   0  0  0  0  0  0  0  0  0  0  0  0
   -0.4152    0.8956    0.1556 H   0  0  0  0  0  0  0  0  0  0  0  0
   -0.2846    1.0513   -1.5895 H   0  0  0  0  0  0  0  0  0  0  0  0
   -0.2738   -1.7820   -0.3815 H   0  0  0  0  0  0  0  0  0  0  0  0
   -0.0307   -1.2504   -2.0382 H   0  0  0  0  0  0  0  0  0  0  0  0
    0.7751   -0.2553    1.7388 H   0  0  0  0  0  0  0  0  0  0  0  0
    2.2479    0.3208    3.5150 H   0  0  0  0  0  0  0  0  0  0  0  0
    4.6961    0.4404    3.1366 H   0  0  0  0  0  0  0  0  0  0  0  0
    5.5637   -0.0189    0.8764 H   0  0  0  0  0  0  0  0  0  0  0  0
    5.7490    0.1342   -2.2623 H   0  0  0  0  0  0  0  0  0  0  0  0
    4.7262   -0.9591   -3.1651 H   0  0  0  0  0  0  0  0  0  0  0  0
    6.8822   -1.7713   -2.8404 H   0  0  0  0  0  0  0  0  0  0  0  0
    5.6881   -2.9196   -2.2540 H   0  0  0  0  0  0  0  0  0  0  0  0
    5.7234   -3.6102    0.0418 H   0  0  0  0  0  0  0  0  0  0  0  0
    7.1218   -3.9433    2.0655 H   0  0  0  0  0  0  0  0  0  0  0  0
    9.2079   -2.5495    2.3064 H   0  0  0  0  0  0  0  0  0  0  0  0
    9.7891   -0.9293    0.5596 H   0  0  0  0  0  0  0  0  0  0  0  0
    8.4083   -0.6390   -1.3807 H   0  0  0  0  0  0  0  0  0  0  0  0
  1  2  1  0
  2  3  1  0
  3  4  1  0
  4  5  2  0
  5  6  1  0
  6  7  2  0
  7  8  1  0
  8  9  2  0
  9 10  1  0
 10 11  1  0
 11 12  1  0
 12 13  1  0
 13 14  1  0
 14 15  1  0
 15 16  1  0
 16 17  1  0
 17 18  2  0
 18 19  1  0
 19 20  2  0
 20 21  1  0
 21 22  2  0
 22 23  1  0
 23 24  1  0
 24 25  1  0
 25 26  1  0
 26 27  2  0
 27 28  1  0
 28 29  2  0
 29 30  1  0
 30 31  2  0
  9  4  1  0
 22 17  1  0
 31 26  1  0
  1 32  1  0
  1 33  1  0
  1 34  1  0
  2 35  1  0
  2 36  1  0
  5 37  1  0
  6 38  1  0
  7 39  1  0
  8 40  1  0
 11 41  1  0
 11 42  1  0
 12 43  1  0
 12 44  1  0
 13 45  1  0
 14 46  1  0
 14 47  1  0
 15 48  1  0
 15 49  1  0
 18 50  1  0
 19 51  1  0
 20 52  1  0
 21 53  1  0
 24 54  1  0
 24 55  1  0
 25 56  1  0
 25 57  1  0
 27 58  1  0
 28 59  1  0
 29 60  1  0
 30 61  1  0
 31 62  1  0
M  END
$$$$
[H]C1=C(c2c([H])c(C3([H])C([H])([H])C([H])([H])N(C([H])([H])C([H])([H])[H])C([H])([H])C3([H])[H])c([H])c([H])c2N([H])C(=O)c2nc([H])c(C#N)n2[H])C([H])([H])C([H])([H])C([H])([H])C1([H])[H]
     RDKit          3D

 59 62  0  0  0  0  0  0  0  0999 V2000
    6.9912    1.1911    0.4993 C   0  0  0  0  0  0  0  0  0  0  0  0
    6.5471   -0.1904    0.9676 C   0  0  0  0  0  0  0  0  0  0  0  0
    5.0834   -0.1977    1.0949 N   0  0  0  0  0  0  0  0  0  0  0  0
    4.5205   -0.0876   -0.2231 C   0  0  0  0  0  0  0  0  0  0  0  0
    3.5546   -1.1776   -0.5418 C   0  0  0  0  0  0  0  0  0  0  0  0
    2.5998   -1.5196    0.5723 C   0  0  0  0  0  0  0  0  0  0  0  0
    3.2233   -1.4394    1.9407 C   0  0  0  0  0  0  0  0  0  0  0  0
    4.7193   -1.4350    1.7659 C   0  0  0  0  0  0  0  0  0  0  0  0
    1.3324   -0.7322    0.4662 C   0  0  0  0  0  0  0  0  0  0  0  0
    1.3206    0.6012    0.7673 C   0  0  0  0  0  0  0  0  0  0  0  0
    0.1518    1.3452    0.6685 C   0  0  0  0  0  0  0  0  0  0  0  0
   -1.0584    0.7676    0.2582 C   0  0  0  0  0  0  0  0  0  0  0  0
   -2.2547    1.4965    0.3065 N   0  0  0  0  0  0  0  0  0  0  0  0
   -2.4108    2.8846    0.2548 C   0  0  0  0  0  0  0  0  0  0  0  0
   -1.4622    3.6894    0.1449 O   0  0  0  0  0  0  0  0  0  0  0  0
   -3.7508    3.5068    0.3293 C   0  0  0  0  0  0  0  0  0  0  0  0
   -3.9855    4.8138    0.2786 N   0  0  0  0  0  0  0  0  0  0  0  0
   -5.3076    5.0578    0.3727 C   0  0  0  0  0  0  0  0  0  0  0  0
   -5.9201    3.8409    0.4872 C   0  0  0  0  0  0  0  0  0  0  0  0
   -4.9325    2.9049    0.4570 N   0  0  0  0  0  0  0  0  0  0  0  0
   -7.3223    3.5930    0.6144 C   0  0  0  0  0  0  0  0  0  0  0  0
   -8.4446    3.3998    0.7179 N   0  0  0  0  0  0  0  0  0  0  0  0
   -1.0634   -0.5957   -0.0580 C   0  0  0  0  0  0  0  0  0  0  0  0
    0.1518   -1.2930    0.0649 C   0  0  0  0  0  0  0  0  0  0  0  0
   -2.1869   -1.3040   -0.6447 C   0  0  0  0  0  0  0  0  0  0  0  0
   -2.2598   -2.6463   -0.6156 C   0  0  0  0  0  0  0  0  0  0  0  0
   -3.3657   -3.4299   -1.1904 C   0  0  0  0  0  0  0  0  0  0  0  0
   -4.2746   -2.7018   -2.1088 C   0  0  0  0  0  0  0  0  0  0  0  0
   -3.5575   -1.4939   -2.6657 C   0  0  0  0  0  0  0  0  0  0  0  0
   -3.2762   -0.6126   -1.4170 C   0  0  0  0  0  0  0  0  0  0  0  0
    6.2590    1.9160    0.9029 H   0  0  0  0  0  0  0  0  0  0  0  0
    7.0112    1.2374   -0.6201 H   0  0  0  0  0  0  0  0  0  0  0  0
    8.0297    1.3691    0.8452 H   0  0  0  0  0  0  0  0  0  0  0  0
    7.0131   -0.4442    1.9224 H   0  0  0  0  0  0  0  0  0  0  0  0
    6.8359   -0.9304    0.1988 H   0  0  0  0  0  0  0  0  0  0  0  0
    5.3329   -0.1508   -1.0078 H   0  0  0  0  0  0  0  0  0  0  0  0
    4.0496    0.8989   -0.4030 H   0  0  0  0  0  0  0  0  0  0  0  0
    2.9806   -0.9344   -1.4476 H   0  0  0  0  0  0  0  0  0  0  0  0
    4.1684   -2.0913   -0.7676 H   0  0  0  0  0  0  0  0  0  0  0  0
    2.3328   -2.6064    0.4031 H   0  0  0  0  0  0  0  0  0  0  0  0
    2.8995   -0.5225    2.4813 H   0  0  0  0  0  0  0  0  0  0  0  0
    2.9712   -2.2865    2.5906 H   0  0  0  0  0  0  0  0  0  0  0  0
    5.1998   -1.3752    2.7800 H   0  0  0  0  0  0  0  0  0  0  0  0
    5.0471   -2.3097    1.1969 H   0  0  0  0  0  0  0  0  0  0  0  0
    2.2023    1.1513    1.0958 H   0  0  0  0  0  0  0  0  0  0  0  0
    0.1630    2.3971    0.9267 H   0  0  0  0  0  0  0  0  0  0  0  0
   -3.1542    0.9489    0.4519 H   0  0  0  0  0  0  0  0  0  0  0  0
   -5.8178    6.0091    0.3626 H   0  0  0  0  0  0  0  0  0  0  0  0
   -5.0705    1.8755    0.5234 H   0  0  0  0  0  0  0  0  0  0  0  0
    0.1890   -2.3427   -0.1779 H   0  0  0  0  0  0  0  0  0  0  0  0
   -1.4810   -3.1931   -0.1363 H   0  0  0  0  0  0  0  0  0  0  0  0
   -3.8867   -3.9401   -0.3522 H   0  0  0  0  0  0  0  0  0  0  0  0
   -2.8814   -4.2595   -1.7839 H   0  0  0  0  0  0  0  0  0  0  0  0
   -5.1463   -2.3225   -1.5152 H   0  0  0  0  0  0  0  0  0  0  0  0
   -4.6226   -3.3868   -2.9079 H   0  0  0  0  0  0  0  0  0  0  0  0
   -4.2091   -0.9076   -3.3172 H   0  0  0  0  0  0  0  0  0  0  0  0
   -2.5767   -1.7573   -3.0995 H   0  0  0  0  0  0  0  0  0  0  0  0
   -4.2404   -0.6207   -0.8841 H   0  0  0  0  0  0  0  0  0  0  0  0
   -2.9603    0.3427   -1.8258 H   0  0  0  0  0  0  0  0  0  0  0  0
  1  2  1  0
  2  3  1  0
  3  4  1  0
  4  5  1  0
  5  6  1  0
  6  7  1  0
  7  8  1  0
  6  9  1  0
  9 10  2  0
 10 11  1  0
 11 12  2  0
 12 13  1  0
 13 14  1  0
 14 15  2  0
 14 16  1  0
 16 17  2  0
 17 18  1  0
 18 19  2  0
 19 20  1  0
 19 21  1  0
 21 22  3  0
 12 23  1  0
 23 24  2  0
 23 25  1  0
 25 26  2  0
 26 27  1  0
 27 28  1  0
 28 29  1  0
 29 30  1  0
  8  3  1  0
 24  9  1  0
 30 25  1  0
 20 16  1  0
  1 31  1  0
  1 32  1  0
  1 33  1  0
  2 34  1  0
  2 35  1  0
  4 36  1  0
  4 37  1  0
  5 38  1  0
  5 39  1  0
  6 40  1  0
  7 41  1  0
  7 42  1  0
  8 43  1  0
  8 44  1  0
 10 45  1  0
 11 46  1  0
 13 47  1  0
 18 48  1  0
 20 49  1  0
 24 50  1  0
 26 51  1  0
 27 52  1  0
 27 53  1  0
 28 54  1  0
 28 55  1  0
 29 56  1  0
 29 57  1  0
 30 58  1  0
 30 59  1  0
M  END
$$$$
[H]Oc1c([H])c([H])c([H])c(OC([H])([H])[H])c1-c1c([H])c([H])c2c(N([H])c3c([H])c([H])c(Cl)c(Cl)c3[H])c(C(=O)N([H])[H])c([H])nc2c1[H]
     RDKit          3D

 48 51  0  0  0  0  0  0  0  0999 V2000
   -5.1361    0.8413   -2.2400 C   0  0  0  0  0  0  0  0  0  0  0  0
   -4.0580    0.5346   -1.3466 O   0  0  0  0  0  0  0  0  0  0  0  0
   -4.3575    0.5285    0.0104 C   0  0  0  0  0  0  0  0  0  0  0  0
   -5.6343    0.8014    0.4942 C   0  0  0  0  0  0  0  0  0  0  0  0
   -5.9111    0.7912    1.8438 C   0  0  0  0  0  0  0  0  0  0  0  0
   -4.8733    0.4995    2.7067 C   0  0  0  0  0  0  0  0  0  0  0  0
   -3.5949    0.2261    2.2266 C   0  0  0  0  0  0  0  0  0  0  0  0
   -2.5983   -0.0588    3.1434 O   0  0  0  0  0  0  0  0  0  0  0  0
   -3.3205    0.2367    0.8777 C   0  0  0  0  0  0  0  0  0  0  0  0
   -1.9640   -0.0683    0.3938 C   0  0  0  0  0  0  0  0  0  0  0  0
   -1.1803    0.9228   -0.1483 C   0  0  0  0  0  0  0  0  0  0  0  0
    0.0932    0.6345   -0.5847 C   0  0  0  0  0  0  0  0  0  0  0  0
    0.6070   -0.6629   -0.4837 C   0  0  0  0  0  0  0  0  0  0  0  0
    1.8785   -0.9816   -0.9055 C   0  0  0  0  0  0  0  0  0  0  0  0
    2.6408    0.0801   -1.4599 N   0  0  0  0  0  0  0  0  0  0  0  0
    3.4132    0.9276   -0.6167 C   0  0  0  0  0  0  0  0  0  0  0  0
    3.4422    0.7613    0.7361 C   0  0  0  0  0  0  0  0  0  0  0  0
    4.1894    1.5859    1.5805 C   0  0  0  0  0  0  0  0  0  0  0  0
    4.9294    2.6129    1.0167 C   0  0  0  0  0  0  0  0  0  0  0  0
    5.8631    3.6509    2.0561 Cl  0  0  0  0  0  0  0  0  0  0  0  0
    4.9021    2.7830   -0.3487 C   0  0  0  0  0  0  0  0  0  0  0  0
    5.8285    4.0752   -1.0974 Cl  0  0  0  0  0  0  0  0  0  0  0  0
    4.1526    1.9512   -1.1638 C   0  0  0  0  0  0  0  0  0  0  0  0
    2.3662   -2.2619   -0.7925 C   0  0  0  0  0  0  0  0  0  0  0  0
    1.5630   -3.2333   -0.2470 C   0  0  0  0  0  0  0  0  0  0  0  0
    0.3276   -2.9319    0.1650 N   0  0  0  0  0  0  0  0  0  0  0  0
   -0.1607   -1.6740    0.0568 C   0  0  0  0  0  0  0  0  0  0  0  0
   -1.4427   -1.3463    0.4866 C   0  0  0  0  0  0  0  0  0  0  0  0
    3.7345   -2.5929   -1.2690 C   0  0  0  0  0  0  0  0  0  0  0  0
    4.2682   -3.8998   -1.1585 N   0  0  0  0  0  0  0  0  0  0  0  0
    4.4508   -1.7074   -1.7835 O   0  0  0  0  0  0  0  0  0  0  0  0
   -4.7209    0.7370   -3.2671 H   0  0  0  0  0  0  0  0  0  0  0  0
   -5.9893    0.1838   -2.0328 H   0  0  0  0  0  0  0  0  0  0  0  0
   -5.4753    1.8917   -2.0477 H   0  0  0  0  0  0  0  0  0  0  0  0
   -6.4354    1.0271   -0.1868 H   0  0  0  0  0  0  0  0  0  0  0  0
   -6.9009    1.0016    2.2368 H   0  0  0  0  0  0  0  0  0  0  0  0
   -5.1230    0.4997    3.7631 H   0  0  0  0  0  0  0  0  0  0  0  0
   -1.6499   -0.2725    2.9426 H   0  0  0  0  0  0  0  0  0  0  0  0
   -1.5641    1.9218   -0.2315 H   0  0  0  0  0  0  0  0  0  0  0  0
    0.7267    1.3787   -1.0095 H   0  0  0  0  0  0  0  0  0  0  0  0
    2.6127    0.2139   -2.4865 H   0  0  0  0  0  0  0  0  0  0  0  0
    2.8790   -0.0260    1.2136 H   0  0  0  0  0  0  0  0  0  0  0  0
    4.2023    1.4425    2.6600 H   0  0  0  0  0  0  0  0  0  0  0  0
    4.1590    2.1158   -2.2173 H   0  0  0  0  0  0  0  0  0  0  0  0
    1.9507   -4.2509   -0.1548 H   0  0  0  0  0  0  0  0  0  0  0  0
   -2.0502   -2.1178    0.9071 H   0  0  0  0  0  0  0  0  0  0  0  0
    5.2957   -4.0339   -1.1738 H   0  0  0  0  0  0  0  0  0  0  0  0
    3.6647   -4.7379   -1.0637 H   0  0  0  0  0  0  0  0  0  0  0  0
  1  2  1  0
  2  3  1  0
  3  4  2  0
  4  5  1  0
  5  6  2  0
  6  7  1  0
  7  8  1  0
  7  9  2  0
  9 10  1  0
 10 11  2  0
 11 12  1  0
 12 13  2  0
 13 14  1  0
 14 15  1  0
 15 16  1  0
 16 17  2  0
 17 18  1  0
 18 19  2  0
 19 20  1  0
 19 21  1  0
 21 22  1  0
 21 23  2  0
 14 24  2  0
 24 25  1  0
 25 26  2  0
 26 27  1  0
 27 28  2  0
 24 29  1  0
 29 30  1  0
 29 31  2  0
  9  3  1  0
 28 10  1  0
 27 13  1  0
 23 16  1  0
  1 32  1  0
  1 33  1  0
  1 34  1  0
  4 35  1  0
  5 36  1  0
  6 37  1  0
  8 38  1  0
 11 39  1  0
 12 40  1  0
 15 41  1  0
 17 42  1  0
 18 43  1  0
 23 44  1  0
 25 45  1  0
 28 46  1  0
 30 47  1  0
 30 48  1  0
M  END
$$$$
[H]c1c([H])c([H])c2c(c1[H])C(N([H])C(=O)N([H])c1c([H])c3c(c([H])c1F)C([H])([H])C([H])([H])[C@]([H])(C([H])([H])[H])C3([H])[H])=NN(c1c([H])c([H])c([H])c(OC([H])([H])[H])c1[H])C(=O)N2C([H])([H])[H]
     RDKit          3D

 65 69  0  0  0  0  0  0  0  0999 V2000
   -6.7273    1.5917    4.4798 C   0  0  0  0  0  0  0  0  0  0  0  0
   -7.0096    2.6182    3.5508 O   0  0  0  0  0  0  0  0  0  0  0  0
   -6.4496    2.6169    2.2820 C   0  0  0  0  0  0  0  0  0  0  0  0
   -6.7742    3.6523    1.4339 C   0  0  0  0  0  0  0  0  0  0  0  0
   -6.2216    3.6561    0.1729 C   0  0  0  0  0  0  0  0  0  0  0  0
   -5.3716    2.6522   -0.2201 C   0  0  0  0  0  0  0  0  0  0  0  0
   -5.0261    1.5972    0.6106 C   0  0  0  0  0  0  0  0  0  0  0  0
   -5.5975    1.6138    1.8828 C   0  0  0  0  0  0  0  0  0  0  0  0
   -4.1608    0.5730    0.2028 N   0  0  0  0  0  0  0  0  0  0  0  0
   -2.7918    0.5824    0.4602 N   0  0  0  0  0  0  0  0  0  0  0  0
   -1.7612    0.1548   -0.3081 C   0  0  0  0  0  0  0  0  0  0  0  0
   -0.5141    0.2850    0.2425 N   0  0  0  0  0  0  0  0  0  0  0  0
    0.8046   -0.1061    0.0087 C   0  0  0  0  0  0  0  0  0  0  0  0
    1.2042   -0.8400   -0.9286 O   0  0  0  0  0  0  0  0  0  0  0  0
    1.8512    0.3369    0.8832 N   0  0  0  0  0  0  0  0  0  0  0  0
    3.2162    0.0590    0.8090 C   0  0  0  0  0  0  0  0  0  0  0  0
    3.8449   -0.6957   -0.1337 C   0  0  0  0  0  0  0  0  0  0  0  0
    5.2516   -0.9159   -0.1200 C   0  0  0  0  0  0  0  0  0  0  0  0
    5.7908   -1.7694   -1.2189 C   0  0  0  0  0  0  0  0  0  0  0  0
    7.2660   -1.6621   -1.3211 C   0  0  1  0  0  0  0  0  0  0  0  0
    7.7091   -0.4292   -2.0665 C   0  0  0  0  0  0  0  0  0  0  0  0
    7.9168   -1.7464    0.0626 C   0  0  0  0  0  0  0  0  0  0  0  0
    7.5076   -0.5719    0.8942 C   0  0  0  0  0  0  0  0  0  0  0  0
    6.0447   -0.3907    0.8266 C   0  0  0  0  0  0  0  0  0  0  0  0
    5.4146    0.3879    1.8037 C   0  0  0  0  0  0  0  0  0  0  0  0
    4.0755    0.6015    1.7964 C   0  0  0  0  0  0  0  0  0  0  0  0
    3.4590    1.3612    2.7522 F   0  0  0  0  0  0  0  0  0  0  0  0
   -1.9837   -0.2819   -1.6813 C   0  0  0  0  0  0  0  0  0  0  0  0
   -0.9519    0.1493   -2.4879 C   0  0  0  0  0  0  0  0  0  0  0  0
   -0.9727   -0.2356   -3.8079 C   0  0  0  0  0  0  0  0  0  0  0  0
   -2.0065   -1.0320   -4.3125 C   0  0  0  0  0  0  0  0  0  0  0  0
   -3.0392   -1.4511   -3.4983 C   0  0  0  0  0  0  0  0  0  0  0  0
   -3.0145   -1.0671   -2.1954 C   0  0  0  0  0  0  0  0  0  0  0  0
   -4.2400   -1.4037   -1.5021 N   0  0  0  0  0  0  0  0  0  0  0  0
   -4.8523   -2.5994   -1.9140 C   0  0  0  0  0  0  0  0  0  0  0  0
   -4.8089   -0.5411   -0.4879 C   0  0  0  0  0  0  0  0  0  0  0  0
   -5.9813   -0.7939   -0.1861 O   0  0  0  0  0  0  0  0  0  0  0  0
   -7.3388    1.6942    5.3882 H   0  0  0  0  0  0  0  0  0  0  0  0
   -6.9482    0.5898    4.0417 H   0  0  0  0  0  0  0  0  0  0  0  0
   -5.6650    1.6251    4.8042 H   0  0  0  0  0  0  0  0  0  0  0  0
   -7.4559    4.4565    1.7508 H   0  0  0  0  0  0  0  0  0  0  0  0
   -6.4836    4.4725   -0.4848 H   0  0  0  0  0  0  0  0  0  0  0  0
   -4.9318    2.6448   -1.2078 H   0  0  0  0  0  0  0  0  0  0  0  0
   -5.3553    0.8162    2.5544 H   0  0  0  0  0  0  0  0  0  0  0  0
   -0.5442    0.9240    1.1700 H   0  0  0  0  0  0  0  0  0  0  0  0
    1.4948    0.9542    1.6750 H   0  0  0  0  0  0  0  0  0  0  0  0
    3.3008   -1.1637   -0.9414 H   0  0  0  0  0  0  0  0  0  0  0  0
    5.2664   -1.4889   -2.1656 H   0  0  0  0  0  0  0  0  0  0  0  0
    5.5201   -2.8477   -0.9998 H   0  0  0  0  0  0  0  0  0  0  0  0
    7.6300   -2.5565   -1.8828 H   0  0  0  0  0  0  0  0  0  0  0  0
    8.7634   -0.5884   -2.4057 H   0  0  0  0  0  0  0  0  0  0  0  0
    7.0729   -0.3614   -2.9782 H   0  0  0  0  0  0  0  0  0  0  0  0
    7.6116    0.4851   -1.4686 H   0  0  0  0  0  0  0  0  0  0  0  0
    8.9927   -1.8919   -0.0294 H   0  0  0  0  0  0  0  0  0  0  0  0
    7.4302   -2.6508    0.5420 H   0  0  0  0  0  0  0  0  0  0  0  0
    7.8415   -0.7877    1.9494 H   0  0  0  0  0  0  0  0  0  0  0  0
    8.0587    0.3144    0.4936 H   0  0  0  0  0  0  0  0  0  0  0  0
    6.0542    0.8136    2.5710 H   0  0  0  0  0  0  0  0  0  0  0  0
   -0.2147    0.8292   -2.0853 H   0  0  0  0  0  0  0  0  0  0  0  0
   -0.2001    0.0619   -4.4842 H   0  0  0  0  0  0  0  0  0  0  0  0
   -2.0022   -1.3235   -5.3469 H   0  0  0  0  0  0  0  0  0  0  0  0
   -3.8672   -2.0657   -3.8106 H   0  0  0  0  0  0  0  0  0  0  0  0
   -5.5571   -2.4784   -2.7655 H   0  0  0  0  0  0  0  0  0  0  0  0
   -5.4608   -3.0079   -1.0868 H   0  0  0  0  0  0  0  0  0  0  0  0
   -4.1126   -3.4251   -2.1391 H   0  0  0  0  0  0  0  0  0  0  0  0
  1  2  1  0
  2  3  1  0
  3  4  2  0
  4  5  1  0
  5  6  2  0
  6  7  1  0
  7  8  2  0
  7  9  1  0
  9 10  1  0
 10 11  2  0
 11 12  1  0
 12 13  1  0
 13 14  2  0
 13 15  1  0
 15 16  1  0
 16 17  2  0
 17 18  1  0
 18 19  1  0
 19 20  1  0
 20 21  1  0
 20 22  1  0
 22 23  1  0
 23 24  1  0
 24 25  1  0
 25 26  2  0
 26 27  1  0
 11 28  1  0
 28 29  2  0
 29 30  1  0
 30 31  2  0
 31 32  1  0
 32 33  2  0
 33 34  1  0
 34 35  1  0
 34 36  1  0
 36 37  2  0
  8  3  1  0
 36  9  1  0
 26 16  1  0
 33 28  1  0
 24 18  2  0
  1 38  1  0
  1 39  1  0
  1 40  1  0
  4 41  1  0
  5 42  1  0
  6 43  1  0
  8 44  1  0
 12 45  1  0
 15 46  1  0
 17 47  1  0
 19 48  1  0
 19 49  1  0
 20 50  1  6
 21 51  1  0
 21 52  1  0
 21 53  1  0
 22 54  1  0
 22 55  1  0
 23 56  1  0
 23 57  1  0
 25 58  1  0
 29 59  1  0
 30 60  1  0
 31 61  1  0
 32 62  1  0
 35 63  1  0
 35 64  1  0
 35 65  1  0
M  END
$$$$
[H]Oc1c([H])c([H])c(O[H])c(N([H])C(=O)c2c([H])c([H])c(Oc3nc(F)c([H])c([H])c3[H])c([H])c2[H])c1[H]
     RDKit          3D

 38 40  0  0  0  0  0  0  0  0999 V2000
    6.3155    1.4005    2.3668 O   0  0  0  0  0  0  0  0  0  0  0  0
    5.8328    0.5045    1.4275 C   0  0  0  0  0  0  0  0  0  0  0  0
    6.6465   -0.3568    0.7354 C   0  0  0  0  0  0  0  0  0  0  0  0
    6.1567   -1.2442   -0.1968 C   0  0  0  0  0  0  0  0  0  0  0  0
    4.8066   -1.2826   -0.4566 C   0  0  0  0  0  0  0  0  0  0  0  0
    4.2587   -2.1534   -1.3825 O   0  0  0  0  0  0  0  0  0  0  0  0
    3.9387   -0.4147    0.2330 C   0  0  0  0  0  0  0  0  0  0  0  0
    2.5676   -0.5091   -0.0838 N   0  0  0  0  0  0  0  0  0  0  0  0
    1.5022    0.2268    0.4424 C   0  0  0  0  0  0  0  0  0  0  0  0
    1.6689    1.1023    1.3084 O   0  0  0  0  0  0  0  0  0  0  0  0
    0.1064    0.0072   -0.0003 C   0  0  0  0  0  0  0  0  0  0  0  0
   -0.2419   -0.6741   -1.1320 C   0  0  0  0  0  0  0  0  0  0  0  0
   -1.5832   -0.8564   -1.4949 C   0  0  0  0  0  0  0  0  0  0  0  0
   -2.6055   -0.3542   -0.7223 C   0  0  0  0  0  0  0  0  0  0  0  0
   -3.9215   -0.5537   -1.1122 O   0  0  0  0  0  0  0  0  0  0  0  0
   -5.0080   -0.0964   -0.4102 C   0  0  0  0  0  0  0  0  0  0  0  0
   -5.4207    1.2019   -0.6290 C   0  0  0  0  0  0  0  0  0  0  0  0
   -6.5049    1.7156    0.0467 C   0  0  0  0  0  0  0  0  0  0  0  0
   -7.2035    0.9320    0.9632 C   0  0  0  0  0  0  0  0  0  0  0  0
   -6.7463   -0.3569    1.1411 C   0  0  0  0  0  0  0  0  0  0  0  0
   -7.4014   -1.1591    2.0295 F   0  0  0  0  0  0  0  0  0  0  0  0
   -5.6867   -0.8501    0.4770 N   0  0  0  0  0  0  0  0  0  0  0  0
   -2.2474    0.3332    0.4195 C   0  0  0  0  0  0  0  0  0  0  0  0
   -0.9318    0.5153    0.7808 C   0  0  0  0  0  0  0  0  0  0  0  0
    4.4566    0.4644    1.1620 C   0  0  0  0  0  0  0  0  0  0  0  0
    6.6127    2.3473    2.1468 H   0  0  0  0  0  0  0  0  0  0  0  0
    7.7061   -0.3179    0.9476 H   0  0  0  0  0  0  0  0  0  0  0  0
    6.8086   -1.9167   -0.7344 H   0  0  0  0  0  0  0  0  0  0  0  0
    4.7734   -2.8066   -1.9245 H   0  0  0  0  0  0  0  0  0  0  0  0
    2.2802   -1.2403   -0.8224 H   0  0  0  0  0  0  0  0  0  0  0  0
    0.5499   -1.0760   -1.7595 H   0  0  0  0  0  0  0  0  0  0  0  0
   -1.7892   -1.4094   -2.4093 H   0  0  0  0  0  0  0  0  0  0  0  0
   -4.8949    1.8525   -1.3452 H   0  0  0  0  0  0  0  0  0  0  0  0
   -6.8376    2.7469   -0.1231 H   0  0  0  0  0  0  0  0  0  0  0  0
   -8.0549    1.3447    1.4897 H   0  0  0  0  0  0  0  0  0  0  0  0
   -3.0610    0.7239    1.0196 H   0  0  0  0  0  0  0  0  0  0  0  0
   -0.6820    1.0604    1.6842 H   0  0  0  0  0  0  0  0  0  0  0  0
    3.8342    1.1490    1.7163 H   0  0  0  0  0  0  0  0  0  0  0  0
  1  2  1  0
  2  3  2  0
  3  4  1  0
  4  5  2  0
  5  6  1  0
  5  7  1  0
  7  8  1  0
  8  9  1  0
  9 10  2  0
  9 11  1  0
 11 12  2  0
 12 13  1  0
 13 14  2  0
 14 15  1  0
 15 16  1  0
 16 17  2  0
 17 18  1  0
 18 19  2  0
 19 20  1  0
 20 21  1  0
 20 22  2  0
 14 23  1  0
 23 24  2  0
  7 25  2  0
 25  2  1  0
 24 11  1  0
 22 16  1  0
  1 26  1  0
  3 27  1  0
  4 28  1  0
  6 29  1  0
  8 30  1  0
 12 31  1  0
 13 32  1  0
 17 33  1  0
 18 34  1  0
 19 35  1  0
 23 36  1  0
 24 37  1  0
 25 38  1  0
M  END
$$$$
[H]c1c([H])c([H])c(C2(C([H])([H])[H])C([H])([H])N(C(=O)N([H])C([H])([H])c3c([H])c([H])c(Cl)c([H])c3[H])C([H])([H])C([H])([H])C2([H])[H])c([H])c1[H]
     RDKit          3D

 47 49  0  0  0  0  0  0  0  0999 V2000
    2.9484   -1.2517    1.7713 C   0  0  0  0  0  0  0  0  0  0  0  0
    2.3987   -0.8961    0.3682 C   0  0  0  0  0  0  0  0  0  0  0  0
    2.8462   -1.9555   -0.5394 C   0  0  0  0  0  0  0  0  0  0  0  0
    1.8340   -2.4767   -1.5206 C   0  0  0  0  0  0  0  0  0  0  0  0
    0.7957   -1.4332   -1.8393 C   0  0  0  0  0  0  0  0  0  0  0  0
    0.1185   -1.1642   -0.5851 N   0  0  0  0  0  0  0  0  0  0  0  0
    0.9071   -0.7881    0.5416 C   0  0  0  0  0  0  0  0  0  0  0  0
   -1.3034   -1.2687   -0.4720 C   0  0  0  0  0  0  0  0  0  0  0  0
   -2.0032   -1.6098   -1.4843 O   0  0  0  0  0  0  0  0  0  0  0  0
   -1.9031   -0.9867    0.7757 N   0  0  0  0  0  0  0  0  0  0  0  0
   -3.3143   -1.0494    1.0327 C   0  0  0  0  0  0  0  0  0  0  0  0
   -4.0787    0.1012    0.4964 C   0  0  0  0  0  0  0  0  0  0  0  0
   -5.4393    0.1426    0.7221 C   0  0  0  0  0  0  0  0  0  0  0  0
   -6.2267    1.1811    0.2575 C   0  0  0  0  0  0  0  0  0  0  0  0
   -5.6348    2.2145   -0.4580 C   0  0  0  0  0  0  0  0  0  0  0  0
   -6.6712    3.5199   -1.0341 Cl  0  0  0  0  0  0  0  0  0  0  0  0
   -4.2780    2.1971   -0.6973 C   0  0  0  0  0  0  0  0  0  0  0  0
   -3.5134    1.1388   -0.2165 C   0  0  0  0  0  0  0  0  0  0  0  0
    2.9290    0.4692    0.1476 C   0  0  0  0  0  0  0  0  0  0  0  0
    3.7629    0.8064   -0.8958 C   0  0  0  0  0  0  0  0  0  0  0  0
    4.2570    2.0906   -1.0923 C   0  0  0  0  0  0  0  0  0  0  0  0
    3.8740    3.0430   -0.1827 C   0  0  0  0  0  0  0  0  0  0  0  0
    3.0381    2.7231    0.8701 C   0  0  0  0  0  0  0  0  0  0  0  0
    2.5545    1.4379    1.0513 C   0  0  0  0  0  0  0  0  0  0  0  0
    2.8555   -0.3907    2.4572 H   0  0  0  0  0  0  0  0  0  0  0  0
    4.0320   -1.4155    1.6258 H   0  0  0  0  0  0  0  0  0  0  0  0
    2.4107   -2.1136    2.1818 H   0  0  0  0  0  0  0  0  0  0  0  0
    3.7740   -1.7791   -1.1191 H   0  0  0  0  0  0  0  0  0  0  0  0
    3.1163   -2.8816    0.0728 H   0  0  0  0  0  0  0  0  0  0  0  0
    2.3069   -2.8293   -2.4696 H   0  0  0  0  0  0  0  0  0  0  0  0
    1.2766   -3.3741   -1.1420 H   0  0  0  0  0  0  0  0  0  0  0  0
    0.0470   -1.8199   -2.5711 H   0  0  0  0  0  0  0  0  0  0  0  0
    1.2838   -0.5047   -2.2392 H   0  0  0  0  0  0  0  0  0  0  0  0
    0.5647    0.2231    0.8484 H   0  0  0  0  0  0  0  0  0  0  0  0
    0.5902   -1.4558    1.3974 H   0  0  0  0  0  0  0  0  0  0  0  0
   -1.2934   -0.7134    1.5702 H   0  0  0  0  0  0  0  0  0  0  0  0
   -3.5563   -1.1341    2.1110 H   0  0  0  0  0  0  0  0  0  0  0  0
   -3.6823   -2.0219    0.5933 H   0  0  0  0  0  0  0  0  0  0  0  0
   -5.9549   -0.6473    1.2801 H   0  0  0  0  0  0  0  0  0  0  0  0
   -7.2997    1.2234    0.4304 H   0  0  0  0  0  0  0  0  0  0  0  0
   -3.8146    3.0175   -1.2645 H   0  0  0  0  0  0  0  0  0  0  0  0
   -2.4547    1.1343   -0.4065 H   0  0  0  0  0  0  0  0  0  0  0  0
    4.0906    0.0930   -1.6402 H   0  0  0  0  0  0  0  0  0  0  0  0
    4.9104    2.3385   -1.9161 H   0  0  0  0  0  0  0  0  0  0  0  0
    4.2282    4.0480   -0.2904 H   0  0  0  0  0  0  0  0  0  0  0  0
    2.7608    3.5234    1.5709 H   0  0  0  0  0  0  0  0  0  0  0  0
    1.9100    1.2947    1.9025 H   0  0  0  0  0  0  0  0  0  0  0  0
  1  2  1  0
  2  3  1  0
  3  4  1  0
  4  5  1  0
  5  6  1  0
  6  7  1  0
  6  8  1  0
  8  9  2  0
  8 10  1  0
 10 11  1  0
 11 12  1  0
 12 13  2  0
 13 14  1  0
 14 15  2  0
 15 16  1  0
 15 17  1  0
 17 18  2  0
  2 19  1  0
 19 20  2  0
 20 21  1  0
 21 22  2  0
 22 23  1  0
 23 24  2  0
  7  2  1  0
 18 12  1  0
 24 19  1  0
  1 25  1  0
  1 26  1  0
  1 27  1  0
  3 28  1  0
  3 29  1  0
  4 30  1  0
  4 31  1  0
  5 32  1  0
  5 33  1  0
  7 34  1  0
  7 35  1  0
 10 36  1  0
 11 37  1  0
 11 38  1  0
 13 39  1  0
 14 40  1  0
 17 41  1  0
 18 42  1  0
 20 43  1  0
 21 44  1  0
 22 45  1  0
 23 46  1  0
 24 47  1  0
M  END
$$$$
[H]c1c([H])c([H])c(C([H])([H])n2c(C3([H])C([H])([H])C3([H])[H])c(C([H])([H])C(=O)N([H])[H])c3c([H])c(Cl)c([H])c([H])c32)c([H])c1[H]
     RDKit          3D

 43 46  0  0  0  0  0  0  0  0999 V2000
   -4.1927   -2.9703   -0.5923 N   0  0  0  0  0  0  0  0  0  0  0  0
   -3.5065   -1.7470   -0.2385 C   0  0  0  0  0  0  0  0  0  0  0  0
   -3.9786   -0.9774    0.5854 O   0  0  0  0  0  0  0  0  0  0  0  0
   -2.2339   -1.5069   -0.9240 C   0  0  0  0  0  0  0  0  0  0  0  0
   -1.4050   -0.4053   -0.4637 C   0  0  0  0  0  0  0  0  0  0  0  0
   -0.5587   -0.4435    0.6974 C   0  0  0  0  0  0  0  0  0  0  0  0
   -0.5691   -1.6677    1.4760 C   0  0  0  0  0  0  0  0  0  0  0  0
   -1.3505   -1.8734    2.7737 C   0  0  0  0  0  0  0  0  0  0  0  0
    0.0655   -1.5770    2.9214 C   0  0  0  0  0  0  0  0  0  0  0  0
    0.0765    0.7101    0.7585 N   0  0  0  0  0  0  0  0  0  0  0  0
    1.2303    1.1312    1.5421 C   0  0  0  0  0  0  0  0  0  0  0  0
    2.4237    0.7894    0.6405 C   0  0  0  0  0  0  0  0  0  0  0  0
    3.1022    1.7227   -0.0760 C   0  0  0  0  0  0  0  0  0  0  0  0
    4.1220    1.4388   -0.9434 C   0  0  0  0  0  0  0  0  0  0  0  0
    4.4872    0.1160   -1.0955 C   0  0  0  0  0  0  0  0  0  0  0  0
    3.8596   -0.8844   -0.4091 C   0  0  0  0  0  0  0  0  0  0  0  0
    2.8164   -0.5191    0.4651 C   0  0  0  0  0  0  0  0  0  0  0  0
   -0.3252    1.5088   -0.2861 C   0  0  0  0  0  0  0  0  0  0  0  0
   -0.0499    2.7860   -0.6827 C   0  0  0  0  0  0  0  0  0  0  0  0
   -0.6506    3.3503   -1.7940 C   0  0  0  0  0  0  0  0  0  0  0  0
   -1.5622    2.6555   -2.5614 C   0  0  0  0  0  0  0  0  0  0  0  0
   -2.3084    3.4232   -3.9756 Cl  0  0  0  0  0  0  0  0  0  0  0  0
   -1.8492    1.3802   -2.1693 C   0  0  0  0  0  0  0  0  0  0  0  0
   -1.2385    0.8199   -1.0482 C   0  0  0  0  0  0  0  0  0  0  0  0
   -3.6326   -3.8651   -0.7612 H   0  0  0  0  0  0  0  0  0  0  0  0
   -5.2189   -3.0555   -0.6944 H   0  0  0  0  0  0  0  0  0  0  0  0
   -1.6319   -2.4644   -1.0431 H   0  0  0  0  0  0  0  0  0  0  0  0
   -2.5317   -1.3188   -2.0152 H   0  0  0  0  0  0  0  0  0  0  0  0
   -0.2346   -2.6316    0.9628 H   0  0  0  0  0  0  0  0  0  0  0  0
   -2.1210   -1.0946    2.9738 H   0  0  0  0  0  0  0  0  0  0  0  0
   -1.6590   -2.9235    3.0085 H   0  0  0  0  0  0  0  0  0  0  0  0
    0.2671   -0.5838    3.3472 H   0  0  0  0  0  0  0  0  0  0  0  0
    0.7620   -2.4032    3.1889 H   0  0  0  0  0  0  0  0  0  0  0  0
    1.1816    2.2646    1.6442 H   0  0  0  0  0  0  0  0  0  0  0  0
    1.4428    0.6647    2.4488 H   0  0  0  0  0  0  0  0  0  0  0  0
    2.8667    2.7758    0.0463 H   0  0  0  0  0  0  0  0  0  0  0  0
    4.6379    2.2197   -1.5116 H   0  0  0  0  0  0  0  0  0  0  0  0
    5.2790   -0.1311   -1.7740 H   0  0  0  0  0  0  0  0  0  0  0  0
    4.1457   -1.9206   -0.5236 H   0  0  0  0  0  0  0  0  0  0  0  0
    2.3731   -1.3462    1.0055 H   0  0  0  0  0  0  0  0  0  0  0  0
    0.6285    3.4032   -0.1002 H   0  0  0  0  0  0  0  0  0  0  0  0
   -0.4167    4.3614   -2.0880 H   0  0  0  0  0  0  0  0  0  0  0  0
   -2.5425    0.7889   -2.7148 H   0  0  0  0  0  0  0  0  0  0  0  0
  1  2  1  0
  2  3  2  0
  2  4  1  0
  4  5  1  0
  5  6  2  0
  6  7  1  0
  7  8  1  0
  8  9  1  0
  6 10  1  0
 10 11  1  0
 11 12  1  0
 12 13  2  0
 13 14  1  0
 14 15  2  0
 15 16  1  0
 16 17  2  0
 10 18  1  0
 18 19  2  0
 19 20  1  0
 20 21  2  0
 21 22  1  0
 21 23  1  0
 23 24  2  0
 24  5  1  0
  9  7  1  0
 17 12  1  0
 24 18  1  0
  1 25  1  0
  1 26  1  0
  4 27  1  0
  4 28  1  0
  7 29  1  0
  8 30  1  0
  8 31  1  0
  9 32  1  0
  9 33  1  0
 11 34  1  0
 11 35  1  0
 13 36  1  0
 14 37  1  0
 15 38  1  0
 16 39  1  0
 17 40  1  0
 19 41  1  0
 20 42  1  0
 23 43  1  0
M  END
$$$$
[H]Cl.[H]Cl.[H]c1c(F)c(F)c([H])c2c1OC([H])([H])Oc1c-2c([H])c(Cl)c([H])c1C([H])([H])N1C([H])([H])C([H])([H])N([H])C([H])([H])C1([H])[H]
     RDKit          3D

 46 47  0  0  0  0  0  0  0  0999 V2000
    0.6866    0.0000    0.0000 Cl  0  0  0  0  0  0  0  0  0  0  0  0
    0.6866    0.0000    0.0000 Cl  0  0  0  0  0  0  0  0  0  0  0  0
    6.9353    1.2528    0.9226 F   0  0  0  0  0  0  0  0  0  0  0  0
    5.6783    0.7797    0.6828 C   0  0  0  0  0  0  0  0  0  0  0  0
    4.9158    1.2923   -0.3700 C   0  0  0  0  0  0  0  0  0  0  0  0
    3.6685    0.7819   -0.5690 C   0  0  0  0  0  0  0  0  0  0  0  0
    2.9216    1.3088   -1.6182 O   0  0  0  0  0  0  0  0  0  0  0  0
    1.5817    1.8089   -1.5377 C   0  0  0  0  0  0  0  0  0  0  0  0
    0.6655    0.9568   -0.9110 O   0  0  0  0  0  0  0  0  0  0  0  0
    0.7723   -0.3128   -0.3594 C   0  0  0  0  0  0  0  0  0  0  0  0
   -0.4010   -1.0037   -0.3179 C   0  0  0  0  0  0  0  0  0  0  0  0
   -1.5347   -0.3108   -0.9541 C   0  0  0  0  0  0  0  0  0  0  0  0
   -2.5572    0.0474   -0.0664 N   0  0  0  0  0  0  0  0  0  0  0  0
   -3.4172   -0.7576    0.5741 C   0  0  0  0  0  0  0  0  0  0  0  0
   -4.6690   -0.0142    1.0583 C   0  0  0  0  0  0  0  0  0  0  0  0
   -5.0915    1.0438    0.2050 N   0  0  0  0  0  0  0  0  0  0  0  0
   -4.2222    1.4413   -0.8394 C   0  0  0  0  0  0  0  0  0  0  0  0
   -2.8268    1.4680   -0.1799 C   0  0  0  0  0  0  0  0  0  0  0  0
   -0.4210   -2.2893    0.2084 C   0  0  0  0  0  0  0  0  0  0  0  0
    0.7758   -2.8498    0.6884 C   0  0  0  0  0  0  0  0  0  0  0  0
    0.7128   -4.4844    1.2731 Cl  0  0  0  0  0  0  0  0  0  0  0  0
    1.9986   -2.1621    0.6664 C   0  0  0  0  0  0  0  0  0  0  0  0
    1.9177   -0.9132    0.1385 C   0  0  0  0  0  0  0  0  0  0  0  0
    3.2236   -0.2113    0.2762 C   0  0  0  0  0  0  0  0  0  0  0  0
    3.9269   -0.7240    1.3101 C   0  0  0  0  0  0  0  0  0  0  0  0
    5.2040   -0.1970    1.5041 C   0  0  0  0  0  0  0  0  0  0  0  0
    5.9561   -0.6980    2.5374 F   0  0  0  0  0  0  0  0  0  0  0  0
   -0.6866    0.0000    0.0000 H   0  0  0  0  0  0  0  0  0  0  0  0
   -0.6866    0.0000    0.0000 H   0  0  0  0  0  0  0  0  0  0  0  0
    5.3096    2.0689   -0.9981 H   0  0  0  0  0  0  0  0  0  0  0  0
    1.2122    1.9301   -2.5840 H   0  0  0  0  0  0  0  0  0  0  0  0
    1.6162    2.8294   -1.1045 H   0  0  0  0  0  0  0  0  0  0  0  0
   -1.1980    0.4641   -1.6523 H   0  0  0  0  0  0  0  0  0  0  0  0
   -2.0196   -1.0850   -1.7202 H   0  0  0  0  0  0  0  0  0  0  0  0
   -3.0040   -1.2381    1.5224 H   0  0  0  0  0  0  0  0  0  0  0  0
   -3.8162   -1.6377   -0.0006 H   0  0  0  0  0  0  0  0  0  0  0  0
   -4.4712    0.3485    2.1135 H   0  0  0  0  0  0  0  0  0  0  0  0
   -5.4725   -0.7597    1.1504 H   0  0  0  0  0  0  0  0  0  0  0  0
   -5.2772    1.9312    0.7626 H   0  0  0  0  0  0  0  0  0  0  0  0
   -4.4794    2.3749   -1.2937 H   0  0  0  0  0  0  0  0  0  0  0  0
   -4.1694    0.5993   -1.5975 H   0  0  0  0  0  0  0  0  0  0  0  0
   -2.8983    1.9072    0.8214 H   0  0  0  0  0  0  0  0  0  0  0  0
   -2.0938    1.9136   -0.8436 H   0  0  0  0  0  0  0  0  0  0  0  0
   -1.3185   -2.8455    0.1975 H   0  0  0  0  0  0  0  0  0  0  0  0
    2.8613   -2.6376    0.9931 H   0  0  0  0  0  0  0  0  0  0  0  0
    3.5047   -1.4172    1.9694 H   0  0  0  0  0  0  0  0  0  0  0  0
  3  4  1  0
  4  5  2  0
  5  6  1  0
  6  7  1  0
  7  8  1  0
  8  9  1  0
  9 10  1  0
 10 11  2  0
 11 12  1  0
 12 13  1  0
 13 14  1  0
 14 15  1  0
 15 16  1  0
 16 17  1  0
 17 18  1  0
 11 19  1  0
 19 20  2  0
 20 21  1  0
 20 22  1  0
 22 23  2  0
 23 24  1  0
 24 25  1  0
 25 26  2  0
 26 27  1  0
 26  4  1  0
 24  6  2  0
 23 10  1  0
 18 13  1  0
  1 28  1  0
  2 29  1  0
  5 30  1  0
  8 31  1  0
  8 32  1  0
 12 33  1  0
 12 34  1  0
 14 35  1  0
 14 36  1  0
 15 37  1  0
 15 38  1  0
 16 39  1  0
 17 40  1  0
 17 41  1  0
 18 42  1  0
 18 43  1  0
 19 44  1  0
 22 45  1  0
 25 46  1  0
M  END
$$$$
[H]c1nc([H])c(-c2c(OC([H])([H])C([H])([H])OC([H])([H])[H])nc3sc(N([H])C(=O)N([H])C([H])([H])C([H])([H])[H])nc3c2[H])o1
     RDKit          3D

 42 44  0  0  0  0  0  0  0  0999 V2000
    8.2579    0.7547   -0.3700 C   0  0  0  0  0  0  0  0  0  0  0  0
    6.8975    0.3381    0.1058 C   0  0  0  0  0  0  0  0  0  0  0  0
    5.8660    0.7360   -0.8191 N   0  0  0  0  0  0  0  0  0  0  0  0
    4.5183    0.4323   -0.5441 C   0  0  0  0  0  0  0  0  0  0  0  0
    4.2794   -0.2004    0.5471 O   0  0  0  0  0  0  0  0  0  0  0  0
    3.4633    0.7946   -1.4098 N   0  0  0  0  0  0  0  0  0  0  0  0
    2.1163    0.4511   -1.0630 C   0  0  0  0  0  0  0  0  0  0  0  0
    1.6479   -0.1811   -0.0191 N   0  0  0  0  0  0  0  0  0  0  0  0
    0.3708   -0.3964    0.1109 C   0  0  0  0  0  0  0  0  0  0  0  0
   -0.2933   -1.0566    1.1657 C   0  0  0  0  0  0  0  0  0  0  0  0
   -1.6445   -1.2285    1.2026 C   0  0  0  0  0  0  0  0  0  0  0  0
   -2.2871   -1.9293    2.3350 C   0  0  0  0  0  0  0  0  0  0  0  0
   -1.6605   -2.4647    3.4257 C   0  0  0  0  0  0  0  0  0  0  0  0
   -2.6185   -3.0058    4.2068 N   0  0  0  0  0  0  0  0  0  0  0  0
   -3.7945   -2.7919    3.5842 C   0  0  0  0  0  0  0  0  0  0  0  0
   -3.5642   -2.1352    2.4479 O   0  0  0  0  0  0  0  0  0  0  0  0
   -2.4143   -0.7393    0.1660 C   0  0  0  0  0  0  0  0  0  0  0  0
   -3.7595   -0.8991    0.1812 O   0  0  0  0  0  0  0  0  0  0  0  0
   -4.7222   -0.5010   -0.7270 C   0  0  0  0  0  0  0  0  0  0  0  0
   -4.8076    0.9742   -0.9580 C   0  0  0  0  0  0  0  0  0  0  0  0
   -5.8007    1.3021   -1.8839 O   0  0  0  0  0  0  0  0  0  0  0  0
   -5.7973    2.6863   -2.0255 C   0  0  0  0  0  0  0  0  0  0  0  0
   -1.8101   -0.1083   -0.8483 N   0  0  0  0  0  0  0  0  0  0  0  0
   -0.4522    0.0632   -0.8830 C   0  0  0  0  0  0  0  0  0  0  0  0
    0.6716    0.7830   -1.9525 S   0  0  0  0  0  0  0  0  0  0  0  0
    8.6976    0.0106   -1.0563 H   0  0  0  0  0  0  0  0  0  0  0  0
    8.1997    1.7318   -0.8646 H   0  0  0  0  0  0  0  0  0  0  0  0
    8.9249    0.8093    0.5385 H   0  0  0  0  0  0  0  0  0  0  0  0
    6.6478    0.8275    1.0860 H   0  0  0  0  0  0  0  0  0  0  0  0
    6.8895   -0.7749    0.2066 H   0  0  0  0  0  0  0  0  0  0  0  0
    6.1490    1.2485   -1.6849 H   0  0  0  0  0  0  0  0  0  0  0  0
    3.6558    1.2991   -2.2794 H   0  0  0  0  0  0  0  0  0  0  0  0
    0.2778   -1.4600    2.0075 H   0  0  0  0  0  0  0  0  0  0  0  0
   -0.6112   -2.4749    3.6557 H   0  0  0  0  0  0  0  0  0  0  0  0
   -4.7848   -3.0817    3.9064 H   0  0  0  0  0  0  0  0  0  0  0  0
   -4.6699   -1.0681   -1.6967 H   0  0  0  0  0  0  0  0  0  0  0  0
   -5.7231   -0.8105   -0.3027 H   0  0  0  0  0  0  0  0  0  0  0  0
   -5.0506    1.5096   -0.0332 H   0  0  0  0  0  0  0  0  0  0  0  0
   -3.8615    1.3288   -1.3802 H   0  0  0  0  0  0  0  0  0  0  0  0
   -4.8183    3.0078   -2.3824 H   0  0  0  0  0  0  0  0  0  0  0  0
   -6.6487    3.0596   -2.6289 H   0  0  0  0  0  0  0  0  0  0  0  0
   -5.9363    3.1593   -1.0090 H   0  0  0  0  0  0  0  0  0  0  0  0
  1  2  1  0
  2  3  1  0
  3  4  1  0
  4  5  2  0
  4  6  1  0
  6  7  1  0
  7  8  2  0
  8  9  1  0
  9 10  2  0
 10 11  1  0
 11 12  1  0
 12 13  2  0
 13 14  1  0
 14 15  2  0
 15 16  1  0
 11 17  2  0
 17 18  1  0
 18 19  1  0
 19 20  1  0
 20 21  1  0
 21 22  1  0
 17 23  1  0
 23 24  2  0
 24 25  1  0
 25  7  1  0
 24  9  1  0
 16 12  1  0
  1 26  1  0
  1 27  1  0
  1 28  1  0
  2 29  1  0
  2 30  1  0
  3 31  1  0
  6 32  1  0
 10 33  1  0
 13 34  1  0
 15 35  1  0
 19 36  1  0
 19 37  1  0
 20 38  1  0
 20 39  1  0
 22 40  1  0
 22 41  1  0
 22 42  1  0
M  END
$$$$
[H]OC([H])([H])[C@@]1(O[H])C([H])([H])[C@@]2([H])O[C@]1(C([H])([H])[H])n1c3c([H])c([H])c([H])c([H])c3c3c4c(c5c6c([H])c([H])c([H])c([H])c6n2c5c31)C(=O)N([H])C4([H])[H]
     RDKit          3D

 54 61  0  0  0  0  0  0  0  0999 V2000
    3.1800    0.8838    1.3878 C   0  0  0  0  0  0  0  0  0  0  0  0
    2.1176    0.2237    0.5774 C   0  0  2  0  0  0  0  0  0  0  0  0
    1.6968   -0.7870    1.4854 O   0  0  0  0  0  0  0  0  0  0  0  0
    1.2511   -1.8639    0.7986 C   0  0  2  0  0  0  0  0  0  0  0  0
    2.0328   -1.9517   -0.4419 C   0  0  0  0  0  0  0  0  0  0  0  0
    2.6347   -0.5714   -0.5849 C   0  0  1  0  0  0  0  0  0  0  0  0
    2.2138   -0.0799   -1.8115 O   0  0  0  0  0  0  0  0  0  0  0  0
    4.1191   -0.7109   -0.6110 C   0  0  0  0  0  0  0  0  0  0  0  0
    4.4589   -1.5975   -1.6334 O   0  0  0  0  0  0  0  0  0  0  0  0
   -0.2014   -1.7853    0.5955 N   0  0  0  0  0  0  0  0  0  0  0  0
   -1.1044   -2.7499    0.6347 C   0  0  0  0  0  0  0  0  0  0  0  0
   -0.9179   -4.0868    0.8734 C   0  0  0  0  0  0  0  0  0  0  0  0
   -2.0299   -4.9199    0.8648 C   0  0  0  0  0  0  0  0  0  0  0  0
   -3.2823   -4.4161    0.6235 C   0  0  0  0  0  0  0  0  0  0  0  0
   -3.4758   -3.0511    0.3794 C   0  0  0  0  0  0  0  0  0  0  0  0
   -2.3768   -2.2421    0.3902 C   0  0  0  0  0  0  0  0  0  0  0  0
   -2.2053   -0.8905    0.1945 C   0  0  0  0  0  0  0  0  0  0  0  0
   -3.0670    0.1511   -0.0975 C   0  0  0  0  0  0  0  0  0  0  0  0
   -4.5001    0.2660   -0.2996 C   0  0  0  0  0  0  0  0  0  0  0  0
   -5.3884   -0.5871   -0.2658 O   0  0  0  0  0  0  0  0  0  0  0  0
   -4.7851    1.6416   -0.5724 N   0  0  0  0  0  0  0  0  0  0  0  0
   -3.5735    2.4248   -0.5610 C   0  0  0  0  0  0  0  0  0  0  0  0
   -2.5314    1.4168   -0.2472 C   0  0  0  0  0  0  0  0  0  0  0  0
   -1.1701    1.6669   -0.1133 C   0  0  0  0  0  0  0  0  0  0  0  0
   -0.3770    2.7657   -0.2198 C   0  0  0  0  0  0  0  0  0  0  0  0
   -0.7006    4.0705   -0.5126 C   0  0  0  0  0  0  0  0  0  0  0  0
    0.3203    5.0230   -0.5829 C   0  0  0  0  0  0  0  0  0  0  0  0
    1.6233    4.6180   -0.3553 C   0  0  0  0  0  0  0  0  0  0  0  0
    1.9232    3.2989   -0.0625 C   0  0  0  0  0  0  0  0  0  0  0  0
    0.9354    2.3466    0.0129 C   0  0  0  0  0  0  0  0  0  0  0  0
    0.9590    1.0103    0.2643 N   0  0  0  0  0  0  0  0  0  0  0  0
   -0.3578    0.6223    0.1746 C   0  0  0  0  0  0  0  0  0  0  0  0
   -0.8544   -0.6533    0.3299 C   0  0  0  0  0  0  0  0  0  0  0  0
    4.0624    1.2462    0.8471 H   0  0  0  0  0  0  0  0  0  0  0  0
    3.5596    0.1949    2.1815 H   0  0  0  0  0  0  0  0  0  0  0  0
    2.7312    1.7230    1.9466 H   0  0  0  0  0  0  0  0  0  0  0  0
    1.4219   -2.7643    1.4120 H   0  0  0  0  0  0  0  0  0  0  0  0
    1.4720   -2.2700   -1.3403 H   0  0  0  0  0  0  0  0  0  0  0  0
    2.8377   -2.7359   -0.3258 H   0  0  0  0  0  0  0  0  0  0  0  0
    2.8799   -0.3390   -2.4928 H   0  0  0  0  0  0  0  0  0  0  0  0
    4.5238   -1.1579    0.3296 H   0  0  0  0  0  0  0  0  0  0  0  0
    4.6358    0.2581   -0.8438 H   0  0  0  0  0  0  0  0  0  0  0  0
    4.7979   -2.4633   -1.2908 H   0  0  0  0  0  0  0  0  0  0  0  0
    0.0592   -4.4684    1.0598 H   0  0  0  0  0  0  0  0  0  0  0  0
   -1.8569   -5.9719    1.0560 H   0  0  0  0  0  0  0  0  0  0  0  0
   -4.1224   -5.0759    0.6219 H   0  0  0  0  0  0  0  0  0  0  0  0
   -4.4721   -2.7398    0.2018 H   0  0  0  0  0  0  0  0  0  0  0  0
   -5.7336    2.0654   -0.7610 H   0  0  0  0  0  0  0  0  0  0  0  0
   -3.6366    3.2333    0.1993 H   0  0  0  0  0  0  0  0  0  0  0  0
   -3.3846    2.8954   -1.5673 H   0  0  0  0  0  0  0  0  0  0  0  0
   -1.7294    4.3700   -0.6881 H   0  0  0  0  0  0  0  0  0  0  0  0
    0.0587    6.0490   -0.8135 H   0  0  0  0  0  0  0  0  0  0  0  0
    2.3774    5.3965   -0.4223 H   0  0  0  0  0  0  0  0  0  0  0  0
    2.9510    3.0689    0.0761 H   0  0  0  0  0  0  0  0  0  0  0  0
  2  1  1  1
  2  3  1  0
  3  4  1  0
  4  5  1  0
  5  6  1  0
  6  7  1  6
  6  8  1  0
  8  9  1  0
  4 10  1  0
 10 11  1  0
 11 12  2  0
 12 13  1  0
 13 14  2  0
 14 15  1  0
 15 16  2  0
 16 17  1  0
 17 18  2  0
 18 19  1  0
 19 20  2  0
 19 21  1  0
 21 22  1  0
 22 23  1  0
 23 24  2  0
 24 25  1  0
 25 26  2  0
 26 27  1  0
 27 28  2  0
 28 29  1  0
 29 30  2  0
 30 31  1  0
 31 32  1  0
 32 33  2  0
  6  2  1  0
 33 10  1  0
 31  2  1  0
 16 11  1  0
 33 17  1  0
 23 18  1  0
 32 24  1  0
 30 25  1  0
  1 34  1  0
  1 35  1  0
  1 36  1  0
  4 37  1  1
  5 38  1  0
  5 39  1  0
  7 40  1  0
  8 41  1  0
  8 42  1  0
  9 43  1  0
 12 44  1  0
 13 45  1  0
 14 46  1  0
 15 47  1  0
 21 48  1  0
 22 49  1  0
 22 50  1  0
 26 51  1  0
 27 52  1  0
 28 53  1  0
 29 54  1  0
M  END
$$$$
[H]c1nc([H])c2nc(-c3nonc3N([H])[H])n(C([H])([H])C([H])([H])[H])c2c1OC1([H])C([H])([H])C([H])([H])N([H])C([H])([H])C1([H])[H]
     RDKit          3D

 43 46  0  0  0  0  0  0  0  0999 V2000
    0.7537    2.2095    0.4705 C   0  0  0  0  0  0  0  0  0  0  0  0
    1.1540    1.1173   -0.5139 C   0  0  0  0  0  0  0  0  0  0  0  0
    1.6304   -0.0594    0.1776 N   0  0  0  0  0  0  0  0  0  0  0  0
    2.8861   -0.3239    0.5370 C   0  0  0  0  0  0  0  0  0  0  0  0
    2.9159   -1.5381    1.1603 N   0  0  0  0  0  0  0  0  0  0  0  0
    1.6563   -1.9998    1.1705 C   0  0  0  0  0  0  0  0  0  0  0  0
    1.1831   -3.1939    1.6961 C   0  0  0  0  0  0  0  0  0  0  0  0
   -0.1223   -3.4465    1.5940 N   0  0  0  0  0  0  0  0  0  0  0  0
   -0.9552   -2.5689    0.9990 C   0  0  0  0  0  0  0  0  0  0  0  0
   -0.5226   -1.3789    0.4683 C   0  0  0  0  0  0  0  0  0  0  0  0
   -1.3786   -0.5215   -0.1197 O   0  0  0  0  0  0  0  0  0  0  0  0
   -2.7419   -0.5759   -0.3325 C   0  0  0  0  0  0  0  0  0  0  0  0
   -3.5005    0.5789    0.2839 C   0  0  0  0  0  0  0  0  0  0  0  0
   -3.2108    1.8008   -0.5414 C   0  0  0  0  0  0  0  0  0  0  0  0
   -4.0048    1.6953   -1.7602 N   0  0  0  0  0  0  0  0  0  0  0  0
   -4.1613    0.3343   -2.1884 C   0  0  0  0  0  0  0  0  0  0  0  0
   -2.9847   -0.5415   -1.8266 C   0  0  0  0  0  0  0  0  0  0  0  0
    0.8223   -1.0891    0.5580 C   0  0  0  0  0  0  0  0  0  0  0  0
    4.0768    0.4902    0.3420 C   0  0  0  0  0  0  0  0  0  0  0  0
    4.2401    1.6877   -0.2363 N   0  0  0  0  0  0  0  0  0  0  0  0
    5.4626    2.0866   -0.2145 O   0  0  0  0  0  0  0  0  0  0  0  0
    6.1525    1.1733    0.3759 N   0  0  0  0  0  0  0  0  0  0  0  0
    5.3756    0.1556    0.7502 C   0  0  0  0  0  0  0  0  0  0  0  0
    5.7491   -1.0284    1.4203 N   0  0  0  0  0  0  0  0  0  0  0  0
    0.0271    2.8647   -0.0583 H   0  0  0  0  0  0  0  0  0  0  0  0
    0.3162    1.7744    1.3952 H   0  0  0  0  0  0  0  0  0  0  0  0
    1.6061    2.8497    0.7614 H   0  0  0  0  0  0  0  0  0  0  0  0
    0.2938    0.8428   -1.1680 H   0  0  0  0  0  0  0  0  0  0  0  0
    1.9267    1.5456   -1.1745 H   0  0  0  0  0  0  0  0  0  0  0  0
    1.8558   -3.8999    2.1754 H   0  0  0  0  0  0  0  0  0  0  0  0
   -1.9921   -2.8719    0.9703 H   0  0  0  0  0  0  0  0  0  0  0  0
   -3.1610   -1.5100    0.0696 H   0  0  0  0  0  0  0  0  0  0  0  0
   -3.3236    0.7021    1.3557 H   0  0  0  0  0  0  0  0  0  0  0  0
   -4.5856    0.3489    0.1601 H   0  0  0  0  0  0  0  0  0  0  0  0
   -3.4837    2.7453   -0.0281 H   0  0  0  0  0  0  0  0  0  0  0  0
   -2.1365    1.8391   -0.8829 H   0  0  0  0  0  0  0  0  0  0  0  0
   -4.9741    2.0653   -1.5215 H   0  0  0  0  0  0  0  0  0  0  0  0
   -4.1987    0.3493   -3.3093 H   0  0  0  0  0  0  0  0  0  0  0  0
   -5.1363   -0.1123   -1.8739 H   0  0  0  0  0  0  0  0  0  0  0  0
   -3.2018   -1.5602   -2.1743 H   0  0  0  0  0  0  0  0  0  0  0  0
   -2.1021   -0.1157   -2.3402 H   0  0  0  0  0  0  0  0  0  0  0  0
    6.2306   -0.9606    2.3432 H   0  0  0  0  0  0  0  0  0  0  0  0
    5.5632   -1.9603    1.0303 H   0  0  0  0  0  0  0  0  0  0  0  0
  1  2  1  0
  2  3  1  0
  3  4  1  0
  4  5  2  0
  5  6  1  0
  6  7  2  0
  7  8  1  0
  8  9  2  0
  9 10  1  0
 10 11  1  0
 11 12  1  0
 12 13  1  0
 13 14  1  0
 14 15  1  0
 15 16  1  0
 16 17  1  0
 10 18  2  0
  4 19  1  0
 19 20  2  0
 20 21  1  0
 21 22  1  0
 22 23  2  0
 23 24  1  0
 18  3  1  0
 23 19  1  0
 18  6  1  0
 17 12  1  0
  1 25  1  0
  1 26  1  0
  1 27  1  0
  2 28  1  0
  2 29  1  0
  7 30  1  0
  9 31  1  0
 12 32  1  0
 13 33  1  0
 13 34  1  0
 14 35  1  0
 14 36  1  0
 15 37  1  0
 16 38  1  0
 16 39  1  0
 17 40  1  0
 17 41  1  0
 24 42  1  0
 24 43  1  0
M  END
$$$$
[H]O[C@@](C([H])([H])[H])(C([H])([H])Oc1c([H])c([H])c([N+]#[C-])c([H])c1[H])[C@@]([H])(O[H])C(=O)N([H])c1c([H])c([H])c([N+](=O)[O-])c(C(F)(F)F)c1[H]
     RDKit          3D

 47 48  0  0  0  0  0  0  0  0999 V2000
    2.4789   -3.2438   -0.6927 C   0  0  0  0  0  0  0  0  0  0  0  0
    1.2883   -2.3324   -0.7611 C   0  0  2  0  0  0  0  0  0  0  0  0
    1.0656   -1.9684   -2.1116 O   0  0  0  0  0  0  0  0  0  0  0  0
    1.6557   -1.0350   -0.0686 C   0  0  0  0  0  0  0  0  0  0  0  0
    2.8257   -0.5718   -0.7447 O   0  0  0  0  0  0  0  0  0  0  0  0
    3.4887    0.5851   -0.4261 C   0  0  0  0  0  0  0  0  0  0  0  0
    3.0179    1.3601    0.6014 C   0  0  0  0  0  0  0  0  0  0  0  0
    3.7123    2.5129    0.8887 C   0  0  0  0  0  0  0  0  0  0  0  0
    4.8350    2.8736    0.1727 C   0  0  0  0  0  0  0  0  0  0  0  0
    5.2818    2.0515   -0.8704 C   0  0  0  0  0  0  0  0  0  0  0  0
    4.6014    0.9065   -1.1639 C   0  0  0  0  0  0  0  0  0  0  0  0
    5.5276    4.0301    0.4642 N   0  0  0  0  0  0  0  0  0  0  0  0
    6.0948    5.0075    0.6983 C   0  0  0  0  0  0  0  0  0  0  0  0
    0.0676   -2.9681   -0.1835 C   0  0  1  0  0  0  0  0  0  0  0  0
    0.2922   -3.3316    1.1265 O   0  0  0  0  0  0  0  0  0  0  0  0
   -1.0553   -1.9712   -0.2781 C   0  0  0  0  0  0  0  0  0  0  0  0
   -1.3150   -1.5606   -1.4174 O   0  0  0  0  0  0  0  0  0  0  0  0
   -1.7204   -1.5779    0.8886 N   0  0  0  0  0  0  0  0  0  0  0  0
   -2.7754   -0.6453    0.9118 C   0  0  0  0  0  0  0  0  0  0  0  0
   -3.6365   -0.6401    2.0190 C   0  0  0  0  0  0  0  0  0  0  0  0
   -4.6632    0.2345    2.1418 C   0  0  0  0  0  0  0  0  0  0  0  0
   -4.8941    1.1872    1.1271 C   0  0  0  0  0  0  0  0  0  0  0  0
   -4.0823    1.2189    0.0337 C   0  0  0  0  0  0  0  0  0  0  0  0
   -3.0289    0.2873   -0.0443 C   0  0  0  0  0  0  0  0  0  0  0  0
   -4.2236    2.1650   -1.1028 C   0  0  0  0  0  0  0  0  0  0  0  0
   -4.1672    3.4573   -0.6205 F   0  0  0  0  0  0  0  0  0  0  0  0
   -5.3216    1.8988   -1.8814 F   0  0  0  0  0  0  0  0  0  0  0  0
   -3.0950    2.0404   -1.9424 F   0  0  0  0  0  0  0  0  0  0  0  0
   -5.9462    2.0838    1.3185 N   0  0  0  0  0  0  0  0  0  0  0  0
   -6.6813    2.6609    0.3553 O   0  0  0  0  0  0  0  0  0  0  0  0
   -6.2291    2.3834    2.5212 O   0  0  0  0  0  0  0  0  0  0  0  0
    2.2736   -4.1383   -1.3438 H   0  0  0  0  0  0  0  0  0  0  0  0
    3.3992   -2.8006   -1.0757 H   0  0  0  0  0  0  0  0  0  0  0  0
    2.6780   -3.5653    0.3493 H   0  0  0  0  0  0  0  0  0  0  0  0
    1.2570   -2.7307   -2.7122 H   0  0  0  0  0  0  0  0  0  0  0  0
    0.8274   -0.2930   -0.2078 H   0  0  0  0  0  0  0  0  0  0  0  0
    1.8210   -1.1423    1.0074 H   0  0  0  0  0  0  0  0  0  0  0  0
    2.1466    1.0945    1.1680 H   0  0  0  0  0  0  0  0  0  0  0  0
    3.3317    3.1318    1.7136 H   0  0  0  0  0  0  0  0  0  0  0  0
    6.1637    2.3313   -1.4356 H   0  0  0  0  0  0  0  0  0  0  0  0
    4.9312    0.2439   -1.9778 H   0  0  0  0  0  0  0  0  0  0  0  0
   -0.1908   -3.8690   -0.7836 H   0  0  0  0  0  0  0  0  0  0  0  0
    0.5450   -2.5596    1.6645 H   0  0  0  0  0  0  0  0  0  0  0  0
   -1.4018   -2.0184    1.8260 H   0  0  0  0  0  0  0  0  0  0  0  0
   -3.4417   -1.3795    2.7853 H   0  0  0  0  0  0  0  0  0  0  0  0
   -5.3361    0.2354    3.0112 H   0  0  0  0  0  0  0  0  0  0  0  0
   -2.4025    0.3613   -0.9239 H   0  0  0  0  0  0  0  0  0  0  0  0
  1  2  1  0
  2  3  1  6
  2  4  1  0
  4  5  1  0
  5  6  1  0
  6  7  2  0
  7  8  1  0
  8  9  2  0
  9 10  1  0
 10 11  2  0
  9 12  1  0
 12 13  3  0
  2 14  1  0
 14 15  1  0
 14 16  1  0
 16 17  2  0
 16 18  1  0
 18 19  1  0
 19 20  2  0
 20 21  1  0
 21 22  2  0
 22 23  1  0
 23 24  2  0
 23 25  1  0
 25 26  1  0
 25 27  1  0
 25 28  1  0
 22 29  1  0
 29 30  1  0
 29 31  2  0
 11  6  1  0
 24 19  1  0
  1 32  1  0
  1 33  1  0
  1 34  1  0
  3 35  1  0
  4 36  1  0
  4 37  1  0
  7 38  1  0
  8 39  1  0
 10 40  1  0
 11 41  1  0
 14 42  1  6
 15 43  1  0
 18 44  1  0
 20 45  1  0
 21 46  1  0
 24 47  1  0
M  CHG  4  12   1  13  -1  29   1  30  -1
M  END
$$$$
[H]N=C(c1c([H])c([H])c(C(=O)OC([H])([H])c2nc3c([H])c([H])c(C(=N[H])N([H])[H])c([H])c3c([H])c2[H])c([H])c1[H])N([H])[H]
     RDKit          3D

 43 45  0  0  0  0  0  0  0  0999 V2000
   -6.5417    0.7382    2.6128 N   0  0  0  0  0  0  0  0  0  0  0  0
   -6.6970    0.7325    1.2134 C   0  0  0  0  0  0  0  0  0  0  0  0
   -7.8262    1.0271    0.6977 N   0  0  0  0  0  0  0  0  0  0  0  0
   -5.5867    0.3954    0.3510 C   0  0  0  0  0  0  0  0  0  0  0  0
   -5.6831    0.3741   -1.0261 C   0  0  0  0  0  0  0  0  0  0  0  0
   -4.6082    0.0489   -1.8268 C   0  0  0  0  0  0  0  0  0  0  0  0
   -3.3849   -0.2697   -1.2562 C   0  0  0  0  0  0  0  0  0  0  0  0
   -2.3133   -0.5919   -1.9955 N   0  0  0  0  0  0  0  0  0  0  0  0
   -1.1028   -0.9089   -1.4815 C   0  0  0  0  0  0  0  0  0  0  0  0
    0.0121   -1.2571   -2.3994 C   0  0  0  0  0  0  0  0  0  0  0  0
    1.2765   -1.2025   -1.8284 O   0  0  0  0  0  0  0  0  0  0  0  0
    1.8112   -0.0490   -1.2978 C   0  0  0  0  0  0  0  0  0  0  0  0
    1.1437    1.0028   -1.3250 O   0  0  0  0  0  0  0  0  0  0  0  0
    3.1347   -0.0245   -0.7061 C   0  0  0  0  0  0  0  0  0  0  0  0
    3.9268   -1.1545   -0.6438 C   0  0  0  0  0  0  0  0  0  0  0  0
    5.1999   -1.1184   -0.0714 C   0  0  0  0  0  0  0  0  0  0  0  0
    5.7135    0.0384    0.4506 C   0  0  0  0  0  0  0  0  0  0  0  0
    4.9161    1.1893    0.3913 C   0  0  0  0  0  0  0  0  0  0  0  0
    3.6841    1.1204   -0.1713 C   0  0  0  0  0  0  0  0  0  0  0  0
    7.0202    0.1417    1.0550 C   0  0  0  0  0  0  0  0  0  0  0  0
    7.4602    1.3876    1.5672 N   0  0  0  0  0  0  0  0  0  0  0  0
    7.8136   -0.8449    1.1545 N   0  0  0  0  0  0  0  0  0  0  0  0
   -0.9508   -0.9034   -0.1096 C   0  0  0  0  0  0  0  0  0  0  0  0
   -2.0299   -0.5776    0.6731 C   0  0  0  0  0  0  0  0  0  0  0  0
   -3.2538   -0.2580    0.1229 C   0  0  0  0  0  0  0  0  0  0  0  0
   -4.3503    0.0718    0.8832 C   0  0  0  0  0  0  0  0  0  0  0  0
   -6.3733    1.6377    3.0931 H   0  0  0  0  0  0  0  0  0  0  0  0
   -6.5923   -0.1442    3.1780 H   0  0  0  0  0  0  0  0  0  0  0  0
   -8.6433    1.2739    1.2949 H   0  0  0  0  0  0  0  0  0  0  0  0
   -6.6397    0.6229   -1.4827 H   0  0  0  0  0  0  0  0  0  0  0  0
   -4.7283    0.0447   -2.9036 H   0  0  0  0  0  0  0  0  0  0  0  0
   -0.0396   -0.5301   -3.2592 H   0  0  0  0  0  0  0  0  0  0  0  0
   -0.1495   -2.2685   -2.8538 H   0  0  0  0  0  0  0  0  0  0  0  0
    3.5909   -2.0982   -1.0329 H   0  0  0  0  0  0  0  0  0  0  0  0
    5.7981   -2.0250   -0.0379 H   0  0  0  0  0  0  0  0  0  0  0  0
    5.3298    2.1167    0.8106 H   0  0  0  0  0  0  0  0  0  0  0  0
    3.0722    2.0125   -0.2146 H   0  0  0  0  0  0  0  0  0  0  0  0
    7.3333    1.5704    2.5813 H   0  0  0  0  0  0  0  0  0  0  0  0
    7.8931    2.0931    0.9560 H   0  0  0  0  0  0  0  0  0  0  0  0
    7.5612   -1.7788    0.8048 H   0  0  0  0  0  0  0  0  0  0  0  0
    0.0083   -1.1551    0.3247 H   0  0  0  0  0  0  0  0  0  0  0  0
   -1.9701   -0.5566    1.7540 H   0  0  0  0  0  0  0  0  0  0  0  0
   -4.2346    0.0770    1.9536 H   0  0  0  0  0  0  0  0  0  0  0  0
  1  2  1  0
  2  3  2  3
  2  4  1  0
  4  5  2  0
  5  6  1  0
  6  7  2  0
  7  8  1  0
  8  9  2  0
  9 10  1  0
 10 11  1  0
 11 12  1  0
 12 13  2  0
 12 14  1  0
 14 15  2  0
 15 16  1  0
 16 17  2  0
 17 18  1  0
 18 19  2  0
 17 20  1  0
 20 21  1  0
 20 22  2  3
  9 23  1  0
 23 24  2  0
 24 25  1  0
 25 26  2  0
 26  4  1  0
 25  7  1  0
 19 14  1  0
  1 27  1  0
  1 28  1  0
  3 29  1  0
  5 30  1  0
  6 31  1  0
 10 32  1  0
 10 33  1  0
 15 34  1  0
 16 35  1  0
 18 36  1  0
 19 37  1  0
 21 38  1  0
 21 39  1  0
 22 40  1  0
 23 41  1  0
 24 42  1  0
 26 43  1  0
M  END
$$$$
[H]c1nc2c([H])c([H])c(-c3c([H])c(C(=O)N([H])c4c([H])c([H])c(OC([H])([H])[H])c([H])c4[H])c([H])c([H])c3C([H])([H])[H])c([H])n2c1[H]
     RDKit          3D

 46 49  0  0  0  0  0  0  0  0999 V2000
    8.6585   -0.9754   -0.9848 C   0  0  0  0  0  0  0  0  0  0  0  0
    7.4711   -1.7474   -1.0303 O   0  0  0  0  0  0  0  0  0  0  0  0
    6.2278   -1.2289   -0.7356 C   0  0  0  0  0  0  0  0  0  0  0  0
    6.0439    0.0852   -0.3720 C   0  0  0  0  0  0  0  0  0  0  0  0
    4.7951    0.5799   -0.0831 C   0  0  0  0  0  0  0  0  0  0  0  0
    3.6384   -0.2155   -0.1396 C   0  0  0  0  0  0  0  0  0  0  0  0
    2.4406    0.4168    0.1778 N   0  0  0  0  0  0  0  0  0  0  0  0
    1.1491   -0.1447    0.2009 C   0  0  0  0  0  0  0  0  0  0  0  0
    0.9289   -1.3669   -0.0875 O   0  0  0  0  0  0  0  0  0  0  0  0
   -0.0309    0.6609    0.5631 C   0  0  0  0  0  0  0  0  0  0  0  0
    0.1135    1.8263    1.2681 C   0  0  0  0  0  0  0  0  0  0  0  0
   -1.0326    2.5432    1.5703 C   0  0  0  0  0  0  0  0  0  0  0  0
   -2.2929    2.0850    1.1654 C   0  0  0  0  0  0  0  0  0  0  0  0
   -3.5183    2.8711    1.5160 C   0  0  0  0  0  0  0  0  0  0  0  0
   -2.4413    0.9236    0.4621 C   0  0  0  0  0  0  0  0  0  0  0  0
   -1.2750    0.2222    0.1713 C   0  0  0  0  0  0  0  0  0  0  0  0
   -3.7365    0.4389    0.0229 C   0  0  0  0  0  0  0  0  0  0  0  0
   -4.6843    1.1594   -0.6387 C   0  0  0  0  0  0  0  0  0  0  0  0
   -5.8804    0.5381   -0.9826 C   0  0  0  0  0  0  0  0  0  0  0  0
   -6.1435   -0.7646   -0.6846 C   0  0  0  0  0  0  0  0  0  0  0  0
   -7.1798   -1.6169   -0.8821 N   0  0  0  0  0  0  0  0  0  0  0  0
   -6.8823   -2.8193   -0.3616 C   0  0  0  0  0  0  0  0  0  0  0  0
   -5.6381   -2.7361    0.1767 C   0  0  0  0  0  0  0  0  0  0  0  0
   -5.2116   -1.4616   -0.0381 N   0  0  0  0  0  0  0  0  0  0  0  0
   -4.0637   -0.8936    0.3012 C   0  0  0  0  0  0  0  0  0  0  0  0
    3.8425   -1.5200   -0.5032 C   0  0  0  0  0  0  0  0  0  0  0  0
    5.1177   -2.0327   -0.8003 C   0  0  0  0  0  0  0  0  0  0  0  0
    8.8965   -0.8191    0.0878 H   0  0  0  0  0  0  0  0  0  0  0  0
    8.5050    0.0464   -1.4362 H   0  0  0  0  0  0  0  0  0  0  0  0
    9.4963   -1.4835   -1.5047 H   0  0  0  0  0  0  0  0  0  0  0  0
    6.9321    0.7024   -0.3265 H   0  0  0  0  0  0  0  0  0  0  0  0
    4.7572    1.6320    0.1939 H   0  0  0  0  0  0  0  0  0  0  0  0
    2.4613    1.4608    0.4368 H   0  0  0  0  0  0  0  0  0  0  0  0
    1.0665    2.2165    1.6060 H   0  0  0  0  0  0  0  0  0  0  0  0
   -0.9871    3.4619    2.1186 H   0  0  0  0  0  0  0  0  0  0  0  0
   -4.3870    2.2554    1.7506 H   0  0  0  0  0  0  0  0  0  0  0  0
   -3.6980    3.6833    0.7766 H   0  0  0  0  0  0  0  0  0  0  0  0
   -3.2429    3.4370    2.4592 H   0  0  0  0  0  0  0  0  0  0  0  0
   -1.4087   -0.7080   -0.3931 H   0  0  0  0  0  0  0  0  0  0  0  0
   -4.4828    2.1731   -0.8767 H   0  0  0  0  0  0  0  0  0  0  0  0
   -6.6411    1.1016   -1.5086 H   0  0  0  0  0  0  0  0  0  0  0  0
   -7.5004   -3.7258   -0.3518 H   0  0  0  0  0  0  0  0  0  0  0  0
   -5.0925   -3.5311    0.6791 H   0  0  0  0  0  0  0  0  0  0  0  0
   -3.3127   -1.4860    0.8321 H   0  0  0  0  0  0  0  0  0  0  0  0
    3.0004   -2.1705   -0.5629 H   0  0  0  0  0  0  0  0  0  0  0  0
    5.2220   -3.0735   -1.0829 H   0  0  0  0  0  0  0  0  0  0  0  0
  1  2  1  0
  2  3  1  0
  3  4  2  0
  4  5  1  0
  5  6  2  0
  6  7  1  0
  7  8  1  0
  8  9  2  0
  8 10  1  0
 10 11  2  0
 11 12  1  0
 12 13  2  0
 13 14  1  0
 13 15  1  0
 15 16  2  0
 15 17  1  0
 17 18  1  0
 18 19  2  0
 19 20  1  0
 20 21  2  0
 21 22  1  0
 22 23  2  0
 23 24  1  0
 24 25  1  0
  6 26  1  0
 26 27  2  0
 27  3  1  0
 16 10  1  0
 25 17  2  0
 24 20  1  0
  1 28  1  0
  1 29  1  0
  1 30  1  0
  4 31  1  0
  5 32  1  0
  7 33  1  0
 11 34  1  0
 12 35  1  0
 14 36  1  0
 14 37  1  0
 14 38  1  0
 16 39  1  0
 18 40  1  0
 19 41  1  0
 22 42  1  0
 23 43  1  0
 25 44  1  0
 26 45  1  0
 27 46  1  0
M  END
$$$$
[H]c1c([H])c([H])c2c(c1[H])c1c3c(c4c5c([H])c([H])c([H])c([H])c5n5c4c1n2[C@@]1(C([H])([H])[H])O[C@]5([H])C([H])([H])[C@@]([H])(N([H])C([H])([H])[H])[C@@]1([H])OC([H])([H])[H])C(=O)N([H])C3([H])[H]
     RDKit          3D

 61 68  0  0  0  0  0  0  0  0999 V2000
   -3.3415   -2.0929    0.8927 C   0  0  0  0  0  0  0  0  0  0  0  0
   -2.7520   -0.8244    0.5060 N   0  0  0  0  0  0  0  0  0  0  0  0
   -2.5947   -0.7699   -0.9652 C   0  0  2  0  0  0  0  0  0  0  0  0
   -1.6635   -1.8336   -1.3456 C   0  0  0  0  0  0  0  0  0  0  0  0
   -0.4098   -1.3263   -1.9401 C   0  0  1  0  0  0  0  0  0  0  0  0
   -0.2904   -0.0961   -2.3609 O   0  0  0  0  0  0  0  0  0  0  0  0
   -0.9141    0.9817   -1.7381 C   0  0  1  0  0  0  0  0  0  0  0  0
   -0.8729    2.0231   -2.8643 C   0  0  0  0  0  0  0  0  0  0  0  0
   -2.2914    0.6326   -1.4119 C   0  0  2  0  0  0  0  0  0  0  0  0
   -2.9229    1.4324   -0.4622 O   0  0  0  0  0  0  0  0  0  0  0  0
   -4.0664    2.0564   -0.9455 C   0  0  0  0  0  0  0  0  0  0  0  0
   -0.0747    1.3904   -0.5981 N   0  0  0  0  0  0  0  0  0  0  0  0
    0.0066    2.5943   -0.0347 C   0  0  0  0  0  0  0  0  0  0  0  0
   -0.6403    3.7755   -0.2701 C   0  0  0  0  0  0  0  0  0  0  0  0
   -0.3753    4.9057    0.4704 C   0  0  0  0  0  0  0  0  0  0  0  0
    0.5715    4.8915    1.4994 C   0  0  0  0  0  0  0  0  0  0  0  0
    1.2169    3.7192    1.7374 C   0  0  0  0  0  0  0  0  0  0  0  0
    0.9447    2.6014    0.9941 C   0  0  0  0  0  0  0  0  0  0  0  0
    1.4533    1.3308    1.0530 C   0  0  0  0  0  0  0  0  0  0  0  0
    2.4134    0.7192    1.8621 C   0  0  0  0  0  0  0  0  0  0  0  0
    3.2252    1.2814    2.9656 C   0  0  0  0  0  0  0  0  0  0  0  0
    4.0513    0.2282    3.4563 N   0  0  0  0  0  0  0  0  0  0  0  0
    3.7725   -0.9500    2.6928 C   0  0  0  0  0  0  0  0  0  0  0  0
    4.3602   -2.0093    2.9202 O   0  0  0  0  0  0  0  0  0  0  0  0
    2.7553   -0.6238    1.7110 C   0  0  0  0  0  0  0  0  0  0  0  0
    2.1006   -1.3257    0.7242 C   0  0  0  0  0  0  0  0  0  0  0  0
    2.1422   -2.6347    0.2794 C   0  0  0  0  0  0  0  0  0  0  0  0
    2.8759   -3.7217    0.6638 C   0  0  0  0  0  0  0  0  0  0  0  0
    2.6892   -4.9254    0.0128 C   0  0  0  0  0  0  0  0  0  0  0  0
    1.7808   -5.0386   -1.0084 C   0  0  0  0  0  0  0  0  0  0  0  0
    1.0343   -3.9515   -1.4066 C   0  0  0  0  0  0  0  0  0  0  0  0
    1.2263   -2.7646   -0.7562 C   0  0  0  0  0  0  0  0  0  0  0  0
    0.6469   -1.5975   -0.9447 N   0  0  0  0  0  0  0  0  0  0  0  0
    1.1358   -0.7009   -0.0851 C   0  0  0  0  0  0  0  0  0  0  0  0
    0.8119    0.6350    0.0794 C   0  0  0  0  0  0  0  0  0  0  0  0
   -3.9345   -1.8764    1.8249 H   0  0  0  0  0  0  0  0  0  0  0  0
   -2.5804   -2.8202    1.1896 H   0  0  0  0  0  0  0  0  0  0  0  0
   -4.0376   -2.4413    0.1071 H   0  0  0  0  0  0  0  0  0  0  0  0
   -1.8252   -0.7857    0.9817 H   0  0  0  0  0  0  0  0  0  0  0  0
   -3.6418   -1.0758   -1.3069 H   0  0  0  0  0  0  0  0  0  0  0  0
   -1.4743   -2.5407   -0.4944 H   0  0  0  0  0  0  0  0  0  0  0  0
   -2.1827   -2.5069   -2.1019 H   0  0  0  0  0  0  0  0  0  0  0  0
   -0.1764   -2.0147   -2.8352 H   0  0  0  0  0  0  0  0  0  0  0  0
   -1.8561    2.5173   -2.9808 H   0  0  0  0  0  0  0  0  0  0  0  0
   -0.0367    2.7359   -2.7018 H   0  0  0  0  0  0  0  0  0  0  0  0
   -0.6761    1.5932   -3.8662 H   0  0  0  0  0  0  0  0  0  0  0  0
   -2.9127    0.7625   -2.3525 H   0  0  0  0  0  0  0  0  0  0  0  0
   -4.5472    2.6842   -0.1440 H   0  0  0  0  0  0  0  0  0  0  0  0
   -3.8494    2.7776   -1.7563 H   0  0  0  0  0  0  0  0  0  0  0  0
   -4.7942    1.3294   -1.3803 H   0  0  0  0  0  0  0  0  0  0  0  0
   -1.3647    3.8112   -1.0348 H   0  0  0  0  0  0  0  0  0  0  0  0
   -0.8845    5.8355    0.2847 H   0  0  0  0  0  0  0  0  0  0  0  0
    0.7949    5.7654    2.0918 H   0  0  0  0  0  0  0  0  0  0  0  0
    1.9682    3.6487    2.5304 H   0  0  0  0  0  0  0  0  0  0  0  0
    3.8868    2.0907    2.5395 H   0  0  0  0  0  0  0  0  0  0  0  0
    2.5967    1.6993    3.7873 H   0  0  0  0  0  0  0  0  0  0  0  0
    4.7363    0.3270    4.2421 H   0  0  0  0  0  0  0  0  0  0  0  0
    3.5871   -3.7061    1.4353 H   0  0  0  0  0  0  0  0  0  0  0  0
    3.2659   -5.8106    0.3031 H   0  0  0  0  0  0  0  0  0  0  0  0
    1.6292   -5.9934   -1.5280 H   0  0  0  0  0  0  0  0  0  0  0  0
    0.3048   -4.0175   -2.2172 H   0  0  0  0  0  0  0  0  0  0  0  0
  1  2  1  0
  2  3  1  0
  3  4  1  0
  4  5  1  0
  5  6  1  0
  6  7  1  0
  7  8  1  6
  7  9  1  0
  9 10  1  0
 10 11  1  0
  7 12  1  0
 12 13  1  0
 13 14  2  0
 14 15  1  0
 15 16  2  0
 16 17  1  0
 17 18  2  0
 18 19  1  0
 19 20  2  0
 20 21  1  0
 21 22  1  0
 22 23  1  0
 23 24  2  0
 23 25  1  0
 25 26  2  0
 26 27  1  0
 27 28  2  0
 28 29  1  0
 29 30  2  0
 30 31  1  0
 31 32  2  0
 32 33  1  0
 33 34  1  0
 34 35  2  0
  9  3  1  0
 35 12  1  0
 33  5  1  0
 18 13  1  0
 35 19  1  0
 25 20  1  0
 34 26  1  0
 32 27  1  0
  1 36  1  0
  1 37  1  0
  1 38  1  0
  2 39  1  0
  3 40  1  6
  4 41  1  0
  4 42  1  0
  5 43  1  6
  8 44  1  0
  8 45  1  0
  8 46  1  0
  9 47  1  6
 11 48  1  0
 11 49  1  0
 11 50  1  0
 14 51  1  0
 15 52  1  0
 16 53  1  0
 17 54  1  0
 21 55  1  0
 21 56  1  0
 22 57  1  0
 28 58  1  0
 29 59  1  0
 30 60  1  0
 31 61  1  0
M  END
$$$$
[H]c1nc2c(-c3c([H])c(C([H])([H])[H])nc4c([H])c([H])c([H])c([H])c34)c([H])nn2c([H])c1-c1c([H])c([H])c(N2C([H])([H])C([H])([H])N([H])C([H])([H])C2([H])[H])c([H])c1[H]
     RDKit          3D

 56 61  0  0  0  0  0  0  0  0999 V2000
   -6.3154    3.5447   -0.4711 C   0  0  0  0  0  0  0  0  0  0  0  0
   -6.1979    2.0562   -0.2917 C   0  0  0  0  0  0  0  0  0  0  0  0
   -5.0353    1.4691    0.1287 C   0  0  0  0  0  0  0  0  0  0  0  0
   -4.8831    0.0850    0.3183 C   0  0  0  0  0  0  0  0  0  0  0  0
   -3.6262   -0.4331    0.8409 C   0  0  0  0  0  0  0  0  0  0  0  0
   -3.5215   -1.1485    2.0168 C   0  0  0  0  0  0  0  0  0  0  0  0
   -2.2322   -1.4052    2.2236 N   0  0  0  0  0  0  0  0  0  0  0  0
   -1.4765   -0.9054    1.2584 N   0  0  0  0  0  0  0  0  0  0  0  0
   -0.1466   -0.9213    1.0595 C   0  0  0  0  0  0  0  0  0  0  0  0
    0.3787   -0.3068   -0.0547 C   0  0  0  0  0  0  0  0  0  0  0  0
   -0.4834    0.3035   -0.9284 C   0  0  0  0  0  0  0  0  0  0  0  0
   -1.8278    0.2947   -0.6847 N   0  0  0  0  0  0  0  0  0  0  0  0
   -2.3344   -0.3040    0.4018 C   0  0  0  0  0  0  0  0  0  0  0  0
    1.8183   -0.2829   -0.2554 C   0  0  0  0  0  0  0  0  0  0  0  0
    2.4361    0.7582   -0.9227 C   0  0  0  0  0  0  0  0  0  0  0  0
    3.8037    0.8101   -1.0770 C   0  0  0  0  0  0  0  0  0  0  0  0
    4.6362   -0.1752   -0.5743 C   0  0  0  0  0  0  0  0  0  0  0  0
    4.0173   -1.2034    0.0832 C   0  0  0  0  0  0  0  0  0  0  0  0
    2.6406   -1.2630    0.2425 C   0  0  0  0  0  0  0  0  0  0  0  0
    6.0396   -0.0841   -0.7406 N   0  0  0  0  0  0  0  0  0  0  0  0
    6.6762    0.8052   -1.7066 C   0  0  0  0  0  0  0  0  0  0  0  0
    8.0461    1.1438   -1.1186 C   0  0  0  0  0  0  0  0  0  0  0  0
    7.9335    1.3772    0.3143 N   0  0  0  0  0  0  0  0  0  0  0  0
    7.6548    0.1344    1.0279 C   0  0  0  0  0  0  0  0  0  0  0  0
    6.9925   -0.8510    0.0613 C   0  0  0  0  0  0  0  0  0  0  0  0
   -5.9585   -0.7034    0.0636 C   0  0  0  0  0  0  0  0  0  0  0  0
   -5.8943   -2.0720    0.2058 C   0  0  0  0  0  0  0  0  0  0  0  0
   -7.0089   -2.8794   -0.0734 C   0  0  0  0  0  0  0  0  0  0  0  0
   -8.1766   -2.2834   -0.4944 C   0  0  0  0  0  0  0  0  0  0  0  0
   -8.2174   -0.9169   -0.6300 C   0  0  0  0  0  0  0  0  0  0  0  0
   -7.1446   -0.0969   -0.3661 C   0  0  0  0  0  0  0  0  0  0  0  0
   -7.2362    1.2432   -0.5307 N   0  0  0  0  0  0  0  0  0  0  0  0
   -5.2866    3.9483   -0.5106 H   0  0  0  0  0  0  0  0  0  0  0  0
   -6.8305    3.8240   -1.3958 H   0  0  0  0  0  0  0  0  0  0  0  0
   -6.7900    3.9786    0.4427 H   0  0  0  0  0  0  0  0  0  0  0  0
   -4.1803    2.0821    0.3286 H   0  0  0  0  0  0  0  0  0  0  0  0
   -4.3254   -1.4653    2.6861 H   0  0  0  0  0  0  0  0  0  0  0  0
    0.5489   -1.3997    1.7341 H   0  0  0  0  0  0  0  0  0  0  0  0
   -0.1302    0.8050   -1.8245 H   0  0  0  0  0  0  0  0  0  0  0  0
    1.8084    1.5419   -1.3293 H   0  0  0  0  0  0  0  0  0  0  0  0
    4.1880    1.6625   -1.6139 H   0  0  0  0  0  0  0  0  0  0  0  0
    4.5734   -2.0016    0.4990 H   0  0  0  0  0  0  0  0  0  0  0  0
    2.1971   -2.0965    0.7655 H   0  0  0  0  0  0  0  0  0  0  0  0
    6.8342    0.2452   -2.6523 H   0  0  0  0  0  0  0  0  0  0  0  0
    6.1749    1.7569   -1.8513 H   0  0  0  0  0  0  0  0  0  0  0  0
    8.7610    0.3575   -1.3626 H   0  0  0  0  0  0  0  0  0  0  0  0
    8.4086    2.0902   -1.5617 H   0  0  0  0  0  0  0  0  0  0  0  0
    8.9020    1.6633    0.6288 H   0  0  0  0  0  0  0  0  0  0  0  0
    6.9935    0.3595    1.8895 H   0  0  0  0  0  0  0  0  0  0  0  0
    8.5878   -0.3510    1.3754 H   0  0  0  0  0  0  0  0  0  0  0  0
    6.5474   -1.6220    0.6792 H   0  0  0  0  0  0  0  0  0  0  0  0
    7.7822   -1.2706   -0.5962 H   0  0  0  0  0  0  0  0  0  0  0  0
   -4.9733   -2.5591    0.5199 H   0  0  0  0  0  0  0  0  0  0  0  0
   -6.9314   -3.9527    0.0476 H   0  0  0  0  0  0  0  0  0  0  0  0
   -9.0560   -2.8979   -0.7128 H   0  0  0  0  0  0  0  0  0  0  0  0
   -9.1604   -0.4882   -0.9649 H   0  0  0  0  0  0  0  0  0  0  0  0
  1  2  1  0
  2  3  2  0
  3  4  1  0
  4  5  1  0
  5  6  1  0
  6  7  2  0
  7  8  1  0
  8  9  1  0
  9 10  2  0
 10 11  1  0
 11 12  2  0
 12 13  1  0
 10 14  1  0
 14 15  2  0
 15 16  1  0
 16 17  2  0
 17 18  1  0
 18 19  2  0
 17 20  1  0
 20 21  1  0
 21 22  1  0
 22 23  1  0
 23 24  1  0
 24 25  1  0
  4 26  2  0
 26 27  1  0
 27 28  2  0
 28 29  1  0
 29 30  2  0
 30 31  1  0
 31 32  2  0
 32  2  1  0
 13  5  2  0
 19 14  1  0
 25 20  1  0
 31 26  1  0
 13  8  1  0
  1 33  1  0
  1 34  1  0
  1 35  1  0
  3 36  1  0
  6 37  1  0
  9 38  1  0
 11 39  1  0
 15 40  1  0
 16 41  1  0
 18 42  1  0
 19 43  1  0
 21 44  1  0
 21 45  1  0
 22 46  1  0
 22 47  1  0
 23 48  1  0
 24 49  1  0
 24 50  1  0
 25 51  1  0
 25 52  1  0
 27 53  1  0
 28 54  1  0
 29 55  1  0
 30 56  1  0
M  END
$$$$
[H]c1c([H])c(Cl)c(S(=O)(=O)N([H])[C@]([H])(C(=O)N([H])[C@]([H])(C(=O)N2C([H])([H])C([H])([H])C([H])([H])C2([H])[H])C(C([H])([H])[H])(C([H])([H])[H])C([H])([H])[H])C([H])(C([H])([H])[H])C([H])([H])[H])c([H])c1Cl
     RDKit          3D

 62 63  0  0  0  0  0  0  0  0999 V2000
    2.1289   -1.8635    2.4717 C   0  0  0  0  0  0  0  0  0  0  0  0
    2.2171   -2.2577    1.0384 C   0  0  0  0  0  0  0  0  0  0  0  0
    3.4746   -3.1099    0.7873 C   0  0  0  0  0  0  0  0  0  0  0  0
    2.1626   -1.1031    0.0679 C   0  0  2  0  0  0  0  0  0  0  0  0
    3.2044   -0.1460    0.2059 N   0  0  0  0  0  0  0  0  0  0  0  0
    4.3046    0.0431   -1.0429 S   0  0  0  0  0  0  0  0  0  0  0  0
    5.7477   -0.1836   -0.5960 O   0  0  0  0  0  0  0  0  0  0  0  0
    3.9653   -0.9397   -2.1600 O   0  0  0  0  0  0  0  0  0  0  0  0
    4.3096    1.6116   -1.8207 C   0  0  0  0  0  0  0  0  0  0  0  0
    3.5404    2.6733   -1.4334 C   0  0  0  0  0  0  0  0  0  0  0  0
    3.6510    3.8698   -2.1135 C   0  0  0  0  0  0  0  0  0  0  0  0
    2.6664    5.2302   -1.6180 Cl  0  0  0  0  0  0  0  0  0  0  0  0
    4.5125    4.0466   -3.1799 C   0  0  0  0  0  0  0  0  0  0  0  0
    5.2793    2.9781   -3.5607 C   0  0  0  0  0  0  0  0  0  0  0  0
    5.1744    1.7722   -2.8829 C   0  0  0  0  0  0  0  0  0  0  0  0
    6.2028    0.4434   -3.4422 Cl  0  0  0  0  0  0  0  0  0  0  0  0
    0.8056   -0.5390   -0.0314 C   0  0  0  0  0  0  0  0  0  0  0  0
    0.7015    0.6695   -0.4287 O   0  0  0  0  0  0  0  0  0  0  0  0
   -0.4125   -1.1827    0.2633 N   0  0  0  0  0  0  0  0  0  0  0  0
   -1.7036   -0.4756    0.0916 C   0  0  2  0  0  0  0  0  0  0  0  0
   -2.2073   -0.0179    1.3991 C   0  0  0  0  0  0  0  0  0  0  0  0
   -1.7900   -0.6838    2.4120 O   0  0  0  0  0  0  0  0  0  0  0  0
   -3.0787    1.0581    1.6502 N   0  0  0  0  0  0  0  0  0  0  0  0
   -3.7111    2.0431    0.8095 C   0  0  0  0  0  0  0  0  0  0  0  0
   -5.1777    1.8952    1.2463 C   0  0  0  0  0  0  0  0  0  0  0  0
   -5.0055    1.8559    2.7384 C   0  0  0  0  0  0  0  0  0  0  0  0
   -3.5601    1.4173    2.9940 C   0  0  0  0  0  0  0  0  0  0  0  0
   -2.5962   -1.4370   -0.6148 C   0  0  0  0  0  0  0  0  0  0  0  0
   -2.8167   -2.7242    0.1859 C   0  0  0  0  0  0  0  0  0  0  0  0
   -3.9065   -0.9452   -1.0883 C   0  0  0  0  0  0  0  0  0  0  0  0
   -1.8119   -1.8299   -1.8990 C   0  0  0  0  0  0  0  0  0  0  0  0
    1.4231   -2.5437    2.9879 H   0  0  0  0  0  0  0  0  0  0  0  0
    1.6904   -0.8434    2.5421 H   0  0  0  0  0  0  0  0  0  0  0  0
    3.0995   -1.9146    3.0100 H   0  0  0  0  0  0  0  0  0  0  0  0
    1.3910   -2.9476    0.8002 H   0  0  0  0  0  0  0  0  0  0  0  0
    3.2739   -4.1346    1.1583 H   0  0  0  0  0  0  0  0  0  0  0  0
    3.5989   -3.1865   -0.3130 H   0  0  0  0  0  0  0  0  0  0  0  0
    4.3503   -2.7294    1.3280 H   0  0  0  0  0  0  0  0  0  0  0  0
    2.3300   -1.5872   -0.9580 H   0  0  0  0  0  0  0  0  0  0  0  0
    3.1585    0.5256    0.9628 H   0  0  0  0  0  0  0  0  0  0  0  0
    2.8502    2.5590   -0.5833 H   0  0  0  0  0  0  0  0  0  0  0  0
    4.5707    5.0211   -3.6987 H   0  0  0  0  0  0  0  0  0  0  0  0
    5.9819    3.0487   -4.3976 H   0  0  0  0  0  0  0  0  0  0  0  0
   -0.4201   -2.1584    0.6076 H   0  0  0  0  0  0  0  0  0  0  0  0
   -1.4896    0.4181   -0.5040 H   0  0  0  0  0  0  0  0  0  0  0  0
   -3.5609    1.9570   -0.2557 H   0  0  0  0  0  0  0  0  0  0  0  0
   -3.3528    3.0776    1.0939 H   0  0  0  0  0  0  0  0  0  0  0  0
   -5.7766    2.7522    0.8827 H   0  0  0  0  0  0  0  0  0  0  0  0
   -5.5548    0.9493    0.8174 H   0  0  0  0  0  0  0  0  0  0  0  0
   -5.1736    2.8949    3.1033 H   0  0  0  0  0  0  0  0  0  0  0  0
   -5.7139    1.1593    3.2045 H   0  0  0  0  0  0  0  0  0  0  0  0
   -2.9943    2.3440    3.3096 H   0  0  0  0  0  0  0  0  0  0  0  0
   -3.4812    0.6109    3.7175 H   0  0  0  0  0  0  0  0  0  0  0  0
   -2.4068   -2.6836    1.1915 H   0  0  0  0  0  0  0  0  0  0  0  0
   -3.9229   -2.8994    0.2983 H   0  0  0  0  0  0  0  0  0  0  0  0
   -2.4550   -3.5917   -0.4078 H   0  0  0  0  0  0  0  0  0  0  0  0
   -3.8465    0.0253   -1.6398 H   0  0  0  0  0  0  0  0  0  0  0  0
   -4.2726   -1.6658   -1.8802 H   0  0  0  0  0  0  0  0  0  0  0  0
   -4.6987   -0.9694   -0.3117 H   0  0  0  0  0  0  0  0  0  0  0  0
   -2.5116   -2.3139   -2.6155 H   0  0  0  0  0  0  0  0  0  0  0  0
   -0.9524   -2.4679   -1.6162 H   0  0  0  0  0  0  0  0  0  0  0  0
   -1.4052   -0.8748   -2.2830 H   0  0  0  0  0  0  0  0  0  0  0  0
  1  2  1  0
  2  3  1  0
  2  4  1  0
  4  5  1  0
  5  6  1  0
  6  7  2  0
  6  8  2  0
  6  9  1  0
  9 10  2  0
 10 11  1  0
 11 12  1  0
 11 13  2  0
 13 14  1  0
 14 15  2  0
 15 16  1  0
  4 17  1  0
 17 18  2  0
 17 19  1  0
 19 20  1  0
 20 21  1  0
 21 22  2  0
 21 23  1  0
 23 24  1  0
 24 25  1  0
 25 26  1  0
 26 27  1  0
 20 28  1  0
 28 29  1  0
 28 30  1  0
 28 31  1  0
 15  9  1  0
 27 23  1  0
  1 32  1  0
  1 33  1  0
  1 34  1  0
  2 35  1  0
  3 36  1  0
  3 37  1  0
  3 38  1  0
  4 39  1  6
  5 40  1  0
 10 41  1  0
 13 42  1  0
 14 43  1  0
 19 44  1  0
 20 45  1  6
 24 46  1  0
 24 47  1  0
 25 48  1  0
 25 49  1  0
 26 50  1  0
 26 51  1  0
 27 52  1  0
 27 53  1  0
 29 54  1  0
 29 55  1  0
 29 56  1  0
 30 57  1  0
 30 58  1  0
 30 59  1  0
 31 60  1  0
 31 61  1  0
 31 62  1  0
M  END
$$$$
[H]c1c([H])c([H])c(C([H])([H])[C@@]([H])(C(=O)N([H])[C@]([H])(C(=O)N([H])[H])C([H])([H])c2c([H])n([H])c3c([H])c([H])c([H])c([H])c23)N([H])C(=O)C([H])(N([H])C(=O)C2([H])C([H])([H])N(C(=O)C3([H])N([H])C([H])([H])C([H])([H])C3([H])[H])C([H])([H])C([H])([H])C2([H])[H])[C@]([H])(C(=O)N([H])[C@]([H])(c2c([H])c([H])c([H])c([H])c2[H])[C@@]([H])(C([H])([H])[H])S(=O)(=O)C([H])([H])[H])C([H])([H])[H])c([H])c1[H]
     RDKit          2D

121126  0  0  0  0  0  0  0  0999 V2000
    6.7204    9.1985    0.0000 C   0  0  0  0  0  0  0  0  0  0  0  0
    8.1470    8.7350    0.0000 C   0  0  0  0  0  0  0  0  0  0  0  0
    7.6835    7.3084    0.0000 C   0  0  0  0  0  0  0  0  0  0  0  0
    9.1101    6.8449    0.0000 N   0  0  0  0  0  0  0  0  0  0  0  0
   10.2248    7.8485    0.0000 C   0  0  0  0  0  0  0  0  0  0  0  0
   10.0941    9.3428    0.0000 O   0  0  0  0  0  0  0  0  0  0  0  0
   11.6514    7.3850    0.0000 C   0  0  0  0  0  0  0  0  0  0  0  0
   11.8602    8.8704    0.0000 C   0  0  0  0  0  0  0  0  0  0  0  0
   13.2509    9.4323    0.0000 C   0  0  0  0  0  0  0  0  0  0  0  0
   14.4329    8.5088    0.0000 C   0  0  0  0  0  0  0  0  0  0  0  0
   14.2242    7.0234    0.0000 N   0  0  0  0  0  0  0  0  0  0  0  0
   12.8334    6.4615    0.0000 C   0  0  0  0  0  0  0  0  0  0  0  0
   15.4062    6.0999    0.0000 C   0  0  0  0  0  0  0  0  0  0  0  0
   16.7970    6.6619    0.0000 O   0  0  0  0  0  0  0  0  0  0  0  0
   15.1974    4.6145    0.0000 C   0  0  0  0  0  0  0  0  0  0  0  0
   14.6844    3.2050    0.0000 C   0  0  0  0  0  0  0  0  0  0  0  0
   15.8664    2.2815    0.0000 C   0  0  0  0  0  0  0  0  0  0  0  0
   17.1100    3.1203    0.0000 C   0  0  0  0  0  0  0  0  0  0  0  0
   16.6965    4.5622    0.0000 N   0  0  0  0  0  0  0  0  0  0  0  0
    7.2200    5.8818    0.0000 C   0  0  0  0  0  0  0  0  0  0  0  0
    8.0803    4.6530    0.0000 O   0  0  0  0  0  0  0  0  0  0  0  0
    5.7528    5.5699    0.0000 N   0  0  0  0  0  0  0  0  0  0  0  0
    5.2892    4.1433    0.0000 C   0  0  0  0  0  0  0  0  0  0  0  0
    6.7158    3.6798    0.0000 C   0  0  0  0  0  0  0  0  0  0  0  0
    8.1424    3.2163    0.0000 C   0  0  0  0  0  0  0  0  0  0  0  0
    8.4543    1.7491    0.0000 C   0  0  0  0  0  0  0  0  0  0  0  0
    9.8809    1.2855    0.0000 C   0  0  0  0  0  0  0  0  0  0  0  0
   10.9956    2.2892    0.0000 C   0  0  0  0  0  0  0  0  0  0  0  0
   10.6837    3.7565    0.0000 C   0  0  0  0  0  0  0  0  0  0  0  0
    9.2571    4.2200    0.0000 C   0  0  0  0  0  0  0  0  0  0  0  0
    3.8627    4.6069    0.0000 C   0  0  0  0  0  0  0  0  0  0  0  0
    3.7674    5.6962    0.0000 O   0  0  0  0  0  0  0  0  0  0  0  0
    2.7479    3.6032    0.0000 N   0  0  0  0  0  0  0  0  0  0  0  0
    1.3213    4.0667    0.0000 C   0  0  0  0  0  0  0  0  0  0  0  0
    0.8578    2.6401    0.0000 C   0  0  0  0  0  0  0  0  0  0  0  0
    0.3943    1.2135    0.0000 C   0  0  0  0  0  0  0  0  0  0  0  0
    1.2760    0.0000    0.0000 C   0  0  0  0  0  0  0  0  0  0  0  0
    0.3943   -1.2135    0.0000 N   0  0  0  0  0  0  0  0  0  0  0  0
   -1.0323   -0.7500    0.0000 C   0  0  0  0  0  0  0  0  0  0  0  0
   -2.3313   -1.5000    0.0000 C   0  0  0  0  0  0  0  0  0  0  0  0
   -3.6304   -0.7500    0.0000 C   0  0  0  0  0  0  0  0  0  0  0  0
   -3.6304    0.7500    0.0000 C   0  0  0  0  0  0  0  0  0  0  0  0
   -2.3313    1.5000    0.0000 C   0  0  0  0  0  0  0  0  0  0  0  0
   -1.0323    0.7500    0.0000 C   0  0  0  0  0  0  0  0  0  0  0  0
    1.7849    5.4933    0.0000 C   0  0  0  0  0  0  0  0  0  0  0  0
    0.7812    6.6080    0.0000 N   0  0  0  0  0  0  0  0  0  0  0  0
    2.8188    5.8493    0.0000 O   0  0  0  0  0  0  0  0  0  0  0  0
    9.5736    8.2714    0.0000 C   0  0  0  0  0  0  0  0  0  0  0  0
    9.7394    7.4917    0.0000 O   0  0  0  0  0  0  0  0  0  0  0  0
   10.6883    9.2751    0.0000 N   0  0  0  0  0  0  0  0  0  0  0  0
   12.1149    8.8116    0.0000 C   0  0  0  0  0  0  0  0  0  0  0  0
   12.5784   10.2382    0.0000 C   0  0  0  0  0  0  0  0  0  0  0  0
   13.0420   11.6648    0.0000 C   0  0  0  0  0  0  0  0  0  0  0  0
   14.0050    9.7747    0.0000 S   0  0  0  0  0  0  0  0  0  0  0  0
   15.4316    9.3111    0.0000 C   0  0  0  0  0  0  0  0  0  0  0  0
   14.8000   11.0467    0.0000 O   0  0  0  0  0  0  0  0  0  0  0  0
   13.7189    8.3022    0.0000 O   0  0  0  0  0  0  0  0  0  0  0  0
   11.6514    7.3850    0.0000 C   0  0  0  0  0  0  0  0  0  0  0  0
   10.1842    7.0732    0.0000 C   0  0  0  0  0  0  0  0  0  0  0  0
    9.7206    5.6466    0.0000 C   0  0  0  0  0  0  0  0  0  0  0  0
   10.7243    4.5319    0.0000 C   0  0  0  0  0  0  0  0  0  0  0  0
   12.1916    4.8437    0.0000 C   0  0  0  0  0  0  0  0  0  0  0  0
   12.6551    6.2703    0.0000 C   0  0  0  0  0  0  0  0  0  0  0  0
    5.2939    9.6620    0.0000 H   0  0  0  0  0  0  0  0  0  0  0  0
    7.1840   10.6251    0.0000 H   0  0  0  0  0  0  0  0  0  0  0  0
    6.0865    7.8390    0.0000 H   0  0  0  0  0  0  0  0  0  0  0  0
    8.6106   10.1615    0.0000 H   0  0  0  0  0  0  0  0  0  0  0  0
    6.2111    7.5946    0.0000 H   0  0  0  0  0  0  0  0  0  0  0  0
    8.8753    5.3633    0.0000 H   0  0  0  0  0  0  0  0  0  0  0  0
   10.9472    6.0606    0.0000 H   0  0  0  0  0  0  0  0  0  0  0  0
   11.3718   10.2887    0.0000 H   0  0  0  0  0  0  0  0  0  0  0  0
   10.4419    9.3589    0.0000 H   0  0  0  0  0  0  0  0  0  0  0  0
   14.5754   10.1365    0.0000 H   0  0  0  0  0  0  0  0  0  0  0  0
   12.7875   10.8589    0.0000 H   0  0  0  0  0  0  0  0  0  0  0  0
   15.7924    7.8749    0.0000 H   0  0  0  0  0  0  0  0  0  0  0  0
   15.4367    9.6235    0.0000 H   0  0  0  0  0  0  0  0  0  0  0  0
   11.6047    5.6012    0.0000 H   0  0  0  0  0  0  0  0  0  0  0  0
   13.4673    5.1021    0.0000 H   0  0  0  0  0  0  0  0  0  0  0  0
   13.7086    4.7973    0.0000 H   0  0  0  0  0  0  0  0  0  0  0  0
   13.2661    3.6933    0.0000 H   0  0  0  0  0  0  0  0  0  0  0  0
   13.8895    1.9329    0.0000 H   0  0  0  0  0  0  0  0  0  0  0  0
   14.8244    1.2025    0.0000 H   0  0  0  0  0  0  0  0  0  0  0  0
   16.8306    1.1324    0.0000 H   0  0  0  0  0  0  0  0  0  0  0  0
   17.8142    1.7959    0.0000 H   0  0  0  0  0  0  0  0  0  0  0  0
   18.5008    3.6822    0.0000 H   0  0  0  0  0  0  0  0  0  0  0  0
   17.6200    5.7442    0.0000 H   0  0  0  0  0  0  0  0  0  0  0  0
    4.7491    6.6846    0.0000 H   0  0  0  0  0  0  0  0  0  0  0  0
    4.8257    2.7168    0.0000 H   0  0  0  0  0  0  0  0  0  0  0  0
    7.5108    4.9518    0.0000 H   0  0  0  0  0  0  0  0  0  0  0  0
    6.2523    2.2532    0.0000 H   0  0  0  0  0  0  0  0  0  0  0  0
    7.3396    0.7454    0.0000 H   0  0  0  0  0  0  0  0  0  0  0  0
   10.1927   -0.1817    0.0000 H   0  0  0  0  0  0  0  0  0  0  0  0
   12.4222    1.8257    0.0000 H   0  0  0  0  0  0  0  0  0  0  0  0
   12.0841    4.2939    0.0000 H   0  0  0  0  0  0  0  0  0  0  0  0
    8.2928    5.3689    0.0000 H   0  0  0  0  0  0  0  0  0  0  0  0
    3.2363    2.1849    0.0000 H   0  0  0  0  0  0  0  0  0  0  0  0
   -0.1052    4.5302    0.0000 H   0  0  0  0  0  0  0  0  0  0  0  0
    2.2173    2.0061    0.0000 H   0  0  0  0  0  0  0  0  0  0  0  0
   -0.5688    3.1036    0.0000 H   0  0  0  0  0  0  0  0  0  0  0  0
    2.7760    0.0000    0.0000 H   0  0  0  0  0  0  0  0  0  0  0  0
    0.8578   -2.6401    0.0000 H   0  0  0  0  0  0  0  0  0  0  0  0
   -2.3313   -3.0000    0.0000 H   0  0  0  0  0  0  0  0  0  0  0  0
   -4.9294   -1.5000    0.0000 H   0  0  0  0  0  0  0  0  0  0  0  0
   -4.9294    1.5000    0.0000 H   0  0  0  0  0  0  0  0  0  0  0  0
   -2.3313    3.0000    0.0000 H   0  0  0  0  0  0  0  0  0  0  0  0
    1.2447    8.0346    0.0000 H   0  0  0  0  0  0  0  0  0  0  0  0
   -0.6860    6.2961    0.0000 H   0  0  0  0  0  0  0  0  0  0  0  0
   10.1999   10.6934    0.0000 H   0  0  0  0  0  0  0  0  0  0  0  0
   13.4744    8.1776    0.0000 H   0  0  0  0  0  0  0  0  0  0  0  0
   11.3064   11.0331    0.0000 H   0  0  0  0  0  0  0  0  0  0  0  0
   13.5055   13.0914    0.0000 H   0  0  0  0  0  0  0  0  0  0  0  0
   11.6154   12.1283    0.0000 H   0  0  0  0  0  0  0  0  0  0  0  0
   14.5383   11.5602    0.0000 H   0  0  0  0  0  0  0  0  0  0  0  0
   16.8582    8.8476    0.0000 H   0  0  0  0  0  0  0  0  0  0  0  0
   15.8951   10.7377    0.0000 H   0  0  0  0  0  0  0  0  0  0  0  0
   15.1454    7.8387    0.0000 H   0  0  0  0  0  0  0  0  0  0  0  0
    8.9406    7.9119    0.0000 H   0  0  0  0  0  0  0  0  0  0  0  0
    8.2534    5.3347    0.0000 H   0  0  0  0  0  0  0  0  0  0  0  0
   10.6198    3.0355    0.0000 H   0  0  0  0  0  0  0  0  0  0  0  0
   13.0519    3.6150    0.0000 H   0  0  0  0  0  0  0  0  0  0  0  0
   14.1542    6.2179    0.0000 H   0  0  0  0  0  0  0  0  0  0  0  0
  1  2  1  0
  2  3  1  0
  3  4  1  0
  4  5  1  0
  5  6  2  0
  5  7  1  0
  7  8  1  0
  8  9  1  0
  9 10  1  0
 10 11  1  0
 11 12  1  0
 11 13  1  0
 13 14  2  0
 13 15  1  0
 15 16  1  0
 16 17  1  0
 17 18  1  0
 18 19  1  0
  3 20  1  0
 20 21  2  0
 20 22  1  0
 22 23  1  0
 23 24  1  0
 24 25  1  0
 25 26  2  0
 26 27  1  0
 27 28  2  0
 28 29  1  0
 29 30  2  0
 23 31  1  0
 31 32  2  0
 31 33  1  0
 33 34  1  0
 34 35  1  0
 35 36  1  0
 36 37  2  0
 37 38  1  0
 38 39  1  0
 39 40  2  0
 40 41  1  0
 41 42  2  0
 42 43  1  0
 43 44  2  0
 34 45  1  0
 45 46  1  0
 45 47  2  0
  2 48  1  0
 48 49  2  0
 48 50  1  0
 50 51  1  0
 51 52  1  0
 52 53  1  0
 52 54  1  0
 54 55  1  0
 54 56  2  0
 54 57  2  0
 51 58  1  0
 58 59  2  0
 59 60  1  0
 60 61  2  0
 61 62  1  0
 62 63  2  0
 12  7  1  0
 19 15  1  0
 30 25  1  0
 44 36  1  0
 63 58  1  0
 44 39  1  0
  1 64  1  0
  1 65  1  0
  1 66  1  0
  2 67  1  6
  3 68  1  0
  4 69  1  0
  7 70  1  0
  8 71  1  0
  8 72  1  0
  9 73  1  0
  9 74  1  0
 10 75  1  0
 10 76  1  0
 12 77  1  0
 12 78  1  0
 15 79  1  0
 16 80  1  0
 16 81  1  0
 17 82  1  0
 17 83  1  0
 18 84  1  0
 18 85  1  0
 19 86  1  0
 22 87  1  0
 23 88  1  6
 24 89  1  0
 24 90  1  0
 26 91  1  0
 27 92  1  0
 28 93  1  0
 29 94  1  0
 30 95  1  0
 33 96  1  0
 34 97  1  6
 35 98  1  0
 35 99  1  0
 37100  1  0
 38101  1  0
 40102  1  0
 41103  1  0
 42104  1  0
 43105  1  0
 46106  1  0
 46107  1  0
 50108  1  0
 51109  1  6
 52110  1  6
 53111  1  0
 53112  1  0
 53113  1  0
 55114  1  0
 55115  1  0
 55116  1  0
 59117  1  0
 60118  1  0
 61119  1  0
 62120  1  0
 63121  1  0
M  END
$$$$
[H]Oc1c([H])c([H])c(C([H])([H])[C@@]2([H])C(=O)N([H])[C@]([H])(C(=O)N([H])[C@]([H])(C(=O)N([H])C([H])([H])[H])C([H])([H])c3c([H])c([H])c([H])c([H])c3[H])C([H])([H])SSC([H])([H])[C@@]([H])(N([H])C(=O)[C@@]([H])(N([H])[H])C([H])([H])C(=O)N([H])[H])C(=O)N2[H])c([H])c1[H]
     RDKit          3D

 82 84  0  0  0  0  0  0  0  0999 V2000
   -6.9551    3.7259   -2.2229 C   0  0  0  0  0  0  0  0  0  0  0  0
   -6.6164    2.4241   -1.7307 N   0  0  0  0  0  0  0  0  0  0  0  0
   -5.4255    1.7329   -2.1096 C   0  0  0  0  0  0  0  0  0  0  0  0
   -4.6643    2.3110   -2.9061 O   0  0  0  0  0  0  0  0  0  0  0  0
   -5.0789    0.3856   -1.5968 C   0  0  2  0  0  0  0  0  0  0  0  0
   -5.2073    0.3985   -0.1001 C   0  0  0  0  0  0  0  0  0  0  0  0
   -4.9231   -0.8833    0.5557 C   0  0  0  0  0  0  0  0  0  0  0  0
   -3.6669   -1.1857    1.0060 C   0  0  0  0  0  0  0  0  0  0  0  0
   -3.3893   -2.4090    1.6275 C   0  0  0  0  0  0  0  0  0  0  0  0
   -4.3865   -3.3425    1.8000 C   0  0  0  0  0  0  0  0  0  0  0  0
   -5.6512   -3.0423    1.3488 C   0  0  0  0  0  0  0  0  0  0  0  0
   -5.9020   -1.8348    0.7409 C   0  0  0  0  0  0  0  0  0  0  0  0
   -3.8053    0.0093   -2.1100 N   0  0  0  0  0  0  0  0  0  0  0  0
   -2.5710    0.6580   -1.9337 C   0  0  0  0  0  0  0  0  0  0  0  0
   -2.5180    1.6958   -1.2422 O   0  0  0  0  0  0  0  0  0  0  0  0
   -1.3235    0.1585   -2.5434 C   0  0  2  0  0  0  0  0  0  0  0  0
   -1.1278   -1.3083   -2.2237 C   0  0  0  0  0  0  0  0  0  0  0  0
    0.3124   -2.0013   -3.0252 S   0  0  0  0  0  0  0  0  0  0  0  0
    1.6876   -2.7587   -1.5997 S   0  0  0  0  0  0  0  0  0  0  0  0
    2.9330   -1.4390   -1.3145 C   0  0  0  0  0  0  0  0  0  0  0  0
    3.2943   -1.3055    0.1247 C   0  0  1  0  0  0  0  0  0  0  0  0
    4.6995   -1.7117    0.2647 N   0  0  0  0  0  0  0  0  0  0  0  0
    5.1204   -2.7728    1.0975 C   0  0  0  0  0  0  0  0  0  0  0  0
    4.1801   -3.3624    1.7294 O   0  0  0  0  0  0  0  0  0  0  0  0
    6.4952   -3.2304    1.2886 C   0  0  1  0  0  0  0  0  0  0  0  0
    6.5040   -4.1788    2.4081 N   0  0  0  0  0  0  0  0  0  0  0  0
    7.0839   -3.9661    0.1090 C   0  0  0  0  0  0  0  0  0  0  0  0
    7.1483   -3.1983   -1.1343 C   0  0  0  0  0  0  0  0  0  0  0  0
    8.2326   -2.3209   -1.3778 N   0  0  0  0  0  0  0  0  0  0  0  0
    6.2513   -3.2857   -2.0288 O   0  0  0  0  0  0  0  0  0  0  0  0
    3.1274    0.0578    0.6882 C   0  0  0  0  0  0  0  0  0  0  0  0
    3.9140    0.3195    1.6736 O   0  0  0  0  0  0  0  0  0  0  0  0
    2.2225    1.0417    0.2536 N   0  0  0  0  0  0  0  0  0  0  0  0
    0.7715    0.8459    0.0715 C   0  0  1  0  0  0  0  0  0  0  0  0
    0.0452    1.2819    1.3055 C   0  0  0  0  0  0  0  0  0  0  0  0
    0.2022    2.6659    1.7316 C   0  0  0  0  0  0  0  0  0  0  0  0
    1.2927    3.0256    2.4918 C   0  0  0  0  0  0  0  0  0  0  0  0
    1.4941    4.2972    2.9664 C   0  0  0  0  0  0  0  0  0  0  0  0
    0.5520    5.2564    2.6616 C   0  0  0  0  0  0  0  0  0  0  0  0
    0.6826    6.5836    3.1086 O   0  0  0  0  0  0  0  0  0  0  0  0
   -0.5446    4.9087    1.9009 C   0  0  0  0  0  0  0  0  0  0  0  0
   -0.7245    3.6256    1.4363 C   0  0  0  0  0  0  0  0  0  0  0  0
    0.3512    1.5371   -1.1479 C   0  0  0  0  0  0  0  0  0  0  0  0
    0.4677    2.8024   -1.1493 O   0  0  0  0  0  0  0  0  0  0  0  0
   -0.1677    0.9720   -2.3383 N   0  0  0  0  0  0  0  0  0  0  0  0
   -8.0187    3.7507   -2.5452 H   0  0  0  0  0  0  0  0  0  0  0  0
   -6.3606    3.9541   -3.1348 H   0  0  0  0  0  0  0  0  0  0  0  0
   -6.8227    4.5063   -1.4388 H   0  0  0  0  0  0  0  0  0  0  0  0
   -7.3065    1.9858   -1.0570 H   0  0  0  0  0  0  0  0  0  0  0  0
   -5.8899   -0.3176   -1.9425 H   0  0  0  0  0  0  0  0  0  0  0  0
   -6.2819    0.6767    0.1123 H   0  0  0  0  0  0  0  0  0  0  0  0
   -4.6299    1.2442    0.3339 H   0  0  0  0  0  0  0  0  0  0  0  0
   -2.8252   -0.5233    0.9234 H   0  0  0  0  0  0  0  0  0  0  0  0
   -2.3827   -2.6289    1.9779 H   0  0  0  0  0  0  0  0  0  0  0  0
   -4.1731   -4.3082    2.2891 H   0  0  0  0  0  0  0  0  0  0  0  0
   -6.4261   -3.7675    1.4830 H   0  0  0  0  0  0  0  0  0  0  0  0
   -6.9162   -1.6596    0.4087 H   0  0  0  0  0  0  0  0  0  0  0  0
   -3.7824   -0.8763   -2.7039 H   0  0  0  0  0  0  0  0  0  0  0  0
   -1.5075    0.1456   -3.6773 H   0  0  0  0  0  0  0  0  0  0  0  0
   -1.0799   -1.4493   -1.1382 H   0  0  0  0  0  0  0  0  0  0  0  0
   -2.0344   -1.8997   -2.5532 H   0  0  0  0  0  0  0  0  0  0  0  0
    3.8104   -1.7758   -1.9457 H   0  0  0  0  0  0  0  0  0  0  0  0
    2.6369   -0.4859   -1.7821 H   0  0  0  0  0  0  0  0  0  0  0  0
    2.6764   -1.9836    0.7815 H   0  0  0  0  0  0  0  0  0  0  0  0
    5.4260   -1.1909   -0.2686 H   0  0  0  0  0  0  0  0  0  0  0  0
    7.1880   -2.3794    1.4991 H   0  0  0  0  0  0  0  0  0  0  0  0
    6.6050   -3.5667    3.2737 H   0  0  0  0  0  0  0  0  0  0  0  0
    7.3260   -4.8093    2.2900 H   0  0  0  0  0  0  0  0  0  0  0  0
    6.3668   -4.8203   -0.0838 H   0  0  0  0  0  0  0  0  0  0  0  0
    8.0537   -4.4212    0.4003 H   0  0  0  0  0  0  0  0  0  0  0  0
    8.0198   -1.3184   -1.5544 H   0  0  0  0  0  0  0  0  0  0  0  0
    9.2295   -2.6157   -1.3915 H   0  0  0  0  0  0  0  0  0  0  0  0
    2.5628    1.9985    0.0376 H   0  0  0  0  0  0  0  0  0  0  0  0
    0.5860   -0.2643    0.0090 H   0  0  0  0  0  0  0  0  0  0  0  0
   -1.0360    1.0078    1.1371 H   0  0  0  0  0  0  0  0  0  0  0  0
    0.3479    0.5551    2.1289 H   0  0  0  0  0  0  0  0  0  0  0  0
    2.0658    2.2829    2.7541 H   0  0  0  0  0  0  0  0  0  0  0  0
    2.3615    4.5582    3.5644 H   0  0  0  0  0  0  0  0  0  0  0  0
    0.3005    6.8895    3.9909 H   0  0  0  0  0  0  0  0  0  0  0  0
   -1.2820    5.6962    1.6726 H   0  0  0  0  0  0  0  0  0  0  0  0
   -1.6100    3.4494    0.8527 H   0  0  0  0  0  0  0  0  0  0  0  0
    0.3861    1.1775   -3.2585 H   0  0  0  0  0  0  0  0  0  0  0  0
  1  2  1  0
  2  3  1  0
  3  4  2  0
  3  5  1  0
  5  6  1  0
  6  7  1  0
  7  8  2  0
  8  9  1  0
  9 10  2  0
 10 11  1  0
 11 12  2  0
  5 13  1  0
 13 14  1  0
 14 15  2  0
 14 16  1  0
 16 17  1  0
 17 18  1  0
 18 19  1  0
 19 20  1  0
 20 21  1  0
 21 22  1  0
 22 23  1  0
 23 24  2  0
 23 25  1  0
 25 26  1  0
 25 27  1  0
 27 28  1  0
 28 29  1  0
 28 30  2  0
 21 31  1  0
 31 32  2  0
 31 33  1  0
 33 34  1  0
 34 35  1  0
 35 36  1  0
 36 37  2  0
 37 38  1  0
 38 39  2  0
 39 40  1  0
 39 41  1  0
 41 42  2  0
 34 43  1  0
 43 44  2  0
 43 45  1  0
 12  7  1  0
 45 16  1  0
 42 36  1  0
  1 46  1  0
  1 47  1  0
  1 48  1  0
  2 49  1  0
  5 50  1  6
  6 51  1  0
  6 52  1  0
  8 53  1  0
  9 54  1  0
 10 55  1  0
 11 56  1  0
 12 57  1  0
 13 58  1  0
 16 59  1  6
 17 60  1  0
 17 61  1  0
 20 62  1  0
 20 63  1  0
 21 64  1  1
 22 65  1  0
 25 66  1  1
 26 67  1  0
 26 68  1  0
 27 69  1  0
 27 70  1  0
 29 71  1  0
 29 72  1  0
 33 73  1  0
 34 74  1  6
 35 75  1  0
 35 76  1  0
 37 77  1  0
 38 78  1  0
 40 79  1  0
 41 80  1  0
 42 81  1  0
 45 82  1  0
M  END
$$$$
[H]N=C(N([H])[H])N([H])C([H])([H])C([H])([H])C([H])([H])[C@@]([H])(C(=O)N([H])[C@]([H])(C(=O)N1C([H])([H])C([H])([H])C([H])([H])[C@@]1([H])C(=O)N([H])[C@]([H])(C(=O)N([H])[C@]([H])(C(=O)O[H])C([H])([H])c1c([H])n([H])c2c([H])c([H])c([H])c([H])c12)C([H])([H])C([H])([H])C([H])([H])N([H])C(=N[H])N([H])[H])C([H])([H])C([H])([H])C([H])([H])N([H])C(=N[H])N([H])[H])N([H])[H]
     RDKit          3D

110112  0  0  0  0  0  0  0  0999 V2000
   -4.1827    5.4554   -3.0202 N   0  0  0  0  0  0  0  0  0  0  0  0
   -5.2451    4.5284   -2.6958 C   0  0  0  0  0  0  0  0  0  0  0  0
   -6.3301    5.0237   -2.2036 N   0  0  0  0  0  0  0  0  0  0  0  0
   -5.0981    3.1472   -2.9059 N   0  0  0  0  0  0  0  0  0  0  0  0
   -4.8068    2.2489   -1.7777 C   0  0  0  0  0  0  0  0  0  0  0  0
   -3.4524    2.5464   -1.2607 C   0  0  0  0  0  0  0  0  0  0  0  0
   -2.9274    1.7360   -0.1465 C   0  0  0  0  0  0  0  0  0  0  0  0
   -2.7630    0.2718   -0.3787 C   0  0  2  0  0  0  0  0  0  0  0  0
   -1.8936   -0.0172   -1.4797 N   0  0  0  0  0  0  0  0  0  0  0  0
   -0.5840   -0.5955   -1.3880 C   0  0  0  0  0  0  0  0  0  0  0  0
   -0.2440   -0.8686   -0.2134 O   0  0  0  0  0  0  0  0  0  0  0  0
    0.1503   -0.7767   -2.5969 C   0  0  2  0  0  0  0  0  0  0  0  0
   -0.1035   -2.2295   -3.0906 C   0  0  0  0  0  0  0  0  0  0  0  0
    0.5935   -2.0717   -4.4431 C   0  0  0  0  0  0  0  0  0  0  0  0
    1.8220   -1.2540   -4.0517 C   0  0  0  0  0  0  0  0  0  0  0  0
    1.5665   -0.7674   -2.6712 N   0  0  0  0  0  0  0  0  0  0  0  0
    2.6225   -0.4326   -1.8132 C   0  0  0  0  0  0  0  0  0  0  0  0
    2.2744   -0.1104   -0.5952 O   0  0  0  0  0  0  0  0  0  0  0  0
    4.0634   -0.3596   -2.0203 C   0  0  2  0  0  0  0  0  0  0  0  0
    4.8300   -1.4328   -2.6542 C   0  0  0  0  0  0  0  0  0  0  0  0
    4.7862   -2.7863   -1.9908 C   0  0  0  0  0  0  0  0  0  0  0  0
    5.6683   -3.7304   -2.7704 C   0  0  0  0  0  0  0  0  0  0  0  0
    5.2398   -3.8974   -4.1330 N   0  0  0  0  0  0  0  0  0  0  0  0
    5.9281   -4.7399   -5.0536 C   0  0  0  0  0  0  0  0  0  0  0  0
    6.7739   -4.1730   -6.0334 N   0  0  0  0  0  0  0  0  0  0  0  0
    5.7912   -6.0336   -5.0103 N   0  0  0  0  0  0  0  0  0  0  0  0
    4.7451    0.0737   -0.7729 N   0  0  0  0  0  0  0  0  0  0  0  0
    4.8545    1.3976   -0.3606 C   0  0  0  0  0  0  0  0  0  0  0  0
    4.3336    2.3061   -1.0746 O   0  0  0  0  0  0  0  0  0  0  0  0
    5.5582    1.8411    0.8994 C   0  0  1  0  0  0  0  0  0  0  0  0
    5.0964    3.1357    1.2786 N   0  0  0  0  0  0  0  0  0  0  0  0
    5.3785    0.8319    1.9585 C   0  0  0  0  0  0  0  0  0  0  0  0
    6.0399    1.1464    3.2531 C   0  0  0  0  0  0  0  0  0  0  0  0
    5.6054    2.3439    4.0142 C   0  0  0  0  0  0  0  0  0  0  0  0
    4.1963    2.2722    4.3644 N   0  0  0  0  0  0  0  0  0  0  0  0
    3.6765    1.3322    5.2829 C   0  0  0  0  0  0  0  0  0  0  0  0
    2.2730    1.0597    5.2641 N   0  0  0  0  0  0  0  0  0  0  0  0
    4.4156    0.7279    6.1195 N   0  0  0  0  0  0  0  0  0  0  0  0
   -4.0014   -0.5013   -0.3141 C   0  0  0  0  0  0  0  0  0  0  0  0
   -4.1981   -1.3943   -1.2093 O   0  0  0  0  0  0  0  0  0  0  0  0
   -5.0175   -0.3539    0.6621 N   0  0  0  0  0  0  0  0  0  0  0  0
   -6.2016   -1.1122    0.7462 C   0  0  1  0  0  0  0  0  0  0  0  0
   -6.3526   -2.0075    1.9603 C   0  0  0  0  0  0  0  0  0  0  0  0
   -6.3043   -1.2207    3.2151 C   0  0  0  0  0  0  0  0  0  0  0  0
   -7.3773   -0.6584    3.8549 C   0  0  0  0  0  0  0  0  0  0  0  0
   -6.9282    0.0216    4.9041 N   0  0  0  0  0  0  0  0  0  0  0  0
   -5.5828   -0.0837    4.9663 C   0  0  0  0  0  0  0  0  0  0  0  0
   -4.6316    0.3997    5.8390 C   0  0  0  0  0  0  0  0  0  0  0  0
   -3.2778    0.1088    5.6661 C   0  0  0  0  0  0  0  0  0  0  0  0
   -2.8743   -0.6825    4.5976 C   0  0  0  0  0  0  0  0  0  0  0  0
   -3.8228   -1.1691    3.7191 C   0  0  0  0  0  0  0  0  0  0  0  0
   -5.1667   -0.8647    3.9105 C   0  0  0  0  0  0  0  0  0  0  0  0
   -7.4298   -0.2867    0.6187 C   0  0  0  0  0  0  0  0  0  0  0  0
   -8.6636   -0.9138    0.6596 O   0  0  0  0  0  0  0  0  0  0  0  0
   -7.3777    0.9380    0.4774 O   0  0  0  0  0  0  0  0  0  0  0  0
   -3.1873    5.2257   -2.8121 H   0  0  0  0  0  0  0  0  0  0  0  0
   -4.4089    6.3583   -3.4658 H   0  0  0  0  0  0  0  0  0  0  0  0
   -7.0986    4.3849   -1.9661 H   0  0  0  0  0  0  0  0  0  0  0  0
   -5.1920    2.7416   -3.8476 H   0  0  0  0  0  0  0  0  0  0  0  0
   -5.0160    1.2224   -2.0738 H   0  0  0  0  0  0  0  0  0  0  0  0
   -5.5976    2.5308   -1.0208 H   0  0  0  0  0  0  0  0  0  0  0  0
   -2.7146    2.4511   -2.1156 H   0  0  0  0  0  0  0  0  0  0  0  0
   -3.4346    3.6260   -0.9695 H   0  0  0  0  0  0  0  0  0  0  0  0
   -3.4680    1.8673    0.8143 H   0  0  0  0  0  0  0  0  0  0  0  0
   -1.8896    2.1309    0.0795 H   0  0  0  0  0  0  0  0  0  0  0  0
   -2.1743   -0.0839    0.5587 H   0  0  0  0  0  0  0  0  0  0  0  0
   -2.2401    0.2148   -2.4480 H   0  0  0  0  0  0  0  0  0  0  0  0
   -0.2975   -0.1444   -3.4399 H   0  0  0  0  0  0  0  0  0  0  0  0
   -1.1590   -2.4608   -3.1628 H   0  0  0  0  0  0  0  0  0  0  0  0
    0.4842   -2.8793   -2.4434 H   0  0  0  0  0  0  0  0  0  0  0  0
   -0.1004   -1.4787   -5.0757 H   0  0  0  0  0  0  0  0  0  0  0  0
    0.8443   -3.0369   -4.8897 H   0  0  0  0  0  0  0  0  0  0  0  0
    1.8710   -0.4074   -4.7621 H   0  0  0  0  0  0  0  0  0  0  0  0
    2.6437   -1.9619   -4.0961 H   0  0  0  0  0  0  0  0  0  0  0  0
    4.1845    0.5804   -2.6719 H   0  0  0  0  0  0  0  0  0  0  0  0
    4.7795   -1.5677   -3.7395 H   0  0  0  0  0  0  0  0  0  0  0  0
    5.9424   -1.0837   -2.5389 H   0  0  0  0  0  0  0  0  0  0  0  0
    5.1117   -2.7487   -0.9327 H   0  0  0  0  0  0  0  0  0  0  0  0
    3.7655   -3.2138   -2.0272 H   0  0  0  0  0  0  0  0  0  0  0  0
    5.6632   -4.7440   -2.3059 H   0  0  0  0  0  0  0  0  0  0  0  0
    6.7138   -3.3244   -2.7909 H   0  0  0  0  0  0  0  0  0  0  0  0
    4.4024   -3.4134   -4.5018 H   0  0  0  0  0  0  0  0  0  0  0  0
    6.7035   -4.5407   -7.0043 H   0  0  0  0  0  0  0  0  0  0  0  0
    7.4446   -3.4244   -5.8165 H   0  0  0  0  0  0  0  0  0  0  0  0
    5.1544   -6.4086   -4.2683 H   0  0  0  0  0  0  0  0  0  0  0  0
    5.1721   -0.6792   -0.1741 H   0  0  0  0  0  0  0  0  0  0  0  0
    6.6644    1.9035    0.6958 H   0  0  0  0  0  0  0  0  0  0  0  0
    4.0847    3.1601    1.4884 H   0  0  0  0  0  0  0  0  0  0  0  0
    5.4553    3.9385    0.7520 H   0  0  0  0  0  0  0  0  0  0  0  0
    5.8099   -0.1846    1.6384 H   0  0  0  0  0  0  0  0  0  0  0  0
    4.3010    0.5960    2.1548 H   0  0  0  0  0  0  0  0  0  0  0  0
    7.1670    1.2587    3.1174 H   0  0  0  0  0  0  0  0  0  0  0  0
    5.9609    0.2611    3.9684 H   0  0  0  0  0  0  0  0  0  0  0  0
    5.8995    3.2933    3.5687 H   0  0  0  0  0  0  0  0  0  0  0  0
    6.1316    2.2601    5.0263 H   0  0  0  0  0  0  0  0  0  0  0  0
    3.5568    2.9634    3.9020 H   0  0  0  0  0  0  0  0  0  0  0  0
    1.8385    0.4726    6.0065 H   0  0  0  0  0  0  0  0  0  0  0  0
    1.6734    1.4363    4.5196 H   0  0  0  0  0  0  0  0  0  0  0  0
    5.4327    0.8131    6.2594 H   0  0  0  0  0  0  0  0  0  0  0  0
   -4.8484    0.4251    1.3647 H   0  0  0  0  0  0  0  0  0  0  0  0
   -6.1680   -1.8480   -0.1259 H   0  0  0  0  0  0  0  0  0  0  0  0
   -5.6683   -2.8698    1.9446 H   0  0  0  0  0  0  0  0  0  0  0  0
   -7.3911   -2.4456    1.9013 H   0  0  0  0  0  0  0  0  0  0  0  0
   -8.4442   -0.7528    3.5535 H   0  0  0  0  0  0  0  0  0  0  0  0
   -7.5020    0.5709    5.6054 H   0  0  0  0  0  0  0  0  0  0  0  0
   -4.9413    1.0148    6.6658 H   0  0  0  0  0  0  0  0  0  0  0  0
   -2.5391    0.4975    6.3557 H   0  0  0  0  0  0  0  0  0  0  0  0
   -1.8324   -0.9210    4.4449 H   0  0  0  0  0  0  0  0  0  0  0  0
   -3.5160   -1.8010    2.8702 H   0  0  0  0  0  0  0  0  0  0  0  0
   -9.4715   -0.6110    0.1283 H   0  0  0  0  0  0  0  0  0  0  0  0
  1  2  1  0
  2  3  2  3
  2  4  1  0
  4  5  1  0
  5  6  1  0
  6  7  1  0
  7  8  1  0
  8  9  1  0
  9 10  1  0
 10 11  2  0
 10 12  1  0
 12 13  1  0
 13 14  1  0
 14 15  1  0
 15 16  1  0
 16 17  1  0
 17 18  2  0
 17 19  1  0
 19 20  1  0
 20 21  1  0
 21 22  1  0
 22 23  1  0
 23 24  1  0
 24 25  1  0
 24 26  2  3
 19 27  1  0
 27 28  1  0
 28 29  2  0
 28 30  1  0
 30 31  1  0
 30 32  1  0
 32 33  1  0
 33 34  1  0
 34 35  1  0
 35 36  1  0
 36 37  1  0
 36 38  2  3
  8 39  1  0
 39 40  2  0
 39 41  1  0
 41 42  1  0
 42 43  1  0
 43 44  1  0
 44 45  2  0
 45 46  1  0
 46 47  1  0
 47 48  2  0
 48 49  1  0
 49 50  2  0
 50 51  1  0
 51 52  2  0
 42 53  1  0
 53 54  1  0
 53 55  2  0
 16 12  1  0
 52 44  1  0
 52 47  1  0
  1 56  1  0
  1 57  1  0
  3 58  1  0
  4 59  1  0
  5 60  1  0
  5 61  1  0
  6 62  1  0
  6 63  1  0
  7 64  1  0
  7 65  1  0
  8 66  1  1
  9 67  1  0
 12 68  1  6
 13 69  1  0
 13 70  1  0
 14 71  1  0
 14 72  1  0
 15 73  1  0
 15 74  1  0
 19 75  1  6
 20 76  1  0
 20 77  1  0
 21 78  1  0
 21 79  1  0
 22 80  1  0
 22 81  1  0
 23 82  1  0
 25 83  1  0
 25 84  1  0
 26 85  1  0
 27 86  1  0
 30 87  1  6
 31 88  1  0
 31 89  1  0
 32 90  1  0
 32 91  1  0
 33 92  1  0
 33 93  1  0
 34 94  1  0
 34 95  1  0
 35 96  1  0
 37 97  1  0
 37 98  1  0
 38 99  1  0
 41100  1  0
 42101  1  6
 43102  1  0
 43103  1  0
 45104  1  0
 46105  1  0
 48106  1  0
 49107  1  0
 50108  1  0
 51109  1  0
 54110  1  0
M  END
$$$$
[H]c1c([H])c2c(c(S(=O)(=O)N([H])C(=O)[C@@]([H])(N([H])[H])C([H])([H])C([H])(C([H])([H])[H])C([H])([H])[H])c1[H])C([H])([H])C([H])([H])N2C([H])([H])[H]
     RDKit          3D

 45 46  0  0  0  0  0  0  0  0999 V2000
    4.9027    1.8143   -0.0495 C   0  0  0  0  0  0  0  0  0  0  0  0
    4.1358    0.7490    0.7938 C   0  0  0  0  0  0  0  0  0  0  0  0
    2.7746    1.4144    1.0332 C   0  0  0  0  0  0  0  0  0  0  0  0
    4.0090   -0.4898   -0.0027 C   0  0  0  0  0  0  0  0  0  0  0  0
    3.3638   -1.6842    0.5759 C   0  0  2  0  0  0  0  0  0  0  0  0
    3.4271   -2.7085   -0.5142 N   0  0  0  0  0  0  0  0  0  0  0  0
    1.9495   -1.6187    0.9404 C   0  0  0  0  0  0  0  0  0  0  0  0
    1.6175   -1.2209    2.1080 O   0  0  0  0  0  0  0  0  0  0  0  0
    0.9489   -1.9876    0.0241 N   0  0  0  0  0  0  0  0  0  0  0  0
   -0.7371   -1.9396    0.3821 S   0  0  0  0  0  0  0  0  0  0  0  0
   -1.3748   -3.1781   -0.2312 O   0  0  0  0  0  0  0  0  0  0  0  0
   -0.9559   -1.9573    1.8572 O   0  0  0  0  0  0  0  0  0  0  0  0
   -1.4237   -0.5331   -0.3698 C   0  0  0  0  0  0  0  0  0  0  0  0
   -0.6797    0.3522   -1.1238 C   0  0  0  0  0  0  0  0  0  0  0  0
   -1.2258    1.4714   -1.7219 C   0  0  0  0  0  0  0  0  0  0  0  0
   -2.5765    1.7052   -1.5502 C   0  0  0  0  0  0  0  0  0  0  0  0
   -3.3331    0.8219   -0.7939 C   0  0  0  0  0  0  0  0  0  0  0  0
   -4.7326    0.8414   -0.4676 N   0  0  0  0  0  0  0  0  0  0  0  0
   -5.5560    2.0349   -0.4667 C   0  0  0  0  0  0  0  0  0  0  0  0
   -5.1138   -0.5122   -0.1575 C   0  0  0  0  0  0  0  0  0  0  0  0
   -3.8478   -1.0366    0.5368 C   0  0  0  0  0  0  0  0  0  0  0  0
   -2.7868   -0.2967   -0.1974 C   0  0  0  0  0  0  0  0  0  0  0  0
    5.3306    2.5662    0.6416 H   0  0  0  0  0  0  0  0  0  0  0  0
    4.1886    2.3497   -0.7108 H   0  0  0  0  0  0  0  0  0  0  0  0
    5.6878    1.3412   -0.6478 H   0  0  0  0  0  0  0  0  0  0  0  0
    4.6821    0.5719    1.7313 H   0  0  0  0  0  0  0  0  0  0  0  0
    1.9881    1.0008    0.3859 H   0  0  0  0  0  0  0  0  0  0  0  0
    2.8080    2.5118    0.7305 H   0  0  0  0  0  0  0  0  0  0  0  0
    2.5167    1.4534    2.1075 H   0  0  0  0  0  0  0  0  0  0  0  0
    3.4595   -0.2332   -0.9495 H   0  0  0  0  0  0  0  0  0  0  0  0
    5.0371   -0.8090   -0.3418 H   0  0  0  0  0  0  0  0  0  0  0  0
    3.9943   -2.1345    1.3896 H   0  0  0  0  0  0  0  0  0  0  0  0
    2.7646   -3.4623   -0.2965 H   0  0  0  0  0  0  0  0  0  0  0  0
    3.1832   -2.2502   -1.4050 H   0  0  0  0  0  0  0  0  0  0  0  0
    1.2157   -2.3085   -0.9215 H   0  0  0  0  0  0  0  0  0  0  0  0
    0.3781    0.1475   -1.2409 H   0  0  0  0  0  0  0  0  0  0  0  0
   -0.5970    2.1252   -2.3002 H   0  0  0  0  0  0  0  0  0  0  0  0
   -3.0487    2.5767   -2.0026 H   0  0  0  0  0  0  0  0  0  0  0  0
   -6.5163    1.8903   -1.0052 H   0  0  0  0  0  0  0  0  0  0  0  0
   -5.7937    2.3088    0.5914 H   0  0  0  0  0  0  0  0  0  0  0  0
   -5.0492    2.8854   -0.9466 H   0  0  0  0  0  0  0  0  0  0  0  0
   -5.3239   -1.1219   -1.0641 H   0  0  0  0  0  0  0  0  0  0  0  0
   -5.9926   -0.5693    0.4943 H   0  0  0  0  0  0  0  0  0  0  0  0
   -3.8876   -0.7552    1.6001 H   0  0  0  0  0  0  0  0  0  0  0  0
   -3.8106   -2.1263    0.3579 H   0  0  0  0  0  0  0  0  0  0  0  0
  1  2  1  0
  2  3  1  0
  2  4  1  0
  4  5  1  0
  5  6  1  0
  5  7  1  0
  7  8  2  0
  7  9  1  0
  9 10  1  0
 10 11  2  0
 10 12  2  0
 10 13  1  0
 13 14  2  0
 14 15  1  0
 15 16  2  0
 16 17  1  0
 17 18  1  0
 18 19  1  0
 18 20  1  0
 20 21  1  0
 21 22  1  0
 22 13  1  0
 22 17  2  0
  1 23  1  0
  1 24  1  0
  1 25  1  0
  2 26  1  0
  3 27  1  0
  3 28  1  0
  3 29  1  0
  4 30  1  0
  4 31  1  0
  5 32  1  1
  6 33  1  0
  6 34  1  0
  9 35  1  0
 14 36  1  0
 15 37  1  0
 16 38  1  0
 19 39  1  0
 19 40  1  0
 19 41  1  0
 20 42  1  0
 20 43  1  0
 21 44  1  0
 21 45  1  0
M  END
$$$$
[H]c1c([H])c(N([H])C(=O)C([H])([H])Sc2nc3c([H])c([H])c([H])c([H])c3c(=O)n2-c2c([H])c([H])c(OC([H])([H])C([H])([H])[H])c([H])c2[H])c([H])c(C([H])([H])[H])c1[H]
     RDKit          3D

 55 58  0  0  0  0  0  0  0  0999 V2000
   -4.7584    5.1153   -0.7596 C   0  0  0  0  0  0  0  0  0  0  0  0
   -5.9522    4.2244   -0.5800 C   0  0  0  0  0  0  0  0  0  0  0  0
   -5.7819    2.9183   -1.0723 O   0  0  0  0  0  0  0  0  0  0  0  0
   -4.8550    1.9975   -0.6629 C   0  0  0  0  0  0  0  0  0  0  0  0
   -4.8769    0.7625   -1.3143 C   0  0  0  0  0  0  0  0  0  0  0  0
   -3.9650   -0.1799   -0.9290 C   0  0  0  0  0  0  0  0  0  0  0  0
   -3.0165    0.0080    0.0685 C   0  0  0  0  0  0  0  0  0  0  0  0
   -3.0009    1.2095    0.6972 C   0  0  0  0  0  0  0  0  0  0  0  0
   -3.9149    2.1899    0.3292 C   0  0  0  0  0  0  0  0  0  0  0  0
   -2.1412   -1.0888    0.3464 N   0  0  0  0  0  0  0  0  0  0  0  0
   -0.9390   -1.2143   -0.2263 C   0  0  0  0  0  0  0  0  0  0  0  0
   -0.3625    0.0498   -1.3425 S   0  0  0  0  0  0  0  0  0  0  0  0
    0.5957    1.3303   -0.4681 C   0  0  0  0  0  0  0  0  0  0  0  0
    1.8727    0.7086    0.0381 C   0  0  0  0  0  0  0  0  0  0  0  0
    1.8525    0.1442    1.1419 O   0  0  0  0  0  0  0  0  0  0  0  0
    3.0316    0.7910   -0.7535 N   0  0  0  0  0  0  0  0  0  0  0  0
    4.3131    0.2935   -0.4955 C   0  0  0  0  0  0  0  0  0  0  0  0
    4.6785   -0.4802    0.5717 C   0  0  0  0  0  0  0  0  0  0  0  0
    5.9795   -0.9389    0.7748 C   0  0  0  0  0  0  0  0  0  0  0  0
    6.9548   -0.6083   -0.1293 C   0  0  0  0  0  0  0  0  0  0  0  0
    6.6338    0.1650   -1.2136 C   0  0  0  0  0  0  0  0  0  0  0  0
    7.6918    0.5425   -2.2209 C   0  0  0  0  0  0  0  0  0  0  0  0
    5.3433    0.6037   -1.3899 C   0  0  0  0  0  0  0  0  0  0  0  0
   -0.1195   -2.2827    0.0304 N   0  0  0  0  0  0  0  0  0  0  0  0
   -0.4743   -3.2679    0.8728 C   0  0  0  0  0  0  0  0  0  0  0  0
    0.3721   -4.3428    1.1159 C   0  0  0  0  0  0  0  0  0  0  0  0
    0.0001   -5.3515    1.9804 C   0  0  0  0  0  0  0  0  0  0  0  0
   -1.2354   -5.2418    2.5827 C   0  0  0  0  0  0  0  0  0  0  0  0
   -2.0875   -4.1659    2.3419 C   0  0  0  0  0  0  0  0  0  0  0  0
   -1.7089   -3.1615    1.4764 C   0  0  0  0  0  0  0  0  0  0  0  0
   -2.5190   -2.0758    1.2030 C   0  0  0  0  0  0  0  0  0  0  0  0
   -3.6363   -1.9663    1.7408 O   0  0  0  0  0  0  0  0  0  0  0  0
   -4.6390    5.7591    0.1282 H   0  0  0  0  0  0  0  0  0  0  0  0
   -3.8275    4.5830   -1.0528 H   0  0  0  0  0  0  0  0  0  0  0  0
   -4.9574    5.8252   -1.6134 H   0  0  0  0  0  0  0  0  0  0  0  0
   -6.8342    4.6510   -1.1025 H   0  0  0  0  0  0  0  0  0  0  0  0
   -6.2149    4.1219    0.4960 H   0  0  0  0  0  0  0  0  0  0  0  0
   -5.6110    0.5901   -2.0991 H   0  0  0  0  0  0  0  0  0  0  0  0
   -3.9959   -1.1381   -1.4456 H   0  0  0  0  0  0  0  0  0  0  0  0
   -2.2629    1.3796    1.4839 H   0  0  0  0  0  0  0  0  0  0  0  0
   -3.9062    3.1489    0.8338 H   0  0  0  0  0  0  0  0  0  0  0  0
    0.0429    1.7472    0.3925 H   0  0  0  0  0  0  0  0  0  0  0  0
    0.8104    2.1686   -1.1660 H   0  0  0  0  0  0  0  0  0  0  0  0
    2.9328    1.3095   -1.6996 H   0  0  0  0  0  0  0  0  0  0  0  0
    3.9536   -0.7635    1.2977 H   0  0  0  0  0  0  0  0  0  0  0  0
    6.2200   -1.5374    1.6168 H   0  0  0  0  0  0  0  0  0  0  0  0
    7.9902   -0.9322   -0.0302 H   0  0  0  0  0  0  0  0  0  0  0  0
    8.4843   -0.2225   -2.2283 H   0  0  0  0  0  0  0  0  0  0  0  0
    7.1884    0.5364   -3.2153 H   0  0  0  0  0  0  0  0  0  0  0  0
    8.1097    1.5417   -1.9993 H   0  0  0  0  0  0  0  0  0  0  0  0
    5.1705    1.2107   -2.2717 H   0  0  0  0  0  0  0  0  0  0  0  0
    1.3532   -4.4065    0.6231 H   0  0  0  0  0  0  0  0  0  0  0  0
    0.6574   -6.1890    2.1716 H   0  0  0  0  0  0  0  0  0  0  0  0
   -1.5841   -6.0071    3.2740 H   0  0  0  0  0  0  0  0  0  0  0  0
   -3.0540   -4.0638    2.8030 H   0  0  0  0  0  0  0  0  0  0  0  0
  1  2  1  0
  2  3  1  0
  3  4  1  0
  4  5  2  0
  5  6  1  0
  6  7  2  0
  7  8  1  0
  8  9  2  0
  7 10  1  0
 10 11  1  0
 11 12  1  0
 12 13  1  0
 13 14  1  0
 14 15  2  0
 14 16  1  0
 16 17  1  0
 17 18  2  0
 18 19  1  0
 19 20  2  0
 20 21  1  0
 21 22  1  0
 21 23  2  0
 11 24  2  0
 24 25  1  0
 25 26  2  0
 26 27  1  0
 27 28  2  0
 28 29  1  0
 29 30  2  0
 30 31  1  0
 31 32  2  0
  9  4  1  0
 31 10  1  0
 23 17  1  0
 30 25  1  0
  1 33  1  0
  1 34  1  0
  1 35  1  0
  2 36  1  0
  2 37  1  0
  5 38  1  0
  6 39  1  0
  8 40  1  0
  9 41  1  0
 13 42  1  0
 13 43  1  0
 16 44  1  0
 18 45  1  0
 19 46  1  0
 20 47  1  0
 22 48  1  0
 22 49  1  0
 22 50  1  0
 23 51  1  0
 26 52  1  0
 27 53  1  0
 28 54  1  0
 29 55  1  0
M  END
$$$$
[H]c1c([H])c(S(=O)(=O)N(C([H])([H])[H])C([H])([H])[H])c([H])c([H])c1C([H])([H])C([H])([H])N(C([H])([H])[H])C([H])([H])C([H])([H])C([H])([H])N([H])C(=O)c1nc(Cl)c2c(c([H])c([H])c(=O)n2[H])c1N([H])[H]
     RDKit          3D

 64 66  0  0  0  0  0  0  0  0999 V2000
   -0.3884    2.0510   -1.0385 C   0  0  0  0  0  0  0  0  0  0  0  0
   -0.7339    1.3353    0.1195 N   0  0  0  0  0  0  0  0  0  0  0  0
    0.3370    0.8065    0.8372 C   0  0  0  0  0  0  0  0  0  0  0  0
    1.1150   -0.2461    0.1448 C   0  0  0  0  0  0  0  0  0  0  0  0
    2.2853   -0.8408    0.9390 C   0  0  0  0  0  0  0  0  0  0  0  0
    3.2950   -0.0628    1.1967 N   0  0  0  0  0  0  0  0  0  0  0  0
    4.3837    0.7798    1.4768 C   0  0  0  0  0  0  0  0  0  0  0  0
    4.4816    1.8451    2.0377 O   0  0  0  0  0  0  0  0  0  0  0  0
    5.6672    0.1589    0.9374 C   0  0  0  0  0  0  0  0  0  0  0  0
    5.7058   -1.0616    0.4207 N   0  0  0  0  0  0  0  0  0  0  0  0
    6.8313   -1.6535   -0.0162 C   0  0  0  0  0  0  0  0  0  0  0  0
    6.8312   -3.2763   -0.6807 Cl  0  0  0  0  0  0  0  0  0  0  0  0
    8.0605   -0.9990    0.0625 C   0  0  0  0  0  0  0  0  0  0  0  0
    9.1778   -1.5792   -0.3437 N   0  0  0  0  0  0  0  0  0  0  0  0
   10.3688   -0.9169   -0.2260 C   0  0  0  0  0  0  0  0  0  0  0  0
   11.3921   -1.4996   -0.6245 O   0  0  0  0  0  0  0  0  0  0  0  0
   10.3857    0.3441    0.3107 C   0  0  0  0  0  0  0  0  0  0  0  0
    9.2049    0.9513    0.7281 C   0  0  0  0  0  0  0  0  0  0  0  0
    8.0254    0.2820    0.6092 C   0  0  0  0  0  0  0  0  0  0  0  0
    6.8231    0.8727    1.0491 C   0  0  0  0  0  0  0  0  0  0  0  0
    6.8913    2.2050    1.5207 N   0  0  0  0  0  0  0  0  0  0  0  0
   -2.0249    0.8832    0.2110 C   0  0  0  0  0  0  0  0  0  0  0  0
   -2.4021   -0.2764   -0.7063 C   0  0  0  0  0  0  0  0  0  0  0  0
   -3.8390   -0.5771   -0.6270 C   0  0  0  0  0  0  0  0  0  0  0  0
   -4.3904   -1.0811    0.5651 C   0  0  0  0  0  0  0  0  0  0  0  0
   -5.7065   -1.4457    0.5982 C   0  0  0  0  0  0  0  0  0  0  0  0
   -6.5760   -1.3614   -0.4904 C   0  0  0  0  0  0  0  0  0  0  0  0
   -6.0463   -0.8746   -1.6425 C   0  0  0  0  0  0  0  0  0  0  0  0
   -4.6964   -0.4951   -1.6847 C   0  0  0  0  0  0  0  0  0  0  0  0
   -8.2116   -1.8646   -0.2383 S   0  0  0  0  0  0  0  0  0  0  0  0
   -8.3975   -2.3691    1.1570 O   0  0  0  0  0  0  0  0  0  0  0  0
   -8.4870   -3.0071   -1.2025 O   0  0  0  0  0  0  0  0  0  0  0  0
   -9.3254   -0.5991   -0.6319 N   0  0  0  0  0  0  0  0  0  0  0  0
   -9.0227    0.5102    0.2153 C   0  0  0  0  0  0  0  0  0  0  0  0
   -9.3590   -0.2920   -2.0109 C   0  0  0  0  0  0  0  0  0  0  0  0
   -1.0356    2.9667   -1.1743 H   0  0  0  0  0  0  0  0  0  0  0  0
    0.6534    2.4976   -0.9857 H   0  0  0  0  0  0  0  0  0  0  0  0
   -0.4134    1.4253   -1.9773 H   0  0  0  0  0  0  0  0  0  0  0  0
    1.0004    1.6947    1.1109 H   0  0  0  0  0  0  0  0  0  0  0  0
   -0.0174    0.4059    1.8162 H   0  0  0  0  0  0  0  0  0  0  0  0
    1.7487    0.4029   -0.6351 H   0  0  0  0  0  0  0  0  0  0  0  0
    0.6037   -0.9207   -0.4978 H   0  0  0  0  0  0  0  0  0  0  0  0
    2.5966   -1.8282    0.4190 H   0  0  0  0  0  0  0  0  0  0  0  0
    1.7506   -1.2895    1.8478 H   0  0  0  0  0  0  0  0  0  0  0  0
    2.5066    0.8053    1.8811 H   0  0  0  0  0  0  0  0  0  0  0  0
    9.1460   -2.5382   -0.7511 H   0  0  0  0  0  0  0  0  0  0  0  0
   11.2896    0.9066    0.4156 H   0  0  0  0  0  0  0  0  0  0  0  0
    9.2053    1.9610    1.1654 H   0  0  0  0  0  0  0  0  0  0  0  0
    7.0925    2.9651    0.8139 H   0  0  0  0  0  0  0  0  0  0  0  0
    6.7654    2.5116    2.5024 H   0  0  0  0  0  0  0  0  0  0  0  0
   -2.8029    1.6852    0.0150 H   0  0  0  0  0  0  0  0  0  0  0  0
   -2.3040    0.5586    1.2856 H   0  0  0  0  0  0  0  0  0  0  0  0
   -2.0640   -0.0729   -1.7577 H   0  0  0  0  0  0  0  0  0  0  0  0
   -1.8456   -1.1775   -0.3511 H   0  0  0  0  0  0  0  0  0  0  0  0
   -3.7310   -1.1379    1.4405 H   0  0  0  0  0  0  0  0  0  0  0  0
   -6.0904   -1.8285    1.5670 H   0  0  0  0  0  0  0  0  0  0  0  0
   -6.6693   -0.7926   -2.5068 H   0  0  0  0  0  0  0  0  0  0  0  0
   -4.3277   -0.1001   -2.6579 H   0  0  0  0  0  0  0  0  0  0  0  0
   -9.6646    0.6685    1.0641 H   0  0  0  0  0  0  0  0  0  0  0  0
   -8.8880    1.4500   -0.3948 H   0  0  0  0  0  0  0  0  0  0  0  0
   -7.9739    0.3620    0.6548 H   0  0  0  0  0  0  0  0  0  0  0  0
   -8.7542    0.5733   -2.2783 H   0  0  0  0  0  0  0  0  0  0  0  0
   -9.0075   -1.1489   -2.6180 H   0  0  0  0  0  0  0  0  0  0  0  0
  -10.4252   -0.1474   -2.3861 H   0  0  0  0  0  0  0  0  0  0  0  0
  1  2  1  0
  2  3  1  0
  3  4  1  0
  4  5  1  0
  5  6  1  0
  6  7  1  0
  7  8  2  0
  7  9  1  0
  9 10  2  0
 10 11  1  0
 11 12  1  0
 11 13  2  0
 13 14  1  0
 14 15  1  0
 15 16  2  0
 15 17  1  0
 17 18  2  0
 18 19  1  0
 19 20  2  0
 20 21  1  0
  2 22  1  0
 22 23  1  0
 23 24  1  0
 24 25  2  0
 25 26  1  0
 26 27  2  0
 27 28  1  0
 28 29  2  0
 27 30  1  0
 30 31  2  0
 30 32  2  0
 30 33  1  0
 33 34  1  0
 33 35  1  0
 20  9  1  0
 29 24  1  0
 19 13  1  0
  1 36  1  0
  1 37  1  0
  1 38  1  0
  3 39  1  0
  3 40  1  0
  4 41  1  0
  4 42  1  0
  5 43  1  0
  5 44  1  0
  6 45  1  0
 14 46  1  0
 17 47  1  0
 18 48  1  0
 21 49  1  0
 21 50  1  0
 22 51  1  0
 22 52  1  0
 23 53  1  0
 23 54  1  0
 25 55  1  0
 26 56  1  0
 28 57  1  0
 29 58  1  0
 34 59  1  0
 34 60  1  0
 34 61  1  0
 35 62  1  0
 35 63  1  0
 35 64  1  0
M  END
$$$$
[H]c1c([H])c(C([H])([H])C(=O)N([H])C2([H])C([H])([H])C([H])([H])C([H])([H])C([H])(C([H])([H])[H])C2([H])[H])c([H])c(Cl)c1Cl
     RDKit          3D

 38 39  0  0  0  0  0  0  0  0999 V2000
   -4.5689   -0.4518   -1.4212 C   0  0  0  0  0  0  0  0  0  0  0  0
   -3.5487    0.2309   -0.5457 C   0  0  0  0  0  0  0  0  0  0  0  0
   -4.1136    0.4946    0.8395 C   0  0  0  0  0  0  0  0  0  0  0  0
   -3.1536    1.2701    1.6696 C   0  0  0  0  0  0  0  0  0  0  0  0
   -1.7570    0.7274    1.6751 C   0  0  0  0  0  0  0  0  0  0  0  0
   -1.2954    0.2195    0.3408 C   0  0  0  0  0  0  0  0  0  0  0  0
   -2.3406   -0.6576   -0.3281 C   0  0  0  0  0  0  0  0  0  0  0  0
   -0.1179   -0.5978    0.5427 N   0  0  0  0  0  0  0  0  0  0  0  0
    1.1440   -0.2650    0.0023 C   0  0  0  0  0  0  0  0  0  0  0  0
    1.2604    0.7836   -0.6848 O   0  0  0  0  0  0  0  0  0  0  0  0
    2.3190   -1.1406    0.2413 C   0  0  0  0  0  0  0  0  0  0  0  0
    3.5042   -0.5742   -0.4252 C   0  0  0  0  0  0  0  0  0  0  0  0
    4.3234    0.3119    0.2489 C   0  0  0  0  0  0  0  0  0  0  0  0
    5.4211    0.8307   -0.3818 C   0  0  0  0  0  0  0  0  0  0  0  0
    5.7254    0.4932   -1.6608 C   0  0  0  0  0  0  0  0  0  0  0  0
    7.1331    1.1755   -2.4306 Cl  0  0  0  0  0  0  0  0  0  0  0  0
    4.9297   -0.3882   -2.3630 C   0  0  0  0  0  0  0  0  0  0  0  0
    5.3568   -0.7926   -3.9993 Cl  0  0  0  0  0  0  0  0  0  0  0  0
    3.8193   -0.9135   -1.7264 C   0  0  0  0  0  0  0  0  0  0  0  0
   -4.9156    0.2649   -2.1712 H   0  0  0  0  0  0  0  0  0  0  0  0
   -5.3740   -0.8212   -0.7534 H   0  0  0  0  0  0  0  0  0  0  0  0
   -4.0531   -1.2823   -1.9438 H   0  0  0  0  0  0  0  0  0  0  0  0
   -3.2012    1.1780   -0.9713 H   0  0  0  0  0  0  0  0  0  0  0  0
   -4.2352   -0.5165    1.3161 H   0  0  0  0  0  0  0  0  0  0  0  0
   -5.0735    1.0174    0.8182 H   0  0  0  0  0  0  0  0  0  0  0  0
   -3.5165    1.2607    2.7196 H   0  0  0  0  0  0  0  0  0  0  0  0
   -3.1890    2.3491    1.3586 H   0  0  0  0  0  0  0  0  0  0  0  0
   -1.6560   -0.0978    2.4006 H   0  0  0  0  0  0  0  0  0  0  0  0
   -1.0729    1.5451    1.9836 H   0  0  0  0  0  0  0  0  0  0  0  0
   -1.0168    1.0850   -0.2743 H   0  0  0  0  0  0  0  0  0  0  0  0
   -1.9111   -1.0385   -1.2670 H   0  0  0  0  0  0  0  0  0  0  0  0
   -2.6237   -1.4467    0.3931 H   0  0  0  0  0  0  0  0  0  0  0  0
   -0.2051   -1.4643    1.1081 H   0  0  0  0  0  0  0  0  0  0  0  0
    2.1093   -2.1843   -0.0707 H   0  0  0  0  0  0  0  0  0  0  0  0
    2.5072   -1.1345    1.3433 H   0  0  0  0  0  0  0  0  0  0  0  0
    4.1011    0.5947    1.2664 H   0  0  0  0  0  0  0  0  0  0  0  0
    6.0738    1.5271    0.1330 H   0  0  0  0  0  0  0  0  0  0  0  0
    3.2115   -1.5923   -2.2755 H   0  0  0  0  0  0  0  0  0  0  0  0
  1  2  1  0
  2  3  1  0
  3  4  1  0
  4  5  1  0
  5  6  1  0
  6  7  1  0
  6  8  1  0
  8  9  1  0
  9 10  2  0
  9 11  1  0
 11 12  1  0
 12 13  2  0
 13 14  1  0
 14 15  2  0
 15 16  1  0
 15 17  1  0
 17 18  1  0
 17 19  2  0
  7  2  1  0
 19 12  1  0
  1 20  1  0
  1 21  1  0
  1 22  1  0
  2 23  1  0
  3 24  1  0
  3 25  1  0
  4 26  1  0
  4 27  1  0
  5 28  1  0
  5 29  1  0
  6 30  1  0
  7 31  1  0
  7 32  1  0
  8 33  1  0
 11 34  1  0
 11 35  1  0
 13 36  1  0
 14 37  1  0
 19 38  1  0
M  END
$$$$
[H]N=C(c1c([H])c([H])c([H])c(-c2c(O[H])c(-c3c([H])c([H])c([H])c(C(=N[H])N([H])[H])c3[H])c(O[H])c(C([H])(C([H])([H])C([H])([H])[H])C([H])([H])C([H])([H])[H])c2O[H])c1[H])N([H])[H]
     RDKit          3D

 60 62  0  0  0  0  0  0  0  0999 V2000
   -0.2937    3.4779   -2.4532 C   0  0  0  0  0  0  0  0  0  0  0  0
   -0.4940    3.8695   -1.0079 C   0  0  0  0  0  0  0  0  0  0  0  0
    0.4174    3.1381   -0.0795 C   0  0  0  0  0  0  0  0  0  0  0  0
    0.1432    3.6766    1.3457 C   0  0  0  0  0  0  0  0  0  0  0  0
    0.4144    5.1505    1.4177 C   0  0  0  0  0  0  0  0  0  0  0  0
    0.2572    1.6613   -0.0417 C   0  0  0  0  0  0  0  0  0  0  0  0
    1.3332    0.8663    0.3907 C   0  0  0  0  0  0  0  0  0  0  0  0
    2.5022    1.5860    0.7083 O   0  0  0  0  0  0  0  0  0  0  0  0
    1.2719   -0.4961    0.5016 C   0  0  0  0  0  0  0  0  0  0  0  0
    2.4005   -1.2731    0.9530 C   0  0  0  0  0  0  0  0  0  0  0  0
    2.4508   -1.6837    2.2927 C   0  0  0  0  0  0  0  0  0  0  0  0
    3.5452   -2.4214    2.6945 C   0  0  0  0  0  0  0  0  0  0  0  0
    4.5808   -2.7591    1.8197 C   0  0  0  0  0  0  0  0  0  0  0  0
    4.5087   -2.3446    0.5180 C   0  0  0  0  0  0  0  0  0  0  0  0
    3.4068   -1.5950    0.0807 C   0  0  0  0  0  0  0  0  0  0  0  0
    5.5643   -2.6737   -0.4061 C   0  0  0  0  0  0  0  0  0  0  0  0
    5.4843   -2.2008   -1.7664 N   0  0  0  0  0  0  0  0  0  0  0  0
    6.5765   -3.3522   -0.1090 N   0  0  0  0  0  0  0  0  0  0  0  0
    0.0786   -1.1430    0.1704 C   0  0  0  0  0  0  0  0  0  0  0  0
   -0.0152   -2.5382    0.2755 O   0  0  0  0  0  0  0  0  0  0  0  0
   -0.9901   -0.4056   -0.2519 C   0  0  0  0  0  0  0  0  0  0  0  0
   -2.2405   -1.0989   -0.5800 C   0  0  0  0  0  0  0  0  0  0  0  0
   -2.4223   -1.7588   -1.7742 C   0  0  0  0  0  0  0  0  0  0  0  0
   -3.6074   -2.3913   -2.0581 C   0  0  0  0  0  0  0  0  0  0  0  0
   -4.6476   -2.3858   -1.1662 C   0  0  0  0  0  0  0  0  0  0  0  0
   -4.5079   -1.7233    0.0682 C   0  0  0  0  0  0  0  0  0  0  0  0
   -3.3014   -1.1073    0.3032 C   0  0  0  0  0  0  0  0  0  0  0  0
   -5.6153   -1.7045    0.9971 C   0  0  0  0  0  0  0  0  0  0  0  0
   -6.8349   -2.3270    0.6351 N   0  0  0  0  0  0  0  0  0  0  0  0
   -5.5396   -1.1444    2.1251 N   0  0  0  0  0  0  0  0  0  0  0  0
   -0.8898    0.9876   -0.3529 C   0  0  0  0  0  0  0  0  0  0  0  0
   -2.0397    1.6142   -0.7848 O   0  0  0  0  0  0  0  0  0  0  0  0
    0.5183    2.6845   -2.4757 H   0  0  0  0  0  0  0  0  0  0  0  0
    0.0983    4.3699   -3.0422 H   0  0  0  0  0  0  0  0  0  0  0  0
   -1.2182    3.1400   -2.9290 H   0  0  0  0  0  0  0  0  0  0  0  0
   -0.1395    4.9579   -0.9564 H   0  0  0  0  0  0  0  0  0  0  0  0
   -1.5454    3.9266   -0.6899 H   0  0  0  0  0  0  0  0  0  0  0  0
    1.4597    3.3872   -0.3012 H   0  0  0  0  0  0  0  0  0  0  0  0
    0.8155    3.1797    2.0675 H   0  0  0  0  0  0  0  0  0  0  0  0
   -0.8973    3.5113    1.6509 H   0  0  0  0  0  0  0  0  0  0  0  0
    1.4385    5.3966    1.0063 H   0  0  0  0  0  0  0  0  0  0  0  0
   -0.3668    5.7669    0.9211 H   0  0  0  0  0  0  0  0  0  0  0  0
    0.4266    5.4511    2.4896 H   0  0  0  0  0  0  0  0  0  0  0  0
    3.3535    1.1400    1.0287 H   0  0  0  0  0  0  0  0  0  0  0  0
    1.6722   -1.4479    3.0052 H   0  0  0  0  0  0  0  0  0  0  0  0
    3.6471   -2.7830    3.7281 H   0  0  0  0  0  0  0  0  0  0  0  0
    5.4087   -3.3321    2.1664 H   0  0  0  0  0  0  0  0  0  0  0  0
    3.4242   -1.3135   -0.9632 H   0  0  0  0  0  0  0  0  0  0  0  0
    5.2773   -2.8264   -2.5681 H   0  0  0  0  0  0  0  0  0  0  0  0
    5.6354   -1.1979   -1.9582 H   0  0  0  0  0  0  0  0  0  0  0  0
    6.7576   -3.7427    0.8160 H   0  0  0  0  0  0  0  0  0  0  0  0
   -0.8901   -2.9810    0.0297 H   0  0  0  0  0  0  0  0  0  0  0  0
   -1.6362   -1.7873   -2.5055 H   0  0  0  0  0  0  0  0  0  0  0  0
   -3.7965   -2.9294   -2.9958 H   0  0  0  0  0  0  0  0  0  0  0  0
   -5.6033   -2.8785   -1.3491 H   0  0  0  0  0  0  0  0  0  0  0  0
   -3.1164   -0.5708    1.2455 H   0  0  0  0  0  0  0  0  0  0  0  0
   -7.2499   -2.2826   -0.3396 H   0  0  0  0  0  0  0  0  0  0  0  0
   -7.3792   -2.8577    1.3199 H   0  0  0  0  0  0  0  0  0  0  0  0
   -4.6823   -0.6706    2.4425 H   0  0  0  0  0  0  0  0  0  0  0  0
   -2.9084    1.1891   -1.0083 H   0  0  0  0  0  0  0  0  0  0  0  0
  1  2  1  0
  2  3  1  0
  3  4  1  0
  4  5  1  0
  3  6  1  0
  6  7  2  0
  7  8  1  0
  7  9  1  0
  9 10  1  0
 10 11  2  0
 11 12  1  0
 12 13  2  0
 13 14  1  0
 14 15  2  0
 14 16  1  0
 16 17  1  0
 16 18  2  3
  9 19  2  0
 19 20  1  0
 19 21  1  0
 21 22  1  0
 22 23  2  0
 23 24  1  0
 24 25  2  0
 25 26  1  0
 26 27  2  0
 26 28  1  0
 28 29  1  0
 28 30  2  3
 21 31  2  0
 31 32  1  0
 31  6  1  0
 15 10  1  0
 27 22  1  0
  1 33  1  0
  1 34  1  0
  1 35  1  0
  2 36  1  0
  2 37  1  0
  3 38  1  0
  4 39  1  0
  4 40  1  0
  5 41  1  0
  5 42  1  0
  5 43  1  0
  8 44  1  0
 11 45  1  0
 12 46  1  0
 13 47  1  0
 15 48  1  0
 17 49  1  0
 17 50  1  0
 18 51  1  0
 20 52  1  0
 23 53  1  0
 24 54  1  0
 25 55  1  0
 27 56  1  0
 29 57  1  0
 29 58  1  0
 30 59  1  0
 32 60  1  0
M  END
$$$$
[H]c1nc(C([H])([H])OC(=O)C2([H])C([H])(c3c([H])c([H])c(C(C([H])([H])[H])(C([H])([H])[H])C([H])([H])[H])c([H])c3[H])C(=O)OC(C([H])([H])[H])(C([H])([H])[H])C2([H])c2c([H])nc([H])c(-c3c([H])c(OC([H])([H])[H])c([H])c(C([H])([H])[H])c3[H])c2[H])c([H])c([H])c1[H]
     RDKit          3D

 84 88  0  0  0  0  0  0  0  0999 V2000
    9.1617   -0.3407   -0.7454 C   0  0  0  0  0  0  0  0  0  0  0  0
    7.7681   -0.0832   -0.7032 O   0  0  0  0  0  0  0  0  0  0  0  0
    6.9838   -0.7136    0.2858 C   0  0  0  0  0  0  0  0  0  0  0  0
    7.5879   -1.5581    1.1970 C   0  0  0  0  0  0  0  0  0  0  0  0
    6.8283   -2.2013    2.1861 C   0  0  0  0  0  0  0  0  0  0  0  0
    7.5314   -3.0838    3.1692 C   0  0  0  0  0  0  0  0  0  0  0  0
    5.4884   -1.9580    2.2073 C   0  0  0  0  0  0  0  0  0  0  0  0
    4.8301   -1.1087    1.3056 C   0  0  0  0  0  0  0  0  0  0  0  0
    5.6288   -0.4990    0.3485 C   0  0  0  0  0  0  0  0  0  0  0  0
    3.3924   -0.9058    1.3609 C   0  0  0  0  0  0  0  0  0  0  0  0
    2.7090   -1.0096    2.5623 C   0  0  0  0  0  0  0  0  0  0  0  0
    1.3794   -0.8171    2.6253 N   0  0  0  0  0  0  0  0  0  0  0  0
    0.6279   -0.5103    1.5272 C   0  0  0  0  0  0  0  0  0  0  0  0
    1.2427   -0.3918    0.3158 C   0  0  0  0  0  0  0  0  0  0  0  0
    2.6361   -0.5960    0.2519 C   0  0  0  0  0  0  0  0  0  0  0  0
    0.5540   -0.0234   -0.9768 C   0  0  0  0  0  0  0  0  0  0  0  0
   -0.8004    0.5129   -0.8598 C   0  0  0  0  0  0  0  0  0  0  0  0
   -1.8486    0.0809   -1.7807 C   0  0  0  0  0  0  0  0  0  0  0  0
   -1.4659   -1.1070   -2.5865 C   0  0  0  0  0  0  0  0  0  0  0  0
   -2.2816   -1.9949   -2.9568 O   0  0  0  0  0  0  0  0  0  0  0  0
   -0.1686   -1.2382   -2.9416 O   0  0  0  0  0  0  0  0  0  0  0  0
    0.9073   -0.9857   -2.0385 C   0  0  0  0  0  0  0  0  0  0  0  0
    1.3814   -2.3449   -1.5958 C   0  0  0  0  0  0  0  0  0  0  0  0
    2.0018   -0.4254   -2.9678 C   0  0  0  0  0  0  0  0  0  0  0  0
   -3.1326   -0.3511   -1.1336 C   0  0  0  0  0  0  0  0  0  0  0  0
   -4.3276   -0.0465   -1.7397 C   0  0  0  0  0  0  0  0  0  0  0  0
   -5.5513   -0.4687   -1.1783 C   0  0  0  0  0  0  0  0  0  0  0  0
   -5.5820   -1.1963   -0.0140 C   0  0  0  0  0  0  0  0  0  0  0  0
   -4.3708   -1.4960    0.5904 C   0  0  0  0  0  0  0  0  0  0  0  0
   -3.1647   -1.0744    0.0301 C   0  0  0  0  0  0  0  0  0  0  0  0
   -6.8165   -1.7155    0.6330 C   0  0  0  0  0  0  0  0  0  0  0  0
   -6.6754   -3.2362    0.8238 C   0  0  0  0  0  0  0  0  0  0  0  0
   -8.0783   -1.4374   -0.0880 C   0  0  0  0  0  0  0  0  0  0  0  0
   -6.9223   -1.1438    2.0266 C   0  0  0  0  0  0  0  0  0  0  0  0
   -0.6426    2.0362   -1.0800 C   0  0  0  0  0  0  0  0  0  0  0  0
   -1.2313    2.5987   -2.0114 O   0  0  0  0  0  0  0  0  0  0  0  0
    0.1563    2.7378   -0.2382 O   0  0  0  0  0  0  0  0  0  0  0  0
    0.4605    4.0856   -0.2601 C   0  0  0  0  0  0  0  0  0  0  0  0
   -0.6420    5.0306   -0.1148 C   0  0  0  0  0  0  0  0  0  0  0  0
   -1.8956    4.6686    0.2488 C   0  0  0  0  0  0  0  0  0  0  0  0
   -2.9397    5.5922    0.3828 C   0  0  0  0  0  0  0  0  0  0  0  0
   -2.6408    6.9253    0.1248 C   0  0  0  0  0  0  0  0  0  0  0  0
   -1.3566    7.2707   -0.2458 C   0  0  0  0  0  0  0  0  0  0  0  0
   -0.3629    6.3396   -0.3656 N   0  0  0  0  0  0  0  0  0  0  0  0
    9.5862    0.4022   -1.4847 H   0  0  0  0  0  0  0  0  0  0  0  0
    9.3633   -1.3496   -1.1656 H   0  0  0  0  0  0  0  0  0  0  0  0
    9.6324   -0.2504    0.2523 H   0  0  0  0  0  0  0  0  0  0  0  0
    8.6504   -1.7699    1.1983 H   0  0  0  0  0  0  0  0  0  0  0  0
    7.7854   -2.5362    4.1018 H   0  0  0  0  0  0  0  0  0  0  0  0
    8.4512   -3.4648    2.6440 H   0  0  0  0  0  0  0  0  0  0  0  0
    6.9311   -3.9649    3.4481 H   0  0  0  0  0  0  0  0  0  0  0  0
    4.8861   -2.4401    2.9653 H   0  0  0  0  0  0  0  0  0  0  0  0
    5.1139    0.1680   -0.3522 H   0  0  0  0  0  0  0  0  0  0  0  0
    3.2950   -1.2546    3.4423 H   0  0  0  0  0  0  0  0  0  0  0  0
   -0.4285   -0.3585    1.6113 H   0  0  0  0  0  0  0  0  0  0  0  0
    3.1968   -0.5191   -0.6689 H   0  0  0  0  0  0  0  0  0  0  0  0
    1.2244    0.9105   -1.2587 H   0  0  0  0  0  0  0  0  0  0  0  0
   -1.2426    0.4093    0.1747 H   0  0  0  0  0  0  0  0  0  0  0  0
   -2.1299    0.8563   -2.5608 H   0  0  0  0  0  0  0  0  0  0  0  0
    1.1072   -2.5944   -0.5630 H   0  0  0  0  0  0  0  0  0  0  0  0
    2.4862   -2.4833   -1.8060 H   0  0  0  0  0  0  0  0  0  0  0  0
    0.9331   -3.1740   -2.2144 H   0  0  0  0  0  0  0  0  0  0  0  0
    1.6352   -0.2194   -3.9840 H   0  0  0  0  0  0  0  0  0  0  0  0
    2.2910    0.5815   -2.5564 H   0  0  0  0  0  0  0  0  0  0  0  0
    2.8887   -1.0454   -2.9823 H   0  0  0  0  0  0  0  0  0  0  0  0
   -4.3644    0.5299   -2.6678 H   0  0  0  0  0  0  0  0  0  0  0  0
   -6.4937   -0.2397   -1.6425 H   0  0  0  0  0  0  0  0  0  0  0  0
   -4.3579   -2.0744    1.5322 H   0  0  0  0  0  0  0  0  0  0  0  0
   -2.2303   -1.3200    0.4989 H   0  0  0  0  0  0  0  0  0  0  0  0
   -6.4746   -3.7588   -0.1083 H   0  0  0  0  0  0  0  0  0  0  0  0
   -5.8799   -3.4578    1.5934 H   0  0  0  0  0  0  0  0  0  0  0  0
   -7.6245   -3.6349    1.2575 H   0  0  0  0  0  0  0  0  0  0  0  0
   -8.2181   -2.2002   -0.8768 H   0  0  0  0  0  0  0  0  0  0  0  0
   -8.9193   -1.5849    0.6576 H   0  0  0  0  0  0  0  0  0  0  0  0
   -8.1276   -0.4109   -0.4573 H   0  0  0  0  0  0  0  0  0  0  0  0
   -7.8727   -1.5661    2.4531 H   0  0  0  0  0  0  0  0  0  0  0  0
   -6.0989   -1.5328    2.6481 H   0  0  0  0  0  0  0  0  0  0  0  0
   -7.0021   -0.0520    2.0245 H   0  0  0  0  0  0  0  0  0  0  0  0
    1.2572    4.2703    0.5447 H   0  0  0  0  0  0  0  0  0  0  0  0
    1.0483    4.3705   -1.1939 H   0  0  0  0  0  0  0  0  0  0  0  0
   -2.1735    3.6385    0.4722 H   0  0  0  0  0  0  0  0  0  0  0  0
   -3.9286    5.2678    0.6803 H   0  0  0  0  0  0  0  0  0  0  0  0
   -3.3940    7.6983    0.2108 H   0  0  0  0  0  0  0  0  0  0  0  0
   -1.1609    8.3374   -0.4380 H   0  0  0  0  0  0  0  0  0  0  0  0
  1  2  1  0
  2  3  1  0
  3  4  2  0
  4  5  1  0
  5  6  1  0
  5  7  2  0
  7  8  1  0
  8  9  2  0
  8 10  1  0
 10 11  2  0
 11 12  1  0
 12 13  2  0
 13 14  1  0
 14 15  2  0
 14 16  1  0
 16 17  1  0
 17 18  1  0
 18 19  1  0
 19 20  2  0
 19 21  1  0
 21 22  1  0
 22 23  1  0
 22 24  1  0
 18 25  1  0
 25 26  2  0
 26 27  1  0
 27 28  2  0
 28 29  1  0
 29 30  2  0
 28 31  1  0
 31 32  1  0
 31 33  1  0
 31 34  1  0
 17 35  1  0
 35 36  2  0
 35 37  1  0
 37 38  1  0
 38 39  1  0
 39 40  2  0
 40 41  1  0
 41 42  2  0
 42 43  1  0
 43 44  2  0
  9  3  1  0
 15 10  1  0
 22 16  1  0
 30 25  1  0
 44 39  1  0
  1 45  1  0
  1 46  1  0
  1 47  1  0
  4 48  1  0
  6 49  1  0
  6 50  1  0
  6 51  1  0
  7 52  1  0
  9 53  1  0
 11 54  1  0
 13 55  1  0
 15 56  1  0
 16 57  1  0
 17 58  1  0
 18 59  1  0
 23 60  1  0
 23 61  1  0
 23 62  1  0
 24 63  1  0
 24 64  1  0
 24 65  1  0
 26 66  1  0
 27 67  1  0
 29 68  1  0
 30 69  1  0
 32 70  1  0
 32 71  1  0
 32 72  1  0
 33 73  1  0
 33 74  1  0
 33 75  1  0
 34 76  1  0
 34 77  1  0
 34 78  1  0
 38 79  1  0
 38 80  1  0
 40 81  1  0
 41 82  1  0
 42 83  1  0
 43 84  1  0
M  END
$$$$
[H]c1nc(C([H])([H])C([H])(C(=O)N2C([H])([H])C([H])([H])C3(N([H])C(=O)N([H])C3([H])[H])C([H])([H])C2([H])[H])N([H])C(=O)c2c([H])c3c(c(C([H])([H])[H])c2[H])OC2([H])C([H])([H])C([H])([H])N3C([H])([H])C2([H])[H])n([H])c1[H]
     RDKit          3D

 70 75  0  0  0  0  0  0  0  0999 V2000
   -4.2524   -0.3327    3.2697 C   0  0  0  0  0  0  0  0  0  0  0  0
   -3.9578   -0.2958    1.8179 C   0  0  0  0  0  0  0  0  0  0  0  0
   -2.6855   -0.5519    1.3422 C   0  0  0  0  0  0  0  0  0  0  0  0
   -2.3720   -0.5272    0.0040 C   0  0  0  0  0  0  0  0  0  0  0  0
   -3.3639   -0.2347   -0.9196 C   0  0  0  0  0  0  0  0  0  0  0  0
   -4.6251    0.0245   -0.5195 C   0  0  0  0  0  0  0  0  0  0  0  0
   -5.7802    0.3429   -1.2312 N   0  0  0  0  0  0  0  0  0  0  0  0
   -6.3595    1.6819   -1.4376 C   0  0  0  0  0  0  0  0  0  0  0  0
   -7.2108    1.8812   -0.1393 C   0  0  0  0  0  0  0  0  0  0  0  0
   -7.3424    0.6001    0.6451 C   0  0  0  0  0  0  0  0  0  0  0  0
   -7.7378   -0.5559   -0.2443 C   0  0  0  0  0  0  0  0  0  0  0  0
   -6.8875   -0.5706   -1.5687 C   0  0  0  0  0  0  0  0  0  0  0  0
   -6.2192    0.2475    1.4307 O   0  0  0  0  0  0  0  0  0  0  0  0
   -4.9279   -0.0110    0.9343 C   0  0  0  0  0  0  0  0  0  0  0  0
   -1.0133   -0.7750   -0.5174 C   0  0  0  0  0  0  0  0  0  0  0  0
   -0.9715   -1.2113   -1.6799 O   0  0  0  0  0  0  0  0  0  0  0  0
    0.0996   -0.5146    0.2901 N   0  0  0  0  0  0  0  0  0  0  0  0
    1.5015   -0.6625    0.0898 C   0  0  0  0  0  0  0  0  0  0  0  0
    1.7955   -1.5532   -1.0988 C   0  0  0  0  0  0  0  0  0  0  0  0
    1.2867   -2.9396   -0.8762 C   0  0  0  0  0  0  0  0  0  0  0  0
    1.3113   -3.9412   -1.7666 N   0  0  0  0  0  0  0  0  0  0  0  0
    0.8067   -5.0547   -1.2348 C   0  0  0  0  0  0  0  0  0  0  0  0
    0.4419   -4.7556    0.0532 C   0  0  0  0  0  0  0  0  0  0  0  0
    0.7444   -3.4613    0.2481 N   0  0  0  0  0  0  0  0  0  0  0  0
    2.2253    0.5977    0.0960 C   0  0  0  0  0  0  0  0  0  0  0  0
    1.4944    1.6564    0.1656 O   0  0  0  0  0  0  0  0  0  0  0  0
    3.6101    0.8213    0.0394 N   0  0  0  0  0  0  0  0  0  0  0  0
    4.6305   -0.1988   -0.0165 C   0  0  0  0  0  0  0  0  0  0  0  0
    5.8796    0.2597    0.7414 C   0  0  0  0  0  0  0  0  0  0  0  0
    6.4385    1.5213    0.1195 C   0  0  0  0  0  0  0  0  0  0  0  0
    7.6380    1.2618   -0.7436 C   0  0  0  0  0  0  0  0  0  0  0  0
    8.5694    2.3376   -0.3880 N   0  0  0  0  0  0  0  0  0  0  0  0
    8.0766    3.0655    0.7240 C   0  0  0  0  0  0  0  0  0  0  0  0
    8.6489    4.0952    1.1769 O   0  0  0  0  0  0  0  0  0  0  0  0
    6.8990    2.4091    1.1527 N   0  0  0  0  0  0  0  0  0  0  0  0
    5.3979    2.2480   -0.6988 C   0  0  0  0  0  0  0  0  0  0  0  0
    4.0956    2.1999    0.0375 C   0  0  0  0  0  0  0  0  0  0  0  0
   -3.3480   -0.0645    3.8762 H   0  0  0  0  0  0  0  0  0  0  0  0
   -5.0354    0.4117    3.5612 H   0  0  0  0  0  0  0  0  0  0  0  0
   -4.6104   -1.3462    3.5431 H   0  0  0  0  0  0  0  0  0  0  0  0
   -1.8727   -0.7908    2.0405 H   0  0  0  0  0  0  0  0  0  0  0  0
   -3.1759   -0.2020   -1.9845 H   0  0  0  0  0  0  0  0  0  0  0  0
   -5.7441    2.5395   -1.5131 H   0  0  0  0  0  0  0  0  0  0  0  0
   -7.0662    1.7403   -2.2832 H   0  0  0  0  0  0  0  0  0  0  0  0
   -8.2069    2.2271   -0.4243 H   0  0  0  0  0  0  0  0  0  0  0  0
   -6.7283    2.6342    0.4919 H   0  0  0  0  0  0  0  0  0  0  0  0
   -8.1856    0.7640    1.3617 H   0  0  0  0  0  0  0  0  0  0  0  0
   -7.5546   -1.5038    0.2763 H   0  0  0  0  0  0  0  0  0  0  0  0
   -8.8010   -0.4967   -0.5097 H   0  0  0  0  0  0  0  0  0  0  0  0
   -6.7001   -1.5968   -1.7696 H   0  0  0  0  0  0  0  0  0  0  0  0
   -7.5129   -0.2263   -2.4149 H   0  0  0  0  0  0  0  0  0  0  0  0
   -0.1343   -0.1133    1.2786 H   0  0  0  0  0  0  0  0  0  0  0  0
    1.8834   -1.2764    1.0045 H   0  0  0  0  0  0  0  0  0  0  0  0
    2.8809   -1.6758   -1.2991 H   0  0  0  0  0  0  0  0  0  0  0  0
    1.3667   -1.1499   -2.0265 H   0  0  0  0  0  0  0  0  0  0  0  0
    0.7112   -6.0123   -1.7462 H   0  0  0  0  0  0  0  0  0  0  0  0
    0.0019   -5.4488    0.7434 H   0  0  0  0  0  0  0  0  0  0  0  0
    0.5834   -2.9320    1.1415 H   0  0  0  0  0  0  0  0  0  0  0  0
    4.2875   -1.0989    0.5280 H   0  0  0  0  0  0  0  0  0  0  0  0
    4.9091   -0.5015   -1.0460 H   0  0  0  0  0  0  0  0  0  0  0  0
    6.6222   -0.5542    0.6350 H   0  0  0  0  0  0  0  0  0  0  0  0
    5.6394    0.3656    1.8075 H   0  0  0  0  0  0  0  0  0  0  0  0
    8.1091    0.2832   -0.5315 H   0  0  0  0  0  0  0  0  0  0  0  0
    7.4012    1.3780   -1.8171 H   0  0  0  0  0  0  0  0  0  0  0  0
    9.4695    2.4975   -0.9261 H   0  0  0  0  0  0  0  0  0  0  0  0
    6.4421    2.5448    2.0620 H   0  0  0  0  0  0  0  0  0  0  0  0
    5.6761    3.3184   -0.8391 H   0  0  0  0  0  0  0  0  0  0  0  0
    5.2660    1.7430   -1.6671 H   0  0  0  0  0  0  0  0  0  0  0  0
    3.3397    2.8432   -0.4894 H   0  0  0  0  0  0  0  0  0  0  0  0
    4.2021    2.5959    1.0686 H   0  0  0  0  0  0  0  0  0  0  0  0
  1  2  1  0
  2  3  2  0
  3  4  1  0
  4  5  2  0
  5  6  1  0
  6  7  1  0
  7  8  1  0
  8  9  1  0
  9 10  1  0
 10 11  1  0
 11 12  1  0
 10 13  1  0
 13 14  1  0
  4 15  1  0
 15 16  2  0
 15 17  1  0
 17 18  1  0
 18 19  1  0
 19 20  1  0
 20 21  2  0
 21 22  1  0
 22 23  2  0
 23 24  1  0
 18 25  1  0
 25 26  2  0
 25 27  1  0
 27 28  1  0
 28 29  1  0
 29 30  1  0
 30 31  1  0
 31 32  1  0
 32 33  1  0
 33 34  2  0
 33 35  1  0
 30 36  1  0
 36 37  1  0
 14  2  1  0
 24 20  1  0
 37 27  1  0
 14  6  2  0
 35 30  1  0
 12  7  1  0
  1 38  1  0
  1 39  1  0
  1 40  1  0
  3 41  1  0
  5 42  1  0
  8 43  1  0
  8 44  1  0
  9 45  1  0
  9 46  1  0
 10 47  1  0
 11 48  1  0
 11 49  1  0
 12 50  1  0
 12 51  1  0
 17 52  1  0
 18 53  1  0
 19 54  1  0
 19 55  1  0
 22 56  1  0
 23 57  1  0
 24 58  1  0
 28 59  1  0
 28 60  1  0
 29 61  1  0
 29 62  1  0
 31 63  1  0
 31 64  1  0
 32 65  1  0
 35 66  1  0
 36 67  1  0
 36 68  1  0
 37 69  1  0
 37 70  1  0
M  END
$$$$
[H]c1nc(N([H])C2(c3c([H])c(F)c([H])c(F)c3[H])C([H])([H])C2([H])[H])nc([H])c1-c1nnc(C([H])(F)F)s1
     RDKit          3D

 37 40  0  0  0  0  0  0  0  0999 V2000
    8.7385    1.3861    0.8550 F   0  0  0  0  0  0  0  0  0  0  0  0
    8.2755    0.1810    0.3183 C   0  0  0  0  0  0  0  0  0  0  0  0
    8.9903   -0.1184   -0.8102 F   0  0  0  0  0  0  0  0  0  0  0  0
    6.8129    0.3745    0.0009 C   0  0  0  0  0  0  0  0  0  0  0  0
    6.2684    1.2103   -0.8756 N   0  0  0  0  0  0  0  0  0  0  0  0
    5.0186    1.2497   -1.0207 N   0  0  0  0  0  0  0  0  0  0  0  0
    4.2429    0.4407   -0.2832 C   0  0  0  0  0  0  0  0  0  0  0  0
    5.4156   -0.3847    0.6367 S   0  0  0  0  0  0  0  0  0  0  0  0
    2.7804    0.3658   -0.3368 C   0  0  0  0  0  0  0  0  0  0  0  0
    2.0625    1.1798   -1.1816 C   0  0  0  0  0  0  0  0  0  0  0  0
    0.7274    1.1012   -1.2180 N   0  0  0  0  0  0  0  0  0  0  0  0
    0.0094    0.2283   -0.4378 C   0  0  0  0  0  0  0  0  0  0  0  0
   -1.4081    0.2151   -0.5331 N   0  0  0  0  0  0  0  0  0  0  0  0
   -2.3188   -0.6202    0.1896 C   0  0  0  0  0  0  0  0  0  0  0  0
   -2.1435   -2.0849   -0.0974 C   0  0  0  0  0  0  0  0  0  0  0  0
   -1.9886   -1.4927    1.3052 C   0  0  0  0  0  0  0  0  0  0  0  0
   -3.7462   -0.1147    0.1441 C   0  0  0  0  0  0  0  0  0  0  0  0
   -4.0205    1.1264    0.6777 C   0  0  0  0  0  0  0  0  0  0  0  0
   -5.3021    1.6310    0.6524 C   0  0  0  0  0  0  0  0  0  0  0  0
   -5.5595    2.8518    1.1769 F   0  0  0  0  0  0  0  0  0  0  0  0
   -6.3578    0.9231    0.0973 C   0  0  0  0  0  0  0  0  0  0  0  0
   -6.0644   -0.3243   -0.4351 C   0  0  0  0  0  0  0  0  0  0  0  0
   -7.0889   -1.0165   -0.9750 F   0  0  0  0  0  0  0  0  0  0  0  0
   -4.7739   -0.8364   -0.4120 C   0  0  0  0  0  0  0  0  0  0  0  0
    0.7375   -0.5450    0.3684 N   0  0  0  0  0  0  0  0  0  0  0  0
    2.0909   -0.5121    0.4508 C   0  0  0  0  0  0  0  0  0  0  0  0
    8.4199   -0.5854    1.0738 H   0  0  0  0  0  0  0  0  0  0  0  0
    2.6046    1.8666   -1.7977 H   0  0  0  0  0  0  0  0  0  0  0  0
   -1.8472    0.9044   -1.2256 H   0  0  0  0  0  0  0  0  0  0  0  0
   -1.2283   -2.4264   -0.6376 H   0  0  0  0  0  0  0  0  0  0  0  0
   -2.9725   -2.7802   -0.1786 H   0  0  0  0  0  0  0  0  0  0  0  0
   -1.0218   -1.7130    1.7354 H   0  0  0  0  0  0  0  0  0  0  0  0
   -2.8273   -1.7089    2.0324 H   0  0  0  0  0  0  0  0  0  0  0  0
   -3.1913    1.6854    1.1141 H   0  0  0  0  0  0  0  0  0  0  0  0
   -7.3716    1.2976    0.0634 H   0  0  0  0  0  0  0  0  0  0  0  0
   -4.6032   -1.7925   -0.8299 H   0  0  0  0  0  0  0  0  0  0  0  0
    2.6403   -1.1625    1.1233 H   0  0  0  0  0  0  0  0  0  0  0  0
  1  2  1  0
  2  3  1  0
  2  4  1  0
  4  5  2  0
  5  6  1  0
  6  7  2  0
  7  8  1  0
  7  9  1  0
  9 10  2  0
 10 11  1  0
 11 12  2  0
 12 13  1  0
 13 14  1  0
 14 15  1  0
 15 16  1  0
 14 17  1  0
 17 18  2  0
 18 19  1  0
 19 20  1  0
 19 21  2  0
 21 22  1  0
 22 23  1  0
 22 24  2  0
 12 25  1  0
 25 26  2  0
  8  4  1  0
 26  9  1  0
 16 14  1  0
 24 17  1  0
  2 27  1  0
 10 28  1  0
 13 29  1  0
 15 30  1  0
 15 31  1  0
 16 32  1  0
 16 33  1  0
 18 34  1  0
 21 35  1  0
 24 36  1  0
 26 37  1  0
M  END
$$$$
[H]N=C(N([H])[H])N([H])C([H])([H])C([H])([H])C([H])([H])[C@@]([H])(C(=O)c1nc2c([H])c([H])c([H])c([H])c2s1)N([H])C(=O)[C@@]([H])(N([H])C(=O)[C@@]([H])(N([H])C(=O)C([H])([H])[H])C([H])([H])C([H])([H])C(=O)N([H])[H])C([H])([H])C([H])(C([H])([H])[H])C([H])([H])[H]
     RDKit          3D

 78 79  0  0  0  0  0  0  0  0999 V2000
   -2.5450   -0.0749    2.9916 C   0  0  0  0  0  0  0  0  0  0  0  0
   -1.0991    0.3437    2.9683 C   0  0  0  0  0  0  0  0  0  0  0  0
   -0.7565    0.6688    4.4385 C   0  0  0  0  0  0  0  0  0  0  0  0
   -0.7665    1.5436    2.1831 C   0  0  0  0  0  0  0  0  0  0  0  0
   -1.0192    1.5890    0.7399 C   0  0  2  0  0  0  0  0  0  0  0  0
   -2.3797    1.4409    0.3564 N   0  0  0  0  0  0  0  0  0  0  0  0
   -2.9855    0.7725   -0.6914 C   0  0  0  0  0  0  0  0  0  0  0  0
   -2.4369    0.0570   -1.5838 O   0  0  0  0  0  0  0  0  0  0  0  0
   -4.4944    0.8363   -0.9021 C   0  0  2  0  0  0  0  0  0  0  0  0
   -5.2418    0.5489    0.4140 C   0  0  0  0  0  0  0  0  0  0  0  0
   -6.7115    0.6547    0.0357 C   0  0  0  0  0  0  0  0  0  0  0  0
   -7.6188    0.3983    1.1447 C   0  0  0  0  0  0  0  0  0  0  0  0
   -9.0018    0.6743    1.0305 N   0  0  0  0  0  0  0  0  0  0  0  0
   -7.1929   -0.0725    2.2257 O   0  0  0  0  0  0  0  0  0  0  0  0
   -4.9256   -0.0669   -1.8433 N   0  0  0  0  0  0  0  0  0  0  0  0
   -5.3570   -0.9530   -2.7755 C   0  0  0  0  0  0  0  0  0  0  0  0
   -4.7601   -2.3395   -2.8854 C   0  0  0  0  0  0  0  0  0  0  0  0
   -6.2731   -0.7443   -3.6391 O   0  0  0  0  0  0  0  0  0  0  0  0
    0.0117    0.9896   -0.1039 C   0  0  0  0  0  0  0  0  0  0  0  0
   -0.0524    1.0238   -1.3428 O   0  0  0  0  0  0  0  0  0  0  0  0
    1.1311    0.3451    0.4638 N   0  0  0  0  0  0  0  0  0  0  0  0
    2.1648   -0.2538   -0.4076 C   0  0  1  0  0  0  0  0  0  0  0  0
    3.3876    0.6684   -0.3591 C   0  0  0  0  0  0  0  0  0  0  0  0
    3.8920    0.7903    1.0593 C   0  0  0  0  0  0  0  0  0  0  0  0
    5.0891    1.7400    1.1048 C   0  0  0  0  0  0  0  0  0  0  0  0
    4.6876    3.0548    0.6323 N   0  0  0  0  0  0  0  0  0  0  0  0
    5.4967    4.1925    0.5410 C   0  0  0  0  0  0  0  0  0  0  0  0
    5.7209    4.7615   -0.7595 N   0  0  0  0  0  0  0  0  0  0  0  0
    6.0451    4.7674    1.5411 N   0  0  0  0  0  0  0  0  0  0  0  0
    2.4920   -1.6217    0.0124 C   0  0  0  0  0  0  0  0  0  0  0  0
    2.0632   -2.0722    1.0836 O   0  0  0  0  0  0  0  0  0  0  0  0
    3.3367   -2.4187   -0.8834 C   0  0  0  0  0  0  0  0  0  0  0  0
    3.8213   -3.6218   -0.7856 N   0  0  0  0  0  0  0  0  0  0  0  0
    4.5293   -4.1471   -1.7382 C   0  0  0  0  0  0  0  0  0  0  0  0
    5.1033   -5.4197   -1.7574 C   0  0  0  0  0  0  0  0  0  0  0  0
    5.8223   -5.8490   -2.8228 C   0  0  0  0  0  0  0  0  0  0  0  0
    6.0555   -5.0853   -3.9709 C   0  0  0  0  0  0  0  0  0  0  0  0
    5.4903   -3.8338   -3.9489 C   0  0  0  0  0  0  0  0  0  0  0  0
    4.7493   -3.3840   -2.8595 C   0  0  0  0  0  0  0  0  0  0  0  0
    3.9103   -1.9532   -2.4512 S   0  0  0  0  0  0  0  0  0  0  0  0
   -2.7078   -0.7039    3.9235 H   0  0  0  0  0  0  0  0  0  0  0  0
   -3.2468    0.7732    3.0671 H   0  0  0  0  0  0  0  0  0  0  0  0
   -2.8021   -0.7527    2.1477 H   0  0  0  0  0  0  0  0  0  0  0  0
   -0.4600   -0.5464    2.7601 H   0  0  0  0  0  0  0  0  0  0  0  0
    0.3139    0.6225    4.6220 H   0  0  0  0  0  0  0  0  0  0  0  0
   -1.2607   -0.0682    5.1227 H   0  0  0  0  0  0  0  0  0  0  0  0
   -1.1754    1.6716    4.7124 H   0  0  0  0  0  0  0  0  0  0  0  0
    0.3308    1.8190    2.3355 H   0  0  0  0  0  0  0  0  0  0  0  0
   -1.3728    2.3966    2.6403 H   0  0  0  0  0  0  0  0  0  0  0  0
   -0.8384    2.7347    0.4459 H   0  0  0  0  0  0  0  0  0  0  0  0
   -3.0464    1.9707    1.0370 H   0  0  0  0  0  0  0  0  0  0  0  0
   -4.7321    1.9389   -1.0544 H   0  0  0  0  0  0  0  0  0  0  0  0
   -4.9989    1.3893    1.1203 H   0  0  0  0  0  0  0  0  0  0  0  0
   -5.0638   -0.4466    0.8116 H   0  0  0  0  0  0  0  0  0  0  0  0
   -6.8647   -0.1855   -0.7100 H   0  0  0  0  0  0  0  0  0  0  0  0
   -6.9145    1.6000   -0.5263 H   0  0  0  0  0  0  0  0  0  0  0  0
   -9.7455    0.2854    1.6555 H   0  0  0  0  0  0  0  0  0  0  0  0
   -9.2958    1.3247    0.2476 H   0  0  0  0  0  0  0  0  0  0  0  0
   -5.9005    0.8325   -2.2228 H   0  0  0  0  0  0  0  0  0  0  0  0
   -5.3903   -2.9355   -3.5484 H   0  0  0  0  0  0  0  0  0  0  0  0
   -3.7436   -2.2609   -3.3693 H   0  0  0  0  0  0  0  0  0  0  0  0
   -4.6995   -2.7537   -1.8642 H   0  0  0  0  0  0  0  0  0  0  0  0
    1.3214    0.2489    1.4754 H   0  0  0  0  0  0  0  0  0  0  0  0
    1.7890   -0.1490   -1.4405 H   0  0  0  0  0  0  0  0  0  0  0  0
    4.1792    0.1880   -0.9430 H   0  0  0  0  0  0  0  0  0  0  0  0
    3.0878    1.6205   -0.7834 H   0  0  0  0  0  0  0  0  0  0  0  0
    3.0853    1.2754    1.6418 H   0  0  0  0  0  0  0  0  0  0  0  0
    4.1207   -0.1683    1.5315 H   0  0  0  0  0  0  0  0  0  0  0  0
    5.4297    1.8594    2.1511 H   0  0  0  0  0  0  0  0  0  0  0  0
    5.8675    1.3445    0.4464 H   0  0  0  0  0  0  0  0  0  0  0  0
    3.6770    3.1991    0.3110 H   0  0  0  0  0  0  0  0  0  0  0  0
    6.3379    4.3275   -1.4490 H   0  0  0  0  0  0  0  0  0  0  0  0
    5.1973    5.6569   -0.9449 H   0  0  0  0  0  0  0  0  0  0  0  0
    6.6380    5.5966    1.4772 H   0  0  0  0  0  0  0  0  0  0  0  0
    4.9729   -6.1051   -0.8964 H   0  0  0  0  0  0  0  0  0  0  0  0
    6.2723   -6.8546   -2.8393 H   0  0  0  0  0  0  0  0  0  0  0  0
    6.6334   -5.5145   -4.7517 H   0  0  0  0  0  0  0  0  0  0  0  0
    5.6235   -3.1813   -4.7954 H   0  0  0  0  0  0  0  0  0  0  0  0
  1  2  1  0
  2  3  1  0
  2  4  1  0
  4  5  1  0
  5  6  1  0
  6  7  1  0
  7  8  2  0
  7  9  1  0
  9 10  1  0
 10 11  1  0
 11 12  1  0
 12 13  1  0
 12 14  2  0
  9 15  1  0
 15 16  1  0
 16 17  1  0
 16 18  2  0
  5 19  1  0
 19 20  2  0
 19 21  1  0
 21 22  1  0
 22 23  1  0
 23 24  1  0
 24 25  1  0
 25 26  1  0
 26 27  1  0
 27 28  1  0
 27 29  2  3
 22 30  1  0
 30 31  2  0
 30 32  1  0
 32 33  2  0
 33 34  1  0
 34 35  2  0
 35 36  1  0
 36 37  2  0
 37 38  1  0
 38 39  2  0
 39 40  1  0
 40 32  1  0
 39 34  1  0
  1 41  1  0
  1 42  1  0
  1 43  1  0
  2 44  1  0
  3 45  1  0
  3 46  1  0
  3 47  1  0
  4 48  1  0
  4 49  1  0
  5 50  1  6
  6 51  1  0
  9 52  1  6
 10 53  1  0
 10 54  1  0
 11 55  1  0
 11 56  1  0
 13 57  1  0
 13 58  1  0
 15 59  1  0
 17 60  1  0
 17 61  1  0
 17 62  1  0
 21 63  1  0
 22 64  1  6
 23 65  1  0
 23 66  1  0
 24 67  1  0
 24 68  1  0
 25 69  1  0
 25 70  1  0
 26 71  1  0
 28 72  1  0
 28 73  1  0
 29 74  1  0
 35 75  1  0
 36 76  1  0
 37 77  1  0
 38 78  1  0
M  END
$$$$
[H]c1c(OC([H])([H])C([H])([H])[H])c([H])c2c(c1[H])c([H])c([H])c1c([H])c(C([H])([H])[H])oc12
     RDKit          3D

 31 33  0  0  0  0  0  0  0  0999 V2000
    5.2986    1.0957    0.1044 C   0  0  0  0  0  0  0  0  0  0  0  0
    4.1882    0.0790    0.1510 C   0  0  0  0  0  0  0  0  0  0  0  0
    2.9073    0.6832    0.0991 O   0  0  0  0  0  0  0  0  0  0  0  0
    1.8135   -0.1727    0.1364 C   0  0  0  0  0  0  0  0  0  0  0  0
    1.9253   -1.5438    0.2194 C   0  0  0  0  0  0  0  0  0  0  0  0
    0.8049   -2.3679    0.2544 C   0  0  0  0  0  0  0  0  0  0  0  0
   -0.4170   -1.7553    0.2027 C   0  0  0  0  0  0  0  0  0  0  0  0
   -1.5589   -2.5425    0.2353 C   0  0  0  0  0  0  0  0  0  0  0  0
   -2.8059   -1.9380    0.1838 C   0  0  0  0  0  0  0  0  0  0  0  0
   -2.9126   -0.5677    0.1009 C   0  0  0  0  0  0  0  0  0  0  0  0
   -3.9801    0.3035    0.0357 C   0  0  0  0  0  0  0  0  0  0  0  0
   -3.4648    1.5734   -0.0334 C   0  0  0  0  0  0  0  0  0  0  0  0
   -4.1803    2.8709   -0.1195 C   0  0  0  0  0  0  0  0  0  0  0  0
   -2.1434    1.4838   -0.0115 O   0  0  0  0  0  0  0  0  0  0  0  0
   -1.7875    0.2271    0.0677 C   0  0  0  0  0  0  0  0  0  0  0  0
   -0.5468   -0.3907    0.1199 C   0  0  0  0  0  0  0  0  0  0  0  0
    0.5655    0.4181    0.0857 C   0  0  0  0  0  0  0  0  0  0  0  0
    5.5090    1.3688   -0.9388 H   0  0  0  0  0  0  0  0  0  0  0  0
    4.9248    1.9940    0.6787 H   0  0  0  0  0  0  0  0  0  0  0  0
    6.2223    0.7111    0.5798 H   0  0  0  0  0  0  0  0  0  0  0  0
    4.2269   -0.5229    1.0739 H   0  0  0  0  0  0  0  0  0  0  0  0
    4.2279   -0.6287   -0.7118 H   0  0  0  0  0  0  0  0  0  0  0  0
    2.9160   -1.9667    0.2569 H   0  0  0  0  0  0  0  0  0  0  0  0
    0.8890   -3.4450    0.3196 H   0  0  0  0  0  0  0  0  0  0  0  0
   -1.4453   -3.6030    0.2998 H   0  0  0  0  0  0  0  0  0  0  0  0
   -3.6876   -2.5409    0.2087 H   0  0  0  0  0  0  0  0  0  0  0  0
   -5.0266    0.0652    0.0368 H   0  0  0  0  0  0  0  0  0  0  0  0
   -4.0348    3.4023    0.8358 H   0  0  0  0  0  0  0  0  0  0  0  0
   -3.6765    3.4498   -0.9467 H   0  0  0  0  0  0  0  0  0  0  0  0
   -5.2271    2.7475   -0.4093 H   0  0  0  0  0  0  0  0  0  0  0  0
    0.4759    1.5122    0.0195 H   0  0  0  0  0  0  0  0  0  0  0  0
  1  2  1  0
  2  3  1  0
  3  4  1  0
  4  5  2  0
  5  6  1  0
  6  7  2  0
  7  8  1  0
  8  9  2  0
  9 10  1  0
 10 11  1  0
 11 12  2  0
 12 13  1  0
 12 14  1  0
 14 15  1  0
 15 16  1  0
 16 17  2  0
 17  4  1  0
 16  7  1  0
 15 10  2  0
  1 18  1  0
  1 19  1  0
  1 20  1  0
  2 21  1  0
  2 22  1  0
  5 23  1  0
  6 24  1  0
  8 25  1  0
  9 26  1  0
 11 27  1  0
 13 28  1  0
 13 29  1  0
 13 30  1  0
 17 31  1  0
M  END
$$$$
[H]N=C(N([H])[H])N([H])C([H])([H])C([H])([H])C([H])([H])[C@@]([H])(C(=O)N([H])[C@]([H])(C(=O)N([H])[C@]([H])(C(=O)O[H])C([H])([H])C([H])([H])C(=O)N([H])[H])C([H])([H])C([H])([H])C([H])([H])N=C(N([H])[H])N([H])[H])N([H])C(=O)[C@@]([H])(N([H])C(=O)[C@]([H])(N([H])C(=O)C1([H])N=C(c2c([H])c([H])c([H])c([H])c2[H])c2c([H])c([H])c([H])c([H])c2N([H])C1=O)C([H])([H])O[H])C([H])([H])C([H])([H])C(=O)N([H])[H]
     RDKit          3D

124126  0  0  0  0  0  0  0  0999 V2000
   -5.5195    5.9987   -2.1913 N   0  0  0  0  0  0  0  0  0  0  0  0
   -4.6741    6.4766   -1.1527 C   0  0  0  0  0  0  0  0  0  0  0  0
   -4.2753    7.7222   -1.1111 N   0  0  0  0  0  0  0  0  0  0  0  0
   -4.2645    5.5766   -0.1424 N   0  0  0  0  0  0  0  0  0  0  0  0
   -2.8850    5.4095    0.1786 C   0  0  0  0  0  0  0  0  0  0  0  0
   -2.0695    4.7356   -0.9188 C   0  0  0  0  0  0  0  0  0  0  0  0
   -2.5759    3.3817   -1.2352 C   0  0  0  0  0  0  0  0  0  0  0  0
   -2.4880    2.4152   -0.0902 C   0  0  2  0  0  0  0  0  0  0  0  0
   -1.2047    2.0706    0.3820 N   0  0  0  0  0  0  0  0  0  0  0  0
    0.0676    2.0620   -0.1935 C   0  0  0  0  0  0  0  0  0  0  0  0
    0.2303    2.4334   -1.3816 O   0  0  0  0  0  0  0  0  0  0  0  0
    1.2375    1.6125    0.5321 C   0  0  2  0  0  0  0  0  0  0  0  0
    1.6866    2.2520    1.7787 C   0  0  0  0  0  0  0  0  0  0  0  0
    2.1102    3.6474    1.8323 C   0  0  0  0  0  0  0  0  0  0  0  0
    1.1326    4.7155    1.6244 C   0  0  0  0  0  0  0  0  0  0  0  0
    1.4446    5.8725    0.8143 N   0  0  0  0  0  0  0  0  0  0  0  0
   -0.0213    4.7079    2.1309 O   0  0  0  0  0  0  0  0  0  0  0  0
    2.4061    1.4748   -0.3846 N   0  0  0  0  0  0  0  0  0  0  0  0
    3.0888    0.2569   -0.4501 C   0  0  0  0  0  0  0  0  0  0  0  0
    2.6779   -0.7101    0.2875 O   0  0  0  0  0  0  0  0  0  0  0  0
    4.2684   -0.0673   -1.2899 C   0  0  1  0  0  0  0  0  0  0  0  0
    4.8601    1.0392   -2.0522 C   0  0  0  0  0  0  0  0  0  0  0  0
    5.5507    1.9721   -1.2979 O   0  0  0  0  0  0  0  0  0  0  0  0
    5.2462   -0.8610   -0.5594 N   0  0  0  0  0  0  0  0  0  0  0  0
    5.5432   -0.5802    0.7967 C   0  0  0  0  0  0  0  0  0  0  0  0
    4.9541    0.3905    1.3804 O   0  0  0  0  0  0  0  0  0  0  0  0
    6.4923   -1.3243    1.6152 C   0  0  0  0  0  0  0  0  0  0  0  0
    7.1737   -2.4176    0.9742 N   0  0  0  0  0  0  0  0  0  0  0  0
    8.1945   -2.4594    0.1340 C   0  0  0  0  0  0  0  0  0  0  0  0
    8.6522   -3.7208   -0.3203 C   0  0  0  0  0  0  0  0  0  0  0  0
    7.8488   -4.8255    0.0350 C   0  0  0  0  0  0  0  0  0  0  0  0
    8.2392   -6.1113   -0.2193 C   0  0  0  0  0  0  0  0  0  0  0  0
    9.4584   -6.3830   -0.8448 C   0  0  0  0  0  0  0  0  0  0  0  0
   10.2507   -5.3246   -1.1936 C   0  0  0  0  0  0  0  0  0  0  0  0
    9.8177   -4.0323   -0.9173 C   0  0  0  0  0  0  0  0  0  0  0  0
    8.7659   -1.2375   -0.4022 C   0  0  0  0  0  0  0  0  0  0  0  0
    9.0997   -1.3614   -1.7329 C   0  0  0  0  0  0  0  0  0  0  0  0
    9.6891   -0.3216   -2.4106 C   0  0  0  0  0  0  0  0  0  0  0  0
    9.9284    0.8552   -1.6939 C   0  0  0  0  0  0  0  0  0  0  0  0
    9.5944    0.9926   -0.3635 C   0  0  0  0  0  0  0  0  0  0  0  0
    9.0104   -0.0496    0.2873 C   0  0  0  0  0  0  0  0  0  0  0  0
    8.5887    0.2338    1.6426 N   0  0  0  0  0  0  0  0  0  0  0  0
    7.4507   -0.3726    2.2514 C   0  0  0  0  0  0  0  0  0  0  0  0
    7.2349   -0.0728    3.4450 O   0  0  0  0  0  0  0  0  0  0  0  0
   -3.2464    1.1765   -0.5100 C   0  0  0  0  0  0  0  0  0  0  0  0
   -2.6253    0.3321   -1.1698 O   0  0  0  0  0  0  0  0  0  0  0  0
   -4.5752    1.0494   -0.1369 N   0  0  0  0  0  0  0  0  0  0  0  0
   -5.5137   -0.0319   -0.4330 C   0  0  1  0  0  0  0  0  0  0  0  0
   -4.8314   -1.1824   -1.0544 C   0  0  0  0  0  0  0  0  0  0  0  0
   -5.7772   -2.2895   -1.4950 C   0  0  0  0  0  0  0  0  0  0  0  0
   -4.9096   -3.4098   -2.0943 C   0  0  0  0  0  0  0  0  0  0  0  0
   -3.9603   -3.9033   -1.1264 N   0  0  0  0  0  0  0  0  0  0  0  0
   -3.6243   -5.1520   -1.0577 C   0  0  0  0  0  0  0  0  0  0  0  0
   -2.6889   -5.5604   -0.0854 N   0  0  0  0  0  0  0  0  0  0  0  0
   -4.2105   -6.0573   -1.9551 N   0  0  0  0  0  0  0  0  0  0  0  0
   -6.2601   -0.2417    0.8124 C   0  0  0  0  0  0  0  0  0  0  0  0
   -6.7903    0.8163    1.3558 O   0  0  0  0  0  0  0  0  0  0  0  0
   -6.4354   -1.4598    1.4631 N   0  0  0  0  0  0  0  0  0  0  0  0
   -7.2200   -1.5210    2.7168 C   0  0  1  0  0  0  0  0  0  0  0  0
   -8.2791   -2.5534    2.6135 C   0  0  0  0  0  0  0  0  0  0  0  0
   -9.2660   -2.3382    1.4979 C   0  0  0  0  0  0  0  0  0  0  0  0
  -10.0117   -1.0852    1.6078 C   0  0  0  0  0  0  0  0  0  0  0  0
  -10.8449   -0.6442    0.5493 N   0  0  0  0  0  0  0  0  0  0  0  0
   -9.9467   -0.3630    2.6290 O   0  0  0  0  0  0  0  0  0  0  0  0
   -6.2395   -1.8806    3.7919 C   0  0  0  0  0  0  0  0  0  0  0  0
   -6.6993   -2.0475    5.1073 O   0  0  0  0  0  0  0  0  0  0  0  0
   -5.0444   -2.0274    3.5203 O   0  0  0  0  0  0  0  0  0  0  0  0
   -6.4738    5.6276   -2.0177 H   0  0  0  0  0  0  0  0  0  0  0  0
   -5.1667    6.0223   -3.1605 H   0  0  0  0  0  0  0  0  0  0  0  0
   -4.5480    8.4238   -1.8230 H   0  0  0  0  0  0  0  0  0  0  0  0
   -4.9905    5.0329    0.3666 H   0  0  0  0  0  0  0  0  0  0  0  0
   -2.7278    4.8485    1.1345 H   0  0  0  0  0  0  0  0  0  0  0  0
   -2.4303    6.4251    0.3341 H   0  0  0  0  0  0  0  0  0  0  0  0
   -1.0351    4.7542   -0.5894 H   0  0  0  0  0  0  0  0  0  0  0  0
   -2.1274    5.3646   -1.8355 H   0  0  0  0  0  0  0  0  0  0  0  0
   -3.6620    3.4704   -1.5570 H   0  0  0  0  0  0  0  0  0  0  0  0
   -2.0111    2.9476   -2.1004 H   0  0  0  0  0  0  0  0  0  0  0  0
   -3.1172    2.8897    0.7405 H   0  0  0  0  0  0  0  0  0  0  0  0
   -1.2261    1.7364    1.4321 H   0  0  0  0  0  0  0  0  0  0  0  0
    1.0137    0.5242    0.8234 H   0  0  0  0  0  0  0  0  0  0  0  0
    0.7932    2.1664    2.5023 H   0  0  0  0  0  0  0  0  0  0  0  0
    2.4395    1.5895    2.3380 H   0  0  0  0  0  0  0  0  0  0  0  0
    2.5220    3.8193    2.8894 H   0  0  0  0  0  0  0  0  0  0  0  0
    3.0402    3.8507    1.2151 H   0  0  0  0  0  0  0  0  0  0  0  0
    0.7151    6.5522    0.5471 H   0  0  0  0  0  0  0  0  0  0  0  0
    2.4267    5.9865    0.5175 H   0  0  0  0  0  0  0  0  0  0  0  0
    2.6801    2.2909   -0.9481 H   0  0  0  0  0  0  0  0  0  0  0  0
    3.8349   -0.8243   -2.0391 H   0  0  0  0  0  0  0  0  0  0  0  0
    4.0851    1.5032   -2.6972 H   0  0  0  0  0  0  0  0  0  0  0  0
    5.6016    0.6045   -2.7719 H   0  0  0  0  0  0  0  0  0  0  0  0
    5.5243    2.8329   -1.8268 H   0  0  0  0  0  0  0  0  0  0  0  0
    5.7439   -1.6557   -1.0275 H   0  0  0  0  0  0  0  0  0  0  0  0
    5.9133   -1.7898    2.4701 H   0  0  0  0  0  0  0  0  0  0  0  0
    6.8887   -4.6740    0.5234 H   0  0  0  0  0  0  0  0  0  0  0  0
    7.6413   -6.9841    0.0453 H   0  0  0  0  0  0  0  0  0  0  0  0
    9.8025   -7.3755   -1.0605 H   0  0  0  0  0  0  0  0  0  0  0  0
   11.2061   -5.4533   -1.6802 H   0  0  0  0  0  0  0  0  0  0  0  0
   10.5265   -3.2474   -1.1717 H   0  0  0  0  0  0  0  0  0  0  0  0
    8.8352   -2.2905   -2.2612 H   0  0  0  0  0  0  0  0  0  0  0  0
    9.9472   -0.4321   -3.4557 H   0  0  0  0  0  0  0  0  0  0  0  0
   10.3933    1.6847   -2.2094 H   0  0  0  0  0  0  0  0  0  0  0  0
    9.7697    1.8876    0.2114 H   0  0  0  0  0  0  0  0  0  0  0  0
    9.1671    0.9176    2.1233 H   0  0  0  0  0  0  0  0  0  0  0  0
   -5.0304    1.8354    0.4469 H   0  0  0  0  0  0  0  0  0  0  0  0
   -6.1939    0.3807   -1.2670 H   0  0  0  0  0  0  0  0  0  0  0  0
   -4.3680   -0.8152   -2.0278 H   0  0  0  0  0  0  0  0  0  0  0  0
   -4.0377   -1.6500   -0.4580 H   0  0  0  0  0  0  0  0  0  0  0  0
   -6.3339   -1.8062   -2.3896 H   0  0  0  0  0  0  0  0  0  0  0  0
   -6.4885   -2.6103   -0.7909 H   0  0  0  0  0  0  0  0  0  0  0  0
   -4.3360   -2.9574   -2.9244 H   0  0  0  0  0  0  0  0  0  0  0  0
   -5.5891   -4.2160   -2.4220 H   0  0  0  0  0  0  0  0  0  0  0  0
   -1.6601   -5.6391   -0.2787 H   0  0  0  0  0  0  0  0  0  0  0  0
   -2.9726   -5.8072    0.8896 H   0  0  0  0  0  0  0  0  0  0  0  0
   -4.3332   -5.8147   -2.9799 H   0  0  0  0  0  0  0  0  0  0  0  0
   -4.5547   -7.0135   -1.6491 H   0  0  0  0  0  0  0  0  0  0  0  0
   -6.0306   -2.3718    1.1919 H   0  0  0  0  0  0  0  0  0  0  0  0
   -7.6094   -0.5260    2.9098 H   0  0  0  0  0  0  0  0  0  0  0  0
   -7.7651   -3.5389    2.4184 H   0  0  0  0  0  0  0  0  0  0  0  0
   -8.8465   -2.6298    3.5667 H   0  0  0  0  0  0  0  0  0  0  0  0
   -9.9700   -3.2278    1.4450 H   0  0  0  0  0  0  0  0  0  0  0  0
   -8.6630   -2.3094    0.5426 H   0  0  0  0  0  0  0  0  0  0  0  0
  -11.0082    0.3672    0.3208 H   0  0  0  0  0  0  0  0  0  0  0  0
  -11.3206   -1.3587   -0.0354 H   0  0  0  0  0  0  0  0  0  0  0  0
   -6.9005   -3.0159    5.3897 H   0  0  0  0  0  0  0  0  0  0  0  0
  1  2  1  0
  2  3  2  3
  2  4  1  0
  4  5  1  0
  5  6  1  0
  6  7  1  0
  7  8  1  0
  8  9  1  0
  9 10  1  0
 10 11  2  0
 10 12  1  0
 12 13  1  0
 13 14  1  0
 14 15  1  0
 15 16  1  0
 15 17  2  0
 12 18  1  0
 18 19  1  0
 19 20  2  0
 19 21  1  0
 21 22  1  0
 22 23  1  0
 21 24  1  0
 24 25  1  0
 25 26  2  0
 25 27  1  0
 27 28  1  0
 28 29  2  0
 29 30  1  0
 30 31  2  0
 31 32  1  0
 32 33  2  0
 33 34  1  0
 34 35  2  0
 29 36  1  0
 36 37  2  0
 37 38  1  0
 38 39  2  0
 39 40  1  0
 40 41  2  0
 41 42  1  0
 42 43  1  0
 43 44  2  0
  8 45  1  0
 45 46  2  0
 45 47  1  0
 47 48  1  0
 48 49  1  0
 49 50  1  0
 50 51  1  0
 51 52  1  0
 52 53  2  3
 53 54  1  0
 53 55  1  0
 48 56  1  0
 56 57  2  0
 56 58  1  0
 58 59  1  0
 59 60  1  0
 60 61  1  0
 61 62  1  0
 62 63  1  0
 62 64  2  0
 59 65  1  0
 65 66  1  0
 65 67  2  0
 43 27  1  0
 35 30  1  0
 41 36  1  0
  1 68  1  0
  1 69  1  0
  3 70  1  0
  4 71  1  0
  5 72  1  0
  5 73  1  0
  6 74  1  0
  6 75  1  0
  7 76  1  0
  7 77  1  0
  8 78  1  1
  9 79  1  0
 12 80  1  1
 13 81  1  0
 13 82  1  0
 14 83  1  0
 14 84  1  0
 16 85  1  0
 16 86  1  0
 18 87  1  0
 21 88  1  6
 22 89  1  0
 22 90  1  0
 23 91  1  0
 24 92  1  0
 27 93  1  0
 31 94  1  0
 32 95  1  0
 33 96  1  0
 34 97  1  0
 35 98  1  0
 37 99  1  0
 38100  1  0
 39101  1  0
 40102  1  0
 42103  1  0
 47104  1  0
 48105  1  6
 49106  1  0
 49107  1  0
 50108  1  0
 50109  1  0
 51110  1  0
 51111  1  0
 54112  1  0
 54113  1  0
 55114  1  0
 55115  1  0
 58116  1  0
 59117  1  1
 60118  1  0
 60119  1  0
 61120  1  0
 61121  1  0
 63122  1  0
 63123  1  0
 66124  1  0
M  END
$$$$
[H]c1nc(N([H])[H])c2nc(C([H])([H])[H])n(C([H])([H])C([H])([H])N(C([H])([H])[H])C3([H])C([H])([H])C([H])([H])N(C(=O)c4c([H])c(F)c([H])c(F)c4[H])C([H])([H])C3([H])[H])c2n1
     RDKit          3D

 56 59  0  0  0  0  0  0  0  0999 V2000
   -0.3354   -0.2677    2.0844 C   0  0  0  0  0  0  0  0  0  0  0  0
   -0.6395   -0.3111    0.7162 N   0  0  0  0  0  0  0  0  0  0  0  0
   -1.9396    0.0058    0.2762 C   0  0  0  0  0  0  0  0  0  0  0  0
   -3.0354   -0.9456    0.6142 C   0  0  0  0  0  0  0  0  0  0  0  0
   -4.2796   -0.3894    0.0636 N   0  0  0  0  0  0  0  0  0  0  0  0
   -4.8210   -0.5726   -1.1491 C   0  0  0  0  0  0  0  0  0  0  0  0
   -4.2009   -1.4223   -2.2158 C   0  0  0  0  0  0  0  0  0  0  0  0
   -5.9867    0.1226   -1.2452 N   0  0  0  0  0  0  0  0  0  0  0  0
   -6.1664    0.7413   -0.0798 C   0  0  0  0  0  0  0  0  0  0  0  0
   -7.1736    1.5782    0.3825 C   0  0  0  0  0  0  0  0  0  0  0  0
   -8.2850    1.9271   -0.4314 N   0  0  0  0  0  0  0  0  0  0  0  0
   -7.0368    2.0339    1.6375 N   0  0  0  0  0  0  0  0  0  0  0  0
   -6.0131    1.7393    2.4550 C   0  0  0  0  0  0  0  0  0  0  0  0
   -5.0389    0.9332    2.0130 N   0  0  0  0  0  0  0  0  0  0  0  0
   -5.1098    0.4398    0.7658 C   0  0  0  0  0  0  0  0  0  0  0  0
    0.3909   -0.3842   -0.2359 C   0  0  0  0  0  0  0  0  0  0  0  0
    1.3011    0.8065   -0.2591 C   0  0  0  0  0  0  0  0  0  0  0  0
    2.7160    0.5249    0.2008 C   0  0  0  0  0  0  0  0  0  0  0  0
    3.3242   -0.5505   -0.5176 N   0  0  0  0  0  0  0  0  0  0  0  0
    2.3465   -1.4386   -1.2142 C   0  0  0  0  0  0  0  0  0  0  0  0
    1.2031   -1.6747   -0.2227 C   0  0  0  0  0  0  0  0  0  0  0  0
    4.6761   -0.8651   -0.6330 C   0  0  0  0  0  0  0  0  0  0  0  0
    4.8841   -1.9124   -1.4012 O   0  0  0  0  0  0  0  0  0  0  0  0
    5.8646   -0.2852   -0.0945 C   0  0  0  0  0  0  0  0  0  0  0  0
    5.9132    0.7332    0.8209 C   0  0  0  0  0  0  0  0  0  0  0  0
    7.0974    1.2968    1.2914 C   0  0  0  0  0  0  0  0  0  0  0  0
    7.0888    2.3082    2.1998 F   0  0  0  0  0  0  0  0  0  0  0  0
    8.2839    0.8180    0.8262 C   0  0  0  0  0  0  0  0  0  0  0  0
    8.3121   -0.2036   -0.0924 C   0  0  0  0  0  0  0  0  0  0  0  0
    9.4982   -0.6931   -0.5681 F   0  0  0  0  0  0  0  0  0  0  0  0
    7.1296   -0.7312   -0.5325 C   0  0  0  0  0  0  0  0  0  0  0  0
   -0.3458   -1.2458    2.6083 H   0  0  0  0  0  0  0  0  0  0  0  0
   -1.1119    0.3740    2.5982 H   0  0  0  0  0  0  0  0  0  0  0  0
    0.6194    0.2322    2.2653 H   0  0  0  0  0  0  0  0  0  0  0  0
   -2.2259    1.0040    0.7036 H   0  0  0  0  0  0  0  0  0  0  0  0
   -1.9447    0.1531   -0.8241 H   0  0  0  0  0  0  0  0  0  0  0  0
   -2.9199   -1.9529    0.1800 H   0  0  0  0  0  0  0  0  0  0  0  0
   -3.1303   -1.0902    1.7012 H   0  0  0  0  0  0  0  0  0  0  0  0
   -4.3844   -0.8440   -3.1684 H   0  0  0  0  0  0  0  0  0  0  0  0
   -4.7598   -2.3675   -2.3356 H   0  0  0  0  0  0  0  0  0  0  0  0
   -3.1258   -1.5261   -2.0705 H   0  0  0  0  0  0  0  0  0  0  0  0
   -8.4334    2.9419   -0.6212 H   0  0  0  0  0  0  0  0  0  0  0  0
   -8.9462    1.2528   -0.8457 H   0  0  0  0  0  0  0  0  0  0  0  0
   -5.9821    2.1620    3.4784 H   0  0  0  0  0  0  0  0  0  0  0  0
   -0.1202   -0.4097   -1.2511 H   0  0  0  0  0  0  0  0  0  0  0  0
    1.3758    1.2083   -1.2846 H   0  0  0  0  0  0  0  0  0  0  0  0
    0.8881    1.5576    0.4521 H   0  0  0  0  0  0  0  0  0  0  0  0
    3.2796    1.4567   -0.1328 H   0  0  0  0  0  0  0  0  0  0  0  0
    2.7968    0.4888    1.2929 H   0  0  0  0  0  0  0  0  0  0  0  0
    2.8424   -2.3508   -1.5161 H   0  0  0  0  0  0  0  0  0  0  0  0
    1.9752   -0.8325   -2.0531 H   0  0  0  0  0  0  0  0  0  0  0  0
    0.6398   -2.5401   -0.5846 H   0  0  0  0  0  0  0  0  0  0  0  0
    1.6434   -1.8910    0.7418 H   0  0  0  0  0  0  0  0  0  0  0  0
    5.0226    1.1493    1.2496 H   0  0  0  0  0  0  0  0  0  0  0  0
    9.2256    1.2451    1.1789 H   0  0  0  0  0  0  0  0  0  0  0  0
    7.1535   -1.5367   -1.2560 H   0  0  0  0  0  0  0  0  0  0  0  0
  1  2  1  0
  2  3  1  0
  3  4  1  0
  4  5  1  0
  5  6  1  0
  6  7  1  0
  6  8  2  0
  8  9  1  0
  9 10  2  0
 10 11  1  0
 10 12  1  0
 12 13  2  0
 13 14  1  0
 14 15  2  0
  2 16  1  0
 16 17  1  0
 17 18  1  0
 18 19  1  0
 19 20  1  0
 20 21  1  0
 19 22  1  0
 22 23  2  0
 22 24  1  0
 24 25  2  0
 25 26  1  0
 26 27  1  0
 26 28  2  0
 28 29  1  0
 29 30  1  0
 29 31  2  0
 15  5  1  0
 21 16  1  0
 31 24  1  0
 15  9  1  0
  1 32  1  0
  1 33  1  0
  1 34  1  0
  3 35  1  0
  3 36  1  0
  4 37  1  0
  4 38  1  0
  7 39  1  0
  7 40  1  0
  7 41  1  0
 11 42  1  0
 11 43  1  0
 13 44  1  0
 16 45  1  0
 17 46  1  0
 17 47  1  0
 18 48  1  0
 18 49  1  0
 20 50  1  0
 20 51  1  0
 21 52  1  0
 21 53  1  0
 25 54  1  0
 28 55  1  0
 31 56  1  0
M  END
$$$$
[H]c1nc([H])c(-c2nc(-c3noc(=O)n3[H])c(C([H])([H])[H])c3nc(N(C([H])([H])[H])C([H])([H])C([H])(C([H])([H])[H])C([H])([H])[H])n(C([H])([H])[C@]4([H])C([H])([H])C([H])([H])[C@@]([H])(C([H])([H])[H])C([H])([H])C4([H])[H])c23)c([H])c1Cl
     RDKit          3D

 71 75  0  0  0  0  0  0  0  0999 V2000
   -4.8018   -2.6545    0.1642 C   0  0  0  0  0  0  0  0  0  0  0  0
   -4.7532   -1.1484    0.0438 C   0  0  1  0  0  0  0  0  0  0  0  0
   -4.3678   -0.5157    1.3385 C   0  0  0  0  0  0  0  0  0  0  0  0
   -3.0101   -0.9661    1.7582 C   0  0  0  0  0  0  0  0  0  0  0  0
   -1.9379   -0.7005    0.6718 C   0  0  2  0  0  0  0  0  0  0  0  0
   -0.7791   -0.0431    1.3591 C   0  0  0  0  0  0  0  0  0  0  0  0
    0.3637    0.3034    0.5832 N   0  0  0  0  0  0  0  0  0  0  0  0
    0.6213    1.5144    0.0226 C   0  0  0  0  0  0  0  0  0  0  0  0
    1.7542    1.4118   -0.6811 N   0  0  0  0  0  0  0  0  0  0  0  0
    2.2458    0.1832   -0.5994 C   0  0  0  0  0  0  0  0  0  0  0  0
    3.3718   -0.4176   -1.1581 C   0  0  0  0  0  0  0  0  0  0  0  0
    4.2138    0.4694   -1.9904 C   0  0  0  0  0  0  0  0  0  0  0  0
    3.6753   -1.7218   -0.9490 C   0  0  0  0  0  0  0  0  0  0  0  0
    2.8038   -2.4028   -0.1524 N   0  0  0  0  0  0  0  0  0  0  0  0
    1.6944   -1.8661    0.4175 C   0  0  0  0  0  0  0  0  0  0  0  0
    0.9093   -2.7418    1.2324 C   0  0  0  0  0  0  0  0  0  0  0  0
    0.3234   -3.8512    0.6795 C   0  0  0  0  0  0  0  0  0  0  0  0
   -0.2969   -4.7528    1.4434 N   0  0  0  0  0  0  0  0  0  0  0  0
   -0.3918   -4.6430    2.7856 C   0  0  0  0  0  0  0  0  0  0  0  0
    0.1804   -3.5475    3.3857 C   0  0  0  0  0  0  0  0  0  0  0  0
    0.0849   -3.3588    5.1230 Cl  0  0  0  0  0  0  0  0  0  0  0  0
    0.8292   -2.6055    2.5814 C   0  0  0  0  0  0  0  0  0  0  0  0
    1.3760   -0.5500    0.2082 C   0  0  0  0  0  0  0  0  0  0  0  0
    4.8136   -2.4292   -1.4873 C   0  0  0  0  0  0  0  0  0  0  0  0
    5.0496   -3.7577   -1.2275 N   0  0  0  0  0  0  0  0  0  0  0  0
    6.1202   -4.1262   -1.8275 O   0  0  0  0  0  0  0  0  0  0  0  0
    6.6555   -3.1466   -2.4934 C   0  0  0  0  0  0  0  0  0  0  0  0
    7.7011   -3.1413   -3.1945 O   0  0  0  0  0  0  0  0  0  0  0  0
    5.8058   -2.0747   -2.2621 N   0  0  0  0  0  0  0  0  0  0  0  0
   -0.1440    2.7336    0.1697 N   0  0  0  0  0  0  0  0  0  0  0  0
   -0.0593    3.3591    1.4996 C   0  0  0  0  0  0  0  0  0  0  0  0
   -0.8986    3.3561   -0.8622 C   0  0  0  0  0  0  0  0  0  0  0  0
   -0.3775    4.6403   -1.4005 C   0  0  0  0  0  0  0  0  0  0  0  0
    1.0016    4.5233   -1.9994 C   0  0  0  0  0  0  0  0  0  0  0  0
   -0.5259    5.8230   -0.4770 C   0  0  0  0  0  0  0  0  0  0  0  0
   -2.6365    0.1230   -0.3653 C   0  0  0  0  0  0  0  0  0  0  0  0
   -3.7081   -0.7821   -0.9817 C   0  0  0  0  0  0  0  0  0  0  0  0
   -5.1042   -3.1119   -0.7950 H   0  0  0  0  0  0  0  0  0  0  0  0
   -3.7655   -2.9971    0.3769 H   0  0  0  0  0  0  0  0  0  0  0  0
   -5.4995   -2.9849    0.9629 H   0  0  0  0  0  0  0  0  0  0  0  0
   -5.7287   -0.7488   -0.3460 H   0  0  0  0  0  0  0  0  0  0  0  0
   -5.0752   -0.8722    2.1207 H   0  0  0  0  0  0  0  0  0  0  0  0
   -4.5037    0.5828    1.2922 H   0  0  0  0  0  0  0  0  0  0  0  0
   -3.0561   -2.0268    2.0323 H   0  0  0  0  0  0  0  0  0  0  0  0
   -2.7511   -0.4083    2.6814 H   0  0  0  0  0  0  0  0  0  0  0  0
   -1.7692   -1.6743    0.2293 H   0  0  0  0  0  0  0  0  0  0  0  0
   -0.6544   -0.3177    2.3990 H   0  0  0  0  0  0  0  0  0  0  0  0
   -1.2688    1.0190    1.5610 H   0  0  0  0  0  0  0  0  0  0  0  0
    4.2758    0.1526   -3.0425 H   0  0  0  0  0  0  0  0  0  0  0  0
    3.7928    1.5204   -1.9547 H   0  0  0  0  0  0  0  0  0  0  0  0
    5.2349    0.5636   -1.5707 H   0  0  0  0  0  0  0  0  0  0  0  0
    0.3628   -3.9981   -0.3791 H   0  0  0  0  0  0  0  0  0  0  0  0
   -0.9043   -5.3967    3.3785 H   0  0  0  0  0  0  0  0  0  0  0  0
    1.2583   -1.7654    3.1270 H   0  0  0  0  0  0  0  0  0  0  0  0
    6.0358   -1.1719   -2.7005 H   0  0  0  0  0  0  0  0  0  0  0  0
    0.7478    4.1429    1.4270 H   0  0  0  0  0  0  0  0  0  0  0  0
    0.3119    2.6497    2.2689 H   0  0  0  0  0  0  0  0  0  0  0  0
   -0.9675    3.8594    1.8111 H   0  0  0  0  0  0  0  0  0  0  0  0
   -1.9405    3.5140   -0.4509 H   0  0  0  0  0  0  0  0  0  0  0  0
   -1.0219    2.6045   -1.6907 H   0  0  0  0  0  0  0  0  0  0  0  0
   -1.0442    4.8908   -2.2878 H   0  0  0  0  0  0  0  0  0  0  0  0
    1.2126    5.3933   -2.6887 H   0  0  0  0  0  0  0  0  0  0  0  0
    1.0612    3.6378   -2.6359 H   0  0  0  0  0  0  0  0  0  0  0  0
    1.8112    4.5440   -1.2444 H   0  0  0  0  0  0  0  0  0  0  0  0
    0.4711    6.0204   -0.0199 H   0  0  0  0  0  0  0  0  0  0  0  0
   -0.8283    6.7443   -1.0211 H   0  0  0  0  0  0  0  0  0  0  0  0
   -1.3141    5.6628    0.2831 H   0  0  0  0  0  0  0  0  0  0  0  0
   -1.9568    0.3640   -1.2324 H   0  0  0  0  0  0  0  0  0  0  0  0
   -3.0268    1.0773   -0.0205 H   0  0  0  0  0  0  0  0  0  0  0  0
   -3.1657   -1.6778   -1.3517 H   0  0  0  0  0  0  0  0  0  0  0  0
   -4.1356   -0.2872   -1.8774 H   0  0  0  0  0  0  0  0  0  0  0  0
  1  2  1  0
  2  3  1  0
  3  4  1  0
  4  5  1  0
  5  6  1  0
  6  7  1  0
  7  8  1  0
  8  9  2  0
  9 10  1  0
 10 11  2  0
 11 12  1  0
 11 13  1  0
 13 14  2  0
 14 15  1  0
 15 16  1  0
 16 17  2  0
 17 18  1  0
 18 19  2  0
 19 20  1  0
 20 21  1  0
 20 22  2  0
 15 23  2  0
 13 24  1  0
 24 25  2  0
 25 26  1  0
 26 27  1  0
 27 28  2  0
 27 29  1  0
  8 30  1  0
 30 31  1  0
 30 32  1  0
 32 33  1  0
 33 34  1  0
 33 35  1  0
  5 36  1  0
 36 37  1  0
 37  2  1  0
 23  7  1  0
 29 24  1  0
 23 10  1  0
 22 16  1  0
  1 38  1  0
  1 39  1  0
  1 40  1  0
  2 41  1  6
  3 42  1  0
  3 43  1  0
  4 44  1  0
  4 45  1  0
  5 46  1  6
  6 47  1  0
  6 48  1  0
 12 49  1  0
 12 50  1  0
 12 51  1  0
 17 52  1  0
 19 53  1  0
 22 54  1  0
 29 55  1  0
 31 56  1  0
 31 57  1  0
 31 58  1  0
 32 59  1  0
 32 60  1  0
 33 61  1  0
 34 62  1  0
 34 63  1  0
 34 64  1  0
 35 65  1  0
 35 66  1  0
 35 67  1  0
 36 68  1  0
 36 69  1  0
 37 70  1  0
 37 71  1  0
M  END
$$$$
[H]ON([H])C(=O)C([H])([H])N([C@@]1([H])C(=O)[C@@]([H])(OC(=O)N([H])C([H])([H])C([H])([H])C([H])([H])C([H])(C([H])([H])[H])C([H])([H])[H])[C@]([H])(O[H])C1([H])[H])S(=O)(=O)c1c([H])c([H])c([H])c([H])c1[H]
     RDKit          3D

 61 62  0  0  0  0  0  0  0  0999 V2000
    7.6277    0.0089   -1.1394 C   0  0  0  0  0  0  0  0  0  0  0  0
    6.2479   -0.5472   -1.3212 C   0  0  0  0  0  0  0  0  0  0  0  0
    5.3981    0.4302   -2.0794 C   0  0  0  0  0  0  0  0  0  0  0  0
    5.6121   -0.9462   -0.0041 C   0  0  0  0  0  0  0  0  0  0  0  0
    5.5063    0.2587    0.9137 C   0  0  0  0  0  0  0  0  0  0  0  0
    4.8758   -0.1300    2.2233 C   0  0  0  0  0  0  0  0  0  0  0  0
    3.5690   -0.6640    1.9960 N   0  0  0  0  0  0  0  0  0  0  0  0
    2.5140    0.0448    1.4228 C   0  0  0  0  0  0  0  0  0  0  0  0
    2.6633    1.2370    1.0683 O   0  0  0  0  0  0  0  0  0  0  0  0
    1.2677   -0.5955    1.2436 O   0  0  0  0  0  0  0  0  0  0  0  0
    0.2490    0.1797    0.6594 C   0  0  1  0  0  0  0  0  0  0  0  0
   -0.2861   -0.4135   -0.6079 C   0  0  2  0  0  0  0  0  0  0  0  0
    0.5311   -0.1628   -1.7040 O   0  0  0  0  0  0  0  0  0  0  0  0
   -1.6173    0.3375   -0.7367 C   0  0  0  0  0  0  0  0  0  0  0  0
   -2.1144    0.4654    0.7034 C   0  0  1  0  0  0  0  0  0  0  0  0
   -3.1864   -0.4234    0.9593 N   0  0  0  0  0  0  0  0  0  0  0  0
   -2.8740   -1.6780    1.5457 C   0  0  0  0  0  0  0  0  0  0  0  0
   -3.3322   -2.8372    0.7400 C   0  0  0  0  0  0  0  0  0  0  0  0
   -3.1040   -3.9942    1.1729 O   0  0  0  0  0  0  0  0  0  0  0  0
   -4.0118   -2.7055   -0.4889 N   0  0  0  0  0  0  0  0  0  0  0  0
   -4.4384   -3.7156   -1.2403 O   0  0  0  0  0  0  0  0  0  0  0  0
   -4.6704    0.2673    1.3592 S   0  0  0  0  0  0  0  0  0  0  0  0
   -5.6716   -0.8417    1.5849 O   0  0  0  0  0  0  0  0  0  0  0  0
   -4.6485    1.0857    2.6149 O   0  0  0  0  0  0  0  0  0  0  0  0
   -5.3284    1.2833    0.0942 C   0  0  0  0  0  0  0  0  0  0  0  0
   -6.1504    0.7329   -0.8627 C   0  0  0  0  0  0  0  0  0  0  0  0
   -6.6895    1.5033   -1.8779 C   0  0  0  0  0  0  0  0  0  0  0  0
   -6.4229    2.8452   -1.9663 C   0  0  0  0  0  0  0  0  0  0  0  0
   -5.6038    3.4162   -1.0205 C   0  0  0  0  0  0  0  0  0  0  0  0
   -5.0661    2.6310   -0.0021 C   0  0  0  0  0  0  0  0  0  0  0  0
   -0.9303    0.3227    1.5441 C   0  0  0  0  0  0  0  0  0  0  0  0
   -0.8609    0.3151    2.7517 O   0  0  0  0  0  0  0  0  0  0  0  0
    8.0373   -0.2204   -0.1289 H   0  0  0  0  0  0  0  0  0  0  0  0
    7.6178    1.1075   -1.3172 H   0  0  0  0  0  0  0  0  0  0  0  0
    8.3388   -0.4533   -1.8676 H   0  0  0  0  0  0  0  0  0  0  0  0
    6.2838   -1.4846   -1.9411 H   0  0  0  0  0  0  0  0  0  0  0  0
    5.4997    1.4701   -1.6740 H   0  0  0  0  0  0  0  0  0  0  0  0
    4.3207    0.0949   -2.0513 H   0  0  0  0  0  0  0  0  0  0  0  0
    5.6956    0.4739   -3.1385 H   0  0  0  0  0  0  0  0  0  0  0  0
    4.6294   -1.3904   -0.2167 H   0  0  0  0  0  0  0  0  0  0  0  0
    6.2300   -1.7148    0.5022 H   0  0  0  0  0  0  0  0  0  0  0  0
    4.9477    1.0810    0.4517 H   0  0  0  0  0  0  0  0  0  0  0  0
    6.5581    0.5973    1.1808 H   0  0  0  0  0  0  0  0  0  0  0  0
    4.7533    0.7892    2.8410 H   0  0  0  0  0  0  0  0  0  0  0  0
    5.5293   -0.8219    2.8011 H   0  0  0  0  0  0  0  0  0  0  0  0
    3.4048   -1.6684    2.2880 H   0  0  0  0  0  0  0  0  0  0  0  0
    0.5787    1.2209    0.4127 H   0  0  0  0  0  0  0  0  0  0  0  0
   -0.4562   -1.5037   -0.5491 H   0  0  0  0  0  0  0  0  0  0  0  0
    0.0321   -0.1755   -2.5586 H   0  0  0  0  0  0  0  0  0  0  0  0
   -2.2686   -0.2922   -1.3426 H   0  0  0  0  0  0  0  0  0  0  0  0
   -1.4234    1.3041   -1.2020 H   0  0  0  0  0  0  0  0  0  0  0  0
   -2.5013    1.5075    0.8262 H   0  0  0  0  0  0  0  0  0  0  0  0
   -3.3340   -1.8094    2.5675 H   0  0  0  0  0  0  0  0  0  0  0  0
   -1.7577   -1.7223    1.7116 H   0  0  0  0  0  0  0  0  0  0  0  0
   -4.1909   -1.7322   -0.8300 H   0  0  0  0  0  0  0  0  0  0  0  0
   -5.2822   -4.0632   -0.8254 H   0  0  0  0  0  0  0  0  0  0  0  0
   -6.3744   -0.3350   -0.8088 H   0  0  0  0  0  0  0  0  0  0  0  0
   -7.3230    1.0389   -2.6017 H   0  0  0  0  0  0  0  0  0  0  0  0
   -6.8286    3.4869   -2.7515 H   0  0  0  0  0  0  0  0  0  0  0  0
   -5.3505    4.4498   -1.0217 H   0  0  0  0  0  0  0  0  0  0  0  0
   -4.4212    3.0549    0.7513 H   0  0  0  0  0  0  0  0  0  0  0  0
  1  2  1  0
  2  3  1  0
  2  4  1  0
  4  5  1  0
  5  6  1  0
  6  7  1  0
  7  8  1  0
  8  9  2  0
  8 10  1  0
 10 11  1  0
 11 12  1  0
 12 13  1  0
 12 14  1  0
 14 15  1  0
 15 16  1  0
 16 17  1  0
 17 18  1  0
 18 19  2  0
 18 20  1  0
 20 21  1  0
 16 22  1  0
 22 23  2  0
 22 24  2  0
 22 25  1  0
 25 26  2  0
 26 27  1  0
 27 28  2  0
 28 29  1  0
 29 30  2  0
 15 31  1  0
 31 32  2  0
 31 11  1  0
 30 25  1  0
  1 33  1  0
  1 34  1  0
  1 35  1  0
  2 36  1  0
  3 37  1  0
  3 38  1  0
  3 39  1  0
  4 40  1  0
  4 41  1  0
  5 42  1  0
  5 43  1  0
  6 44  1  0
  6 45  1  0
  7 46  1  0
 11 47  1  6
 12 48  1  1
 13 49  1  0
 14 50  1  0
 14 51  1  0
 15 52  1  6
 17 53  1  0
 17 54  1  0
 20 55  1  0
 21 56  1  0
 26 57  1  0
 27 58  1  0
 28 59  1  0
 29 60  1  0
 30 61  1  0
M  END
$$$$
[H]OC1([H])C([H])([H])C([H])(C#Cc2nc(N([H])[H])nc([H])c2-c2c([H])c([H])c([H])c([H])c2OC([H])([H])C(F)(F)F)C1([H])[H]
     RDKit          3D

 42 44  0  0  0  0  0  0  0  0999 V2000
    1.8940    4.9790    1.0538 N   0  0  0  0  0  0  0  0  0  0  0  0
    1.7381    3.5615    1.0158 C   0  0  0  0  0  0  0  0  0  0  0  0
    2.7758    2.7072    0.9724 N   0  0  0  0  0  0  0  0  0  0  0  0
    2.6623    1.3702    0.9368 C   0  0  0  0  0  0  0  0  0  0  0  0
    1.3741    0.8423    0.9459 C   0  0  0  0  0  0  0  0  0  0  0  0
    0.2874    1.6827    0.9891 C   0  0  0  0  0  0  0  0  0  0  0  0
    0.4898    3.0099    1.0233 N   0  0  0  0  0  0  0  0  0  0  0  0
   -1.0814    1.2527    0.9764 C   0  0  0  0  0  0  0  0  0  0  0  0
   -2.2260    0.8918    0.9388 C   0  0  0  0  0  0  0  0  0  0  0  0
   -3.5873    0.4393    0.9032 C   0  0  0  0  0  0  0  0  0  0  0  0
   -3.6990   -0.8913    0.1646 C   0  0  0  0  0  0  0  0  0  0  0  0
   -5.0822   -0.3907   -0.2765 C   0  0  0  0  0  0  0  0  0  0  0  0
   -5.4788   -0.8028   -1.5236 O   0  0  0  0  0  0  0  0  0  0  0  0
   -4.4590    1.0117   -0.2137 C   0  0  0  0  0  0  0  0  0  0  0  0
    1.1730   -0.5760    0.9303 C   0  0  0  0  0  0  0  0  0  0  0  0
    0.3620   -1.2186    1.8325 C   0  0  0  0  0  0  0  0  0  0  0  0
    0.2166   -2.5882    1.7759 C   0  0  0  0  0  0  0  0  0  0  0  0
    0.8950   -3.3022    0.8044 C   0  0  0  0  0  0  0  0  0  0  0  0
    1.7111   -2.6749   -0.1052 C   0  0  0  0  0  0  0  0  0  0  0  0
    1.8506   -1.3086   -0.0426 C   0  0  0  0  0  0  0  0  0  0  0  0
    2.6826   -0.6890   -0.9717 O   0  0  0  0  0  0  0  0  0  0  0  0
    3.3785   -1.4110   -1.9674 C   0  0  0  0  0  0  0  0  0  0  0  0
    4.2151   -0.4891   -2.8290 C   0  0  0  0  0  0  0  0  0  0  0  0
    5.1283    0.1521   -1.9896 F   0  0  0  0  0  0  0  0  0  0  0  0
    3.4496    0.4738   -3.4175 F   0  0  0  0  0  0  0  0  0  0  0  0
    4.9710   -1.2170   -3.7235 F   0  0  0  0  0  0  0  0  0  0  0  0
    1.1779    5.5856    0.6137 H   0  0  0  0  0  0  0  0  0  0  0  0
    2.7289    5.3842    1.5241 H   0  0  0  0  0  0  0  0  0  0  0  0
    3.5456    0.7419    0.9031 H   0  0  0  0  0  0  0  0  0  0  0  0
   -4.1339    0.3652    1.8569 H   0  0  0  0  0  0  0  0  0  0  0  0
   -3.7061   -1.7761    0.8001 H   0  0  0  0  0  0  0  0  0  0  0  0
   -3.0565   -0.9439   -0.7540 H   0  0  0  0  0  0  0  0  0  0  0  0
   -5.8451   -0.4657    0.5216 H   0  0  0  0  0  0  0  0  0  0  0  0
   -6.3912   -1.2214   -1.4158 H   0  0  0  0  0  0  0  0  0  0  0  0
   -5.1250    1.7827    0.1977 H   0  0  0  0  0  0  0  0  0  0  0  0
   -3.8377    1.2751   -1.0750 H   0  0  0  0  0  0  0  0  0  0  0  0
   -0.1783   -0.6704    2.6268 H   0  0  0  0  0  0  0  0  0  0  0  0
   -0.4065   -3.1565    2.4540 H   0  0  0  0  0  0  0  0  0  0  0  0
    0.8087   -4.3760    0.7261 H   0  0  0  0  0  0  0  0  0  0  0  0
    2.2507   -3.2427   -0.8787 H   0  0  0  0  0  0  0  0  0  0  0  0
    3.9388   -2.2719   -1.5868 H   0  0  0  0  0  0  0  0  0  0  0  0
    2.5884   -1.8246   -2.6586 H   0  0  0  0  0  0  0  0  0  0  0  0
  1  2  1  0
  2  3  2  0
  3  4  1  0
  4  5  2  0
  5  6  1  0
  6  7  2  0
  6  8  1  0
  8  9  3  0
  9 10  1  0
 10 11  1  0
 11 12  1  0
 12 13  1  0
 12 14  1  0
  5 15  1  0
 15 16  2  0
 16 17  1  0
 17 18  2  0
 18 19  1  0
 19 20  2  0
 20 21  1  0
 21 22  1  0
 22 23  1  0
 23 24  1  0
 23 25  1  0
 23 26  1  0
  7  2  1  0
 14 10  1  0
 20 15  1  0
  1 27  1  0
  1 28  1  0
  4 29  1  0
 10 30  1  0
 11 31  1  0
 11 32  1  0
 12 33  1  0
 13 34  1  0
 14 35  1  0
 14 36  1  0
 16 37  1  0
 17 38  1  0
 18 39  1  0
 19 40  1  0
 22 41  1  0
 22 42  1  0
M  END
$$$$
[H]Oc1c([H])c([H])c(-c2c([H])c([H])c(C([H])(C#N)C([H])([H])C([H])([H])C([H])([H])[H])c([H])c2[H])c([H])c1C(F)(F)F
     RDKit          3D

 39 40  0  0  0  0  0  0  0  0999 V2000
    5.9230   -0.0351   -0.1362 C   0  0  0  0  0  0  0  0  0  0  0  0
    5.2521   -1.3937   -0.1384 C   0  0  0  0  0  0  0  0  0  0  0  0
    3.7580   -1.2600   -0.4105 C   0  0  0  0  0  0  0  0  0  0  0  0
    3.1990   -0.3976    0.6990 C   0  0  0  0  0  0  0  0  0  0  0  0
    3.4282   -1.0187    1.9877 C   0  0  0  0  0  0  0  0  0  0  0  0
    3.6200   -1.5392    3.0242 N   0  0  0  0  0  0  0  0  0  0  0  0
    1.7505   -0.1116    0.5155 C   0  0  0  0  0  0  0  0  0  0  0  0
    1.2720    1.1709    0.2754 C   0  0  0  0  0  0  0  0  0  0  0  0
   -0.0604    1.4553    0.1038 C   0  0  0  0  0  0  0  0  0  0  0  0
   -0.9882    0.4388    0.1680 C   0  0  0  0  0  0  0  0  0  0  0  0
   -0.5468   -0.8492    0.4054 C   0  0  0  0  0  0  0  0  0  0  0  0
    0.7983   -1.1079    0.5744 C   0  0  0  0  0  0  0  0  0  0  0  0
   -2.4292    0.6890   -0.0087 C   0  0  0  0  0  0  0  0  0  0  0  0
   -2.9658    1.8967    0.4032 C   0  0  0  0  0  0  0  0  0  0  0  0
   -4.3089    2.1793    0.2604 C   0  0  0  0  0  0  0  0  0  0  0  0
   -5.1557    1.2470   -0.3052 C   0  0  0  0  0  0  0  0  0  0  0  0
   -6.5209    1.5046   -0.4629 O   0  0  0  0  0  0  0  0  0  0  0  0
   -4.5995    0.0512   -0.7082 C   0  0  0  0  0  0  0  0  0  0  0  0
   -3.2656   -0.2504   -0.5755 C   0  0  0  0  0  0  0  0  0  0  0  0
   -5.5001   -0.9703   -1.3222 C   0  0  0  0  0  0  0  0  0  0  0  0
   -4.7971   -2.1016   -1.6695 F   0  0  0  0  0  0  0  0  0  0  0  0
   -6.0643   -0.4298   -2.4512 F   0  0  0  0  0  0  0  0  0  0  0  0
   -6.5075   -1.2677   -0.4120 F   0  0  0  0  0  0  0  0  0  0  0  0
    5.9330    0.3912    0.8960 H   0  0  0  0  0  0  0  0  0  0  0  0
    5.4198    0.6925   -0.8098 H   0  0  0  0  0  0  0  0  0  0  0  0
    6.9621   -0.1792   -0.4750 H   0  0  0  0  0  0  0  0  0  0  0  0
    5.3617   -1.8145    0.8799 H   0  0  0  0  0  0  0  0  0  0  0  0
    5.6896   -2.0631   -0.8908 H   0  0  0  0  0  0  0  0  0  0  0  0
    3.3391   -2.2803   -0.3936 H   0  0  0  0  0  0  0  0  0  0  0  0
    3.5854   -0.8013   -1.3828 H   0  0  0  0  0  0  0  0  0  0  0  0
    3.7327    0.5932    0.6043 H   0  0  0  0  0  0  0  0  0  0  0  0
    2.0185    1.9584    0.2286 H   0  0  0  0  0  0  0  0  0  0  0  0
   -0.4263    2.4625   -0.0844 H   0  0  0  0  0  0  0  0  0  0  0  0
   -1.3001   -1.6510    0.4537 H   0  0  0  0  0  0  0  0  0  0  0  0
    1.1141   -2.1268    0.7585 H   0  0  0  0  0  0  0  0  0  0  0  0
   -2.2836    2.6116    0.8442 H   0  0  0  0  0  0  0  0  0  0  0  0
   -4.7137    3.1241    0.5852 H   0  0  0  0  0  0  0  0  0  0  0  0
   -6.8764    2.3920   -0.1519 H   0  0  0  0  0  0  0  0  0  0  0  0
   -2.8468   -1.2092   -0.9040 H   0  0  0  0  0  0  0  0  0  0  0  0
  1  2  1  0
  2  3  1  0
  3  4  1  0
  4  5  1  0
  5  6  3  0
  4  7  1  0
  7  8  2  0
  8  9  1  0
  9 10  2  0
 10 11  1  0
 11 12  2  0
 10 13  1  0
 13 14  2  0
 14 15  1  0
 15 16  2  0
 16 17  1  0
 16 18  1  0
 18 19  2  0
 18 20  1  0
 20 21  1  0
 20 22  1  0
 20 23  1  0
 12  7  1  0
 19 13  1  0
  1 24  1  0
  1 25  1  0
  1 26  1  0
  2 27  1  0
  2 28  1  0
  3 29  1  0
  3 30  1  0
  4 31  1  0
  8 32  1  0
  9 33  1  0
 11 34  1  0
 12 35  1  0
 14 36  1  0
 15 37  1  0
 17 38  1  0
 19 39  1  0
M  END
$$$$
[H]c1c([H])c([H])c(-c2c(C(=O)c3c(-c4c([H])c([H])c([H])c([H])c4C([H])([H])[H])nn(-c4c([H])c([H])c(C#N)c([H])c4[H])c3[H])c(C([H])([H])[H])nn2C([H])(C([H])([H])[H])C([H])([H])[H])c([H])c1[H]
     RDKit          3D

 64 68  0  0  0  0  0  0  0  0999 V2000
    3.6340   -2.2283   -2.1933 C   0  0  0  0  0  0  0  0  0  0  0  0
    2.8566   -3.0905   -1.2754 C   0  0  0  0  0  0  0  0  0  0  0  0
    2.8479   -4.4760   -1.4293 C   0  0  0  0  0  0  0  0  0  0  0  0
    2.1121   -5.2574   -0.5544 C   0  0  0  0  0  0  0  0  0  0  0  0
    1.3829   -4.6867    0.4697 C   0  0  0  0  0  0  0  0  0  0  0  0
    1.4234   -3.2956    0.5832 C   0  0  0  0  0  0  0  0  0  0  0  0
    2.1436   -2.4935   -0.2657 C   0  0  0  0  0  0  0  0  0  0  0  0
    2.1130   -1.0480   -0.0406 C   0  0  0  0  0  0  0  0  0  0  0  0
    3.1959   -0.2929    0.1378 N   0  0  0  0  0  0  0  0  0  0  0  0
    2.8594    0.9721    0.3524 N   0  0  0  0  0  0  0  0  0  0  0  0
    1.5298    1.0720    0.3168 C   0  0  0  0  0  0  0  0  0  0  0  0
    1.0227   -0.1778    0.0699 C   0  0  0  0  0  0  0  0  0  0  0  0
   -0.3336   -0.6502   -0.0936 C   0  0  0  0  0  0  0  0  0  0  0  0
   -0.4982   -1.5663   -0.9622 O   0  0  0  0  0  0  0  0  0  0  0  0
   -1.5194   -0.2344    0.6150 C   0  0  0  0  0  0  0  0  0  0  0  0
   -1.6552   -0.1169    2.0025 C   0  0  0  0  0  0  0  0  0  0  0  0
   -0.5285   -0.3133    2.9973 C   0  0  0  0  0  0  0  0  0  0  0  0
   -2.9088    0.2171    2.2831 N   0  0  0  0  0  0  0  0  0  0  0  0
   -3.6425    0.3322    1.1490 N   0  0  0  0  0  0  0  0  0  0  0  0
   -5.0473    0.5719    1.1519 C   0  0  0  0  0  0  0  0  0  0  0  0
   -5.5639    0.5539    2.6149 C   0  0  0  0  0  0  0  0  0  0  0  0
   -5.6021    1.7705    0.5144 C   0  0  0  0  0  0  0  0  0  0  0  0
   -2.7875    0.0633    0.1417 C   0  0  0  0  0  0  0  0  0  0  0  0
   -3.1872    0.0707   -1.2596 C   0  0  0  0  0  0  0  0  0  0  0  0
   -3.3583   -1.0515   -2.0287 C   0  0  0  0  0  0  0  0  0  0  0  0
   -3.6878   -0.9341   -3.3704 C   0  0  0  0  0  0  0  0  0  0  0  0
   -3.8305    0.3256   -3.8864 C   0  0  0  0  0  0  0  0  0  0  0  0
   -3.6634    1.4717   -3.1437 C   0  0  0  0  0  0  0  0  0  0  0  0
   -3.3414    1.3386   -1.8338 C   0  0  0  0  0  0  0  0  0  0  0  0
    3.8445    1.9606    0.5669 C   0  0  0  0  0  0  0  0  0  0  0  0
    4.0753    2.5288    1.7851 C   0  0  0  0  0  0  0  0  0  0  0  0
    5.1015    3.4311    1.9239 C   0  0  0  0  0  0  0  0  0  0  0  0
    5.9093    3.7762    0.8434 C   0  0  0  0  0  0  0  0  0  0  0  0
    5.6477    3.1839   -0.3857 C   0  0  0  0  0  0  0  0  0  0  0  0
    4.6279    2.2803   -0.5457 C   0  0  0  0  0  0  0  0  0  0  0  0
    6.9895    4.7169    0.9894 C   0  0  0  0  0  0  0  0  0  0  0  0
    7.8575    5.4677    1.0746 N   0  0  0  0  0  0  0  0  0  0  0  0
    4.5143   -1.7919   -1.6606 H   0  0  0  0  0  0  0  0  0  0  0  0
    3.0080   -1.4270   -2.6296 H   0  0  0  0  0  0  0  0  0  0  0  0
    4.0455   -2.7845   -3.0585 H   0  0  0  0  0  0  0  0  0  0  0  0
    3.3991   -4.9729   -2.1992 H   0  0  0  0  0  0  0  0  0  0  0  0
    2.1318   -6.3359   -0.7132 H   0  0  0  0  0  0  0  0  0  0  0  0
    0.8238   -5.3170    1.1468 H   0  0  0  0  0  0  0  0  0  0  0  0
    0.8370   -2.9181    1.4108 H   0  0  0  0  0  0  0  0  0  0  0  0
    0.9495    1.9704    0.4657 H   0  0  0  0  0  0  0  0  0  0  0  0
   -1.0283   -0.4565    3.9964 H   0  0  0  0  0  0  0  0  0  0  0  0
    0.0350   -1.2263    2.8112 H   0  0  0  0  0  0  0  0  0  0  0  0
    0.0645    0.5967    3.0944 H   0  0  0  0  0  0  0  0  0  0  0  0
   -5.5746   -0.3265    0.6805 H   0  0  0  0  0  0  0  0  0  0  0  0
   -4.8675   -0.0339    3.2214 H   0  0  0  0  0  0  0  0  0  0  0  0
   -6.5974    0.2421    2.6409 H   0  0  0  0  0  0  0  0  0  0  0  0
   -5.4768    1.6276    2.9529 H   0  0  0  0  0  0  0  0  0  0  0  0
   -4.9705    2.6579    0.4472 H   0  0  0  0  0  0  0  0  0  0  0  0
   -6.4836    2.1218    1.1537 H   0  0  0  0  0  0  0  0  0  0  0  0
   -6.1312    1.5654   -0.4728 H   0  0  0  0  0  0  0  0  0  0  0  0
   -3.2363   -2.0164   -1.5595 H   0  0  0  0  0  0  0  0  0  0  0  0
   -3.8221   -1.8176   -3.9737 H   0  0  0  0  0  0  0  0  0  0  0  0
   -4.0923    0.4312   -4.9421 H   0  0  0  0  0  0  0  0  0  0  0  0
   -3.8063    2.4611   -3.6277 H   0  0  0  0  0  0  0  0  0  0  0  0
   -3.1718    2.1937   -1.2293 H   0  0  0  0  0  0  0  0  0  0  0  0
    3.4349    2.2382    2.5914 H   0  0  0  0  0  0  0  0  0  0  0  0
    5.3059    3.8849    2.8986 H   0  0  0  0  0  0  0  0  0  0  0  0
    6.2499    3.4156   -1.2540 H   0  0  0  0  0  0  0  0  0  0  0  0
    4.4399    1.8260   -1.5060 H   0  0  0  0  0  0  0  0  0  0  0  0
  1  2  1  0
  2  3  2  0
  3  4  1  0
  4  5  2  0
  5  6  1  0
  6  7  2  0
  7  8  1  0
  8  9  2  0
  9 10  1  0
 10 11  1  0
 11 12  2  0
 12 13  1  0
 13 14  2  0
 13 15  1  0
 15 16  1  0
 16 17  1  0
 16 18  2  0
 18 19  1  0
 19 20  1  0
 20 21  1  0
 20 22  1  0
 19 23  1  0
 23 24  1  0
 24 25  2  0
 25 26  1  0
 26 27  2  0
 27 28  1  0
 28 29  2  0
 10 30  1  0
 30 31  2  0
 31 32  1  0
 32 33  2  0
 33 34  1  0
 34 35  2  0
 33 36  1  0
 36 37  3  0
  7  2  1  0
 12  8  1  0
 23 15  2  0
 29 24  1  0
 35 30  1  0
  1 38  1  0
  1 39  1  0
  1 40  1  0
  3 41  1  0
  4 42  1  0
  5 43  1  0
  6 44  1  0
 11 45  1  0
 17 46  1  0
 17 47  1  0
 17 48  1  0
 20 49  1  0
 21 50  1  0
 21 51  1  0
 21 52  1  0
 22 53  1  0
 22 54  1  0
 22 55  1  0
 25 56  1  0
 26 57  1  0
 27 58  1  0
 28 59  1  0
 29 60  1  0
 31 61  1  0
 32 62  1  0
 34 63  1  0
 35 64  1  0
M  END
$$$$
[H]c1nc(N(C([H])([H])[H])C([H])(c2c([H])c3c(c([H])c2C([H])([H])[H])OC([H])([H])O3)C([H])([H])C([H])([H])[H])c2c([H])c([H])n([H])c2n1
     RDKit          3D

 44 47  0  0  0  0  0  0  0  0999 V2000
    0.9275   -2.8196    1.5647 C   0  0  0  0  0  0  0  0  0  0  0  0
   -0.1281   -1.7665    1.5485 C   0  0  0  0  0  0  0  0  0  0  0  0
   -0.2450   -1.3146    0.0863 C   0  0  0  0  0  0  0  0  0  0  0  0
    1.0112   -0.6790   -0.3161 N   0  0  0  0  0  0  0  0  0  0  0  0
    1.4514   -0.9538   -1.6822 C   0  0  0  0  0  0  0  0  0  0  0  0
    1.8486    0.1154    0.5015 C   0  0  0  0  0  0  0  0  0  0  0  0
    1.8954   -0.0249    1.8535 N   0  0  0  0  0  0  0  0  0  0  0  0
    2.7144    0.6141    2.6840 C   0  0  0  0  0  0  0  0  0  0  0  0
    3.5856    1.4785    2.1712 N   0  0  0  0  0  0  0  0  0  0  0  0
    3.6344    1.7083    0.8565 C   0  0  0  0  0  0  0  0  0  0  0  0
    4.4103    2.5586    0.1907 N   0  0  0  0  0  0  0  0  0  0  0  0
    4.0721    2.4611   -1.0939 C   0  0  0  0  0  0  0  0  0  0  0  0
    3.0543    1.5291   -1.2476 C   0  0  0  0  0  0  0  0  0  0  0  0
    2.7569    1.0223   -0.0007 C   0  0  0  0  0  0  0  0  0  0  0  0
   -1.4512   -0.4950   -0.1155 C   0  0  0  0  0  0  0  0  0  0  0  0
   -1.7896    0.6164    0.6391 C   0  0  0  0  0  0  0  0  0  0  0  0
   -2.8651    1.4267    0.3619 C   0  0  0  0  0  0  0  0  0  0  0  0
   -3.3892    2.5883    0.9697 O   0  0  0  0  0  0  0  0  0  0  0  0
   -4.7762    2.6459    0.6010 C   0  0  0  0  0  0  0  0  0  0  0  0
   -4.6605    2.1391   -0.7453 O   0  0  0  0  0  0  0  0  0  0  0  0
   -3.6751    1.1439   -0.7241 C   0  0  0  0  0  0  0  0  0  0  0  0
   -3.3919    0.0617   -1.5057 C   0  0  0  0  0  0  0  0  0  0  0  0
   -2.3183   -0.7188   -1.1992 C   0  0  0  0  0  0  0  0  0  0  0  0
   -2.1016   -1.9711   -1.9981 C   0  0  0  0  0  0  0  0  0  0  0  0
    0.4756   -3.8418    1.3425 H   0  0  0  0  0  0  0  0  0  0  0  0
    1.6568   -2.7106    0.7167 H   0  0  0  0  0  0  0  0  0  0  0  0
    1.4972   -2.9326    2.4937 H   0  0  0  0  0  0  0  0  0  0  0  0
   -0.1916   -1.0211    2.2935 H   0  0  0  0  0  0  0  0  0  0  0  0
   -1.1080   -2.3636    1.6692 H   0  0  0  0  0  0  0  0  0  0  0  0
   -0.3617   -2.2539   -0.4740 H   0  0  0  0  0  0  0  0  0  0  0  0
    1.1667   -2.0486   -1.8318 H   0  0  0  0  0  0  0  0  0  0  0  0
    2.5660   -1.0048   -1.7229 H   0  0  0  0  0  0  0  0  0  0  0  0
    0.9454   -0.4138   -2.4549 H   0  0  0  0  0  0  0  0  0  0  0  0
    2.6774    0.4235    3.7635 H   0  0  0  0  0  0  0  0  0  0  0  0
    5.1747    3.1988    0.5591 H   0  0  0  0  0  0  0  0  0  0  0  0
    4.5137    3.0135   -1.9054 H   0  0  0  0  0  0  0  0  0  0  0  0
    2.5492    1.2587   -2.1488 H   0  0  0  0  0  0  0  0  0  0  0  0
   -1.1667    0.8619    1.5094 H   0  0  0  0  0  0  0  0  0  0  0  0
   -5.3746    1.9481    1.1924 H   0  0  0  0  0  0  0  0  0  0  0  0
   -5.1638    3.6592    0.5596 H   0  0  0  0  0  0  0  0  0  0  0  0
   -4.0354   -0.1760   -2.3651 H   0  0  0  0  0  0  0  0  0  0  0  0
   -3.0323   -2.1914   -2.6035 H   0  0  0  0  0  0  0  0  0  0  0  0
   -1.2911   -1.9124   -2.6956 H   0  0  0  0  0  0  0  0  0  0  0  0
   -2.0679   -2.8592   -1.2976 H   0  0  0  0  0  0  0  0  0  0  0  0
  1  2  1  0
  2  3  1  0
  3  4  1  0
  4  5  1  0
  4  6  1  0
  6  7  2  0
  7  8  1  0
  8  9  2  0
  9 10  1  0
 10 11  1  0
 11 12  1  0
 12 13  2  0
 13 14  1  0
  3 15  1  0
 15 16  2  0
 16 17  1  0
 17 18  1  0
 18 19  1  0
 19 20  1  0
 20 21  1  0
 21 22  1  0
 22 23  2  0
 23 24  1  0
 14  6  1  0
 23 15  1  0
 14 10  2  0
 21 17  2  0
  1 25  1  0
  1 26  1  0
  1 27  1  0
  2 28  1  0
  2 29  1  0
  3 30  1  0
  5 31  1  0
  5 32  1  0
  5 33  1  0
  8 34  1  0
 11 35  1  0
 12 36  1  0
 13 37  1  0
 16 38  1  0
 19 39  1  0
 19 40  1  0
 22 41  1  0
 24 42  1  0
 24 43  1  0
 24 44  1  0
M  END
$$$$
