[H]c1nc(N([H])[C@]2([H])C([H])([H])C([H])([H])[C@@]([H])(N([H])[H])C([H])([H])C2([H])[H])c2c([H])c(OC([H])([H])[H])c(OC([H])([H])[H])c([H])c2n1
     RDKit          3D

 44 46  0  0  0  0  0  0  0  0999 V2000
    6.3044   -0.5296   -0.8818 C   0  0  0  0  0  0  0  0  0  0  0  0
    5.3894    0.4138   -0.3695 O   0  0  0  0  0  0  0  0  0  0  0  0
    4.0632    0.0530   -0.1917 C   0  0  0  0  0  0  0  0  0  0  0  0
    3.6538   -1.2304   -0.5198 C   0  0  0  0  0  0  0  0  0  0  0  0
    2.3332   -1.6285   -0.3555 C   0  0  0  0  0  0  0  0  0  0  0  0
    1.9506   -2.8888   -0.6820 N   0  0  0  0  0  0  0  0  0  0  0  0
    0.6736   -3.2588   -0.5182 C   0  0  0  0  0  0  0  0  0  0  0  0
   -0.1785   -2.3497   -0.0312 N   0  0  0  0  0  0  0  0  0  0  0  0
    0.1428   -1.0889    0.3091 C   0  0  0  0  0  0  0  0  0  0  0  0
   -0.8559   -0.2137    0.8178 N   0  0  0  0  0  0  0  0  0  0  0  0
   -2.2244   -0.7257    0.9556 C   0  0  1  0  0  0  0  0  0  0  0  0
   -3.1401    0.3207    1.5016 C   0  0  0  0  0  0  0  0  0  0  0  0
   -3.4061    1.3524    0.4308 C   0  0  0  0  0  0  0  0  0  0  0  0
   -4.0902    0.6725   -0.7257 C   0  0  2  0  0  0  0  0  0  0  0  0
   -5.4235    1.1980   -0.9519 N   0  0  0  0  0  0  0  0  0  0  0  0
   -4.1404   -0.8331   -0.5523 C   0  0  0  0  0  0  0  0  0  0  0  0
   -2.7144   -1.3069   -0.3530 C   0  0  0  0  0  0  0  0  0  0  0  0
    1.4530   -0.6911    0.1470 C   0  0  0  0  0  0  0  0  0  0  0  0
    1.8634    0.5932    0.4752 C   0  0  0  0  0  0  0  0  0  0  0  0
    3.1758    0.9788    0.3086 C   0  0  0  0  0  0  0  0  0  0  0  0
    3.6572    2.2369    0.6124 O   0  0  0  0  0  0  0  0  0  0  0  0
    2.8981    3.2886    1.1252 C   0  0  0  0  0  0  0  0  0  0  0  0
    6.3238   -1.4635   -0.2793 H   0  0  0  0  0  0  0  0  0  0  0  0
    7.3229   -0.1060   -0.8572 H   0  0  0  0  0  0  0  0  0  0  0  0
    6.0547   -0.8381   -1.9237 H   0  0  0  0  0  0  0  0  0  0  0  0
    4.3342   -1.9720   -0.9139 H   0  0  0  0  0  0  0  0  0  0  0  0
    0.3516   -4.2751   -0.7785 H   0  0  0  0  0  0  0  0  0  0  0  0
   -0.7008    0.7506    1.0982 H   0  0  0  0  0  0  0  0  0  0  0  0
   -2.2099   -1.5743    1.6894 H   0  0  0  0  0  0  0  0  0  0  0  0
   -4.0403   -0.1017    1.9481 H   0  0  0  0  0  0  0  0  0  0  0  0
   -2.5889    0.8404    2.3297 H   0  0  0  0  0  0  0  0  0  0  0  0
   -4.0482    2.1625    0.8238 H   0  0  0  0  0  0  0  0  0  0  0  0
   -2.4054    1.7622    0.1394 H   0  0  0  0  0  0  0  0  0  0  0  0
   -3.4758    0.8626   -1.6421 H   0  0  0  0  0  0  0  0  0  0  0  0
   -6.0330    0.8840   -0.1551 H   0  0  0  0  0  0  0  0  0  0  0  0
   -5.3263    2.2480   -0.9307 H   0  0  0  0  0  0  0  0  0  0  0  0
   -4.5395   -1.2467   -1.5100 H   0  0  0  0  0  0  0  0  0  0  0  0
   -4.7990   -1.1358    0.2721 H   0  0  0  0  0  0  0  0  0  0  0  0
   -2.1208   -0.9588   -1.1998 H   0  0  0  0  0  0  0  0  0  0  0  0
   -2.7528   -2.4200   -0.3319 H   0  0  0  0  0  0  0  0  0  0  0  0
    1.1646    1.3038    0.8632 H   0  0  0  0  0  0  0  0  0  0  0  0
    1.8189    3.2489    0.8189 H   0  0  0  0  0  0  0  0  0  0  0  0
    3.2859    4.2337    0.6466 H   0  0  0  0  0  0  0  0  0  0  0  0
    2.9988    3.4325    2.2091 H   0  0  0  0  0  0  0  0  0  0  0  0
  1  2  1  0
  2  3  1  0
  3  4  2  0
  4  5  1  0
  5  6  2  0
  6  7  1  0
  7  8  2  0
  8  9  1  0
  9 10  1  0
 10 11  1  0
 11 12  1  0
 12 13  1  0
 13 14  1  0
 14 15  1  0
 14 16  1  0
 16 17  1  0
  9 18  2  0
 18 19  1  0
 19 20  2  0
 20 21  1  0
 21 22  1  0
 20  3  1  0
 18  5  1  0
 17 11  1  0
  1 23  1  0
  1 24  1  0
  1 25  1  0
  4 26  1  0
  7 27  1  0
 10 28  1  0
 11 29  1  1
 12 30  1  0
 12 31  1  0
 13 32  1  0
 13 33  1  0
 14 34  1  6
 15 35  1  0
 15 36  1  0
 16 37  1  0
 16 38  1  0
 17 39  1  0
 17 40  1  0
 19 41  1  0
 22 42  1  0
 22 43  1  0
 22 44  1  0
M  END
$$$$
[H]c1c([H])c([H])c2c(c1[H])c1c3c(c4c5c([H])c([H])c([H])c([H])c5n5c4c1n2[C@@]1(C([H])([H])[H])O[C@]5([H])C([H])([H])[C@@]([H])(N([H])C([H])([H])[H])[C@]1([H])OC([H])([H])[H])C(=O)N([H])C3([H])[H]
     RDKit          3D

 61 68  0  0  0  0  0  0  0  0999 V2000
   -4.2237   -2.8432    0.3826 C   0  0  0  0  0  0  0  0  0  0  0  0
   -3.9057   -1.4325    0.5018 N   0  0  0  0  0  0  0  0  0  0  0  0
   -2.8904   -1.1052   -0.4771 C   0  0  2  0  0  0  0  0  0  0  0  0
   -1.6096   -1.8440   -0.2521 C   0  0  0  0  0  0  0  0  0  0  0  0
   -0.7088   -1.5028   -1.4165 C   0  0  1  0  0  0  0  0  0  0  0  0
   -0.8845   -0.3006   -1.9539 O   0  0  0  0  0  0  0  0  0  0  0  0
   -1.3461    0.7528   -1.1378 C   0  0  1  0  0  0  0  0  0  0  0  0
   -1.7403    1.7918   -2.2066 C   0  0  0  0  0  0  0  0  0  0  0  0
   -2.5519    0.3972   -0.3647 C   0  0  1  0  0  0  0  0  0  0  0  0
   -3.7280    1.0404   -0.7349 O   0  0  0  0  0  0  0  0  0  0  0  0
   -4.4091    1.6430    0.2931 C   0  0  0  0  0  0  0  0  0  0  0  0
   -0.2432    1.3012   -0.3712 N   0  0  0  0  0  0  0  0  0  0  0  0
   -0.1500    2.5723    0.1151 C   0  0  0  0  0  0  0  0  0  0  0  0
   -1.0130    3.6203    0.1152 C   0  0  0  0  0  0  0  0  0  0  0  0
   -0.6622    4.8168    0.7053 C   0  0  0  0  0  0  0  0  0  0  0  0
    0.5564    5.0071    1.3135 C   0  0  0  0  0  0  0  0  0  0  0  0
    1.4278    3.9124    1.3017 C   0  0  0  0  0  0  0  0  0  0  0  0
    1.0695    2.7394    0.7170 C   0  0  0  0  0  0  0  0  0  0  0  0
    1.7448    1.5602    0.6114 C   0  0  0  0  0  0  0  0  0  0  0  0
    3.0026    1.1148    1.0209 C   0  0  0  0  0  0  0  0  0  0  0  0
    4.0512    1.8684    1.7455 C   0  0  0  0  0  0  0  0  0  0  0  0
    5.1397    0.9552    1.9147 N   0  0  0  0  0  0  0  0  0  0  0  0
    4.7713   -0.3013    1.3242 C   0  0  0  0  0  0  0  0  0  0  0  0
    5.5554   -1.2594    1.3460 O   0  0  0  0  0  0  0  0  0  0  0  0
    3.4374   -0.1804    0.7736 C   0  0  0  0  0  0  0  0  0  0  0  0
    2.5811   -1.0261    0.1058 C   0  0  0  0  0  0  0  0  0  0  0  0
    2.6500   -2.3566   -0.2823 C   0  0  0  0  0  0  0  0  0  0  0  0
    3.6197   -3.3040   -0.1586 C   0  0  0  0  0  0  0  0  0  0  0  0
    3.3603   -4.5863   -0.6724 C   0  0  0  0  0  0  0  0  0  0  0  0
    2.1660   -4.8681   -1.2784 C   0  0  0  0  0  0  0  0  0  0  0  0
    1.1884   -3.9049   -1.4007 C   0  0  0  0  0  0  0  0  0  0  0  0
    1.4343   -2.6584   -0.9038 C   0  0  0  0  0  0  0  0  0  0  0  0
    0.6610   -1.5889   -0.9043 N   0  0  0  0  0  0  0  0  0  0  0  0
    1.3192   -0.5864   -0.3083 C   0  0  0  0  0  0  0  0  0  0  0  0
    0.9427    0.7002   -0.0433 C   0  0  0  0  0  0  0  0  0  0  0  0
   -5.1750   -3.0655    0.9449 H   0  0  0  0  0  0  0  0  0  0  0  0
   -3.4375   -3.4831    0.8520 H   0  0  0  0  0  0  0  0  0  0  0  0
   -4.3878   -3.1627   -0.6570 H   0  0  0  0  0  0  0  0  0  0  0  0
   -3.5372   -1.3003    1.4753 H   0  0  0  0  0  0  0  0  0  0  0  0
   -3.2760   -1.3576   -1.4683 H   0  0  0  0  0  0  0  0  0  0  0  0
   -1.1170   -1.5869    0.7072 H   0  0  0  0  0  0  0  0  0  0  0  0
   -1.7938   -2.9364   -0.2500 H   0  0  0  0  0  0  0  0  0  0  0  0
   -0.8365   -2.2959   -2.1809 H   0  0  0  0  0  0  0  0  0  0  0  0
   -2.7389    2.1947   -2.0710 H   0  0  0  0  0  0  0  0  0  0  0  0
   -1.0026    2.6042   -2.2901 H   0  0  0  0  0  0  0  0  0  0  0  0
   -1.7554    1.3331   -3.2327 H   0  0  0  0  0  0  0  0  0  0  0  0
   -2.3963    0.5380    0.7318 H   0  0  0  0  0  0  0  0  0  0  0  0
   -5.3222    2.1084   -0.1800 H   0  0  0  0  0  0  0  0  0  0  0  0
   -3.8691    2.4834    0.7750 H   0  0  0  0  0  0  0  0  0  0  0  0
   -4.8200    0.9287    1.0434 H   0  0  0  0  0  0  0  0  0  0  0  0
   -2.0049    3.5118   -0.3417 H   0  0  0  0  0  0  0  0  0  0  0  0
   -1.3998    5.6339    0.6763 H   0  0  0  0  0  0  0  0  0  0  0  0
    0.8459    5.9384    1.7795 H   0  0  0  0  0  0  0  0  0  0  0  0
    2.4090    4.0394    1.7823 H   0  0  0  0  0  0  0  0  0  0  0  0
    4.3999    2.7474    1.1660 H   0  0  0  0  0  0  0  0  0  0  0  0
    3.6319    2.2028    2.7259 H   0  0  0  0  0  0  0  0  0  0  0  0
    6.0324    1.1980    2.3917 H   0  0  0  0  0  0  0  0  0  0  0  0
    4.5530   -3.1288    0.3000 H   0  0  0  0  0  0  0  0  0  0  0  0
    4.1480   -5.3162   -0.5604 H   0  0  0  0  0  0  0  0  0  0  0  0
    1.9956   -5.8657   -1.6641 H   0  0  0  0  0  0  0  0  0  0  0  0
    0.2419   -4.1081   -1.8751 H   0  0  0  0  0  0  0  0  0  0  0  0
  1  2  1  0
  2  3  1  0
  3  4  1  0
  4  5  1  0
  5  6  1  0
  6  7  1  0
  7  8  1  6
  7  9  1  0
  9 10  1  0
 10 11  1  0
  7 12  1  0
 12 13  1  0
 13 14  2  0
 14 15  1  0
 15 16  2  0
 16 17  1  0
 17 18  2  0
 18 19  1  0
 19 20  2  0
 20 21  1  0
 21 22  1  0
 22 23  1  0
 23 24  2  0
 23 25  1  0
 25 26  2  0
 26 27  1  0
 27 28  2  0
 28 29  1  0
 29 30  2  0
 30 31  1  0
 31 32  2  0
 32 33  1  0
 33 34  1  0
 34 35  2  0
  9  3  1  0
 35 12  1  0
 33  5  1  0
 18 13  1  0
 35 19  1  0
 25 20  1  0
 34 26  1  0
 32 27  1  0
  1 36  1  0
  1 37  1  0
  1 38  1  0
  2 39  1  0
  3 40  1  6
  4 41  1  0
  4 42  1  0
  5 43  1  6
  8 44  1  0
  8 45  1  0
  8 46  1  0
  9 47  1  1
 11 48  1  0
 11 49  1  0
 11 50  1  0
 14 51  1  0
 15 52  1  0
 16 53  1  0
 17 54  1  0
 21 55  1  0
 21 56  1  0
 22 57  1  0
 28 58  1  0
 29 59  1  0
 30 60  1  0
 31 61  1  0
M  END
$$$$
[H]c1c([H])c([H])c2c(c1[H])c(C([H])([H])[C@@]([H])(C(=O)N([H])[C@]([H])(C(=O)N([H])[C@]([H])(C(=O)N([H])[C@]([H])(C(=O)N([H])[H])C([H])([H])C([H])([H])C([H])([H])C([H])([H])N([H])[H])C([H])([H])c1c([H])n([H])c3c([H])c([H])c([H])c([H])c13)C([H])([H])C([H])([H])C([H])([H])N=C(N([H])[H])N([H])[H])N([H])C(=O)[C@@]([H])(N([H])[H])C([H])([H])C([H])(C([H])([H])[H])C([H])([H])[H])c([H])n2[H]
     RDKit          3D

115118  0  0  0  0  0  0  0  0999 V2000
   -6.5250    2.8360   -2.6299 C   0  0  0  0  0  0  0  0  0  0  0  0
   -7.2783    3.4103   -1.5013 C   0  0  0  0  0  0  0  0  0  0  0  0
   -8.6817    2.7568   -1.4983 C   0  0  0  0  0  0  0  0  0  0  0  0
   -6.6509    3.2974   -0.1924 C   0  0  0  0  0  0  0  0  0  0  0  0
   -6.3601    2.0629    0.4936 C   0  0  2  0  0  0  0  0  0  0  0  0
   -5.7771    2.5787    1.8431 N   0  0  0  0  0  0  0  0  0  0  0  0
   -5.5239    0.9854    0.0956 C   0  0  0  0  0  0  0  0  0  0  0  0
   -4.6148    0.7031    1.0474 O   0  0  0  0  0  0  0  0  0  0  0  0
   -5.3574    0.1174   -0.9921 N   0  0  0  0  0  0  0  0  0  0  0  0
   -4.2579   -0.8854   -0.8587 C   0  0  1  0  0  0  0  0  0  0  0  0
   -4.3474   -1.9894   -1.7985 C   0  0  0  0  0  0  0  0  0  0  0  0
   -5.6043   -2.7853   -1.6494 C   0  0  0  0  0  0  0  0  0  0  0  0
   -6.4888   -2.7926   -0.6015 C   0  0  0  0  0  0  0  0  0  0  0  0
   -7.4585   -3.6643   -0.9350 N   0  0  0  0  0  0  0  0  0  0  0  0
   -7.2265   -4.2026   -2.1362 C   0  0  0  0  0  0  0  0  0  0  0  0
   -7.9324   -5.1313   -2.8832 C   0  0  0  0  0  0  0  0  0  0  0  0
   -7.4360   -5.5042   -4.1127 C   0  0  0  0  0  0  0  0  0  0  0  0
   -6.2494   -4.9689   -4.6136 C   0  0  0  0  0  0  0  0  0  0  0  0
   -5.5580   -4.0467   -3.8613 C   0  0  0  0  0  0  0  0  0  0  0  0
   -6.0355   -3.6592   -2.6315 C   0  0  0  0  0  0  0  0  0  0  0  0
   -2.9857   -0.1393   -0.9502 C   0  0  0  0  0  0  0  0  0  0  0  0
   -2.9979    1.0460   -1.3252 O   0  0  0  0  0  0  0  0  0  0  0  0
   -1.6973   -0.7118   -0.6025 N   0  0  0  0  0  0  0  0  0  0  0  0
   -0.5659    0.1605   -0.6638 C   0  0  1  0  0  0  0  0  0  0  0  0
   -0.5832    1.0250    0.5880 C   0  0  0  0  0  0  0  0  0  0  0  0
   -0.4401    0.4168    1.9051 C   0  0  0  0  0  0  0  0  0  0  0  0
   -1.4922   -0.5016    2.4164 C   0  0  0  0  0  0  0  0  0  0  0  0
   -1.1246   -1.0361    3.7352 N   0  0  0  0  0  0  0  0  0  0  0  0
   -1.5724   -0.4644    4.7846 C   0  0  0  0  0  0  0  0  0  0  0  0
   -2.4062    0.6625    4.7406 N   0  0  0  0  0  0  0  0  0  0  0  0
   -1.2038   -1.0122    6.0575 N   0  0  0  0  0  0  0  0  0  0  0  0
    0.6679   -0.6610   -0.6615 C   0  0  0  0  0  0  0  0  0  0  0  0
    0.7990   -1.8755   -0.7041 O   0  0  0  0  0  0  0  0  0  0  0  0
    1.8319    0.1269   -0.5677 N   0  0  0  0  0  0  0  0  0  0  0  0
    3.2129   -0.2876   -0.4256 C   0  0  1  0  0  0  0  0  0  0  0  0
    3.8073   -0.3390   -1.8445 C   0  0  0  0  0  0  0  0  0  0  0  0
    5.2358   -0.7625   -1.7649 C   0  0  0  0  0  0  0  0  0  0  0  0
    6.3598    0.0264   -1.9037 C   0  0  0  0  0  0  0  0  0  0  0  0
    7.4632   -0.7120   -1.7549 N   0  0  0  0  0  0  0  0  0  0  0  0
    7.1172   -2.0141   -1.5081 C   0  0  0  0  0  0  0  0  0  0  0  0
    7.8592   -3.1422   -1.2746 C   0  0  0  0  0  0  0  0  0  0  0  0
    7.2052   -4.3311   -1.0434 C   0  0  0  0  0  0  0  0  0  0  0  0
    5.8134   -4.3473   -1.0545 C   0  0  0  0  0  0  0  0  0  0  0  0
    5.0785   -3.2230   -1.2881 C   0  0  0  0  0  0  0  0  0  0  0  0
    5.7244   -2.0464   -1.5164 C   0  0  0  0  0  0  0  0  0  0  0  0
    3.9361    0.8059    0.2886 C   0  0  0  0  0  0  0  0  0  0  0  0
    3.6305    1.9865   -0.1533 O   0  0  0  0  0  0  0  0  0  0  0  0
    4.8546    0.7499    1.3342 N   0  0  0  0  0  0  0  0  0  0  0  0
    5.4337    1.9312    1.9404 C   0  0  1  0  0  0  0  0  0  0  0  0
    6.7494    2.2551    1.3522 C   0  0  0  0  0  0  0  0  0  0  0  0
    7.6863    1.1177    1.6327 C   0  0  0  0  0  0  0  0  0  0  0  0
    9.0380    1.3584    1.0637 C   0  0  0  0  0  0  0  0  0  0  0  0
    9.6061    2.6576    1.6037 C   0  0  0  0  0  0  0  0  0  0  0  0
    9.6101    2.5896    3.0355 N   0  0  0  0  0  0  0  0  0  0  0  0
    4.5184    3.0609    1.9497 C   0  0  0  0  0  0  0  0  0  0  0  0
    4.9081    4.4065    1.5773 N   0  0  0  0  0  0  0  0  0  0  0  0
    3.2731    3.0087    2.2815 O   0  0  0  0  0  0  0  0  0  0  0  0
   -5.4408    2.7662   -2.4290 H   0  0  0  0  0  0  0  0  0  0  0  0
   -6.6951    3.5231   -3.5236 H   0  0  0  0  0  0  0  0  0  0  0  0
   -6.9716    1.8598   -2.9285 H   0  0  0  0  0  0  0  0  0  0  0  0
   -7.4679    4.5221   -1.6882 H   0  0  0  0  0  0  0  0  0  0  0  0
   -8.5505    1.6548   -1.4123 H   0  0  0  0  0  0  0  0  0  0  0  0
   -9.2994    3.2035   -0.7176 H   0  0  0  0  0  0  0  0  0  0  0  0
   -9.1273    2.9999   -2.4818 H   0  0  0  0  0  0  0  0  0  0  0  0
   -5.6844    3.9580   -0.2741 H   0  0  0  0  0  0  0  0  0  0  0  0
   -7.2453    3.9956    0.5171 H   0  0  0  0  0  0  0  0  0  0  0  0
   -7.3307    1.6287    0.9055 H   0  0  0  0  0  0  0  0  0  0  0  0
   -4.8660    3.0262    1.5625 H   0  0  0  0  0  0  0  0  0  0  0  0
   -5.6651    1.7275    2.4304 H   0  0  0  0  0  0  0  0  0  0  0  0
   -5.9204    0.1045   -1.8381 H   0  0  0  0  0  0  0  0  0  0  0  0
   -4.3878   -1.2346    0.2117 H   0  0  0  0  0  0  0  0  0  0  0  0
   -3.5060   -2.7054   -1.6112 H   0  0  0  0  0  0  0  0  0  0  0  0
   -4.2165   -1.6640   -2.8460 H   0  0  0  0  0  0  0  0  0  0  0  0
   -6.3517   -2.1872    0.2759 H   0  0  0  0  0  0  0  0  0  0  0  0
   -8.2619   -3.8597   -0.3038 H   0  0  0  0  0  0  0  0  0  0  0  0
   -8.8588   -5.5528   -2.5064 H   0  0  0  0  0  0  0  0  0  0  0  0
   -7.9678   -6.2258   -4.7220 H   0  0  0  0  0  0  0  0  0  0  0  0
   -5.9167   -5.3009   -5.5915 H   0  0  0  0  0  0  0  0  0  0  0  0
   -4.6343   -3.6288   -4.2357 H   0  0  0  0  0  0  0  0  0  0  0  0
   -1.6819   -1.7059   -0.3719 H   0  0  0  0  0  0  0  0  0  0  0  0
   -0.6120    0.7993   -1.5196 H   0  0  0  0  0  0  0  0  0  0  0  0
   -1.6051    1.5281    0.6032 H   0  0  0  0  0  0  0  0  0  0  0  0
    0.1306    1.8371    0.4195 H   0  0  0  0  0  0  0  0  0  0  0  0
    0.5994    0.0055    2.1093 H   0  0  0  0  0  0  0  0  0  0  0  0
   -0.4366    1.2795    2.6559 H   0  0  0  0  0  0  0  0  0  0  0  0
   -2.4291    0.1250    2.5633 H   0  0  0  0  0  0  0  0  0  0  0  0
   -1.7961   -1.3441    1.8406 H   0  0  0  0  0  0  0  0  0  0  0  0
   -3.1844    0.7170    5.4656 H   0  0  0  0  0  0  0  0  0  0  0  0
   -2.2990    1.4243    4.0672 H   0  0  0  0  0  0  0  0  0  0  0  0
   -0.4766   -0.5877    6.6333 H   0  0  0  0  0  0  0  0  0  0  0  0
   -1.6895   -1.8712    6.4196 H   0  0  0  0  0  0  0  0  0  0  0  0
    1.7215    1.1957   -0.5986 H   0  0  0  0  0  0  0  0  0  0  0  0
    3.3842   -1.2425    0.0274 H   0  0  0  0  0  0  0  0  0  0  0  0
    3.7841    0.6555   -2.3242 H   0  0  0  0  0  0  0  0  0  0  0  0
    3.2760   -1.0546   -2.4720 H   0  0  0  0  0  0  0  0  0  0  0  0
    6.3454    1.1102   -2.1069 H   0  0  0  0  0  0  0  0  0  0  0  0
    8.4537   -0.3647   -1.8145 H   0  0  0  0  0  0  0  0  0  0  0  0
    8.9357   -3.1499   -1.2531 H   0  0  0  0  0  0  0  0  0  0  0  0
    7.7361   -5.2629   -0.8546 H   0  0  0  0  0  0  0  0  0  0  0  0
    5.2568   -5.2842   -0.8761 H   0  0  0  0  0  0  0  0  0  0  0  0
    3.9860   -3.1902   -1.3105 H   0  0  0  0  0  0  0  0  0  0  0  0
    5.1475   -0.1808    1.7037 H   0  0  0  0  0  0  0  0  0  0  0  0
    5.5552    1.6859    3.0739 H   0  0  0  0  0  0  0  0  0  0  0  0
    7.1394    3.2429    1.6983 H   0  0  0  0  0  0  0  0  0  0  0  0
    6.6948    2.3571    0.2226 H   0  0  0  0  0  0  0  0  0  0  0  0
    7.2121    0.1909    1.1931 H   0  0  0  0  0  0  0  0  0  0  0  0
    7.7064    0.9329    2.7338 H   0  0  0  0  0  0  0  0  0  0  0  0
    9.6903    0.5181    1.4162 H   0  0  0  0  0  0  0  0  0  0  0  0
    8.9890    1.3284   -0.0474 H   0  0  0  0  0  0  0  0  0  0  0  0
   10.6625    2.7351    1.2070 H   0  0  0  0  0  0  0  0  0  0  0  0
    9.0102    3.4968    1.2174 H   0  0  0  0  0  0  0  0  0  0  0  0
    9.6813    1.6001    3.3489 H   0  0  0  0  0  0  0  0  0  0  0  0
   10.3971    3.1375    3.4095 H   0  0  0  0  0  0  0  0  0  0  0  0
    4.4562    4.8984    0.7739 H   0  0  0  0  0  0  0  0  0  0  0  0
    5.6377    4.9232    2.0889 H   0  0  0  0  0  0  0  0  0  0  0  0
  1  2  1  0
  2  3  1  0
  2  4  1  0
  4  5  1  0
  5  6  1  0
  5  7  1  0
  7  8  2  0
  7  9  1  0
  9 10  1  0
 10 11  1  0
 11 12  1  0
 12 13  2  0
 13 14  1  0
 14 15  1  0
 15 16  2  0
 16 17  1  0
 17 18  2  0
 18 19  1  0
 19 20  2  0
 10 21  1  0
 21 22  2  0
 21 23  1  0
 23 24  1  0
 24 25  1  0
 25 26  1  0
 26 27  1  0
 27 28  1  0
 28 29  2  3
 29 30  1  0
 29 31  1  0
 24 32  1  0
 32 33  2  0
 32 34  1  0
 34 35  1  0
 35 36  1  0
 36 37  1  0
 37 38  2  0
 38 39  1  0
 39 40  1  0
 40 41  2  0
 41 42  1  0
 42 43  2  0
 43 44  1  0
 44 45  2  0
 35 46  1  0
 46 47  2  0
 46 48  1  0
 48 49  1  0
 49 50  1  0
 50 51  1  0
 51 52  1  0
 52 53  1  0
 53 54  1  0
 49 55  1  0
 55 56  1  0
 55 57  2  0
 20 12  1  0
 45 37  1  0
 20 15  1  0
 45 40  1  0
  1 58  1  0
  1 59  1  0
  1 60  1  0
  2 61  1  0
  3 62  1  0
  3 63  1  0
  3 64  1  0
  4 65  1  0
  4 66  1  0
  5 67  1  1
  6 68  1  0
  6 69  1  0
  9 70  1  0
 10 71  1  1
 11 72  1  0
 11 73  1  0
 13 74  1  0
 14 75  1  0
 16 76  1  0
 17 77  1  0
 18 78  1  0
 19 79  1  0
 23 80  1  0
 24 81  1  6
 25 82  1  0
 25 83  1  0
 26 84  1  0
 26 85  1  0
 27 86  1  0
 27 87  1  0
 30 88  1  0
 30 89  1  0
 31 90  1  0
 31 91  1  0
 34 92  1  0
 35 93  1  1
 36 94  1  0
 36 95  1  0
 38 96  1  0
 39 97  1  0
 41 98  1  0
 42 99  1  0
 43100  1  0
 44101  1  0
 48102  1  0
 49103  1  1
 50104  1  0
 50105  1  0
 51106  1  0
 51107  1  0
 52108  1  0
 52109  1  0
 53110  1  0
 53111  1  0
 54112  1  0
 54113  1  0
 56114  1  0
 56115  1  0
M  END
$$$$
[H]C1=C([H])C([H])(F)C([H])([H])C([H])=C1N([H])C(=O)C1(C(=O)N([H])c2c([H])c([H])c(Oc3c([H])c([H])nc4c([H])c(OC([H])([H])C([H])([H])C([H])([H])N5C([H])([H])C([H])([H])OC([H])([H])C5([H])[H])c(OC([H])([H])[H])c([H])c34)c(F)c2[H])C([H])([H])C1([H])[H]
     RDKit          3D

 82 87  0  0  0  0  0  0  0  0999 V2000
    3.9666    3.0495   -1.7322 C   0  0  0  0  0  0  0  0  0  0  0  0
    4.8184    1.9472   -1.5191 O   0  0  0  0  0  0  0  0  0  0  0  0
    4.2779    0.7150   -1.2054 C   0  0  0  0  0  0  0  0  0  0  0  0
    2.9355    0.4830   -1.0834 C   0  0  0  0  0  0  0  0  0  0  0  0
    2.5057   -0.7878   -0.7673 C   0  0  0  0  0  0  0  0  0  0  0  0
    1.1302   -1.0757   -0.6337 C   0  0  0  0  0  0  0  0  0  0  0  0
    0.2693   -0.0306   -0.8259 O   0  0  0  0  0  0  0  0  0  0  0  0
   -1.0898   -0.1642   -0.6451 C   0  0  0  0  0  0  0  0  0  0  0  0
   -1.9847   -0.0120   -1.6950 C   0  0  0  0  0  0  0  0  0  0  0  0
   -3.3381   -0.1282   -1.5809 C   0  0  0  0  0  0  0  0  0  0  0  0
   -3.8905   -0.4214   -0.3289 C   0  0  0  0  0  0  0  0  0  0  0  0
   -5.3238   -0.4986   -0.2135 N   0  0  0  0  0  0  0  0  0  0  0  0
   -5.9613   -1.3830    0.6262 C   0  0  0  0  0  0  0  0  0  0  0  0
   -5.1921   -2.1849    1.2964 O   0  0  0  0  0  0  0  0  0  0  0  0
   -7.4011   -1.5958    0.9101 C   0  0  0  0  0  0  0  0  0  0  0  0
   -7.6820   -2.4618    2.1265 C   0  0  0  0  0  0  0  0  0  0  0  0
   -7.8126   -3.1190    0.8294 C   0  0  0  0  0  0  0  0  0  0  0  0
   -8.4706   -0.6963    0.4763 C   0  0  0  0  0  0  0  0  0  0  0  0
   -9.6747   -1.1656    0.7176 O   0  0  0  0  0  0  0  0  0  0  0  0
   -8.4814    0.5528   -0.1324 N   0  0  0  0  0  0  0  0  0  0  0  0
   -9.7446    1.2195   -0.4499 C   0  0  0  0  0  0  0  0  0  0  0  0
   -9.9496    2.4040    0.0799 C   0  0  0  0  0  0  0  0  0  0  0  0
  -11.1350    3.2347   -0.1097 C   0  0  0  0  0  0  0  0  0  0  0  0
  -12.2008    2.6387   -0.9439 C   0  0  0  0  0  0  0  0  0  0  0  0
  -12.4721    3.4850   -2.0494 F   0  0  0  0  0  0  0  0  0  0  0  0
  -11.8730    1.3187   -1.4859 C   0  0  0  0  0  0  0  0  0  0  0  0
  -10.7586    0.6480   -1.2759 C   0  0  0  0  0  0  0  0  0  0  0  0
   -3.0432   -0.5784    0.7341 C   0  0  0  0  0  0  0  0  0  0  0  0
   -1.6522   -0.4525    0.5863 C   0  0  0  0  0  0  0  0  0  0  0  0
   -0.8827   -0.5957    1.6903 F   0  0  0  0  0  0  0  0  0  0  0  0
    0.7223   -2.3515   -0.3227 C   0  0  0  0  0  0  0  0  0  0  0  0
    1.6378   -3.3635   -0.1352 C   0  0  0  0  0  0  0  0  0  0  0  0
    2.9451   -3.0865   -0.2619 N   0  0  0  0  0  0  0  0  0  0  0  0
    3.3732   -1.8309   -0.5703 C   0  0  0  0  0  0  0  0  0  0  0  0
    4.7330   -1.5901   -0.6954 C   0  0  0  0  0  0  0  0  0  0  0  0
    5.1920   -0.3333   -1.0085 C   0  0  0  0  0  0  0  0  0  0  0  0
    6.5206   -0.0853   -1.1253 O   0  0  0  0  0  0  0  0  0  0  0  0
    7.5310   -0.9938   -0.8772 C   0  0  0  0  0  0  0  0  0  0  0  0
    7.6262   -1.3701    0.5948 C   0  0  0  0  0  0  0  0  0  0  0  0
    7.9359   -0.0985    1.3961 C   0  0  0  0  0  0  0  0  0  0  0  0
    9.1945    0.4265    0.9288 N   0  0  0  0  0  0  0  0  0  0  0  0
    9.4053    1.7864    1.4776 C   0  0  0  0  0  0  0  0  0  0  0  0
   10.8161    2.1639    1.0165 C   0  0  0  0  0  0  0  0  0  0  0  0
   11.2632    1.3549   -0.0281 O   0  0  0  0  0  0  0  0  0  0  0  0
   11.4615    0.0232    0.3872 C   0  0  0  0  0  0  0  0  0  0  0  0
   10.3466   -0.3576    1.3702 C   0  0  0  0  0  0  0  0  0  0  0  0
    4.5770    3.9509   -1.9692 H   0  0  0  0  0  0  0  0  0  0  0  0
    3.3066    3.2216   -0.8582 H   0  0  0  0  0  0  0  0  0  0  0  0
    3.3086    2.7911   -2.5987 H   0  0  0  0  0  0  0  0  0  0  0  0
    2.2243    1.2761   -1.2311 H   0  0  0  0  0  0  0  0  0  0  0  0
   -1.5528    0.2161   -2.6750 H   0  0  0  0  0  0  0  0  0  0  0  0
   -4.0246   -0.0039   -2.4200 H   0  0  0  0  0  0  0  0  0  0  0  0
   -5.8260    0.1518   -0.8369 H   0  0  0  0  0  0  0  0  0  0  0  0
   -6.8106   -2.7138    2.7607 H   0  0  0  0  0  0  0  0  0  0  0  0
   -8.5985   -2.2800    2.7131 H   0  0  0  0  0  0  0  0  0  0  0  0
   -7.0275   -3.7752    0.4011 H   0  0  0  0  0  0  0  0  0  0  0  0
   -8.7992   -3.3162    0.3639 H   0  0  0  0  0  0  0  0  0  0  0  0
   -7.6334    1.0911   -0.3743 H   0  0  0  0  0  0  0  0  0  0  0  0
   -9.1652    2.8388    0.7401 H   0  0  0  0  0  0  0  0  0  0  0  0
  -11.5358    3.5321    0.9159 H   0  0  0  0  0  0  0  0  0  0  0  0
  -10.8538    4.2484   -0.5572 H   0  0  0  0  0  0  0  0  0  0  0  0
  -13.1586    2.5647   -0.3407 H   0  0  0  0  0  0  0  0  0  0  0  0
  -12.6648    0.8691   -2.1323 H   0  0  0  0  0  0  0  0  0  0  0  0
  -10.6018   -0.3227   -1.7168 H   0  0  0  0  0  0  0  0  0  0  0  0
   -3.4037   -0.7893    1.7394 H   0  0  0  0  0  0  0  0  0  0  0  0
   -0.3200   -2.5956   -0.2356 H   0  0  0  0  0  0  0  0  0  0  0  0
    1.2680   -4.3480    0.1079 H   0  0  0  0  0  0  0  0  0  0  0  0
    5.3620   -2.4538   -0.5623 H   0  0  0  0  0  0  0  0  0  0  0  0
    7.4424   -1.9223   -1.5038 H   0  0  0  0  0  0  0  0  0  0  0  0
    8.4920   -0.5348   -1.2249 H   0  0  0  0  0  0  0  0  0  0  0  0
    6.7751   -1.8921    1.0071 H   0  0  0  0  0  0  0  0  0  0  0  0
    8.4922   -2.0400    0.6815 H   0  0  0  0  0  0  0  0  0  0  0  0
    7.1233    0.6400    1.3255 H   0  0  0  0  0  0  0  0  0  0  0  0
    8.0487   -0.4301    2.4644 H   0  0  0  0  0  0  0  0  0  0  0  0
    9.4079    1.7624    2.5778 H   0  0  0  0  0  0  0  0  0  0  0  0
    8.6320    2.4413    1.0296 H   0  0  0  0  0  0  0  0  0  0  0  0
   11.5508    2.0414    1.8480 H   0  0  0  0  0  0  0  0  0  0  0  0
   10.8264    3.2054    0.6080 H   0  0  0  0  0  0  0  0  0  0  0  0
   11.3001   -0.6008   -0.5146 H   0  0  0  0  0  0  0  0  0  0  0  0
   12.4569   -0.1361    0.8078 H   0  0  0  0  0  0  0  0  0  0  0  0
   10.1090   -1.3943    1.4038 H   0  0  0  0  0  0  0  0  0  0  0  0
   10.6797    0.0679    2.3647 H   0  0  0  0  0  0  0  0  0  0  0  0
  1  2  1  0
  2  3  1  0
  3  4  2  0
  4  5  1  0
  5  6  2  0
  6  7  1  0
  7  8  1  0
  8  9  2  0
  9 10  1  0
 10 11  2  0
 11 12  1  0
 12 13  1  0
 13 14  2  0
 13 15  1  0
 15 16  1  0
 16 17  1  0
 15 18  1  0
 18 19  2  0
 18 20  1  0
 20 21  1  0
 21 22  2  0
 22 23  1  0
 23 24  1  0
 24 25  1  0
 24 26  1  0
 26 27  2  0
 11 28  1  0
 28 29  2  0
 29 30  1  0
  6 31  1  0
 31 32  2  0
 32 33  1  0
 33 34  2  0
 34 35  1  0
 35 36  2  0
 36 37  1  0
 37 38  1  0
 38 39  1  0
 39 40  1  0
 40 41  1  0
 41 42  1  0
 42 43  1  0
 43 44  1  0
 44 45  1  0
 45 46  1  0
 36  3  1  0
 46 41  1  0
 34  5  1  0
 29  8  1  0
 17 15  1  0
 27 21  1  0
  1 47  1  0
  1 48  1  0
  1 49  1  0
  4 50  1  0
  9 51  1  0
 10 52  1  0
 12 53  1  0
 16 54  1  0
 16 55  1  0
 17 56  1  0
 17 57  1  0
 20 58  1  0
 22 59  1  0
 23 60  1  0
 23 61  1  0
 24 62  1  0
 26 63  1  0
 27 64  1  0
 28 65  1  0
 31 66  1  0
 32 67  1  0
 35 68  1  0
 38 69  1  0
 38 70  1  0
 39 71  1  0
 39 72  1  0
 40 73  1  0
 40 74  1  0
 42 75  1  0
 42 76  1  0
 43 77  1  0
 43 78  1  0
 45 79  1  0
 45 80  1  0
 46 81  1  0
 46 82  1  0
M  END
$$$$
[H]C#C[C@]1(O[H])C([H])([H])C([H])([H])C2([H])C3([H])C([H])([H])C([H])([H])C4=C([H])C(=O)C([H])([H])C([H])([H])[C@]4(C([H])=C([H])[H])C3([H])C([H])([H])C([H])([H])[C@@]21C([H])([H])[H]
     RDKit          3D

 52 55  0  0  0  0  0  0  0  0999 V2000
    2.7328    1.4117   -0.8718 C   0  0  0  0  0  0  0  0  0  0  0  0
    2.2531    0.0883   -0.3155 C   0  0  2  0  0  0  0  0  0  0  0  0
    1.6363   -0.7794   -1.3502 C   0  0  0  0  0  0  0  0  0  0  0  0
    0.1626   -0.9070   -1.3194 C   0  0  0  0  0  0  0  0  0  0  0  0
   -0.5235    0.2315   -0.6225 C   0  0  0  0  0  0  0  0  0  0  0  0
    0.0110    0.5444    0.7401 C   0  0  0  0  0  0  0  0  0  0  0  0
   -0.2848    2.0092    1.0093 C   0  0  0  0  0  0  0  0  0  0  0  0
   -1.5735    2.4473    0.3538 C   0  0  0  0  0  0  0  0  0  0  0  0
   -2.5060    1.3105    0.1491 C   0  0  0  0  0  0  0  0  0  0  0  0
   -3.7334    1.2957    0.6267 C   0  0  0  0  0  0  0  0  0  0  0  0
   -4.6377    0.1669    0.4152 C   0  0  0  0  0  0  0  0  0  0  0  0
   -5.8615    0.3689    0.6003 O   0  0  0  0  0  0  0  0  0  0  0  0
   -4.0629   -1.1199    0.0034 C   0  0  0  0  0  0  0  0  0  0  0  0
   -2.5599   -1.0825    0.0417 C   0  0  0  0  0  0  0  0  0  0  0  0
   -2.0192    0.1362   -0.6361 C   0  0  2  0  0  0  0  0  0  0  0  0
   -2.5271    0.2884   -2.0291 C   0  0  0  0  0  0  0  0  0  0  0  0
   -2.8117   -0.7134   -2.8218 C   0  0  0  0  0  0  0  0  0  0  0  0
    1.4614    0.2197    0.9349 C   0  0  0  0  0  0  0  0  0  0  0  0
    1.6472   -1.1328    1.5915 C   0  0  0  0  0  0  0  0  0  0  0  0
    2.9080   -1.7365    1.0386 C   0  0  0  0  0  0  0  0  0  0  0  0
    3.5186   -0.6080    0.2168 C   0  0  2  0  0  0  0  0  0  0  0  0
    4.1897    0.2089    1.1237 O   0  0  0  0  0  0  0  0  0  0  0  0
    4.3466   -1.0885   -0.8576 C   0  0  0  0  0  0  0  0  0  0  0  0
    5.0194   -1.5003   -1.7573 C   0  0  0  0  0  0  0  0  0  0  0  0
    2.0662    1.7724   -1.7014 H   0  0  0  0  0  0  0  0  0  0  0  0
    2.8283    2.1287   -0.0559 H   0  0  0  0  0  0  0  0  0  0  0  0
    3.7351    1.3100   -1.3483 H   0  0  0  0  0  0  0  0  0  0  0  0
    2.0237   -0.4203   -2.3503 H   0  0  0  0  0  0  0  0  0  0  0  0
    2.0614   -1.8242   -1.2763 H   0  0  0  0  0  0  0  0  0  0  0  0
   -0.2105   -1.8518   -0.9001 H   0  0  0  0  0  0  0  0  0  0  0  0
   -0.1835   -0.8604   -2.3958 H   0  0  0  0  0  0  0  0  0  0  0  0
   -0.2843    1.1446   -1.2515 H   0  0  0  0  0  0  0  0  0  0  0  0
   -0.5512   -0.0235    1.5155 H   0  0  0  0  0  0  0  0  0  0  0  0
   -0.3055    2.2366    2.0874 H   0  0  0  0  0  0  0  0  0  0  0  0
    0.5329    2.5957    0.5424 H   0  0  0  0  0  0  0  0  0  0  0  0
   -2.0339    3.2069    1.0187 H   0  0  0  0  0  0  0  0  0  0  0  0
   -1.3754    2.9879   -0.6146 H   0  0  0  0  0  0  0  0  0  0  0  0
   -4.0438    2.1804    1.1954 H   0  0  0  0  0  0  0  0  0  0  0  0
   -4.4940   -1.5313   -0.9164 H   0  0  0  0  0  0  0  0  0  0  0  0
   -4.3610   -1.8581    0.8092 H   0  0  0  0  0  0  0  0  0  0  0  0
   -2.1501   -2.0387   -0.3415 H   0  0  0  0  0  0  0  0  0  0  0  0
   -2.3065   -0.9768    1.1393 H   0  0  0  0  0  0  0  0  0  0  0  0
   -2.6652    1.2981   -2.3997 H   0  0  0  0  0  0  0  0  0  0  0  0
   -2.6784   -1.7282   -2.4673 H   0  0  0  0  0  0  0  0  0  0  0  0
   -3.1772   -0.5701   -3.8237 H   0  0  0  0  0  0  0  0  0  0  0  0
    1.9105    1.0071    1.5765 H   0  0  0  0  0  0  0  0  0  0  0  0
    0.7880   -1.7587    1.2737 H   0  0  0  0  0  0  0  0  0  0  0  0
    1.6751   -1.0453    2.6974 H   0  0  0  0  0  0  0  0  0  0  0  0
    3.5675   -1.9752    1.8985 H   0  0  0  0  0  0  0  0  0  0  0  0
    2.7605   -2.6525    0.4662 H   0  0  0  0  0  0  0  0  0  0  0  0
    4.4859    1.0604    0.7232 H   0  0  0  0  0  0  0  0  0  0  0  0
    5.5997   -1.8730   -2.5593 H   0  0  0  0  0  0  0  0  0  0  0  0
  2  1  1  6
  2  3  1  0
  3  4  1  0
  4  5  1  0
  5  6  1  0
  6  7  1  0
  7  8  1  0
  8  9  1  0
  9 10  2  0
 10 11  1  0
 11 12  2  0
 11 13  1  0
 13 14  1  0
 14 15  1  0
 15 16  1  6
 16 17  2  3
  6 18  1  0
 18 19  1  0
 19 20  1  0
 20 21  1  0
 21 22  1  0
 21 23  1  6
 23 24  3  0
 18  2  1  0
 21  2  1  0
 15  5  1  0
 15  9  1  0
  1 25  1  0
  1 26  1  0
  1 27  1  0
  3 28  1  0
  3 29  1  0
  4 30  1  0
  4 31  1  0
  5 32  1  0
  6 33  1  0
  7 34  1  0
  7 35  1  0
  8 36  1  0
  8 37  1  0
 10 38  1  0
 13 39  1  0
 13 40  1  0
 14 41  1  0
 14 42  1  0
 16 43  1  0
 17 44  1  0
 17 45  1  0
 18 46  1  0
 19 47  1  0
 19 48  1  0
 20 49  1  0
 20 50  1  0
 22 51  1  0
 24 52  1  0
M  END
$$$$
[H]C1=C(C(=O)[O-])N2C(=O)C(=O)[C@@]2([H])S1
     RDKit          3D

 14 15  0  0  0  0  0  0  0  0999 V2000
    2.4607    1.6687    0.3816 O   0  0  0  0  0  0  0  0  0  0  0  0
    2.3021    0.3622   -0.0413 C   0  0  0  0  0  0  0  0  0  0  0  0
    3.3411   -0.2973   -0.2699 O   0  0  0  0  0  0  0  0  0  0  0  0
    1.0066   -0.2950   -0.2377 C   0  0  0  0  0  0  0  0  0  0  0  0
    0.8786   -1.5448   -0.6436 C   0  0  0  0  0  0  0  0  0  0  0  0
   -0.9203   -1.8217   -0.7046 S   0  0  0  0  0  0  0  0  0  0  0  0
   -1.2486   -0.4895    0.5360 C   0  0  1  0  0  0  0  0  0  0  0  0
   -0.1986    0.3982   -0.0239 N   0  0  0  0  0  0  0  0  0  0  0  0
   -1.2144    1.4347    0.0383 C   0  0  0  0  0  0  0  0  0  0  0  0
   -1.1800    2.6892   -0.0314 O   0  0  0  0  0  0  0  0  0  0  0  0
   -2.2807    0.4607    0.2119 C   0  0  0  0  0  0  0  0  0  0  0  0
   -3.5058    0.4943    0.1116 O   0  0  0  0  0  0  0  0  0  0  0  0
    1.6355   -2.2664   -0.8915 H   0  0  0  0  0  0  0  0  0  0  0  0
   -1.0763   -0.7933    1.5645 H   0  0  0  0  0  0  0  0  0  0  0  0
  1  2  1  0
  2  3  2  0
  2  4  1  0
  4  5  2  0
  5  6  1  0
  6  7  1  0
  7  8  1  0
  8  9  1  0
  9 10  2  0
  9 11  1  0
 11 12  2  0
  8  4  1  0
 11  7  1  0
  5 13  1  0
  7 14  1  1
M  CHG  1   1  -1
M  END
$$$$
[H]OC1(C(F)(F)F)c2c([H])c([H])c([H])c([H])c2-c2c(-c3c([H])c([H])c([C@@](C(=O)N4C([H])([H])C([H])([H])OC([H])([H])[C@@]4([H])C([H])([H])[H])(N(C([H])([H])[H])C([H])([H])[H])C([H])([H])[H])c([H])c3[H])c([H])c(Cl)c([H])c21
     RDKit          3D

 69 73  0  0  0  0  0  0  0  0999 V2000
   -6.4625    0.6227    0.3476 C   0  0  0  0  0  0  0  0  0  0  0  0
   -5.4141   -0.2908   -0.3051 C   0  0  2  0  0  0  0  0  0  0  0  0
   -6.1742   -1.5694   -0.6910 C   0  0  0  0  0  0  0  0  0  0  0  0
   -5.7320   -2.6714   -0.0064 O   0  0  0  0  0  0  0  0  0  0  0  0
   -5.7761   -2.5828    1.3616 C   0  0  0  0  0  0  0  0  0  0  0  0
   -5.1642   -1.3049    1.8920 C   0  0  0  0  0  0  0  0  0  0  0  0
   -4.5006   -0.6623    0.7424 N   0  0  0  0  0  0  0  0  0  0  0  0
   -3.1055   -0.4754    0.7629 C   0  0  0  0  0  0  0  0  0  0  0  0
   -2.5386   -0.9331    1.8233 O   0  0  0  0  0  0  0  0  0  0  0  0
   -2.2957    0.1758   -0.3006 C   0  0  1  0  0  0  0  0  0  0  0  0
   -2.2215   -0.8324   -1.5028 C   0  0  0  0  0  0  0  0  0  0  0  0
   -2.8343    1.3814   -0.7769 N   0  0  0  0  0  0  0  0  0  0  0  0
   -3.0335    2.4622    0.1041 C   0  0  0  0  0  0  0  0  0  0  0  0
   -2.4319    1.8215   -2.0660 C   0  0  0  0  0  0  0  0  0  0  0  0
   -0.8902    0.2787    0.1145 C   0  0  0  0  0  0  0  0  0  0  0  0
   -0.3185   -0.9263    0.5624 C   0  0  0  0  0  0  0  0  0  0  0  0
    0.9656   -1.0072    0.9943 C   0  0  0  0  0  0  0  0  0  0  0  0
    1.7201    0.1375    0.9858 C   0  0  0  0  0  0  0  0  0  0  0  0
    1.1839    1.3292    0.5505 C   0  0  0  0  0  0  0  0  0  0  0  0
   -0.1192    1.4071    0.1135 C   0  0  0  0  0  0  0  0  0  0  0  0
    3.0825    0.0974    1.4963 C   0  0  0  0  0  0  0  0  0  0  0  0
    3.2821    0.2392    2.8836 C   0  0  0  0  0  0  0  0  0  0  0  0
    4.5361    0.2547    3.4323 C   0  0  0  0  0  0  0  0  0  0  0  0
    4.7715    0.4324    5.1701 Cl  0  0  0  0  0  0  0  0  0  0  0  0
    5.5969    0.1265    2.5753 C   0  0  0  0  0  0  0  0  0  0  0  0
    5.4002   -0.0165    1.1837 C   0  0  0  0  0  0  0  0  0  0  0  0
    4.1425   -0.0335    0.6307 C   0  0  0  0  0  0  0  0  0  0  0  0
    4.2719   -0.2145   -0.8144 C   0  0  0  0  0  0  0  0  0  0  0  0
    3.3528   -0.3208   -1.8375 C   0  0  0  0  0  0  0  0  0  0  0  0
    3.7760   -0.5126   -3.1611 C   0  0  0  0  0  0  0  0  0  0  0  0
    5.1047   -0.6028   -3.4964 C   0  0  0  0  0  0  0  0  0  0  0  0
    6.0110   -0.4968   -2.4752 C   0  0  0  0  0  0  0  0  0  0  0  0
    5.6013   -0.3038   -1.1407 C   0  0  0  0  0  0  0  0  0  0  0  0
    6.3823   -0.1626    0.0975 C   0  0  0  0  0  0  0  0  0  0  0  0
    7.2465   -1.2376    0.3052 O   0  0  0  0  0  0  0  0  0  0  0  0
    7.1745    1.1458    0.0055 C   0  0  0  0  0  0  0  0  0  0  0  0
    6.3020    2.1813   -0.2656 F   0  0  0  0  0  0  0  0  0  0  0  0
    8.0695    1.0747   -1.0488 F   0  0  0  0  0  0  0  0  0  0  0  0
    7.8122    1.4313    1.1946 F   0  0  0  0  0  0  0  0  0  0  0  0
   -6.9341    1.1668   -0.5015 H   0  0  0  0  0  0  0  0  0  0  0  0
   -6.0112    1.3023    1.0797 H   0  0  0  0  0  0  0  0  0  0  0  0
   -7.2514   -0.0224    0.7756 H   0  0  0  0  0  0  0  0  0  0  0  0
   -4.9787    0.1854   -1.1769 H   0  0  0  0  0  0  0  0  0  0  0  0
   -7.2722   -1.4204   -0.6508 H   0  0  0  0  0  0  0  0  0  0  0  0
   -5.9435   -1.7456   -1.7717 H   0  0  0  0  0  0  0  0  0  0  0  0
   -6.7785   -2.7879    1.8002 H   0  0  0  0  0  0  0  0  0  0  0  0
   -5.1282   -3.4219    1.7537 H   0  0  0  0  0  0  0  0  0  0  0  0
   -5.9534   -0.6183    2.2207 H   0  0  0  0  0  0  0  0  0  0  0  0
   -4.4321   -1.5066    2.6969 H   0  0  0  0  0  0  0  0  0  0  0  0
   -2.9983   -0.6308   -2.2336 H   0  0  0  0  0  0  0  0  0  0  0  0
   -1.2390   -0.7490   -2.0052 H   0  0  0  0  0  0  0  0  0  0  0  0
   -2.3270   -1.8442   -1.1200 H   0  0  0  0  0  0  0  0  0  0  0  0
   -2.6610    3.4352   -0.3378 H   0  0  0  0  0  0  0  0  0  0  0  0
   -4.1050    2.6798    0.3246 H   0  0  0  0  0  0  0  0  0  0  0  0
   -2.5383    2.3764    1.0907 H   0  0  0  0  0  0  0  0  0  0  0  0
   -3.1477    1.5599   -2.8720 H   0  0  0  0  0  0  0  0  0  0  0  0
   -1.4072    1.4686   -2.3084 H   0  0  0  0  0  0  0  0  0  0  0  0
   -2.3716    2.9473   -2.0793 H   0  0  0  0  0  0  0  0  0  0  0  0
   -0.8893   -1.8619    0.5491 H   0  0  0  0  0  0  0  0  0  0  0  0
    1.3835   -1.9455    1.3355 H   0  0  0  0  0  0  0  0  0  0  0  0
    1.7608    2.2580    0.5316 H   0  0  0  0  0  0  0  0  0  0  0  0
   -0.5448    2.3350   -0.2437 H   0  0  0  0  0  0  0  0  0  0  0  0
    2.4135    0.3380    3.5269 H   0  0  0  0  0  0  0  0  0  0  0  0
    6.6058    0.1339    2.9644 H   0  0  0  0  0  0  0  0  0  0  0  0
    2.3152   -0.2718   -1.6542 H   0  0  0  0  0  0  0  0  0  0  0  0
    3.0328   -0.5928   -3.9488 H   0  0  0  0  0  0  0  0  0  0  0  0
    5.4365   -0.7512   -4.5192 H   0  0  0  0  0  0  0  0  0  0  0  0
    7.0755   -0.5607   -2.6801 H   0  0  0  0  0  0  0  0  0  0  0  0
    8.1153   -0.8975    0.6590 H   0  0  0  0  0  0  0  0  0  0  0  0
  1  2  1  0
  2  3  1  0
  3  4  1  0
  4  5  1  0
  5  6  1  0
  6  7  1  0
  7  8  1  0
  8  9  2  0
 10  8  1  1
 10 11  1  0
 10 12  1  0
 12 13  1  0
 12 14  1  0
 10 15  1  0
 15 16  2  0
 16 17  1  0
 17 18  2  0
 18 19  1  0
 19 20  2  0
 18 21  1  0
 21 22  2  0
 22 23  1  0
 23 24  1  0
 23 25  2  0
 25 26  1  0
 26 27  2  0
 27 28  1  0
 28 29  2  0
 29 30  1  0
 30 31  2  0
 31 32  1  0
 32 33  2  0
 33 34  1  0
 34 35  1  0
 34 36  1  0
 36 37  1  0
 36 38  1  0
 36 39  1  0
  7  2  1  0
 20 15  1  0
 27 21  1  0
 33 28  1  0
 34 26  1  0
  1 40  1  0
  1 41  1  0
  1 42  1  0
  2 43  1  6
  3 44  1  0
  3 45  1  0
  5 46  1  0
  5 47  1  0
  6 48  1  0
  6 49  1  0
 11 50  1  0
 11 51  1  0
 11 52  1  0
 13 53  1  0
 13 54  1  0
 13 55  1  0
 14 56  1  0
 14 57  1  0
 14 58  1  0
 16 59  1  0
 17 60  1  0
 19 61  1  0
 20 62  1  0
 22 63  1  0
 25 64  1  0
 29 65  1  0
 30 66  1  0
 31 67  1  0
 32 68  1  0
 35 69  1  0
M  END
$$$$
[H]c1nc(N([H])[H])c2c(-c3c([H])c([H])c(C(=O)N([H])[C@]([H])(c4c([H])c([H])c(C#N)c([H])c4[H])C([H])([H])C([H])(C([H])([H])[H])C([H])([H])[H])c([H])c3[H])c([H])n([H])c2n1
     RDKit          3D

 56 59  0  0  0  0  0  0  0  0999 V2000
   -3.0010    1.2223   -3.0667 C   0  0  0  0  0  0  0  0  0  0  0  0
   -3.0900   -0.1391   -2.4705 C   0  0  0  0  0  0  0  0  0  0  0  0
   -3.8376   -1.0779   -3.4265 C   0  0  0  0  0  0  0  0  0  0  0  0
   -3.8285   -0.1982   -1.1587 C   0  0  0  0  0  0  0  0  0  0  0  0
   -3.2002    0.6457   -0.0932 C   0  0  2  0  0  0  0  0  0  0  0  0
   -1.8343    0.1404    0.0974 N   0  0  0  0  0  0  0  0  0  0  0  0
   -0.7090    0.9956    0.0034 C   0  0  0  0  0  0  0  0  0  0  0  0
   -0.9147    2.2055   -0.2482 O   0  0  0  0  0  0  0  0  0  0  0  0
    0.6634    0.5493    0.1818 C   0  0  0  0  0  0  0  0  0  0  0  0
    1.0104   -0.7425    0.4593 C   0  0  0  0  0  0  0  0  0  0  0  0
    2.3289   -1.1099    0.6183 C   0  0  0  0  0  0  0  0  0  0  0  0
    3.3656   -0.2042    0.5078 C   0  0  0  0  0  0  0  0  0  0  0  0
    3.0069    1.0891    0.2297 C   0  0  0  0  0  0  0  0  0  0  0  0
    1.6895    1.4784    0.0662 C   0  0  0  0  0  0  0  0  0  0  0  0
    4.7439   -0.6062    0.7231 C   0  0  0  0  0  0  0  0  0  0  0  0
    5.2552   -1.1137    1.9403 C   0  0  0  0  0  0  0  0  0  0  0  0
    6.5668   -1.3427    1.8060 N   0  0  0  0  0  0  0  0  0  0  0  0
    6.9840   -1.0251    0.5756 C   0  0  0  0  0  0  0  0  0  0  0  0
    8.1620   -1.0642   -0.0760 N   0  0  0  0  0  0  0  0  0  0  0  0
    8.3195   -0.6868   -1.3534 C   0  0  0  0  0  0  0  0  0  0  0  0
    7.2382   -0.2489   -2.0075 N   0  0  0  0  0  0  0  0  0  0  0  0
    6.0186   -0.1864   -1.4005 C   0  0  0  0  0  0  0  0  0  0  0  0
    4.8805    0.2609   -2.1347 N   0  0  0  0  0  0  0  0  0  0  0  0
    5.8478   -0.5662   -0.1014 C   0  0  0  0  0  0  0  0  0  0  0  0
   -3.8930    0.5033    1.2199 C   0  0  0  0  0  0  0  0  0  0  0  0
   -5.1628   -0.0084    1.3536 C   0  0  0  0  0  0  0  0  0  0  0  0
   -5.7847   -0.1304    2.5753 C   0  0  0  0  0  0  0  0  0  0  0  0
   -5.1013    0.2777    3.6961 C   0  0  0  0  0  0  0  0  0  0  0  0
   -3.8242    0.7932    3.5694 C   0  0  0  0  0  0  0  0  0  0  0  0
   -3.1832    0.9239    2.3546 C   0  0  0  0  0  0  0  0  0  0  0  0
   -5.7588    0.1472    4.9738 C   0  0  0  0  0  0  0  0  0  0  0  0
   -6.2994    0.0487    6.0057 N   0  0  0  0  0  0  0  0  0  0  0  0
   -1.9795    1.6578   -2.9519 H   0  0  0  0  0  0  0  0  0  0  0  0
   -3.1365    1.1129   -4.1820 H   0  0  0  0  0  0  0  0  0  0  0  0
   -3.7937    1.9209   -2.7428 H   0  0  0  0  0  0  0  0  0  0  0  0
   -2.0691   -0.5616   -2.3883 H   0  0  0  0  0  0  0  0  0  0  0  0
   -3.2033   -1.4265   -4.2432 H   0  0  0  0  0  0  0  0  0  0  0  0
   -4.1361   -1.9976   -2.8423 H   0  0  0  0  0  0  0  0  0  0  0  0
   -4.7989   -0.6278   -3.7583 H   0  0  0  0  0  0  0  0  0  0  0  0
   -3.9191   -1.2632   -0.8728 H   0  0  0  0  0  0  0  0  0  0  0  0
   -4.8822    0.1754   -1.3002 H   0  0  0  0  0  0  0  0  0  0  0  0
   -3.1479    1.7050   -0.3307 H   0  0  0  0  0  0  0  0  0  0  0  0
   -1.6678   -0.8660    0.3070 H   0  0  0  0  0  0  0  0  0  0  0  0
    0.2392   -1.4898    0.5560 H   0  0  0  0  0  0  0  0  0  0  0  0
    2.5371   -2.1683    0.8407 H   0  0  0  0  0  0  0  0  0  0  0  0
    3.7706    1.8616    0.1385 H   0  0  0  0  0  0  0  0  0  0  0  0
    1.5011    2.5149   -0.1505 H   0  0  0  0  0  0  0  0  0  0  0  0
    4.6235   -1.2691    2.8114 H   0  0  0  0  0  0  0  0  0  0  0  0
    7.2025   -1.7159    2.5386 H   0  0  0  0  0  0  0  0  0  0  0  0
    9.3066   -0.7381   -1.8404 H   0  0  0  0  0  0  0  0  0  0  0  0
    4.1751   -0.4573   -2.3999 H   0  0  0  0  0  0  0  0  0  0  0  0
    4.7018    1.2402   -2.4233 H   0  0  0  0  0  0  0  0  0  0  0  0
   -5.6999   -0.3296    0.4758 H   0  0  0  0  0  0  0  0  0  0  0  0
   -6.7950   -0.5456    2.6090 H   0  0  0  0  0  0  0  0  0  0  0  0
   -3.3126    1.1056    4.4698 H   0  0  0  0  0  0  0  0  0  0  0  0
   -2.1744    1.3317    2.2599 H   0  0  0  0  0  0  0  0  0  0  0  0
  1  2  1  0
  2  3  1  0
  2  4  1  0
  4  5  1  0
  5  6  1  0
  6  7  1  0
  7  8  2  0
  7  9  1  0
  9 10  2  0
 10 11  1  0
 11 12  2  0
 12 13  1  0
 13 14  2  0
 12 15  1  0
 15 16  2  0
 16 17  1  0
 17 18  1  0
 18 19  2  0
 19 20  1  0
 20 21  2  0
 21 22  1  0
 22 23  1  0
 22 24  2  0
  5 25  1  0
 25 26  2  0
 26 27  1  0
 27 28  2  0
 28 29  1  0
 29 30  2  0
 28 31  1  0
 31 32  3  0
 14  9  1  0
 24 15  1  0
 30 25  1  0
 24 18  1  0
  1 33  1  0
  1 34  1  0
  1 35  1  0
  2 36  1  0
  3 37  1  0
  3 38  1  0
  3 39  1  0
  4 40  1  0
  4 41  1  0
  5 42  1  6
  6 43  1  0
 10 44  1  0
 11 45  1  0
 13 46  1  0
 14 47  1  0
 16 48  1  0
 17 49  1  0
 20 50  1  0
 23 51  1  0
 23 52  1  0
 26 53  1  0
 27 54  1  0
 29 55  1  0
 30 56  1  0
M  END
$$$$
[H]OC(=O)c1c([H])c([H])c(C(=O)N([H])[C@]2([H])C([H])([H])C([H])([H])[C@]([H])(N([H])C(=O)c3c([H])c([H])c(OC([H])([H])[H])c(OC4([H])C([H])([H])C([H])([H])C([H])([H])C4([H])[H])c3[H])C([H])([H])C2([H])[H])c([H])c1[H]
     RDKit          3D

 67 70  0  0  0  0  0  0  0  0999 V2000
   -5.4663    4.1826   -1.7285 C   0  0  0  0  0  0  0  0  0  0  0  0
   -4.7315    3.1492   -1.4783 O   0  0  0  0  0  0  0  0  0  0  0  0
   -3.9802    2.1358   -1.2460 C   0  0  0  0  0  0  0  0  0  0  0  0
   -2.6801    2.0982   -1.7844 C   0  0  0  0  0  0  0  0  0  0  0  0
   -1.8456    1.0322   -1.5605 C   0  0  0  0  0  0  0  0  0  0  0  0
   -2.2773   -0.0302   -0.7941 C   0  0  0  0  0  0  0  0  0  0  0  0
   -3.5485    0.0142   -0.2716 C   0  0  0  0  0  0  0  0  0  0  0  0
   -4.4240    1.0497   -0.4610 C   0  0  0  0  0  0  0  0  0  0  0  0
   -5.6871    1.1364    0.0366 O   0  0  0  0  0  0  0  0  0  0  0  0
   -6.3600    0.2123    0.8349 C   0  0  0  0  0  0  0  0  0  0  0  0
   -6.8609    0.8207    2.1291 C   0  0  0  0  0  0  0  0  0  0  0  0
   -8.0546   -0.0987    2.4156 C   0  0  0  0  0  0  0  0  0  0  0  0
   -8.7661   -0.0486    1.0806 C   0  0  0  0  0  0  0  0  0  0  0  0
   -7.6289   -0.1822    0.0939 C   0  0  0  0  0  0  0  0  0  0  0  0
   -1.3938   -1.1566   -0.5459 C   0  0  0  0  0  0  0  0  0  0  0  0
   -1.8420   -2.2762   -0.2142 O   0  0  0  0  0  0  0  0  0  0  0  0
   -0.0026   -0.9812   -0.6831 N   0  0  0  0  0  0  0  0  0  0  0  0
    0.8748   -2.1160   -0.4422 C   0  0  2  0  0  0  0  0  0  0  0  0
    1.6648   -1.8319    0.8403 C   0  0  0  0  0  0  0  0  0  0  0  0
    2.6383   -2.9658    1.0059 C   0  0  0  0  0  0  0  0  0  0  0  0
    3.6759   -2.8867   -0.0706 C   0  0  1  0  0  0  0  0  0  0  0  0
    3.0264   -3.0196   -1.4098 C   0  0  0  0  0  0  0  0  0  0  0  0
    1.7820   -2.2356   -1.6192 C   0  0  0  0  0  0  0  0  0  0  0  0
    4.4749   -1.6757   -0.0179 N   0  0  0  0  0  0  0  0  0  0  0  0
    5.8723   -1.7314    0.0870 C   0  0  0  0  0  0  0  0  0  0  0  0
    6.4437   -2.8663    0.1325 O   0  0  0  0  0  0  0  0  0  0  0  0
    6.6961   -0.5509    0.1458 C   0  0  0  0  0  0  0  0  0  0  0  0
    8.0695   -0.6255   -0.0482 C   0  0  0  0  0  0  0  0  0  0  0  0
    8.8522    0.5091    0.0167 C   0  0  0  0  0  0  0  0  0  0  0  0
    8.3311    1.7508    0.2707 C   0  0  0  0  0  0  0  0  0  0  0  0
    6.9539    1.8378    0.4671 C   0  0  0  0  0  0  0  0  0  0  0  0
    6.1669    0.7044    0.4030 C   0  0  0  0  0  0  0  0  0  0  0  0
    9.1652    2.9417    0.3340 C   0  0  0  0  0  0  0  0  0  0  0  0
    8.6020    4.1900    0.6001 O   0  0  0  0  0  0  0  0  0  0  0  0
   10.3847    2.8677    0.1544 O   0  0  0  0  0  0  0  0  0  0  0  0
   -5.0171    5.0582   -2.2772 H   0  0  0  0  0  0  0  0  0  0  0  0
   -6.4561    3.9186   -2.2146 H   0  0  0  0  0  0  0  0  0  0  0  0
   -5.8213    4.6801   -0.7633 H   0  0  0  0  0  0  0  0  0  0  0  0
   -2.3209    2.9302   -2.3958 H   0  0  0  0  0  0  0  0  0  0  0  0
   -0.8423    1.0444   -2.0038 H   0  0  0  0  0  0  0  0  0  0  0  0
   -3.8592   -0.8333    0.3238 H   0  0  0  0  0  0  0  0  0  0  0  0
   -5.8022   -0.6940    1.0809 H   0  0  0  0  0  0  0  0  0  0  0  0
   -7.2640    1.8217    1.9536 H   0  0  0  0  0  0  0  0  0  0  0  0
   -6.1683    0.7214    2.9639 H   0  0  0  0  0  0  0  0  0  0  0  0
   -8.6678    0.2773    3.2431 H   0  0  0  0  0  0  0  0  0  0  0  0
   -7.7070   -1.1479    2.5557 H   0  0  0  0  0  0  0  0  0  0  0  0
   -9.4597   -0.9173    0.9363 H   0  0  0  0  0  0  0  0  0  0  0  0
   -9.2940    0.9257    0.9565 H   0  0  0  0  0  0  0  0  0  0  0  0
   -7.5716   -1.1733   -0.3742 H   0  0  0  0  0  0  0  0  0  0  0  0
   -7.8471    0.5308   -0.7451 H   0  0  0  0  0  0  0  0  0  0  0  0
    0.4467   -0.0726   -0.9474 H   0  0  0  0  0  0  0  0  0  0  0  0
    0.2988   -3.0436   -0.2582 H   0  0  0  0  0  0  0  0  0  0  0  0
    0.9088   -1.8166    1.6581 H   0  0  0  0  0  0  0  0  0  0  0  0
    2.1463   -0.8563    0.7030 H   0  0  0  0  0  0  0  0  0  0  0  0
    2.0612   -3.9098    0.8315 H   0  0  0  0  0  0  0  0  0  0  0  0
    3.0712   -3.0070    2.0275 H   0  0  0  0  0  0  0  0  0  0  0  0
    4.3509   -3.7921    0.0286 H   0  0  0  0  0  0  0  0  0  0  0  0
    2.8930   -4.0953   -1.6989 H   0  0  0  0  0  0  0  0  0  0  0  0
    3.7786   -2.6390   -2.1621 H   0  0  0  0  0  0  0  0  0  0  0  0
    1.9973   -1.2384   -2.0631 H   0  0  0  0  0  0  0  0  0  0  0  0
    1.1975   -2.7806   -2.4197 H   0  0  0  0  0  0  0  0  0  0  0  0
    4.0080   -0.7536   -0.0609 H   0  0  0  0  0  0  0  0  0  0  0  0
    8.5742   -1.5687   -0.2570 H   0  0  0  0  0  0  0  0  0  0  0  0
    9.9330    0.4456   -0.1360 H   0  0  0  0  0  0  0  0  0  0  0  0
    6.5127    2.7853    0.6690 H   0  0  0  0  0  0  0  0  0  0  0  0
    5.1021    0.8507    0.5666 H   0  0  0  0  0  0  0  0  0  0  0  0
    8.6936    4.9956    0.0085 H   0  0  0  0  0  0  0  0  0  0  0  0
  1  2  1  0
  2  3  1  0
  3  4  2  0
  4  5  1  0
  5  6  2  0
  6  7  1  0
  7  8  2  0
  8  9  1  0
  9 10  1  0
 10 11  1  0
 11 12  1  0
 12 13  1  0
 13 14  1  0
  6 15  1  0
 15 16  2  0
 15 17  1  0
 17 18  1  0
 18 19  1  0
 19 20  1  0
 20 21  1  0
 21 22  1  0
 22 23  1  0
 21 24  1  0
 24 25  1  0
 25 26  2  0
 25 27  1  0
 27 28  2  0
 28 29  1  0
 29 30  2  0
 30 31  1  0
 31 32  2  0
 30 33  1  0
 33 34  1  0
 33 35  2  0
  8  3  1  0
 14 10  1  0
 23 18  1  0
 32 27  1  0
  1 36  1  0
  1 37  1  0
  1 38  1  0
  4 39  1  0
  5 40  1  0
  7 41  1  0
 10 42  1  0
 11 43  1  0
 11 44  1  0
 12 45  1  0
 12 46  1  0
 13 47  1  0
 13 48  1  0
 14 49  1  0
 14 50  1  0
 17 51  1  0
 18 52  1  1
 19 53  1  0
 19 54  1  0
 20 55  1  0
 20 56  1  0
 21 57  1  1
 22 58  1  0
 22 59  1  0
 23 60  1  0
 23 61  1  0
 24 62  1  0
 28 63  1  0
 29 64  1  0
 31 65  1  0
 32 66  1  0
 34 67  1  0
M  END
$$$$
[H]OC(=O)C([H])([H])[C@@]([H])(C(=O)N1C([H])([H])C([H])([H])C([H])([H])[C@@]1([H])C(=O)N([H])[C@]([H])(C(=O)N([H])[C@]([H])(C(=O)O[H])C([H])(C([H])([H])[H])C([H])([H])[H])C([H])([H])c1c([H])c([H])c(O[H])c([H])c1[H])N([H])C(=O)[C@@]([H])(N([H])C(=O)C([H])([H])[H])C([H])([H])c1c([H])c([H])c([H])c([H])c1[H]
     RDKit          3D

 92 94  0  0  0  0  0  0  0  0999 V2000
   -8.4633   -1.5626    2.3995 C   0  0  0  0  0  0  0  0  0  0  0  0
   -7.7116   -2.3754    1.3867 C   0  0  0  0  0  0  0  0  0  0  0  0
   -8.5264   -3.5445    0.8841 C   0  0  0  0  0  0  0  0  0  0  0  0
   -7.1091   -1.5562    0.2955 C   0  0  2  0  0  0  0  0  0  0  0  0
   -6.1675   -0.6131    0.8524 N   0  0  0  0  0  0  0  0  0  0  0  0
   -4.8652   -0.3864    0.3288 C   0  0  0  0  0  0  0  0  0  0  0  0
   -4.5871   -1.0620   -0.6994 O   0  0  0  0  0  0  0  0  0  0  0  0
   -3.8475    0.5135    0.8388 C   0  0  2  0  0  0  0  0  0  0  0  0
   -4.1720    1.8752    1.2593 C   0  0  0  0  0  0  0  0  0  0  0  0
   -4.7079    2.8275    0.3181 C   0  0  0  0  0  0  0  0  0  0  0  0
   -6.0346    3.0262    0.0795 C   0  0  0  0  0  0  0  0  0  0  0  0
   -6.4510    3.9774   -0.8480 C   0  0  0  0  0  0  0  0  0  0  0  0
   -5.5763    4.7582   -1.5655 C   0  0  0  0  0  0  0  0  0  0  0  0
   -5.9572    5.7179   -2.5002 O   0  0  0  0  0  0  0  0  0  0  0  0
   -4.2196    4.5454   -1.3124 C   0  0  0  0  0  0  0  0  0  0  0  0
   -3.8259    3.6133   -0.4040 C   0  0  0  0  0  0  0  0  0  0  0  0
   -2.7689    0.5342   -0.1453 N   0  0  0  0  0  0  0  0  0  0  0  0
   -1.5515   -0.1644   -0.0311 C   0  0  0  0  0  0  0  0  0  0  0  0
   -1.2471   -0.8921    0.9384 O   0  0  0  0  0  0  0  0  0  0  0  0
   -0.5497   -0.0381   -1.1343 C   0  0  2  0  0  0  0  0  0  0  0  0
   -1.1338   -0.5505   -2.4379 C   0  0  0  0  0  0  0  0  0  0  0  0
   -0.8180   -2.0238   -2.4275 C   0  0  0  0  0  0  0  0  0  0  0  0
    0.0818   -2.2485   -1.2629 C   0  0  0  0  0  0  0  0  0  0  0  0
    0.5471   -0.9361   -0.8793 N   0  0  0  0  0  0  0  0  0  0  0  0
    1.8084   -0.5282   -0.3706 C   0  0  0  0  0  0  0  0  0  0  0  0
    2.0109    0.7010   -0.1471 O   0  0  0  0  0  0  0  0  0  0  0  0
    2.9316   -1.4368   -0.0747 C   0  0  2  0  0  0  0  0  0  0  0  0
    2.5442   -2.4443    0.9862 C   0  0  0  0  0  0  0  0  0  0  0  0
    2.1399   -1.8176    2.2538 C   0  0  0  0  0  0  0  0  0  0  0  0
    1.7828   -2.6288    3.3108 O   0  0  0  0  0  0  0  0  0  0  0  0
    2.1073   -0.5837    2.4098 O   0  0  0  0  0  0  0  0  0  0  0  0
    4.1207   -0.7472    0.3612 N   0  0  0  0  0  0  0  0  0  0  0  0
    5.3726   -0.9161   -0.3248 C   0  0  0  0  0  0  0  0  0  0  0  0
    5.3554   -1.7044   -1.3213 O   0  0  0  0  0  0  0  0  0  0  0  0
    6.6142   -0.2395    0.0725 C   0  0  2  0  0  0  0  0  0  0  0  0
    6.5009    1.2677    0.0848 C   0  0  0  0  0  0  0  0  0  0  0  0
    7.8109    1.8947    0.4849 C   0  0  0  0  0  0  0  0  0  0  0  0
    8.7385    2.2439   -0.4648 C   0  0  0  0  0  0  0  0  0  0  0  0
    9.9205    2.8174   -0.0633 C   0  0  0  0  0  0  0  0  0  0  0  0
   10.2405    3.0698    1.2701 C   0  0  0  0  0  0  0  0  0  0  0  0
    9.2747    2.6994    2.1849 C   0  0  0  0  0  0  0  0  0  0  0  0
    8.0851    2.1247    1.8069 C   0  0  0  0  0  0  0  0  0  0  0  0
    7.6853   -0.6640   -0.8122 N   0  0  0  0  0  0  0  0  0  0  0  0
    8.7480   -1.4658   -0.3026 C   0  0  0  0  0  0  0  0  0  0  0  0
    9.8514   -1.9086   -1.2145 C   0  0  0  0  0  0  0  0  0  0  0  0
    8.7599   -1.7972    0.8926 O   0  0  0  0  0  0  0  0  0  0  0  0
   -8.0798   -0.9830   -0.6311 C   0  0  0  0  0  0  0  0  0  0  0  0
   -9.0296   -1.7796   -1.2216 O   0  0  0  0  0  0  0  0  0  0  0  0
   -8.0732    0.2309   -0.9100 O   0  0  0  0  0  0  0  0  0  0  0  0
   -8.3583   -0.4835    2.1527 H   0  0  0  0  0  0  0  0  0  0  0  0
   -9.5649   -1.7934    2.3852 H   0  0  0  0  0  0  0  0  0  0  0  0
   -8.1249   -1.7965    3.4289 H   0  0  0  0  0  0  0  0  0  0  0  0
   -6.8348   -2.8435    1.9352 H   0  0  0  0  0  0  0  0  0  0  0  0
   -8.6027   -4.3392    1.6836 H   0  0  0  0  0  0  0  0  0  0  0  0
   -9.5620   -3.2400    0.6564 H   0  0  0  0  0  0  0  0  0  0  0  0
   -8.0224   -4.0640    0.0393 H   0  0  0  0  0  0  0  0  0  0  0  0
   -6.4860   -2.2595   -0.3461 H   0  0  0  0  0  0  0  0  0  0  0  0
   -6.4428   -0.0561    1.6833 H   0  0  0  0  0  0  0  0  0  0  0  0
   -3.3725   -0.0556    1.7062 H   0  0  0  0  0  0  0  0  0  0  0  0
   -4.9055    1.7947    2.1271 H   0  0  0  0  0  0  0  0  0  0  0  0
   -3.2541    2.2966    1.7794 H   0  0  0  0  0  0  0  0  0  0  0  0
   -6.7965    2.4519    0.6035 H   0  0  0  0  0  0  0  0  0  0  0  0
   -7.5125    4.1423   -1.0430 H   0  0  0  0  0  0  0  0  0  0  0  0
   -6.0706    5.4647   -3.4754 H   0  0  0  0  0  0  0  0  0  0  0  0
   -3.4562    5.1294   -1.8420 H   0  0  0  0  0  0  0  0  0  0  0  0
   -2.7386    3.4934   -0.2489 H   0  0  0  0  0  0  0  0  0  0  0  0
   -2.9316    1.1200   -0.9934 H   0  0  0  0  0  0  0  0  0  0  0  0
   -0.2251    1.0080   -1.2479 H   0  0  0  0  0  0  0  0  0  0  0  0
   -0.6305   -0.0408   -3.3036 H   0  0  0  0  0  0  0  0  0  0  0  0
   -2.2278   -0.3662   -2.4654 H   0  0  0  0  0  0  0  0  0  0  0  0
   -0.2956   -2.3335   -3.3736 H   0  0  0  0  0  0  0  0  0  0  0  0
   -1.7579   -2.6264   -2.3727 H   0  0  0  0  0  0  0  0  0  0  0  0
    0.9431   -2.9081   -1.5657 H   0  0  0  0  0  0  0  0  0  0  0  0
   -0.4228   -2.7820   -0.4157 H   0  0  0  0  0  0  0  0  0  0  0  0
    3.2316   -2.0084   -1.0106 H   0  0  0  0  0  0  0  0  0  0  0  0
    3.4524   -3.1017    1.1885 H   0  0  0  0  0  0  0  0  0  0  0  0
    1.7796   -3.1737    0.6160 H   0  0  0  0  0  0  0  0  0  0  0  0
    2.1060   -2.5526    4.2444 H   0  0  0  0  0  0  0  0  0  0  0  0
    4.1465   -0.0957    1.1791 H   0  0  0  0  0  0  0  0  0  0  0  0
    6.8576   -0.5999    1.1008 H   0  0  0  0  0  0  0  0  0  0  0  0
    6.2363    1.6763   -0.9056 H   0  0  0  0  0  0  0  0  0  0  0  0
    5.7339    1.5574    0.8280 H   0  0  0  0  0  0  0  0  0  0  0  0
    8.5504    2.0744   -1.5171 H   0  0  0  0  0  0  0  0  0  0  0  0
   10.6914    3.1131   -0.7897 H   0  0  0  0  0  0  0  0  0  0  0  0
   11.1803    3.5225    1.5405 H   0  0  0  0  0  0  0  0  0  0  0  0
    9.4762    2.8763    3.2549 H   0  0  0  0  0  0  0  0  0  0  0  0
    7.3826    1.8633    2.5971 H   0  0  0  0  0  0  0  0  0  0  0  0
    7.6618   -0.3721   -1.8203 H   0  0  0  0  0  0  0  0  0  0  0  0
    9.5190   -1.8445   -2.2556 H   0  0  0  0  0  0  0  0  0  0  0  0
   10.0458   -3.0070   -1.0209 H   0  0  0  0  0  0  0  0  0  0  0  0
   10.7550   -1.3058   -1.0848 H   0  0  0  0  0  0  0  0  0  0  0  0
   -8.7116   -2.3747   -1.9954 H   0  0  0  0  0  0  0  0  0  0  0  0
  1  2  1  0
  2  3  1  0
  2  4  1  0
  4  5  1  0
  5  6  1  0
  6  7  2  0
  6  8  1  0
  8  9  1  0
  9 10  1  0
 10 11  2  0
 11 12  1  0
 12 13  2  0
 13 14  1  0
 13 15  1  0
 15 16  2  0
  8 17  1  0
 17 18  1  0
 18 19  2  0
 18 20  1  0
 20 21  1  0
 21 22  1  0
 22 23  1  0
 23 24  1  0
 24 25  1  0
 25 26  2  0
 25 27  1  0
 27 28  1  0
 28 29  1  0
 29 30  1  0
 29 31  2  0
 27 32  1  0
 32 33  1  0
 33 34  2  0
 33 35  1  0
 35 36  1  0
 36 37  1  0
 37 38  2  0
 38 39  1  0
 39 40  2  0
 40 41  1  0
 41 42  2  0
 35 43  1  0
 43 44  1  0
 44 45  1  0
 44 46  2  0
  4 47  1  0
 47 48  1  0
 47 49  2  0
 16 10  1  0
 24 20  1  0
 42 37  1  0
  1 50  1  0
  1 51  1  0
  1 52  1  0
  2 53  1  0
  3 54  1  0
  3 55  1  0
  3 56  1  0
  4 57  1  6
  5 58  1  0
  8 59  1  1
  9 60  1  0
  9 61  1  0
 11 62  1  0
 12 63  1  0
 14 64  1  0
 15 65  1  0
 16 66  1  0
 17 67  1  0
 20 68  1  6
 21 69  1  0
 21 70  1  0
 22 71  1  0
 22 72  1  0
 23 73  1  0
 23 74  1  0
 27 75  1  6
 28 76  1  0
 28 77  1  0
 30 78  1  0
 32 79  1  0
 35 80  1  1
 36 81  1  0
 36 82  1  0
 38 83  1  0
 39 84  1  0
 40 85  1  0
 41 86  1  0
 42 87  1  0
 43 88  1  0
 45 89  1  0
 45 90  1  0
 45 91  1  0
 48 92  1  0
M  END
$$$$
[H]OC(=O)c1c([H])c([H])c(N([H])C(=O)c2c([H])c([H])c(-c3c([H])c([H])c(S(=O)(=O)N([H])[H])c([H])c3[H])c([H])c2[H])c([H])c1[H]
     RDKit          3D

 44 46  0  0  0  0  0  0  0  0999 V2000
   -8.5848   -0.1705   -1.6349 N   0  0  0  0  0  0  0  0  0  0  0  0
   -8.0379    0.4422   -0.1185 S   0  0  0  0  0  0  0  0  0  0  0  0
   -8.4788    1.8751   -0.0307 O   0  0  0  0  0  0  0  0  0  0  0  0
   -8.6494   -0.2826    1.0429 O   0  0  0  0  0  0  0  0  0  0  0  0
   -6.2937    0.3069    0.0426 C   0  0  0  0  0  0  0  0  0  0  0  0
   -5.5035    1.3546   -0.3877 C   0  0  0  0  0  0  0  0  0  0  0  0
   -4.1385    1.2210   -0.2489 C   0  0  0  0  0  0  0  0  0  0  0  0
   -3.5207    0.1121    0.2898 C   0  0  0  0  0  0  0  0  0  0  0  0
   -4.3566   -0.9174    0.7092 C   0  0  0  0  0  0  0  0  0  0  0  0
   -5.7311   -0.8268    0.5894 C   0  0  0  0  0  0  0  0  0  0  0  0
   -2.0702    0.0122    0.4180 C   0  0  0  0  0  0  0  0  0  0  0  0
   -1.4714   -0.6970    1.4380 C   0  0  0  0  0  0  0  0  0  0  0  0
   -0.0951   -0.7793    1.5410 C   0  0  0  0  0  0  0  0  0  0  0  0
    0.7439   -0.1556    0.6280 C   0  0  0  0  0  0  0  0  0  0  0  0
    0.1664    0.5523   -0.3900 C   0  0  0  0  0  0  0  0  0  0  0  0
   -1.2308    0.6281   -0.4835 C   0  0  0  0  0  0  0  0  0  0  0  0
    2.2006   -0.2947    0.8239 C   0  0  0  0  0  0  0  0  0  0  0  0
    2.6481   -0.7542    1.8983 O   0  0  0  0  0  0  0  0  0  0  0  0
    3.0475    0.0998   -0.2204 N   0  0  0  0  0  0  0  0  0  0  0  0
    4.4574    0.0061   -0.1539 C   0  0  0  0  0  0  0  0  0  0  0  0
    5.1879   -0.8293    0.6373 C   0  0  0  0  0  0  0  0  0  0  0  0
    6.5809   -0.8370    0.6630 C   0  0  0  0  0  0  0  0  0  0  0  0
    7.2999    0.0255   -0.1353 C   0  0  0  0  0  0  0  0  0  0  0  0
    6.5701    0.8643   -0.9309 C   0  0  0  0  0  0  0  0  0  0  0  0
    5.2001    0.8821   -0.9653 C   0  0  0  0  0  0  0  0  0  0  0  0
    8.7539    0.0534   -0.1420 C   0  0  0  0  0  0  0  0  0  0  0  0
    9.4968   -0.7940    0.6614 O   0  0  0  0  0  0  0  0  0  0  0  0
    9.3386    0.8663   -0.8956 O   0  0  0  0  0  0  0  0  0  0  0  0
   -7.7852   -0.1702   -2.2991 H   0  0  0  0  0  0  0  0  0  0  0  0
   -8.9592   -1.1267   -1.4674 H   0  0  0  0  0  0  0  0  0  0  0  0
   -5.9544    2.2539   -0.8217 H   0  0  0  0  0  0  0  0  0  0  0  0
   -3.5160    2.0351   -0.5826 H   0  0  0  0  0  0  0  0  0  0  0  0
   -3.8642   -1.7822    1.1299 H   0  0  0  0  0  0  0  0  0  0  0  0
   -6.3572   -1.6352    0.9207 H   0  0  0  0  0  0  0  0  0  0  0  0
   -2.0896   -1.1933    2.1642 H   0  0  0  0  0  0  0  0  0  0  0  0
    0.3800   -1.3452    2.3551 H   0  0  0  0  0  0  0  0  0  0  0  0
    0.7678    1.0578   -1.1224 H   0  0  0  0  0  0  0  0  0  0  0  0
   -1.6771    1.1918   -1.2947 H   0  0  0  0  0  0  0  0  0  0  0  0
    2.6483    0.4892   -1.1338 H   0  0  0  0  0  0  0  0  0  0  0  0
    4.6719   -1.5394    1.2683 H   0  0  0  0  0  0  0  0  0  0  0  0
    7.0766   -1.5291    1.3181 H   0  0  0  0  0  0  0  0  0  0  0  0
    7.0924    1.5599   -1.5758 H   0  0  0  0  0  0  0  0  0  0  0  0
    4.6557    1.5512   -1.5983 H   0  0  0  0  0  0  0  0  0  0  0  0
    9.3804   -1.7814    0.7314 H   0  0  0  0  0  0  0  0  0  0  0  0
  1  2  1  0
  2  3  2  0
  2  4  2  0
  2  5  1  0
  5  6  2  0
  6  7  1  0
  7  8  2  0
  8  9  1  0
  9 10  2  0
  8 11  1  0
 11 12  2  0
 12 13  1  0
 13 14  2  0
 14 15  1  0
 15 16  2  0
 14 17  1  0
 17 18  2  0
 17 19  1  0
 19 20  1  0
 20 21  2  0
 21 22  1  0
 22 23  2  0
 23 24  1  0
 24 25  2  0
 23 26  1  0
 26 27  1  0
 26 28  2  0
 10  5  1  0
 16 11  1  0
 25 20  1  0
  1 29  1  0
  1 30  1  0
  6 31  1  0
  7 32  1  0
  9 33  1  0
 10 34  1  0
 12 35  1  0
 13 36  1  0
 15 37  1  0
 16 38  1  0
 19 39  1  0
 21 40  1  0
 22 41  1  0
 24 42  1  0
 25 43  1  0
 27 44  1  0
M  END
$$$$
[H]OC(=O)C([H])([H])[C@@]([H])(C(=O)N([H])[C@]([H])(C(=O)O[H])C([H])([H])c1c([H])c([H])c([H])c([H])c1[H])N([H])C(=O)[C@@]([H])(N([H])C(=O)c1c([H])c([H])c(C#N)c([H])c1[H])C([H])([H])C([H])(C([H])([H])[H])C([H])([H])[H]
     RDKit          3D

 68 69  0  0  0  0  0  0  0  0999 V2000
   -4.5028   -2.3799    0.5620 C   0  0  0  0  0  0  0  0  0  0  0  0
   -3.3162   -2.2938    1.4472 C   0  0  0  0  0  0  0  0  0  0  0  0
   -3.6511   -1.6994    2.8256 C   0  0  0  0  0  0  0  0  0  0  0  0
   -2.0864   -1.6800    0.8977 C   0  0  0  0  0  0  0  0  0  0  0  0
   -2.1352   -0.2677    0.4319 C   0  0  2  0  0  0  0  0  0  0  0  0
   -3.0915   -0.0773   -0.6424 N   0  0  0  0  0  0  0  0  0  0  0  0
   -4.1124    0.9035   -0.5762 C   0  0  0  0  0  0  0  0  0  0  0  0
   -4.1603    1.6008    0.4750 O   0  0  0  0  0  0  0  0  0  0  0  0
   -5.0990    1.1739   -1.6060 C   0  0  0  0  0  0  0  0  0  0  0  0
   -4.9480    0.8528   -2.9370 C   0  0  0  0  0  0  0  0  0  0  0  0
   -5.9345    1.1384   -3.8765 C   0  0  0  0  0  0  0  0  0  0  0  0
   -7.1010    1.7562   -3.5109 C   0  0  0  0  0  0  0  0  0  0  0  0
   -7.2802    2.0923   -2.1776 C   0  0  0  0  0  0  0  0  0  0  0  0
   -6.2964    1.8019   -1.2606 C   0  0  0  0  0  0  0  0  0  0  0  0
   -8.1361    2.0716   -4.4834 C   0  0  0  0  0  0  0  0  0  0  0  0
   -8.9617    2.3368   -5.2522 N   0  0  0  0  0  0  0  0  0  0  0  0
   -0.7676    0.0005   -0.1523 C   0  0  0  0  0  0  0  0  0  0  0  0
   -0.5241   -0.4473   -1.2854 O   0  0  0  0  0  0  0  0  0  0  0  0
    0.1412    0.7448    0.6298 N   0  0  0  0  0  0  0  0  0  0  0  0
    1.4841    1.0719    0.1865 C   0  0  1  0  0  0  0  0  0  0  0  0
    1.3907    2.5341   -0.2950 C   0  0  0  0  0  0  0  0  0  0  0  0
    0.4214    2.7071   -1.3815 C   0  0  0  0  0  0  0  0  0  0  0  0
    0.8173    2.6763   -2.7107 O   0  0  0  0  0  0  0  0  0  0  0  0
   -0.7993    2.8925   -1.1685 O   0  0  0  0  0  0  0  0  0  0  0  0
    2.4965    0.9554    1.2250 C   0  0  0  0  0  0  0  0  0  0  0  0
    2.1743    1.0682    2.4644 O   0  0  0  0  0  0  0  0  0  0  0  0
    3.8714    0.7146    0.9741 N   0  0  0  0  0  0  0  0  0  0  0  0
    4.8523    0.6310    2.0463 C   0  0  1  0  0  0  0  0  0  0  0  0
    5.2105   -0.8159    2.3095 C   0  0  0  0  0  0  0  0  0  0  0  0
    5.7853   -1.5120    1.1405 C   0  0  0  0  0  0  0  0  0  0  0  0
    7.1348   -1.5929    0.9165 C   0  0  0  0  0  0  0  0  0  0  0  0
    7.6961   -2.2372   -0.1753 C   0  0  0  0  0  0  0  0  0  0  0  0
    6.8254   -2.8115   -1.0503 C   0  0  0  0  0  0  0  0  0  0  0  0
    5.4490   -2.7771   -0.8962 C   0  0  0  0  0  0  0  0  0  0  0  0
    4.9382   -2.1187    0.2117 C   0  0  0  0  0  0  0  0  0  0  0  0
    6.0568    1.3598    1.6181 C   0  0  0  0  0  0  0  0  0  0  0  0
    7.1314    1.4999    2.4963 O   0  0  0  0  0  0  0  0  0  0  0  0
    6.2051    1.8893    0.4816 O   0  0  0  0  0  0  0  0  0  0  0  0
   -5.0255   -3.3671    0.7808 H   0  0  0  0  0  0  0  0  0  0  0  0
   -4.2276   -2.4579   -0.4999 H   0  0  0  0  0  0  0  0  0  0  0  0
   -5.2954   -1.6306    0.7768 H   0  0  0  0  0  0  0  0  0  0  0  0
   -3.0305   -3.3679    1.7087 H   0  0  0  0  0  0  0  0  0  0  0  0
   -3.5466   -0.5886    2.7956 H   0  0  0  0  0  0  0  0  0  0  0  0
   -4.6706   -2.0162    3.1215 H   0  0  0  0  0  0  0  0  0  0  0  0
   -2.9576   -2.0656    3.6120 H   0  0  0  0  0  0  0  0  0  0  0  0
   -1.3247   -1.6926    1.7465 H   0  0  0  0  0  0  0  0  0  0  0  0
   -1.5884   -2.2988    0.1147 H   0  0  0  0  0  0  0  0  0  0  0  0
   -2.3412    0.4193    1.2831 H   0  0  0  0  0  0  0  0  0  0  0  0
   -3.0187   -0.6799   -1.4823 H   0  0  0  0  0  0  0  0  0  0  0  0
   -4.0171    0.3582   -3.2434 H   0  0  0  0  0  0  0  0  0  0  0  0
   -5.7889    0.8760   -4.9060 H   0  0  0  0  0  0  0  0  0  0  0  0
   -8.1961    2.5743   -1.8903 H   0  0  0  0  0  0  0  0  0  0  0  0
   -6.4175    2.0583   -0.2168 H   0  0  0  0  0  0  0  0  0  0  0  0
   -0.1500    1.0837    1.5643 H   0  0  0  0  0  0  0  0  0  0  0  0
    1.7375    0.5021   -0.7012 H   0  0  0  0  0  0  0  0  0  0  0  0
    1.1653    3.1911    0.5864 H   0  0  0  0  0  0  0  0  0  0  0  0
    2.3820    2.8714   -0.6729 H   0  0  0  0  0  0  0  0  0  0  0  0
    0.1652    2.7687   -3.4896 H   0  0  0  0  0  0  0  0  0  0  0  0
    4.2427    0.5759   -0.0051 H   0  0  0  0  0  0  0  0  0  0  0  0
    4.4046    0.9921    3.0062 H   0  0  0  0  0  0  0  0  0  0  0  0
    5.9877   -0.8755    3.1190 H   0  0  0  0  0  0  0  0  0  0  0  0
    4.3299   -1.3830    2.7088 H   0  0  0  0  0  0  0  0  0  0  0  0
    7.8252   -1.1383    1.6303 H   0  0  0  0  0  0  0  0  0  0  0  0
    8.7696   -2.2618   -0.2928 H   0  0  0  0  0  0  0  0  0  0  0  0
    7.2336   -3.3380   -1.9226 H   0  0  0  0  0  0  0  0  0  0  0  0
    4.7563   -3.2203   -1.5757 H   0  0  0  0  0  0  0  0  0  0  0  0
    3.8703   -2.0556    0.3928 H   0  0  0  0  0  0  0  0  0  0  0  0
    7.5482    2.4037    2.7344 H   0  0  0  0  0  0  0  0  0  0  0  0
  1  2  1  0
  2  3  1  0
  2  4  1  0
  4  5  1  0
  5  6  1  0
  6  7  1  0
  7  8  2  0
  7  9  1  0
  9 10  2  0
 10 11  1  0
 11 12  2  0
 12 13  1  0
 13 14  2  0
 12 15  1  0
 15 16  3  0
  5 17  1  0
 17 18  2  0
 17 19  1  0
 19 20  1  0
 20 21  1  0
 21 22  1  0
 22 23  1  0
 22 24  2  0
 20 25  1  0
 25 26  2  0
 25 27  1  0
 27 28  1  0
 28 29  1  0
 29 30  1  0
 30 31  2  0
 31 32  1  0
 32 33  2  0
 33 34  1  0
 34 35  2  0
 28 36  1  0
 36 37  1  0
 36 38  2  0
 14  9  1  0
 35 30  1  0
  1 39  1  0
  1 40  1  0
  1 41  1  0
  2 42  1  0
  3 43  1  0
  3 44  1  0
  3 45  1  0
  4 46  1  0
  4 47  1  0
  5 48  1  1
  6 49  1  0
 10 50  1  0
 11 51  1  0
 13 52  1  0
 14 53  1  0
 19 54  1  0
 20 55  1  6
 21 56  1  0
 21 57  1  0
 23 58  1  0
 27 59  1  0
 28 60  1  1
 29 61  1  0
 29 62  1  0
 31 63  1  0
 32 64  1  0
 33 65  1  0
 34 66  1  0
 35 67  1  0
 37 68  1  0
M  END
$$$$
[H]c1c([H])c([H])c(C([H])([H])N2C([H])([H])c3c(n([H])c(=O)n4c([H])c(-c5c([H])c([H])c(OC([H])([H])[H])c([H])c5[H])nc34)C([H])([H])C2([H])[H])c([H])c1[H]
     RDKit          3D

 51 55  0  0  0  0  0  0  0  0999 V2000
    8.5808    2.0011    0.6936 C   0  0  0  0  0  0  0  0  0  0  0  0
    8.1346    0.6731    0.5869 O   0  0  0  0  0  0  0  0  0  0  0  0
    6.8206    0.2979    0.4901 C   0  0  0  0  0  0  0  0  0  0  0  0
    5.7550    1.1836    0.4848 C   0  0  0  0  0  0  0  0  0  0  0  0
    4.4504    0.7487    0.3848 C   0  0  0  0  0  0  0  0  0  0  0  0
    4.1585   -0.5771    0.2869 C   0  0  0  0  0  0  0  0  0  0  0  0
    5.2080   -1.4639    0.2912 C   0  0  0  0  0  0  0  0  0  0  0  0
    6.5293   -1.0478    0.3909 C   0  0  0  0  0  0  0  0  0  0  0  0
    2.7762   -1.0652    0.1793 C   0  0  0  0  0  0  0  0  0  0  0  0
    2.4091   -2.3912    0.0771 C   0  0  0  0  0  0  0  0  0  0  0  0
    1.0440   -2.4514   -0.0032 N   0  0  0  0  0  0  0  0  0  0  0  0
    0.5807   -1.1924    0.0483 C   0  0  0  0  0  0  0  0  0  0  0  0
    1.6437   -0.3712    0.1585 N   0  0  0  0  0  0  0  0  0  0  0  0
   -0.7948   -1.0144   -0.0179 C   0  0  0  0  0  0  0  0  0  0  0  0
   -1.2826    0.3849    0.0399 C   0  0  0  0  0  0  0  0  0  0  0  0
   -2.6498    0.5331    0.4183 N   0  0  0  0  0  0  0  0  0  0  0  0
   -3.2855    1.4359   -0.4870 C   0  0  0  0  0  0  0  0  0  0  0  0
   -4.7075    1.6928   -0.2317 C   0  0  0  0  0  0  0  0  0  0  0  0
   -5.1212    2.6095    0.7031 C   0  0  0  0  0  0  0  0  0  0  0  0
   -6.4824    2.8480    0.9319 C   0  0  0  0  0  0  0  0  0  0  0  0
   -7.4142    2.1632    0.2195 C   0  0  0  0  0  0  0  0  0  0  0  0
   -7.0055    1.2420   -0.7199 C   0  0  0  0  0  0  0  0  0  0  0  0
   -5.6672    1.0100   -0.9424 C   0  0  0  0  0  0  0  0  0  0  0  0
   -3.3372   -0.6517    0.7470 C   0  0  0  0  0  0  0  0  0  0  0  0
   -3.0927   -1.8034   -0.1944 C   0  0  0  0  0  0  0  0  0  0  0  0
   -1.6391   -2.0951   -0.1318 C   0  0  0  0  0  0  0  0  0  0  0  0
   -1.1218   -3.3140   -0.1778 N   0  0  0  0  0  0  0  0  0  0  0  0
    0.2058   -3.4994   -0.1147 C   0  0  0  0  0  0  0  0  0  0  0  0
    0.7166   -4.6436   -0.1566 O   0  0  0  0  0  0  0  0  0  0  0  0
    7.9477    2.6807    0.0962 H   0  0  0  0  0  0  0  0  0  0  0  0
    9.6529    2.0513    0.3665 H   0  0  0  0  0  0  0  0  0  0  0  0
    8.6050    2.2817    1.7809 H   0  0  0  0  0  0  0  0  0  0  0  0
    5.9959    2.2335    0.5629 H   0  0  0  0  0  0  0  0  0  0  0  0
    3.6722    1.4886    0.3867 H   0  0  0  0  0  0  0  0  0  0  0  0
    5.0089   -2.5242    0.2148 H   0  0  0  0  0  0  0  0  0  0  0  0
    7.2963   -1.8159    0.3867 H   0  0  0  0  0  0  0  0  0  0  0  0
    3.0762   -3.2534    0.0614 H   0  0  0  0  0  0  0  0  0  0  0  0
   -1.0786    0.8727   -0.9326 H   0  0  0  0  0  0  0  0  0  0  0  0
   -0.6553    0.9148    0.8070 H   0  0  0  0  0  0  0  0  0  0  0  0
   -3.1228    1.1187   -1.5604 H   0  0  0  0  0  0  0  0  0  0  0  0
   -2.7062    2.4057   -0.4248 H   0  0  0  0  0  0  0  0  0  0  0  0
   -4.4223    3.1823    1.2981 H   0  0  0  0  0  0  0  0  0  0  0  0
   -6.8027    3.5723    1.6706 H   0  0  0  0  0  0  0  0  0  0  0  0
   -8.4842    2.3528    0.4015 H   0  0  0  0  0  0  0  0  0  0  0  0
   -7.7740    0.6948   -1.2895 H   0  0  0  0  0  0  0  0  0  0  0  0
   -5.3967    0.2653   -1.7025 H   0  0  0  0  0  0  0  0  0  0  0  0
   -4.4181   -0.4655    0.8815 H   0  0  0  0  0  0  0  0  0  0  0  0
   -2.9852   -1.0100    1.7562 H   0  0  0  0  0  0  0  0  0  0  0  0
   -3.7280   -2.6406    0.0867 H   0  0  0  0  0  0  0  0  0  0  0  0
   -3.3142   -1.5251   -1.2532 H   0  0  0  0  0  0  0  0  0  0  0  0
   -1.7787   -4.1225   -0.2644 H   0  0  0  0  0  0  0  0  0  0  0  0
  1  2  1  0
  2  3  1  0
  3  4  2  0
  4  5  1  0
  5  6  2  0
  6  7  1  0
  7  8  2  0
  6  9  1  0
  9 10  2  0
 10 11  1  0
 11 12  1  0
 12 13  2  0
 12 14  1  0
 14 15  1  0
 15 16  1  0
 16 17  1  0
 17 18  1  0
 18 19  2  0
 19 20  1  0
 20 21  2  0
 21 22  1  0
 22 23  2  0
 16 24  1  0
 24 25  1  0
 25 26  1  0
 26 27  1  0
 27 28  1  0
 28 29  2  0
  8  3  1  0
 13  9  1  0
 26 14  2  0
 28 11  1  0
 23 18  1  0
  1 30  1  0
  1 31  1  0
  1 32  1  0
  4 33  1  0
  5 34  1  0
  7 35  1  0
  8 36  1  0
 10 37  1  0
 15 38  1  0
 15 39  1  0
 17 40  1  0
 17 41  1  0
 19 42  1  0
 20 43  1  0
 21 44  1  0
 22 45  1  0
 23 46  1  0
 24 47  1  0
 24 48  1  0
 25 49  1  0
 25 50  1  0
 27 51  1  0
M  END
$$$$
[H]c1nc(N([H])c2c([H])c([H])c(F)c(F)c2[H])c2oc(-c3c([H])c(OC([H])([H])[H])c([H])c([H])c3F)c([H])c2n1
     RDKit          3D

 39 42  0  0  0  0  0  0  0  0999 V2000
   -5.4423    3.3669    0.2930 C   0  0  0  0  0  0  0  0  0  0  0  0
   -4.2393    2.6649    0.2307 O   0  0  0  0  0  0  0  0  0  0  0  0
   -4.1491    1.2955    0.1201 C   0  0  0  0  0  0  0  0  0  0  0  0
   -5.3287    0.5825    0.0684 C   0  0  0  0  0  0  0  0  0  0  0  0
   -5.2698   -0.7847   -0.0418 C   0  0  0  0  0  0  0  0  0  0  0  0
   -4.0376   -1.4187   -0.0988 C   0  0  0  0  0  0  0  0  0  0  0  0
   -4.0699   -2.7585   -0.2064 F   0  0  0  0  0  0  0  0  0  0  0  0
   -2.8523   -0.7395   -0.0499 C   0  0  0  0  0  0  0  0  0  0  0  0
   -2.9291    0.6541    0.0626 C   0  0  0  0  0  0  0  0  0  0  0  0
   -1.5452   -1.3809   -0.1078 C   0  0  0  0  0  0  0  0  0  0  0  0
   -1.1774   -2.6989   -0.2156 C   0  0  0  0  0  0  0  0  0  0  0  0
    0.2195   -2.7994   -0.2304 C   0  0  0  0  0  0  0  0  0  0  0  0
    1.1139   -3.7986   -0.3152 N   0  0  0  0  0  0  0  0  0  0  0  0
    2.4517   -3.5468   -0.3014 C   0  0  0  0  0  0  0  0  0  0  0  0
    2.8535   -2.2745   -0.2010 N   0  0  0  0  0  0  0  0  0  0  0  0
    2.0194   -1.2344   -0.1133 C   0  0  0  0  0  0  0  0  0  0  0  0
    2.3973    0.1162    0.0221 N   0  0  0  0  0  0  0  0  0  0  0  0
    3.7557    0.5212    0.0187 C   0  0  0  0  0  0  0  0  0  0  0  0
    4.0626    1.6770    0.7462 C   0  0  0  0  0  0  0  0  0  0  0  0
    5.3461    2.1462    0.7668 C   0  0  0  0  0  0  0  0  0  0  0  0
    6.3862    1.5388    0.0998 C   0  0  0  0  0  0  0  0  0  0  0  0
    7.6281    2.0651    0.1704 F   0  0  0  0  0  0  0  0  0  0  0  0
    6.0796    0.4085   -0.6107 C   0  0  0  0  0  0  0  0  0  0  0  0
    7.0728   -0.2419   -1.2964 F   0  0  0  0  0  0  0  0  0  0  0  0
    4.7750   -0.0995   -0.6537 C   0  0  0  0  0  0  0  0  0  0  0  0
    0.6284   -1.4927   -0.1273 C   0  0  0  0  0  0  0  0  0  0  0  0
   -0.3925   -0.7126   -0.0596 O   0  0  0  0  0  0  0  0  0  0  0  0
   -6.0533    2.9589    1.1316 H   0  0  0  0  0  0  0  0  0  0  0  0
   -6.0640    3.2814   -0.6233 H   0  0  0  0  0  0  0  0  0  0  0  0
   -5.1819    4.4462    0.4957 H   0  0  0  0  0  0  0  0  0  0  0  0
   -6.2751    1.0981    0.1145 H   0  0  0  0  0  0  0  0  0  0  0  0
   -6.1998   -1.3322   -0.0814 H   0  0  0  0  0  0  0  0  0  0  0  0
   -2.0166    1.2204    0.1037 H   0  0  0  0  0  0  0  0  0  0  0  0
   -1.8328   -3.5473   -0.2807 H   0  0  0  0  0  0  0  0  0  0  0  0
    3.1936   -4.3138   -0.3667 H   0  0  0  0  0  0  0  0  0  0  0  0
    1.6739    0.8836    0.1295 H   0  0  0  0  0  0  0  0  0  0  0  0
    3.2701    2.1828    1.2841 H   0  0  0  0  0  0  0  0  0  0  0  0
    5.5506    3.0541    1.3468 H   0  0  0  0  0  0  0  0  0  0  0  0
    4.5789   -0.9874   -1.2492 H   0  0  0  0  0  0  0  0  0  0  0  0
  1  2  1  0
  2  3  1  0
  3  4  2  0
  4  5  1  0
  5  6  2  0
  6  7  1  0
  6  8  1  0
  8  9  2  0
  8 10  1  0
 10 11  2  0
 11 12  1  0
 12 13  2  0
 13 14  1  0
 14 15  2  0
 15 16  1  0
 16 17  1  0
 17 18  1  0
 18 19  2  0
 19 20  1  0
 20 21  2  0
 21 22  1  0
 21 23  1  0
 23 24  1  0
 23 25  2  0
 16 26  2  0
 26 27  1  0
  9  3  1  0
 27 10  1  0
 26 12  1  0
 25 18  1  0
  1 28  1  0
  1 29  1  0
  1 30  1  0
  4 31  1  0
  5 32  1  0
  9 33  1  0
 11 34  1  0
 14 35  1  0
 17 36  1  0
 19 37  1  0
 20 38  1  0
 25 39  1  0
M  END
$$$$
[H]OC(=O)c1c([H])c([H])c(/C([H])=C(\[H])c2nc3c([H])c([H])c(C4([H])C([H])([H])C4([H])[H])c([H])c3c(=O)n2N([H])[H])c([H])c1[H]
     RDKit          3D

 43 46  0  0  0  0  0  0  0  0999 V2000
    0.2292   -2.7080   -0.2526 N   0  0  0  0  0  0  0  0  0  0  0  0
   -0.5072   -1.5423   -0.1899 N   0  0  0  0  0  0  0  0  0  0  0  0
    0.0420   -0.3479   -0.1127 C   0  0  0  0  0  0  0  0  0  0  0  0
    1.4584   -0.0766   -0.0825 C   0  0  0  0  0  0  0  0  0  0  0  0
    2.4831   -0.8612   -0.1199 C   0  0  0  0  0  0  0  0  0  0  0  0
    3.8896   -0.3901   -0.0776 C   0  0  0  0  0  0  0  0  0  0  0  0
    4.2215    0.9181    0.0047 C   0  0  0  0  0  0  0  0  0  0  0  0
    5.5713    1.3008    0.0410 C   0  0  0  0  0  0  0  0  0  0  0  0
    6.5416    0.3374   -0.0077 C   0  0  0  0  0  0  0  0  0  0  0  0
    6.2370   -1.0028   -0.0917 C   0  0  0  0  0  0  0  0  0  0  0  0
    4.9161   -1.3437   -0.1252 C   0  0  0  0  0  0  0  0  0  0  0  0
    7.9494    0.7482    0.0309 C   0  0  0  0  0  0  0  0  0  0  0  0
    8.3025    2.0815    0.1150 O   0  0  0  0  0  0  0  0  0  0  0  0
    8.8645   -0.1106   -0.0120 O   0  0  0  0  0  0  0  0  0  0  0  0
   -0.8166    0.7423   -0.0557 N   0  0  0  0  0  0  0  0  0  0  0  0
   -2.1377    0.6146   -0.0765 C   0  0  0  0  0  0  0  0  0  0  0  0
   -2.9905    1.7035   -0.0195 C   0  0  0  0  0  0  0  0  0  0  0  0
   -4.3545    1.5039   -0.0450 C   0  0  0  0  0  0  0  0  0  0  0  0
   -4.9070    0.2476   -0.1260 C   0  0  0  0  0  0  0  0  0  0  0  0
   -4.0438   -0.8268   -0.1820 C   0  0  0  0  0  0  0  0  0  0  0  0
   -2.6780   -0.6522   -0.1580 C   0  0  0  0  0  0  0  0  0  0  0  0
   -1.8732   -1.7617   -0.2167 C   0  0  0  0  0  0  0  0  0  0  0  0
   -2.3473   -2.9289   -0.2915 O   0  0  0  0  0  0  0  0  0  0  0  0
   -6.3572    0.0493   -0.1523 C   0  0  0  0  0  0  0  0  0  0  0  0
   -7.2670    1.0331   -0.7881 C   0  0  0  0  0  0  0  0  0  0  0  0
   -7.1565    0.9497    0.7385 C   0  0  0  0  0  0  0  0  0  0  0  0
    0.5501   -3.1810   -1.1260 H   0  0  0  0  0  0  0  0  0  0  0  0
    0.4926   -3.1776    0.6564 H   0  0  0  0  0  0  0  0  0  0  0  0
    1.7009    1.0232   -0.0136 H   0  0  0  0  0  0  0  0  0  0  0  0
    2.2977   -1.9111   -0.1853 H   0  0  0  0  0  0  0  0  0  0  0  0
    3.4935    1.7017    0.0449 H   0  0  0  0  0  0  0  0  0  0  0  0
    5.8522    2.3548    0.1075 H   0  0  0  0  0  0  0  0  0  0  0  0
    7.0228   -1.7403   -0.1286 H   0  0  0  0  0  0  0  0  0  0  0  0
    4.6721   -2.3948   -0.1912 H   0  0  0  0  0  0  0  0  0  0  0  0
    9.0698    2.4460   -0.4232 H   0  0  0  0  0  0  0  0  0  0  0  0
   -2.5493    2.7115    0.0455 H   0  0  0  0  0  0  0  0  0  0  0  0
   -5.0284    2.3468   -0.0011 H   0  0  0  0  0  0  0  0  0  0  0  0
   -4.4410   -1.8204   -0.2457 H   0  0  0  0  0  0  0  0  0  0  0  0
   -6.7065   -1.0114   -0.2194 H   0  0  0  0  0  0  0  0  0  0  0  0
   -8.1988    0.6825   -1.2661 H   0  0  0  0  0  0  0  0  0  0  0  0
   -6.8397    1.9290   -1.2824 H   0  0  0  0  0  0  0  0  0  0  0  0
   -8.0132    0.5380    1.2910 H   0  0  0  0  0  0  0  0  0  0  0  0
   -6.6446    1.8262    1.2177 H   0  0  0  0  0  0  0  0  0  0  0  0
  1  2  1  0
  2  3  1  0
  3  4  1  0
  4  5  2  0
  5  6  1  0
  6  7  2  0
  7  8  1  0
  8  9  2  0
  9 10  1  0
 10 11  2  0
  9 12  1  0
 12 13  1  0
 12 14  2  0
  3 15  2  0
 15 16  1  0
 16 17  2  0
 17 18  1  0
 18 19  2  0
 19 20  1  0
 20 21  2  0
 21 22  1  0
 22 23  2  0
 19 24  1  0
 24 25  1  0
 25 26  1  0
 22  2  1  0
 26 24  1  0
 11  6  1  0
 21 16  1  0
  1 27  1  0
  1 28  1  0
  4 29  1  0
  5 30  1  0
  7 31  1  0
  8 32  1  0
 10 33  1  0
 11 34  1  0
 13 35  1  0
 17 36  1  0
 18 37  1  0
 20 38  1  0
 24 39  1  0
 25 40  1  0
 25 41  1  0
 26 42  1  0
 26 43  1  0
M  END
$$$$
[H]N=C(N([H])[H])N([H])C([H])([H])C([H])([H])C([H])([H])[C@@]([H])(C([H])=O)N([H])C(=O)[C@@]1([H])N(C(=O)[C@@]([H])(N([H])S(=O)(=O)c2c([H])c([H])c3c([H])c([H])c([H])c([H])c3c2[H])C([H])([H])C([H])(C([H])([H])[H])C([H])([H])[H])C([H])([H])C([H])([H])C1([H])[H]
     RDKit          3D

 77 79  0  0  0  0  0  0  0  0999 V2000
   -0.4931   -2.4191   -3.5191 C   0  0  0  0  0  0  0  0  0  0  0  0
   -1.1386   -1.8493   -2.2442 C   0  0  0  0  0  0  0  0  0  0  0  0
   -0.2743   -2.0348   -1.0980 C   0  0  0  0  0  0  0  0  0  0  0  0
   -2.0405   -0.7070   -2.4944 C   0  0  0  0  0  0  0  0  0  0  0  0
   -2.6365   -0.0183   -1.3432 C   0  0  2  0  0  0  0  0  0  0  0  0
   -3.7836    0.8473   -1.8268 N   0  0  0  0  0  0  0  0  0  0  0  0
   -5.2815    0.2694   -1.2889 S   0  0  0  0  0  0  0  0  0  0  0  0
   -6.3662    1.1857   -1.8438 O   0  0  0  0  0  0  0  0  0  0  0  0
   -5.5441   -1.1556   -1.7777 O   0  0  0  0  0  0  0  0  0  0  0  0
   -5.5093    0.2219    0.4337 C   0  0  0  0  0  0  0  0  0  0  0  0
   -6.0429    1.2606    1.1747 C   0  0  0  0  0  0  0  0  0  0  0  0
   -6.2200    1.1899    2.5406 C   0  0  0  0  0  0  0  0  0  0  0  0
   -5.8617    0.0486    3.2372 C   0  0  0  0  0  0  0  0  0  0  0  0
   -6.0383   -0.0263    4.6161 C   0  0  0  0  0  0  0  0  0  0  0  0
   -5.6655   -1.1805    5.2579 C   0  0  0  0  0  0  0  0  0  0  0  0
   -5.1197   -2.2754    4.5867 C   0  0  0  0  0  0  0  0  0  0  0  0
   -4.9739   -2.1316    3.2261 C   0  0  0  0  0  0  0  0  0  0  0  0
   -5.3288   -0.9989    2.5216 C   0  0  0  0  0  0  0  0  0  0  0  0
   -5.1593   -0.9075    1.1509 C   0  0  0  0  0  0  0  0  0  0  0  0
   -1.8518    1.0105   -0.6395 C   0  0  0  0  0  0  0  0  0  0  0  0
   -2.6045    1.6380    0.2825 O   0  0  0  0  0  0  0  0  0  0  0  0
   -0.5659    1.5326   -0.6665 N   0  0  0  0  0  0  0  0  0  0  0  0
   -0.2035    2.6211    0.3195 C   0  0  0  0  0  0  0  0  0  0  0  0
    0.7818    3.4964   -0.3918 C   0  0  0  0  0  0  0  0  0  0  0  0
    0.8106    2.9508   -1.8277 C   0  0  0  0  0  0  0  0  0  0  0  0
    0.6084    1.4505   -1.4571 C   0  0  1  0  0  0  0  0  0  0  0  0
    1.8629    1.0252   -0.7980 C   0  0  0  0  0  0  0  0  0  0  0  0
    1.8445    0.6959    0.3986 O   0  0  0  0  0  0  0  0  0  0  0  0
    3.0385    1.0162   -1.5859 N   0  0  0  0  0  0  0  0  0  0  0  0
    4.3615    0.6192   -1.0662 C   0  0  1  0  0  0  0  0  0  0  0  0
    4.8703   -0.5767   -1.7611 C   0  0  0  0  0  0  0  0  0  0  0  0
    6.1928   -1.0664   -1.3456 C   0  0  0  0  0  0  0  0  0  0  0  0
    6.3328   -1.5140    0.0441 C   0  0  0  0  0  0  0  0  0  0  0  0
    6.2329   -0.6440    1.1411 N   0  0  0  0  0  0  0  0  0  0  0  0
    6.2558   -1.2608    2.4547 C   0  0  0  0  0  0  0  0  0  0  0  0
    5.0977   -1.1985    3.2419 N   0  0  0  0  0  0  0  0  0  0  0  0
    7.3105   -1.8374    2.8592 N   0  0  0  0  0  0  0  0  0  0  0  0
    5.2742    1.7517   -1.3576 C   0  0  0  0  0  0  0  0  0  0  0  0
    4.8648    2.7290   -1.9150 O   0  0  0  0  0  0  0  0  0  0  0  0
    0.0503   -3.3490   -3.2878 H   0  0  0  0  0  0  0  0  0  0  0  0
   -1.3189   -2.5496   -4.2444 H   0  0  0  0  0  0  0  0  0  0  0  0
    0.1769   -1.5921   -3.8746 H   0  0  0  0  0  0  0  0  0  0  0  0
   -1.9813   -2.7347   -2.0196 H   0  0  0  0  0  0  0  0  0  0  0  0
    0.7949   -1.7792   -1.3921 H   0  0  0  0  0  0  0  0  0  0  0  0
   -0.2846   -3.1122   -0.7610 H   0  0  0  0  0  0  0  0  0  0  0  0
   -0.5051   -1.3902   -0.2049 H   0  0  0  0  0  0  0  0  0  0  0  0
   -1.5505    0.0923   -3.1409 H   0  0  0  0  0  0  0  0  0  0  0  0
   -2.8351   -1.0896   -3.2176 H   0  0  0  0  0  0  0  0  0  0  0  0
   -3.0779   -0.7425   -0.6736 H   0  0  0  0  0  0  0  0  0  0  0  0
   -3.6211    1.7810   -1.4460 H   0  0  0  0  0  0  0  0  0  0  0  0
   -6.3358    2.1695    0.6701 H   0  0  0  0  0  0  0  0  0  0  0  0
   -6.6427    2.0175    3.1152 H   0  0  0  0  0  0  0  0  0  0  0  0
   -6.4593    0.8301    5.1107 H   0  0  0  0  0  0  0  0  0  0  0  0
   -5.7972   -1.2557    6.3369 H   0  0  0  0  0  0  0  0  0  0  0  0
   -4.8334   -3.1741    5.1117 H   0  0  0  0  0  0  0  0  0  0  0  0
   -4.5513   -2.9578    2.6481 H   0  0  0  0  0  0  0  0  0  0  0  0
   -4.7330   -1.7876    0.6469 H   0  0  0  0  0  0  0  0  0  0  0  0
    0.2337    2.1304    1.1667 H   0  0  0  0  0  0  0  0  0  0  0  0
   -1.1358    3.1832    0.5903 H   0  0  0  0  0  0  0  0  0  0  0  0
    0.4536    4.5357   -0.4040 H   0  0  0  0  0  0  0  0  0  0  0  0
    1.8233    3.3597   -0.0176 H   0  0  0  0  0  0  0  0  0  0  0  0
    1.7591    3.1157   -2.3306 H   0  0  0  0  0  0  0  0  0  0  0  0
   -0.0876    3.2288   -2.3952 H   0  0  0  0  0  0  0  0  0  0  0  0
    0.5351    0.8850   -2.3982 H   0  0  0  0  0  0  0  0  0  0  0  0
    3.0113    1.2927   -2.5721 H   0  0  0  0  0  0  0  0  0  0  0  0
    4.2756    0.4716    0.0097 H   0  0  0  0  0  0  0  0  0  0  0  0
    4.1680   -1.4649   -1.6553 H   0  0  0  0  0  0  0  0  0  0  0  0
    4.9401   -0.3399   -2.8778 H   0  0  0  0  0  0  0  0  0  0  0  0
    7.0202   -0.3282   -1.6301 H   0  0  0  0  0  0  0  0  0  0  0  0
    6.4483   -1.9417   -2.0334 H   0  0  0  0  0  0  0  0  0  0  0  0
    7.3515   -2.0343    0.1474 H   0  0  0  0  0  0  0  0  0  0  0  0
    5.6357   -2.3951    0.2749 H   0  0  0  0  0  0  0  0  0  0  0  0
    6.1718    0.3881    1.1951 H   0  0  0  0  0  0  0  0  0  0  0  0
    4.7131   -0.2612    3.5442 H   0  0  0  0  0  0  0  0  0  0  0  0
    4.6236   -2.0934    3.5240 H   0  0  0  0  0  0  0  0  0  0  0  0
    8.1985   -1.9178    2.3242 H   0  0  0  0  0  0  0  0  0  0  0  0
    6.3295    1.7307   -1.0786 H   0  0  0  0  0  0  0  0  0  0  0  0
  1  2  1  0
  2  3  1  0
  2  4  1  0
  4  5  1  0
  5  6  1  0
  6  7  1  0
  7  8  2  0
  7  9  2  0
  7 10  1  0
 10 11  2  0
 11 12  1  0
 12 13  2  0
 13 14  1  0
 14 15  2  0
 15 16  1  0
 16 17  2  0
 17 18  1  0
 18 19  2  0
  5 20  1  0
 20 21  2  0
 20 22  1  0
 22 23  1  0
 23 24  1  0
 24 25  1  0
 25 26  1  0
 26 27  1  0
 27 28  2  0
 27 29  1  0
 29 30  1  0
 30 31  1  0
 31 32  1  0
 32 33  1  0
 33 34  1  0
 34 35  1  0
 35 36  1  0
 35 37  2  3
 30 38  1  0
 38 39  2  0
 19 10  1  0
 26 22  1  0
 18 13  1  0
  1 40  1  0
  1 41  1  0
  1 42  1  0
  2 43  1  0
  3 44  1  0
  3 45  1  0
  3 46  1  0
  4 47  1  0
  4 48  1  0
  5 49  1  1
  6 50  1  0
 11 51  1  0
 12 52  1  0
 14 53  1  0
 15 54  1  0
 16 55  1  0
 17 56  1  0
 19 57  1  0
 23 58  1  0
 23 59  1  0
 24 60  1  0
 24 61  1  0
 25 62  1  0
 25 63  1  0
 26 64  1  6
 29 65  1  0
 30 66  1  1
 31 67  1  0
 31 68  1  0
 32 69  1  0
 32 70  1  0
 33 71  1  0
 33 72  1  0
 34 73  1  0
 36 74  1  0
 36 75  1  0
 37 76  1  0
 38 77  1  0
M  END
$$$$
[H]OC(=O)C([H])([H])C(=O)OSC([H])([H])C([H])([H])C([H])([H])OC([H])([H])C([H])([H])[H]
     RDKit          3D

 28 27  0  0  0  0  0  0  0  0999 V2000
   -4.2227    0.6389    1.3233 C   0  0  0  0  0  0  0  0  0  0  0  0
   -3.5555    1.1373    0.0814 C   0  0  0  0  0  0  0  0  0  0  0  0
   -2.7090    0.2306   -0.5163 O   0  0  0  0  0  0  0  0  0  0  0  0
   -1.6757   -0.1529    0.3305 C   0  0  0  0  0  0  0  0  0  0  0  0
   -0.8300   -1.1523   -0.4684 C   0  0  0  0  0  0  0  0  0  0  0  0
   -0.3479   -0.3801   -1.6886 C   0  0  0  0  0  0  0  0  0  0  0  0
    0.6147    1.0120   -1.1230 S   0  0  0  0  0  0  0  0  0  0  0  0
    2.0768    0.5996   -0.3333 O   0  0  0  0  0  0  0  0  0  0  0  0
    2.7913   -0.5334   -0.6810 C   0  0  0  0  0  0  0  0  0  0  0  0
    2.3873   -1.2989   -1.5922 O   0  0  0  0  0  0  0  0  0  0  0  0
    4.0672   -0.9055   -0.0012 C   0  0  0  0  0  0  0  0  0  0  0  0
    4.3700    0.1196    1.0295 C   0  0  0  0  0  0  0  0  0  0  0  0
    5.4039    1.0128    0.7700 O   0  0  0  0  0  0  0  0  0  0  0  0
    3.7013    0.1583    2.0902 O   0  0  0  0  0  0  0  0  0  0  0  0
   -4.0113   -0.4336    1.5387 H   0  0  0  0  0  0  0  0  0  0  0  0
   -3.9093    1.2297    2.2278 H   0  0  0  0  0  0  0  0  0  0  0  0
   -5.3309    0.6886    1.1744 H   0  0  0  0  0  0  0  0  0  0  0  0
   -4.3205    1.4048   -0.7070 H   0  0  0  0  0  0  0  0  0  0  0  0
   -2.9758    2.0739    0.2485 H   0  0  0  0  0  0  0  0  0  0  0  0
   -1.0604    0.7711    0.5270 H   0  0  0  0  0  0  0  0  0  0  0  0
   -1.9987   -0.5620    1.2844 H   0  0  0  0  0  0  0  0  0  0  0  0
   -1.4824   -1.9642   -0.8238 H   0  0  0  0  0  0  0  0  0  0  0  0
    0.0051   -1.4755    0.1646 H   0  0  0  0  0  0  0  0  0  0  0  0
   -1.2758    0.0492   -2.1719 H   0  0  0  0  0  0  0  0  0  0  0  0
    0.1071   -1.0115   -2.4484 H   0  0  0  0  0  0  0  0  0  0  0  0
    3.9343   -1.9043    0.4857 H   0  0  0  0  0  0  0  0  0  0  0  0
    4.8437   -0.9221   -0.7924 H   0  0  0  0  0  0  0  0  0  0  0  0
    5.4030    1.5702   -0.0578 H   0  0  0  0  0  0  0  0  0  0  0  0
  1  2  1  0
  2  3  1  0
  3  4  1  0
  4  5  1  0
  5  6  1  0
  6  7  1  0
  7  8  1  0
  8  9  1  0
  9 10  2  0
  9 11  1  0
 11 12  1  0
 12 13  1  0
 12 14  2  0
  1 15  1  0
  1 16  1  0
  1 17  1  0
  2 18  1  0
  2 19  1  0
  4 20  1  0
  4 21  1  0
  5 22  1  0
  5 23  1  0
  6 24  1  0
  6 25  1  0
 11 26  1  0
 11 27  1  0
 13 28  1  0
M  END
$$$$
[H]c1c([H])c(-c2c([H])n([H])c3c(=O)c4sc(C([H])([H])[H])nc4n([H])c(=O)c23)c([H])c([H])c1F
     RDKit          3D

 33 36  0  0  0  0  0  0  0  0999 V2000
    6.0547    2.0026    0.3958 C   0  0  0  0  0  0  0  0  0  0  0  0
    4.7806    1.2423    0.1238 C   0  0  0  0  0  0  0  0  0  0  0  0
    3.5328    1.6165    0.3543 N   0  0  0  0  0  0  0  0  0  0  0  0
    2.5498    0.8215    0.0519 C   0  0  0  0  0  0  0  0  0  0  0  0
    1.2589    1.2404    0.3008 N   0  0  0  0  0  0  0  0  0  0  0  0
    0.1023    0.7335   -0.1142 C   0  0  0  0  0  0  0  0  0  0  0  0
   -0.8647    1.5353   -0.3255 O   0  0  0  0  0  0  0  0  0  0  0  0
   -0.2012   -0.6040   -0.3584 C   0  0  0  0  0  0  0  0  0  0  0  0
   -1.4634   -1.1379   -0.2762 C   0  0  0  0  0  0  0  0  0  0  0  0
   -1.3010   -2.4851   -0.6324 C   0  0  0  0  0  0  0  0  0  0  0  0
   -0.0096   -2.7285   -0.9074 N   0  0  0  0  0  0  0  0  0  0  0  0
    0.6806   -1.6089   -0.7496 C   0  0  0  0  0  0  0  0  0  0  0  0
    2.0446   -1.4403   -0.9235 C   0  0  0  0  0  0  0  0  0  0  0  0
    2.6449   -2.3318   -1.5346 O   0  0  0  0  0  0  0  0  0  0  0  0
    2.8641   -0.3913   -0.5027 C   0  0  0  0  0  0  0  0  0  0  0  0
    4.5700   -0.3150   -0.5569 S   0  0  0  0  0  0  0  0  0  0  0  0
   -2.7024   -0.5039    0.1230 C   0  0  0  0  0  0  0  0  0  0  0  0
   -2.8786    0.1548    1.3199 C   0  0  0  0  0  0  0  0  0  0  0  0
   -4.0814    0.7418    1.6504 C   0  0  0  0  0  0  0  0  0  0  0  0
   -5.1442    0.6713    0.7609 C   0  0  0  0  0  0  0  0  0  0  0  0
   -6.3545    1.2273    1.0239 F   0  0  0  0  0  0  0  0  0  0  0  0
   -5.0039    0.0207   -0.4449 C   0  0  0  0  0  0  0  0  0  0  0  0
   -3.7928   -0.5476   -0.7320 C   0  0  0  0  0  0  0  0  0  0  0  0
    6.5055    2.3624   -0.5472 H   0  0  0  0  0  0  0  0  0  0  0  0
    6.7381    1.2704    0.8774 H   0  0  0  0  0  0  0  0  0  0  0  0
    5.8043    2.8004    1.1092 H   0  0  0  0  0  0  0  0  0  0  0  0
    1.1536    2.0923    0.9076 H   0  0  0  0  0  0  0  0  0  0  0  0
   -2.1337   -3.1718   -0.6611 H   0  0  0  0  0  0  0  0  0  0  0  0
    0.4290   -3.6498   -1.2059 H   0  0  0  0  0  0  0  0  0  0  0  0
   -2.0529    0.2280    2.0479 H   0  0  0  0  0  0  0  0  0  0  0  0
   -4.2483    1.2697    2.5915 H   0  0  0  0  0  0  0  0  0  0  0  0
   -5.8058   -0.0615   -1.1742 H   0  0  0  0  0  0  0  0  0  0  0  0
   -3.6753   -1.0537   -1.6643 H   0  0  0  0  0  0  0  0  0  0  0  0
  1  2  1  0
  2  3  2  0
  3  4  1  0
  4  5  1  0
  5  6  1  0
  6  7  2  0
  6  8  1  0
  8  9  1  0
  9 10  2  0
 10 11  1  0
 11 12  1  0
 12 13  1  0
 13 14  2  0
 13 15  1  0
 15 16  1  0
  9 17  1  0
 17 18  2  0
 18 19  1  0
 19 20  2  0
 20 21  1  0
 20 22  1  0
 22 23  2  0
 16  2  1  0
 23 17  1  0
 15  4  2  0
 12  8  2  0
  1 24  1  0
  1 25  1  0
  1 26  1  0
  5 27  1  0
 10 28  1  0
 11 29  1  0
 18 30  1  0
 19 31  1  0
 22 32  1  0
 23 33  1  0
M  END
$$$$
[H]OC([H])([H])[C@@]1([H])O[C@@]([H])(n2c([H])nc3c(N([H])[H])nc([H])nc32)[C@@]([H])(O[H])[C@]1([H])O[H]
     RDKit          3D

 32 34  0  0  0  0  0  0  0  0999 V2000
    5.2716    1.0232    0.0418 N   0  0  0  0  0  0  0  0  0  0  0  0
    4.1982    0.2847   -0.4985 C   0  0  0  0  0  0  0  0  0  0  0  0
    4.3316   -0.5170   -1.5728 N   0  0  0  0  0  0  0  0  0  0  0  0
    3.2407   -1.1752   -2.0040 C   0  0  0  0  0  0  0  0  0  0  0  0
    2.0413   -1.0592   -1.4055 N   0  0  0  0  0  0  0  0  0  0  0  0
    1.8506   -0.2623   -0.3159 C   0  0  0  0  0  0  0  0  0  0  0  0
    0.7892    0.0277    0.4530 N   0  0  0  0  0  0  0  0  0  0  0  0
    1.2098    0.8861    1.3917 C   0  0  0  0  0  0  0  0  0  0  0  0
    2.5181    1.1159    1.1941 N   0  0  0  0  0  0  0  0  0  0  0  0
    2.9637    0.4172    0.1342 C   0  0  0  0  0  0  0  0  0  0  0  0
   -0.5086   -0.4869    0.2832 C   0  0  2  0  0  0  0  0  0  0  0  0
   -1.2655    0.1141   -0.7138 O   0  0  0  0  0  0  0  0  0  0  0  0
   -2.5410   -0.3784   -0.5688 C   0  0  2  0  0  0  0  0  0  0  0  0
   -3.6138    0.6694   -0.8152 C   0  0  0  0  0  0  0  0  0  0  0  0
   -3.4428    1.1172   -2.1205 O   0  0  0  0  0  0  0  0  0  0  0  0
   -2.6853   -0.8961    0.8432 C   0  0  1  0  0  0  0  0  0  0  0  0
   -2.4916   -2.2700    0.8600 O   0  0  0  0  0  0  0  0  0  0  0  0
   -1.4233   -0.2851    1.4745 C   0  0  2  0  0  0  0  0  0  0  0  0
   -1.7310    1.0586    1.6734 O   0  0  0  0  0  0  0  0  0  0  0  0
    5.8801    0.6657    0.8232 H   0  0  0  0  0  0  0  0  0  0  0  0
    5.4953    1.9668   -0.3290 H   0  0  0  0  0  0  0  0  0  0  0  0
    3.3729   -1.8214   -2.8791 H   0  0  0  0  0  0  0  0  0  0  0  0
    0.6577    1.3554    2.1986 H   0  0  0  0  0  0  0  0  0  0  0  0
   -0.5302   -1.5920    0.0532 H   0  0  0  0  0  0  0  0  0  0  0  0
   -2.7074   -1.1756   -1.3211 H   0  0  0  0  0  0  0  0  0  0  0  0
   -4.5951    0.1711   -0.7027 H   0  0  0  0  0  0  0  0  0  0  0  0
   -3.5656    1.4960   -0.0801 H   0  0  0  0  0  0  0  0  0  0  0  0
   -3.5770    2.0907   -2.2072 H   0  0  0  0  0  0  0  0  0  0  0  0
   -3.5884   -0.5624    1.3473 H   0  0  0  0  0  0  0  0  0  0  0  0
   -3.0704   -2.7550    0.2429 H   0  0  0  0  0  0  0  0  0  0  0  0
   -1.1095   -0.8047    2.3689 H   0  0  0  0  0  0  0  0  0  0  0  0
   -1.3742    1.5817    0.8947 H   0  0  0  0  0  0  0  0  0  0  0  0
  1  2  1  0
  2  3  2  0
  3  4  1  0
  4  5  2  0
  5  6  1  0
  6  7  1  0
  7  8  1  0
  8  9  2  0
  9 10  1  0
  7 11  1  0
 11 12  1  0
 12 13  1  0
 13 14  1  0
 14 15  1  0
 13 16  1  0
 16 17  1  0
 16 18  1  0
 18 19  1  0
 10  2  1  0
 18 11  1  0
 10  6  2  0
  1 20  1  0
  1 21  1  0
  4 22  1  0
  8 23  1  0
 11 24  1  6
 13 25  1  6
 14 26  1  0
 14 27  1  0
 15 28  1  0
 16 29  1  1
 17 30  1  0
 18 31  1  1
 19 32  1  0
M  END
$$$$
[H]OC(=O)[C@@]([H])(N([H])C(=O)[C@@]([H])(N([H])C(=O)[C@@]([H])(N([H])C(=O)[C@@]([H])(N([H])C(=O)C([H])([H])[C@]([H])(O[H])[C@]([H])(N([H])C(=O)[C@@]([H])(N([H])C(=O)C([H])([H])[H])C([H])([H])C([H])(C([H])([H])[H])C([H])([H])[H])C([H])([H])C([H])(C([H])([H])[H])C([H])([H])[H])C([H])(C([H])([H])[H])C([H])([H])[H])[C@]([H])(C(=O)N([H])[H])C([H])([H])C([H])(C([H])([H])[H])C([H])([H])[H])[C@]([H])(O[H])C(=O)O[H])C([H])([H])[H]
     RDKit          3D

119118  0  0  0  0  0  0  0  0999 V2000
   10.8607   -0.0314   -0.8647 C   0  0  0  0  0  0  0  0  0  0  0  0
   10.3303   -0.0201    0.5661 C   0  0  0  0  0  0  0  0  0  0  0  0
   11.0677   -0.5124    1.3903 O   0  0  0  0  0  0  0  0  0  0  0  0
    9.0695    0.5531    0.6955 N   0  0  0  0  0  0  0  0  0  0  0  0
    7.8429    1.0578    1.0791 C   0  0  1  0  0  0  0  0  0  0  0  0
    7.6223    2.5563    0.7929 C   0  0  0  0  0  0  0  0  0  0  0  0
    8.5879    3.4729    1.4489 C   0  0  0  0  0  0  0  0  0  0  0  0
   10.0213    3.3353    1.0344 C   0  0  0  0  0  0  0  0  0  0  0  0
    8.1604    4.9105    1.1828 C   0  0  0  0  0  0  0  0  0  0  0  0
    6.7275    0.4052    0.3114 C   0  0  0  0  0  0  0  0  0  0  0  0
    7.2183   -0.4420   -0.5518 O   0  0  0  0  0  0  0  0  0  0  0  0
    5.3671    0.5308    0.3467 N   0  0  0  0  0  0  0  0  0  0  0  0
    4.4911   -0.2465   -0.5437 C   0  0  1  0  0  0  0  0  0  0  0  0
    4.0940   -1.5595   -0.0963 C   0  0  1  0  0  0  0  0  0  0  0  0
    5.3078   -2.3158    0.1706 O   0  0  0  0  0  0  0  0  0  0  0  0
    3.0462   -2.0070    0.7612 C   0  0  0  0  0  0  0  0  0  0  0  0
    1.6016   -1.8278    0.4315 C   0  0  0  0  0  0  0  0  0  0  0  0
    1.0274   -0.7823    0.2321 O   0  0  0  0  0  0  0  0  0  0  0  0
    0.8488   -3.0482    0.3413 N   0  0  0  0  0  0  0  0  0  0  0  0
   -0.4389   -3.5081    0.0806 C   0  0  1  0  0  0  0  0  0  0  0  0
   -0.8777   -4.4728    1.1064 C   0  0  0  0  0  0  0  0  0  0  0  0
   -2.2274   -5.0886    0.9446 C   0  0  0  0  0  0  0  0  0  0  0  0
    0.1073   -5.6662    1.0712 C   0  0  0  0  0  0  0  0  0  0  0  0
   -1.3831   -2.5421   -0.4727 C   0  0  0  0  0  0  0  0  0  0  0  0
   -0.9303   -1.8645   -1.4737 O   0  0  0  0  0  0  0  0  0  0  0  0
   -2.7073   -2.2544   -0.0849 N   0  0  0  0  0  0  0  0  0  0  0  0
   -3.6648   -1.4061   -0.6448 C   0  0  1  0  0  0  0  0  0  0  0  0
   -5.1119   -1.8490   -0.5375 C   0  0  1  0  0  0  0  0  0  0  0  0
   -5.2915   -3.1990   -1.2312 C   0  0  0  0  0  0  0  0  0  0  0  0
   -6.6638   -3.7208   -1.3215 C   0  0  0  0  0  0  0  0  0  0  0  0
   -7.4831   -2.6806   -2.1106 C   0  0  0  0  0  0  0  0  0  0  0  0
   -7.4192   -4.0455   -0.1102 C   0  0  0  0  0  0  0  0  0  0  0  0
   -5.5590   -1.8350    0.8695 C   0  0  0  0  0  0  0  0  0  0  0  0
   -6.3647   -0.9332    1.2421 O   0  0  0  0  0  0  0  0  0  0  0  0
   -5.1441   -2.7585    1.8460 N   0  0  0  0  0  0  0  0  0  0  0  0
   -3.6057    0.0593   -0.3098 C   0  0  0  0  0  0  0  0  0  0  0  0
   -4.6585    0.8550   -0.7500 N   0  0  0  0  0  0  0  0  0  0  0  0
   -5.0610    2.1914   -0.6865 C   0  0  2  0  0  0  0  0  0  0  0  0
   -4.8488    2.8541    0.6705 C   0  0  0  0  0  0  0  0  0  0  0  0
   -3.7206    2.7597    1.1471 O   0  0  0  0  0  0  0  0  0  0  0  0
   -5.9081    3.5303    1.3168 N   0  0  0  0  0  0  0  0  0  0  0  0
   -6.8748    4.1786    1.9561 C   0  0  1  0  0  0  0  0  0  0  0  0
   -6.8361    4.0765    3.5344 C   0  0  0  0  0  0  0  0  0  0  0  0
   -7.1446    5.6207    1.6672 C   0  0  0  0  0  0  0  0  0  0  0  0
   -8.0448    6.2810    2.4781 O   0  0  0  0  0  0  0  0  0  0  0  0
   -6.5962    6.2639    0.7299 O   0  0  0  0  0  0  0  0  0  0  0  0
   -6.4669    2.4770   -1.1002 C   0  0  2  0  0  0  0  0  0  0  0  0
   -7.4138    1.7960   -0.3197 O   0  0  0  0  0  0  0  0  0  0  0  0
   -6.6763    2.3398   -2.5339 C   0  0  0  0  0  0  0  0  0  0  0  0
   -7.7335    3.0587   -3.1341 O   0  0  0  0  0  0  0  0  0  0  0  0
   -5.9747    1.6278   -3.2866 O   0  0  0  0  0  0  0  0  0  0  0  0
   -2.6394    0.4892    0.3410 O   0  0  0  0  0  0  0  0  0  0  0  0
    3.4857    0.5747   -1.2183 C   0  0  0  0  0  0  0  0  0  0  0  0
    4.1350    1.6491   -2.1262 C   0  0  0  0  0  0  0  0  0  0  0  0
    5.0068    1.0690   -3.1867 C   0  0  0  0  0  0  0  0  0  0  0  0
    2.9364    2.2928   -2.8543 C   0  0  0  0  0  0  0  0  0  0  0  0
   10.8322   -1.0748   -1.2630 H   0  0  0  0  0  0  0  0  0  0  0  0
   11.9482    0.2488   -0.8406 H   0  0  0  0  0  0  0  0  0  0  0  0
   10.3419    0.7042   -1.4787 H   0  0  0  0  0  0  0  0  0  0  0  0
    9.1905    0.1158    2.0189 H   0  0  0  0  0  0  0  0  0  0  0  0
    7.5512    0.9524    2.1215 H   0  0  0  0  0  0  0  0  0  0  0  0
    6.5902    2.7849    1.2343 H   0  0  0  0  0  0  0  0  0  0  0  0
    7.5014    2.7077   -0.2798 H   0  0  0  0  0  0  0  0  0  0  0  0
    8.5414    3.3742    2.5765 H   0  0  0  0  0  0  0  0  0  0  0  0
   10.5980    2.7515    1.7694 H   0  0  0  0  0  0  0  0  0  0  0  0
   10.4940    4.3541    1.0576 H   0  0  0  0  0  0  0  0  0  0  0  0
   10.1891    2.9635    0.0162 H   0  0  0  0  0  0  0  0  0  0  0  0
    7.5654    4.8593    0.2399 H   0  0  0  0  0  0  0  0  0  0  0  0
    7.4901    5.2755    1.9786 H   0  0  0  0  0  0  0  0  0  0  0  0
    9.0374    5.5547    1.0498 H   0  0  0  0  0  0  0  0  0  0  0  0
    4.8798    1.1976    0.9862 H   0  0  0  0  0  0  0  0  0  0  0  0
    5.2785   -0.4876   -1.4123 H   0  0  0  0  0  0  0  0  0  0  0  0
    3.8881   -2.1181   -1.1708 H   0  0  0  0  0  0  0  0  0  0  0  0
    5.1054   -3.0350    0.7826 H   0  0  0  0  0  0  0  0  0  0  0  0
    3.1646   -1.5193    1.7822 H   0  0  0  0  0  0  0  0  0  0  0  0
    3.2357   -3.1041    1.0288 H   0  0  0  0  0  0  0  0  0  0  0  0
    1.6089   -3.9202    0.4710 H   0  0  0  0  0  0  0  0  0  0  0  0
   -0.2578   -4.1890   -0.9092 H   0  0  0  0  0  0  0  0  0  0  0  0
   -0.8465   -4.0062    2.1089 H   0  0  0  0  0  0  0  0  0  0  0  0
   -2.9048   -4.8533    1.7979 H   0  0  0  0  0  0  0  0  0  0  0  0
   -2.6427   -4.9221   -0.0608 H   0  0  0  0  0  0  0  0  0  0  0  0
   -2.1141   -6.2090    1.0153 H   0  0  0  0  0  0  0  0  0  0  0  0
    1.0984   -5.4557    1.3881 H   0  0  0  0  0  0  0  0  0  0  0  0
   -0.3473   -6.5417    1.6218 H   0  0  0  0  0  0  0  0  0  0  0  0
    0.0957   -6.0081   -0.0011 H   0  0  0  0  0  0  0  0  0  0  0  0
   -2.9981   -2.7462    0.8199 H   0  0  0  0  0  0  0  0  0  0  0  0
   -3.4802   -1.3747   -1.7971 H   0  0  0  0  0  0  0  0  0  0  0  0
   -5.7774   -1.1913   -1.1054 H   0  0  0  0  0  0  0  0  0  0  0  0
   -4.9455   -2.9916   -2.2984 H   0  0  0  0  0  0  0  0  0  0  0  0
   -4.6112   -3.9664   -0.8513 H   0  0  0  0  0  0  0  0  0  0  0  0
   -6.6116   -4.6639   -1.9731 H   0  0  0  0  0  0  0  0  0  0  0  0
   -6.8289   -2.1064   -2.7879 H   0  0  0  0  0  0  0  0  0  0  0  0
   -8.2580   -3.2312   -2.6693 H   0  0  0  0  0  0  0  0  0  0  0  0
   -7.9616   -1.9847   -1.4075 H   0  0  0  0  0  0  0  0  0  0  0  0
   -8.3798   -4.5885   -0.4360 H   0  0  0  0  0  0  0  0  0  0  0  0
   -7.8436   -3.1486    0.4273 H   0  0  0  0  0  0  0  0  0  0  0  0
   -6.9431   -4.7474    0.5893 H   0  0  0  0  0  0  0  0  0  0  0  0
   -4.9921   -3.7660    1.7056 H   0  0  0  0  0  0  0  0  0  0  0  0
   -4.9659   -2.4000    2.8295 H   0  0  0  0  0  0  0  0  0  0  0  0
   -5.3998    0.2998   -1.3967 H   0  0  0  0  0  0  0  0  0  0  0  0
   -4.3409    2.8182   -1.3231 H   0  0  0  0  0  0  0  0  0  0  0  0
   -5.0013    4.0060    2.2261 H   0  0  0  0  0  0  0  0  0  0  0  0
   -7.9330    3.6822    1.8321 H   0  0  0  0  0  0  0  0  0  0  0  0
   -6.4930    3.0142    3.7085 H   0  0  0  0  0  0  0  0  0  0  0  0
   -7.8372    4.2895    3.9454 H   0  0  0  0  0  0  0  0  0  0  0  0
   -6.0490    4.7451    3.8885 H   0  0  0  0  0  0  0  0  0  0  0  0
   -8.0272    6.2281    3.4958 H   0  0  0  0  0  0  0  0  0  0  0  0
   -6.7119    3.5797   -0.8904 H   0  0  0  0  0  0  0  0  0  0  0  0
   -7.5154    0.8801   -0.6907 H   0  0  0  0  0  0  0  0  0  0  0  0
   -8.6546    3.0008   -2.6495 H   0  0  0  0  0  0  0  0  0  0  0  0
    2.7734    1.1106   -0.6004 H   0  0  0  0  0  0  0  0  0  0  0  0
    2.9336   -0.0422   -1.9398 H   0  0  0  0  0  0  0  0  0  0  0  0
    4.6176    2.4062   -1.5368 H   0  0  0  0  0  0  0  0  0  0  0  0
    4.6581    0.1009   -3.5518 H   0  0  0  0  0  0  0  0  0  0  0  0
    5.0205    1.7649   -4.0228 H   0  0  0  0  0  0  0  0  0  0  0  0
    6.0442    1.0452   -2.7645 H   0  0  0  0  0  0  0  0  0  0  0  0
    2.1492    1.5396   -3.0585 H   0  0  0  0  0  0  0  0  0  0  0  0
    2.4911    3.0067   -2.1583 H   0  0  0  0  0  0  0  0  0  0  0  0
    3.2658    2.7822   -3.7750 H   0  0  0  0  0  0  0  0  0  0  0  0
  1  2  1  0
  2  3  2  0
  2  4  1  0
  4  5  1  0
  5  6  1  0
  6  7  1  0
  7  8  1  0
  7  9  1  0
  5 10  1  0
 10 11  2  0
 10 12  1  0
 12 13  1  0
 13 14  1  0
 14 15  1  0
 14 16  1  0
 16 17  1  0
 17 18  2  0
 17 19  1  0
 19 20  1  0
 20 21  1  0
 21 22  1  0
 21 23  1  0
 20 24  1  0
 24 25  2  0
 24 26  1  0
 26 27  1  0
 27 28  1  0
 28 29  1  0
 29 30  1  0
 30 31  1  0
 30 32  1  0
 28 33  1  0
 33 34  2  0
 33 35  1  0
 27 36  1  0
 36 37  1  0
 37 38  1  0
 38 39  1  0
 39 40  2  0
 39 41  1  0
 41 42  1  0
 42 43  1  0
 42 44  1  0
 44 45  1  0
 44 46  2  0
 38 47  1  0
 47 48  1  0
 47 49  1  0
 49 50  1  0
 49 51  2  0
 36 52  2  0
 13 53  1  0
 53 54  1  0
 54 55  1  0
 54 56  1  0
  1 57  1  0
  1 58  1  0
  1 59  1  0
  4 60  1  0
  5 61  1  1
  6 62  1  0
  6 63  1  0
  7 64  1  0
  8 65  1  0
  8 66  1  0
  8 67  1  0
  9 68  1  0
  9 69  1  0
  9 70  1  0
 12 71  1  0
 13 72  1  6
 14 73  1  6
 15 74  1  0
 16 75  1  0
 16 76  1  0
 19 77  1  0
 20 78  1  6
 21 79  1  0
 22 80  1  0
 22 81  1  0
 22 82  1  0
 23 83  1  0
 23 84  1  0
 23 85  1  0
 26 86  1  0
 27 87  1  6
 28 88  1  6
 29 89  1  0
 29 90  1  0
 30 91  1  0
 31 92  1  0
 31 93  1  0
 31 94  1  0
 32 95  1  0
 32 96  1  0
 32 97  1  0
 35 98  1  0
 35 99  1  0
 37100  1  0
 38101  1  6
 41102  1  0
 42103  1  6
 43104  1  0
 43105  1  0
 43106  1  0
 45107  1  0
 47108  1  1
 48109  1  0
 50110  1  0
 53111  1  0
 53112  1  0
 54113  1  0
 55114  1  0
 55115  1  0
 55116  1  0
 56117  1  0
 56118  1  0
 56119  1  0
M  END
$$$$
[H]c1nc(N([H])c2c([H])c(N3C([H])([H])C([H])([H])N(C([H])([H])[H])C([H])([H])C3([H])[H])c([H])c(C([H])(F)F)c2[H])n2c([H])c(-c3c([H])c([H])c([H])c(F)c3[H])c([H])c2n1
     RDKit          3D

 56 60  0  0  0  0  0  0  0  0999 V2000
   -7.2382   -1.3872    0.1348 C   0  0  0  0  0  0  0  0  0  0  0  0
   -6.2838   -1.0963   -0.8888 N   0  0  0  0  0  0  0  0  0  0  0  0
   -6.1777    0.2709   -1.2442 C   0  0  0  0  0  0  0  0  0  0  0  0
   -5.1877    1.0170   -0.3782 C   0  0  0  0  0  0  0  0  0  0  0  0
   -3.9356    0.3040   -0.3894 N   0  0  0  0  0  0  0  0  0  0  0  0
   -3.8209   -1.1012   -0.7044 C   0  0  0  0  0  0  0  0  0  0  0  0
   -5.0882   -1.8401   -0.8540 C   0  0  0  0  0  0  0  0  0  0  0  0
   -2.7582    1.0091   -0.0733 C   0  0  0  0  0  0  0  0  0  0  0  0
   -1.5067    0.4321   -0.1665 C   0  0  0  0  0  0  0  0  0  0  0  0
   -0.3265    1.0662    0.1307 C   0  0  0  0  0  0  0  0  0  0  0  0
    0.9607    0.5246    0.0325 N   0  0  0  0  0  0  0  0  0  0  0  0
    1.4068   -0.6493   -0.5521 C   0  0  0  0  0  0  0  0  0  0  0  0
    0.6251   -1.5131   -1.1766 N   0  0  0  0  0  0  0  0  0  0  0  0
    1.0308   -2.6562   -1.7524 C   0  0  0  0  0  0  0  0  0  0  0  0
    2.3344   -2.9654   -1.7005 N   0  0  0  0  0  0  0  0  0  0  0  0
    3.1751   -2.1189   -1.0755 C   0  0  0  0  0  0  0  0  0  0  0  0
    4.5380   -2.2266   -0.8997 C   0  0  0  0  0  0  0  0  0  0  0  0
    4.9357   -1.1122   -0.2005 C   0  0  0  0  0  0  0  0  0  0  0  0
    3.7918   -0.3736    0.0184 C   0  0  0  0  0  0  0  0  0  0  0  0
    2.7291   -0.9841   -0.5114 N   0  0  0  0  0  0  0  0  0  0  0  0
    6.3013   -0.7629    0.2341 C   0  0  0  0  0  0  0  0  0  0  0  0
    6.6645    0.5634    0.3265 C   0  0  0  0  0  0  0  0  0  0  0  0
    7.9540    0.9096    0.7364 C   0  0  0  0  0  0  0  0  0  0  0  0
    8.8773   -0.0612    1.0529 C   0  0  0  0  0  0  0  0  0  0  0  0
    8.5206   -1.3917    0.9627 C   0  0  0  0  0  0  0  0  0  0  0  0
    9.4384   -2.3350    1.2766 F   0  0  0  0  0  0  0  0  0  0  0  0
    7.2405   -1.7106    0.5552 C   0  0  0  0  0  0  0  0  0  0  0  0
   -0.4816    2.3994    0.5552 C   0  0  0  0  0  0  0  0  0  0  0  0
   -1.6994    3.0178    0.6646 C   0  0  0  0  0  0  0  0  0  0  0  0
   -2.8386    2.3111    0.3465 C   0  0  0  0  0  0  0  0  0  0  0  0
   -1.7951    4.4391    1.1221 C   0  0  0  0  0  0  0  0  0  0  0  0
   -2.6388    4.5015    2.2259 F   0  0  0  0  0  0  0  0  0  0  0  0
   -2.3498    5.1789    0.1087 F   0  0  0  0  0  0  0  0  0  0  0  0
   -6.8063   -1.1226    1.1201 H   0  0  0  0  0  0  0  0  0  0  0  0
   -8.1664   -0.8198   -0.0996 H   0  0  0  0  0  0  0  0  0  0  0  0
   -7.4412   -2.4768    0.1324 H   0  0  0  0  0  0  0  0  0  0  0  0
   -5.9080    0.4187   -2.3099 H   0  0  0  0  0  0  0  0  0  0  0  0
   -7.1633    0.7605   -1.1038 H   0  0  0  0  0  0  0  0  0  0  0  0
   -5.0470    2.0215   -0.8758 H   0  0  0  0  0  0  0  0  0  0  0  0
   -5.5526    1.1642    0.6436 H   0  0  0  0  0  0  0  0  0  0  0  0
   -3.1805   -1.5460    0.1146 H   0  0  0  0  0  0  0  0  0  0  0  0
   -3.2147   -1.1806   -1.6303 H   0  0  0  0  0  0  0  0  0  0  0  0
   -5.0628   -2.5067   -1.7663 H   0  0  0  0  0  0  0  0  0  0  0  0
   -5.1743   -2.5796   -0.0025 H   0  0  0  0  0  0  0  0  0  0  0  0
   -1.4973   -0.5886   -0.4915 H   0  0  0  0  0  0  0  0  0  0  0  0
    1.7324    1.1301    0.4998 H   0  0  0  0  0  0  0  0  0  0  0  0
    0.3078   -3.3247   -2.2560 H   0  0  0  0  0  0  0  0  0  0  0  0
    5.1882   -3.0196   -1.2349 H   0  0  0  0  0  0  0  0  0  0  0  0
    3.7381    0.5703    0.5430 H   0  0  0  0  0  0  0  0  0  0  0  0
    5.9378    1.3201    0.0778 H   0  0  0  0  0  0  0  0  0  0  0  0
    8.2354    1.9588    0.8077 H   0  0  0  0  0  0  0  0  0  0  0  0
    9.8837    0.2237    1.3726 H   0  0  0  0  0  0  0  0  0  0  0  0
    6.9687   -2.7517    0.4870 H   0  0  0  0  0  0  0  0  0  0  0  0
    0.3991    2.9721    0.8092 H   0  0  0  0  0  0  0  0  0  0  0  0
   -3.7684    2.8536    0.4543 H   0  0  0  0  0  0  0  0  0  0  0  0
   -0.8057    4.8641    1.3392 H   0  0  0  0  0  0  0  0  0  0  0  0
  1  2  1  0
  2  3  1  0
  3  4  1  0
  4  5  1  0
  5  6  1  0
  6  7  1  0
  5  8  1  0
  8  9  2  0
  9 10  1  0
 10 11  1  0
 11 12  1  0
 12 13  2  0
 13 14  1  0
 14 15  2  0
 15 16  1  0
 16 17  2  0
 17 18  1  0
 18 19  2  0
 19 20  1  0
 18 21  1  0
 21 22  2  0
 22 23  1  0
 23 24  2  0
 24 25  1  0
 25 26  1  0
 25 27  2  0
 10 28  2  0
 28 29  1  0
 29 30  2  0
 29 31  1  0
 31 32  1  0
 31 33  1  0
  7  2  1  0
 30  8  1  0
 20 12  1  0
 27 21  1  0
 20 16  1  0
  1 34  1  0
  1 35  1  0
  1 36  1  0
  3 37  1  0
  3 38  1  0
  4 39  1  0
  4 40  1  0
  6 41  1  0
  6 42  1  0
  7 43  1  0
  7 44  1  0
  9 45  1  0
 11 46  1  0
 14 47  1  0
 17 48  1  0
 19 49  1  0
 22 50  1  0
 23 51  1  0
 24 52  1  0
 27 53  1  0
 28 54  1  0
 30 55  1  0
 31 56  1  0
M  END
$$$$
[H]c1c([H])c([H])c2c([H])nc(N3C([H])([H])C([H])([H])N(C(=O)C4([H])C([H])([H])C([H])([H])N(S(=O)(=O)c5c([H])c([H])c6c([H])c([H])c([H])c([H])c6c5[H])C([H])([H])C4([H])[H])[C@]([H])(C([H])([H])C([H])([H])[H])C3([H])[H])nc2c1[H]
     RDKit          3D

 72 77  0  0  0  0  0  0  0  0999 V2000
   -5.4844   -0.9257    0.1065 C   0  0  0  0  0  0  0  0  0  0  0  0
   -4.0777   -1.0020   -0.0166 N   0  0  0  0  0  0  0  0  0  0  0  0
   -3.3124   -1.9015    0.8166 C   0  0  0  0  0  0  0  0  0  0  0  0
   -1.9162   -1.9345    0.2948 C   0  0  0  0  0  0  0  0  0  0  0  0
   -1.3575   -0.5837    0.1998 N   0  0  0  0  0  0  0  0  0  0  0  0
   -0.0171   -0.3703    0.5948 C   0  0  0  0  0  0  0  0  0  0  0  0
    0.6051   -1.4017    1.0451 O   0  0  0  0  0  0  0  0  0  0  0  0
    0.7119    0.9026    0.5333 C   0  0  0  0  0  0  0  0  0  0  0  0
    2.0409    0.7187    1.2911 C   0  0  0  0  0  0  0  0  0  0  0  0
    3.0095    0.0786    0.3222 C   0  0  0  0  0  0  0  0  0  0  0  0
    3.5057    1.0869   -0.5636 N   0  0  0  0  0  0  0  0  0  0  0  0
    4.8999    1.8484    0.0738 S   0  0  0  0  0  0  0  0  0  0  0  0
    4.6521    2.4473    1.4529 O   0  0  0  0  0  0  0  0  0  0  0  0
    5.3899    2.9384   -0.8596 O   0  0  0  0  0  0  0  0  0  0  0  0
    6.1578    0.6602    0.2705 C   0  0  0  0  0  0  0  0  0  0  0  0
    6.2930    0.0306    1.4814 C   0  0  0  0  0  0  0  0  0  0  0  0
    7.2827   -0.9068    1.6526 C   0  0  0  0  0  0  0  0  0  0  0  0
    8.1271   -1.2030    0.6056 C   0  0  0  0  0  0  0  0  0  0  0  0
    9.1206   -2.1418    0.7770 C   0  0  0  0  0  0  0  0  0  0  0  0
    9.9811   -2.4480   -0.2736 C   0  0  0  0  0  0  0  0  0  0  0  0
    9.8363   -1.8066   -1.4931 C   0  0  0  0  0  0  0  0  0  0  0  0
    8.8350   -0.8690   -1.6451 C   0  0  0  0  0  0  0  0  0  0  0  0
    7.9888   -0.5697   -0.6069 C   0  0  0  0  0  0  0  0  0  0  0  0
    6.9831    0.3790   -0.7723 C   0  0  0  0  0  0  0  0  0  0  0  0
    2.4521    1.9907   -0.9343 C   0  0  0  0  0  0  0  0  0  0  0  0
    1.0865    1.3301   -0.8738 C   0  0  0  0  0  0  0  0  0  0  0  0
   -2.2025    0.4660   -0.2811 C   0  0  2  0  0  0  0  0  0  0  0  0
   -2.7787    1.3314    0.8139 C   0  0  0  0  0  0  0  0  0  0  0  0
   -3.6303    2.4017    0.1560 C   0  0  0  0  0  0  0  0  0  0  0  0
   -3.4211   -0.1546   -0.9879 C   0  0  0  0  0  0  0  0  0  0  0  0
   -6.2160   -0.2016   -0.7421 N   0  0  0  0  0  0  0  0  0  0  0  0
   -7.5446   -0.1051   -0.6373 C   0  0  0  0  0  0  0  0  0  0  0  0
   -8.2062   -0.7730    0.3827 C   0  0  0  0  0  0  0  0  0  0  0  0
   -7.4156   -1.5116    1.2403 C   0  0  0  0  0  0  0  0  0  0  0  0
   -6.0855   -1.5835    1.1018 N   0  0  0  0  0  0  0  0  0  0  0  0
   -9.5837   -0.6968    0.5275 C   0  0  0  0  0  0  0  0  0  0  0  0
  -10.3170    0.0557   -0.3558 C   0  0  0  0  0  0  0  0  0  0  0  0
   -9.6982    0.7361   -1.3846 C   0  0  0  0  0  0  0  0  0  0  0  0
   -8.3297    0.6461   -1.5095 C   0  0  0  0  0  0  0  0  0  0  0  0
   -3.3154   -1.6390    1.8910 H   0  0  0  0  0  0  0  0  0  0  0  0
   -3.7761   -2.9086    0.7132 H   0  0  0  0  0  0  0  0  0  0  0  0
   -1.9214   -2.3799   -0.7102 H   0  0  0  0  0  0  0  0  0  0  0  0
   -1.2954   -2.5733    0.9425 H   0  0  0  0  0  0  0  0  0  0  0  0
    0.2335    1.7572    1.0117 H   0  0  0  0  0  0  0  0  0  0  0  0
    2.3663    1.6985    1.6446 H   0  0  0  0  0  0  0  0  0  0  0  0
    1.8601    0.0500    2.1728 H   0  0  0  0  0  0  0  0  0  0  0  0
    3.7948   -0.4844    0.8453 H   0  0  0  0  0  0  0  0  0  0  0  0
    2.4884   -0.6706   -0.3304 H   0  0  0  0  0  0  0  0  0  0  0  0
    5.6441    0.2405    2.3286 H   0  0  0  0  0  0  0  0  0  0  0  0
    7.4335   -1.4307    2.5799 H   0  0  0  0  0  0  0  0  0  0  0  0
    9.2391   -2.6487    1.7317 H   0  0  0  0  0  0  0  0  0  0  0  0
   10.7444   -3.1847   -0.1017 H   0  0  0  0  0  0  0  0  0  0  0  0
   10.5041   -2.0446   -2.3095 H   0  0  0  0  0  0  0  0  0  0  0  0
    8.7079   -0.3578   -2.5891 H   0  0  0  0  0  0  0  0  0  0  0  0
    6.9026    0.8603   -1.7457 H   0  0  0  0  0  0  0  0  0  0  0  0
    2.6029    2.2347   -2.0246 H   0  0  0  0  0  0  0  0  0  0  0  0
    2.4412    2.9348   -0.3736 H   0  0  0  0  0  0  0  0  0  0  0  0
    0.3718    2.1131   -1.1948 H   0  0  0  0  0  0  0  0  0  0  0  0
    1.0651    0.5126   -1.5929 H   0  0  0  0  0  0  0  0  0  0  0  0
   -1.7480    1.1142   -1.0494 H   0  0  0  0  0  0  0  0  0  0  0  0
   -3.4561    0.6993    1.4466 H   0  0  0  0  0  0  0  0  0  0  0  0
   -2.0419    1.7581    1.5054 H   0  0  0  0  0  0  0  0  0  0  0  0
   -4.7111    2.2349    0.2670 H   0  0  0  0  0  0  0  0  0  0  0  0
   -3.4106    3.3859    0.6432 H   0  0  0  0  0  0  0  0  0  0  0  0
   -3.4104    2.5351   -0.9182 H   0  0  0  0  0  0  0  0  0  0  0  0
   -3.0735   -0.7546   -1.8377 H   0  0  0  0  0  0  0  0  0  0  0  0
   -4.0817    0.6422   -1.3220 H   0  0  0  0  0  0  0  0  0  0  0  0
   -7.9309   -2.0331    2.0360 H   0  0  0  0  0  0  0  0  0  0  0  0
  -10.0527   -1.2235    1.3231 H   0  0  0  0  0  0  0  0  0  0  0  0
  -11.4001    0.1011   -0.2231 H   0  0  0  0  0  0  0  0  0  0  0  0
  -10.2814    1.3260   -2.0768 H   0  0  0  0  0  0  0  0  0  0  0  0
   -7.8578    1.1774   -2.3112 H   0  0  0  0  0  0  0  0  0  0  0  0
  1  2  1  0
  2  3  1  0
  3  4  1  0
  4  5  1  0
  5  6  1  0
  6  7  2  0
  6  8  1  0
  8  9  1  0
  9 10  1  0
 10 11  1  0
 11 12  1  0
 12 13  2  0
 12 14  2  0
 12 15  1  0
 15 16  2  0
 16 17  1  0
 17 18  2  0
 18 19  1  0
 19 20  2  0
 20 21  1  0
 21 22  2  0
 22 23  1  0
 23 24  2  0
 11 25  1  0
 25 26  1  0
  5 27  1  0
 27 28  1  0
 28 29  1  0
 27 30  1  0
  1 31  2  0
 31 32  1  0
 32 33  2  0
 33 34  1  0
 34 35  2  0
 33 36  1  0
 36 37  2  0
 37 38  1  0
 38 39  2  0
 35  1  1  0
 30  2  1  0
 39 32  1  0
 26  8  1  0
 24 15  1  0
 23 18  1  0
  3 40  1  0
  3 41  1  0
  4 42  1  0
  4 43  1  0
  8 44  1  0
  9 45  1  0
  9 46  1  0
 10 47  1  0
 10 48  1  0
 16 49  1  0
 17 50  1  0
 19 51  1  0
 20 52  1  0
 21 53  1  0
 22 54  1  0
 24 55  1  0
 25 56  1  0
 25 57  1  0
 26 58  1  0
 26 59  1  0
 27 60  1  6
 28 61  1  0
 28 62  1  0
 29 63  1  0
 29 64  1  0
 29 65  1  0
 30 66  1  0
 30 67  1  0
 34 68  1  0
 36 69  1  0
 37 70  1  0
 38 71  1  0
 39 72  1  0
M  END
$$$$
[H]c1c([H])c([H])c2c(c1[H])c1c3c(c4c5c([H])c([H])c([H])c([H])c5n5c4c1n2[C@]1([H])O[C@]5(C([H])([H])[H])[C@]([H])(OC([H])([H])[H])[C@]([H])(N([H])C([H])([H])[H])C1([H])[H])C([H])([H])N([H])C3=O
     RDKit          3D

 61 68  0  0  0  0  0  0  0  0999 V2000
   -4.9647    2.0893   -0.5001 C   0  0  0  0  0  0  0  0  0  0  0  0
   -4.1485    0.9173   -0.6110 N   0  0  0  0  0  0  0  0  0  0  0  0
   -3.1547    0.8915    0.4018 C   0  0  2  0  0  0  0  0  0  0  0  0
   -2.1599    2.0934    0.2761 C   0  0  0  0  0  0  0  0  0  0  0  0
   -0.9701    1.4278    0.0810 C   0  0  1  0  0  0  0  0  0  0  0  0
   -1.1699    0.6674   -1.0620 O   0  0  0  0  0  0  0  0  0  0  0  0
   -1.4214   -0.6660   -0.6075 C   0  0  2  0  0  0  0  0  0  0  0  0
   -2.0298   -1.2882   -1.8881 C   0  0  0  0  0  0  0  0  0  0  0  0
   -2.4117   -0.4705    0.4331 C   0  0  2  0  0  0  0  0  0  0  0  0
   -3.4958   -1.3570    0.1476 O   0  0  0  0  0  0  0  0  0  0  0  0
   -3.7832   -2.1888    1.2017 C   0  0  0  0  0  0  0  0  0  0  0  0
   -0.1106   -1.2246   -0.3667 N   0  0  0  0  0  0  0  0  0  0  0  0
    0.2372   -2.5334   -0.4695 C   0  0  0  0  0  0  0  0  0  0  0  0
   -0.4939   -3.6621   -0.6643 C   0  0  0  0  0  0  0  0  0  0  0  0
    0.1052   -4.9347   -0.7248 C   0  0  0  0  0  0  0  0  0  0  0  0
    1.4707   -5.0525   -0.5831 C   0  0  0  0  0  0  0  0  0  0  0  0
    2.2474   -3.9187   -0.3817 C   0  0  0  0  0  0  0  0  0  0  0  0
    1.6031   -2.7007   -0.3318 C   0  0  0  0  0  0  0  0  0  0  0  0
    2.1212   -1.4634   -0.1322 C   0  0  0  0  0  0  0  0  0  0  0  0
    3.3946   -0.9214    0.0464 C   0  0  0  0  0  0  0  0  0  0  0  0
    4.6791   -1.6664    0.0956 C   0  0  0  0  0  0  0  0  0  0  0  0
    5.6758   -0.6431    0.2981 N   0  0  0  0  0  0  0  0  0  0  0  0
    5.0506    0.6576    0.3682 C   0  0  0  0  0  0  0  0  0  0  0  0
    5.7414    1.6773    0.5390 O   0  0  0  0  0  0  0  0  0  0  0  0
    3.6321    0.4301    0.2061 C   0  0  0  0  0  0  0  0  0  0  0  0
    2.5663    1.3151    0.1965 C   0  0  0  0  0  0  0  0  0  0  0  0
    2.4087    2.6598    0.3747 C   0  0  0  0  0  0  0  0  0  0  0  0
    3.2570    3.6970    0.5815 C   0  0  0  0  0  0  0  0  0  0  0  0
    2.7223    4.9826    0.7263 C   0  0  0  0  0  0  0  0  0  0  0  0
    1.3653    5.1987    0.6613 C   0  0  0  0  0  0  0  0  0  0  0  0
    0.4944    4.1468    0.4506 C   0  0  0  0  0  0  0  0  0  0  0  0
    1.0459    2.8793    0.3097 C   0  0  0  0  0  0  0  0  0  0  0  0
    0.3923    1.7530    0.1032 N   0  0  0  0  0  0  0  0  0  0  0  0
    1.3220    0.7641    0.0201 C   0  0  0  0  0  0  0  0  0  0  0  0
    1.0881   -0.6098   -0.1512 C   0  0  0  0  0  0  0  0  0  0  0  0
   -4.5050    2.7874    0.2181 H   0  0  0  0  0  0  0  0  0  0  0  0
   -5.0152    2.5954   -1.4846 H   0  0  0  0  0  0  0  0  0  0  0  0
   -5.9865    1.8736   -0.1140 H   0  0  0  0  0  0  0  0  0  0  0  0
   -4.6708    0.0501   -0.7072 H   0  0  0  0  0  0  0  0  0  0  0  0
   -3.6459    0.9609    1.3922 H   0  0  0  0  0  0  0  0  0  0  0  0
   -2.2247    2.7003    1.2119 H   0  0  0  0  0  0  0  0  0  0  0  0
   -2.6189    2.7330   -0.5135 H   0  0  0  0  0  0  0  0  0  0  0  0
   -0.9798    0.7663    1.0620 H   0  0  0  0  0  0  0  0  0  0  0  0
   -1.2319   -1.8497   -2.3960 H   0  0  0  0  0  0  0  0  0  0  0  0
   -2.8636   -1.9495   -1.6828 H   0  0  0  0  0  0  0  0  0  0  0  0
   -2.2916   -0.4677   -2.5918 H   0  0  0  0  0  0  0  0  0  0  0  0
   -2.1277   -0.7486    1.4625 H   0  0  0  0  0  0  0  0  0  0  0  0
   -2.9558   -2.8425    1.5144 H   0  0  0  0  0  0  0  0  0  0  0  0
   -4.6392   -2.8240    0.9086 H   0  0  0  0  0  0  0  0  0  0  0  0
   -4.1482   -1.5632    2.0435 H   0  0  0  0  0  0  0  0  0  0  0  0
   -1.5512   -3.6189   -0.7668 H   0  0  0  0  0  0  0  0  0  0  0  0
   -0.5187   -5.8172   -0.8832 H   0  0  0  0  0  0  0  0  0  0  0  0
    1.9167   -6.0362   -0.6324 H   0  0  0  0  0  0  0  0  0  0  0  0
    3.3134   -4.0211   -0.2722 H   0  0  0  0  0  0  0  0  0  0  0  0
    4.7040   -2.3997    0.9357 H   0  0  0  0  0  0  0  0  0  0  0  0
    4.8766   -2.2502   -0.8219 H   0  0  0  0  0  0  0  0  0  0  0  0
    6.6886   -0.8471    0.3779 H   0  0  0  0  0  0  0  0  0  0  0  0
    4.3051    3.5494    0.6320 H   0  0  0  0  0  0  0  0  0  0  0  0
    3.4425    5.7718    0.8891 H   0  0  0  0  0  0  0  0  0  0  0  0
    0.9862    6.2225    0.7794 H   0  0  0  0  0  0  0  0  0  0  0  0
   -0.5649    4.2785    0.3948 H   0  0  0  0  0  0  0  0  0  0  0  0
  1  2  1  0
  2  3  1  0
  3  4  1  0
  4  5  1  0
  5  6  1  0
  6  7  1  0
  7  8  1  6
  7  9  1  0
  9 10  1  0
 10 11  1  0
  7 12  1  0
 12 13  1  0
 13 14  2  0
 14 15  1  0
 15 16  2  0
 16 17  1  0
 17 18  2  0
 18 19  1  0
 19 20  2  0
 20 21  1  0
 21 22  1  0
 22 23  1  0
 23 24  2  0
 23 25  1  0
 25 26  2  0
 26 27  1  0
 27 28  2  0
 28 29  1  0
 29 30  2  0
 30 31  1  0
 31 32  2  0
 32 33  1  0
 33 34  1  0
 34 35  2  0
  9  3  1  0
 35 12  1  0
 33  5  1  0
 18 13  1  0
 35 19  1  0
 25 20  1  0
 34 26  1  0
 32 27  1  0
  1 36  1  0
  1 37  1  0
  1 38  1  0
  2 39  1  0
  3 40  1  1
  4 41  1  0
  4 42  1  0
  5 43  1  1
  8 44  1  0
  8 45  1  0
  8 46  1  0
  9 47  1  1
 11 48  1  0
 11 49  1  0
 11 50  1  0
 14 51  1  0
 15 52  1  0
 16 53  1  0
 17 54  1  0
 21 55  1  0
 21 56  1  0
 22 57  1  0
 28 58  1  0
 29 59  1  0
 30 60  1  0
 31 61  1  0
M  END
$$$$
[H]c1c([H])c([H])c(N([H])c2nc(-c3c([H])c([H])c([H])c(N([H])S(=O)(=O)C([H])([H])C([H])([H])C([H])([H])[H])c3[H])c3c([H])c(OC([H])([H])C([H])([H])C([H])([H])N4C([H])([H])C([H])([H])OC([H])([H])C4([H])[H])c(OC([H])([H])[H])c([H])c3n2)c([H])c1[H]
     RDKit          3D

 79 83  0  0  0  0  0  0  0  0999 V2000
   -5.3516   -6.0978   -2.6897 C   0  0  0  0  0  0  0  0  0  0  0  0
   -4.0189   -6.0342   -2.0023 C   0  0  0  0  0  0  0  0  0  0  0  0
   -4.0284   -4.9422   -0.9376 C   0  0  0  0  0  0  0  0  0  0  0  0
   -4.3195   -3.3913   -1.7159 S   0  0  0  0  0  0  0  0  0  0  0  0
   -5.6926   -3.4407   -2.3845 O   0  0  0  0  0  0  0  0  0  0  0  0
   -3.3329   -3.1439   -2.8347 O   0  0  0  0  0  0  0  0  0  0  0  0
   -4.3624   -2.1286   -0.5966 N   0  0  0  0  0  0  0  0  0  0  0  0
   -3.3589   -1.6655    0.2825 C   0  0  0  0  0  0  0  0  0  0  0  0
   -2.7269   -2.4682    1.1858 C   0  0  0  0  0  0  0  0  0  0  0  0
   -1.7573   -1.9772    2.0695 C   0  0  0  0  0  0  0  0  0  0  0  0
   -1.4152   -0.6485    2.0457 C   0  0  0  0  0  0  0  0  0  0  0  0
   -2.0272    0.1862    1.1553 C   0  0  0  0  0  0  0  0  0  0  0  0
   -2.9732   -0.3231    0.3015 C   0  0  0  0  0  0  0  0  0  0  0  0
   -1.7286    1.6065    1.0487 C   0  0  0  0  0  0  0  0  0  0  0  0
   -2.7574    2.5039    1.1520 N   0  0  0  0  0  0  0  0  0  0  0  0
   -2.6180    3.8399    1.0640 C   0  0  0  0  0  0  0  0  0  0  0  0
   -3.7929    4.5917    1.2291 N   0  0  0  0  0  0  0  0  0  0  0  0
   -3.8333    5.9949    1.1466 C   0  0  0  0  0  0  0  0  0  0  0  0
   -4.7744    6.6827    1.9398 C   0  0  0  0  0  0  0  0  0  0  0  0
   -4.8361    8.0418    1.8378 C   0  0  0  0  0  0  0  0  0  0  0  0
   -4.0143    8.7541    0.9912 C   0  0  0  0  0  0  0  0  0  0  0  0
   -3.1201    8.0600    0.2414 C   0  0  0  0  0  0  0  0  0  0  0  0
   -3.0044    6.6700    0.2960 C   0  0  0  0  0  0  0  0  0  0  0  0
   -1.3875    4.3219    0.8609 N   0  0  0  0  0  0  0  0  0  0  0  0
   -0.3457    3.5083    0.7503 C   0  0  0  0  0  0  0  0  0  0  0  0
   -0.4787    2.1129    0.8398 C   0  0  0  0  0  0  0  0  0  0  0  0
    0.6053    1.2769    0.7083 C   0  0  0  0  0  0  0  0  0  0  0  0
    1.8487    1.8413    0.4867 C   0  0  0  0  0  0  0  0  0  0  0  0
    2.9458    1.0237    0.3548 O   0  0  0  0  0  0  0  0  0  0  0  0
    2.9174   -0.3836    0.4254 C   0  0  0  0  0  0  0  0  0  0  0  0
    4.3103   -0.9519    0.2469 C   0  0  0  0  0  0  0  0  0  0  0  0
    4.2715   -2.4577    0.3246 C   0  0  0  0  0  0  0  0  0  0  0  0
    5.5952   -2.9917    0.1571 N   0  0  0  0  0  0  0  0  0  0  0  0
    6.1097   -2.7949   -1.1916 C   0  0  0  0  0  0  0  0  0  0  0  0
    7.3918   -3.5634   -1.4014 C   0  0  0  0  0  0  0  0  0  0  0  0
    7.9197   -3.9598   -0.1628 O   0  0  0  0  0  0  0  0  0  0  0  0
    7.0875   -4.8053    0.5364 C   0  0  0  0  0  0  0  0  0  0  0  0
    5.6230   -4.3973    0.4303 C   0  0  0  0  0  0  0  0  0  0  0  0
    2.0036    3.2005    0.3977 C   0  0  0  0  0  0  0  0  0  0  0  0
    3.2390    3.7982    0.1760 O   0  0  0  0  0  0  0  0  0  0  0  0
    3.4219    5.1802    0.0805 C   0  0  0  0  0  0  0  0  0  0  0  0
    0.9145    4.0508    0.5270 C   0  0  0  0  0  0  0  0  0  0  0  0
   -5.5587   -7.1682   -2.9866 H   0  0  0  0  0  0  0  0  0  0  0  0
   -5.2886   -5.4681   -3.6149 H   0  0  0  0  0  0  0  0  0  0  0  0
   -6.1623   -5.7769   -2.0276 H   0  0  0  0  0  0  0  0  0  0  0  0
   -3.2047   -5.8521   -2.7440 H   0  0  0  0  0  0  0  0  0  0  0  0
   -3.7659   -7.0071   -1.5038 H   0  0  0  0  0  0  0  0  0  0  0  0
   -4.7675   -5.1782   -0.1577 H   0  0  0  0  0  0  0  0  0  0  0  0
   -3.0143   -4.9759   -0.4596 H   0  0  0  0  0  0  0  0  0  0  0  0
   -5.2779   -1.5543   -0.5009 H   0  0  0  0  0  0  0  0  0  0  0  0
   -2.9682   -3.5342    1.2687 H   0  0  0  0  0  0  0  0  0  0  0  0
   -1.2751   -2.6676    2.7801 H   0  0  0  0  0  0  0  0  0  0  0  0
   -0.6605   -0.3007    2.7528 H   0  0  0  0  0  0  0  0  0  0  0  0
   -3.4885    0.3123   -0.4279 H   0  0  0  0  0  0  0  0  0  0  0  0
   -4.6971    4.0984    1.4243 H   0  0  0  0  0  0  0  0  0  0  0  0
   -5.4108    6.1041    2.5988 H   0  0  0  0  0  0  0  0  0  0  0  0
   -5.5700    8.5807    2.4559 H   0  0  0  0  0  0  0  0  0  0  0  0
   -4.0819    9.8516    0.9266 H   0  0  0  0  0  0  0  0  0  0  0  0
   -2.4627    8.5916   -0.4318 H   0  0  0  0  0  0  0  0  0  0  0  0
   -2.2711    6.1927   -0.3586 H   0  0  0  0  0  0  0  0  0  0  0  0
    0.4968    0.1934    0.7529 H   0  0  0  0  0  0  0  0  0  0  0  0
    2.3157   -0.7204   -0.4692 H   0  0  0  0  0  0  0  0  0  0  0  0
    2.4250   -0.7602    1.3269 H   0  0  0  0  0  0  0  0  0  0  0  0
    4.7307   -0.6263   -0.7159 H   0  0  0  0  0  0  0  0  0  0  0  0
    4.9639   -0.6047    1.0765 H   0  0  0  0  0  0  0  0  0  0  0  0
    3.8828   -2.8040    1.2866 H   0  0  0  0  0  0  0  0  0  0  0  0
    3.6022   -2.8435   -0.4981 H   0  0  0  0  0  0  0  0  0  0  0  0
    5.3701   -3.1837   -1.9237 H   0  0  0  0  0  0  0  0  0  0  0  0
    6.2950   -1.7267   -1.4049 H   0  0  0  0  0  0  0  0  0  0  0  0
    8.1265   -2.9234   -1.8915 H   0  0  0  0  0  0  0  0  0  0  0  0
    7.2465   -4.4698   -2.0452 H   0  0  0  0  0  0  0  0  0  0  0  0
    7.1604   -5.8655    0.2303 H   0  0  0  0  0  0  0  0  0  0  0  0
    7.3676   -4.7608    1.6128 H   0  0  0  0  0  0  0  0  0  0  0  0
    5.1299   -4.6124    1.3870 H   0  0  0  0  0  0  0  0  0  0  0  0
    5.1115   -5.0088   -0.3433 H   0  0  0  0  0  0  0  0  0  0  0  0
    2.8126    5.6413   -0.7351 H   0  0  0  0  0  0  0  0  0  0  0  0
    4.4889    5.3619   -0.2096 H   0  0  0  0  0  0  0  0  0  0  0  0
    3.2181    5.6617    1.0662 H   0  0  0  0  0  0  0  0  0  0  0  0
    1.0334    5.1245    0.4572 H   0  0  0  0  0  0  0  0  0  0  0  0
  1  2  1  0
  2  3  1  0
  3  4  1  0
  4  5  2  0
  4  6  2  0
  4  7  1  0
  7  8  1  0
  8  9  2  0
  9 10  1  0
 10 11  2  0
 11 12  1  0
 12 13  2  0
 12 14  1  0
 14 15  2  0
 15 16  1  0
 16 17  1  0
 17 18  1  0
 18 19  2  0
 19 20  1  0
 20 21  2  0
 21 22  1  0
 22 23  2  0
 16 24  2  0
 24 25  1  0
 25 26  2  0
 26 27  1  0
 27 28  2  0
 28 29  1  0
 29 30  1  0
 30 31  1  0
 31 32  1  0
 32 33  1  0
 33 34  1  0
 34 35  1  0
 35 36  1  0
 36 37  1  0
 37 38  1  0
 28 39  1  0
 39 40  1  0
 40 41  1  0
 39 42  2  0
 13  8  1  0
 26 14  1  0
 38 33  1  0
 23 18  1  0
 42 25  1  0
  1 43  1  0
  1 44  1  0
  1 45  1  0
  2 46  1  0
  2 47  1  0
  3 48  1  0
  3 49  1  0
  7 50  1  0
  9 51  1  0
 10 52  1  0
 11 53  1  0
 13 54  1  0
 17 55  1  0
 19 56  1  0
 20 57  1  0
 21 58  1  0
 22 59  1  0
 23 60  1  0
 27 61  1  0
 30 62  1  0
 30 63  1  0
 31 64  1  0
 31 65  1  0
 32 66  1  0
 32 67  1  0
 34 68  1  0
 34 69  1  0
 35 70  1  0
 35 71  1  0
 37 72  1  0
 37 73  1  0
 38 74  1  0
 38 75  1  0
 41 76  1  0
 41 77  1  0
 41 78  1  0
 42 79  1  0
M  END
$$$$
[H]c1nc(N([H])c2c([H])c([H])c(F)c(Cl)c2[H])c2c([H])c(OC([H])([H])C([H])([H])C([H])([H])N3C([H])([H])C([H])([H])C([H])([H])C3([H])[H])c(OC([H])([H])[H])c([H])c2n1
     RDKit          3D

 54 57  0  0  0  0  0  0  0  0999 V2000
   -0.4112   -6.1591    0.4899 C   0  0  0  0  0  0  0  0  0  0  0  0
    0.1480   -4.8635    0.5899 O   0  0  0  0  0  0  0  0  0  0  0  0
   -0.6782   -3.7546    0.5805 C   0  0  0  0  0  0  0  0  0  0  0  0
   -2.0363   -3.8903    0.4751 C   0  0  0  0  0  0  0  0  0  0  0  0
   -2.8697   -2.7975    0.4644 C   0  0  0  0  0  0  0  0  0  0  0  0
   -4.2012   -2.9000    0.3641 N   0  0  0  0  0  0  0  0  0  0  0  0
   -5.0094   -1.8242    0.3561 C   0  0  0  0  0  0  0  0  0  0  0  0
   -4.5067   -0.5931    0.4493 N   0  0  0  0  0  0  0  0  0  0  0  0
   -3.1724   -0.4040    0.5537 C   0  0  0  0  0  0  0  0  0  0  0  0
   -2.6046    0.8806    0.6115 N   0  0  0  0  0  0  0  0  0  0  0  0
   -3.4517    2.0477    0.6509 C   0  0  0  0  0  0  0  0  0  0  0  0
   -4.6578    2.1205    1.2832 C   0  0  0  0  0  0  0  0  0  0  0  0
   -5.4139    3.2899    1.2297 C   0  0  0  0  0  0  0  0  0  0  0  0
   -4.9785    4.3983    0.5484 C   0  0  0  0  0  0  0  0  0  0  0  0
   -5.7210    5.5358    0.5006 F   0  0  0  0  0  0  0  0  0  0  0  0
   -3.7624    4.3500   -0.0976 C   0  0  0  0  0  0  0  0  0  0  0  0
   -3.1740    5.7651   -0.9855 Cl  0  0  0  0  0  0  0  0  0  0  0  0
   -3.0240    3.1939   -0.0404 C   0  0  0  0  0  0  0  0  0  0  0  0
   -2.3251   -1.5149    0.5632 C   0  0  0  0  0  0  0  0  0  0  0  0
   -0.9471   -1.4096    0.6692 C   0  0  0  0  0  0  0  0  0  0  0  0
   -0.0772   -2.4872    0.6825 C   0  0  0  0  0  0  0  0  0  0  0  0
    1.2771   -2.3776    0.7834 O   0  0  0  0  0  0  0  0  0  0  0  0
    2.1615   -1.3534    0.8664 C   0  0  0  0  0  0  0  0  0  0  0  0
    2.2478   -0.4086   -0.3095 C   0  0  0  0  0  0  0  0  0  0  0  0
    3.2967    0.6224    0.0475 C   0  0  0  0  0  0  0  0  0  0  0  0
    3.4958    1.5991   -0.9781 N   0  0  0  0  0  0  0  0  0  0  0  0
    4.1011    1.0694   -2.1785 C   0  0  0  0  0  0  0  0  0  0  0  0
    5.5814    1.2419   -2.0317 C   0  0  0  0  0  0  0  0  0  0  0  0
    5.6923    2.4643   -1.1473 C   0  0  0  0  0  0  0  0  0  0  0  0
    4.3489    2.6508   -0.5062 C   0  0  0  0  0  0  0  0  0  0  0  0
   -0.9812   -6.2774   -0.4499 H   0  0  0  0  0  0  0  0  0  0  0  0
   -1.1440   -6.2689    1.3191 H   0  0  0  0  0  0  0  0  0  0  0  0
    0.3746   -6.9307    0.6125 H   0  0  0  0  0  0  0  0  0  0  0  0
   -2.5287   -4.8596    0.3941 H   0  0  0  0  0  0  0  0  0  0  0  0
   -6.1007   -1.9235    0.2730 H   0  0  0  0  0  0  0  0  0  0  0  0
   -1.5825    1.1064    0.6278 H   0  0  0  0  0  0  0  0  0  0  0  0
   -5.0433    1.2696    1.8663 H   0  0  0  0  0  0  0  0  0  0  0  0
   -6.3661    3.2943    1.7492 H   0  0  0  0  0  0  0  0  0  0  0  0
   -2.0732    3.1705   -0.5513 H   0  0  0  0  0  0  0  0  0  0  0  0
   -0.5495   -0.4143    0.7650 H   0  0  0  0  0  0  0  0  0  0  0  0
    1.9882   -0.7720    1.8159 H   0  0  0  0  0  0  0  0  0  0  0  0
    3.1869   -1.8158    1.0643 H   0  0  0  0  0  0  0  0  0  0  0  0
    1.2920    0.0627   -0.4776 H   0  0  0  0  0  0  0  0  0  0  0  0
    2.5663   -1.0276   -1.1777 H   0  0  0  0  0  0  0  0  0  0  0  0
    2.9587    1.1413    0.9616 H   0  0  0  0  0  0  0  0  0  0  0  0
    4.2343    0.0821    0.2650 H   0  0  0  0  0  0  0  0  0  0  0  0
    3.7694    0.0678   -2.4414 H   0  0  0  0  0  0  0  0  0  0  0  0
    3.7772    1.7523   -3.0179 H   0  0  0  0  0  0  0  0  0  0  0  0
    6.0754    0.3606   -1.5606 H   0  0  0  0  0  0  0  0  0  0  0  0
    6.0203    1.5030   -3.0140 H   0  0  0  0  0  0  0  0  0  0  0  0
    6.4918    2.3118   -0.3720 H   0  0  0  0  0  0  0  0  0  0  0  0
    5.9496    3.3731   -1.7567 H   0  0  0  0  0  0  0  0  0  0  0  0
    4.4605    2.6702    0.5960 H   0  0  0  0  0  0  0  0  0  0  0  0
    3.8956    3.6321   -0.8139 H   0  0  0  0  0  0  0  0  0  0  0  0
  1  2  1  0
  2  3  1  0
  3  4  2  0
  4  5  1  0
  5  6  2  0
  6  7  1  0
  7  8  2  0
  8  9  1  0
  9 10  1  0
 10 11  1  0
 11 12  2  0
 12 13  1  0
 13 14  2  0
 14 15  1  0
 14 16  1  0
 16 17  1  0
 16 18  2  0
  9 19  2  0
 19 20  1  0
 20 21  2  0
 21 22  1  0
 22 23  1  0
 23 24  1  0
 24 25  1  0
 25 26  1  0
 26 27  1  0
 27 28  1  0
 28 29  1  0
 29 30  1  0
 21  3  1  0
 30 26  1  0
 19  5  1  0
 18 11  1  0
  1 31  1  0
  1 32  1  0
  1 33  1  0
  4 34  1  0
  7 35  1  0
 10 36  1  0
 12 37  1  0
 13 38  1  0
 18 39  1  0
 20 40  1  0
 23 41  1  0
 23 42  1  0
 24 43  1  0
 24 44  1  0
 25 45  1  0
 25 46  1  0
 27 47  1  0
 27 48  1  0
 28 49  1  0
 28 50  1  0
 29 51  1  0
 29 52  1  0
 30 53  1  0
 30 54  1  0
M  END
$$$$
[H]OC([H])([H])[C@]([H])(n1c([H])c([C@]2([H])C([H])([H])[C@]([H])(c3nc([H])c(Cl)c([H])c3[H])C2([H])[H])c2c([H])c([H])c([H])nc21)C([H])([H])[H]
     RDKit          3D

 44 47  0  0  0  0  0  0  0  0999 V2000
   -4.4295    2.2248   -0.4232 C   0  0  0  0  0  0  0  0  0  0  0  0
   -4.2689    0.7307   -0.4745 C   0  0  2  0  0  0  0  0  0  0  0  0
   -5.1782    0.1365    0.5562 C   0  0  0  0  0  0  0  0  0  0  0  0
   -4.8586    0.5893    1.8193 O   0  0  0  0  0  0  0  0  0  0  0  0
   -2.8687    0.3265   -0.3429 N   0  0  0  0  0  0  0  0  0  0  0  0
   -1.8274    1.0505   -0.0122 C   0  0  0  0  0  0  0  0  0  0  0  0
   -0.6373    0.3048    0.0347 C   0  0  0  0  0  0  0  0  0  0  0  0
    0.6055    0.7642    0.5419 C   0  0  2  0  0  0  0  0  0  0  0  0
    1.6343    1.4166   -0.3785 C   0  0  0  0  0  0  0  0  0  0  0  0
    2.6425    1.1234    0.6597 C   0  0  1  0  0  0  0  0  0  0  0  0
    1.6617    0.0691    1.2508 C   0  0  0  0  0  0  0  0  0  0  0  0
    3.9554    0.5564    0.3664 C   0  0  0  0  0  0  0  0  0  0  0  0
    4.5626   -0.3245    1.2957 C   0  0  0  0  0  0  0  0  0  0  0  0
    5.8127   -0.8592    1.0313 C   0  0  0  0  0  0  0  0  0  0  0  0
    6.5085   -0.5675   -0.1121 C   0  0  0  0  0  0  0  0  0  0  0  0
    8.1003   -1.2548   -0.4081 Cl  0  0  0  0  0  0  0  0  0  0  0  0
    5.8853    0.3040   -1.0056 C   0  0  0  0  0  0  0  0  0  0  0  0
    4.6479    0.8225   -0.7264 N   0  0  0  0  0  0  0  0  0  0  0  0
   -1.0532   -0.9808   -0.3130 C   0  0  0  0  0  0  0  0  0  0  0  0
   -0.3640   -2.1393   -0.5085 C   0  0  0  0  0  0  0  0  0  0  0  0
   -0.9881   -3.2901   -0.9314 C   0  0  0  0  0  0  0  0  0  0  0  0
   -2.3772   -3.2306   -1.1571 C   0  0  0  0  0  0  0  0  0  0  0  0
   -3.0600   -2.0769   -0.9624 N   0  0  0  0  0  0  0  0  0  0  0  0
   -2.4125   -0.9460   -0.5394 C   0  0  0  0  0  0  0  0  0  0  0  0
   -3.6540    2.7951   -0.9533 H   0  0  0  0  0  0  0  0  0  0  0  0
   -4.5623    2.5516    0.6364 H   0  0  0  0  0  0  0  0  0  0  0  0
   -5.3900    2.4627   -1.0034 H   0  0  0  0  0  0  0  0  0  0  0  0
   -4.5783    0.3988   -1.5084 H   0  0  0  0  0  0  0  0  0  0  0  0
   -6.2029    0.5983    0.3282 H   0  0  0  0  0  0  0  0  0  0  0  0
   -5.3124   -0.9382    0.4982 H   0  0  0  0  0  0  0  0  0  0  0  0
   -3.9705    0.9549    1.9414 H   0  0  0  0  0  0  0  0  0  0  0  0
   -1.9139    2.1314    0.2133 H   0  0  0  0  0  0  0  0  0  0  0  0
    0.3570    1.7083    1.2647 H   0  0  0  0  0  0  0  0  0  0  0  0
    1.7509    0.8809   -1.3507 H   0  0  0  0  0  0  0  0  0  0  0  0
    1.4738    2.4836   -0.5966 H   0  0  0  0  0  0  0  0  0  0  0  0
    2.7216    1.9681    1.4080 H   0  0  0  0  0  0  0  0  0  0  0  0
    1.6423    0.2466    2.3913 H   0  0  0  0  0  0  0  0  0  0  0  0
    1.9374   -0.9606    1.1188 H   0  0  0  0  0  0  0  0  0  0  0  0
    4.0020   -0.5374    2.1859 H   0  0  0  0  0  0  0  0  0  0  0  0
    6.2753   -1.5446    1.7640 H   0  0  0  0  0  0  0  0  0  0  0  0
    6.4406    0.5262   -1.8827 H   0  0  0  0  0  0  0  0  0  0  0  0
    0.6889   -2.1571   -0.3596 H   0  0  0  0  0  0  0  0  0  0  0  0
   -0.4905   -4.2248   -1.1023 H   0  0  0  0  0  0  0  0  0  0  0  0
   -2.9081   -4.0934   -1.4844 H   0  0  0  0  0  0  0  0  0  0  0  0
  1  2  1  0
  2  3  1  0
  3  4  1  0
  2  5  1  0
  5  6  1  0
  6  7  2  0
  7  8  1  0
  8  9  1  0
  9 10  1  0
 10 11  1  0
 10 12  1  0
 12 13  2  0
 13 14  1  0
 14 15  2  0
 15 16  1  0
 15 17  1  0
 17 18  2  0
  7 19  1  0
 19 20  2  0
 20 21  1  0
 21 22  2  0
 22 23  1  0
 23 24  2  0
 24  5  1  0
 11  8  1  0
 18 12  1  0
 24 19  1  0
  1 25  1  0
  1 26  1  0
  1 27  1  0
  2 28  1  6
  3 29  1  0
  3 30  1  0
  4 31  1  0
  6 32  1  0
  8 33  1  1
  9 34  1  0
  9 35  1  0
 10 36  1  1
 11 37  1  0
 11 38  1  0
 13 39  1  0
 14 40  1  0
 17 41  1  0
 20 42  1  0
 21 43  1  0
 22 44  1  0
M  END
$$$$
[H]c1c([H])c(S(=O)(=O)N([H])[H])c([H])c([H])c1N([H])c1nc(N([H])[C@]2([H])C([H])([H])C([H])([H])[C@@]([H])(N([H])[H])C([H])([H])C2([H])[H])c2c([H])c([H])n([H])c2n1
     RDKit          3D

 51 54  0  0  0  0  0  0  0  0999 V2000
   -0.7298   -0.5123    0.5270 N   0  0  0  0  0  0  0  0  0  0  0  0
    0.5778   -0.6858    0.1672 C   0  0  0  0  0  0  0  0  0  0  0  0
    1.1704    0.2131   -0.7525 N   0  0  0  0  0  0  0  0  0  0  0  0
    2.4738    0.1979   -1.2578 C   0  0  0  0  0  0  0  0  0  0  0  0
    3.2706   -0.8986   -1.3539 C   0  0  0  0  0  0  0  0  0  0  0  0
    4.5848   -0.8442   -1.8407 C   0  0  0  0  0  0  0  0  0  0  0  0
    5.1279    0.3411   -2.2479 C   0  0  0  0  0  0  0  0  0  0  0  0
    6.7743    0.4496   -2.8640 S   0  0  0  0  0  0  0  0  0  0  0  0
    7.1719   -0.8026   -3.5889 O   0  0  0  0  0  0  0  0  0  0  0  0
    7.9042    0.7491   -1.6242 N   0  0  0  0  0  0  0  0  0  0  0  0
    6.8083    1.5857   -3.8502 O   0  0  0  0  0  0  0  0  0  0  0  0
    4.3462    1.4763   -2.1653 C   0  0  0  0  0  0  0  0  0  0  0  0
    3.0666    1.4046   -1.6875 C   0  0  0  0  0  0  0  0  0  0  0  0
    1.2810   -1.6810    0.7057 N   0  0  0  0  0  0  0  0  0  0  0  0
    0.6961   -2.4989    1.5934 C   0  0  0  0  0  0  0  0  0  0  0  0
   -0.6199   -2.3250    1.9560 C   0  0  0  0  0  0  0  0  0  0  0  0
   -1.3654   -1.2969    1.4070 C   0  0  0  0  0  0  0  0  0  0  0  0
   -2.7221   -1.1197    1.7721 N   0  0  0  0  0  0  0  0  0  0  0  0
   -3.6020   -0.0997    1.2910 C   0  0  1  0  0  0  0  0  0  0  0  0
   -3.1234    1.2605    1.7081 C   0  0  0  0  0  0  0  0  0  0  0  0
   -4.0921    2.3499    1.2738 C   0  0  0  0  0  0  0  0  0  0  0  0
   -4.3401    2.2640   -0.2275 C   0  0  2  0  0  0  0  0  0  0  0  0
   -5.2149    3.3260   -0.6427 N   0  0  0  0  0  0  0  0  0  0  0  0
   -4.9320    0.8979   -0.5000 C   0  0  0  0  0  0  0  0  0  0  0  0
   -3.8275   -0.1277   -0.2068 C   0  0  0  0  0  0  0  0  0  0  0  0
   -0.9499   -3.3119    2.8832 C   0  0  0  0  0  0  0  0  0  0  0  0
    0.1863   -4.0724    3.0654 C   0  0  0  0  0  0  0  0  0  0  0  0
    1.1595   -3.5748    2.2891 N   0  0  0  0  0  0  0  0  0  0  0  0
    0.5592    1.0294   -1.1354 H   0  0  0  0  0  0  0  0  0  0  0  0
    2.8732   -1.8807   -1.0593 H   0  0  0  0  0  0  0  0  0  0  0  0
    5.1605   -1.7482   -1.8896 H   0  0  0  0  0  0  0  0  0  0  0  0
    7.5298    0.6649   -0.6689 H   0  0  0  0  0  0  0  0  0  0  0  0
    8.5539    1.5220   -1.7935 H   0  0  0  0  0  0  0  0  0  0  0  0
    4.8021    2.4138   -2.4974 H   0  0  0  0  0  0  0  0  0  0  0  0
    2.4694    2.2969   -1.6289 H   0  0  0  0  0  0  0  0  0  0  0  0
   -3.1068   -1.8285    2.4775 H   0  0  0  0  0  0  0  0  0  0  0  0
   -4.6364   -0.2037    1.7348 H   0  0  0  0  0  0  0  0  0  0  0  0
   -2.1762    1.4747    1.1764 H   0  0  0  0  0  0  0  0  0  0  0  0
   -2.9060    1.3290    2.7819 H   0  0  0  0  0  0  0  0  0  0  0  0
   -5.0135    2.2212    1.8382 H   0  0  0  0  0  0  0  0  0  0  0  0
   -3.6245    3.3214    1.5160 H   0  0  0  0  0  0  0  0  0  0  0  0
   -3.3626    2.2884   -0.7658 H   0  0  0  0  0  0  0  0  0  0  0  0
   -4.5992    4.1024   -1.0162 H   0  0  0  0  0  0  0  0  0  0  0  0
   -5.7580    2.9943   -1.4702 H   0  0  0  0  0  0  0  0  0  0  0  0
   -5.2823    0.8180   -1.5442 H   0  0  0  0  0  0  0  0  0  0  0  0
   -5.8080    0.6941    0.1471 H   0  0  0  0  0  0  0  0  0  0  0  0
   -4.2448   -1.1019   -0.5350 H   0  0  0  0  0  0  0  0  0  0  0  0
   -2.9396    0.1260   -0.7851 H   0  0  0  0  0  0  0  0  0  0  0  0
   -1.9217   -3.4261    3.3479 H   0  0  0  0  0  0  0  0  0  0  0  0
    0.2215   -4.9246    3.7436 H   0  0  0  0  0  0  0  0  0  0  0  0
    2.1295   -3.9189    2.1971 H   0  0  0  0  0  0  0  0  0  0  0  0
  1  2  2  0
  2  3  1  0
  3  4  1  0
  4  5  2  0
  5  6  1  0
  6  7  2  0
  7  8  1  0
  8  9  2  0
  8 10  1  0
  8 11  2  0
  7 12  1  0
 12 13  2  0
  2 14  1  0
 14 15  2  0
 15 16  1  0
 16 17  2  0
 17 18  1  0
 18 19  1  0
 19 20  1  0
 20 21  1  0
 21 22  1  0
 22 23  1  0
 22 24  1  0
 24 25  1  0
 16 26  1  0
 26 27  2  0
 27 28  1  0
 17  1  1  0
 25 19  1  0
 13  4  1  0
 28 15  1  0
  3 29  1  0
  5 30  1  0
  6 31  1  0
 10 32  1  0
 10 33  1  0
 12 34  1  0
 13 35  1  0
 18 36  1  0
 19 37  1  1
 20 38  1  0
 20 39  1  0
 21 40  1  0
 21 41  1  0
 22 42  1  6
 23 43  1  0
 23 44  1  0
 24 45  1  0
 24 46  1  0
 25 47  1  0
 25 48  1  0
 26 49  1  0
 27 50  1  0
 28 51  1  0
M  END
$$$$
[H]OC([H])([H])c1c([H])c([H])c(C(=O)N([H])c2sc(N([H])c3c([H])c([H])c4c([H])c([H])c([H])c([H])c4c3[H])nc2C(=O)N([H])[H])c([H])c1[H]
     RDKit          3D

 48 51  0  0  0  0  0  0  0  0999 V2000
   -0.7845   -2.7981   -2.5405 N   0  0  0  0  0  0  0  0  0  0  0  0
    0.3574   -2.1509   -1.9487 C   0  0  0  0  0  0  0  0  0  0  0  0
    1.5106   -2.5197   -2.2396 O   0  0  0  0  0  0  0  0  0  0  0  0
    0.0838   -1.0423   -0.9925 C   0  0  0  0  0  0  0  0  0  0  0  0
   -1.1252   -0.6741   -0.7033 N   0  0  0  0  0  0  0  0  0  0  0  0
   -1.3798    0.2957    0.1329 C   0  0  0  0  0  0  0  0  0  0  0  0
   -2.6132    0.8622    0.5937 N   0  0  0  0  0  0  0  0  0  0  0  0
   -3.9024    0.4904    0.2376 C   0  0  0  0  0  0  0  0  0  0  0  0
   -4.2347   -0.4989   -0.6307 C   0  0  0  0  0  0  0  0  0  0  0  0
   -5.5696   -0.7959   -0.9230 C   0  0  0  0  0  0  0  0  0  0  0  0
   -6.5790   -0.0745   -0.3219 C   0  0  0  0  0  0  0  0  0  0  0  0
   -7.9145   -0.3224   -0.5716 C   0  0  0  0  0  0  0  0  0  0  0  0
   -8.9081    0.4125    0.0416 C   0  0  0  0  0  0  0  0  0  0  0  0
   -8.5996    1.4262    0.9306 C   0  0  0  0  0  0  0  0  0  0  0  0
   -7.2741    1.6921    1.1956 C   0  0  0  0  0  0  0  0  0  0  0  0
   -6.2789    0.9366    0.5645 C   0  0  0  0  0  0  0  0  0  0  0  0
   -4.9629    1.1798    0.8096 C   0  0  0  0  0  0  0  0  0  0  0  0
    0.2287    0.7607    0.5781 S   0  0  0  0  0  0  0  0  0  0  0  0
    1.1003   -0.3684   -0.3809 C   0  0  0  0  0  0  0  0  0  0  0  0
    2.5278   -0.4745   -0.4366 N   0  0  0  0  0  0  0  0  0  0  0  0
    3.3527    0.3845    0.3311 C   0  0  0  0  0  0  0  0  0  0  0  0
    2.7850    1.2507    1.0679 O   0  0  0  0  0  0  0  0  0  0  0  0
    4.7819    0.3238    0.3158 C   0  0  0  0  0  0  0  0  0  0  0  0
    5.5122    1.2903    0.9710 C   0  0  0  0  0  0  0  0  0  0  0  0
    6.8914    1.2658    0.9828 C   0  0  0  0  0  0  0  0  0  0  0  0
    7.5345    0.2454    0.3199 C   0  0  0  0  0  0  0  0  0  0  0  0
    9.0231    0.1608    0.2941 C   0  0  0  0  0  0  0  0  0  0  0  0
    9.6042    1.2046    0.9975 O   0  0  0  0  0  0  0  0  0  0  0  0
    6.8326   -0.7289   -0.3398 C   0  0  0  0  0  0  0  0  0  0  0  0
    5.4488   -0.6734   -0.3311 C   0  0  0  0  0  0  0  0  0  0  0  0
   -0.9756   -2.6145   -3.5432 H   0  0  0  0  0  0  0  0  0  0  0  0
   -1.3648   -3.4177   -1.9411 H   0  0  0  0  0  0  0  0  0  0  0  0
   -2.4732    1.6595    1.2903 H   0  0  0  0  0  0  0  0  0  0  0  0
   -3.5131   -1.0918   -1.1274 H   0  0  0  0  0  0  0  0  0  0  0  0
   -5.8561   -1.5704   -1.6035 H   0  0  0  0  0  0  0  0  0  0  0  0
   -8.1683   -1.1039   -1.2573 H   0  0  0  0  0  0  0  0  0  0  0  0
   -9.9615    0.2347   -0.1398 H   0  0  0  0  0  0  0  0  0  0  0  0
   -9.3780    2.0152    1.4224 H   0  0  0  0  0  0  0  0  0  0  0  0
   -6.9886    2.4778    1.8858 H   0  0  0  0  0  0  0  0  0  0  0  0
   -4.7469    1.9885    1.5179 H   0  0  0  0  0  0  0  0  0  0  0  0
    3.0160   -1.1681   -1.0298 H   0  0  0  0  0  0  0  0  0  0  0  0
    5.0457    2.1145    1.5075 H   0  0  0  0  0  0  0  0  0  0  0  0
    7.4466    2.0321    1.5018 H   0  0  0  0  0  0  0  0  0  0  0  0
    9.3779    0.1573   -0.7595 H   0  0  0  0  0  0  0  0  0  0  0  0
    9.3351   -0.8198    0.7296 H   0  0  0  0  0  0  0  0  0  0  0  0
    9.4671    1.0678    1.9632 H   0  0  0  0  0  0  0  0  0  0  0  0
    7.3381   -1.5489   -0.8728 H   0  0  0  0  0  0  0  0  0  0  0  0
    4.9512   -1.4721   -0.8679 H   0  0  0  0  0  0  0  0  0  0  0  0
  1  2  1  0
  2  3  2  0
  2  4  1  0
  4  5  1  0
  5  6  2  0
  6  7  1  0
  7  8  1  0
  8  9  2  0
  9 10  1  0
 10 11  2  0
 11 12  1  0
 12 13  2  0
 13 14  1  0
 14 15  2  0
 15 16  1  0
 16 17  2  0
  6 18  1  0
 18 19  1  0
 19 20  1  0
 20 21  1  0
 21 22  2  0
 21 23  1  0
 23 24  2  0
 24 25  1  0
 25 26  2  0
 26 27  1  0
 27 28  1  0
 26 29  1  0
 29 30  2  0
 19  4  2  0
 30 23  1  0
 17  8  1  0
 16 11  1  0
  1 31  1  0
  1 32  1  0
  7 33  1  0
  9 34  1  0
 10 35  1  0
 12 36  1  0
 13 37  1  0
 14 38  1  0
 15 39  1  0
 17 40  1  0
 20 41  1  0
 24 42  1  0
 25 43  1  0
 27 44  1  0
 27 45  1  0
 28 46  1  0
 29 47  1  0
 30 48  1  0
M  END
$$$$
[H]c1nc(Oc2c([H])c([H])c(N([H])C(=O)c3c(Cl)c([H])c([H])c([H])c3Cl)c([H])c2[H])c2c([H])c(OC([H])([H])[H])c(OC([H])([H])[H])c([H])c2n1
     RDKit          3D

 49 52  0  0  0  0  0  0  0  0999 V2000
   -2.9168   -1.9473   -1.8632 C   0  0  0  0  0  0  0  0  0  0  0  0
   -4.0655   -1.5420   -1.1339 O   0  0  0  0  0  0  0  0  0  0  0  0
   -4.1149   -0.3540   -0.4214 C   0  0  0  0  0  0  0  0  0  0  0  0
   -3.0842    0.5460   -0.3678 C   0  0  0  0  0  0  0  0  0  0  0  0
   -3.1043    1.7288    0.3388 C   0  0  0  0  0  0  0  0  0  0  0  0
   -2.0392    2.5963    0.3800 C   0  0  0  0  0  0  0  0  0  0  0  0
   -0.9082    2.3486   -0.3079 O   0  0  0  0  0  0  0  0  0  0  0  0
    0.2659    1.7435    0.0396 C   0  0  0  0  0  0  0  0  0  0  0  0
    0.9807    2.0645    1.1634 C   0  0  0  0  0  0  0  0  0  0  0  0
    2.1534    1.3883    1.4226 C   0  0  0  0  0  0  0  0  0  0  0  0
    2.7034    0.3903    0.6440 C   0  0  0  0  0  0  0  0  0  0  0  0
    3.8368   -0.3217    0.7992 N   0  0  0  0  0  0  0  0  0  0  0  0
    4.9715   -1.0344    0.9549 C   0  0  0  0  0  0  0  0  0  0  0  0
    5.5133   -1.3831    2.0434 O   0  0  0  0  0  0  0  0  0  0  0  0
    5.6577   -1.4505   -0.3175 C   0  0  0  0  0  0  0  0  0  0  0  0
    6.7850   -0.7411   -0.6860 C   0  0  0  0  0  0  0  0  0  0  0  0
    7.4120    0.5438    0.3218 Cl  0  0  0  0  0  0  0  0  0  0  0  0
    7.3747   -1.1138   -1.8824 C   0  0  0  0  0  0  0  0  0  0  0  0
    6.8486   -2.1290   -2.6282 C   0  0  0  0  0  0  0  0  0  0  0  0
    5.7174   -2.8485   -2.2604 C   0  0  0  0  0  0  0  0  0  0  0  0
    5.1238   -2.4711   -1.0576 C   0  0  0  0  0  0  0  0  0  0  0  0
    3.7144   -3.3612   -0.5075 Cl  0  0  0  0  0  0  0  0  0  0  0  0
    1.9126    0.0974   -0.5210 C   0  0  0  0  0  0  0  0  0  0  0  0
    0.7634    0.7467   -0.7895 C   0  0  0  0  0  0  0  0  0  0  0  0
   -2.1620    3.7213    1.1266 N   0  0  0  0  0  0  0  0  0  0  0  0
   -3.2441    4.0456    1.8237 C   0  0  0  0  0  0  0  0  0  0  0  0
   -4.3039    3.1787    1.7756 N   0  0  0  0  0  0  0  0  0  0  0  0
   -4.2597    2.0504    1.0612 C   0  0  0  0  0  0  0  0  0  0  0  0
   -5.3133    1.1701    1.0290 C   0  0  0  0  0  0  0  0  0  0  0  0
   -5.2859   -0.0412    0.3023 C   0  0  0  0  0  0  0  0  0  0  0  0
   -6.2860   -0.8943    0.2596 O   0  0  0  0  0  0  0  0  0  0  0  0
   -7.5229   -1.0802    0.7324 C   0  0  0  0  0  0  0  0  0  0  0  0
   -2.6353   -1.1162   -2.5340 H   0  0  0  0  0  0  0  0  0  0  0  0
   -3.1280   -2.8328   -2.4858 H   0  0  0  0  0  0  0  0  0  0  0  0
   -2.0475   -2.1221   -1.1522 H   0  0  0  0  0  0  0  0  0  0  0  0
   -2.2023    0.2722   -0.9538 H   0  0  0  0  0  0  0  0  0  0  0  0
    0.6420    2.8347    1.8310 H   0  0  0  0  0  0  0  0  0  0  0  0
    2.7169    1.6799    2.3175 H   0  0  0  0  0  0  0  0  0  0  0  0
    3.6414   -0.3697    2.1517 H   0  0  0  0  0  0  0  0  0  0  0  0
    8.2682   -0.5501   -2.1731 H   0  0  0  0  0  0  0  0  0  0  0  0
    7.3140   -2.4257   -3.5742 H   0  0  0  0  0  0  0  0  0  0  0  0
    5.2993   -3.6508   -2.8379 H   0  0  0  0  0  0  0  0  0  0  0  0
    2.2939   -0.6730   -1.1782 H   0  0  0  0  0  0  0  0  0  0  0  0
    0.1582    0.5176   -1.6933 H   0  0  0  0  0  0  0  0  0  0  0  0
   -3.3568    4.9512    2.4374 H   0  0  0  0  0  0  0  0  0  0  0  0
   -6.2452    1.3765    1.5848 H   0  0  0  0  0  0  0  0  0  0  0  0
   -8.0235   -0.2185    1.2394 H   0  0  0  0  0  0  0  0  0  0  0  0
   -7.5963   -1.9480    1.4701 H   0  0  0  0  0  0  0  0  0  0  0  0
   -8.2225   -1.3722   -0.1217 H   0  0  0  0  0  0  0  0  0  0  0  0
  1  2  1  0
  2  3  1  0
  3  4  2  0
  4  5  1  0
  5  6  2  0
  6  7  1  0
  7  8  1  0
  8  9  2  0
  9 10  1  0
 10 11  2  0
 11 12  1  0
 12 13  1  0
 13 14  2  0
 13 15  1  0
 15 16  2  0
 16 17  1  0
 16 18  1  0
 18 19  2  0
 19 20  1  0
 20 21  2  0
 21 22  1  0
 11 23  1  0
 23 24  2  0
  6 25  1  0
 25 26  2  0
 26 27  1  0
 27 28  2  0
 28 29  1  0
 29 30  2  0
 30 31  1  0
 31 32  1  0
 30  3  1  0
 28  5  1  0
 24  8  1  0
 21 15  1  0
  1 33  1  0
  1 34  1  0
  1 35  1  0
  4 36  1  0
  9 37  1  0
 10 38  1  0
 12 39  1  0
 18 40  1  0
 19 41  1  0
 20 42  1  0
 23 43  1  0
 24 44  1  0
 26 45  1  0
 29 46  1  0
 32 47  1  0
 32 48  1  0
 32 49  1  0
M  END
$$$$
[H]OC(=O)C([H])([H])[C@@]([H])(C(=O)C([H])([H])SC([H])([H])c1c([H])c([H])c([H])c([H])c1[H])N([H])C(=O)[C@@]([H])(N([H])C(=O)N([H])c1c([H])c([H])c(F)c([H])c1[H])C([H])([H])c1c([H])c([H])c(OC([H])([H])[H])c([H])c1C([H])([H])[H]
     RDKit          3D

 73 75  0  0  0  0  0  0  0  0999 V2000
   -7.9205   -2.1440    2.1241 C   0  0  0  0  0  0  0  0  0  0  0  0
   -6.7426   -2.7123    2.6679 O   0  0  0  0  0  0  0  0  0  0  0  0
   -5.5567   -2.5203    1.9769 C   0  0  0  0  0  0  0  0  0  0  0  0
   -4.4013   -3.0694    2.4986 C   0  0  0  0  0  0  0  0  0  0  0  0
   -3.2217   -2.9046    1.8557 C   0  0  0  0  0  0  0  0  0  0  0  0
   -3.1280   -2.1773    0.6445 C   0  0  0  0  0  0  0  0  0  0  0  0
   -1.7851   -2.0075    0.0734 C   0  0  0  0  0  0  0  0  0  0  0  0
   -1.0173   -0.8245    0.4816 C   0  0  2  0  0  0  0  0  0  0  0  0
   -1.5092    0.4923    0.2192 N   0  0  0  0  0  0  0  0  0  0  0  0
   -1.3253    1.5668    1.1710 C   0  0  0  0  0  0  0  0  0  0  0  0
   -0.6804    1.3109    2.2504 O   0  0  0  0  0  0  0  0  0  0  0  0
   -1.8275    2.8441    0.9294 N   0  0  0  0  0  0  0  0  0  0  0  0
   -1.6153    3.9316    1.7842 C   0  0  0  0  0  0  0  0  0  0  0  0
   -0.4037    4.0860    2.4509 C   0  0  0  0  0  0  0  0  0  0  0  0
   -0.2287    5.1416    3.3210 C   0  0  0  0  0  0  0  0  0  0  0  0
   -1.2131    6.0705    3.5727 C   0  0  0  0  0  0  0  0  0  0  0  0
   -1.0086    7.0975    4.4304 F   0  0  0  0  0  0  0  0  0  0  0  0
   -2.4047    5.9080    2.9112 C   0  0  0  0  0  0  0  0  0  0  0  0
   -2.5959    4.8508    2.0303 C   0  0  0  0  0  0  0  0  0  0  0  0
    0.3987   -0.9234    0.0098 C   0  0  0  0  0  0  0  0  0  0  0  0
    1.2035    0.0475    0.2362 O   0  0  0  0  0  0  0  0  0  0  0  0
    0.8993   -2.0288   -0.6779 N   0  0  0  0  0  0  0  0  0  0  0  0
    2.3290   -2.0566   -1.0955 C   0  0  1  0  0  0  0  0  0  0  0  0
    2.8227   -3.4360   -0.9242 C   0  0  0  0  0  0  0  0  0  0  0  0
    2.1501   -4.4653   -1.7295 C   0  0  0  0  0  0  0  0  0  0  0  0
    1.2309   -4.1260   -2.6754 O   0  0  0  0  0  0  0  0  0  0  0  0
    2.4271   -5.6681   -1.5478 O   0  0  0  0  0  0  0  0  0  0  0  0
    2.4106   -1.5048   -2.4705 C   0  0  0  0  0  0  0  0  0  0  0  0
    1.3213   -1.1895   -2.9978 O   0  0  0  0  0  0  0  0  0  0  0  0
    3.5960   -1.2824   -3.2863 C   0  0  0  0  0  0  0  0  0  0  0  0
    5.1795   -1.6656   -2.5930 S   0  0  0  0  0  0  0  0  0  0  0  0
    5.7032   -0.6550   -1.2184 C   0  0  0  0  0  0  0  0  0  0  0  0
    5.9130    0.7703   -1.5230 C   0  0  0  0  0  0  0  0  0  0  0  0
    7.0644    1.3703   -1.9052 C   0  0  0  0  0  0  0  0  0  0  0  0
    7.1510    2.7293   -2.1730 C   0  0  0  0  0  0  0  0  0  0  0  0
    6.0321    3.5105   -2.0516 C   0  0  0  0  0  0  0  0  0  0  0  0
    4.8379    2.9355   -1.6658 C   0  0  0  0  0  0  0  0  0  0  0  0
    4.7858    1.5891   -1.4051 C   0  0  0  0  0  0  0  0  0  0  0  0
   -4.2600   -1.6549    0.1528 C   0  0  0  0  0  0  0  0  0  0  0  0
   -4.3258   -0.9205   -1.1444 C   0  0  0  0  0  0  0  0  0  0  0  0
   -5.4780   -1.8214    0.8150 C   0  0  0  0  0  0  0  0  0  0  0  0
   -8.7780   -2.2354    2.8049 H   0  0  0  0  0  0  0  0  0  0  0  0
   -8.0874   -2.5967    1.1263 H   0  0  0  0  0  0  0  0  0  0  0  0
   -7.6818   -1.0565    1.9382 H   0  0  0  0  0  0  0  0  0  0  0  0
   -4.4773   -3.6321    3.4389 H   0  0  0  0  0  0  0  0  0  0  0  0
   -2.3453   -3.3526    2.3076 H   0  0  0  0  0  0  0  0  0  0  0  0
   -1.1919   -2.9581    0.3363 H   0  0  0  0  0  0  0  0  0  0  0  0
   -1.8265   -2.0514   -1.0484 H   0  0  0  0  0  0  0  0  0  0  0  0
   -0.8985   -0.8413    1.6408 H   0  0  0  0  0  0  0  0  0  0  0  0
   -1.9679    0.7318   -0.6603 H   0  0  0  0  0  0  0  0  0  0  0  0
   -2.4007    3.0060    0.0620 H   0  0  0  0  0  0  0  0  0  0  0  0
    0.3900    3.4102    2.2914 H   0  0  0  0  0  0  0  0  0  0  0  0
    0.7038    5.2904    3.8581 H   0  0  0  0  0  0  0  0  0  0  0  0
   -3.2042    6.6070    3.0751 H   0  0  0  0  0  0  0  0  0  0  0  0
   -3.5805    4.7988    1.5629 H   0  0  0  0  0  0  0  0  0  0  0  0
    0.2933   -2.8272   -0.9079 H   0  0  0  0  0  0  0  0  0  0  0  0
    2.8675   -1.3635   -0.4113 H   0  0  0  0  0  0  0  0  0  0  0  0
    3.9283   -3.5430   -0.9306 H   0  0  0  0  0  0  0  0  0  0  0  0
    2.5612   -3.7187    0.1549 H   0  0  0  0  0  0  0  0  0  0  0  0
    1.5096   -4.0327   -3.6328 H   0  0  0  0  0  0  0  0  0  0  0  0
    3.6358   -0.1789   -3.5770 H   0  0  0  0  0  0  0  0  0  0  0  0
    3.4357   -1.7762   -4.2921 H   0  0  0  0  0  0  0  0  0  0  0  0
    5.1195   -0.7986   -0.3096 H   0  0  0  0  0  0  0  0  0  0  0  0
    6.7545   -1.0335   -0.9534 H   0  0  0  0  0  0  0  0  0  0  0  0
    7.9439    0.7542   -1.9989 H   0  0  0  0  0  0  0  0  0  0  0  0
    8.0988    3.1460   -2.4719 H   0  0  0  0  0  0  0  0  0  0  0  0
    6.0853    4.5783   -2.2584 H   0  0  0  0  0  0  0  0  0  0  0  0
    3.9918    3.5903   -1.5941 H   0  0  0  0  0  0  0  0  0  0  0  0
    3.8310    1.1513   -1.1020 H   0  0  0  0  0  0  0  0  0  0  0  0
   -4.6000    0.1359   -0.8713 H   0  0  0  0  0  0  0  0  0  0  0  0
   -3.3776   -0.9797   -1.7046 H   0  0  0  0  0  0  0  0  0  0  0  0
   -5.1658   -1.3307   -1.7864 H   0  0  0  0  0  0  0  0  0  0  0  0
   -6.3733   -1.3877    0.3909 H   0  0  0  0  0  0  0  0  0  0  0  0
  1  2  1  0
  2  3  1  0
  3  4  2  0
  4  5  1  0
  5  6  2  0
  6  7  1  0
  7  8  1  0
  8  9  1  0
  9 10  1  0
 10 11  2  0
 10 12  1  0
 12 13  1  0
 13 14  2  0
 14 15  1  0
 15 16  2  0
 16 17  1  0
 16 18  1  0
 18 19  2  0
  8 20  1  0
 20 21  2  0
 20 22  1  0
 22 23  1  0
 23 24  1  0
 24 25  1  0
 25 26  1  0
 25 27  2  0
 23 28  1  0
 28 29  2  0
 28 30  1  0
 30 31  1  0
 31 32  1  0
 32 33  1  0
 33 34  2  0
 34 35  1  0
 35 36  2  0
 36 37  1  0
 37 38  2  0
  6 39  1  0
 39 40  1  0
 39 41  2  0
 41  3  1  0
 19 13  1  0
 38 33  1  0
  1 42  1  0
  1 43  1  0
  1 44  1  0
  4 45  1  0
  5 46  1  0
  7 47  1  0
  7 48  1  0
  8 49  1  1
  9 50  1  0
 12 51  1  0
 14 52  1  0
 15 53  1  0
 18 54  1  0
 19 55  1  0
 22 56  1  0
 23 57  1  1
 24 58  1  0
 24 59  1  0
 26 60  1  0
 30 61  1  0
 30 62  1  0
 32 63  1  0
 32 64  1  0
 34 65  1  0
 35 66  1  0
 36 67  1  0
 37 68  1  0
 38 69  1  0
 40 70  1  0
 40 71  1  0
 40 72  1  0
 41 73  1  0
M  END
$$$$
[H]c1c([H])c([H])c(C([H])([H])N([H])C(=O)[C@]([H])(N([H])C(=O)[C@@]2([H])N(C(=O)c3c([H])c([H])c(C(F)(F)F)c([H])c3[H])C([H])([H])C([H])([H])C2([H])[H])C([H])([H])C([H])(C([H])([H])[H])C([H])([H])[H])c([H])c1[H]
     RDKit          3D

 65 67  0  0  0  0  0  0  0  0999 V2000
    2.3988   -3.4097    0.6619 C   0  0  0  0  0  0  0  0  0  0  0  0
    2.7716   -2.0285    1.1502 C   0  0  0  0  0  0  0  0  0  0  0  0
    4.2118   -1.7329    0.8867 C   0  0  0  0  0  0  0  0  0  0  0  0
    1.7485   -1.0479    0.7709 C   0  0  0  0  0  0  0  0  0  0  0  0
    1.4289   -0.8525   -0.6584 C   0  0  1  0  0  0  0  0  0  0  0  0
    0.3287    0.1126   -0.7770 N   0  0  0  0  0  0  0  0  0  0  0  0
   -1.0248   -0.0310   -0.9386 C   0  0  0  0  0  0  0  0  0  0  0  0
   -1.5908   -1.1424   -1.0268 O   0  0  0  0  0  0  0  0  0  0  0  0
   -1.8781    1.1918   -0.9997 C   0  0  2  0  0  0  0  0  0  0  0  0
   -1.3592    2.3447   -0.2280 C   0  0  0  0  0  0  0  0  0  0  0  0
   -1.6055    1.8570    1.1941 C   0  0  0  0  0  0  0  0  0  0  0  0
   -2.9897    1.2807    1.0449 C   0  0  0  0  0  0  0  0  0  0  0  0
   -3.1893    0.9310   -0.3417 N   0  0  0  0  0  0  0  0  0  0  0  0
   -4.2673    0.4313   -1.0901 C   0  0  0  0  0  0  0  0  0  0  0  0
   -4.0713    0.2280   -2.3444 O   0  0  0  0  0  0  0  0  0  0  0  0
   -5.5907    0.1151   -0.6110 C   0  0  0  0  0  0  0  0  0  0  0  0
   -6.5717   -0.3106   -1.5253 C   0  0  0  0  0  0  0  0  0  0  0  0
   -7.8477   -0.6350   -1.1568 C   0  0  0  0  0  0  0  0  0  0  0  0
   -8.2620   -0.5627    0.1507 C   0  0  0  0  0  0  0  0  0  0  0  0
   -7.3335   -0.1512    1.0661 C   0  0  0  0  0  0  0  0  0  0  0  0
   -6.0175    0.1843    0.6883 C   0  0  0  0  0  0  0  0  0  0  0  0
   -9.6729   -0.8778    0.5398 C   0  0  0  0  0  0  0  0  0  0  0  0
  -10.2989   -1.4724   -0.5456 F   0  0  0  0  0  0  0  0  0  0  0  0
   -9.7310   -1.5958    1.6796 F   0  0  0  0  0  0  0  0  0  0  0  0
  -10.3336    0.3697    0.7118 F   0  0  0  0  0  0  0  0  0  0  0  0
    2.5252   -0.2369   -1.4488 C   0  0  0  0  0  0  0  0  0  0  0  0
    2.7880   -0.5648   -2.6215 O   0  0  0  0  0  0  0  0  0  0  0  0
    3.2564    0.7964   -0.8039 N   0  0  0  0  0  0  0  0  0  0  0  0
    4.3136    1.5976   -1.3442 C   0  0  0  0  0  0  0  0  0  0  0  0
    5.6877    1.1358   -1.2000 C   0  0  0  0  0  0  0  0  0  0  0  0
    6.2688    0.2184   -2.0521 C   0  0  0  0  0  0  0  0  0  0  0  0
    7.6048   -0.1518   -1.9106 C   0  0  0  0  0  0  0  0  0  0  0  0
    8.3548    0.4026   -0.8986 C   0  0  0  0  0  0  0  0  0  0  0  0
    7.8100    1.3129   -0.0249 C   0  0  0  0  0  0  0  0  0  0  0  0
    6.4928    1.6778   -0.1702 C   0  0  0  0  0  0  0  0  0  0  0  0
    2.6043   -4.1406    1.4286 H   0  0  0  0  0  0  0  0  0  0  0  0
    1.2918   -3.3963    0.4534 H   0  0  0  0  0  0  0  0  0  0  0  0
    2.9634   -3.5879   -0.3061 H   0  0  0  0  0  0  0  0  0  0  0  0
    2.7095   -2.1103    2.2947 H   0  0  0  0  0  0  0  0  0  0  0  0
    4.8429   -2.6088    1.2566 H   0  0  0  0  0  0  0  0  0  0  0  0
    4.3783   -1.7793   -0.2389 H   0  0  0  0  0  0  0  0  0  0  0  0
    4.6182   -0.8314    1.3640 H   0  0  0  0  0  0  0  0  0  0  0  0
    0.7826   -1.3897    1.3192 H   0  0  0  0  0  0  0  0  0  0  0  0
    1.9487   -0.1047    1.3286 H   0  0  0  0  0  0  0  0  0  0  0  0
    1.1292   -1.8182   -1.1351 H   0  0  0  0  0  0  0  0  0  0  0  0
    0.7026    1.1280   -0.7372 H   0  0  0  0  0  0  0  0  0  0  0  0
   -1.9999    1.4296   -2.0669 H   0  0  0  0  0  0  0  0  0  0  0  0
   -0.3280    2.6543   -0.3368 H   0  0  0  0  0  0  0  0  0  0  0  0
   -2.0521    3.2070   -0.4262 H   0  0  0  0  0  0  0  0  0  0  0  0
   -1.5149    2.6540    1.9314 H   0  0  0  0  0  0  0  0  0  0  0  0
   -0.8366    1.0783    1.3771 H   0  0  0  0  0  0  0  0  0  0  0  0
   -3.6911    2.1043    1.3421 H   0  0  0  0  0  0  0  0  0  0  0  0
   -3.0274    0.4144    1.7451 H   0  0  0  0  0  0  0  0  0  0  0  0
   -6.2729   -0.3927   -2.5830 H   0  0  0  0  0  0  0  0  0  0  0  0
   -8.5957   -0.9533   -1.8780 H   0  0  0  0  0  0  0  0  0  0  0  0
   -7.6308   -0.0830    2.0877 H   0  0  0  0  0  0  0  0  0  0  0  0
   -5.3503    0.4837    1.4641 H   0  0  0  0  0  0  0  0  0  0  0  0
    3.0119    1.0813    0.2109 H   0  0  0  0  0  0  0  0  0  0  0  0
    4.2301    2.6518   -0.9088 H   0  0  0  0  0  0  0  0  0  0  0  0
    4.1366    1.8150   -2.4383 H   0  0  0  0  0  0  0  0  0  0  0  0
    5.7226   -0.2421   -2.8587 H   0  0  0  0  0  0  0  0  0  0  0  0
    8.0752   -0.8726   -2.5811 H   0  0  0  0  0  0  0  0  0  0  0  0
    9.4127    0.0992   -0.7814 H   0  0  0  0  0  0  0  0  0  0  0  0
    8.3925    1.7347    0.7811 H   0  0  0  0  0  0  0  0  0  0  0  0
    5.9917    2.3914    0.4871 H   0  0  0  0  0  0  0  0  0  0  0  0
  1  2  1  0
  2  3  1  0
  2  4  1  0
  4  5  1  0
  5  6  1  0
  6  7  1  0
  7  8  2  0
  7  9  1  0
  9 10  1  0
 10 11  1  0
 11 12  1  0
 12 13  1  0
 13 14  1  0
 14 15  2  0
 14 16  1  0
 16 17  2  0
 17 18  1  0
 18 19  2  0
 19 20  1  0
 20 21  2  0
 19 22  1  0
 22 23  1  0
 22 24  1  0
 22 25  1  0
  5 26  1  0
 26 27  2  0
 26 28  1  0
 28 29  1  0
 29 30  1  0
 30 31  2  0
 31 32  1  0
 32 33  2  0
 33 34  1  0
 34 35  2  0
 13  9  1  0
 21 16  1  0
 35 30  1  0
  1 36  1  0
  1 37  1  0
  1 38  1  0
  2 39  1  0
  3 40  1  0
  3 41  1  0
  3 42  1  0
  4 43  1  0
  4 44  1  0
  5 45  1  6
  6 46  1  0
  9 47  1  6
 10 48  1  0
 10 49  1  0
 11 50  1  0
 11 51  1  0
 12 52  1  0
 12 53  1  0
 17 54  1  0
 18 55  1  0
 20 56  1  0
 21 57  1  0
 28 58  1  0
 29 59  1  0
 29 60  1  0
 31 61  1  0
 32 62  1  0
 33 63  1  0
 34 64  1  0
 35 65  1  0
M  END
$$$$
[H]c1nc(N([H])c2c([H])c([H])c(N3C([H])([H])C([H])([H])C([H])(N4C([H])([H])C([H])([H])N(C([H])([H])[H])C([H])([H])C4([H])[H])C([H])([H])C3([H])[H])c([H])c2OC([H])([H])[H])nc(N([H])c2c([H])c([H])c([H])c([H])c2S(=O)(=O)C([H])(C([H])([H])[H])C([H])([H])[H])c1Cl
     RDKit          3D

 82 86  0  0  0  0  0  0  0  0999 V2000
   -0.1870    3.7228   -1.2569 C   0  0  0  0  0  0  0  0  0  0  0  0
    0.4390    2.5297   -0.8437 O   0  0  0  0  0  0  0  0  0  0  0  0
   -0.3483    1.4775   -0.4024 C   0  0  0  0  0  0  0  0  0  0  0  0
   -1.7220    1.6350   -0.3827 C   0  0  0  0  0  0  0  0  0  0  0  0
   -2.5624    0.6308    0.0436 C   0  0  0  0  0  0  0  0  0  0  0  0
   -1.9599   -0.5357    0.4478 C   0  0  0  0  0  0  0  0  0  0  0  0
   -0.5748   -0.7280    0.4408 C   0  0  0  0  0  0  0  0  0  0  0  0
    0.2576    0.2764    0.0150 C   0  0  0  0  0  0  0  0  0  0  0  0
    1.6540    0.2011   -0.0367 N   0  0  0  0  0  0  0  0  0  0  0  0
    2.4984   -0.8842    0.3177 C   0  0  0  0  0  0  0  0  0  0  0  0
    2.1033   -2.0726    0.7812 N   0  0  0  0  0  0  0  0  0  0  0  0
    2.9559   -3.0558    1.0957 C   0  0  0  0  0  0  0  0  0  0  0  0
    4.3092   -2.8632    0.9451 C   0  0  0  0  0  0  0  0  0  0  0  0
    5.4455   -4.1449    1.3534 Cl  0  0  0  0  0  0  0  0  0  0  0  0
    4.7527   -1.6166    0.4572 C   0  0  0  0  0  0  0  0  0  0  0  0
    6.1380   -1.4466    0.3110 N   0  0  0  0  0  0  0  0  0  0  0  0
    6.9009   -0.3576   -0.1368 C   0  0  0  0  0  0  0  0  0  0  0  0
    6.2766    0.8084   -0.5266 C   0  0  0  0  0  0  0  0  0  0  0  0
    7.0240    1.9039   -0.9778 C   0  0  0  0  0  0  0  0  0  0  0  0
    8.3820    1.8034   -1.0274 C   0  0  0  0  0  0  0  0  0  0  0  0
    9.0024    0.6381   -0.6374 C   0  0  0  0  0  0  0  0  0  0  0  0
    8.2961   -0.4485   -0.1920 C   0  0  0  0  0  0  0  0  0  0  0  0
    9.0842   -1.8926    0.2913 S   0  0  0  0  0  0  0  0  0  0  0  0
    8.6633   -3.0312   -0.6035 O   0  0  0  0  0  0  0  0  0  0  0  0
    8.8235   -2.3045    1.7132 O   0  0  0  0  0  0  0  0  0  0  0  0
   10.8572   -1.7881    0.1370 C   0  0  0  0  0  0  0  0  0  0  0  0
   11.2609   -1.6791   -1.2975 C   0  0  0  0  0  0  0  0  0  0  0  0
   11.4760   -0.7869    1.0544 C   0  0  0  0  0  0  0  0  0  0  0  0
    3.8248   -0.7008    0.1721 N   0  0  0  0  0  0  0  0  0  0  0  0
   -3.9818    0.8060    0.0512 N   0  0  0  0  0  0  0  0  0  0  0  0
   -4.5241    1.9609   -0.5784 C   0  0  0  0  0  0  0  0  0  0  0  0
   -6.0011    1.9283   -0.8544 C   0  0  0  0  0  0  0  0  0  0  0  0
   -6.8245    1.3726    0.2584 C   0  0  0  0  0  0  0  0  0  0  0  0
   -6.0036    0.6088    1.2781 C   0  0  0  0  0  0  0  0  0  0  0  0
   -4.8657   -0.1463    0.6796 C   0  0  0  0  0  0  0  0  0  0  0  0
   -7.9560    0.6086   -0.0875 N   0  0  0  0  0  0  0  0  0  0  0  0
   -7.7905   -0.5856   -0.8057 C   0  0  0  0  0  0  0  0  0  0  0  0
   -9.1362   -1.0235   -1.3907 C   0  0  0  0  0  0  0  0  0  0  0  0
  -10.1390   -0.8718   -0.3544 N   0  0  0  0  0  0  0  0  0  0  0  0
  -10.0361   -1.8235    0.7053 C   0  0  0  0  0  0  0  0  0  0  0  0
  -10.3349    0.4834    0.0484 C   0  0  0  0  0  0  0  0  0  0  0  0
   -9.1475    1.3193   -0.4248 C   0  0  0  0  0  0  0  0  0  0  0  0
    0.5375    4.4499   -1.6799 H   0  0  0  0  0  0  0  0  0  0  0  0
   -0.9481    3.5330   -2.0530 H   0  0  0  0  0  0  0  0  0  0  0  0
   -0.6880    4.2523   -0.4156 H   0  0  0  0  0  0  0  0  0  0  0  0
   -2.1476    2.5764   -0.7105 H   0  0  0  0  0  0  0  0  0  0  0  0
   -2.6020   -1.3517    0.7883 H   0  0  0  0  0  0  0  0  0  0  0  0
   -0.2121   -1.6859    0.7807 H   0  0  0  0  0  0  0  0  0  0  0  0
    2.1500    1.0935   -0.3956 H   0  0  0  0  0  0  0  0  0  0  0  0
    2.6174   -4.0222    1.4737 H   0  0  0  0  0  0  0  0  0  0  0  0
    6.7215   -2.3022    0.5911 H   0  0  0  0  0  0  0  0  0  0  0  0
    5.2202    0.9989   -0.5296 H   0  0  0  0  0  0  0  0  0  0  0  0
    6.5603    2.8305   -1.2896 H   0  0  0  0  0  0  0  0  0  0  0  0
    9.0220    2.6252   -1.3712 H   0  0  0  0  0  0  0  0  0  0  0  0
   10.0936    0.6299   -0.7052 H   0  0  0  0  0  0  0  0  0  0  0  0
   11.2252   -2.8031    0.4806 H   0  0  0  0  0  0  0  0  0  0  0  0
   11.9033   -0.7785   -1.4926 H   0  0  0  0  0  0  0  0  0  0  0  0
   10.3307   -1.5514   -1.9199 H   0  0  0  0  0  0  0  0  0  0  0  0
   11.7765   -2.5763   -1.6995 H   0  0  0  0  0  0  0  0  0  0  0  0
   12.0225   -1.2557    1.8769 H   0  0  0  0  0  0  0  0  0  0  0  0
   12.1781   -0.1622    0.4319 H   0  0  0  0  0  0  0  0  0  0  0  0
   10.7434   -0.0899    1.5079 H   0  0  0  0  0  0  0  0  0  0  0  0
   -4.2803    2.8410    0.0525 H   0  0  0  0  0  0  0  0  0  0  0  0
   -3.9354    2.1199   -1.5269 H   0  0  0  0  0  0  0  0  0  0  0  0
   -6.3084    2.9635   -1.1164 H   0  0  0  0  0  0  0  0  0  0  0  0
   -6.1470    1.3325   -1.7818 H   0  0  0  0  0  0  0  0  0  0  0  0
   -7.2139    2.2642    0.8421 H   0  0  0  0  0  0  0  0  0  0  0  0
   -6.6586   -0.1075    1.8153 H   0  0  0  0  0  0  0  0  0  0  0  0
   -5.5929    1.2907    2.0626 H   0  0  0  0  0  0  0  0  0  0  0  0
   -5.1731   -0.8869   -0.0780 H   0  0  0  0  0  0  0  0  0  0  0  0
   -4.3121   -0.6097    1.5260 H   0  0  0  0  0  0  0  0  0  0  0  0
   -7.5080   -1.4012   -0.0997 H   0  0  0  0  0  0  0  0  0  0  0  0
   -7.0082   -0.5774   -1.5870 H   0  0  0  0  0  0  0  0  0  0  0  0
   -9.4445   -0.3742   -2.2343 H   0  0  0  0  0  0  0  0  0  0  0  0
   -9.0261   -2.0597   -1.7202 H   0  0  0  0  0  0  0  0  0  0  0  0
   -9.1822   -2.5377    0.5321 H   0  0  0  0  0  0  0  0  0  0  0  0
   -9.9814   -1.3564    1.7041 H   0  0  0  0  0  0  0  0  0  0  0  0
  -10.9456   -2.4645    0.6802 H   0  0  0  0  0  0  0  0  0  0  0  0
  -11.2261    0.8855   -0.4545 H   0  0  0  0  0  0  0  0  0  0  0  0
  -10.4517    0.5517    1.1515 H   0  0  0  0  0  0  0  0  0  0  0  0
   -9.2778    1.5186   -1.4917 H   0  0  0  0  0  0  0  0  0  0  0  0
   -9.1611    2.2698    0.1783 H   0  0  0  0  0  0  0  0  0  0  0  0
  1  2  1  0
  2  3  1  0
  3  4  2  0
  4  5  1  0
  5  6  2  0
  6  7  1  0
  7  8  2  0
  8  9  1  0
  9 10  1  0
 10 11  2  0
 11 12  1  0
 12 13  2  0
 13 14  1  0
 13 15  1  0
 15 16  1  0
 16 17  1  0
 17 18  2  0
 18 19  1  0
 19 20  2  0
 20 21  1  0
 21 22  2  0
 22 23  1  0
 23 24  2  0
 23 25  2  0
 23 26  1  0
 26 27  1  0
 26 28  1  0
 15 29  2  0
  5 30  1  0
 30 31  1  0
 31 32  1  0
 32 33  1  0
 33 34  1  0
 34 35  1  0
 33 36  1  0
 36 37  1  0
 37 38  1  0
 38 39  1  0
 39 40  1  0
 39 41  1  0
 41 42  1  0
  8  3  1  0
 29 10  1  0
 35 30  1  0
 42 36  1  0
 22 17  1  0
  1 43  1  0
  1 44  1  0
  1 45  1  0
  4 46  1  0
  6 47  1  0
  7 48  1  0
  9 49  1  0
 12 50  1  0
 16 51  1  0
 18 52  1  0
 19 53  1  0
 20 54  1  0
 21 55  1  0
 26 56  1  0
 27 57  1  0
 27 58  1  0
 27 59  1  0
 28 60  1  0
 28 61  1  0
 28 62  1  0
 31 63  1  0
 31 64  1  0
 32 65  1  0
 32 66  1  0
 33 67  1  0
 34 68  1  0
 34 69  1  0
 35 70  1  0
 35 71  1  0
 37 72  1  0
 37 73  1  0
 38 74  1  0
 38 75  1  0
 40 76  1  0
 40 77  1  0
 40 78  1  0
 41 79  1  0
 41 80  1  0
 42 81  1  0
 42 82  1  0
M  END
$$$$
[H]c1nc(OC2([H])C([H])([H])C([H])([H])N(C(=O)N([H])[C@@]3([H])C([H])([H])[C@]3([H])c3c([H])c([H])c([H])c([H])c3[H])C([H])([H])C2([H])[H])c([H])c([H])c1[H]
     RDKit          3D

 48 51  0  0  0  0  0  0  0  0999 V2000
   -1.3055    0.2584   -2.0613 O   0  0  0  0  0  0  0  0  0  0  0  0
   -0.8146    0.0944   -0.8903 C   0  0  0  0  0  0  0  0  0  0  0  0
   -1.6655   -0.4297    0.1184 N   0  0  0  0  0  0  0  0  0  0  0  0
   -3.0318   -0.7497   -0.2159 C   0  0  1  0  0  0  0  0  0  0  0  0
   -3.5391   -2.0210    0.4571 C   0  0  0  0  0  0  0  0  0  0  0  0
   -4.1037   -0.6655    0.8056 C   0  0  2  0  0  0  0  0  0  0  0  0
   -5.4869   -0.4437    0.3112 C   0  0  0  0  0  0  0  0  0  0  0  0
   -5.8647   -0.9582   -0.9112 C   0  0  0  0  0  0  0  0  0  0  0  0
   -7.1587   -0.7305   -1.3387 C   0  0  0  0  0  0  0  0  0  0  0  0
   -8.0372   -0.0079   -0.5555 C   0  0  0  0  0  0  0  0  0  0  0  0
   -7.6739    0.5141    0.6719 C   0  0  0  0  0  0  0  0  0  0  0  0
   -6.3732    0.2762    1.0843 C   0  0  0  0  0  0  0  0  0  0  0  0
    0.5353    0.4410   -0.6682 N   0  0  0  0  0  0  0  0  0  0  0  0
    1.1147    0.2727    0.6336 C   0  0  0  0  0  0  0  0  0  0  0  0
    2.3019    1.2345    0.7277 C   0  0  0  0  0  0  0  0  0  0  0  0
    3.3381    0.8487   -0.2957 C   0  0  0  0  0  0  0  0  0  0  0  0
    2.7427    0.3720   -1.5856 C   0  0  0  0  0  0  0  0  0  0  0  0
    1.3525    0.9630   -1.7307 C   0  0  0  0  0  0  0  0  0  0  0  0
    4.1873   -0.1357    0.2769 O   0  0  0  0  0  0  0  0  0  0  0  0
    5.5402    0.0467    0.4665 C   0  0  0  0  0  0  0  0  0  0  0  0
    6.2766   -0.9625    1.0258 C   0  0  0  0  0  0  0  0  0  0  0  0
    7.6328   -0.8033    1.2259 C   0  0  0  0  0  0  0  0  0  0  0  0
    8.2101    0.3917    0.8472 C   0  0  0  0  0  0  0  0  0  0  0  0
    7.3993    1.3710    0.2855 C   0  0  0  0  0  0  0  0  0  0  0  0
    6.0981    1.2032    0.0998 N   0  0  0  0  0  0  0  0  0  0  0  0
   -1.3082   -0.5871    1.1059 H   0  0  0  0  0  0  0  0  0  0  0  0
   -3.3326   -0.5686   -1.2582 H   0  0  0  0  0  0  0  0  0  0  0  0
   -4.1335   -2.7024   -0.1841 H   0  0  0  0  0  0  0  0  0  0  0  0
   -2.9520   -2.4864    1.2524 H   0  0  0  0  0  0  0  0  0  0  0  0
   -3.8544   -0.2292    1.7947 H   0  0  0  0  0  0  0  0  0  0  0  0
   -5.1781   -1.5304   -1.5377 H   0  0  0  0  0  0  0  0  0  0  0  0
   -7.4659   -1.1363   -2.3087 H   0  0  0  0  0  0  0  0  0  0  0  0
   -9.0489    0.1573   -0.9152 H   0  0  0  0  0  0  0  0  0  0  0  0
   -8.3903    1.0766    1.2603 H   0  0  0  0  0  0  0  0  0  0  0  0
   -6.1055    0.6944    2.0525 H   0  0  0  0  0  0  0  0  0  0  0  0
    0.3544    0.5185    1.4026 H   0  0  0  0  0  0  0  0  0  0  0  0
    1.4733   -0.7719    0.7998 H   0  0  0  0  0  0  0  0  0  0  0  0
    1.9147    2.2295    0.4398 H   0  0  0  0  0  0  0  0  0  0  0  0
    2.7198    1.2423    1.7549 H   0  0  0  0  0  0  0  0  0  0  0  0
    4.0136    1.7223   -0.5357 H   0  0  0  0  0  0  0  0  0  0  0  0
    2.7084   -0.7494   -1.6287 H   0  0  0  0  0  0  0  0  0  0  0  0
    3.3639    0.7118   -2.4302 H   0  0  0  0  0  0  0  0  0  0  0  0
    1.4655    2.0539   -1.7204 H   0  0  0  0  0  0  0  0  0  0  0  0
    0.8913    0.6287   -2.6954 H   0  0  0  0  0  0  0  0  0  0  0  0
    5.8411   -1.9063    1.3286 H   0  0  0  0  0  0  0  0  0  0  0  0
    8.2062   -1.6110    1.6708 H   0  0  0  0  0  0  0  0  0  0  0  0
    9.2689    0.5562    0.9868 H   0  0  0  0  0  0  0  0  0  0  0  0
    7.8735    2.3074   -0.0065 H   0  0  0  0  0  0  0  0  0  0  0  0
  1  2  2  0
  2  3  1  0
  3  4  1  0
  4  5  1  0
  5  6  1  0
  6  7  1  0
  7  8  2  0
  8  9  1  0
  9 10  2  0
 10 11  1  0
 11 12  2  0
  2 13  1  0
 13 14  1  0
 14 15  1  0
 15 16  1  0
 16 17  1  0
 17 18  1  0
 16 19  1  0
 19 20  1  0
 20 21  2  0
 21 22  1  0
 22 23  2  0
 23 24  1  0
 24 25  2  0
  6  4  1  0
 12  7  1  0
 18 13  1  0
 25 20  1  0
  3 26  1  0
  4 27  1  6
  5 28  1  0
  5 29  1  0
  6 30  1  1
  8 31  1  0
  9 32  1  0
 10 33  1  0
 11 34  1  0
 12 35  1  0
 14 36  1  0
 14 37  1  0
 15 38  1  0
 15 39  1  0
 16 40  1  0
 17 41  1  0
 17 42  1  0
 18 43  1  0
 18 44  1  0
 21 45  1  0
 22 46  1  0
 23 47  1  0
 24 48  1  0
M  END
$$$$
[H]O[C@@]1([H])[C@]([H])(O[H])[C@@]([H])(C([H])([H])OP(=O)(O[H])O[H])O[C@@]1([H])n1c([H])nc2c(N([H])[H])nc([H])nc21
     RDKit          3D

 37 39  0  0  0  0  0  0  0  0999 V2000
   -5.8588    1.9692    0.9076 N   0  0  0  0  0  0  0  0  0  0  0  0
   -5.0292    1.0450    0.2076 C   0  0  0  0  0  0  0  0  0  0  0  0
   -5.4868    0.3579   -0.8718 N   0  0  0  0  0  0  0  0  0  0  0  0
   -4.7103   -0.5177   -1.5397 C   0  0  0  0  0  0  0  0  0  0  0  0
   -3.4340   -0.7550   -1.1661 N   0  0  0  0  0  0  0  0  0  0  0  0
   -2.9182   -0.1040   -0.1006 C   0  0  0  0  0  0  0  0  0  0  0  0
   -1.7013   -0.1285    0.5026 N   0  0  0  0  0  0  0  0  0  0  0  0
   -1.7540    0.7319    1.5287 C   0  0  0  0  0  0  0  0  0  0  0  0
   -2.9744    1.2857    1.5716 N   0  0  0  0  0  0  0  0  0  0  0  0
   -3.7226    0.7918    0.5775 C   0  0  0  0  0  0  0  0  0  0  0  0
   -0.5762   -0.9429    0.0911 C   0  0  2  0  0  0  0  0  0  0  0  0
    0.4379   -0.8545    1.0297 O   0  0  0  0  0  0  0  0  0  0  0  0
    1.6409   -0.9796    0.3559 C   0  0  2  0  0  0  0  0  0  0  0  0
    2.7804   -0.2981    1.0652 C   0  0  0  0  0  0  0  0  0  0  0  0
    3.9272   -0.5007    0.2825 O   0  0  0  0  0  0  0  0  0  0  0  0
    5.2827    0.2212    0.9767 P   0  0  0  0  0  0  0  0  0  0  0  0
    6.4480   -0.8991    1.4383 O   0  0  0  0  0  0  0  0  0  0  0  0
    5.9760    1.2238   -0.2105 O   0  0  0  0  0  0  0  0  0  0  0  0
    4.9184    1.0413    2.1920 O   0  0  0  0  0  0  0  0  0  0  0  0
    1.4128   -0.2481   -0.9506 C   0  0  1  0  0  0  0  0  0  0  0  0
    2.2883   -0.7996   -1.8813 O   0  0  0  0  0  0  0  0  0  0  0  0
   -0.0205   -0.5760   -1.2372 C   0  0  2  0  0  0  0  0  0  0  0  0
   -0.6115    0.5501   -1.7995 O   0  0  0  0  0  0  0  0  0  0  0  0
   -5.5306    2.9503    1.0336 H   0  0  0  0  0  0  0  0  0  0  0  0
   -6.7892    1.6945    1.3004 H   0  0  0  0  0  0  0  0  0  0  0  0
   -5.1578   -1.0329   -2.4033 H   0  0  0  0  0  0  0  0  0  0  0  0
   -0.9678    0.9648    2.2229 H   0  0  0  0  0  0  0  0  0  0  0  0
   -0.8844   -2.0290    0.0662 H   0  0  0  0  0  0  0  0  0  0  0  0
    1.9329   -2.0243    0.1601 H   0  0  0  0  0  0  0  0  0  0  0  0
    2.6430    0.8135    1.0993 H   0  0  0  0  0  0  0  0  0  0  0  0
    2.9627   -0.6551    2.0777 H   0  0  0  0  0  0  0  0  0  0  0  0
    6.2421   -1.8210    1.1607 H   0  0  0  0  0  0  0  0  0  0  0  0
    6.6821    0.7198   -0.6860 H   0  0  0  0  0  0  0  0  0  0  0  0
    1.5567    0.8338   -0.8227 H   0  0  0  0  0  0  0  0  0  0  0  0
    1.8112   -0.9469   -2.7358 H   0  0  0  0  0  0  0  0  0  0  0  0
   -0.0575   -1.4418   -1.9496 H   0  0  0  0  0  0  0  0  0  0  0  0
   -0.7580    0.3604   -2.7639 H   0  0  0  0  0  0  0  0  0  0  0  0
  1  2  1  0
  2  3  2  0
  3  4  1  0
  4  5  2  0
  5  6  1  0
  6  7  1  0
  7  8  1  0
  8  9  2  0
  9 10  1  0
  7 11  1  0
 11 12  1  0
 12 13  1  0
 13 14  1  0
 14 15  1  0
 15 16  1  0
 16 17  1  0
 16 18  1  0
 16 19  2  0
 13 20  1  0
 20 21  1  0
 20 22  1  0
 22 23  1  0
 10  2  1  0
 22 11  1  0
 10  6  2  0
  1 24  1  0
  1 25  1  0
  4 26  1  0
  8 27  1  0
 11 28  1  6
 13 29  1  6
 14 30  1  0
 14 31  1  0
 17 32  1  0
 18 33  1  0
 20 34  1  1
 21 35  1  0
 22 36  1  6
 23 37  1  0
M  END
$$$$
[H]c1nc(OC2([H])C([H])([H])C([H])([H])OC([H])([H])C2([H])[H])c(N2C([H])([H])C([H])([H])OC([H])([H])C2([H])[H])c([H])c1-c1c(C([H])([H])[H])nc([H])c(N([H])C(=O)c2c([H])c([H])c([H])c(C(F)(F)F)c2[H])c1[H]
     RDKit          3D

 68 72  0  0  0  0  0  0  0  0999 V2000
    0.3697   -4.0182   -0.6627 C   0  0  0  0  0  0  0  0  0  0  0  0
    1.4442   -3.0057   -0.4670 C   0  0  0  0  0  0  0  0  0  0  0  0
    2.7363   -3.4283   -0.5480 N   0  0  0  0  0  0  0  0  0  0  0  0
    3.7953   -2.6245   -0.4165 C   0  0  0  0  0  0  0  0  0  0  0  0
    3.6484   -1.2448   -0.1796 C   0  0  0  0  0  0  0  0  0  0  0  0
    4.8033   -0.4242   -0.1014 N   0  0  0  0  0  0  0  0  0  0  0  0
    4.8977    0.9238    0.2271 C   0  0  0  0  0  0  0  0  0  0  0  0
    3.8851    1.6025    0.5287 O   0  0  0  0  0  0  0  0  0  0  0  0
    6.2095    1.6085    0.2286 C   0  0  0  0  0  0  0  0  0  0  0  0
    6.3533    2.7762    0.9664 C   0  0  0  0  0  0  0  0  0  0  0  0
    7.5543    3.4475    0.9664 C   0  0  0  0  0  0  0  0  0  0  0  0
    8.6433    2.9908    0.2430 C   0  0  0  0  0  0  0  0  0  0  0  0
    8.5095    1.8378   -0.4900 C   0  0  0  0  0  0  0  0  0  0  0  0
    7.2953    1.1760   -0.4769 C   0  0  0  0  0  0  0  0  0  0  0  0
    9.6509    1.3305   -1.2930 C   0  0  0  0  0  0  0  0  0  0  0  0
   10.6855    2.2500   -1.2351 F   0  0  0  0  0  0  0  0  0  0  0  0
   10.1243    0.1663   -0.7516 F   0  0  0  0  0  0  0  0  0  0  0  0
    9.2672    1.1848   -2.6218 F   0  0  0  0  0  0  0  0  0  0  0  0
    2.3665   -0.8140   -0.0963 C   0  0  0  0  0  0  0  0  0  0  0  0
    1.2553   -1.6814   -0.2368 C   0  0  0  0  0  0  0  0  0  0  0  0
   -0.0613   -1.0886   -0.1673 C   0  0  0  0  0  0  0  0  0  0  0  0
   -0.2633    0.1573   -0.7850 C   0  0  0  0  0  0  0  0  0  0  0  0
   -1.4603    0.7489   -0.7376 N   0  0  0  0  0  0  0  0  0  0  0  0
   -2.4999    0.1889   -0.1130 C   0  0  0  0  0  0  0  0  0  0  0  0
   -3.7532    0.8041   -0.0656 O   0  0  0  0  0  0  0  0  0  0  0  0
   -3.9928    2.0281   -0.7331 C   0  0  0  0  0  0  0  0  0  0  0  0
   -5.0218    1.6659   -1.8281 C   0  0  0  0  0  0  0  0  0  0  0  0
   -6.3144    1.3062   -1.1409 C   0  0  0  0  0  0  0  0  0  0  0  0
   -6.7895    2.3168   -0.3067 O   0  0  0  0  0  0  0  0  0  0  0  0
   -5.9815    3.4503   -0.3945 C   0  0  0  0  0  0  0  0  0  0  0  0
   -4.5848    3.1099    0.0832 C   0  0  0  0  0  0  0  0  0  0  0  0
   -2.3396   -1.0258    0.4974 C   0  0  0  0  0  0  0  0  0  0  0  0
   -1.1178   -1.6566    0.4679 C   0  0  0  0  0  0  0  0  0  0  0  0
   -3.4845   -1.6302    1.1517 N   0  0  0  0  0  0  0  0  0  0  0  0
   -3.7650   -1.2649    2.4962 C   0  0  0  0  0  0  0  0  0  0  0  0
   -4.9052   -2.0179    3.1348 C   0  0  0  0  0  0  0  0  0  0  0  0
   -4.9629   -3.3052    2.5427 O   0  0  0  0  0  0  0  0  0  0  0  0
   -5.4140   -3.0911    1.2433 C   0  0  0  0  0  0  0  0  0  0  0  0
   -4.3121   -2.5221    0.3756 C   0  0  0  0  0  0  0  0  0  0  0  0
    0.7399   -4.8409   -1.3544 H   0  0  0  0  0  0  0  0  0  0  0  0
    0.1907   -4.5634    0.2928 H   0  0  0  0  0  0  0  0  0  0  0  0
   -0.5123   -3.6290   -1.1637 H   0  0  0  0  0  0  0  0  0  0  0  0
    4.8145   -2.9901   -0.4856 H   0  0  0  0  0  0  0  0  0  0  0  0
    5.7471   -0.9019   -0.3185 H   0  0  0  0  0  0  0  0  0  0  0  0
    5.4847    3.1428    1.5390 H   0  0  0  0  0  0  0  0  0  0  0  0
    7.6892    4.3696    1.5396 H   0  0  0  0  0  0  0  0  0  0  0  0
    9.5801    3.5701    0.2830 H   0  0  0  0  0  0  0  0  0  0  0  0
    7.2243    0.2546   -1.0718 H   0  0  0  0  0  0  0  0  0  0  0  0
    2.1516    0.2273    0.0832 H   0  0  0  0  0  0  0  0  0  0  0  0
    0.5946    0.5762   -1.2848 H   0  0  0  0  0  0  0  0  0  0  0  0
   -3.0538    2.3508   -1.2214 H   0  0  0  0  0  0  0  0  0  0  0  0
   -5.1387    2.4836   -2.5355 H   0  0  0  0  0  0  0  0  0  0  0  0
   -4.6380    0.7227   -2.2750 H   0  0  0  0  0  0  0  0  0  0  0  0
   -6.1549    0.3908   -0.5243 H   0  0  0  0  0  0  0  0  0  0  0  0
   -7.0459    1.0221   -1.9333 H   0  0  0  0  0  0  0  0  0  0  0  0
   -6.0257    3.8994   -1.3924 H   0  0  0  0  0  0  0  0  0  0  0  0
   -6.3918    4.1920    0.3233 H   0  0  0  0  0  0  0  0  0  0  0  0
   -3.9954    4.0594   -0.0104 H   0  0  0  0  0  0  0  0  0  0  0  0
   -4.6727    2.8898    1.1551 H   0  0  0  0  0  0  0  0  0  0  0  0
   -1.0228   -2.6214    0.9863 H   0  0  0  0  0  0  0  0  0  0  0  0
   -2.8460   -1.4290    3.1108 H   0  0  0  0  0  0  0  0  0  0  0  0
   -3.9612   -0.1678    2.4975 H   0  0  0  0  0  0  0  0  0  0  0  0
   -5.8493   -1.5140    2.9150 H   0  0  0  0  0  0  0  0  0  0  0  0
   -4.7054   -2.0776    4.2282 H   0  0  0  0  0  0  0  0  0  0  0  0
   -5.7848   -4.0683    0.8191 H   0  0  0  0  0  0  0  0  0  0  0  0
   -6.2465   -2.3327    1.2828 H   0  0  0  0  0  0  0  0  0  0  0  0
   -3.7815   -3.3085   -0.1629 H   0  0  0  0  0  0  0  0  0  0  0  0
   -4.8612   -1.9339   -0.4273 H   0  0  0  0  0  0  0  0  0  0  0  0
  1  2  1  0
  2  3  2  0
  3  4  1  0
  4  5  2  0
  5  6  1  0
  6  7  1  0
  7  8  2  0
  7  9  1  0
  9 10  2  0
 10 11  1  0
 11 12  2  0
 12 13  1  0
 13 14  2  0
 13 15  1  0
 15 16  1  0
 15 17  1  0
 15 18  1  0
  5 19  1  0
 19 20  2  0
 20 21  1  0
 21 22  2  0
 22 23  1  0
 23 24  2  0
 24 25  1  0
 25 26  1  0
 26 27  1  0
 27 28  1  0
 28 29  1  0
 29 30  1  0
 30 31  1  0
 24 32  1  0
 32 33  2  0
 32 34  1  0
 34 35  1  0
 35 36  1  0
 36 37  1  0
 37 38  1  0
 38 39  1  0
 20  2  1  0
 33 21  1  0
 39 34  1  0
 14  9  1  0
 31 26  1  0
  1 40  1  0
  1 41  1  0
  1 42  1  0
  4 43  1  0
  6 44  1  0
 10 45  1  0
 11 46  1  0
 12 47  1  0
 14 48  1  0
 19 49  1  0
 22 50  1  0
 26 51  1  0
 27 52  1  0
 27 53  1  0
 28 54  1  0
 28 55  1  0
 30 56  1  0
 30 57  1  0
 31 58  1  0
 31 59  1  0
 33 60  1  0
 35 61  1  0
 35 62  1  0
 36 63  1  0
 36 64  1  0
 38 65  1  0
 38 66  1  0
 39 67  1  0
 39 68  1  0
M  END
$$$$
[H]c1c([H])c(C([H])([H])N(C([H])([H])C(C([H])([H])[H])(C([H])([H])[H])C([H])([H])[H])S(=O)(=O)c2c(C([H])([H])[H])c([H])c(C([H])([H])[H])c([H])c2C([H])([H])[H])c([H])c([H])c1OC([H])([H])C([H])([H])N1C([H])([H])C([H])([H])C([H])([H])C([H])([H])C1([H])[H]
     RDKit          3D

 76 78  0  0  0  0  0  0  0  0999 V2000
   -6.9483    3.9285    2.2089 C   0  0  0  0  0  0  0  0  0  0  0  0
   -5.9403    3.1069    1.4820 C   0  0  0  0  0  0  0  0  0  0  0  0
   -6.3243    2.2701    0.4844 C   0  0  0  0  0  0  0  0  0  0  0  0
   -5.3616    1.5164   -0.1742 C   0  0  0  0  0  0  0  0  0  0  0  0
   -5.8628    0.6757   -1.2909 C   0  0  0  0  0  0  0  0  0  0  0  0
   -3.9949    1.5687    0.1372 C   0  0  0  0  0  0  0  0  0  0  0  0
   -3.6234    2.4298    1.1554 C   0  0  0  0  0  0  0  0  0  0  0  0
   -2.2227    2.5874    1.5225 C   0  0  0  0  0  0  0  0  0  0  0  0
   -4.6152    3.1815    1.8064 C   0  0  0  0  0  0  0  0  0  0  0  0
   -2.8535    0.5987   -0.6861 S   0  0  0  0  0  0  0  0  0  0  0  0
   -3.4508    0.3647   -2.0859 O   0  0  0  0  0  0  0  0  0  0  0  0
   -1.6586    1.4991   -1.0446 O   0  0  0  0  0  0  0  0  0  0  0  0
   -2.3732   -0.8927   -0.1345 N   0  0  0  0  0  0  0  0  0  0  0  0
   -3.3017   -1.9291    0.0097 C   0  0  0  0  0  0  0  0  0  0  0  0
   -3.5313   -2.9899   -0.9450 C   0  0  0  0  0  0  0  0  0  0  0  0
   -4.6788   -3.8765   -0.3707 C   0  0  0  0  0  0  0  0  0  0  0  0
   -3.8598   -2.7474   -2.3514 C   0  0  0  0  0  0  0  0  0  0  0  0
   -2.3551   -4.0038   -0.9485 C   0  0  0  0  0  0  0  0  0  0  0  0
   -1.2354   -0.9796    0.7277 C   0  0  0  0  0  0  0  0  0  0  0  0
    0.0623   -0.6475    0.1724 C   0  0  0  0  0  0  0  0  0  0  0  0
    0.8497    0.3798    0.6600 C   0  0  0  0  0  0  0  0  0  0  0  0
    2.0818    0.7325    0.1652 C   0  0  0  0  0  0  0  0  0  0  0  0
    2.6007    0.0396   -0.8857 C   0  0  0  0  0  0  0  0  0  0  0  0
    3.7982    0.2840   -1.4613 O   0  0  0  0  0  0  0  0  0  0  0  0
    4.8147    1.1664   -1.2492 C   0  0  0  0  0  0  0  0  0  0  0  0
    5.5343    1.1025    0.0631 C   0  0  0  0  0  0  0  0  0  0  0  0
    6.1534   -0.1814    0.3027 N   0  0  0  0  0  0  0  0  0  0  0  0
    6.8351   -0.2361    1.5658 C   0  0  0  0  0  0  0  0  0  0  0  0
    8.0806    0.5964    1.5850 C   0  0  0  0  0  0  0  0  0  0  0  0
    9.0073    0.1289    0.5010 C   0  0  0  0  0  0  0  0  0  0  0  0
    8.2854    0.2540   -0.8241 C   0  0  0  0  0  0  0  0  0  0  0  0
    7.0468   -0.6175   -0.7241 C   0  0  0  0  0  0  0  0  0  0  0  0
    1.8395   -1.0132   -1.4174 C   0  0  0  0  0  0  0  0  0  0  0  0
    0.5986   -1.3356   -0.8865 C   0  0  0  0  0  0  0  0  0  0  0  0
   -7.2966    3.3567    3.0820 H   0  0  0  0  0  0  0  0  0  0  0  0
   -7.7793    4.1351    1.4864 H   0  0  0  0  0  0  0  0  0  0  0  0
   -6.5176    4.8766    2.5600 H   0  0  0  0  0  0  0  0  0  0  0  0
   -7.3727    2.1845    0.1969 H   0  0  0  0  0  0  0  0  0  0  0  0
   -5.6826    1.1724   -2.2951 H   0  0  0  0  0  0  0  0  0  0  0  0
   -5.5964   -0.3748   -1.2568 H   0  0  0  0  0  0  0  0  0  0  0  0
   -7.0060    0.6548   -1.2749 H   0  0  0  0  0  0  0  0  0  0  0  0
   -1.5725    3.0442    0.7148 H   0  0  0  0  0  0  0  0  0  0  0  0
   -1.7488    1.7860    2.0785 H   0  0  0  0  0  0  0  0  0  0  0  0
   -2.1870    3.4543    2.2879 H   0  0  0  0  0  0  0  0  0  0  0  0
   -4.2800    3.8458    2.6040 H   0  0  0  0  0  0  0  0  0  0  0  0
   -3.0083   -2.4401    1.0075 H   0  0  0  0  0  0  0  0  0  0  0  0
   -4.2808   -1.4613    0.3463 H   0  0  0  0  0  0  0  0  0  0  0  0
   -4.6973   -3.7895    0.7349 H   0  0  0  0  0  0  0  0  0  0  0  0
   -5.6594   -3.4871   -0.7393 H   0  0  0  0  0  0  0  0  0  0  0  0
   -4.5892   -4.9024   -0.7212 H   0  0  0  0  0  0  0  0  0  0  0  0
   -4.7729   -2.1558   -2.5502 H   0  0  0  0  0  0  0  0  0  0  0  0
   -3.0589   -2.3256   -2.9836 H   0  0  0  0  0  0  0  0  0  0  0  0
   -4.0942   -3.7332   -2.8768 H   0  0  0  0  0  0  0  0  0  0  0  0
   -2.7264   -5.0324   -1.1593 H   0  0  0  0  0  0  0  0  0  0  0  0
   -1.6180   -3.7707   -1.7112 H   0  0  0  0  0  0  0  0  0  0  0  0
   -1.8965   -4.0530    0.0488 H   0  0  0  0  0  0  0  0  0  0  0  0
   -1.4024   -0.4170    1.6529 H   0  0  0  0  0  0  0  0  0  0  0  0
   -1.2018   -2.0580    1.1304 H   0  0  0  0  0  0  0  0  0  0  0  0
    0.4647    0.9477    1.4945 H   0  0  0  0  0  0  0  0  0  0  0  0
    2.6357    1.5759    0.6107 H   0  0  0  0  0  0  0  0  0  0  0  0
    4.5396    2.2414   -1.4190 H   0  0  0  0  0  0  0  0  0  0  0  0
    5.5918    0.9852   -2.0574 H   0  0  0  0  0  0  0  0  0  0  0  0
    6.3510    1.8762    0.0778 H   0  0  0  0  0  0  0  0  0  0  0  0
    4.9052    1.3409    0.9280 H   0  0  0  0  0  0  0  0  0  0  0  0
    7.1471   -1.3002    1.7180 H   0  0  0  0  0  0  0  0  0  0  0  0
    6.1212    0.0728    2.3717 H   0  0  0  0  0  0  0  0  0  0  0  0
    8.5724    0.4595    2.5915 H   0  0  0  0  0  0  0  0  0  0  0  0
    7.8718    1.6709    1.4073 H   0  0  0  0  0  0  0  0  0  0  0  0
    9.1880   -0.9682    0.6763 H   0  0  0  0  0  0  0  0  0  0  0  0
    9.9816    0.6257    0.4962 H   0  0  0  0  0  0  0  0  0  0  0  0
    8.0616    1.2984   -1.0591 H   0  0  0  0  0  0  0  0  0  0  0  0
    8.9272   -0.1884   -1.5967 H   0  0  0  0  0  0  0  0  0  0  0  0
    6.5282   -0.7667   -1.6732 H   0  0  0  0  0  0  0  0  0  0  0  0
    7.4300   -1.6237   -0.3930 H   0  0  0  0  0  0  0  0  0  0  0  0
    2.2509   -1.5620   -2.2505 H   0  0  0  0  0  0  0  0  0  0  0  0
    0.0806   -2.1562   -1.3555 H   0  0  0  0  0  0  0  0  0  0  0  0
  1  2  1  0
  2  3  2  0
  3  4  1  0
  4  5  1  0
  4  6  2  0
  6  7  1  0
  7  8  1  0
  7  9  2  0
  6 10  1  0
 10 11  2  0
 10 12  2  0
 10 13  1  0
 13 14  1  0
 14 15  1  0
 15 16  1  0
 15 17  1  0
 15 18  1  0
 13 19  1  0
 19 20  1  0
 20 21  2  0
 21 22  1  0
 22 23  2  0
 23 24  1  0
 24 25  1  0
 25 26  1  0
 26 27  1  0
 27 28  1  0
 28 29  1  0
 29 30  1  0
 30 31  1  0
 31 32  1  0
 23 33  1  0
 33 34  2  0
  9  2  1  0
 34 20  1  0
 32 27  1  0
  1 35  1  0
  1 36  1  0
  1 37  1  0
  3 38  1  0
  5 39  1  0
  5 40  1  0
  5 41  1  0
  8 42  1  0
  8 43  1  0
  8 44  1  0
  9 45  1  0
 14 46  1  0
 14 47  1  0
 16 48  1  0
 16 49  1  0
 16 50  1  0
 17 51  1  0
 17 52  1  0
 17 53  1  0
 18 54  1  0
 18 55  1  0
 18 56  1  0
 19 57  1  0
 19 58  1  0
 21 59  1  0
 22 60  1  0
 25 61  1  0
 25 62  1  0
 26 63  1  0
 26 64  1  0
 28 65  1  0
 28 66  1  0
 29 67  1  0
 29 68  1  0
 30 69  1  0
 30 70  1  0
 31 71  1  0
 31 72  1  0
 32 73  1  0
 32 74  1  0
 33 75  1  0
 34 76  1  0
M  END
$$$$
[H]OC(=O)c1c([H])c([H])c([C@]([H])(N([H])C(=O)c2c([H])c([H])c(C(C([H])([H])[H])(C([H])([H])[H])C([H])([H])[H])c([H])c2[H])C([H])([H])[H])c([H])c1[H]
     RDKit          3D

 47 48  0  0  0  0  0  0  0  0999 V2000
    3.0813   -1.0366    2.2987 C   0  0  0  0  0  0  0  0  0  0  0  0
    2.7350   -1.1522    0.8062 C   0  0  1  0  0  0  0  0  0  0  0  0
    1.4214   -0.5510    0.6240 N   0  0  0  0  0  0  0  0  0  0  0  0
    0.3014   -1.4167    0.3524 C   0  0  0  0  0  0  0  0  0  0  0  0
    0.5095   -2.6627    0.2578 O   0  0  0  0  0  0  0  0  0  0  0  0
   -1.0356   -0.9077    0.1960 C   0  0  0  0  0  0  0  0  0  0  0  0
   -1.3878    0.3837   -0.0715 C   0  0  0  0  0  0  0  0  0  0  0  0
   -2.7279    0.7900   -0.1660 C   0  0  0  0  0  0  0  0  0  0  0  0
   -3.7388   -0.1175    0.0118 C   0  0  0  0  0  0  0  0  0  0  0  0
   -3.3777   -1.4248    0.2801 C   0  0  0  0  0  0  0  0  0  0  0  0
   -2.0802   -1.8192    0.3721 C   0  0  0  0  0  0  0  0  0  0  0  0
   -5.1585    0.2701   -0.0590 C   0  0  0  0  0  0  0  0  0  0  0  0
   -5.5911    0.7140   -1.4143 C   0  0  0  0  0  0  0  0  0  0  0  0
   -5.3760    1.4125    0.9372 C   0  0  0  0  0  0  0  0  0  0  0  0
   -6.0850   -0.8452    0.3933 C   0  0  0  0  0  0  0  0  0  0  0  0
    3.7738   -0.4523    0.0703 C   0  0  0  0  0  0  0  0  0  0  0  0
    3.8345    0.9071   -0.0058 C   0  0  0  0  0  0  0  0  0  0  0  0
    4.8540    1.5730   -0.6486 C   0  0  0  0  0  0  0  0  0  0  0  0
    5.8585    0.8308   -1.2418 C   0  0  0  0  0  0  0  0  0  0  0  0
    5.8204   -0.5383   -1.1815 C   0  0  0  0  0  0  0  0  0  0  0  0
    4.7927   -1.1691   -0.5379 C   0  0  0  0  0  0  0  0  0  0  0  0
    6.9376    1.5724   -1.9067 C   0  0  0  0  0  0  0  0  0  0  0  0
    6.9466    2.9165   -1.9850 O   0  0  0  0  0  0  0  0  0  0  0  0
    7.8556    0.8641   -2.3942 O   0  0  0  0  0  0  0  0  0  0  0  0
    4.1549   -1.2555    2.4252 H   0  0  0  0  0  0  0  0  0  0  0  0
    2.4811   -1.7732    2.8840 H   0  0  0  0  0  0  0  0  0  0  0  0
    2.8611   -0.0045    2.5903 H   0  0  0  0  0  0  0  0  0  0  0  0
    2.6726   -2.2496    0.5470 H   0  0  0  0  0  0  0  0  0  0  0  0
    1.2309    0.4611    0.6708 H   0  0  0  0  0  0  0  0  0  0  0  0
   -0.6003    1.1286   -0.2121 H   0  0  0  0  0  0  0  0  0  0  0  0
   -2.9709    1.8314   -0.3885 H   0  0  0  0  0  0  0  0  0  0  0  0
   -4.2069   -2.1339    0.4111 H   0  0  0  0  0  0  0  0  0  0  0  0
   -1.8330   -2.8522    0.5891 H   0  0  0  0  0  0  0  0  0  0  0  0
   -6.2686   -0.0739   -1.8729 H   0  0  0  0  0  0  0  0  0  0  0  0
   -6.2027    1.6626   -1.3530 H   0  0  0  0  0  0  0  0  0  0  0  0
   -4.7827    0.8987   -2.1393 H   0  0  0  0  0  0  0  0  0  0  0  0
   -5.5607    1.0019    1.9634 H   0  0  0  0  0  0  0  0  0  0  0  0
   -6.3016    1.9845    0.6808 H   0  0  0  0  0  0  0  0  0  0  0  0
   -4.5167    2.0896    0.9680 H   0  0  0  0  0  0  0  0  0  0  0  0
   -5.7615   -1.2622    1.3642 H   0  0  0  0  0  0  0  0  0  0  0  0
   -7.0760   -0.3824    0.6027 H   0  0  0  0  0  0  0  0  0  0  0  0
   -6.2313   -1.5765   -0.4151 H   0  0  0  0  0  0  0  0  0  0  0  0
    3.0625    1.5400    0.4559 H   0  0  0  0  0  0  0  0  0  0  0  0
    4.8462    2.6554   -0.6709 H   0  0  0  0  0  0  0  0  0  0  0  0
    6.6403   -1.0982   -1.6744 H   0  0  0  0  0  0  0  0  0  0  0  0
    4.7722   -2.2653   -0.4967 H   0  0  0  0  0  0  0  0  0  0  0  0
    7.4276    3.5326   -1.3258 H   0  0  0  0  0  0  0  0  0  0  0  0
  1  2  1  0
  2  3  1  0
  3  4  1  0
  4  5  2  0
  4  6  1  0
  6  7  2  0
  7  8  1  0
  8  9  2  0
  9 10  1  0
 10 11  2  0
  9 12  1  0
 12 13  1  0
 12 14  1  0
 12 15  1  0
  2 16  1  0
 16 17  2  0
 17 18  1  0
 18 19  2  0
 19 20  1  0
 20 21  2  0
 19 22  1  0
 22 23  1  0
 22 24  2  0
 11  6  1  0
 21 16  1  0
  1 25  1  0
  1 26  1  0
  1 27  1  0
  2 28  1  6
  3 29  1  0
  7 30  1  0
  8 31  1  0
 10 32  1  0
 11 33  1  0
 13 34  1  0
 13 35  1  0
 13 36  1  0
 14 37  1  0
 14 38  1  0
 14 39  1  0
 15 40  1  0
 15 41  1  0
 15 42  1  0
 17 43  1  0
 18 44  1  0
 20 45  1  0
 21 46  1  0
 23 47  1  0
M  END
$$$$
[H]c1nc2c(c(N([H])[H])nn2[H])c([H])c1-c1c([H])c([H])c([H])c(C(F)(F)F)c1[H]
     RDKit          3D

 29 31  0  0  0  0  0  0  0  0999 V2000
   -4.1035    1.6137   -1.9630 F   0  0  0  0  0  0  0  0  0  0  0  0
   -3.7809    1.8979   -0.6042 C   0  0  0  0  0  0  0  0  0  0  0  0
   -5.0009    1.7964    0.0818 F   0  0  0  0  0  0  0  0  0  0  0  0
   -3.1270    3.0224   -0.4293 F   0  0  0  0  0  0  0  0  0  0  0  0
   -3.0553    0.6607   -0.1404 C   0  0  0  0  0  0  0  0  0  0  0  0
   -3.7951   -0.4773    0.0338 C   0  0  0  0  0  0  0  0  0  0  0  0
   -3.1181   -1.6437    0.4308 C   0  0  0  0  0  0  0  0  0  0  0  0
   -1.7663   -1.6250    0.6340 C   0  0  0  0  0  0  0  0  0  0  0  0
   -1.0014   -0.4569    0.4537 C   0  0  0  0  0  0  0  0  0  0  0  0
   -1.6693    0.6795    0.0685 C   0  0  0  0  0  0  0  0  0  0  0  0
    0.4578   -0.5608    0.5104 C   0  0  0  0  0  0  0  0  0  0  0  0
    1.0480   -1.5622    1.2860 C   0  0  0  0  0  0  0  0  0  0  0  0
    2.4016   -1.7618    1.3430 N   0  0  0  0  0  0  0  0  0  0  0  0
    3.1961   -0.9698    0.6104 C   0  0  0  0  0  0  0  0  0  0  0  0
    4.5391   -0.9487    0.4298 N   0  0  0  0  0  0  0  0  0  0  0  0
    4.8304   -0.0146   -0.4177 N   0  0  0  0  0  0  0  0  0  0  0  0
    3.7002    0.6273   -0.8174 C   0  0  0  0  0  0  0  0  0  0  0  0
    3.5789    1.7053   -1.7080 N   0  0  0  0  0  0  0  0  0  0  0  0
    2.6515    0.0223   -0.1682 C   0  0  0  0  0  0  0  0  0  0  0  0
    1.2825    0.2527   -0.2311 C   0  0  0  0  0  0  0  0  0  0  0  0
   -4.8386   -0.5609   -0.1171 H   0  0  0  0  0  0  0  0  0  0  0  0
   -3.7176   -2.5385    0.6181 H   0  0  0  0  0  0  0  0  0  0  0  0
   -1.2405   -2.5154    0.9104 H   0  0  0  0  0  0  0  0  0  0  0  0
   -1.1507    1.6221   -0.1000 H   0  0  0  0  0  0  0  0  0  0  0  0
    0.4262   -2.1777    1.8790 H   0  0  0  0  0  0  0  0  0  0  0  0
    5.2030   -1.5618    0.9645 H   0  0  0  0  0  0  0  0  0  0  0  0
    3.9070    2.6794   -1.3556 H   0  0  0  0  0  0  0  0  0  0  0  0
    3.2407    1.7133   -2.6563 H   0  0  0  0  0  0  0  0  0  0  0  0
    0.9022    1.0822   -0.7770 H   0  0  0  0  0  0  0  0  0  0  0  0
  1  2  1  0
  2  3  1  0
  2  4  1  0
  2  5  1  0
  5  6  2  0
  6  7  1  0
  7  8  2  0
  8  9  1  0
  9 10  2  0
  9 11  1  0
 11 12  2  0
 12 13  1  0
 13 14  2  0
 14 15  1  0
 15 16  1  0
 16 17  2  0
 17 18  1  0
 17 19  1  0
 19 20  2  0
 10  5  1  0
 20 11  1  0
 19 14  1  0
  6 21  1  0
  7 22  1  0
  8 23  1  0
 10 24  1  0
 12 25  1  0
 15 26  1  0
 18 27  1  0
 18 28  1  0
 20 29  1  0
M  END
$$$$
[H]O[C@@]1([H])[C@]([H])(OC([H])([H])[H])[C@@]([H])(C([H])([H])OP(=O)(O[H])O[H])O[C@@]1([H])n1c([H])c([H])c(=O)n([H])c1=O
     RDKit          3D

 37 38  0  0  0  0  0  0  0  0999 V2000
   -1.7883    3.0335    1.7426 C   0  0  0  0  0  0  0  0  0  0  0  0
   -1.1057    1.8609    2.0447 O   0  0  0  0  0  0  0  0  0  0  0  0
   -0.5769    1.2349    0.9469 C   0  0  2  0  0  0  0  0  0  0  0  0
   -1.1259   -0.1476    0.8485 C   0  0  1  0  0  0  0  0  0  0  0  0
   -1.8687   -0.3720   -0.4705 C   0  0  0  0  0  0  0  0  0  0  0  0
   -2.9265    0.5308   -0.5903 O   0  0  0  0  0  0  0  0  0  0  0  0
   -3.7356    0.2700   -2.0507 P   0  0  0  0  0  0  0  0  0  0  0  0
   -5.3987    0.1579   -1.8406 O   0  0  0  0  0  0  0  0  0  0  0  0
   -3.2083   -1.2039   -2.7408 O   0  0  0  0  0  0  0  0  0  0  0  0
   -3.3982    1.3726   -3.0393 O   0  0  0  0  0  0  0  0  0  0  0  0
   -0.1105   -1.0567    0.9018 O   0  0  0  0  0  0  0  0  0  0  0  0
    1.0597   -0.4356    1.2464 C   0  0  2  0  0  0  0  0  0  0  0  0
    0.9111    1.0335    1.0203 C   0  0  1  0  0  0  0  0  0  0  0  0
    1.5553    1.4938   -0.1092 O   0  0  0  0  0  0  0  0  0  0  0  0
    2.1382   -1.0418    0.5207 N   0  0  0  0  0  0  0  0  0  0  0  0
    2.1166   -1.0772   -0.8266 C   0  0  0  0  0  0  0  0  0  0  0  0
    3.1535   -1.6584   -1.5099 C   0  0  0  0  0  0  0  0  0  0  0  0
    4.2216   -2.2088   -0.8286 C   0  0  0  0  0  0  0  0  0  0  0  0
    5.1760   -2.7444   -1.4759 O   0  0  0  0  0  0  0  0  0  0  0  0
    4.1931   -2.1467    0.5140 N   0  0  0  0  0  0  0  0  0  0  0  0
    3.1776   -1.5773    1.1868 C   0  0  0  0  0  0  0  0  0  0  0  0
    3.2272   -1.5594    2.4659 O   0  0  0  0  0  0  0  0  0  0  0  0
   -2.1839    3.4776    2.6787 H   0  0  0  0  0  0  0  0  0  0  0  0
   -2.6355    2.8910    1.0683 H   0  0  0  0  0  0  0  0  0  0  0  0
   -1.0554    3.7483    1.3275 H   0  0  0  0  0  0  0  0  0  0  0  0
   -0.8255    1.8294    0.0440 H   0  0  0  0  0  0  0  0  0  0  0  0
   -1.8856   -0.3434    1.6550 H   0  0  0  0  0  0  0  0  0  0  0  0
   -1.1762   -0.2637   -1.3073 H   0  0  0  0  0  0  0  0  0  0  0  0
   -2.3214   -1.3832   -0.4980 H   0  0  0  0  0  0  0  0  0  0  0  0
   -5.6573   -0.6962   -1.4373 H   0  0  0  0  0  0  0  0  0  0  0  0
   -2.2254   -1.1443   -2.8640 H   0  0  0  0  0  0  0  0  0  0  0  0
    1.2330   -0.6028    2.3273 H   0  0  0  0  0  0  0  0  0  0  0  0
    1.2875    1.6422    1.8774 H   0  0  0  0  0  0  0  0  0  0  0  0
    2.4136    1.9445    0.0924 H   0  0  0  0  0  0  0  0  0  0  0  0
    1.2551   -0.6322   -1.3444 H   0  0  0  0  0  0  0  0  0  0  0  0
    3.0909   -1.6630   -2.6046 H   0  0  0  0  0  0  0  0  0  0  0  0
    4.9998   -2.5623    1.0286 H   0  0  0  0  0  0  0  0  0  0  0  0
  1  2  1  0
  2  3  1  0
  3  4  1  0
  4  5  1  0
  5  6  1  0
  6  7  1  0
  7  8  1  0
  7  9  1  0
  7 10  2  0
  4 11  1  0
 11 12  1  0
 12 13  1  0
 13 14  1  0
 12 15  1  0
 15 16  1  0
 16 17  2  0
 17 18  1  0
 18 19  2  0
 18 20  1  0
 20 21  1  0
 21 22  2  0
 13  3  1  0
 21 15  1  0
  1 23  1  0
  1 24  1  0
  1 25  1  0
  3 26  1  6
  4 27  1  1
  5 28  1  0
  5 29  1  0
  8 30  1  0
  9 31  1  0
 12 32  1  1
 13 33  1  1
 14 34  1  0
 16 35  1  0
 17 36  1  0
 20 37  1  0
M  END
$$$$
[H]OC1([H])C([H])([H])[C@]2([H])N(C([H])([H])[H])[C@@]([H])(C1([H])[H])C([H])([H])C2([H])[H]
     RDKit          2D

 25 26  0  0  0  0  0  0  0  0999 V2000
    2.7760    0.0000    0.0000 C   0  0  0  0  0  0  0  0  0  0  0  0
    1.2760    0.0000    0.0000 N   0  0  0  0  0  0  0  0  0  0  0  0
    0.3943    1.2135    0.0000 C   0  0  0  0  0  0  0  0  0  0  0  0
   -1.0323    0.7500    0.0000 C   0  0  0  0  0  0  0  0  0  0  0  0
   -1.0323   -0.7500    0.0000 C   0  0  0  0  0  0  0  0  0  0  0  0
    0.3943   -1.2135    0.0000 C   0  0  0  0  0  0  0  0  0  0  0  0
    1.8943   -1.3846    0.0000 C   0  0  0  0  0  0  0  0  0  0  0  0
    2.6443   -0.0855    0.0000 C   0  0  0  0  0  0  0  0  0  0  0  0
    3.7934    0.8787    0.0000 O   0  0  0  0  0  0  0  0  0  0  0  0
    1.8943    1.2135    0.0000 C   0  0  0  0  0  0  0  0  0  0  0  0
    4.2760    0.0000    0.0000 H   0  0  0  0  0  0  0  0  0  0  0  0
    2.9588   -1.4888    0.0000 H   0  0  0  0  0  0  0  0  0  0  0  0
    2.9588    1.4888    0.0000 H   0  0  0  0  0  0  0  0  0  0  0  0
    0.6805    2.6860    0.0000 H   0  0  0  0  0  0  0  0  0  0  0  0
   -2.5241    0.5932    0.0000 H   0  0  0  0  0  0  0  0  0  0  0  0
   -1.3442    2.2172    0.0000 H   0  0  0  0  0  0  0  0  0  0  0  0
   -1.3442   -2.2172    0.0000 H   0  0  0  0  0  0  0  0  0  0  0  0
   -2.5241   -0.5932    0.0000 H   0  0  0  0  0  0  0  0  0  0  0  0
    0.6805   -2.6860    0.0000 H   0  0  0  0  0  0  0  0  0  0  0  0
    3.2308   -2.0656    0.0000 H   0  0  0  0  0  0  0  0  0  0  0  0
    1.8158   -2.8825    0.0000 H   0  0  0  0  0  0  0  0  0  0  0  0
    3.7934   -1.0497    0.0000 H   0  0  0  0  0  0  0  0  0  0  0  0
    5.2029    0.3656    0.0000 H   0  0  0  0  0  0  0  0  0  0  0  0
    1.8158    2.7115    0.0000 H   0  0  0  0  0  0  0  0  0  0  0  0
    3.2308    1.8945    0.0000 H   0  0  0  0  0  0  0  0  0  0  0  0
  1  2  1  0
  2  3  1  0
  3  4  1  0
  4  5  1  0
  5  6  1  0
  6  7  1  0
  7  8  1  0
  8  9  1  0
  8 10  1  0
  6  2  1  0
 10  3  1  0
  1 11  1  0
  1 12  1  0
  1 13  1  0
  3 14  1  1
  4 15  1  0
  4 16  1  0
  5 17  1  0
  5 18  1  0
  6 19  1  6
  7 20  1  0
  7 21  1  0
  8 22  1  0
  9 23  1  0
 10 24  1  0
 10 25  1  0
M  END
$$$$
[H]O[C@]1([H])[C@@]([H])(C([H])([H])OP(=O)(O[H])OP(=O)(O[H])OP(=O)(O[H])O[H])O[C@@]([H])(n2c([H])c([H])c(=O)n([H])c2=O)[C@]1([H])O[H]
     RDKit          3D

 44 45  0  0  0  0  0  0  0  0999 V2000
   -0.5100    2.8295    0.3925 O   0  0  0  0  0  0  0  0  0  0  0  0
   -1.4797    1.8612    0.6420 C   0  0  1  0  0  0  0  0  0  0  0  0
   -2.4748    1.7484   -0.5551 C   0  0  1  0  0  0  0  0  0  0  0  0
   -1.6781    2.1835   -1.6506 O   0  0  0  0  0  0  0  0  0  0  0  0
   -2.7210    0.3042   -0.5574 C   0  0  1  0  0  0  0  0  0  0  0  0
   -2.0316   -0.3090    0.5271 O   0  0  0  0  0  0  0  0  0  0  0  0
   -0.9311    0.4693    0.5399 C   0  0  2  0  0  0  0  0  0  0  0  0
    0.2178    0.1172    1.4297 C   0  0  0  0  0  0  0  0  0  0  0  0
    0.5869   -1.1890    0.9254 O   0  0  0  0  0  0  0  0  0  0  0  0
    2.1044   -0.9770    0.1668 P   0  0  0  0  0  0  0  0  0  0  0  0
    1.7031   -1.1192   -1.5198 O   0  0  0  0  0  0  0  0  0  0  0  0
    2.6755    0.3798    0.4177 O   0  0  0  0  0  0  0  0  0  0  0  0
    3.2278   -2.1425    0.5115 O   0  0  0  0  0  0  0  0  0  0  0  0
    4.7654   -1.6627   -0.0594 P   0  0  0  0  0  0  0  0  0  0  0  0
    4.7087   -1.0981   -1.6349 O   0  0  0  0  0  0  0  0  0  0  0  0
    5.6695   -2.8546   -0.0077 O   0  0  0  0  0  0  0  0  0  0  0  0
    5.3702   -0.4849    1.0034 O   0  0  0  0  0  0  0  0  0  0  0  0
    6.9605   -0.1147    0.6016 P   0  0  0  0  0  0  0  0  0  0  0  0
    8.0331   -1.1429    1.4528 O   0  0  0  0  0  0  0  0  0  0  0  0
    7.2553    1.4805    1.0733 O   0  0  0  0  0  0  0  0  0  0  0  0
    7.2182   -0.2307   -0.8832 O   0  0  0  0  0  0  0  0  0  0  0  0
   -4.0906   -0.1567   -0.5792 N   0  0  0  0  0  0  0  0  0  0  0  0
   -4.4136   -1.1949   -1.3694 C   0  0  0  0  0  0  0  0  0  0  0  0
   -5.6989   -1.6842   -1.4924 C   0  0  0  0  0  0  0  0  0  0  0  0
   -6.6481   -1.0266   -0.7364 C   0  0  0  0  0  0  0  0  0  0  0  0
   -7.8510   -1.4274   -0.7942 O   0  0  0  0  0  0  0  0  0  0  0  0
   -6.3101   -0.0022    0.0417 N   0  0  0  0  0  0  0  0  0  0  0  0
   -5.0364    0.4503    0.1385 C   0  0  0  0  0  0  0  0  0  0  0  0
   -4.7849    1.4483    0.9128 O   0  0  0  0  0  0  0  0  0  0  0  0
   -0.6501    3.5432    1.0639 H   0  0  0  0  0  0  0  0  0  0  0  0
   -1.9739    1.9749    1.5937 H   0  0  0  0  0  0  0  0  0  0  0  0
   -3.2738    2.4526   -0.4554 H   0  0  0  0  0  0  0  0  0  0  0  0
   -1.4056    1.3649   -2.1401 H   0  0  0  0  0  0  0  0  0  0  0  0
   -2.2110   -0.1135   -1.4847 H   0  0  0  0  0  0  0  0  0  0  0  0
   -0.5137    0.3779   -0.5605 H   0  0  0  0  0  0  0  0  0  0  0  0
   -0.2278   -0.1635    2.4430 H   0  0  0  0  0  0  0  0  0  0  0  0
    1.0031    0.8177    1.4448 H   0  0  0  0  0  0  0  0  0  0  0  0
    2.4046   -0.8872   -2.1018 H   0  0  0  0  0  0  0  0  0  0  0  0
    4.5437   -0.1206   -1.6971 H   0  0  0  0  0  0  0  0  0  0  0  0
    7.7519   -2.0844    1.3184 H   0  0  0  0  0  0  0  0  0  0  0  0
    7.3230    2.0944    0.2968 H   0  0  0  0  0  0  0  0  0  0  0  0
   -3.6413   -1.7075   -1.9675 H   0  0  0  0  0  0  0  0  0  0  0  0
   -5.9345   -2.4919   -2.1445 H   0  0  0  0  0  0  0  0  0  0  0  0
   -7.0309    0.4885    0.5544 H   0  0  0  0  0  0  0  0  0  0  0  0
  1  2  1  0
  2  3  1  0
  3  4  1  0
  3  5  1  0
  5  6  1  0
  6  7  1  0
  7  8  1  0
  8  9  1  0
  9 10  1  0
 10 11  1  0
 10 12  2  0
 10 13  1  0
 13 14  1  0
 14 15  1  0
 14 16  2  0
 14 17  1  0
 17 18  1  0
 18 19  1  0
 18 20  1  0
 18 21  2  0
  5 22  1  0
 22 23  1  0
 23 24  2  0
 24 25  1  0
 25 26  2  0
 25 27  1  0
 27 28  1  0
 28 29  2  0
  7  2  1  0
 28 22  1  0
  1 30  1  0
  2 31  1  1
  3 32  1  1
  4 33  1  0
  5 34  1  6
  7 35  1  6
  8 36  1  0
  8 37  1  0
 11 38  1  0
 15 39  1  0
 19 40  1  0
 20 41  1  0
 23 42  1  0
 24 43  1  0
 27 44  1  0
M  END
$$$$
[H]c1nc(N([H])c2c([H])c([H])c([N+](=O)[O-])c([H])c2OC([H])([H])[H])nc(N([H])c2c([H])c([H])c([H])c([H])c2S(=O)(=O)C([H])(C([H])([H])[H])C([H])([H])[H])c1Cl
     RDKit          3D

 52 54  0  0  0  0  0  0  0  0999 V2000
    5.3729    2.6168   -2.1854 C   0  0  0  0  0  0  0  0  0  0  0  0
    4.5964    1.6737   -1.4959 O   0  0  0  0  0  0  0  0  0  0  0  0
    5.1794    0.6551   -0.7614 C   0  0  0  0  0  0  0  0  0  0  0  0
    6.5496    0.5376   -0.6861 C   0  0  0  0  0  0  0  0  0  0  0  0
    7.1629   -0.4517    0.0269 C   0  0  0  0  0  0  0  0  0  0  0  0
    6.3554   -1.3390    0.6762 C   0  0  0  0  0  0  0  0  0  0  0  0
    4.9635   -1.2241    0.6029 C   0  0  0  0  0  0  0  0  0  0  0  0
    4.3253   -0.2461   -0.1018 C   0  0  0  0  0  0  0  0  0  0  0  0
    2.9482   -0.0410   -0.2406 N   0  0  0  0  0  0  0  0  0  0  0  0
    1.9284   -0.8433    0.3485 C   0  0  0  0  0  0  0  0  0  0  0  0
    2.1080   -1.9066    1.1183 N   0  0  0  0  0  0  0  0  0  0  0  0
    1.1158   -2.6314    1.6510 C   0  0  0  0  0  0  0  0  0  0  0  0
   -0.1767   -2.2655    1.3949 C   0  0  0  0  0  0  0  0  0  0  0  0
   -1.4700   -3.2135    2.0917 Cl  0  0  0  0  0  0  0  0  0  0  0  0
   -0.4307   -1.1509    0.5886 C   0  0  0  0  0  0  0  0  0  0  0  0
   -1.7766   -0.7912    0.3410 N   0  0  0  0  0  0  0  0  0  0  0  0
   -2.3174    0.2451   -0.4093 C   0  0  0  0  0  0  0  0  0  0  0  0
   -1.5773    1.1426   -1.1337 C   0  0  0  0  0  0  0  0  0  0  0  0
   -2.1600    2.1744   -1.8952 C   0  0  0  0  0  0  0  0  0  0  0  0
   -3.5231    2.3068   -1.9290 C   0  0  0  0  0  0  0  0  0  0  0  0
   -4.2858    1.4160   -1.2084 C   0  0  0  0  0  0  0  0  0  0  0  0
   -3.6992    0.4121   -0.4680 C   0  0  0  0  0  0  0  0  0  0  0  0
   -4.7259   -0.6528    0.4100 S   0  0  0  0  0  0  0  0  0  0  0  0
   -4.6439   -2.0806   -0.0455 O   0  0  0  0  0  0  0  0  0  0  0  0
   -4.4492   -0.6544    1.9061 O   0  0  0  0  0  0  0  0  0  0  0  0
   -6.4655   -0.2305    0.1669 C   0  0  0  0  0  0  0  0  0  0  0  0
   -7.2192   -1.4064    0.8152 C   0  0  0  0  0  0  0  0  0  0  0  0
   -6.8503    1.0305    0.8529 C   0  0  0  0  0  0  0  0  0  0  0  0
    0.6226   -0.5118    0.1176 N   0  0  0  0  0  0  0  0  0  0  0  0
    8.5762   -0.5059    0.0560 N   0  0  0  0  0  0  0  0  0  0  0  0
    9.3245    0.4161   -0.6180 O   0  0  0  0  0  0  0  0  0  0  0  0
    9.1713   -1.3930    0.6950 O   0  0  0  0  0  0  0  0  0  0  0  0
    6.1662    3.0499   -1.5482 H   0  0  0  0  0  0  0  0  0  0  0  0
    5.8913    2.1004   -3.0429 H   0  0  0  0  0  0  0  0  0  0  0  0
    4.6841    3.4015   -2.5851 H   0  0  0  0  0  0  0  0  0  0  0  0
    7.1349    1.2795   -1.2283 H   0  0  0  0  0  0  0  0  0  0  0  0
    6.8066   -2.1371    1.2517 H   0  0  0  0  0  0  0  0  0  0  0  0
    4.4096   -1.9645    1.1438 H   0  0  0  0  0  0  0  0  0  0  0  0
    2.6352    0.7871   -0.8388 H   0  0  0  0  0  0  0  0  0  0  0  0
    1.3552   -3.5082    2.2850 H   0  0  0  0  0  0  0  0  0  0  0  0
   -2.4824   -1.4436    0.8170 H   0  0  0  0  0  0  0  0  0  0  0  0
   -0.5054    1.1047   -1.1602 H   0  0  0  0  0  0  0  0  0  0  0  0
   -1.5486    2.8672   -2.4564 H   0  0  0  0  0  0  0  0  0  0  0  0
   -3.9527    3.1071   -2.5210 H   0  0  0  0  0  0  0  0  0  0  0  0
   -5.3537    1.5549   -1.2658 H   0  0  0  0  0  0  0  0  0  0  0  0
   -6.6819   -0.2892   -0.8947 H   0  0  0  0  0  0  0  0  0  0  0  0
   -8.2598   -1.4516    0.4951 H   0  0  0  0  0  0  0  0  0  0  0  0
   -6.6516   -2.3440    0.5937 H   0  0  0  0  0  0  0  0  0  0  0  0
   -7.2109   -1.2909    1.9249 H   0  0  0  0  0  0  0  0  0  0  0  0
   -7.3712    1.6831    0.0927 H   0  0  0  0  0  0  0  0  0  0  0  0
   -6.0004    1.5665    1.3258 H   0  0  0  0  0  0  0  0  0  0  0  0
   -7.5942    0.8398    1.6352 H   0  0  0  0  0  0  0  0  0  0  0  0
  1  2  1  0
  2  3  1  0
  3  4  2  0
  4  5  1  0
  5  6  2  0
  6  7  1  0
  7  8  2  0
  8  9  1  0
  9 10  1  0
 10 11  2  0
 11 12  1  0
 12 13  2  0
 13 14  1  0
 13 15  1  0
 15 16  1  0
 16 17  1  0
 17 18  2  0
 18 19  1  0
 19 20  2  0
 20 21  1  0
 21 22  2  0
 22 23  1  0
 23 24  2  0
 23 25  2  0
 23 26  1  0
 26 27  1  0
 26 28  1  0
 15 29  2  0
  5 30  1  0
 30 31  1  0
 30 32  2  0
  8  3  1  0
 29 10  1  0
 22 17  1  0
  1 33  1  0
  1 34  1  0
  1 35  1  0
  4 36  1  0
  6 37  1  0
  7 38  1  0
  9 39  1  0
 12 40  1  0
 16 41  1  0
 18 42  1  0
 19 43  1  0
 20 44  1  0
 21 45  1  0
 26 46  1  0
 27 47  1  0
 27 48  1  0
 27 49  1  0
 28 50  1  0
 28 51  1  0
 28 52  1  0
M  CHG  2  30   1  31  -1
M  END
$$$$
[H]N=C(N([H])[H])N([H])C([H])([H])C([H])([H])C([H])([H])[C@@]([H])(C(=O)N([H])[C@]([H])(C(=O)N([H])[H])C([H])([H])c1c([H])c([H])c([H])c([H])c1[H])N([H])C(=O)[C@@]([H])(N([H])C(=O)[C@@]([H])(N([H])C(=O)OC([H])([H])c1c([H])c([H])c([H])c([H])c1[H])C([H])([H])c1c([H])c([H])c([H])c([H])c1[H])C([H])([H])C([H])(C([H])([H])[H])C([H])([H])[H]
     RDKit          3D

102104  0  0  0  0  0  0  0  0999 V2000
   -0.5249   -2.4560   -3.3404 C   0  0  0  0  0  0  0  0  0  0  0  0
    0.4619   -1.4944   -3.9049 C   0  0  0  0  0  0  0  0  0  0  0  0
    0.0105   -1.2613   -5.3644 C   0  0  0  0  0  0  0  0  0  0  0  0
    0.5380   -0.1512   -3.2884 C   0  0  0  0  0  0  0  0  0  0  0  0
    0.8809   -0.0400   -1.8744 C   0  0  2  0  0  0  0  0  0  0  0  0
    2.1620   -0.6037   -1.5555 N   0  0  0  0  0  0  0  0  0  0  0  0
    3.0404   -0.1595   -0.5828 C   0  0  0  0  0  0  0  0  0  0  0  0
    2.7972    0.8131    0.1325 O   0  0  0  0  0  0  0  0  0  0  0  0
    4.3371   -0.8907   -0.3844 C   0  0  2  0  0  0  0  0  0  0  0  0
    4.1338   -2.3568   -0.3545 C   0  0  0  0  0  0  0  0  0  0  0  0
    5.3849   -3.1159   -0.1609 C   0  0  0  0  0  0  0  0  0  0  0  0
    5.8536   -3.4916    1.0788 C   0  0  0  0  0  0  0  0  0  0  0  0
    7.0260   -4.2274    1.2323 C   0  0  0  0  0  0  0  0  0  0  0  0
    7.7531   -4.5990    0.1206 C   0  0  0  0  0  0  0  0  0  0  0  0
    7.3008   -4.2341   -1.1298 C   0  0  0  0  0  0  0  0  0  0  0  0
    6.1388   -3.5067   -1.2636 C   0  0  0  0  0  0  0  0  0  0  0  0
    4.9246   -0.3388    0.7916 N   0  0  0  0  0  0  0  0  0  0  0  0
    5.9289    0.6354    0.8958 C   0  0  0  0  0  0  0  0  0  0  0  0
    6.4095    1.1269   -0.1503 O   0  0  0  0  0  0  0  0  0  0  0  0
    6.3950    1.0649    2.1200 O   0  0  0  0  0  0  0  0  0  0  0  0
    7.3684    2.0511    2.3016 C   0  0  0  0  0  0  0  0  0  0  0  0
    6.9545    3.3887    1.7617 C   0  0  0  0  0  0  0  0  0  0  0  0
    6.0051    4.0478    2.5395 C   0  0  0  0  0  0  0  0  0  0  0  0
    5.5913    5.3050    2.0830 C   0  0  0  0  0  0  0  0  0  0  0  0
    6.0949    5.8507    0.9410 C   0  0  0  0  0  0  0  0  0  0  0  0
    7.0329    5.1750    0.1928 C   0  0  0  0  0  0  0  0  0  0  0  0
    7.4603    3.9334    0.6152 C   0  0  0  0  0  0  0  0  0  0  0  0
   -0.1741   -0.5056   -0.8949 C   0  0  0  0  0  0  0  0  0  0  0  0
    0.2556   -1.2445   -0.0100 O   0  0  0  0  0  0  0  0  0  0  0  0
   -1.4899   -0.0679   -1.0773 N   0  0  0  0  0  0  0  0  0  0  0  0
   -2.7517    0.3455   -1.2430 C   0  0  1  0  0  0  0  0  0  0  0  0
   -3.8262   -0.6804   -1.6103 C   0  0  0  0  0  0  0  0  0  0  0  0
   -3.9839   -1.7475   -0.5885 C   0  0  0  0  0  0  0  0  0  0  0  0
   -5.0631   -2.7204   -0.9988 C   0  0  0  0  0  0  0  0  0  0  0  0
   -4.7736   -3.3829   -2.2335 N   0  0  0  0  0  0  0  0  0  0  0  0
   -5.6752   -4.3810   -2.7102 C   0  0  0  0  0  0  0  0  0  0  0  0
   -5.8356   -5.5142   -1.8866 N   0  0  0  0  0  0  0  0  0  0  0  0
   -6.3068   -4.2425   -3.8366 N   0  0  0  0  0  0  0  0  0  0  0  0
   -3.2635    1.0193    0.0426 C   0  0  0  0  0  0  0  0  0  0  0  0
   -2.4329    1.0364    0.9695 O   0  0  0  0  0  0  0  0  0  0  0  0
   -4.5298    1.5408    0.1260 N   0  0  0  0  0  0  0  0  0  0  0  0
   -5.2110    2.1941    1.2394 C   0  0  1  0  0  0  0  0  0  0  0  0
   -4.8861    1.4721    2.4986 C   0  0  0  0  0  0  0  0  0  0  0  0
   -5.5481    2.0495    3.6652 C   0  0  0  0  0  0  0  0  0  0  0  0
   -4.8694    2.8662    4.5380 C   0  0  0  0  0  0  0  0  0  0  0  0
   -5.5298    3.3834    5.6239 C   0  0  0  0  0  0  0  0  0  0  0  0
   -6.8545    3.0767    5.8175 C   0  0  0  0  0  0  0  0  0  0  0  0
   -7.5484    2.2667    4.9590 C   0  0  0  0  0  0  0  0  0  0  0  0
   -6.8997    1.7466    3.8755 C   0  0  0  0  0  0  0  0  0  0  0  0
   -5.0121    3.6360    1.1928 C   0  0  0  0  0  0  0  0  0  0  0  0
   -5.5824    4.5989    2.0567 N   0  0  0  0  0  0  0  0  0  0  0  0
   -4.2485    4.1415    0.2840 O   0  0  0  0  0  0  0  0  0  0  0  0
   -1.5620   -2.0970   -3.5233 H   0  0  0  0  0  0  0  0  0  0  0  0
   -0.3354   -2.7636   -2.2955 H   0  0  0  0  0  0  0  0  0  0  0  0
   -0.5016   -3.4465   -3.9108 H   0  0  0  0  0  0  0  0  0  0  0  0
    1.4413   -2.0084   -4.0062 H   0  0  0  0  0  0  0  0  0  0  0  0
    0.3741   -0.3031   -5.7348 H   0  0  0  0  0  0  0  0  0  0  0  0
   -1.1119   -1.2107   -5.3829 H   0  0  0  0  0  0  0  0  0  0  0  0
    0.3518   -2.0821   -6.0096 H   0  0  0  0  0  0  0  0  0  0  0  0
   -0.3908    0.4055   -3.5864 H   0  0  0  0  0  0  0  0  0  0  0  0
    1.3436    0.4061   -3.8668 H   0  0  0  0  0  0  0  0  0  0  0  0
    0.9843    1.0524   -1.5864 H   0  0  0  0  0  0  0  0  0  0  0  0
    2.4275   -1.4469   -2.1484 H   0  0  0  0  0  0  0  0  0  0  0  0
    5.0358   -0.6072   -1.2381 H   0  0  0  0  0  0  0  0  0  0  0  0
    3.4386   -2.6565    0.4812 H   0  0  0  0  0  0  0  0  0  0  0  0
    3.6389   -2.7653   -1.2685 H   0  0  0  0  0  0  0  0  0  0  0  0
    5.2967   -3.2130    1.9450 H   0  0  0  0  0  0  0  0  0  0  0  0
    7.4032   -4.5273    2.2197 H   0  0  0  0  0  0  0  0  0  0  0  0
    8.6877   -5.1810    0.2060 H   0  0  0  0  0  0  0  0  0  0  0  0
    7.8982   -4.5428   -2.0001 H   0  0  0  0  0  0  0  0  0  0  0  0
    5.7761   -3.2124   -2.2443 H   0  0  0  0  0  0  0  0  0  0  0  0
    4.5437   -0.7280    1.7187 H   0  0  0  0  0  0  0  0  0  0  0  0
    8.3368    1.7887    1.8034 H   0  0  0  0  0  0  0  0  0  0  0  0
    7.5795    2.1479    3.3865 H   0  0  0  0  0  0  0  0  0  0  0  0
    5.6144    3.6150    3.4393 H   0  0  0  0  0  0  0  0  0  0  0  0
    4.8477    5.8335    2.6797 H   0  0  0  0  0  0  0  0  0  0  0  0
    5.7682    6.8453    0.5851 H   0  0  0  0  0  0  0  0  0  0  0  0
    7.4244    5.6449   -0.7294 H   0  0  0  0  0  0  0  0  0  0  0  0
    8.2150    3.3729    0.0318 H   0  0  0  0  0  0  0  0  0  0  0  0
   -1.8847   -0.7965    0.0100 H   0  0  0  0  0  0  0  0  0  0  0  0
   -2.9379    1.1851   -1.9831 H   0  0  0  0  0  0  0  0  0  0  0  0
   -4.8048   -0.2101   -1.8127 H   0  0  0  0  0  0  0  0  0  0  0  0
   -3.5341   -1.1374   -2.6066 H   0  0  0  0  0  0  0  0  0  0  0  0
   -3.0399   -2.3191   -0.4377 H   0  0  0  0  0  0  0  0  0  0  0  0
   -4.2678   -1.2772    0.3629 H   0  0  0  0  0  0  0  0  0  0  0  0
   -6.0177   -2.1448   -1.0666 H   0  0  0  0  0  0  0  0  0  0  0  0
   -5.1864   -3.5042   -0.1976 H   0  0  0  0  0  0  0  0  0  0  0  0
   -3.9239   -3.1517   -2.7945 H   0  0  0  0  0  0  0  0  0  0  0  0
   -6.5075   -5.4935   -1.1029 H   0  0  0  0  0  0  0  0  0  0  0  0
   -5.2815   -6.3628   -2.0611 H   0  0  0  0  0  0  0  0  0  0  0  0
   -6.1116   -3.3595   -4.3692 H   0  0  0  0  0  0  0  0  0  0  0  0
   -5.1337    1.4754   -0.7601 H   0  0  0  0  0  0  0  0  0  0  0  0
   -6.3177    1.9751    1.0784 H   0  0  0  0  0  0  0  0  0  0  0  0
   -5.3105    0.4318    2.3748 H   0  0  0  0  0  0  0  0  0  0  0  0
   -3.7972    1.3807    2.7318 H   0  0  0  0  0  0  0  0  0  0  0  0
   -3.8284    3.0886    4.3611 H   0  0  0  0  0  0  0  0  0  0  0  0
   -4.9895    4.0403    6.3309 H   0  0  0  0  0  0  0  0  0  0  0  0
   -7.3682    3.4908    6.6740 H   0  0  0  0  0  0  0  0  0  0  0  0
   -8.5751    2.0470    5.1321 H   0  0  0  0  0  0  0  0  0  0  0  0
   -7.4594    1.1034    3.1961 H   0  0  0  0  0  0  0  0  0  0  0  0
   -6.6385    4.5344    2.1580 H   0  0  0  0  0  0  0  0  0  0  0  0
   -5.0282    5.3318    2.5665 H   0  0  0  0  0  0  0  0  0  0  0  0
  1  2  1  0
  2  3  1  0
  2  4  1  0
  4  5  1  0
  5  6  1  0
  6  7  1  0
  7  8  2  0
  7  9  1  0
  9 10  1  0
 10 11  1  0
 11 12  2  0
 12 13  1  0
 13 14  2  0
 14 15  1  0
 15 16  2  0
  9 17  1  0
 17 18  1  0
 18 19  2  0
 18 20  1  0
 20 21  1  0
 21 22  1  0
 22 23  2  0
 23 24  1  0
 24 25  2  0
 25 26  1  0
 26 27  2  0
  5 28  1  0
 28 29  2  0
 28 30  1  0
 30 31  1  0
 31 32  1  0
 32 33  1  0
 33 34  1  0
 34 35  1  0
 35 36  1  0
 36 37  1  0
 36 38  2  3
 31 39  1  0
 39 40  2  0
 39 41  1  0
 41 42  1  0
 42 43  1  0
 43 44  1  0
 44 45  2  0
 45 46  1  0
 46 47  2  0
 47 48  1  0
 48 49  2  0
 42 50  1  0
 50 51  1  0
 50 52  2  0
 16 11  1  0
 27 22  1  0
 49 44  1  0
  1 53  1  0
  1 54  1  0
  1 55  1  0
  2 56  1  0
  3 57  1  0
  3 58  1  0
  3 59  1  0
  4 60  1  0
  4 61  1  0
  5 62  1  1
  6 63  1  0
  9 64  1  6
 10 65  1  0
 10 66  1  0
 12 67  1  0
 13 68  1  0
 14 69  1  0
 15 70  1  0
 16 71  1  0
 17 72  1  0
 21 73  1  0
 21 74  1  0
 23 75  1  0
 24 76  1  0
 25 77  1  0
 26 78  1  0
 27 79  1  0
 30 80  1  0
 31 81  1  6
 32 82  1  0
 32 83  1  0
 33 84  1  0
 33 85  1  0
 34 86  1  0
 34 87  1  0
 35 88  1  0
 37 89  1  0
 37 90  1  0
 38 91  1  0
 41 92  1  0
 42 93  1  6
 43 94  1  0
 43 95  1  0
 45 96  1  0
 46 97  1  0
 47 98  1  0
 48 99  1  0
 49100  1  0
 51101  1  0
 51102  1  0
M  END
$$$$
[H]N=C(N([H])[H])N([H])C([H])([H])C([H])([H])C([H])([H])[C@@]([H])(C(=O)OC([H])([H])c1c([H])c([H])c([H])c([H])c1[H])N([H])C(=O)[C@@]([H])(N([H])C(=O)[C@@]([H])(N([H])C(=O)C([H])([H])[H])C([H])([H])c1c([H])c([H])c([H])c([H])c1[H])C([H])([H])c1c([H])c([H])c([H])c([H])c1[H]
     RDKit          3D

 84 86  0  0  0  0  0  0  0  0999 V2000
   -6.7390   -0.1172   -4.4560 C   0  0  0  0  0  0  0  0  0  0  0  0
   -6.2352    0.1785   -3.1008 C   0  0  0  0  0  0  0  0  0  0  0  0
   -7.0056    0.8638   -2.3486 O   0  0  0  0  0  0  0  0  0  0  0  0
   -4.9694   -0.2822   -2.6808 N   0  0  0  0  0  0  0  0  0  0  0  0
   -4.4592   -0.0060   -1.3482 C   0  0  1  0  0  0  0  0  0  0  0  0
   -4.2216   -1.3100   -0.6003 C   0  0  0  0  0  0  0  0  0  0  0  0
   -5.4315   -2.1036   -0.4534 C   0  0  0  0  0  0  0  0  0  0  0  0
   -5.7732   -3.0122   -1.4319 C   0  0  0  0  0  0  0  0  0  0  0  0
   -6.9156   -3.7708   -1.2968 C   0  0  0  0  0  0  0  0  0  0  0  0
   -7.7197   -3.6229   -0.1827 C   0  0  0  0  0  0  0  0  0  0  0  0
   -7.3947   -2.7160    0.8116 C   0  0  0  0  0  0  0  0  0  0  0  0
   -6.2411   -1.9731    0.6406 C   0  0  0  0  0  0  0  0  0  0  0  0
   -3.1951    0.7348   -1.3605 C   0  0  0  0  0  0  0  0  0  0  0  0
   -2.7579    1.0942   -2.5066 O   0  0  0  0  0  0  0  0  0  0  0  0
   -2.4354    1.0781   -0.2446 N   0  0  0  0  0  0  0  0  0  0  0  0
   -1.2022    1.8111   -0.1881 C   0  0  1  0  0  0  0  0  0  0  0  0
   -1.0852    2.9101    0.7410 C   0  0  0  0  0  0  0  0  0  0  0  0
   -1.2089    2.7909    2.1577 C   0  0  0  0  0  0  0  0  0  0  0  0
   -0.1959    2.5775    3.0704 C   0  0  0  0  0  0  0  0  0  0  0  0
   -0.4308    2.4803    4.4205 C   0  0  0  0  0  0  0  0  0  0  0  0
   -1.7054    2.5929    4.9348 C   0  0  0  0  0  0  0  0  0  0  0  0
   -2.7164    2.8039    4.0449 C   0  0  0  0  0  0  0  0  0  0  0  0
   -2.4811    2.9010    2.6943 C   0  0  0  0  0  0  0  0  0  0  0  0
    0.0000    0.9365   -0.3866 C   0  0  0  0  0  0  0  0  0  0  0  0
   -0.2023   -0.2218   -0.8270 O   0  0  0  0  0  0  0  0  0  0  0  0
    1.2976    1.3463   -0.1091 N   0  0  0  0  0  0  0  0  0  0  0  0
    2.4724    0.4929   -0.3353 C   0  0  1  0  0  0  0  0  0  0  0  0
    3.6601    1.3753   -0.5874 C   0  0  0  0  0  0  0  0  0  0  0  0
    4.9405    0.6996   -0.8704 C   0  0  0  0  0  0  0  0  0  0  0  0
    6.1359    1.5555   -1.0876 C   0  0  0  0  0  0  0  0  0  0  0  0
    6.0813    2.4880   -2.1608 N   0  0  0  0  0  0  0  0  0  0  0  0
    5.2931    3.6581   -2.1806 C   0  0  0  0  0  0  0  0  0  0  0  0
    4.6304    4.0392   -3.3798 N   0  0  0  0  0  0  0  0  0  0  0  0
    5.1589    4.4222   -1.1269 N   0  0  0  0  0  0  0  0  0  0  0  0
    2.6372   -0.4215    0.8342 C   0  0  0  0  0  0  0  0  0  0  0  0
    1.8449   -0.2814    1.8027 O   0  0  0  0  0  0  0  0  0  0  0  0
    3.5797   -1.4113    0.9461 O   0  0  0  0  0  0  0  0  0  0  0  0
    3.6915   -2.2606    2.0710 C   0  0  0  0  0  0  0  0  0  0  0  0
    4.8224   -3.2312    1.8735 C   0  0  0  0  0  0  0  0  0  0  0  0
    6.0572   -2.9718    2.3867 C   0  0  0  0  0  0  0  0  0  0  0  0
    7.0783   -3.8749    2.1936 C   0  0  0  0  0  0  0  0  0  0  0  0
    6.9101   -5.0489    1.4947 C   0  0  0  0  0  0  0  0  0  0  0  0
    5.6607   -5.3137    0.9741 C   0  0  0  0  0  0  0  0  0  0  0  0
    4.6471   -4.4090    1.1703 C   0  0  0  0  0  0  0  0  0  0  0  0
   -6.8911   -1.2254   -4.5686 H   0  0  0  0  0  0  0  0  0  0  0  0
   -5.9262    0.1414   -5.1869 H   0  0  0  0  0  0  0  0  0  0  0  0
   -7.6821    0.4024   -4.7041 H   0  0  0  0  0  0  0  0  0  0  0  0
   -4.3986   -0.8364   -3.3549 H   0  0  0  0  0  0  0  0  0  0  0  0
   -5.2689    0.5499   -0.8122 H   0  0  0  0  0  0  0  0  0  0  0  0
   -3.7618   -1.0104    0.3825 H   0  0  0  0  0  0  0  0  0  0  0  0
   -3.4011   -1.8377   -1.1396 H   0  0  0  0  0  0  0  0  0  0  0  0
   -5.1204   -3.1029   -2.2931 H   0  0  0  0  0  0  0  0  0  0  0  0
   -7.1534   -4.4754   -2.0832 H   0  0  0  0  0  0  0  0  0  0  0  0
   -8.6150   -4.2342   -0.1013 H   0  0  0  0  0  0  0  0  0  0  0  0
   -8.0081   -2.5793    1.6990 H   0  0  0  0  0  0  0  0  0  0  0  0
   -5.9597   -1.2528    1.4074 H   0  0  0  0  0  0  0  0  0  0  0  0
   -2.8083    0.7621    0.7039 H   0  0  0  0  0  0  0  0  0  0  0  0
   -1.2040    2.3143   -1.2354 H   0  0  0  0  0  0  0  0  0  0  0  0
   -1.8516    3.6919    0.4024 H   0  0  0  0  0  0  0  0  0  0  0  0
   -0.1228    3.4654    0.5147 H   0  0  0  0  0  0  0  0  0  0  0  0
    0.7901    2.4891    2.6966 H   0  0  0  0  0  0  0  0  0  0  0  0
    0.3802    2.3111    5.1370 H   0  0  0  0  0  0  0  0  0  0  0  0
   -1.9239    2.5213    5.9988 H   0  0  0  0  0  0  0  0  0  0  0  0
   -3.7336    2.8937    4.4569 H   0  0  0  0  0  0  0  0  0  0  0  0
   -3.3587    3.0703    2.0576 H   0  0  0  0  0  0  0  0  0  0  0  0
    1.4780    2.2934    0.2788 H   0  0  0  0  0  0  0  0  0  0  0  0
    2.2503   -0.1419   -1.1960 H   0  0  0  0  0  0  0  0  0  0  0  0
    3.3917    2.0066   -1.4879 H   0  0  0  0  0  0  0  0  0  0  0  0
    3.7631    2.1230    0.2397 H   0  0  0  0  0  0  0  0  0  0  0  0
    5.1828   -0.0474   -0.0788 H   0  0  0  0  0  0  0  0  0  0  0  0
    4.8089    0.0965   -1.8176 H   0  0  0  0  0  0  0  0  0  0  0  0
    7.0431    0.9046   -1.2534 H   0  0  0  0  0  0  0  0  0  0  0  0
    6.4012    2.1136   -0.1229 H   0  0  0  0  0  0  0  0  0  0  0  0
    6.6613    2.3262   -3.0365 H   0  0  0  0  0  0  0  0  0  0  0  0
    4.5128    5.0795   -3.5657 H   0  0  0  0  0  0  0  0  0  0  0  0
    4.2690    3.3415   -4.0570 H   0  0  0  0  0  0  0  0  0  0  0  0
    4.5850    5.2706   -1.1446 H   0  0  0  0  0  0  0  0  0  0  0  0
    3.8460   -1.6590    2.9878 H   0  0  0  0  0  0  0  0  0  0  0  0
    2.7844   -2.9130    2.1925 H   0  0  0  0  0  0  0  0  0  0  0  0
    6.2099   -2.0562    2.9384 H   0  0  0  0  0  0  0  0  0  0  0  0
    8.0727   -3.6704    2.6043 H   0  0  0  0  0  0  0  0  0  0  0  0
    7.7257   -5.7529    1.3514 H   0  0  0  0  0  0  0  0  0  0  0  0
    5.4850   -6.2113    0.4256 H   0  0  0  0  0  0  0  0  0  0  0  0
    3.6709   -4.6329    0.7528 H   0  0  0  0  0  0  0  0  0  0  0  0
  1  2  1  0
  2  3  2  0
  2  4  1  0
  4  5  1  0
  5  6  1  0
  6  7  1  0
  7  8  2  0
  8  9  1  0
  9 10  2  0
 10 11  1  0
 11 12  2  0
  5 13  1  0
 13 14  2  0
 13 15  1  0
 15 16  1  0
 16 17  1  0
 17 18  1  0
 18 19  2  0
 19 20  1  0
 20 21  2  0
 21 22  1  0
 22 23  2  0
 16 24  1  0
 24 25  2  0
 24 26  1  0
 26 27  1  0
 27 28  1  0
 28 29  1  0
 29 30  1  0
 30 31  1  0
 31 32  1  0
 32 33  1  0
 32 34  2  3
 27 35  1  0
 35 36  2  0
 35 37  1  0
 37 38  1  0
 38 39  1  0
 39 40  2  0
 40 41  1  0
 41 42  2  0
 42 43  1  0
 43 44  2  0
 12  7  1  0
 23 18  1  0
 44 39  1  0
  1 45  1  0
  1 46  1  0
  1 47  1  0
  4 48  1  0
  5 49  1  1
  6 50  1  0
  6 51  1  0
  8 52  1  0
  9 53  1  0
 10 54  1  0
 11 55  1  0
 12 56  1  0
 15 57  1  0
 16 58  1  6
 17 59  1  0
 17 60  1  0
 19 61  1  0
 20 62  1  0
 21 63  1  0
 22 64  1  0
 23 65  1  0
 26 66  1  0
 27 67  1  6
 28 68  1  0
 28 69  1  0
 29 70  1  0
 29 71  1  0
 30 72  1  0
 30 73  1  0
 31 74  1  0
 33 75  1  0
 33 76  1  0
 34 77  1  0
 38 78  1  0
 38 79  1  0
 40 80  1  0
 41 81  1  0
 42 82  1  0
 43 83  1  0
 44 84  1  0
M  END
$$$$
[H]c1c([H])c([H])c(C(=O)N([H])[C@]([H])(C(=O)[C@@]([H])(N([H])C(=O)[C@@]([H])(N([H])C(=O)[C@@]([H])(N([H])C(=O)OC([H])([H])c2c([H])c([H])c([H])c([H])c2[H])C([H])([H])c2c([H])c([H])c([H])c([H])c2[H])C([H])([H])C([H])(C([H])([H])[H])C([H])([H])[H])C([H])([H])c2c([H])c([H])c([H])c([H])c2[H])C([H])([H])C([H])(C([H])([H])[H])C([H])([H])[H])c([H])c1[H]
     RDKit          3D

106109  0  0  0  0  0  0  0  0999 V2000
   -0.1783   -2.1513   -3.6291 C   0  0  0  0  0  0  0  0  0  0  0  0
    0.0980   -1.8470   -2.1346 C   0  0  0  0  0  0  0  0  0  0  0  0
    0.5376   -3.1213   -1.5428 C   0  0  0  0  0  0  0  0  0  0  0  0
    0.9805   -0.6835   -2.1096 C   0  0  0  0  0  0  0  0  0  0  0  0
    1.3923   -0.1146   -0.7695 C   0  0  2  0  0  0  0  0  0  0  0  0
    2.1762   -1.0815   -0.0910 N   0  0  0  0  0  0  0  0  0  0  0  0
    3.5822   -0.8988    0.0228 C   0  0  0  0  0  0  0  0  0  0  0  0
    4.0370    0.2331   -0.4222 O   0  0  0  0  0  0  0  0  0  0  0  0
    4.6103   -1.7937    0.5520 C   0  0  2  0  0  0  0  0  0  0  0  0
    4.0931   -2.9731    1.3706 C   0  0  0  0  0  0  0  0  0  0  0  0
    5.1321   -3.9683    1.5972 C   0  0  0  0  0  0  0  0  0  0  0  0
    6.0577   -4.0269    2.5835 C   0  0  0  0  0  0  0  0  0  0  0  0
    7.0647   -5.0201    2.6569 C   0  0  0  0  0  0  0  0  0  0  0  0
    7.1096   -5.9707    1.6867 C   0  0  0  0  0  0  0  0  0  0  0  0
    6.2026   -5.9352    0.7029 C   0  0  0  0  0  0  0  0  0  0  0  0
    5.2111   -4.9786    0.6127 C   0  0  0  0  0  0  0  0  0  0  0  0
    5.5836   -0.9568    1.1930 N   0  0  0  0  0  0  0  0  0  0  0  0
    6.5384   -0.3708    2.0183 C   0  0  0  0  0  0  0  0  0  0  0  0
    7.0075   -0.7383    3.1029 O   0  0  0  0  0  0  0  0  0  0  0  0
    7.0812    0.8671    1.5764 O   0  0  0  0  0  0  0  0  0  0  0  0
    8.0650    1.5250    2.3686 C   0  0  0  0  0  0  0  0  0  0  0  0
    8.1156    2.9055    1.7553 C   0  0  0  0  0  0  0  0  0  0  0  0
    8.2117    3.9832    2.5331 C   0  0  0  0  0  0  0  0  0  0  0  0
    8.1132    5.2841    2.0313 C   0  0  0  0  0  0  0  0  0  0  0  0
    7.9145    5.4119    0.6625 C   0  0  0  0  0  0  0  0  0  0  0  0
    7.8154    4.2986   -0.1524 C   0  0  0  0  0  0  0  0  0  0  0  0
    7.9200    3.0225    0.3807 C   0  0  0  0  0  0  0  0  0  0  0  0
    0.1546    0.3698   -0.0315 C   0  0  0  0  0  0  0  0  0  0  0  0
    0.1341    0.1571    1.1913 O   0  0  0  0  0  0  0  0  0  0  0  0
   -0.8282    0.9741   -0.7691 N   0  0  0  0  0  0  0  0  0  0  0  0
   -2.1502    1.5785   -0.7147 C   0  0  1  0  0  0  0  0  0  0  0  0
   -2.5609    1.5036   -2.1579 C   0  0  0  0  0  0  0  0  0  0  0  0
   -3.7818    1.8593   -2.7628 C   0  0  0  0  0  0  0  0  0  0  0  0
   -4.7002    0.8537   -3.0927 C   0  0  0  0  0  0  0  0  0  0  0  0
   -5.8675    1.2143   -3.7214 C   0  0  0  0  0  0  0  0  0  0  0  0
   -6.1454    2.5168   -4.0253 C   0  0  0  0  0  0  0  0  0  0  0  0
   -5.2667    3.5188   -3.7161 C   0  0  0  0  0  0  0  0  0  0  0  0
   -4.0988    3.1454   -3.0871 C   0  0  0  0  0  0  0  0  0  0  0  0
   -3.0634    0.8735    0.2139 C   0  0  0  0  0  0  0  0  0  0  0  0
   -2.5058   -0.1324    0.7613 O   0  0  0  0  0  0  0  0  0  0  0  0
   -4.4575    1.1648    0.5648 C   0  0  2  0  0  0  0  0  0  0  0  0
   -4.8368    1.9768    1.7058 C   0  0  0  0  0  0  0  0  0  0  0  0
   -4.4366    3.4388    1.7176 C   0  0  0  0  0  0  0  0  0  0  0  0
   -5.0018    4.0666    2.9974 C   0  0  0  0  0  0  0  0  0  0  0  0
   -5.0829    4.2005    0.5758 C   0  0  0  0  0  0  0  0  0  0  0  0
   -5.1339   -0.1353    0.5517 N   0  0  0  0  0  0  0  0  0  0  0  0
   -5.0908   -1.4204    0.5916 C   0  0  0  0  0  0  0  0  0  0  0  0
   -4.1519   -2.2785    0.7352 O   0  0  0  0  0  0  0  0  0  0  0  0
   -6.4071   -2.1800    0.4238 C   0  0  0  0  0  0  0  0  0  0  0  0
   -7.3490   -2.0817    1.3658 C   0  0  0  0  0  0  0  0  0  0  0  0
   -8.5902   -2.6543    1.1270 C   0  0  0  0  0  0  0  0  0  0  0  0
   -8.8309   -3.3203   -0.0914 C   0  0  0  0  0  0  0  0  0  0  0  0
   -7.8179   -3.3964   -1.0304 C   0  0  0  0  0  0  0  0  0  0  0  0
   -6.5634   -2.8139   -0.7761 C   0  0  0  0  0  0  0  0  0  0  0  0
    0.1769   -1.3585   -4.2905 H   0  0  0  0  0  0  0  0  0  0  0  0
   -1.2665   -2.3810   -3.7889 H   0  0  0  0  0  0  0  0  0  0  0  0
    0.3962   -3.0775   -3.8846 H   0  0  0  0  0  0  0  0  0  0  0  0
   -0.9383   -1.5571   -1.7404 H   0  0  0  0  0  0  0  0  0  0  0  0
    0.1163   -3.3430   -0.5519 H   0  0  0  0  0  0  0  0  0  0  0  0
    0.1906   -3.9750   -2.2296 H   0  0  0  0  0  0  0  0  0  0  0  0
    1.6399   -3.2610   -1.4916 H   0  0  0  0  0  0  0  0  0  0  0  0
    1.9963   -1.0677   -2.5822 H   0  0  0  0  0  0  0  0  0  0  0  0
    0.7252    0.0948   -2.8068 H   0  0  0  0  0  0  0  0  0  0  0  0
    1.9902    0.8245   -0.9467 H   0  0  0  0  0  0  0  0  0  0  0  0
    1.7724   -1.9019    0.3747 H   0  0  0  0  0  0  0  0  0  0  0  0
    5.1646   -2.2861   -0.3046 H   0  0  0  0  0  0  0  0  0  0  0  0
    3.8779   -2.5462    2.4204 H   0  0  0  0  0  0  0  0  0  0  0  0
    3.1323   -3.3438    1.0644 H   0  0  0  0  0  0  0  0  0  0  0  0
    6.1085   -3.3436    3.4282 H   0  0  0  0  0  0  0  0  0  0  0  0
    7.7493   -4.9987    3.4820 H   0  0  0  0  0  0  0  0  0  0  0  0
    7.8826   -6.7507    1.7139 H   0  0  0  0  0  0  0  0  0  0  0  0
    6.2566   -6.7517   -0.0660 H   0  0  0  0  0  0  0  0  0  0  0  0
    4.5284   -5.0285   -0.1903 H   0  0  0  0  0  0  0  0  0  0  0  0
    5.2490   -1.6746    2.3527 H   0  0  0  0  0  0  0  0  0  0  0  0
    9.0793    1.1218    2.1824 H   0  0  0  0  0  0  0  0  0  0  0  0
    7.8543    1.5939    3.4171 H   0  0  0  0  0  0  0  0  0  0  0  0
    8.3564    3.8891    3.6205 H   0  0  0  0  0  0  0  0  0  0  0  0
    8.1820    6.1270    2.6593 H   0  0  0  0  0  0  0  0  0  0  0  0
    7.8179    6.3832    0.1988 H   0  0  0  0  0  0  0  0  0  0  0  0
    7.6536    4.4834   -1.2192 H   0  0  0  0  0  0  0  0  0  0  0  0
    7.8466    2.1706   -0.2636 H   0  0  0  0  0  0  0  0  0  0  0  0
   -0.4374    1.0972   -1.8425 H   0  0  0  0  0  0  0  0  0  0  0  0
   -2.0131    2.6209   -0.3429 H   0  0  0  0  0  0  0  0  0  0  0  0
   -2.2932    0.3831   -2.4250 H   0  0  0  0  0  0  0  0  0  0  0  0
   -1.6584    1.9900   -2.6987 H   0  0  0  0  0  0  0  0  0  0  0  0
   -4.5651   -0.1742   -2.8760 H   0  0  0  0  0  0  0  0  0  0  0  0
   -6.6079    0.4289   -3.9780 H   0  0  0  0  0  0  0  0  0  0  0  0
   -7.0997    2.7767   -4.5258 H   0  0  0  0  0  0  0  0  0  0  0  0
   -5.4675    4.5789   -3.9671 H   0  0  0  0  0  0  0  0  0  0  0  0
   -3.4085    3.9880   -2.8714 H   0  0  0  0  0  0  0  0  0  0  0  0
   -4.8993    1.6548   -0.3906 H   0  0  0  0  0  0  0  0  0  0  0  0
   -4.3542    1.5680    2.6748 H   0  0  0  0  0  0  0  0  0  0  0  0
   -5.9286    1.9502    1.9941 H   0  0  0  0  0  0  0  0  0  0  0  0
   -3.3646    3.6257    1.6868 H   0  0  0  0  0  0  0  0  0  0  0  0
   -5.7896    3.3941    3.4018 H   0  0  0  0  0  0  0  0  0  0  0  0
   -4.2272    4.1474    3.7830 H   0  0  0  0  0  0  0  0  0  0  0  0
   -5.5090    5.0511    2.8060 H   0  0  0  0  0  0  0  0  0  0  0  0
   -6.0893    3.8174    0.3257 H   0  0  0  0  0  0  0  0  0  0  0  0
   -5.2114    5.2709    0.9406 H   0  0  0  0  0  0  0  0  0  0  0  0
   -4.3998    4.3194   -0.2867 H   0  0  0  0  0  0  0  0  0  0  0  0
   -6.2664    0.2220    0.4853 H   0  0  0  0  0  0  0  0  0  0  0  0
   -7.1342   -1.5761    2.3193 H   0  0  0  0  0  0  0  0  0  0  0  0
   -9.3572   -2.5890    1.8628 H   0  0  0  0  0  0  0  0  0  0  0  0
   -9.7865   -3.7455   -0.2912 H   0  0  0  0  0  0  0  0  0  0  0  0
   -7.9671   -3.8903   -1.9606 H   0  0  0  0  0  0  0  0  0  0  0  0
   -5.7453   -2.8512   -1.4838 H   0  0  0  0  0  0  0  0  0  0  0  0
  1  2  1  0
  2  3  1  0
  2  4  1  0
  4  5  1  0
  5  6  1  0
  6  7  1  0
  7  8  2  0
  7  9  1  0
  9 10  1  0
 10 11  1  0
 11 12  2  0
 12 13  1  0
 13 14  2  0
 14 15  1  0
 15 16  2  0
  9 17  1  0
 17 18  1  0
 18 19  2  0
 18 20  1  0
 20 21  1  0
 21 22  1  0
 22 23  2  0
 23 24  1  0
 24 25  2  0
 25 26  1  0
 26 27  2  0
  5 28  1  0
 28 29  2  0
 28 30  1  0
 30 31  1  0
 31 32  1  0
 32 33  1  0
 33 34  2  0
 34 35  1  0
 35 36  2  0
 36 37  1  0
 37 38  2  0
 31 39  1  0
 39 40  2  0
 39 41  1  0
 41 42  1  0
 42 43  1  0
 43 44  1  0
 43 45  1  0
 41 46  1  0
 46 47  1  0
 47 48  2  0
 47 49  1  0
 49 50  2  0
 50 51  1  0
 51 52  2  0
 52 53  1  0
 53 54  2  0
 16 11  1  0
 27 22  1  0
 38 33  1  0
 54 49  1  0
  1 55  1  0
  1 56  1  0
  1 57  1  0
  2 58  1  0
  3 59  1  0
  3 60  1  0
  3 61  1  0
  4 62  1  0
  4 63  1  0
  5 64  1  6
  6 65  1  0
  9 66  1  6
 10 67  1  0
 10 68  1  0
 12 69  1  0
 13 70  1  0
 14 71  1  0
 15 72  1  0
 16 73  1  0
 17 74  1  0
 21 75  1  0
 21 76  1  0
 23 77  1  0
 24 78  1  0
 25 79  1  0
 26 80  1  0
 27 81  1  0
 30 82  1  0
 31 83  1  1
 32 84  1  0
 32 85  1  0
 34 86  1  0
 35 87  1  0
 36 88  1  0
 37 89  1  0
 38 90  1  0
 41 91  1  6
 42 92  1  0
 42 93  1  0
 43 94  1  0
 44 95  1  0
 44 96  1  0
 44 97  1  0
 45 98  1  0
 45 99  1  0
 45100  1  0
 46101  1  0
 50102  1  0
 51103  1  0
 52104  1  0
 53105  1  0
 54106  1  0
M  END
$$$$
[H]c1c([H])c(S(=O)(=O)N([H])[H])c([H])c([H])c1-c1nc2c(c([H])nn2-c2c([H])c([H])c(C([H])([H])[H])c([H])c2[H])c(=O)n1[H]
     RDKit          3D

 42 45  0  0  0  0  0  0  0  0999 V2000
    3.9382    1.6772    0.7801 C   0  0  0  0  0  0  0  0  0  0  0  0
    5.2261    2.2283    1.8260 S   0  0  0  0  0  0  0  0  0  0  0  0
    4.6482    2.8188    3.1043 O   0  0  0  0  0  0  0  0  0  0  0  0
    6.0600    3.2890    1.1449 O   0  0  0  0  0  0  0  0  0  0  0  0
    6.2609    0.9276    2.2509 N   0  0  0  0  0  0  0  0  0  0  0  0
    4.1223    1.6931   -0.5780 C   0  0  0  0  0  0  0  0  0  0  0  0
    3.0914    1.2518   -1.4211 C   0  0  0  0  0  0  0  0  0  0  0  0
    1.9027    0.8043   -0.9181 C   0  0  0  0  0  0  0  0  0  0  0  0
    0.8206    0.3421   -1.7786 C   0  0  0  0  0  0  0  0  0  0  0  0
    0.9087    0.3210   -3.1173 N   0  0  0  0  0  0  0  0  0  0  0  0
   -0.0968   -0.1092   -3.9314 C   0  0  0  0  0  0  0  0  0  0  0  0
    0.0160   -0.1168   -5.1790 O   0  0  0  0  0  0  0  0  0  0  0  0
   -1.2691   -0.5481   -3.3787 C   0  0  0  0  0  0  0  0  0  0  0  0
   -1.3518   -0.5233   -2.0031 C   0  0  0  0  0  0  0  0  0  0  0  0
   -0.3509   -0.0965   -1.2244 N   0  0  0  0  0  0  0  0  0  0  0  0
   -2.5745   -0.9892   -1.6226 N   0  0  0  0  0  0  0  0  0  0  0  0
   -3.0334   -1.1138   -0.2736 C   0  0  0  0  0  0  0  0  0  0  0  0
   -2.7238   -2.1980    0.5225 C   0  0  0  0  0  0  0  0  0  0  0  0
   -3.1803   -2.2924    1.8212 C   0  0  0  0  0  0  0  0  0  0  0  0
   -3.9661   -1.3165    2.3939 C   0  0  0  0  0  0  0  0  0  0  0  0
   -4.4549   -1.4309    3.8042 C   0  0  0  0  0  0  0  0  0  0  0  0
   -4.2775   -0.2326    1.6027 C   0  0  0  0  0  0  0  0  0  0  0  0
   -3.8208   -0.1380    0.3034 C   0  0  0  0  0  0  0  0  0  0  0  0
   -3.2125   -1.2870   -2.7357 N   0  0  0  0  0  0  0  0  0  0  0  0
   -2.4686   -1.0392   -3.8226 C   0  0  0  0  0  0  0  0  0  0  0  0
    1.7396    0.7969    0.4446 C   0  0  0  0  0  0  0  0  0  0  0  0
    2.7514    1.2315    1.3061 C   0  0  0  0  0  0  0  0  0  0  0  0
    6.0208    0.5498    3.1947 H   0  0  0  0  0  0  0  0  0  0  0  0
    6.2404    0.1896    1.5332 H   0  0  0  0  0  0  0  0  0  0  0  0
    5.0650    2.0485   -0.9648 H   0  0  0  0  0  0  0  0  0  0  0  0
    3.2698    1.2783   -2.4705 H   0  0  0  0  0  0  0  0  0  0  0  0
    1.7629    0.6377   -3.5925 H   0  0  0  0  0  0  0  0  0  0  0  0
   -2.1065   -2.9763    0.0894 H   0  0  0  0  0  0  0  0  0  0  0  0
   -2.9370   -3.1525    2.4585 H   0  0  0  0  0  0  0  0  0  0  0  0
   -4.4768   -2.4788    4.1318 H   0  0  0  0  0  0  0  0  0  0  0  0
   -5.5144   -1.0493    3.7951 H   0  0  0  0  0  0  0  0  0  0  0  0
   -3.8388   -0.7898    4.4380 H   0  0  0  0  0  0  0  0  0  0  0  0
   -4.8985    0.5516    2.0366 H   0  0  0  0  0  0  0  0  0  0  0  0
   -4.0682    0.7230   -0.3249 H   0  0  0  0  0  0  0  0  0  0  0  0
   -2.7043   -1.1760   -4.8756 H   0  0  0  0  0  0  0  0  0  0  0  0
    0.8382    0.4610    0.9079 H   0  0  0  0  0  0  0  0  0  0  0  0
    2.6423    1.2333    2.3807 H   0  0  0  0  0  0  0  0  0  0  0  0
  1  2  1  0
  2  3  2  0
  2  4  2  0
  2  5  1  0
  1  6  2  0
  6  7  1  0
  7  8  2  0
  8  9  1  0
  9 10  1  0
 10 11  1  0
 11 12  2  0
 11 13  1  0
 13 14  2  0
 14 15  1  0
 14 16  1  0
 16 17  1  0
 17 18  2  0
 18 19  1  0
 19 20  2  0
 20 21  1  0
 20 22  1  0
 22 23  2  0
 16 24  1  0
 24 25  2  0
  8 26  1  0
 26 27  2  0
 27  1  1  0
 15  9  2  0
 23 17  1  0
 25 13  1  0
  5 28  1  0
  5 29  1  0
  6 30  1  0
  7 31  1  0
 10 32  1  0
 18 33  1  0
 19 34  1  0
 21 35  1  0
 21 36  1  0
 21 37  1  0
 22 38  1  0
 23 39  1  0
 25 40  1  0
 26 41  1  0
 27 42  1  0
M  END
$$$$
[H]c1nc2c(c([H])c1[H])c1c([H])c([H])c(N([H])[H])c([H])c1n2[H]
     RDKit          3D

 23 25  0  0  0  0  0  0  0  0999 V2000
    4.1835   -0.4167   -0.4563 N   0  0  0  0  0  0  0  0  0  0  0  0
    2.7824   -0.2503   -0.4206 C   0  0  0  0  0  0  0  0  0  0  0  0
    2.1030    0.1005   -1.5883 C   0  0  0  0  0  0  0  0  0  0  0  0
    0.7401    0.2618   -1.5508 C   0  0  0  0  0  0  0  0  0  0  0  0
    0.0308    0.0836   -0.3815 C   0  0  0  0  0  0  0  0  0  0  0  0
   -1.3031    0.1708   -0.0348 C   0  0  0  0  0  0  0  0  0  0  0  0
   -2.4429    0.4763   -0.7521 C   0  0  0  0  0  0  0  0  0  0  0  0
   -3.6895    0.4963   -0.1586 C   0  0  0  0  0  0  0  0  0  0  0  0
   -3.8260    0.2076    1.1825 C   0  0  0  0  0  0  0  0  0  0  0  0
   -2.7011   -0.0862    1.8565 N   0  0  0  0  0  0  0  0  0  0  0  0
   -1.4743   -0.1131    1.3042 C   0  0  0  0  0  0  0  0  0  0  0  0
   -0.2293   -0.3767    1.7799 N   0  0  0  0  0  0  0  0  0  0  0  0
    0.6763   -0.2652    0.7958 C   0  0  0  0  0  0  0  0  0  0  0  0
    2.0438   -0.4221    0.7367 C   0  0  0  0  0  0  0  0  0  0  0  0
    4.7980    0.4016   -0.4213 H   0  0  0  0  0  0  0  0  0  0  0  0
    4.5793   -1.3660   -0.5175 H   0  0  0  0  0  0  0  0  0  0  0  0
    2.7002    0.2291   -2.4784 H   0  0  0  0  0  0  0  0  0  0  0  0
    0.1976    0.5317   -2.4382 H   0  0  0  0  0  0  0  0  0  0  0  0
   -2.3165    0.7010   -1.8071 H   0  0  0  0  0  0  0  0  0  0  0  0
   -4.5774    0.7376   -0.7321 H   0  0  0  0  0  0  0  0  0  0  0  0
   -4.8104    0.2179    1.6752 H   0  0  0  0  0  0  0  0  0  0  0  0
   -0.0486   -0.6241    2.7665 H   0  0  0  0  0  0  0  0  0  0  0  0
    2.5841   -0.6953    1.6403 H   0  0  0  0  0  0  0  0  0  0  0  0
  1  2  1  0
  2  3  2  0
  3  4  1  0
  4  5  2  0
  5  6  1  0
  6  7  2  0
  7  8  1  0
  8  9  2  0
  9 10  1  0
 10 11  2  0
 11 12  1  0
 12 13  1  0
 13 14  2  0
 14  2  1  0
 13  5  1  0
 11  6  1  0
  1 15  1  0
  1 16  1  0
  3 17  1  0
  4 18  1  0
  7 19  1  0
  8 20  1  0
  9 21  1  0
 12 22  1  0
 14 23  1  0
M  END
$$$$
[H]c1sc(C(=O)OC([H])([H])C([H])([H])O[C@]([H])(N([H])[H])C([H])([H])C([H])([H])N2C(=O)[C@@]([H])(N([H])N3C(=O)c4c(c([H])c([H])n4[H])C([H])([H])C([H])(C(C([H])([H])[H])(C([H])([H])[H])C([H])([H])[H])C3=O)C([H])([H])C2([H])[H])c([H])c1[H]
     RDKit          3D

 73 76  0  0  0  0  0  0  0  0999 V2000
   -5.3275   -2.1298   -0.1111 C   0  0  0  0  0  0  0  0  0  0  0  0
   -4.9387   -1.7940   -1.5346 C   0  0  0  0  0  0  0  0  0  0  0  0
   -6.1049   -2.2514   -2.4020 C   0  0  0  0  0  0  0  0  0  0  0  0
   -3.7094   -2.5537   -1.9744 C   0  0  0  0  0  0  0  0  0  0  0  0
   -4.6791   -0.3190   -1.7155 C   0  0  0  0  0  0  0  0  0  0  0  0
   -5.9192    0.4957   -1.3887 C   0  0  0  0  0  0  0  0  0  0  0  0
   -5.8407    1.8346   -2.0274 C   0  0  0  0  0  0  0  0  0  0  0  0
   -6.7510    2.4289   -2.8706 C   0  0  0  0  0  0  0  0  0  0  0  0
   -6.2398    3.6707   -3.1957 C   0  0  0  0  0  0  0  0  0  0  0  0
   -5.0481    3.8549   -2.5797 N   0  0  0  0  0  0  0  0  0  0  0  0
   -4.7979    2.7343   -1.8627 C   0  0  0  0  0  0  0  0  0  0  0  0
   -3.5813    2.5716   -1.0535 C   0  0  0  0  0  0  0  0  0  0  0  0
   -2.7788    3.5402   -0.9759 O   0  0  0  0  0  0  0  0  0  0  0  0
   -3.2082    1.3810   -0.3200 N   0  0  0  0  0  0  0  0  0  0  0  0
   -3.5883    0.0546   -0.7495 C   0  0  0  0  0  0  0  0  0  0  0  0
   -2.9017   -0.8567   -0.2302 O   0  0  0  0  0  0  0  0  0  0  0  0
   -2.4896    1.5287    0.8116 N   0  0  0  0  0  0  0  0  0  0  0  0
   -1.1438    1.8996    0.8109 C   0  0  1  0  0  0  0  0  0  0  0  0
   -0.6916    1.8942    2.3035 C   0  0  0  0  0  0  0  0  0  0  0  0
   -0.3570    0.4071    2.4861 C   0  0  0  0  0  0  0  0  0  0  0  0
    0.4905    0.2306    1.2865 N   0  0  0  0  0  0  0  0  0  0  0  0
    1.7637   -0.4961    1.2924 C   0  0  0  0  0  0  0  0  0  0  0  0
    2.8950    0.4556    1.6903 C   0  0  0  0  0  0  0  0  0  0  0  0
    4.2152   -0.2911    1.7415 C   0  0  2  0  0  0  0  0  0  0  0  0
    4.0906   -1.3015    2.6527 O   0  0  0  0  0  0  0  0  0  0  0  0
    4.5617   -2.5240    2.2794 C   0  0  0  0  0  0  0  0  0  0  0  0
    6.0334   -2.5637    2.1346 C   0  0  0  0  0  0  0  0  0  0  0  0
    6.6058   -1.7036    1.1954 O   0  0  0  0  0  0  0  0  0  0  0  0
    7.9753   -1.6376    0.9781 C   0  0  0  0  0  0  0  0  0  0  0  0
    8.7158   -2.3799    1.6486 O   0  0  0  0  0  0  0  0  0  0  0  0
    8.4863   -0.7055   -0.0217 C   0  0  0  0  0  0  0  0  0  0  0  0
    7.7906    0.1559   -0.8227 C   0  0  0  0  0  0  0  0  0  0  0  0
    8.4928    0.9209   -1.6624 C   0  0  0  0  0  0  0  0  0  0  0  0
    9.8547    0.7871   -1.6605 C   0  0  0  0  0  0  0  0  0  0  0  0
   10.1084   -0.4180   -0.4699 S   0  0  0  0  0  0  0  0  0  0  0  0
    5.1601    0.6695    2.3355 N   0  0  0  0  0  0  0  0  0  0  0  0
   -0.1819    0.9068    0.2459 C   0  0  0  0  0  0  0  0  0  0  0  0
    0.0112    0.6949   -0.9740 O   0  0  0  0  0  0  0  0  0  0  0  0
   -5.4279   -1.2104    0.5301 H   0  0  0  0  0  0  0  0  0  0  0  0
   -4.5817   -2.8065    0.3739 H   0  0  0  0  0  0  0  0  0  0  0  0
   -6.2989   -2.6542   -0.0272 H   0  0  0  0  0  0  0  0  0  0  0  0
   -7.0276   -2.4252   -1.8095 H   0  0  0  0  0  0  0  0  0  0  0  0
   -5.8345   -3.2404   -2.8167 H   0  0  0  0  0  0  0  0  0  0  0  0
   -6.2700   -1.5692   -3.2557 H   0  0  0  0  0  0  0  0  0  0  0  0
   -3.2263   -3.1184   -1.1428 H   0  0  0  0  0  0  0  0  0  0  0  0
   -2.9329   -1.9205   -2.4373 H   0  0  0  0  0  0  0  0  0  0  0  0
   -3.9586   -3.3235   -2.7466 H   0  0  0  0  0  0  0  0  0  0  0  0
   -4.3928   -0.1506   -2.7682 H   0  0  0  0  0  0  0  0  0  0  0  0
   -6.8196   -0.0235   -1.7775 H   0  0  0  0  0  0  0  0  0  0  0  0
   -5.9556    0.5829   -0.2751 H   0  0  0  0  0  0  0  0  0  0  0  0
   -7.6708    1.9711   -3.1856 H   0  0  0  0  0  0  0  0  0  0  0  0
   -6.7033    4.4127   -3.8481 H   0  0  0  0  0  0  0  0  0  0  0  0
   -4.4210    4.6906   -2.6302 H   0  0  0  0  0  0  0  0  0  0  0  0
   -2.8120    0.9216    1.5691 H   0  0  0  0  0  0  0  0  0  0  0  0
   -0.8677    2.8686    0.3606 H   0  0  0  0  0  0  0  0  0  0  0  0
   -1.5330    2.1474    2.9645 H   0  0  0  0  0  0  0  0  0  0  0  0
    0.1862    2.5242    2.4400 H   0  0  0  0  0  0  0  0  0  0  0  0
    0.1911    0.2109    3.4061 H   0  0  0  0  0  0  0  0  0  0  0  0
   -1.2821   -0.1658    2.3546 H   0  0  0  0  0  0  0  0  0  0  0  0
    1.6612   -1.3257    1.9915 H   0  0  0  0  0  0  0  0  0  0  0  0
    1.9683   -0.8658    0.2839 H   0  0  0  0  0  0  0  0  0  0  0  0
    3.0181    1.2204    0.9020 H   0  0  0  0  0  0  0  0  0  0  0  0
    2.6813    0.9178    2.6524 H   0  0  0  0  0  0  0  0  0  0  0  0
    4.5971   -0.5395    0.7625 H   0  0  0  0  0  0  0  0  0  0  0  0
    4.1852   -3.3255    2.9602 H   0  0  0  0  0  0  0  0  0  0  0  0
    4.1224   -2.7746    1.2811 H   0  0  0  0  0  0  0  0  0  0  0  0
    6.3671   -3.6349    1.9869 H   0  0  0  0  0  0  0  0  0  0  0  0
    6.5367   -2.2974    3.1201 H   0  0  0  0  0  0  0  0  0  0  0  0
    6.6795    0.1994   -0.7575 H   0  0  0  0  0  0  0  0  0  0  0  0
    8.0347    1.6602   -2.3640 H   0  0  0  0  0  0  0  0  0  0  0  0
   10.5920    1.3318   -2.2815 H   0  0  0  0  0  0  0  0  0  0  0  0
    5.4941    1.3451    1.5931 H   0  0  0  0  0  0  0  0  0  0  0  0
    4.7289    1.1752    3.1464 H   0  0  0  0  0  0  0  0  0  0  0  0
  1  2  1  0
  2  3  1  0
  2  4  1  0
  2  5  1  0
  5  6  1  0
  6  7  1  0
  7  8  1  0
  8  9  2  0
  9 10  1  0
 10 11  1  0
 11 12  1  0
 12 13  2  0
 12 14  1  0
 14 15  1  0
 15 16  2  0
 14 17  1  0
 17 18  1  0
 18 19  1  0
 19 20  1  0
 20 21  1  0
 21 22  1  0
 22 23  1  0
 23 24  1  0
 24 25  1  0
 25 26  1  0
 26 27  1  0
 27 28  1  0
 28 29  1  0
 29 30  2  0
 29 31  1  0
 31 32  2  0
 32 33  1  0
 33 34  2  0
 34 35  1  0
 24 36  1  0
 21 37  1  0
 37 38  2  0
 15  5  1  0
 37 18  1  0
 11  7  2  0
 35 31  1  0
  1 39  1  0
  1 40  1  0
  1 41  1  0
  3 42  1  0
  3 43  1  0
  3 44  1  0
  4 45  1  0
  4 46  1  0
  4 47  1  0
  5 48  1  0
  6 49  1  0
  6 50  1  0
  8 51  1  0
  9 52  1  0
 10 53  1  0
 17 54  1  0
 18 55  1  6
 19 56  1  0
 19 57  1  0
 20 58  1  0
 20 59  1  0
 22 60  1  0
 22 61  1  0
 23 62  1  0
 23 63  1  0
 24 64  1  6
 26 65  1  0
 26 66  1  0
 27 67  1  0
 27 68  1  0
 32 69  1  0
 33 70  1  0
 34 71  1  0
 36 72  1  0
 36 73  1  0
M  END
$$$$
[H]N=C(N([H])[H])N([H])C([H])([H])C([H])([H])C([H])([H])[C@@]1([H])C(=O)N2C([H])([H])C([H])([H])C([H])([H])[C@@]2([H])C(=O)N([H])[C@@]([H])(C([H])([H])C([H])([H])C(=O)O[H])C(=O)N2C([H])([H])C([H])([H])C([H])([H])[C@@]2([H])C(=O)N1[H]
     RDKit          3D

 67 69  0  0  0  0  0  0  0  0999 V2000
   -7.6427    1.1354   -0.1302 N   0  0  0  0  0  0  0  0  0  0  0  0
   -6.7424    0.1765    0.3649 C   0  0  0  0  0  0  0  0  0  0  0  0
   -6.3716    0.2300    1.5905 N   0  0  0  0  0  0  0  0  0  0  0  0
   -6.2478   -0.8428   -0.4641 N   0  0  0  0  0  0  0  0  0  0  0  0
   -5.1836   -0.5612   -1.3903 C   0  0  0  0  0  0  0  0  0  0  0  0
   -3.8780   -0.2630   -0.6448 C   0  0  0  0  0  0  0  0  0  0  0  0
   -2.7784    0.0223   -1.6220 C   0  0  0  0  0  0  0  0  0  0  0  0
   -1.4432    0.3362   -0.9201 C   0  0  2  0  0  0  0  0  0  0  0  0
   -1.1442   -0.8485   -0.1472 N   0  0  0  0  0  0  0  0  0  0  0  0
   -0.1409   -1.7873   -0.4443 C   0  0  0  0  0  0  0  0  0  0  0  0
   -0.2916   -2.9638   -0.0404 O   0  0  0  0  0  0  0  0  0  0  0  0
    1.0896   -1.4666   -1.2106 C   0  0  2  0  0  0  0  0  0  0  0  0
    1.1378   -2.4756   -2.3546 C   0  0  0  0  0  0  0  0  0  0  0  0
    1.7526   -3.6593   -1.6903 C   0  0  0  0  0  0  0  0  0  0  0  0
    2.4023   -3.2268   -0.4118 C   0  0  0  0  0  0  0  0  0  0  0  0
    2.2681   -1.7521   -0.4153 N   0  0  0  0  0  0  0  0  0  0  0  0
    3.0412   -0.7301    0.1828 C   0  0  0  0  0  0  0  0  0  0  0  0
    3.4816   -1.0352    1.3589 O   0  0  0  0  0  0  0  0  0  0  0  0
    3.4078    0.5683   -0.3090 C   0  0  2  0  0  0  0  0  0  0  0  0
    4.7861    1.0001    0.2737 C   0  0  0  0  0  0  0  0  0  0  0  0
    5.8406    0.0378   -0.1467 C   0  0  0  0  0  0  0  0  0  0  0  0
    7.1220    0.5022    0.4507 C   0  0  0  0  0  0  0  0  0  0  0  0
    8.2591    0.7052   -0.3321 O   0  0  0  0  0  0  0  0  0  0  0  0
    7.1606    0.7137    1.6954 O   0  0  0  0  0  0  0  0  0  0  0  0
    2.5892    1.7076   -0.2458 N   0  0  0  0  0  0  0  0  0  0  0  0
    1.3275    2.0899    0.1333 C   0  0  0  0  0  0  0  0  0  0  0  0
    0.6462    2.6823   -0.8126 O   0  0  0  0  0  0  0  0  0  0  0  0
    0.5196    2.0196    1.3289 C   0  0  2  0  0  0  0  0  0  0  0  0
    0.7610    1.0269    2.3779 C   0  0  0  0  0  0  0  0  0  0  0  0
   -0.4078    1.3554    3.3253 C   0  0  0  0  0  0  0  0  0  0  0  0
   -1.3990    2.1615    2.4842 C   0  0  0  0  0  0  0  0  0  0  0  0
   -0.9144    1.8664    1.1196 N   0  0  0  0  0  0  0  0  0  0  0  0
   -1.5795    1.5459   -0.0798 C   0  0  0  0  0  0  0  0  0  0  0  0
   -2.4322    2.4077   -0.5325 O   0  0  0  0  0  0  0  0  0  0  0  0
   -7.7989    1.2758   -1.1684 H   0  0  0  0  0  0  0  0  0  0  0  0
   -8.2006    1.7546    0.5074 H   0  0  0  0  0  0  0  0  0  0  0  0
   -6.7335    0.9847    2.2294 H   0  0  0  0  0  0  0  0  0  0  0  0
   -6.6871   -1.7894   -0.3629 H   0  0  0  0  0  0  0  0  0  0  0  0
   -5.0532   -1.4848   -2.0279 H   0  0  0  0  0  0  0  0  0  0  0  0
   -5.4685    0.2737   -2.0632 H   0  0  0  0  0  0  0  0  0  0  0  0
   -3.6713   -1.1452   -0.0239 H   0  0  0  0  0  0  0  0  0  0  0  0
   -4.0655    0.6497   -0.0473 H   0  0  0  0  0  0  0  0  0  0  0  0
   -3.0399    0.8339   -2.3316 H   0  0  0  0  0  0  0  0  0  0  0  0
   -2.5954   -0.8697   -2.2226 H   0  0  0  0  0  0  0  0  0  0  0  0
   -0.7408    0.4429   -1.7783 H   0  0  0  0  0  0  0  0  0  0  0  0
   -1.7683   -0.9763    0.7089 H   0  0  0  0  0  0  0  0  0  0  0  0
    1.0815   -0.4500   -1.6242 H   0  0  0  0  0  0  0  0  0  0  0  0
    1.6909   -2.0947   -3.2379 H   0  0  0  0  0  0  0  0  0  0  0  0
    0.0867   -2.7287   -2.6333 H   0  0  0  0  0  0  0  0  0  0  0  0
    2.4937   -4.0872   -2.4141 H   0  0  0  0  0  0  0  0  0  0  0  0
    1.0187   -4.5004   -1.5460 H   0  0  0  0  0  0  0  0  0  0  0  0
    3.4635   -3.5486   -0.4556 H   0  0  0  0  0  0  0  0  0  0  0  0
    1.9950   -3.6787    0.4983 H   0  0  0  0  0  0  0  0  0  0  0  0
    3.7217    0.4292   -1.4219 H   0  0  0  0  0  0  0  0  0  0  0  0
    5.0095    2.0116   -0.0610 H   0  0  0  0  0  0  0  0  0  0  0  0
    4.6647    0.9861    1.3778 H   0  0  0  0  0  0  0  0  0  0  0  0
    5.6477   -0.9843    0.1927 H   0  0  0  0  0  0  0  0  0  0  0  0
    5.9102    0.0627   -1.2677 H   0  0  0  0  0  0  0  0  0  0  0  0
    8.4049    1.6233   -0.7460 H   0  0  0  0  0  0  0  0  0  0  0  0
    3.1882    2.5542   -0.6569 H   0  0  0  0  0  0  0  0  0  0  0  0
    0.5543    3.0405    1.8859 H   0  0  0  0  0  0  0  0  0  0  0  0
    1.7328    1.2430    2.9079 H   0  0  0  0  0  0  0  0  0  0  0  0
    0.6635   -0.0268    2.1415 H   0  0  0  0  0  0  0  0  0  0  0  0
   -0.8810    0.4582    3.7350 H   0  0  0  0  0  0  0  0  0  0  0  0
    0.0031    1.9783    4.1463 H   0  0  0  0  0  0  0  0  0  0  0  0
   -2.3984    1.8426    2.7050 H   0  0  0  0  0  0  0  0  0  0  0  0
   -1.2241    3.2411    2.7131 H   0  0  0  0  0  0  0  0  0  0  0  0
  1  2  1  0
  2  3  2  3
  2  4  1  0
  4  5  1  0
  5  6  1  0
  6  7  1  0
  7  8  1  0
  8  9  1  0
  9 10  1  0
 10 11  2  0
 10 12  1  0
 12 13  1  0
 13 14  1  0
 14 15  1  0
 15 16  1  0
 16 17  1  0
 17 18  2  0
 17 19  1  0
 19 20  1  0
 20 21  1  0
 21 22  1  0
 22 23  1  0
 22 24  2  0
 19 25  1  0
 25 26  1  0
 26 27  2  0
 26 28  1  0
 28 29  1  0
 29 30  1  0
 30 31  1  0
 31 32  1  0
 32 33  1  0
 33 34  2  0
 33  8  1  0
 16 12  1  0
 32 28  1  0
  1 35  1  0
  1 36  1  0
  3 37  1  0
  4 38  1  0
  5 39  1  0
  5 40  1  0
  6 41  1  0
  6 42  1  0
  7 43  1  0
  7 44  1  0
  8 45  1  6
  9 46  1  0
 12 47  1  6
 13 48  1  0
 13 49  1  0
 14 50  1  0
 14 51  1  0
 15 52  1  0
 15 53  1  0
 19 54  1  6
 20 55  1  0
 20 56  1  0
 21 57  1  0
 21 58  1  0
 23 59  1  0
 25 60  1  0
 28 61  1  1
 29 62  1  0
 29 63  1  0
 30 64  1  0
 30 65  1  0
 31 66  1  0
 31 67  1  0
M  END
$$$$
[H]c1nc([H])c(C(=O)N([H])c2c([H])c([H])c(C(=O)N([H])c3c([H])c([H])c([H])c(C([H])([H])[H])c3[H])c(Br)c2[H])c(C(F)(F)F)c1[H]
     RDKit          3D

 45 47  0  0  0  0  0  0  0  0999 V2000
    1.3457    2.9215   -1.4487 Br  0  0  0  0  0  0  0  0  0  0  0  0
    0.3631    1.5063   -0.6328 C   0  0  0  0  0  0  0  0  0  0  0  0
   -1.0337    1.5008   -0.7319 C   0  0  0  0  0  0  0  0  0  0  0  0
   -1.7822    0.4811   -0.1445 C   0  0  0  0  0  0  0  0  0  0  0  0
   -3.1977    0.5160   -0.2315 N   0  0  0  0  0  0  0  0  0  0  0  0
   -4.0421   -0.5944   -0.1222 C   0  0  0  0  0  0  0  0  0  0  0  0
   -3.5841   -1.7406    0.0467 O   0  0  0  0  0  0  0  0  0  0  0  0
   -5.5014   -0.3580   -0.2122 C   0  0  0  0  0  0  0  0  0  0  0  0
   -6.0479    0.0306   -1.4412 C   0  0  0  0  0  0  0  0  0  0  0  0
   -7.3313    0.2765   -1.5441 N   0  0  0  0  0  0  0  0  0  0  0  0
   -8.1628    0.1733   -0.5148 C   0  0  0  0  0  0  0  0  0  0  0  0
   -7.7205   -0.2054    0.7423 C   0  0  0  0  0  0  0  0  0  0  0  0
   -6.3447   -0.4694    0.8518 C   0  0  0  0  0  0  0  0  0  0  0  0
   -5.8667   -0.9084    2.1932 C   0  0  0  0  0  0  0  0  0  0  0  0
   -6.9247   -0.9184    3.1002 F   0  0  0  0  0  0  0  0  0  0  0  0
   -4.9284   -0.0832    2.7499 F   0  0  0  0  0  0  0  0  0  0  0  0
   -5.4478   -2.2480    2.1950 F   0  0  0  0  0  0  0  0  0  0  0  0
   -1.0805   -0.5091    0.5307 C   0  0  0  0  0  0  0  0  0  0  0  0
    0.3025   -0.4962    0.6222 C   0  0  0  0  0  0  0  0  0  0  0  0
    1.0199    0.5175    0.0408 C   0  0  0  0  0  0  0  0  0  0  0  0
    2.4790    0.4236    0.1688 C   0  0  0  0  0  0  0  0  0  0  0  0
    2.9549    0.7690    1.2841 O   0  0  0  0  0  0  0  0  0  0  0  0
    3.2839   -0.0303   -0.8848 N   0  0  0  0  0  0  0  0  0  0  0  0
    4.6910   -0.1699   -0.8339 C   0  0  0  0  0  0  0  0  0  0  0  0
    5.3746   -0.5274   -2.0191 C   0  0  0  0  0  0  0  0  0  0  0  0
    6.7307   -0.7410   -2.0946 C   0  0  0  0  0  0  0  0  0  0  0  0
    7.4937   -0.5995   -0.9544 C   0  0  0  0  0  0  0  0  0  0  0  0
    6.8715   -0.2497    0.2282 C   0  0  0  0  0  0  0  0  0  0  0  0
    7.6318   -0.0653    1.4870 C   0  0  0  0  0  0  0  0  0  0  0  0
    5.5065   -0.0502    0.2488 C   0  0  0  0  0  0  0  0  0  0  0  0
   -1.5122    2.2934   -1.2839 H   0  0  0  0  0  0  0  0  0  0  0  0
   -3.6207    1.4783   -0.3797 H   0  0  0  0  0  0  0  0  0  0  0  0
   -5.3363    0.1039   -2.2798 H   0  0  0  0  0  0  0  0  0  0  0  0
   -9.2442    0.3817   -0.5713 H   0  0  0  0  0  0  0  0  0  0  0  0
   -8.3665   -0.3070    1.5976 H   0  0  0  0  0  0  0  0  0  0  0  0
   -1.5571   -1.3336    1.0228 H   0  0  0  0  0  0  0  0  0  0  0  0
    0.8258   -1.3081    1.1538 H   0  0  0  0  0  0  0  0  0  0  0  0
    2.7806   -0.3224   -1.8106 H   0  0  0  0  0  0  0  0  0  0  0  0
    4.7526   -0.6158   -2.9003 H   0  0  0  0  0  0  0  0  0  0  0  0
    7.2382   -1.0091   -3.0049 H   0  0  0  0  0  0  0  0  0  0  0  0
    8.5675   -0.7637   -0.9615 H   0  0  0  0  0  0  0  0  0  0  0  0
    8.6284    0.3361    1.3340 H   0  0  0  0  0  0  0  0  0  0  0  0
    7.0207    0.5694    2.1811 H   0  0  0  0  0  0  0  0  0  0  0  0
    7.7174   -1.0591    2.0008 H   0  0  0  0  0  0  0  0  0  0  0  0
    5.0530    0.2066    1.2230 H   0  0  0  0  0  0  0  0  0  0  0  0
  1  2  1  0
  2  3  2  0
  3  4  1  0
  4  5  1  0
  5  6  1  0
  6  7  2  0
  6  8  1  0
  8  9  2  0
  9 10  1  0
 10 11  2  0
 11 12  1  0
 12 13  2  0
 13 14  1  0
 14 15  1  0
 14 16  1  0
 14 17  1  0
  4 18  2  0
 18 19  1  0
 19 20  2  0
 20 21  1  0
 21 22  2  0
 21 23  1  0
 23 24  1  0
 24 25  2  0
 25 26  1  0
 26 27  2  0
 27 28  1  0
 28 29  1  0
 28 30  2  0
 20  2  1  0
 30 24  1  0
 13  8  1  0
  3 31  1  0
  5 32  1  0
  9 33  1  0
 11 34  1  0
 12 35  1  0
 18 36  1  0
 19 37  1  0
 23 38  1  0
 25 39  1  0
 26 40  1  0
 27 41  1  0
 29 42  1  0
 29 43  1  0
 29 44  1  0
 30 45  1  0
M  END
$$$$
[H]c1nc(N([H])c2c([H])c([H])c(N3C([H])([H])C([H])([H])OC([H])([H])C3([H])[H])c([H])c2OC([H])([H])[H])nc(N([H])c2c([H])c([H])c([H])c([H])c2S(=O)(=O)C([H])(C([H])([H])[H])C([H])([H])[H])c1Cl
     RDKit          3D

 63 66  0  0  0  0  0  0  0  0999 V2000
    3.6437   -2.0120   -2.5675 C   0  0  0  0  0  0  0  0  0  0  0  0
    2.8669   -1.2961   -1.6426 O   0  0  0  0  0  0  0  0  0  0  0  0
    3.3871   -0.6019   -0.5867 C   0  0  0  0  0  0  0  0  0  0  0  0
    4.7411   -0.5811   -0.3889 C   0  0  0  0  0  0  0  0  0  0  0  0
    5.3376    0.0942    0.6493 C   0  0  0  0  0  0  0  0  0  0  0  0
    4.4934    0.7658    1.5037 C   0  0  0  0  0  0  0  0  0  0  0  0
    3.0990    0.7572    1.3183 C   0  0  0  0  0  0  0  0  0  0  0  0
    2.5112    0.0817    0.2806 C   0  0  0  0  0  0  0  0  0  0  0  0
    1.1323    0.0331    0.0429 N   0  0  0  0  0  0  0  0  0  0  0  0
    0.0772    0.6383    0.7645 C   0  0  0  0  0  0  0  0  0  0  0  0
    0.2179    1.4001    1.8494 N   0  0  0  0  0  0  0  0  0  0  0  0
   -0.7908    1.9640    2.5218 C   0  0  0  0  0  0  0  0  0  0  0  0
   -2.0564    1.7305    2.0458 C   0  0  0  0  0  0  0  0  0  0  0  0
   -3.4138    2.4314    2.8695 Cl  0  0  0  0  0  0  0  0  0  0  0  0
   -2.3023    0.9374    0.9046 C   0  0  0  0  0  0  0  0  0  0  0  0
   -3.6255    0.7548    0.5134 N   0  0  0  0  0  0  0  0  0  0  0  0
   -4.0700    0.0171   -0.5895 C   0  0  0  0  0  0  0  0  0  0  0  0
   -3.3018   -0.5769   -1.5571 C   0  0  0  0  0  0  0  0  0  0  0  0
   -3.8235   -1.2834   -2.6463 C   0  0  0  0  0  0  0  0  0  0  0  0
   -5.1784   -1.3982   -2.7697 C   0  0  0  0  0  0  0  0  0  0  0  0
   -6.0032   -0.8232   -1.8300 C   0  0  0  0  0  0  0  0  0  0  0  0
   -5.4661   -0.1344   -0.7678 C   0  0  0  0  0  0  0  0  0  0  0  0
   -6.5314    0.5722    0.4003 S   0  0  0  0  0  0  0  0  0  0  0  0
   -6.2858    0.0031    1.7748 O   0  0  0  0  0  0  0  0  0  0  0  0
   -6.4838    2.0804    0.3882 O   0  0  0  0  0  0  0  0  0  0  0  0
   -8.2264    0.1770   -0.0589 C   0  0  0  0  0  0  0  0  0  0  0  0
   -8.5676   -1.2538    0.1547 C   0  0  0  0  0  0  0  0  0  0  0  0
   -9.0737    1.0663    0.8814 C   0  0  0  0  0  0  0  0  0  0  0  0
   -1.2064    0.4429    0.3395 N   0  0  0  0  0  0  0  0  0  0  0  0
    6.7460    0.1002    0.8261 N   0  0  0  0  0  0  0  0  0  0  0  0
    7.2910    0.7873    1.9629 C   0  0  0  0  0  0  0  0  0  0  0  0
    8.7792    0.6290    2.0247 C   0  0  0  0  0  0  0  0  0  0  0  0
    9.2907    0.9121    0.7566 O   0  0  0  0  0  0  0  0  0  0  0  0
    9.0441   -0.2107   -0.0319 C   0  0  0  0  0  0  0  0  0  0  0  0
    7.6019   -0.5643   -0.1128 C   0  0  0  0  0  0  0  0  0  0  0  0
    4.2027   -2.7883   -1.9862 H   0  0  0  0  0  0  0  0  0  0  0  0
    4.3711   -1.3833   -3.1162 H   0  0  0  0  0  0  0  0  0  0  0  0
    3.0201   -2.5336   -3.3212 H   0  0  0  0  0  0  0  0  0  0  0  0
    5.4204   -1.1194   -1.0708 H   0  0  0  0  0  0  0  0  0  0  0  0
    4.9295    1.3128    2.3389 H   0  0  0  0  0  0  0  0  0  0  0  0
    2.5385    1.3094    2.0391 H   0  0  0  0  0  0  0  0  0  0  0  0
    0.8202   -0.5519   -0.8172 H   0  0  0  0  0  0  0  0  0  0  0  0
   -0.6285    2.5783    3.4023 H   0  0  0  0  0  0  0  0  0  0  0  0
   -4.3573    1.2212    1.0982 H   0  0  0  0  0  0  0  0  0  0  0  0
   -2.2238   -0.4938   -1.4844 H   0  0  0  0  0  0  0  0  0  0  0  0
   -3.1232   -1.7098   -3.3465 H   0  0  0  0  0  0  0  0  0  0  0  0
   -5.6265   -1.9476   -3.6132 H   0  0  0  0  0  0  0  0  0  0  0  0
   -7.0920   -0.9288   -1.9656 H   0  0  0  0  0  0  0  0  0  0  0  0
   -8.4110    0.5489   -1.0713 H   0  0  0  0  0  0  0  0  0  0  0  0
   -9.2714   -1.3415    1.0065 H   0  0  0  0  0  0  0  0  0  0  0  0
   -7.6703   -1.8914    0.2950 H   0  0  0  0  0  0  0  0  0  0  0  0
   -9.0847   -1.6751   -0.7504 H   0  0  0  0  0  0  0  0  0  0  0  0
   -9.0076    0.6112    1.8821 H   0  0  0  0  0  0  0  0  0  0  0  0
   -8.5582    2.0444    0.9180 H   0  0  0  0  0  0  0  0  0  0  0  0
  -10.0922    1.1558    0.5034 H   0  0  0  0  0  0  0  0  0  0  0  0
    6.8922    0.3054    2.9060 H   0  0  0  0  0  0  0  0  0  0  0  0
    7.0117    1.8662    1.9751 H   0  0  0  0  0  0  0  0  0  0  0  0
    9.1663    1.3638    2.7834 H   0  0  0  0  0  0  0  0  0  0  0  0
    9.0169   -0.4042    2.3636 H   0  0  0  0  0  0  0  0  0  0  0  0
    9.5239   -0.1191   -1.0341 H   0  0  0  0  0  0  0  0  0  0  0  0
    9.6039   -1.0477    0.4801 H   0  0  0  0  0  0  0  0  0  0  0  0
    7.2906   -0.3564   -1.1783 H   0  0  0  0  0  0  0  0  0  0  0  0
    7.4852   -1.6655    0.0961 H   0  0  0  0  0  0  0  0  0  0  0  0
  1  2  1  0
  2  3  1  0
  3  4  2  0
  4  5  1  0
  5  6  2  0
  6  7  1  0
  7  8  2  0
  8  9  1  0
  9 10  1  0
 10 11  2  0
 11 12  1  0
 12 13  2  0
 13 14  1  0
 13 15  1  0
 15 16  1  0
 16 17  1  0
 17 18  2  0
 18 19  1  0
 19 20  2  0
 20 21  1  0
 21 22  2  0
 22 23  1  0
 23 24  2  0
 23 25  2  0
 23 26  1  0
 26 27  1  0
 26 28  1  0
 15 29  2  0
  5 30  1  0
 30 31  1  0
 31 32  1  0
 32 33  1  0
 33 34  1  0
 34 35  1  0
  8  3  1  0
 29 10  1  0
 35 30  1  0
 22 17  1  0
  1 36  1  0
  1 37  1  0
  1 38  1  0
  4 39  1  0
  6 40  1  0
  7 41  1  0
  9 42  1  0
 12 43  1  0
 16 44  1  0
 18 45  1  0
 19 46  1  0
 20 47  1  0
 21 48  1  0
 26 49  1  0
 27 50  1  0
 27 51  1  0
 27 52  1  0
 28 53  1  0
 28 54  1  0
 28 55  1  0
 31 56  1  0
 31 57  1  0
 32 58  1  0
 32 59  1  0
 34 60  1  0
 34 61  1  0
 35 62  1  0
 35 63  1  0
M  END
$$$$
[H]OC(=O)c1oc(-c2c([H])c([H])c(C([H])([H])[C@]3([H])C([H])([H])C([H])([H])[C@@]([H])(n4c(=S)n([H])c5c([H])c(Cl)c([H])c([H])c54)C([H])([H])C3([H])[H])c([H])c2[H])c(C([H])([H])[H])c1[H]
     RDKit          3D

 58 62  0  0  0  0  0  0  0  0999 V2000
   -5.8559    2.9017    0.9268 C   0  0  0  0  0  0  0  0  0  0  0  0
   -6.2939    1.7555    0.0918 C   0  0  0  0  0  0  0  0  0  0  0  0
   -7.5298    1.6858   -0.5662 C   0  0  0  0  0  0  0  0  0  0  0  0
   -7.5668    0.4962   -1.2214 C   0  0  0  0  0  0  0  0  0  0  0  0
   -6.4592   -0.1099   -0.9893 O   0  0  0  0  0  0  0  0  0  0  0  0
   -5.6501    0.5957   -0.2054 C   0  0  0  0  0  0  0  0  0  0  0  0
   -4.3228    0.1168    0.2050 C   0  0  0  0  0  0  0  0  0  0  0  0
   -3.4421    0.7743    0.9970 C   0  0  0  0  0  0  0  0  0  0  0  0
   -2.1840    0.2272    1.3375 C   0  0  0  0  0  0  0  0  0  0  0  0
   -1.7774   -1.0018    0.8872 C   0  0  0  0  0  0  0  0  0  0  0  0
   -0.4690   -1.6170    1.2078 C   0  0  0  0  0  0  0  0  0  0  0  0
    0.6133   -1.3714    0.2137 C   0  0  1  0  0  0  0  0  0  0  0  0
    0.9955    0.0338   -0.0333 C   0  0  0  0  0  0  0  0  0  0  0  0
    2.3550    0.4426    0.4548 C   0  0  0  0  0  0  0  0  0  0  0  0
    3.4322   -0.5610    0.2062 C   0  0  1  0  0  0  0  0  0  0  0  0
    2.9135   -1.8566   -0.3743 C   0  0  0  0  0  0  0  0  0  0  0  0
    1.7847   -2.2751    0.5824 C   0  0  0  0  0  0  0  0  0  0  0  0
    4.5895   -0.0388   -0.4911 N   0  0  0  0  0  0  0  0  0  0  0  0
    4.6962    0.3018   -1.7969 C   0  0  0  0  0  0  0  0  0  0  0  0
    3.5206    0.2001   -2.9040 S   0  0  0  0  0  0  0  0  0  0  0  0
    5.9356    0.7500   -2.0792 N   0  0  0  0  0  0  0  0  0  0  0  0
    6.6566    0.7076   -0.9577 C   0  0  0  0  0  0  0  0  0  0  0  0
    7.9652    1.0525   -0.7145 C   0  0  0  0  0  0  0  0  0  0  0  0
    8.4700    0.9058    0.5645 C   0  0  0  0  0  0  0  0  0  0  0  0
   10.1426    1.3314    0.9350 Cl  0  0  0  0  0  0  0  0  0  0  0  0
    7.6446    0.4208    1.5441 C   0  0  0  0  0  0  0  0  0  0  0  0
    6.3466    0.0800    1.2975 C   0  0  0  0  0  0  0  0  0  0  0  0
    5.8316    0.2236    0.0184 C   0  0  0  0  0  0  0  0  0  0  0  0
   -2.6813   -1.6654    0.0803 C   0  0  0  0  0  0  0  0  0  0  0  0
   -3.9013   -1.1390   -0.2520 C   0  0  0  0  0  0  0  0  0  0  0  0
   -8.6790   -0.0080   -2.0497 C   0  0  0  0  0  0  0  0  0  0  0  0
   -8.5662   -1.2320   -2.6470 O   0  0  0  0  0  0  0  0  0  0  0  0
   -9.6907    0.6900   -2.1849 O   0  0  0  0  0  0  0  0  0  0  0  0
   -6.7256    3.6310    0.9439 H   0  0  0  0  0  0  0  0  0  0  0  0
   -5.7047    2.6120    1.9708 H   0  0  0  0  0  0  0  0  0  0  0  0
   -4.9651    3.4237    0.5318 H   0  0  0  0  0  0  0  0  0  0  0  0
   -8.2922    2.4411   -0.5451 H   0  0  0  0  0  0  0  0  0  0  0  0
   -3.6705    1.7430    1.3968 H   0  0  0  0  0  0  0  0  0  0  0  0
   -1.5425    0.8051    1.9756 H   0  0  0  0  0  0  0  0  0  0  0  0
   -0.5656   -2.7400    1.3066 H   0  0  0  0  0  0  0  0  0  0  0  0
   -0.1308   -1.2993    2.2297 H   0  0  0  0  0  0  0  0  0  0  0  0
    0.2357   -1.8305   -0.7559 H   0  0  0  0  0  0  0  0  0  0  0  0
    0.2659    0.7035    0.4602 H   0  0  0  0  0  0  0  0  0  0  0  0
    0.8639    0.2834   -1.1314 H   0  0  0  0  0  0  0  0  0  0  0  0
    2.6314    1.3738   -0.0878 H   0  0  0  0  0  0  0  0  0  0  0  0
    2.2507    0.7422    1.5209 H   0  0  0  0  0  0  0  0  0  0  0  0
    3.8124   -0.8550    1.2326 H   0  0  0  0  0  0  0  0  0  0  0  0
    3.6979   -2.6281   -0.3145 H   0  0  0  0  0  0  0  0  0  0  0  0
    2.4727   -1.7730   -1.3612 H   0  0  0  0  0  0  0  0  0  0  0  0
    2.0756   -2.1714    1.6356 H   0  0  0  0  0  0  0  0  0  0  0  0
    1.4876   -3.3204    0.3787 H   0  0  0  0  0  0  0  0  0  0  0  0
    6.2827    1.0797   -3.0239 H   0  0  0  0  0  0  0  0  0  0  0  0
    8.6367    1.4373   -1.4696 H   0  0  0  0  0  0  0  0  0  0  0  0
    8.0370    0.3025    2.5554 H   0  0  0  0  0  0  0  0  0  0  0  0
    5.6576   -0.3066    2.0380 H   0  0  0  0  0  0  0  0  0  0  0  0
   -2.3676   -2.6430   -0.2826 H   0  0  0  0  0  0  0  0  0  0  0  0
   -4.5868   -1.6908   -0.8897 H   0  0  0  0  0  0  0  0  0  0  0  0
   -8.6803   -2.1375   -2.1693 H   0  0  0  0  0  0  0  0  0  0  0  0
  1  2  1  0
  2  3  1  0
  3  4  2  0
  4  5  1  0
  5  6  1  0
  6  7  1  0
  7  8  2  0
  8  9  1  0
  9 10  2  0
 10 11  1  0
 11 12  1  0
 12 13  1  0
 13 14  1  0
 14 15  1  0
 15 16  1  0
 16 17  1  0
 15 18  1  0
 18 19  1  0
 19 20  2  0
 19 21  1  0
 21 22  1  0
 22 23  2  0
 23 24  1  0
 24 25  1  0
 24 26  2  0
 26 27  1  0
 27 28  2  0
 10 29  1  0
 29 30  2  0
  4 31  1  0
 31 32  1  0
 31 33  2  0
  6  2  2  0
 30  7  1  0
 17 12  1  0
 28 18  1  0
 28 22  1  0
  1 34  1  0
  1 35  1  0
  1 36  1  0
  3 37  1  0
  8 38  1  0
  9 39  1  0
 11 40  1  0
 11 41  1  0
 12 42  1  6
 13 43  1  0
 13 44  1  0
 14 45  1  0
 14 46  1  0
 15 47  1  1
 16 48  1  0
 16 49  1  0
 17 50  1  0
 17 51  1  0
 21 52  1  0
 23 53  1  0
 26 54  1  0
 27 55  1  0
 29 56  1  0
 30 57  1  0
 32 58  1  0
M  END
$$$$
[H]c1c([H])c(-c2c([H])c(F)c([H])c(C([H])([H])n3c(C([H])([H])C(=O)N([H])[H])nc4c([H])c(-c5c([H])c(C#N)nn5C([H])([H])[H])c([H])c([H])c43)c2[H])c([H])c([H])c1F
     RDKit          3D

 56 60  0  0  0  0  0  0  0  0999 V2000
    4.2864   -3.7484   -0.3616 C   0  0  0  0  0  0  0  0  0  0  0  0
    4.8522   -2.7522    0.5101 N   0  0  0  0  0  0  0  0  0  0  0  0
    5.9594   -3.0406    1.2342 N   0  0  0  0  0  0  0  0  0  0  0  0
    6.3227   -1.9937    1.9649 C   0  0  0  0  0  0  0  0  0  0  0  0
    5.3930   -1.0171    1.6741 C   0  0  0  0  0  0  0  0  0  0  0  0
    4.4804   -1.5138    0.7602 C   0  0  0  0  0  0  0  0  0  0  0  0
    3.3736   -0.7464    0.2327 C   0  0  0  0  0  0  0  0  0  0  0  0
    2.4135   -1.1737   -0.6442 C   0  0  0  0  0  0  0  0  0  0  0  0
    1.3867   -0.3359   -1.1003 C   0  0  0  0  0  0  0  0  0  0  0  0
    1.2805    0.9694   -0.6932 C   0  0  0  0  0  0  0  0  0  0  0  0
    0.4098    1.9802   -0.9748 N   0  0  0  0  0  0  0  0  0  0  0  0
   -0.6845    1.8498   -1.8710 C   0  0  0  0  0  0  0  0  0  0  0  0
   -1.9706    1.4074   -1.3412 C   0  0  0  0  0  0  0  0  0  0  0  0
   -2.8780    2.3598   -0.9521 C   0  0  0  0  0  0  0  0  0  0  0  0
   -4.1051    1.9979   -0.4551 C   0  0  0  0  0  0  0  0  0  0  0  0
   -5.0306    2.9225   -0.0590 F   0  0  0  0  0  0  0  0  0  0  0  0
   -4.4719    0.6757   -0.3281 C   0  0  0  0  0  0  0  0  0  0  0  0
   -3.5391   -0.2770   -0.7281 C   0  0  0  0  0  0  0  0  0  0  0  0
   -3.9401   -1.6814   -0.5902 C   0  0  0  0  0  0  0  0  0  0  0  0
   -5.2626   -2.0424   -0.7367 C   0  0  0  0  0  0  0  0  0  0  0  0
   -5.6705   -3.3715   -0.6090 C   0  0  0  0  0  0  0  0  0  0  0  0
   -4.7577   -4.3642   -0.3317 C   0  0  0  0  0  0  0  0  0  0  0  0
   -5.1430   -5.6734   -0.2035 F   0  0  0  0  0  0  0  0  0  0  0  0
   -3.4374   -4.0053   -0.1853 C   0  0  0  0  0  0  0  0  0  0  0  0
   -3.0368   -2.6864   -0.3126 C   0  0  0  0  0  0  0  0  0  0  0  0
   -2.3125    0.0899   -1.2248 C   0  0  0  0  0  0  0  0  0  0  0  0
    0.8011    3.0603   -0.2853 C   0  0  0  0  0  0  0  0  0  0  0  0
    0.1892    4.4379   -0.2344 C   0  0  0  0  0  0  0  0  0  0  0  0
   -0.5632    4.6689    1.0138 C   0  0  0  0  0  0  0  0  0  0  0  0
   -1.1997    5.8945    1.2381 N   0  0  0  0  0  0  0  0  0  0  0  0
   -0.6272    3.7610    1.8687 O   0  0  0  0  0  0  0  0  0  0  0  0
    1.9009    2.7019    0.4079 N   0  0  0  0  0  0  0  0  0  0  0  0
    2.2324    1.4213    0.1867 C   0  0  0  0  0  0  0  0  0  0  0  0
    3.2353    0.5978    0.6301 C   0  0  0  0  0  0  0  0  0  0  0  0
    7.4358   -1.8677    2.8724 C   0  0  0  0  0  0  0  0  0  0  0  0
    8.3340   -1.7513    3.5970 N   0  0  0  0  0  0  0  0  0  0  0  0
    4.9712   -4.6529   -0.3793 H   0  0  0  0  0  0  0  0  0  0  0  0
    3.2898   -4.0582   -0.0354 H   0  0  0  0  0  0  0  0  0  0  0  0
    4.2598   -3.4404   -1.4296 H   0  0  0  0  0  0  0  0  0  0  0  0
    5.4330   -0.0390    2.1275 H   0  0  0  0  0  0  0  0  0  0  0  0
    2.4207   -2.1827   -1.0067 H   0  0  0  0  0  0  0  0  0  0  0  0
    0.6821   -0.7459   -1.7871 H   0  0  0  0  0  0  0  0  0  0  0  0
   -0.8015    2.7885   -2.5016 H   0  0  0  0  0  0  0  0  0  0  0  0
   -0.4000    1.0856   -2.6586 H   0  0  0  0  0  0  0  0  0  0  0  0
   -2.6612    3.4325   -1.0254 H   0  0  0  0  0  0  0  0  0  0  0  0
   -5.4473    0.3955    0.0681 H   0  0  0  0  0  0  0  0  0  0  0  0
   -5.9930   -1.2763   -0.9554 H   0  0  0  0  0  0  0  0  0  0  0  0
   -6.7078   -3.6413   -0.7254 H   0  0  0  0  0  0  0  0  0  0  0  0
   -2.7305   -4.8140    0.0350 H   0  0  0  0  0  0  0  0  0  0  0  0
   -2.0007   -2.4397   -0.1927 H   0  0  0  0  0  0  0  0  0  0  0  0
   -1.6618   -0.7198   -1.5143 H   0  0  0  0  0  0  0  0  0  0  0  0
    1.0269    5.1859   -0.2465 H   0  0  0  0  0  0  0  0  0  0  0  0
   -0.4015    4.6362   -1.1506 H   0  0  0  0  0  0  0  0  0  0  0  0
   -1.0985    6.4142    2.1571 H   0  0  0  0  0  0  0  0  0  0  0  0
   -1.7955    6.3144    0.4767 H   0  0  0  0  0  0  0  0  0  0  0  0
    3.9593    1.0037    1.3222 H   0  0  0  0  0  0  0  0  0  0  0  0
  1  2  1  0
  2  3  1  0
  3  4  2  0
  4  5  1  0
  5  6  2  0
  6  7  1  0
  7  8  2  0
  8  9  1  0
  9 10  2  0
 10 11  1  0
 11 12  1  0
 12 13  1  0
 13 14  2  0
 14 15  1  0
 15 16  1  0
 15 17  2  0
 17 18  1  0
 18 19  1  0
 19 20  2  0
 20 21  1  0
 21 22  2  0
 22 23  1  0
 22 24  1  0
 24 25  2  0
 18 26  2  0
 11 27  1  0
 27 28  1  0
 28 29  1  0
 29 30  1  0
 29 31  2  0
 27 32  2  0
 32 33  1  0
 33 34  2  0
  4 35  1  0
 35 36  3  0
  6  2  1  0
 34  7  1  0
 33 10  1  0
 26 13  1  0
 25 19  1  0
  1 37  1  0
  1 38  1  0
  1 39  1  0
  5 40  1  0
  8 41  1  0
  9 42  1  0
 12 43  1  0
 12 44  1  0
 14 45  1  0
 17 46  1  0
 20 47  1  0
 21 48  1  0
 24 49  1  0
 25 50  1  0
 26 51  1  0
 28 52  1  0
 28 53  1  0
 30 54  1  0
 30 55  1  0
 34 56  1  0
M  END
$$$$
[H]N=C(N([H])[H])N([H])C([H])([H])C([H])([H])C([H])([H])[C@@]([H])(C(=O)N([H])[C@]([H])(C(=O)N([H])[H])C([H])([H])c1c([H])c([H])c(O[H])c([H])c1[H])N([H])C(=O)[C@@]([H])(N([H])C(=O)[C@@]([H])(N([H])C(=O)OC([H])([H])c1c([H])c([H])c([H])c([H])c1[H])C([H])([H])C([H])(C([H])([H])[H])C([H])([H])[H])C([H])([H])c1c([H])c([H])c([H])c([H])c1[H]
     RDKit          3D

103105  0  0  0  0  0  0  0  0999 V2000
    3.7243   -4.0187    2.4596 C   0  0  0  0  0  0  0  0  0  0  0  0
    3.4243   -3.3610    1.0593 C   0  0  0  0  0  0  0  0  0  0  0  0
    1.9111   -3.3349    0.9351 C   0  0  0  0  0  0  0  0  0  0  0  0
    4.0890   -2.0485    1.0279 C   0  0  0  0  0  0  0  0  0  0  0  0
    4.0778   -1.1814   -0.1730 C   0  0  2  0  0  0  0  0  0  0  0  0
    4.8855    0.0079    0.3104 N   0  0  0  0  0  0  0  0  0  0  0  0
    6.0304    0.4505   -0.3655 C   0  0  0  0  0  0  0  0  0  0  0  0
    6.4685   -0.1060   -1.4080 O   0  0  0  0  0  0  0  0  0  0  0  0
    6.7605    1.5516    0.0810 O   0  0  0  0  0  0  0  0  0  0  0  0
    7.9066    1.9882   -0.6188 C   0  0  0  0  0  0  0  0  0  0  0  0
    8.5201    3.1612    0.0033 C   0  0  0  0  0  0  0  0  0  0  0  0
    9.5166    3.0031    0.9382 C   0  0  0  0  0  0  0  0  0  0  0  0
   10.1049    4.1226    1.5483 C   0  0  0  0  0  0  0  0  0  0  0  0
    9.6870    5.3768    1.2125 C   0  0  0  0  0  0  0  0  0  0  0  0
    8.7017    5.5516    0.2885 C   0  0  0  0  0  0  0  0  0  0  0  0
    8.1166    4.4337   -0.3180 C   0  0  0  0  0  0  0  0  0  0  0  0
    2.8487   -0.6131   -0.6802 C   0  0  0  0  0  0  0  0  0  0  0  0
    2.6027    0.6086   -0.3074 O   0  0  0  0  0  0  0  0  0  0  0  0
    1.8606   -1.1662   -1.5352 N   0  0  0  0  0  0  0  0  0  0  0  0
    0.7047   -0.4051   -1.9502 C   0  0  1  0  0  0  0  0  0  0  0  0
    0.5682   -0.3177   -3.4381 C   0  0  0  0  0  0  0  0  0  0  0  0
    0.4292   -1.6158   -4.1115 C   0  0  0  0  0  0  0  0  0  0  0  0
    1.5818   -2.2659   -4.5128 C   0  0  0  0  0  0  0  0  0  0  0  0
    1.5324   -3.5042   -5.1595 C   0  0  0  0  0  0  0  0  0  0  0  0
    0.2868   -4.0527   -5.3813 C   0  0  0  0  0  0  0  0  0  0  0  0
   -0.8570   -3.3970   -4.9778 C   0  0  0  0  0  0  0  0  0  0  0  0
   -0.8107   -2.1712   -4.3375 C   0  0  0  0  0  0  0  0  0  0  0  0
   -0.5745   -0.8349   -1.3028 C   0  0  0  0  0  0  0  0  0  0  0  0
   -0.7399   -2.0664   -1.1670 O   0  0  0  0  0  0  0  0  0  0  0  0
   -1.5129    0.0953   -0.8793 N   0  0  0  0  0  0  0  0  0  0  0  0
   -2.7817   -0.0380   -0.2486 C   0  0  1  0  0  0  0  0  0  0  0  0
   -2.7934    0.4461    1.1875 C   0  0  0  0  0  0  0  0  0  0  0  0
   -1.8384   -0.3144    2.0519 C   0  0  0  0  0  0  0  0  0  0  0  0
   -2.1692   -1.7701    2.1512 C   0  0  0  0  0  0  0  0  0  0  0  0
   -1.1821   -2.4456    2.9997 N   0  0  0  0  0  0  0  0  0  0  0  0
   -1.2242   -3.8186    3.2673 C   0  0  0  0  0  0  0  0  0  0  0  0
   -1.4103   -4.7368    2.2015 N   0  0  0  0  0  0  0  0  0  0  0  0
   -1.0987   -4.2813    4.4559 N   0  0  0  0  0  0  0  0  0  0  0  0
   -3.8544    0.6571   -1.0252 C   0  0  0  0  0  0  0  0  0  0  0  0
   -3.7691    0.5984   -2.2734 O   0  0  0  0  0  0  0  0  0  0  0  0
   -4.9273    1.3618   -0.4443 N   0  0  0  0  0  0  0  0  0  0  0  0
   -5.9067    2.0011   -1.3003 C   0  0  1  0  0  0  0  0  0  0  0  0
   -7.3054    1.7135   -0.8888 C   0  0  0  0  0  0  0  0  0  0  0  0
   -7.6809    2.1275    0.4625 C   0  0  0  0  0  0  0  0  0  0  0  0
   -8.2149    3.3408    0.8283 C   0  0  0  0  0  0  0  0  0  0  0  0
   -8.5424    3.6473    2.1508 C   0  0  0  0  0  0  0  0  0  0  0  0
   -8.3372    2.7256    3.1542 C   0  0  0  0  0  0  0  0  0  0  0  0
   -8.6657    3.0358    4.4736 O   0  0  0  0  0  0  0  0  0  0  0  0
   -7.8039    1.5105    2.7960 C   0  0  0  0  0  0  0  0  0  0  0  0
   -7.4816    1.2091    1.4959 C   0  0  0  0  0  0  0  0  0  0  0  0
   -5.6314    3.4808   -1.3807 C   0  0  0  0  0  0  0  0  0  0  0  0
   -6.4358    4.3156   -2.1987 N   0  0  0  0  0  0  0  0  0  0  0  0
   -4.6892    4.0006   -0.7303 O   0  0  0  0  0  0  0  0  0  0  0  0
    3.7076   -5.1196    2.3274 H   0  0  0  0  0  0  0  0  0  0  0  0
    3.0387   -3.6235    3.2061 H   0  0  0  0  0  0  0  0  0  0  0  0
    4.7757   -3.7267    2.6603 H   0  0  0  0  0  0  0  0  0  0  0  0
    3.8821   -4.0487    0.3365 H   0  0  0  0  0  0  0  0  0  0  0  0
    1.5578   -2.3248    1.1707 H   0  0  0  0  0  0  0  0  0  0  0  0
    1.6164   -3.7240   -0.0573 H   0  0  0  0  0  0  0  0  0  0  0  0
    1.5051   -4.0883    1.6628 H   0  0  0  0  0  0  0  0  0  0  0  0
    3.7394   -1.3914    1.8930 H   0  0  0  0  0  0  0  0  0  0  0  0
    5.1987   -2.2702    1.2221 H   0  0  0  0  0  0  0  0  0  0  0  0
    4.7341   -1.5918   -0.9968 H   0  0  0  0  0  0  0  0  0  0  0  0
    4.5706    0.4983    1.1681 H   0  0  0  0  0  0  0  0  0  0  0  0
    8.5918    1.1111   -0.6725 H   0  0  0  0  0  0  0  0  0  0  0  0
    7.6255    2.1829   -1.6968 H   0  0  0  0  0  0  0  0  0  0  0  0
    9.9048    2.0482    1.2610 H   0  0  0  0  0  0  0  0  0  0  0  0
   10.8888    4.0269    2.2855 H   0  0  0  0  0  0  0  0  0  0  0  0
   10.1324    6.2677    1.6773 H   0  0  0  0  0  0  0  0  0  0  0  0
    8.3787    6.5363    0.0290 H   0  0  0  0  0  0  0  0  0  0  0  0
    7.3398    4.6303   -1.0413 H   0  0  0  0  0  0  0  0  0  0  0  0
    1.9705   -2.1282   -1.8812 H   0  0  0  0  0  0  0  0  0  0  0  0
    0.8700    0.6456   -1.5640 H   0  0  0  0  0  0  0  0  0  0  0  0
   -0.2792    0.3448   -3.6695 H   0  0  0  0  0  0  0  0  0  0  0  0
    1.4694    0.1830   -3.8476 H   0  0  0  0  0  0  0  0  0  0  0  0
    2.5747   -1.8704   -4.3570 H   0  0  0  0  0  0  0  0  0  0  0  0
    2.3928   -4.0405   -5.4860 H   0  0  0  0  0  0  0  0  0  0  0  0
    0.1698   -5.0056   -5.8742 H   0  0  0  0  0  0  0  0  0  0  0  0
   -1.8489   -3.8370   -5.1578 H   0  0  0  0  0  0  0  0  0  0  0  0
   -1.7332   -1.6945   -4.0406 H   0  0  0  0  0  0  0  0  0  0  0  0
   -1.2445    1.1295   -1.0555 H   0  0  0  0  0  0  0  0  0  0  0  0
   -3.0838   -1.1058   -0.1846 H   0  0  0  0  0  0  0  0  0  0  0  0
   -2.7371    1.5270    1.2938 H   0  0  0  0  0  0  0  0  0  0  0  0
   -3.8212    0.1534    1.5734 H   0  0  0  0  0  0  0  0  0  0  0  0
   -0.7804   -0.2200    1.7329 H   0  0  0  0  0  0  0  0  0  0  0  0
   -1.9547    0.1064    3.0916 H   0  0  0  0  0  0  0  0  0  0  0  0
   -3.1422   -1.9245    2.7220 H   0  0  0  0  0  0  0  0  0  0  0  0
   -2.2664   -2.3137    1.2168 H   0  0  0  0  0  0  0  0  0  0  0  0
   -0.4103   -1.8860    3.4271 H   0  0  0  0  0  0  0  0  0  0  0  0
   -2.3252   -4.8338    1.7257 H   0  0  0  0  0  0  0  0  0  0  0  0
   -0.6302   -5.3531    1.8509 H   0  0  0  0  0  0  0  0  0  0  0  0
   -0.9581   -3.7224    5.3164 H   0  0  0  0  0  0  0  0  0  0  0  0
   -4.9997    1.4169    0.5909 H   0  0  0  0  0  0  0  0  0  0  0  0
   -5.7582    1.6317   -2.3608 H   0  0  0  0  0  0  0  0  0  0  0  0
   -7.9900    2.2692   -1.6010 H   0  0  0  0  0  0  0  0  0  0  0  0
   -7.5900    0.6449   -1.0535 H   0  0  0  0  0  0  0  0  0  0  0  0
   -8.3879    4.0709    0.0631 H   0  0  0  0  0  0  0  0  0  0  0  0
   -8.9607    4.6286    2.3611 H   0  0  0  0  0  0  0  0  0  0  0  0
   -9.6132    2.8133    4.7879 H   0  0  0  0  0  0  0  0  0  0  0  0
   -7.6541    0.8018    3.6115 H   0  0  0  0  0  0  0  0  0  0  0  0
   -7.0633    0.2389    1.2581 H   0  0  0  0  0  0  0  0  0  0  0  0
   -7.2026    3.9335   -2.8078 H   0  0  0  0  0  0  0  0  0  0  0  0
   -6.3016    5.3458   -2.2302 H   0  0  0  0  0  0  0  0  0  0  0  0
  1  2  1  0
  2  3  1  0
  2  4  1  0
  4  5  1  0
  5  6  1  0
  6  7  1  0
  7  8  2  0
  7  9  1  0
  9 10  1  0
 10 11  1  0
 11 12  2  0
 12 13  1  0
 13 14  2  0
 14 15  1  0
 15 16  2  0
  5 17  1  0
 17 18  2  0
 17 19  1  0
 19 20  1  0
 20 21  1  0
 21 22  1  0
 22 23  2  0
 23 24  1  0
 24 25  2  0
 25 26  1  0
 26 27  2  0
 20 28  1  0
 28 29  2  0
 28 30  1  0
 30 31  1  0
 31 32  1  0
 32 33  1  0
 33 34  1  0
 34 35  1  0
 35 36  1  0
 36 37  1  0
 36 38  2  3
 31 39  1  0
 39 40  2  0
 39 41  1  0
 41 42  1  0
 42 43  1  0
 43 44  1  0
 44 45  2  0
 45 46  1  0
 46 47  2  0
 47 48  1  0
 47 49  1  0
 49 50  2  0
 42 51  1  0
 51 52  1  0
 51 53  2  0
 16 11  1  0
 27 22  1  0
 50 44  1  0
  1 54  1  0
  1 55  1  0
  1 56  1  0
  2 57  1  0
  3 58  1  0
  3 59  1  0
  3 60  1  0
  4 61  1  0
  4 62  1  0
  5 63  1  6
  6 64  1  0
 10 65  1  0
 10 66  1  0
 12 67  1  0
 13 68  1  0
 14 69  1  0
 15 70  1  0
 16 71  1  0
 19 72  1  0
 20 73  1  1
 21 74  1  0
 21 75  1  0
 23 76  1  0
 24 77  1  0
 25 78  1  0
 26 79  1  0
 27 80  1  0
 30 81  1  0
 31 82  1  1
 32 83  1  0
 32 84  1  0
 33 85  1  0
 33 86  1  0
 34 87  1  0
 34 88  1  0
 35 89  1  0
 37 90  1  0
 37 91  1  0
 38 92  1  0
 41 93  1  0
 42 94  1  6
 43 95  1  0
 43 96  1  0
 45 97  1  0
 46 98  1  0
 48 99  1  0
 49100  1  0
 50101  1  0
 52102  1  0
 52103  1  0
M  END
$$$$
[H]OC([H])([H])C([H])([H])C([H])([H])n1c(C([H])([H])c2c([H])c([H])c([H])c([H])c2[H])nc2c([H])c([H])c([H])c([H])c21
     RDKit          3D

 38 40  0  0  0  0  0  0  0  0999 V2000
    1.0878    0.8133   -1.4064 C   0  0  0  0  0  0  0  0  0  0  0  0
    0.2774   -0.3142   -0.9051 C   0  0  0  0  0  0  0  0  0  0  0  0
    0.4938   -1.5898   -1.2883 N   0  0  0  0  0  0  0  0  0  0  0  0
   -0.3709   -2.4031   -0.7016 C   0  0  0  0  0  0  0  0  0  0  0  0
   -0.5173   -3.7666   -0.7979 C   0  0  0  0  0  0  0  0  0  0  0  0
   -1.5052   -4.3769   -0.0765 C   0  0  0  0  0  0  0  0  0  0  0  0
   -2.3287   -3.6108    0.7283 C   0  0  0  0  0  0  0  0  0  0  0  0
   -2.1698   -2.2302    0.8170 C   0  0  0  0  0  0  0  0  0  0  0  0
   -1.1744   -1.6107    0.0909 C   0  0  0  0  0  0  0  0  0  0  0  0
   -0.7573   -0.3214   -0.0491 N   0  0  0  0  0  0  0  0  0  0  0  0
   -1.3452    0.8078    0.6094 C   0  0  0  0  0  0  0  0  0  0  0  0
   -2.4690    1.4157   -0.2099 C   0  0  0  0  0  0  0  0  0  0  0  0
   -3.0170    2.6050    0.5868 C   0  0  0  0  0  0  0  0  0  0  0  0
   -4.0558    3.2159   -0.1049 O   0  0  0  0  0  0  0  0  0  0  0  0
    2.3612    0.9486   -0.6293 C   0  0  0  0  0  0  0  0  0  0  0  0
    2.4911    1.7674    0.4639 C   0  0  0  0  0  0  0  0  0  0  0  0
    3.7070    1.8515    1.1526 C   0  0  0  0  0  0  0  0  0  0  0  0
    4.7999    1.1143    0.7483 C   0  0  0  0  0  0  0  0  0  0  0  0
    4.6912    0.2832   -0.3503 C   0  0  0  0  0  0  0  0  0  0  0  0
    3.4941    0.2181   -1.0061 C   0  0  0  0  0  0  0  0  0  0  0  0
    0.5357    1.7765   -1.3822 H   0  0  0  0  0  0  0  0  0  0  0  0
    1.3660    0.5878   -2.4562 H   0  0  0  0  0  0  0  0  0  0  0  0
    0.1512   -4.3411   -1.4437 H   0  0  0  0  0  0  0  0  0  0  0  0
   -1.6136   -5.4500   -0.1580 H   0  0  0  0  0  0  0  0  0  0  0  0
   -3.1108   -4.0710    1.3031 H   0  0  0  0  0  0  0  0  0  0  0  0
   -2.8014   -1.6138    1.4389 H   0  0  0  0  0  0  0  0  0  0  0  0
   -1.8290    0.5059    1.5858 H   0  0  0  0  0  0  0  0  0  0  0  0
   -0.6097    1.5723    0.8758 H   0  0  0  0  0  0  0  0  0  0  0  0
   -2.1197    1.8297   -1.1728 H   0  0  0  0  0  0  0  0  0  0  0  0
   -3.3232    0.7154   -0.3117 H   0  0  0  0  0  0  0  0  0  0  0  0
   -2.1603    3.2986    0.7150 H   0  0  0  0  0  0  0  0  0  0  0  0
   -3.3463    2.1824    1.5627 H   0  0  0  0  0  0  0  0  0  0  0  0
   -4.9081    2.9242    0.2988 H   0  0  0  0  0  0  0  0  0  0  0  0
    1.6404    2.3583    0.7972 H   0  0  0  0  0  0  0  0  0  0  0  0
    3.7802    2.5048    2.0104 H   0  0  0  0  0  0  0  0  0  0  0  0
    5.7598    1.1451    1.2472 H   0  0  0  0  0  0  0  0  0  0  0  0
    5.5330   -0.3226   -0.7096 H   0  0  0  0  0  0  0  0  0  0  0  0
    3.3631   -0.4198   -1.8723 H   0  0  0  0  0  0  0  0  0  0  0  0
  1  2  1  0
  2  3  2  0
  3  4  1  0
  4  5  2  0
  5  6  1  0
  6  7  2  0
  7  8  1  0
  8  9  2  0
  9 10  1  0
 10 11  1  0
 11 12  1  0
 12 13  1  0
 13 14  1  0
  1 15  1  0
 15 16  2  0
 16 17  1  0
 17 18  2  0
 18 19  1  0
 19 20  2  0
 10  2  1  0
 20 15  1  0
  9  4  1  0
  1 21  1  0
  1 22  1  0
  5 23  1  0
  6 24  1  0
  7 25  1  0
  8 26  1  0
 11 27  1  0
 11 28  1  0
 12 29  1  0
 12 30  1  0
 13 31  1  0
 13 32  1  0
 14 33  1  0
 16 34  1  0
 17 35  1  0
 18 36  1  0
 19 37  1  0
 20 38  1  0
M  END
$$$$
[H]c1nn([H])c([H])c1-c1c([H])c([H])c(C(=O)N2C([H])([H])C([H])([H])C([H])(c3c([H])c(F)c([H])c([H])c3F)C([H])([H])C2([H])[H])c([H])c1OC([H])([H])[H]
     RDKit          3D

 50 53  0  0  0  0  0  0  0  0999 V2000
   -3.2430    2.3871    1.1951 C   0  0  0  0  0  0  0  0  0  0  0  0
   -4.0418    1.4753    0.5050 O   0  0  0  0  0  0  0  0  0  0  0  0
   -3.5844    0.3472   -0.1468 C   0  0  0  0  0  0  0  0  0  0  0  0
   -2.2132    0.0387   -0.1523 C   0  0  0  0  0  0  0  0  0  0  0  0
   -1.6857   -1.0530   -0.7716 C   0  0  0  0  0  0  0  0  0  0  0  0
   -2.6375   -1.8693   -1.4211 C   0  0  0  0  0  0  0  0  0  0  0  0
   -3.9746   -1.5734   -1.4188 C   0  0  0  0  0  0  0  0  0  0  0  0
   -4.4812   -0.4652   -0.7862 C   0  0  0  0  0  0  0  0  0  0  0  0
   -5.9025   -0.1412   -0.7806 C   0  0  0  0  0  0  0  0  0  0  0  0
   -6.7500   -0.1965   -1.8753 C   0  0  0  0  0  0  0  0  0  0  0  0
   -7.9921    0.1707   -1.5026 N   0  0  0  0  0  0  0  0  0  0  0  0
   -7.9435    0.4525   -0.2101 N   0  0  0  0  0  0  0  0  0  0  0  0
   -6.6997    0.2755    0.2580 C   0  0  0  0  0  0  0  0  0  0  0  0
   -0.3046   -1.4593   -0.8379 C   0  0  0  0  0  0  0  0  0  0  0  0
   -0.0399   -2.5648   -1.5119 O   0  0  0  0  0  0  0  0  0  0  0  0
    0.8421   -0.8852   -0.3072 N   0  0  0  0  0  0  0  0  0  0  0  0
    2.1519   -1.5545   -0.5620 C   0  0  0  0  0  0  0  0  0  0  0  0
    2.9895   -0.4600   -1.2278 C   0  0  0  0  0  0  0  0  0  0  0  0
    3.3796    0.5653   -0.1941 C   0  0  0  0  0  0  0  0  0  0  0  0
    2.4014    0.5052    0.9601 C   0  0  0  0  0  0  0  0  0  0  0  0
    0.9591    0.2929    0.4787 C   0  0  0  0  0  0  0  0  0  0  0  0
    4.7318    0.3332    0.3776 C   0  0  0  0  0  0  0  0  0  0  0  0
    5.4552   -0.8063    0.1752 C   0  0  0  0  0  0  0  0  0  0  0  0
    6.6984   -0.9093    0.7674 C   0  0  0  0  0  0  0  0  0  0  0  0
    7.4134   -2.0363    0.5675 F   0  0  0  0  0  0  0  0  0  0  0  0
    7.2411    0.0762    1.5483 C   0  0  0  0  0  0  0  0  0  0  0  0
    6.5214    1.2353    1.7628 C   0  0  0  0  0  0  0  0  0  0  0  0
    5.2625    1.3345    1.1603 C   0  0  0  0  0  0  0  0  0  0  0  0
    4.6182    2.5015    1.4094 F   0  0  0  0  0  0  0  0  0  0  0  0
   -2.4516    1.9112    1.8211 H   0  0  0  0  0  0  0  0  0  0  0  0
   -3.9181    2.9066    1.9371 H   0  0  0  0  0  0  0  0  0  0  0  0
   -2.8069    3.1920    0.5572 H   0  0  0  0  0  0  0  0  0  0  0  0
   -1.5646    0.7106    0.3612 H   0  0  0  0  0  0  0  0  0  0  0  0
   -2.2838   -2.7674   -1.9415 H   0  0  0  0  0  0  0  0  0  0  0  0
   -4.7106   -2.2117   -1.9269 H   0  0  0  0  0  0  0  0  0  0  0  0
   -6.4628   -0.4893   -2.8785 H   0  0  0  0  0  0  0  0  0  0  0  0
   -8.7773    0.7659    0.3352 H   0  0  0  0  0  0  0  0  0  0  0  0
   -6.4062    0.4397    1.2769 H   0  0  0  0  0  0  0  0  0  0  0  0
    2.5942   -1.8998    0.3770 H   0  0  0  0  0  0  0  0  0  0  0  0
    1.9614   -2.3215   -1.3200 H   0  0  0  0  0  0  0  0  0  0  0  0
    3.7992   -0.8387   -1.8392 H   0  0  0  0  0  0  0  0  0  0  0  0
    2.2832    0.0577   -1.9422 H   0  0  0  0  0  0  0  0  0  0  0  0
    3.3531    1.5657   -0.6581 H   0  0  0  0  0  0  0  0  0  0  0  0
    2.3891    1.4826    1.4668 H   0  0  0  0  0  0  0  0  0  0  0  0
    2.6408   -0.2733    1.6818 H   0  0  0  0  0  0  0  0  0  0  0  0
    0.3828    0.2175    1.4236 H   0  0  0  0  0  0  0  0  0  0  0  0
    0.6269    1.1620   -0.1122 H   0  0  0  0  0  0  0  0  0  0  0  0
    5.0324   -1.5867   -0.4366 H   0  0  0  0  0  0  0  0  0  0  0  0
    8.2187   -0.0689    1.9819 H   0  0  0  0  0  0  0  0  0  0  0  0
    6.9285    2.0294    2.3762 H   0  0  0  0  0  0  0  0  0  0  0  0
  1  2  1  0
  2  3  1  0
  3  4  2  0
  4  5  1  0
  5  6  2  0
  6  7  1  0
  7  8  2  0
  8  9  1  0
  9 10  1  0
 10 11  2  0
 11 12  1  0
 12 13  1  0
  5 14  1  0
 14 15  2  0
 14 16  1  0
 16 17  1  0
 17 18  1  0
 18 19  1  0
 19 20  1  0
 20 21  1  0
 19 22  1  0
 22 23  2  0
 23 24  1  0
 24 25  1  0
 24 26  2  0
 26 27  1  0
 27 28  2  0
 28 29  1  0
  8  3  1  0
 13  9  2  0
 21 16  1  0
 28 22  1  0
  1 30  1  0
  1 31  1  0
  1 32  1  0
  4 33  1  0
  6 34  1  0
  7 35  1  0
 10 36  1  0
 12 37  1  0
 13 38  1  0
 17 39  1  0
 17 40  1  0
 18 41  1  0
 18 42  1  0
 19 43  1  0
 20 44  1  0
 20 45  1  0
 21 46  1  0
 21 47  1  0
 23 48  1  0
 26 49  1  0
 27 50  1  0
M  END
$$$$
[H]c1c([H])c(-c2c([H])c([H])c(C([H])([H])N3C([H])([H])[C@@]([H])(C([H])([H])[H])[C@@]3([H])C([H])([H])[H])c([H])c2[H])c([H])c([H])c1C#N
     RDKit          3D

 41 43  0  0  0  0  0  0  0  0999 V2000
   -5.5702    0.0114    1.2320 C   0  0  0  0  0  0  0  0  0  0  0  0
   -4.3646    0.3024    0.3788 C   0  0  2  0  0  0  0  0  0  0  0  0
   -4.2180   -0.5521   -0.8448 C   0  0  0  0  0  0  0  0  0  0  0  0
   -2.7720   -0.6323   -0.5779 N   0  0  0  0  0  0  0  0  0  0  0  0
   -2.0776    0.4148   -1.2576 C   0  0  0  0  0  0  0  0  0  0  0  0
   -0.6255    0.4159   -1.0583 C   0  0  0  0  0  0  0  0  0  0  0  0
   -0.0121   -0.5820   -0.3333 C   0  0  0  0  0  0  0  0  0  0  0  0
    1.3644   -0.6013   -0.1298 C   0  0  0  0  0  0  0  0  0  0  0  0
    2.1575    0.3863   -0.6529 C   0  0  0  0  0  0  0  0  0  0  0  0
    1.5473    1.3862   -1.3788 C   0  0  0  0  0  0  0  0  0  0  0  0
    0.1835    1.4023   -1.5786 C   0  0  0  0  0  0  0  0  0  0  0  0
    3.6155    0.3810   -0.4477 C   0  0  0  0  0  0  0  0  0  0  0  0
    4.2316   -0.8594   -0.3495 C   0  0  0  0  0  0  0  0  0  0  0  0
    5.5988   -0.9187   -0.1560 C   0  0  0  0  0  0  0  0  0  0  0  0
    6.3608    0.2372   -0.0589 C   0  0  0  0  0  0  0  0  0  0  0  0
    5.7143    1.4581   -0.1611 C   0  0  0  0  0  0  0  0  0  0  0  0
    4.3478    1.5449   -0.3548 C   0  0  0  0  0  0  0  0  0  0  0  0
    7.7809    0.1876    0.1422 C   0  0  0  0  0  0  0  0  0  0  0  0
    8.9407    0.1608    0.3211 N   0  0  0  0  0  0  0  0  0  0  0  0
   -3.0946   -0.4401    0.8080 C   0  0  2  0  0  0  0  0  0  0  0  0
   -3.4078   -1.7696    1.4805 C   0  0  0  0  0  0  0  0  0  0  0  0
   -5.2634   -0.3522    2.2365 H   0  0  0  0  0  0  0  0  0  0  0  0
   -6.0799    0.9925    1.4158 H   0  0  0  0  0  0  0  0  0  0  0  0
   -6.2666   -0.7095    0.7629 H   0  0  0  0  0  0  0  0  0  0  0  0
   -4.1812    1.3562    0.1732 H   0  0  0  0  0  0  0  0  0  0  0  0
   -4.4476   -0.0133   -1.7846 H   0  0  0  0  0  0  0  0  0  0  0  0
   -4.6807   -1.5520   -0.8071 H   0  0  0  0  0  0  0  0  0  0  0  0
   -2.5509    1.3881   -1.0386 H   0  0  0  0  0  0  0  0  0  0  0  0
   -2.2662    0.2519   -2.3598 H   0  0  0  0  0  0  0  0  0  0  0  0
   -0.6261   -1.3698    0.0854 H   0  0  0  0  0  0  0  0  0  0  0  0
    1.7841   -1.3954    0.4377 H   0  0  0  0  0  0  0  0  0  0  0  0
    2.1861    2.1728   -1.7947 H   0  0  0  0  0  0  0  0  0  0  0  0
   -0.3006    2.2024   -2.1590 H   0  0  0  0  0  0  0  0  0  0  0  0
    3.6295   -1.7674   -0.4268 H   0  0  0  0  0  0  0  0  0  0  0  0
    6.1020   -1.8925   -0.0762 H   0  0  0  0  0  0  0  0  0  0  0  0
    6.2488    2.4014   -0.0942 H   0  0  0  0  0  0  0  0  0  0  0  0
    3.8201    2.4911   -0.4374 H   0  0  0  0  0  0  0  0  0  0  0  0
   -2.4592    0.2440    1.3787 H   0  0  0  0  0  0  0  0  0  0  0  0
   -4.4695   -2.0411    1.4163 H   0  0  0  0  0  0  0  0  0  0  0  0
   -2.8503   -2.6041    0.9611 H   0  0  0  0  0  0  0  0  0  0  0  0
   -3.0290   -1.7365    2.5242 H   0  0  0  0  0  0  0  0  0  0  0  0
  1  2  1  0
  2  3  1  0
  3  4  1  0
  4  5  1  0
  5  6  1  0
  6  7  2  0
  7  8  1  0
  8  9  2  0
  9 10  1  0
 10 11  2  0
  9 12  1  0
 12 13  2  0
 13 14  1  0
 14 15  2  0
 15 16  1  0
 16 17  2  0
 15 18  1  0
 18 19  3  0
  4 20  1  0
 20 21  1  0
 20  2  1  0
 11  6  1  0
 17 12  1  0
  1 22  1  0
  1 23  1  0
  1 24  1  0
  2 25  1  6
  3 26  1  0
  3 27  1  0
  5 28  1  0
  5 29  1  0
  7 30  1  0
  8 31  1  0
 10 32  1  0
 11 33  1  0
 13 34  1  0
 14 35  1  0
 16 36  1  0
 17 37  1  0
 20 38  1  1
 21 39  1  0
 21 40  1  0
 21 41  1  0
M  END
$$$$
[H]OC(=O)c1c([H])c([H])c(N([H])C(=O)[C@@]([H])(N([H])[H])[C@]([H])(OC([H])([H])c2c([H])c([H])c([H])c([H])c2[H])C(=O)N([H])c2c([H])c([H])c(C(F)(F)F)c([H])c2[H])c([H])c1[H]
     RDKit          3D

 58 60  0  0  0  0  0  0  0  0999 V2000
    0.9347    1.1950    1.7831 N   0  0  0  0  0  0  0  0  0  0  0  0
    0.3132    0.3268    0.8134 C   0  0  1  0  0  0  0  0  0  0  0  0
   -0.7388    1.1115   -0.0643 C   0  0  2  0  0  0  0  0  0  0  0  0
   -1.5668    1.6755    0.9060 O   0  0  0  0  0  0  0  0  0  0  0  0
   -1.5028    2.9541    1.2048 C   0  0  0  0  0  0  0  0  0  0  0  0
   -1.8088    4.0614    0.2778 C   0  0  0  0  0  0  0  0  0  0  0  0
   -1.6391    5.3817    0.7727 C   0  0  0  0  0  0  0  0  0  0  0  0
   -1.8659    6.4990    0.0583 C   0  0  0  0  0  0  0  0  0  0  0  0
   -2.2850    6.3827   -1.2366 C   0  0  0  0  0  0  0  0  0  0  0  0
   -2.4623    5.0942   -1.7560 C   0  0  0  0  0  0  0  0  0  0  0  0
   -2.2302    3.9628   -1.0176 C   0  0  0  0  0  0  0  0  0  0  0  0
   -1.4716   -0.0571   -0.6508 C   0  0  0  0  0  0  0  0  0  0  0  0
   -1.3783   -0.4910   -1.7958 O   0  0  0  0  0  0  0  0  0  0  0  0
   -2.3423   -0.7196    0.2828 N   0  0  0  0  0  0  0  0  0  0  0  0
   -3.1169   -1.8597    0.0799 C   0  0  0  0  0  0  0  0  0  0  0  0
   -3.3552   -2.6706    1.2139 C   0  0  0  0  0  0  0  0  0  0  0  0
   -4.0906   -3.8105    1.0985 C   0  0  0  0  0  0  0  0  0  0  0  0
   -4.6315   -4.2288   -0.1041 C   0  0  0  0  0  0  0  0  0  0  0  0
   -4.3904   -3.4313   -1.1866 C   0  0  0  0  0  0  0  0  0  0  0  0
   -3.6454   -2.2606   -1.1099 C   0  0  0  0  0  0  0  0  0  0  0  0
   -5.4178   -5.5112   -0.1199 C   0  0  0  0  0  0  0  0  0  0  0  0
   -4.4985   -6.5349   -0.1206 F   0  0  0  0  0  0  0  0  0  0  0  0
   -6.1425   -5.5118    1.0514 F   0  0  0  0  0  0  0  0  0  0  0  0
   -6.2192   -5.5367   -1.2143 F   0  0  0  0  0  0  0  0  0  0  0  0
    1.4643   -0.2027    0.0010 C   0  0  0  0  0  0  0  0  0  0  0  0
    1.4220   -0.4204   -1.2243 O   0  0  0  0  0  0  0  0  0  0  0  0
    2.6288   -0.4417    0.7642 N   0  0  0  0  0  0  0  0  0  0  0  0
    3.8897   -0.9020    0.4289 C   0  0  0  0  0  0  0  0  0  0  0  0
    4.7541   -0.1262   -0.3327 C   0  0  0  0  0  0  0  0  0  0  0  0
    6.0650   -0.5483   -0.5876 C   0  0  0  0  0  0  0  0  0  0  0  0
    6.5278   -1.7561   -0.0787 C   0  0  0  0  0  0  0  0  0  0  0  0
    5.6725   -2.5282    0.6734 C   0  0  0  0  0  0  0  0  0  0  0  0
    4.3784   -2.1055    0.9198 C   0  0  0  0  0  0  0  0  0  0  0  0
    7.9095   -2.1849   -0.2962 C   0  0  0  0  0  0  0  0  0  0  0  0
    8.7373   -1.3199   -1.0490 O   0  0  0  0  0  0  0  0  0  0  0  0
    8.3784   -3.2343    0.1326 O   0  0  0  0  0  0  0  0  0  0  0  0
    1.7919    1.6462    1.3879 H   0  0  0  0  0  0  0  0  0  0  0  0
    1.0420    0.7977    2.7297 H   0  0  0  0  0  0  0  0  0  0  0  0
   -0.1692   -0.5041    1.3002 H   0  0  0  0  0  0  0  0  0  0  0  0
   -0.1834    1.7304   -0.7123 H   0  0  0  0  0  0  0  0  0  0  0  0
   -0.4481    3.2559    1.5916 H   0  0  0  0  0  0  0  0  0  0  0  0
   -2.1968    3.1181    2.1116 H   0  0  0  0  0  0  0  0  0  0  0  0
   -1.2953    5.4149    1.8223 H   0  0  0  0  0  0  0  0  0  0  0  0
   -1.7102    7.4852    0.4991 H   0  0  0  0  0  0  0  0  0  0  0  0
   -2.4563    7.2799   -1.7888 H   0  0  0  0  0  0  0  0  0  0  0  0
   -2.8054    5.0423   -2.8046 H   0  0  0  0  0  0  0  0  0  0  0  0
   -2.3716    2.9534   -1.4384 H   0  0  0  0  0  0  0  0  0  0  0  0
   -2.4182   -0.2739    1.2727 H   0  0  0  0  0  0  0  0  0  0  0  0
   -2.9332   -2.3499    2.1472 H   0  0  0  0  0  0  0  0  0  0  0  0
   -4.2396   -4.3777    1.9937 H   0  0  0  0  0  0  0  0  0  0  0  0
   -4.8161   -3.7623   -2.1349 H   0  0  0  0  0  0  0  0  0  0  0  0
   -3.4955   -1.6683   -2.0176 H   0  0  0  0  0  0  0  0  0  0  0  0
    2.5400   -0.2424    1.8402 H   0  0  0  0  0  0  0  0  0  0  0  0
    4.3905    0.8090   -0.7277 H   0  0  0  0  0  0  0  0  0  0  0  0
    6.7393    0.0502   -1.1754 H   0  0  0  0  0  0  0  0  0  0  0  0
    5.9986   -3.4648    1.0674 H   0  0  0  0  0  0  0  0  0  0  0  0
    3.6893   -2.7059    1.5099 H   0  0  0  0  0  0  0  0  0  0  0  0
    9.0716   -0.4846   -0.5275 H   0  0  0  0  0  0  0  0  0  0  0  0
  1  2  1  0
  2  3  1  0
  3  4  1  0
  4  5  1  0
  5  6  1  0
  6  7  2  0
  7  8  1  0
  8  9  2  0
  9 10  1  0
 10 11  2  0
  3 12  1  0
 12 13  2  0
 12 14  1  0
 14 15  1  0
 15 16  2  0
 16 17  1  0
 17 18  2  0
 18 19  1  0
 19 20  2  0
 18 21  1  0
 21 22  1  0
 21 23  1  0
 21 24  1  0
  2 25  1  0
 25 26  2  0
 25 27  1  0
 27 28  1  0
 28 29  2  0
 29 30  1  0
 30 31  2  0
 31 32  1  0
 32 33  2  0
 31 34  1  0
 34 35  1  0
 34 36  2  0
 11  6  1  0
 20 15  1  0
 33 28  1  0
  1 37  1  0
  1 38  1  0
  2 39  1  1
  3 40  1  6
  5 41  1  0
  5 42  1  0
  7 43  1  0
  8 44  1  0
  9 45  1  0
 10 46  1  0
 11 47  1  0
 14 48  1  0
 16 49  1  0
 17 50  1  0
 19 51  1  0
 20 52  1  0
 27 53  1  0
 29 54  1  0
 30 55  1  0
 32 56  1  0
 33 57  1  0
 35 58  1  0
M  END
$$$$
[H]N=C(N([H])[H])N([H])C([H])([H])C([H])([H])C([H])([H])[C@@]([H])(C(=O)N([H])[C@]([H])(C(=O)N([H])[C@]([H])(C(=O)N([H])[H])C([H])([H])c1c([H])c([H])c([H])c([H])c1[H])C([H])([H])C([H])(C([H])([H])[H])C([H])([H])[H])N([H])C(=O)C([H])([H])[H]
     RDKit          3D

 71 71  0  0  0  0  0  0  0  0999 V2000
    4.5503   -5.1160    1.8899 C   0  0  0  0  0  0  0  0  0  0  0  0
    4.2600   -3.6601    1.8805 C   0  0  0  0  0  0  0  0  0  0  0  0
    4.3579   -3.0750    2.9956 O   0  0  0  0  0  0  0  0  0  0  0  0
    3.9120   -3.0564    0.6876 N   0  0  0  0  0  0  0  0  0  0  0  0
    3.6026   -1.5639    0.6109 C   0  0  1  0  0  0  0  0  0  0  0  0
    4.6331   -1.0904   -0.3187 C   0  0  0  0  0  0  0  0  0  0  0  0
    4.8361    0.2937   -0.6944 C   0  0  0  0  0  0  0  0  0  0  0  0
    3.7252    0.9897   -1.3802 C   0  0  0  0  0  0  0  0  0  0  0  0
    4.1390    2.3647   -1.7546 N   0  0  0  0  0  0  0  0  0  0  0  0
    3.2217    3.2083   -2.4272 C   0  0  0  0  0  0  0  0  0  0  0  0
    3.0476    3.1642   -3.8340 N   0  0  0  0  0  0  0  0  0  0  0  0
    2.4878    4.0748   -1.7888 N   0  0  0  0  0  0  0  0  0  0  0  0
    2.2064   -1.5035    0.1809 C   0  0  0  0  0  0  0  0  0  0  0  0
    1.8306   -2.2985   -0.7634 O   0  0  0  0  0  0  0  0  0  0  0  0
    1.2172   -0.6536    0.7303 N   0  0  0  0  0  0  0  0  0  0  0  0
   -0.1726   -0.6507    0.3412 C   0  0  1  0  0  0  0  0  0  0  0  0
   -1.0718   -0.9659    1.5159 C   0  0  0  0  0  0  0  0  0  0  0  0
   -0.7527   -2.3250    2.1126 C   0  0  0  0  0  0  0  0  0  0  0  0
   -1.6849   -2.5830    3.3040 C   0  0  0  0  0  0  0  0  0  0  0  0
   -1.0895   -3.3770    1.0775 C   0  0  0  0  0  0  0  0  0  0  0  0
   -0.6389    0.5473   -0.3569 C   0  0  0  0  0  0  0  0  0  0  0  0
    0.1549    1.1387   -1.1434 O   0  0  0  0  0  0  0  0  0  0  0  0
   -1.9215    1.1445   -0.2501 N   0  0  0  0  0  0  0  0  0  0  0  0
   -2.2844    2.3386   -0.9971 C   0  0  1  0  0  0  0  0  0  0  0  0
   -3.4730    2.0548   -1.8440 C   0  0  0  0  0  0  0  0  0  0  0  0
   -4.6917    1.6430   -1.1164 C   0  0  0  0  0  0  0  0  0  0  0  0
   -5.6356    2.5719   -0.6970 C   0  0  0  0  0  0  0  0  0  0  0  0
   -6.7875    2.1862   -0.0089 C   0  0  0  0  0  0  0  0  0  0  0  0
   -7.0340    0.8629    0.2822 C   0  0  0  0  0  0  0  0  0  0  0  0
   -6.1011   -0.0619   -0.1317 C   0  0  0  0  0  0  0  0  0  0  0  0
   -4.9569    0.3152   -0.8144 C   0  0  0  0  0  0  0  0  0  0  0  0
   -2.4275    3.5076   -0.0967 C   0  0  0  0  0  0  0  0  0  0  0  0
   -2.7257    4.8214   -0.5244 N   0  0  0  0  0  0  0  0  0  0  0  0
   -2.2691    3.3109    1.1411 O   0  0  0  0  0  0  0  0  0  0  0  0
    5.6177   -5.2855    2.1507 H   0  0  0  0  0  0  0  0  0  0  0  0
    4.3439   -5.5792    0.9202 H   0  0  0  0  0  0  0  0  0  0  0  0
    3.9350   -5.6296    2.6485 H   0  0  0  0  0  0  0  0  0  0  0  0
    3.8390   -3.5527   -0.2008 H   0  0  0  0  0  0  0  0  0  0  0  0
    3.7114   -1.1921    1.6302 H   0  0  0  0  0  0  0  0  0  0  0  0
    4.5207   -1.6904   -1.3131 H   0  0  0  0  0  0  0  0  0  0  0  0
    5.6703   -1.5011   -0.0089 H   0  0  0  0  0  0  0  0  0  0  0  0
    5.7336    0.3271   -1.4020 H   0  0  0  0  0  0  0  0  0  0  0  0
    5.1927    0.9129    0.1949 H   0  0  0  0  0  0  0  0  0  0  0  0
    2.9196    1.1706   -0.6324 H   0  0  0  0  0  0  0  0  0  0  0  0
    3.3519    0.5103   -2.2786 H   0  0  0  0  0  0  0  0  0  0  0  0
    5.0832    2.7348   -1.5396 H   0  0  0  0  0  0  0  0  0  0  0  0
    3.8752    3.0770   -4.4742 H   0  0  0  0  0  0  0  0  0  0  0  0
    2.1043    3.2179   -4.2320 H   0  0  0  0  0  0  0  0  0  0  0  0
    2.5855    4.1442   -0.7414 H   0  0  0  0  0  0  0  0  0  0  0  0
    1.5092    0.0352    1.4839 H   0  0  0  0  0  0  0  0  0  0  0  0
   -0.2698   -1.5137   -0.3900 H   0  0  0  0  0  0  0  0  0  0  0  0
   -2.1149   -0.9478    1.1505 H   0  0  0  0  0  0  0  0  0  0  0  0
   -0.9328   -0.2121    2.2827 H   0  0  0  0  0  0  0  0  0  0  0  0
    0.2664   -2.4103    2.4708 H   0  0  0  0  0  0  0  0  0  0  0  0
   -1.8880   -3.6628    3.4213 H   0  0  0  0  0  0  0  0  0  0  0  0
   -1.3151   -2.0936    4.2147 H   0  0  0  0  0  0  0  0  0  0  0  0
   -2.6567   -2.1198    3.0376 H   0  0  0  0  0  0  0  0  0  0  0  0
   -1.7558   -4.1684    1.4884 H   0  0  0  0  0  0  0  0  0  0  0  0
   -1.5936   -2.9603    0.1874 H   0  0  0  0  0  0  0  0  0  0  0  0
   -0.1456   -3.8460    0.6913 H   0  0  0  0  0  0  0  0  0  0  0  0
   -2.6268    0.7430    0.3701 H   0  0  0  0  0  0  0  0  0  0  0  0
   -1.4289    2.5897   -1.6729 H   0  0  0  0  0  0  0  0  0  0  0  0
   -3.6689    2.9554   -2.4948 H   0  0  0  0  0  0  0  0  0  0  0  0
   -3.1593    1.2660   -2.5882 H   0  0  0  0  0  0  0  0  0  0  0  0
   -5.4701    3.6060   -0.9137 H   0  0  0  0  0  0  0  0  0  0  0  0
   -7.5248    2.9182    0.3179 H   0  0  0  0  0  0  0  0  0  0  0  0
   -7.9363    0.5577    0.8216 H   0  0  0  0  0  0  0  0  0  0  0  0
   -6.3036   -1.1089    0.1032 H   0  0  0  0  0  0  0  0  0  0  0  0
   -4.2539   -0.4641   -1.1162 H   0  0  0  0  0  0  0  0  0  0  0  0
   -2.6680    5.6349    0.1156 H   0  0  0  0  0  0  0  0  0  0  0  0
   -3.0110    4.9799   -1.5105 H   0  0  0  0  0  0  0  0  0  0  0  0
  1  2  1  0
  2  3  2  0
  2  4  1  0
  4  5  1  0
  5  6  1  0
  6  7  1  0
  7  8  1  0
  8  9  1  0
  9 10  1  0
 10 11  1  0
 10 12  2  3
  5 13  1  0
 13 14  2  0
 13 15  1  0
 15 16  1  0
 16 17  1  0
 17 18  1  0
 18 19  1  0
 18 20  1  0
 16 21  1  0
 21 22  2  0
 21 23  1  0
 23 24  1  0
 24 25  1  0
 25 26  1  0
 26 27  2  0
 27 28  1  0
 28 29  2  0
 29 30  1  0
 30 31  2  0
 24 32  1  0
 32 33  1  0
 32 34  2  0
 31 26  1  0
  1 35  1  0
  1 36  1  0
  1 37  1  0
  4 38  1  0
  5 39  1  1
  6 40  1  0
  6 41  1  0
  7 42  1  0
  7 43  1  0
  8 44  1  0
  8 45  1  0
  9 46  1  0
 11 47  1  0
 11 48  1  0
 12 49  1  0
 15 50  1  0
 16 51  1  6
 17 52  1  0
 17 53  1  0
 18 54  1  0
 19 55  1  0
 19 56  1  0
 19 57  1  0
 20 58  1  0
 20 59  1  0
 20 60  1  0
 23 61  1  0
 24 62  1  6
 25 63  1  0
 25 64  1  0
 27 65  1  0
 28 66  1  0
 29 67  1  0
 30 68  1  0
 31 69  1  0
 33 70  1  0
 33 71  1  0
M  END
$$$$
[H]c1nc(N([H])c2c([H])c(Cl)c([H])c([H])c2N([H])c2c([H])c(C(=O)N3C([H])([H])C([H])([H])C([H])(N4C([H])([H])C([H])([H])N([H])C([H])([H])C4([H])[H])C([H])([H])C3([H])[H])c([H])c([H])c2Cl)nc(N2C([H])([H])N(C([H])([H])[H])C([H])([H])C2([H])[H])c1[H]
     RDKit          3D

 79 84  0  0  0  0  0  0  0  0999 V2000
  -10.0142    1.6945    2.3696 C   0  0  0  0  0  0  0  0  0  0  0  0
  -10.4282    0.6167    1.4964 N   0  0  0  0  0  0  0  0  0  0  0  0
   -9.7650   -0.6112    1.7911 C   0  0  0  0  0  0  0  0  0  0  0  0
   -8.7030   -0.8467    0.7702 C   0  0  0  0  0  0  0  0  0  0  0  0
   -8.6835    0.4426    0.0593 N   0  0  0  0  0  0  0  0  0  0  0  0
  -10.0225    0.9515    0.1504 C   0  0  0  0  0  0  0  0  0  0  0  0
   -7.5798    1.0455   -0.5785 C   0  0  0  0  0  0  0  0  0  0  0  0
   -7.7186    2.2407   -1.2361 C   0  0  0  0  0  0  0  0  0  0  0  0
   -6.5985    2.7702   -1.8362 C   0  0  0  0  0  0  0  0  0  0  0  0
   -5.4179    2.1739   -1.7986 N   0  0  0  0  0  0  0  0  0  0  0  0
   -5.2683    0.9816   -1.1456 C   0  0  0  0  0  0  0  0  0  0  0  0
   -3.9944    0.3854   -1.1527 N   0  0  0  0  0  0  0  0  0  0  0  0
   -3.5936   -0.8252   -0.5462 C   0  0  0  0  0  0  0  0  0  0  0  0
   -4.3612   -1.5236    0.3496 C   0  0  0  0  0  0  0  0  0  0  0  0
   -3.9205   -2.6896    0.9783 C   0  0  0  0  0  0  0  0  0  0  0  0
   -4.9758   -3.5283    2.1228 Cl  0  0  0  0  0  0  0  0  0  0  0  0
   -2.6767   -3.1497    0.6878 C   0  0  0  0  0  0  0  0  0  0  0  0
   -1.8943   -2.4424   -0.2232 C   0  0  0  0  0  0  0  0  0  0  0  0
   -2.2949   -1.3019   -0.8526 C   0  0  0  0  0  0  0  0  0  0  0  0
   -1.4948   -0.7020   -1.8342 N   0  0  0  0  0  0  0  0  0  0  0  0
   -0.0987   -0.7240   -2.0065 C   0  0  0  0  0  0  0  0  0  0  0  0
    0.8196   -1.0091   -1.0337 C   0  0  0  0  0  0  0  0  0  0  0  0
    2.2128   -0.9671   -1.2002 C   0  0  0  0  0  0  0  0  0  0  0  0
    2.6658   -0.6062   -2.4439 C   0  0  0  0  0  0  0  0  0  0  0  0
    1.7637   -0.3053   -3.4684 C   0  0  0  0  0  0  0  0  0  0  0  0
    0.4110   -0.3615   -3.2599 C   0  0  0  0  0  0  0  0  0  0  0  0
   -0.7281    0.0080   -4.5414 Cl  0  0  0  0  0  0  0  0  0  0  0  0
    3.0830   -1.2291   -0.0868 C   0  0  0  0  0  0  0  0  0  0  0  0
    2.4511   -1.2023    1.0673 O   0  0  0  0  0  0  0  0  0  0  0  0
    4.4301   -1.5010    0.0223 N   0  0  0  0  0  0  0  0  0  0  0  0
    5.4188   -1.6862   -0.9788 C   0  0  0  0  0  0  0  0  0  0  0  0
    6.4602   -0.5796   -0.9374 C   0  0  0  0  0  0  0  0  0  0  0  0
    6.9089   -0.3399    0.4936 C   0  0  0  0  0  0  0  0  0  0  0  0
    5.7910   -0.2460    1.4804 C   0  0  0  0  0  0  0  0  0  0  0  0
    4.9879   -1.5487    1.4334 C   0  0  0  0  0  0  0  0  0  0  0  0
    7.5945    0.9377    0.5048 N   0  0  0  0  0  0  0  0  0  0  0  0
    8.2374    1.1875    1.7662 C   0  0  0  0  0  0  0  0  0  0  0  0
    9.7167    1.4780    1.5923 C   0  0  0  0  0  0  0  0  0  0  0  0
    9.9599    2.6002    0.7370 N   0  0  0  0  0  0  0  0  0  0  0  0
    9.0911    2.5204   -0.4309 C   0  0  0  0  0  0  0  0  0  0  0  0
    8.5333    1.1095   -0.5585 C   0  0  0  0  0  0  0  0  0  0  0  0
   -6.3539    0.4889   -0.5757 N   0  0  0  0  0  0  0  0  0  0  0  0
  -10.8266    1.8352    3.1159 H   0  0  0  0  0  0  0  0  0  0  0  0
   -9.8662    2.6425    1.7786 H   0  0  0  0  0  0  0  0  0  0  0  0
   -9.0458    1.4664    2.8427 H   0  0  0  0  0  0  0  0  0  0  0  0
  -10.5082   -1.4393    1.8482 H   0  0  0  0  0  0  0  0  0  0  0  0
   -9.2381   -0.4731    2.7790 H   0  0  0  0  0  0  0  0  0  0  0  0
   -7.7061   -1.0624    1.2008 H   0  0  0  0  0  0  0  0  0  0  0  0
   -8.9470   -1.6010    0.0081 H   0  0  0  0  0  0  0  0  0  0  0  0
  -10.6849    0.4888   -0.6128 H   0  0  0  0  0  0  0  0  0  0  0  0
   -9.9953    2.0591    0.0462 H   0  0  0  0  0  0  0  0  0  0  0  0
   -8.6880    2.7619   -1.2873 H   0  0  0  0  0  0  0  0  0  0  0  0
   -6.6508    3.7249   -2.3776 H   0  0  0  0  0  0  0  0  0  0  0  0
   -3.2520    0.9609   -1.6789 H   0  0  0  0  0  0  0  0  0  0  0  0
   -5.3585   -1.2022    0.6297 H   0  0  0  0  0  0  0  0  0  0  0  0
   -2.3095   -4.0508    1.1612 H   0  0  0  0  0  0  0  0  0  0  0  0
   -0.9224   -2.9104   -0.4257 H   0  0  0  0  0  0  0  0  0  0  0  0
   -2.0403   -0.1553   -2.5739 H   0  0  0  0  0  0  0  0  0  0  0  0
    0.4581   -1.2618   -0.0215 H   0  0  0  0  0  0  0  0  0  0  0  0
    3.7001   -0.4968   -2.7016 H   0  0  0  0  0  0  0  0  0  0  0  0
    2.1466   -0.0188   -4.4579 H   0  0  0  0  0  0  0  0  0  0  0  0
    5.0637   -1.8531   -1.9584 H   0  0  0  0  0  0  0  0  0  0  0  0
    5.9623   -2.6747   -0.7061 H   0  0  0  0  0  0  0  0  0  0  0  0
    7.3386   -0.9447   -1.4997 H   0  0  0  0  0  0  0  0  0  0  0  0
    6.1218    0.3607   -1.3943 H   0  0  0  0  0  0  0  0  0  0  0  0
    7.6456   -1.0952    0.8158 H   0  0  0  0  0  0  0  0  0  0  0  0
    6.1962   -0.0595    2.4743 H   0  0  0  0  0  0  0  0  0  0  0  0
    5.0776    0.5591    1.1760 H   0  0  0  0  0  0  0  0  0  0  0  0
    5.6623   -2.4051    1.4364 H   0  0  0  0  0  0  0  0  0  0  0  0
    4.1626   -1.5658    2.1309 H   0  0  0  0  0  0  0  0  0  0  0  0
    7.7724    2.0970    2.2225 H   0  0  0  0  0  0  0  0  0  0  0  0
    8.1877    0.3052    2.4400 H   0  0  0  0  0  0  0  0  0  0  0  0
   10.2585    0.5535    1.2673 H   0  0  0  0  0  0  0  0  0  0  0  0
   10.1213    1.7365    2.6108 H   0  0  0  0  0  0  0  0  0  0  0  0
   10.9638    2.5480    0.4273 H   0  0  0  0  0  0  0  0  0  0  0  0
    9.6080    2.8032   -1.3478 H   0  0  0  0  0  0  0  0  0  0  0  0
    8.2314    3.2088   -0.2899 H   0  0  0  0  0  0  0  0  0  0  0  0
    9.3653    0.3864   -0.5587 H   0  0  0  0  0  0  0  0  0  0  0  0
    8.0458    1.0654   -1.5532 H   0  0  0  0  0  0  0  0  0  0  0  0
  1  2  1  0
  2  3  1  0
  3  4  1  0
  4  5  1  0
  5  6  1  0
  5  7  1  0
  7  8  2  0
  8  9  1  0
  9 10  2  0
 10 11  1  0
 11 12  1  0
 12 13  1  0
 13 14  2  0
 14 15  1  0
 15 16  1  0
 15 17  2  0
 17 18  1  0
 18 19  2  0
 19 20  1  0
 20 21  1  0
 21 22  2  0
 22 23  1  0
 23 24  2  0
 24 25  1  0
 25 26  2  0
 26 27  1  0
 23 28  1  0
 28 29  2  0
 28 30  1  0
 30 31  1  0
 31 32  1  0
 32 33  1  0
 33 34  1  0
 34 35  1  0
 33 36  1  0
 36 37  1  0
 37 38  1  0
 38 39  1  0
 39 40  1  0
 40 41  1  0
 11 42  2  0
  6  2  1  0
 42  7  1  0
 19 13  1  0
 26 21  1  0
 35 30  1  0
 41 36  1  0
  1 43  1  0
  1 44  1  0
  1 45  1  0
  3 46  1  0
  3 47  1  0
  4 48  1  0
  4 49  1  0
  6 50  1  0
  6 51  1  0
  8 52  1  0
  9 53  1  0
 12 54  1  0
 14 55  1  0
 17 56  1  0
 18 57  1  0
 20 58  1  0
 22 59  1  0
 24 60  1  0
 25 61  1  0
 31 62  1  0
 31 63  1  0
 32 64  1  0
 32 65  1  0
 33 66  1  0
 34 67  1  0
 34 68  1  0
 35 69  1  0
 35 70  1  0
 37 71  1  0
 37 72  1  0
 38 73  1  0
 38 74  1  0
 39 75  1  0
 40 76  1  0
 40 77  1  0
 41 78  1  0
 41 79  1  0
M  END
$$$$
[H]N=C(N([H])[H])N([H])C([H])([H])C([H])([H])C([H])([H])[C@@]1([H])C(=O)N([H])[C@]([H])(C([H])([H])c2c([H])c([H])c([H])c([H])c2[H])C(=O)N([H])[C@@]([H])(C([H])([H])c2c([H])c([H])c([H])c([H])c2[H])C(=O)N([H])[C@]([H])(C([H])([H])c2c([H])c([H])c([H])c([H])c2[H])C(=O)N2C([H])([H])C([H])([H])C([H])([H])[C@@]2([H])C(=O)N([H])[C@@]([H])(C([H])([H])c2c([H])c([H])c([H])c([H])c2[H])C(=O)N([H])[C@@]([H])(C([H])([H])c2c([H])c([H])c([H])c([H])c2[H])C(=O)N1[H]
     RDKit          3D

137143  0  0  0  0  0  0  0  0999 V2000
    7.0592   -5.3569    3.0133 N   0  0  0  0  0  0  0  0  0  0  0  0
    6.6370   -3.9843    3.2259 C   0  0  0  0  0  0  0  0  0  0  0  0
    7.2146   -3.1959    3.9191 N   0  0  0  0  0  0  0  0  0  0  0  0
    5.4259   -3.6493    2.5087 N   0  0  0  0  0  0  0  0  0  0  0  0
    4.4477   -2.8112    3.1507 C   0  0  0  0  0  0  0  0  0  0  0  0
    3.3057   -2.5770    2.1684 C   0  0  0  0  0  0  0  0  0  0  0  0
    3.8245   -1.8889    0.9434 C   0  0  0  0  0  0  0  0  0  0  0  0
    2.7073   -1.6770   -0.0487 C   0  0  2  0  0  0  0  0  0  0  0  0
    3.3398   -1.0555   -1.2071 N   0  0  0  0  0  0  0  0  0  0  0  0
    3.0373   -0.0019   -2.0180 C   0  0  0  0  0  0  0  0  0  0  0  0
    2.6219   -0.3070   -3.2188 O   0  0  0  0  0  0  0  0  0  0  0  0
    3.0658    1.4674   -1.8693 C   0  0  2  0  0  0  0  0  0  0  0  0
    4.1219    2.0666   -2.8274 C   0  0  0  0  0  0  0  0  0  0  0  0
    5.4876    1.5315   -2.5006 C   0  0  0  0  0  0  0  0  0  0  0  0
    5.9817    0.4087   -3.1019 C   0  0  0  0  0  0  0  0  0  0  0  0
    7.2289   -0.0663   -2.7817 C   0  0  0  0  0  0  0  0  0  0  0  0
    7.9965    0.6009   -1.8374 C   0  0  0  0  0  0  0  0  0  0  0  0
    7.5121    1.7359   -1.2216 C   0  0  0  0  0  0  0  0  0  0  0  0
    6.2603    2.1822   -1.5667 C   0  0  0  0  0  0  0  0  0  0  0  0
    3.3053    2.0033   -0.5947 N   0  0  0  0  0  0  0  0  0  0  0  0
    2.5802    2.9987    0.0489 C   0  0  0  0  0  0  0  0  0  0  0  0
    3.0671    3.5840    1.0711 O   0  0  0  0  0  0  0  0  0  0  0  0
    1.2091    3.5010   -0.3360 C   0  0  2  0  0  0  0  0  0  0  0  0
    1.4085    4.6340   -1.2787 C   0  0  0  0  0  0  0  0  0  0  0  0
    2.1581    5.7930   -0.7578 C   0  0  0  0  0  0  0  0  0  0  0  0
    1.5055    6.8376   -0.1299 C   0  0  0  0  0  0  0  0  0  0  0  0
    2.1743    7.9408    0.3501 C   0  0  0  0  0  0  0  0  0  0  0  0
    3.5423    8.0406    0.2177 C   0  0  0  0  0  0  0  0  0  0  0  0
    4.2151    7.0138   -0.4028 C   0  0  0  0  0  0  0  0  0  0  0  0
    3.5174    5.9083   -0.8809 C   0  0  0  0  0  0  0  0  0  0  0  0
    0.4820    3.8765    0.8599 N   0  0  0  0  0  0  0  0  0  0  0  0
   -0.9132    3.7619    1.0968 C   0  0  0  0  0  0  0  0  0  0  0  0
   -1.1984    3.2478    2.2214 O   0  0  0  0  0  0  0  0  0  0  0  0
   -1.9627    4.1632    0.2164 C   0  0  2  0  0  0  0  0  0  0  0  0
   -3.0124    5.1256    0.8181 C   0  0  0  0  0  0  0  0  0  0  0  0
   -3.9428    5.2138   -0.4090 C   0  0  0  0  0  0  0  0  0  0  0  0
   -3.4815    4.1249   -1.3610 C   0  0  0  0  0  0  0  0  0  0  0  0
   -2.9002    3.2111   -0.3180 N   0  0  0  0  0  0  0  0  0  0  0  0
   -3.1805    1.8948    0.0124 C   0  0  0  0  0  0  0  0  0  0  0  0
   -2.8637    1.0206   -0.8245 O   0  0  0  0  0  0  0  0  0  0  0  0
   -3.8376    1.3626    1.2758 C   0  0  1  0  0  0  0  0  0  0  0  0
   -5.2810    1.3619    0.9646 C   0  0  0  0  0  0  0  0  0  0  0  0
   -6.2073    0.9299    2.0243 C   0  0  0  0  0  0  0  0  0  0  0  0
   -6.7449   -0.3217    2.0781 C   0  0  0  0  0  0  0  0  0  0  0  0
   -7.5906   -0.7190    3.0828 C   0  0  0  0  0  0  0  0  0  0  0  0
   -7.9233    0.1540    4.0787 C   0  0  0  0  0  0  0  0  0  0  0  0
   -7.3799    1.4260    4.0271 C   0  0  0  0  0  0  0  0  0  0  0  0
   -6.5361    1.8272    3.0290 C   0  0  0  0  0  0  0  0  0  0  0  0
   -3.1477    0.2155    1.7048 N   0  0  0  0  0  0  0  0  0  0  0  0
   -3.2988   -1.1372    1.8727 C   0  0  0  0  0  0  0  0  0  0  0  0
   -3.4940   -1.5720    3.0897 O   0  0  0  0  0  0  0  0  0  0  0  0
   -3.2841   -2.2977    0.9231 C   0  0  2  0  0  0  0  0  0  0  0  0
   -4.2867   -3.3136    1.5063 C   0  0  0  0  0  0  0  0  0  0  0  0
   -4.4493   -4.5368    0.7414 C   0  0  0  0  0  0  0  0  0  0  0  0
   -5.3898   -4.5622   -0.2929 C   0  0  0  0  0  0  0  0  0  0  0  0
   -5.6225   -5.6842   -1.0445 C   0  0  0  0  0  0  0  0  0  0  0  0
   -4.9258   -6.8429   -0.8001 C   0  0  0  0  0  0  0  0  0  0  0  0
   -3.9907   -6.8278    0.2249 C   0  0  0  0  0  0  0  0  0  0  0  0
   -3.7640   -5.6881    0.9769 C   0  0  0  0  0  0  0  0  0  0  0  0
   -1.9514   -2.9275    0.9570 N   0  0  0  0  0  0  0  0  0  0  0  0
   -1.0097   -3.1384   -0.0216 C   0  0  0  0  0  0  0  0  0  0  0  0
   -0.6978   -4.3746   -0.2560 O   0  0  0  0  0  0  0  0  0  0  0  0
   -0.2760   -2.1640   -0.8651 C   0  0  1  0  0  0  0  0  0  0  0  0
   -1.0434   -1.8810   -2.1019 C   0  0  0  0  0  0  0  0  0  0  0  0
   -1.2133   -3.1205   -2.8986 C   0  0  0  0  0  0  0  0  0  0  0  0
   -2.2641   -3.9728   -2.8369 C   0  0  0  0  0  0  0  0  0  0  0  0
   -2.3371   -5.1105   -3.6222 C   0  0  0  0  0  0  0  0  0  0  0  0
   -1.3168   -5.3958   -4.4979 C   0  0  0  0  0  0  0  0  0  0  0  0
   -0.2175   -4.5540   -4.5995 C   0  0  0  0  0  0  0  0  0  0  0  0
   -0.1877   -3.4317   -3.7968 C   0  0  0  0  0  0  0  0  0  0  0  0
    0.2385   -1.0305   -0.1495 N   0  0  0  0  0  0  0  0  0  0  0  0
    1.5373   -0.9703    0.4413 C   0  0  0  0  0  0  0  0  0  0  0  0
    1.6563   -0.2489    1.4553 O   0  0  0  0  0  0  0  0  0  0  0  0
    8.0434   -5.5223    2.8162 H   0  0  0  0  0  0  0  0  0  0  0  0
    6.3422   -6.0833    3.0724 H   0  0  0  0  0  0  0  0  0  0  0  0
    7.5064   -2.4109    4.4117 H   0  0  0  0  0  0  0  0  0  0  0  0
    5.2555   -4.0009    1.5575 H   0  0  0  0  0  0  0  0  0  0  0  0
    4.9089   -1.8491    3.4018 H   0  0  0  0  0  0  0  0  0  0  0  0
    4.0391   -3.2729    4.0646 H   0  0  0  0  0  0  0  0  0  0  0  0
    2.5191   -2.0393    2.6997 H   0  0  0  0  0  0  0  0  0  0  0  0
    2.8698   -3.5506    1.8352 H   0  0  0  0  0  0  0  0  0  0  0  0
    4.2246   -0.8812    1.2446 H   0  0  0  0  0  0  0  0  0  0  0  0
    4.6401   -2.4564    0.4461 H   0  0  0  0  0  0  0  0  0  0  0  0
    2.4536   -2.7618   -0.3278 H   0  0  0  0  0  0  0  0  0  0  0  0
    4.2391   -1.6003   -1.4575 H   0  0  0  0  0  0  0  0  0  0  0  0
    2.0829    1.8624   -2.2265 H   0  0  0  0  0  0  0  0  0  0  0  0
    3.8637    1.8022   -3.8650 H   0  0  0  0  0  0  0  0  0  0  0  0
    4.1101    3.1447   -2.6658 H   0  0  0  0  0  0  0  0  0  0  0  0
    5.4251   -0.1442   -3.8451 H   0  0  0  0  0  0  0  0  0  0  0  0
    7.6617   -0.9498   -3.2302 H   0  0  0  0  0  0  0  0  0  0  0  0
    8.9938    0.2089   -1.5894 H   0  0  0  0  0  0  0  0  0  0  0  0
    8.1319    2.2524   -0.4772 H   0  0  0  0  0  0  0  0  0  0  0  0
    5.8884    3.0899   -1.0673 H   0  0  0  0  0  0  0  0  0  0  0  0
    4.1357    1.6036   -0.0582 H   0  0  0  0  0  0  0  0  0  0  0  0
    0.7490    2.6590   -0.8736 H   0  0  0  0  0  0  0  0  0  0  0  0
    0.4854    5.0464   -1.7369 H   0  0  0  0  0  0  0  0  0  0  0  0
    1.9647    4.2250   -2.1774 H   0  0  0  0  0  0  0  0  0  0  0  0
    0.4161    6.7716   -0.0182 H   0  0  0  0  0  0  0  0  0  0  0  0
    1.6681    8.7664    0.8445 H   0  0  0  0  0  0  0  0  0  0  0  0
    4.1014    8.8976    0.5844 H   0  0  0  0  0  0  0  0  0  0  0  0
    5.2910    7.0914   -0.5081 H   0  0  0  0  0  0  0  0  0  0  0  0
    4.1131    5.1448   -1.3541 H   0  0  0  0  0  0  0  0  0  0  0  0
    1.1093    4.2820    1.6263 H   0  0  0  0  0  0  0  0  0  0  0  0
   -1.5657    4.8290   -0.6358 H   0  0  0  0  0  0  0  0  0  0  0  0
   -2.5637    6.0804    1.0782 H   0  0  0  0  0  0  0  0  0  0  0  0
   -3.5158    4.6807    1.6726 H   0  0  0  0  0  0  0  0  0  0  0  0
   -3.7590    6.2251   -0.8232 H   0  0  0  0  0  0  0  0  0  0  0  0
   -4.9599    5.0344   -0.0525 H   0  0  0  0  0  0  0  0  0  0  0  0
   -2.6305    4.5573   -1.9342 H   0  0  0  0  0  0  0  0  0  0  0  0
   -4.2136    3.6923   -1.9929 H   0  0  0  0  0  0  0  0  0  0  0  0
   -3.7564    2.2114    2.0667 H   0  0  0  0  0  0  0  0  0  0  0  0
   -5.5541    0.7658    0.0639 H   0  0  0  0  0  0  0  0  0  0  0  0
   -5.6452    2.4014    0.6849 H   0  0  0  0  0  0  0  0  0  0  0  0
   -6.4818   -1.0222    1.2625 H   0  0  0  0  0  0  0  0  0  0  0  0
   -7.9721   -1.7446    3.0405 H   0  0  0  0  0  0  0  0  0  0  0  0
   -8.5987   -0.1469    4.8901 H   0  0  0  0  0  0  0  0  0  0  0  0
   -7.6420    2.1292    4.8194 H   0  0  0  0  0  0  0  0  0  0  0  0
   -6.1520    2.8380    3.0567 H   0  0  0  0  0  0  0  0  0  0  0  0
   -2.1251    0.5421    2.0427 H   0  0  0  0  0  0  0  0  0  0  0  0
   -3.6266   -2.0745   -0.0773 H   0  0  0  0  0  0  0  0  0  0  0  0
   -3.7885   -3.6355    2.4897 H   0  0  0  0  0  0  0  0  0  0  0  0
   -5.2256   -2.8953    1.8181 H   0  0  0  0  0  0  0  0  0  0  0  0
   -5.9666   -3.6758   -0.5249 H   0  0  0  0  0  0  0  0  0  0  0  0
   -6.3745   -5.6361   -1.8446 H   0  0  0  0  0  0  0  0  0  0  0  0
   -5.1069   -7.7362   -1.3927 H   0  0  0  0  0  0  0  0  0  0  0  0
   -3.4527   -7.7372    0.4114 H   0  0  0  0  0  0  0  0  0  0  0  0
   -3.0343   -5.6755    1.7779 H   0  0  0  0  0  0  0  0  0  0  0  0
   -1.7245   -3.2733    1.9519 H   0  0  0  0  0  0  0  0  0  0  0  0
    0.6748   -2.6730   -1.2615 H   0  0  0  0  0  0  0  0  0  0  0  0
   -2.0246   -1.3914   -1.9184 H   0  0  0  0  0  0  0  0  0  0  0  0
   -0.4749   -1.1585   -2.7208 H   0  0  0  0  0  0  0  0  0  0  0  0
   -3.0651   -3.7364   -2.1465 H   0  0  0  0  0  0  0  0  0  0  0  0
   -3.1815   -5.7936   -3.5707 H   0  0  0  0  0  0  0  0  0  0  0  0
   -1.3667   -6.2914   -5.1216 H   0  0  0  0  0  0  0  0  0  0  0  0
    0.5781   -4.7888   -5.2934 H   0  0  0  0  0  0  0  0  0  0  0  0
    0.6898   -2.7893   -3.8995 H   0  0  0  0  0  0  0  0  0  0  0  0
   -0.3759   -0.2079   -0.0629 H   0  0  0  0  0  0  0  0  0  0  0  0
  1  2  1  0
  2  3  2  3
  2  4  1  0
  4  5  1  0
  5  6  1  0
  6  7  1  0
  7  8  1  0
  8  9  1  0
  9 10  1  0
 10 11  2  0
 10 12  1  0
 12 13  1  0
 13 14  1  0
 14 15  2  0
 15 16  1  0
 16 17  2  0
 17 18  1  0
 18 19  2  0
 12 20  1  0
 20 21  1  0
 21 22  2  0
 21 23  1  0
 23 24  1  0
 24 25  1  0
 25 26  2  0
 26 27  1  0
 27 28  2  0
 28 29  1  0
 29 30  2  0
 23 31  1  0
 31 32  1  0
 32 33  2  0
 32 34  1  0
 34 35  1  0
 35 36  1  0
 36 37  1  0
 37 38  1  0
 38 39  1  0
 39 40  2  0
 39 41  1  0
 41 42  1  0
 42 43  1  0
 43 44  2  0
 44 45  1  0
 45 46  2  0
 46 47  1  0
 47 48  2  0
 41 49  1  0
 49 50  1  0
 50 51  2  0
 50 52  1  0
 52 53  1  0
 53 54  1  0
 54 55  2  0
 55 56  1  0
 56 57  2  0
 57 58  1  0
 58 59  2  0
 52 60  1  0
 60 61  1  0
 61 62  2  0
 61 63  1  0
 63 64  1  0
 64 65  1  0
 65 66  2  0
 66 67  1  0
 67 68  2  0
 68 69  1  0
 69 70  2  0
 63 71  1  0
 71 72  1  0
 72 73  2  0
 72  8  1  0
 19 14  1  0
 30 25  1  0
 38 34  1  0
 48 43  1  0
 59 54  1  0
 70 65  1  0
  1 74  1  0
  1 75  1  0
  3 76  1  0
  4 77  1  0
  5 78  1  0
  5 79  1  0
  6 80  1  0
  6 81  1  0
  7 82  1  0
  7 83  1  0
  8 84  1  6
  9 85  1  0
 12 86  1  6
 13 87  1  0
 13 88  1  0
 15 89  1  0
 16 90  1  0
 17 91  1  0
 18 92  1  0
 19 93  1  0
 20 94  1  0
 23 95  1  6
 24 96  1  0
 24 97  1  0
 26 98  1  0
 27 99  1  0
 28100  1  0
 29101  1  0
 30102  1  0
 31103  1  0
 34104  1  6
 35105  1  0
 35106  1  0
 36107  1  0
 36108  1  0
 37109  1  0
 37110  1  0
 41111  1  1
 42112  1  0
 42113  1  0
 44114  1  0
 45115  1  0
 46116  1  0
 47117  1  0
 48118  1  0
 49119  1  0
 52120  1  6
 53121  1  0
 53122  1  0
 55123  1  0
 56124  1  0
 57125  1  0
 58126  1  0
 59127  1  0
 60128  1  0
 63129  1  6
 64130  1  0
 64131  1  0
 66132  1  0
 67133  1  0
 68134  1  0
 69135  1  0
 70136  1  0
 71137  1  0
M  END
$$$$
[H]c1nn([H])c([H])c1-c1c([H])nn2c([H])c(-c3c([H])c([H])c(N4C([H])([H])C([H])([H])N([H])C([H])([H])C4([H])[H])c([H])c3[H])c([H])nc12
     RDKit          3D

 45 49  0  0  0  0  0  0  0  0999 V2000
   -6.3827    1.2195   -0.5296 C   0  0  0  0  0  0  0  0  0  0  0  0
   -4.9730    0.8666   -0.8806 C   0  0  0  0  0  0  0  0  0  0  0  0
   -4.2622    0.1098    0.1099 N   0  0  0  0  0  0  0  0  0  0  0  0
   -4.9849   -0.5750    1.1152 C   0  0  0  0  0  0  0  0  0  0  0  0
   -6.3735   -0.8667    0.6913 C   0  0  0  0  0  0  0  0  0  0  0  0
   -7.1135    0.2137    0.1513 N   0  0  0  0  0  0  0  0  0  0  0  0
   -2.8468    0.0616    0.0563 C   0  0  0  0  0  0  0  0  0  0  0  0
   -2.1536   -0.5384    1.0861 C   0  0  0  0  0  0  0  0  0  0  0  0
   -0.7753   -0.5770    1.0089 C   0  0  0  0  0  0  0  0  0  0  0  0
   -0.0569   -0.0524   -0.0338 C   0  0  0  0  0  0  0  0  0  0  0  0
   -0.7557    0.5441   -1.0566 C   0  0  0  0  0  0  0  0  0  0  0  0
   -2.1403    0.6010   -1.0124 C   0  0  0  0  0  0  0  0  0  0  0  0
    1.4127   -0.1223   -0.0624 C   0  0  0  0  0  0  0  0  0  0  0  0
    2.1671    0.8534   -0.6686 C   0  0  0  0  0  0  0  0  0  0  0  0
    3.5107    0.7629   -0.6799 N   0  0  0  0  0  0  0  0  0  0  0  0
    4.0850   -0.3098   -0.0805 C   0  0  0  0  0  0  0  0  0  0  0  0
    5.4365   -0.6198    0.0356 C   0  0  0  0  0  0  0  0  0  0  0  0
    5.4581   -1.8107    0.7302 C   0  0  0  0  0  0  0  0  0  0  0  0
    4.2022   -2.1972    1.0164 N   0  0  0  0  0  0  0  0  0  0  0  0
    3.3688   -1.2759    0.5183 N   0  0  0  0  0  0  0  0  0  0  0  0
    2.0266   -1.1880    0.5311 C   0  0  0  0  0  0  0  0  0  0  0  0
    6.5545    0.1654   -0.4763 C   0  0  0  0  0  0  0  0  0  0  0  0
    6.7291    1.5477   -0.3748 C   0  0  0  0  0  0  0  0  0  0  0  0
    7.8880    1.8752   -0.9762 N   0  0  0  0  0  0  0  0  0  0  0  0
    8.4659    0.7662   -1.4595 N   0  0  0  0  0  0  0  0  0  0  0  0
    7.6650   -0.2701   -1.1606 C   0  0  0  0  0  0  0  0  0  0  0  0
   -6.3714    2.1420    0.0870 H   0  0  0  0  0  0  0  0  0  0  0  0
   -6.9131    1.4760   -1.4709 H   0  0  0  0  0  0  0  0  0  0  0  0
   -4.3849    1.8258   -1.0069 H   0  0  0  0  0  0  0  0  0  0  0  0
   -4.8983    0.3201   -1.8512 H   0  0  0  0  0  0  0  0  0  0  0  0
   -4.4814   -1.5746    1.2795 H   0  0  0  0  0  0  0  0  0  0  0  0
   -4.9434   -0.0853    2.1179 H   0  0  0  0  0  0  0  0  0  0  0  0
   -6.9341   -1.2474    1.5927 H   0  0  0  0  0  0  0  0  0  0  0  0
   -6.3879   -1.7113   -0.0293 H   0  0  0  0  0  0  0  0  0  0  0  0
   -7.7703    0.6657    0.8462 H   0  0  0  0  0  0  0  0  0  0  0  0
   -2.6770   -0.9737    1.9484 H   0  0  0  0  0  0  0  0  0  0  0  0
   -0.2315   -1.0515    1.8236 H   0  0  0  0  0  0  0  0  0  0  0  0
   -0.2360    0.9794   -1.9134 H   0  0  0  0  0  0  0  0  0  0  0  0
   -2.6942    1.0647   -1.8106 H   0  0  0  0  0  0  0  0  0  0  0  0
    1.6937    1.7189   -1.1514 H   0  0  0  0  0  0  0  0  0  0  0  0
    6.3717   -2.3248    0.9865 H   0  0  0  0  0  0  0  0  0  0  0  0
    1.4712   -1.9908    1.0268 H   0  0  0  0  0  0  0  0  0  0  0  0
    5.9989    2.1692    0.1236 H   0  0  0  0  0  0  0  0  0  0  0  0
    9.3694    0.7025   -1.9746 H   0  0  0  0  0  0  0  0  0  0  0  0
    7.8666   -1.2889   -1.4201 H   0  0  0  0  0  0  0  0  0  0  0  0
  1  2  1  0
  2  3  1  0
  3  4  1  0
  4  5  1  0
  5  6  1  0
  3  7  1  0
  7  8  2  0
  8  9  1  0
  9 10  2  0
 10 11  1  0
 11 12  2  0
 10 13  1  0
 13 14  1  0
 14 15  2  0
 15 16  1  0
 16 17  2  0
 17 18  1  0
 18 19  2  0
 19 20  1  0
 20 21  1  0
 17 22  1  0
 22 23  1  0
 23 24  2  0
 24 25  1  0
 25 26  1  0
  6  1  1  0
 12  7  1  0
 21 13  2  0
 26 22  2  0
 20 16  1  0
  1 27  1  0
  1 28  1  0
  2 29  1  0
  2 30  1  0
  4 31  1  0
  4 32  1  0
  5 33  1  0
  5 34  1  0
  6 35  1  0
  8 36  1  0
  9 37  1  0
 11 38  1  0
 12 39  1  0
 14 40  1  0
 18 41  1  0
 21 42  1  0
 23 43  1  0
 25 44  1  0
 26 45  1  0
M  END
$$$$
[H]c1c(-c2nn([H])c(Br)c2[H])c([H])c2c([H])c(=O)n([H])nc2c1[H]
     RDKit          3D

 24 26  0  0  0  0  0  0  0  0999 V2000
    5.3392   -0.7260    2.5386 Br  0  0  0  0  0  0  0  0  0  0  0  0
    4.0937   -0.4456    1.0963 C   0  0  0  0  0  0  0  0  0  0  0  0
    2.7207   -0.3561    1.1874 C   0  0  0  0  0  0  0  0  0  0  0  0
    2.1904   -0.1529   -0.0680 C   0  0  0  0  0  0  0  0  0  0  0  0
    0.7957    0.0008   -0.4563 C   0  0  0  0  0  0  0  0  0  0  0  0
    0.3548    0.2009   -1.7390 C   0  0  0  0  0  0  0  0  0  0  0  0
   -0.9770    0.3422   -2.0672 C   0  0  0  0  0  0  0  0  0  0  0  0
   -1.9313    0.2830   -1.0740 C   0  0  0  0  0  0  0  0  0  0  0  0
   -3.2578    0.4181   -1.3584 N   0  0  0  0  0  0  0  0  0  0  0  0
   -4.1948    0.3658   -0.4281 N   0  0  0  0  0  0  0  0  0  0  0  0
   -3.8279    0.1720    0.8479 C   0  0  0  0  0  0  0  0  0  0  0  0
   -4.7283    0.1248    1.7191 O   0  0  0  0  0  0  0  0  0  0  0  0
   -2.4879    0.0291    1.1844 C   0  0  0  0  0  0  0  0  0  0  0  0
   -1.5101    0.0822    0.2245 C   0  0  0  0  0  0  0  0  0  0  0  0
   -0.1777   -0.0570    0.5369 C   0  0  0  0  0  0  0  0  0  0  0  0
    3.2627   -0.1235   -0.8997 N   0  0  0  0  0  0  0  0  0  0  0  0
    4.3792   -0.2960   -0.2106 N   0  0  0  0  0  0  0  0  0  0  0  0
    2.1159   -0.4276    2.0764 H   0  0  0  0  0  0  0  0  0  0  0  0
    1.1015    0.2484   -2.5249 H   0  0  0  0  0  0  0  0  0  0  0  0
   -1.2966    0.4995   -3.0911 H   0  0  0  0  0  0  0  0  0  0  0  0
   -5.2124    0.4759   -0.6953 H   0  0  0  0  0  0  0  0  0  0  0  0
   -2.2481   -0.1242    2.2222 H   0  0  0  0  0  0  0  0  0  0  0  0
    0.1307   -0.2136    1.5617 H   0  0  0  0  0  0  0  0  0  0  0  0
    5.3654   -0.3202   -0.5827 H   0  0  0  0  0  0  0  0  0  0  0  0
  1  2  1  0
  2  3  2  0
  3  4  1  0
  4  5  1  0
  5  6  1  0
  6  7  2  0
  7  8  1  0
  8  9  2  0
  9 10  1  0
 10 11  1  0
 11 12  2  0
 11 13  1  0
 13 14  2  0
 14 15  1  0
  4 16  2  0
 16 17  1  0
 17  2  1  0
 15  5  2  0
 14  8  1  0
  3 18  1  0
  6 19  1  0
  7 20  1  0
 10 21  1  0
 13 22  1  0
 15 23  1  0
 17 24  1  0
M  END
$$$$
[H]c1c([H])c(N([H])C(=O)N([H])c2c([H])c([H])c(S(=O)(=O)N([H])[H])c([H])c2[H])c([H])c(Cl)c1Cl
     RDKit          3D

 33 34  0  0  0  0  0  0  0  0999 V2000
    6.6046    0.4312    0.3816 N   0  0  0  0  0  0  0  0  0  0  0  0
    5.7192   -1.0459    0.5632 S   0  0  0  0  0  0  0  0  0  0  0  0
    6.2236   -2.1122   -0.3409 O   0  0  0  0  0  0  0  0  0  0  0  0
    5.8623   -1.4791    1.9897 O   0  0  0  0  0  0  0  0  0  0  0  0
    4.0567   -0.7073    0.1418 C   0  0  0  0  0  0  0  0  0  0  0  0
    3.6171   -0.8470   -1.1553 C   0  0  0  0  0  0  0  0  0  0  0  0
    2.3214   -0.5923   -1.5284 C   0  0  0  0  0  0  0  0  0  0  0  0
    1.3490   -0.1661   -0.5915 C   0  0  0  0  0  0  0  0  0  0  0  0
    0.0543    0.0944   -1.0845 N   0  0  0  0  0  0  0  0  0  0  0  0
   -1.1229    0.0728   -0.3032 C   0  0  0  0  0  0  0  0  0  0  0  0
   -0.9970   -0.2077    0.9067 O   0  0  0  0  0  0  0  0  0  0  0  0
   -2.3763    0.3614   -0.8964 N   0  0  0  0  0  0  0  0  0  0  0  0
   -3.6149    0.3710   -0.2484 C   0  0  0  0  0  0  0  0  0  0  0  0
   -3.9026   -0.1454    0.9903 C   0  0  0  0  0  0  0  0  0  0  0  0
   -5.1701   -0.0792    1.5810 C   0  0  0  0  0  0  0  0  0  0  0  0
   -6.2122    0.5211    0.9306 C   0  0  0  0  0  0  0  0  0  0  0  0
   -7.8197    0.6388    1.6096 Cl  0  0  0  0  0  0  0  0  0  0  0  0
   -5.9516    1.0465   -0.3126 C   0  0  0  0  0  0  0  0  0  0  0  0
   -7.2877    1.8217   -1.1590 Cl  0  0  0  0  0  0  0  0  0  0  0  0
   -4.7088    0.9806   -0.8891 C   0  0  0  0  0  0  0  0  0  0  0  0
    1.7908   -0.0281    0.6943 C   0  0  0  0  0  0  0  0  0  0  0  0
    3.1251   -0.2942    1.0611 C   0  0  0  0  0  0  0  0  0  0  0  0
    6.5592    1.0328    1.2083 H   0  0  0  0  0  0  0  0  0  0  0  0
    6.3716    0.9122   -0.5118 H   0  0  0  0  0  0  0  0  0  0  0  0
    4.3720   -1.1764   -1.8744 H   0  0  0  0  0  0  0  0  0  0  0  0
    2.0066   -0.7132   -2.5649 H   0  0  0  0  0  0  0  0  0  0  0  0
   -0.0736    0.3315   -2.1276 H   0  0  0  0  0  0  0  0  0  0  0  0
   -2.3744    0.5889   -1.9386 H   0  0  0  0  0  0  0  0  0  0  0  0
   -3.1253   -0.6471    1.5587 H   0  0  0  0  0  0  0  0  0  0  0  0
   -5.3050   -0.5092    2.5534 H   0  0  0  0  0  0  0  0  0  0  0  0
   -4.5257    1.4035   -1.8724 H   0  0  0  0  0  0  0  0  0  0  0  0
    1.1178    0.3092    1.4573 H   0  0  0  0  0  0  0  0  0  0  0  0
    3.4166   -0.1672    2.0986 H   0  0  0  0  0  0  0  0  0  0  0  0
  1  2  1  0
  2  3  2  0
  2  4  2  0
  2  5  1  0
  5  6  2  0
  6  7  1  0
  7  8  2  0
  8  9  1  0
  9 10  1  0
 10 11  2  0
 10 12  1  0
 12 13  1  0
 13 14  2  0
 14 15  1  0
 15 16  2  0
 16 17  1  0
 16 18  1  0
 18 19  1  0
 18 20  2  0
  8 21  1  0
 21 22  2  0
 22  5  1  0
 20 13  1  0
  1 23  1  0
  1 24  1  0
  6 25  1  0
  7 26  1  0
  9 27  1  0
 12 28  1  0
 14 29  1  0
 15 30  1  0
 20 31  1  0
 21 32  1  0
 22 33  1  0
M  END
$$$$
[H]OC([H])([H])[C@]1([H])ON(c2nc([H])nc3c([H])c([H])c(OC([H])([H])C([H])([H])[H])c([H])c23)O[C@@]([H])(C([H])([H])OP(=O)(O[H])O[H])[C@]([H])(O[H])[C@@]([H])(O[H])[C@@]([H])(O[H])[C@@]1([H])O[H]
     RDKit          3D

 60 62  0  0  0  0  0  0  0  0999 V2000
    5.7301   -0.7987    2.4278 C   0  0  0  0  0  0  0  0  0  0  0  0
    4.6529   -1.6536    1.7377 C   0  0  0  0  0  0  0  0  0  0  0  0
    4.2638   -1.1698    0.6024 O   0  0  0  0  0  0  0  0  0  0  0  0
    3.8866   -0.6858   -0.5403 C   0  0  0  0  0  0  0  0  0  0  0  0
    4.8060   -0.5040   -1.5818 C   0  0  0  0  0  0  0  0  0  0  0  0
    4.3469    0.0078   -2.7642 C   0  0  0  0  0  0  0  0  0  0  0  0
    3.0405    0.3339   -2.9372 C   0  0  0  0  0  0  0  0  0  0  0  0
    2.6436    0.8338   -4.1071 N   0  0  0  0  0  0  0  0  0  0  0  0
    1.3691    1.1758   -4.3270 C   0  0  0  0  0  0  0  0  0  0  0  0
    0.4598    1.0202   -3.3657 N   0  0  0  0  0  0  0  0  0  0  0  0
    0.7727    0.5175   -2.1399 C   0  0  0  0  0  0  0  0  0  0  0  0
   -0.1984    0.3807   -1.1367 N   0  0  0  0  0  0  0  0  0  0  0  0
   -1.0892    1.4250   -1.0189 O   0  0  0  0  0  0  0  0  0  0  0  0
   -0.6407    2.2637   -0.0442 C   0  0  1  0  0  0  0  0  0  0  0  0
    0.0450    3.4554   -0.7278 C   0  0  0  0  0  0  0  0  0  0  0  0
    0.5003    4.3390    0.2573 O   0  0  0  0  0  0  0  0  0  0  0  0
   -1.6333    2.7107    0.9745 C   0  0  2  0  0  0  0  0  0  0  0  0
   -1.1716    2.5241    2.2838 O   0  0  0  0  0  0  0  0  0  0  0  0
   -3.0237    2.2891    0.7585 C   0  0  2  0  0  0  0  0  0  0  0  0
   -3.7787    2.6932    1.8860 O   0  0  0  0  0  0  0  0  0  0  0  0
   -3.3340    0.8816    0.4239 C   0  0  2  0  0  0  0  0  0  0  0  0
   -4.6248    0.6295    0.8949 O   0  0  0  0  0  0  0  0  0  0  0  0
   -2.4152   -0.1573    0.9208 C   0  0  1  0  0  0  0  0  0  0  0  0
   -3.0771   -1.1233    1.6663 O   0  0  0  0  0  0  0  0  0  0  0  0
   -1.7534   -0.9266   -0.2348 C   0  0  2  0  0  0  0  0  0  0  0  0
   -1.9606   -2.4257   -0.0730 C   0  0  0  0  0  0  0  0  0  0  0  0
   -3.2975   -2.7664   -0.0101 O   0  0  0  0  0  0  0  0  0  0  0  0
   -3.5264   -4.4106    0.1821 P   0  0  0  0  0  0  0  0  0  0  0  0
   -3.3546   -4.7930    1.6441 O   0  0  0  0  0  0  0  0  0  0  0  0
   -5.1258   -4.8153   -0.2358 O   0  0  0  0  0  0  0  0  0  0  0  0
   -2.4857   -5.3488   -0.7570 O   0  0  0  0  0  0  0  0  0  0  0  0
   -0.4017   -0.6308   -0.3050 O   0  0  0  0  0  0  0  0  0  0  0  0
    2.0821    0.1684   -1.9186 C   0  0  0  0  0  0  0  0  0  0  0  0
    2.5310   -0.3370   -0.7457 C   0  0  0  0  0  0  0  0  0  0  0  0
    5.3333    0.2289    2.5422 H   0  0  0  0  0  0  0  0  0  0  0  0
    6.6469   -0.7703    1.8361 H   0  0  0  0  0  0  0  0  0  0  0  0
    5.9286   -1.2495    3.4238 H   0  0  0  0  0  0  0  0  0  0  0  0
    3.8761   -1.7980    2.5503 H   0  0  0  0  0  0  0  0  0  0  0  0
    5.1516   -2.6701    1.6341 H   0  0  0  0  0  0  0  0  0  0  0  0
    5.8462   -0.7616   -1.4444 H   0  0  0  0  0  0  0  0  0  0  0  0
    5.0493    0.1634   -3.6004 H   0  0  0  0  0  0  0  0  0  0  0  0
    1.0888    1.5758   -5.2795 H   0  0  0  0  0  0  0  0  0  0  0  0
    0.2059    1.7717    0.5273 H   0  0  0  0  0  0  0  0  0  0  0  0
   -0.7134    3.9597   -1.3291 H   0  0  0  0  0  0  0  0  0  0  0  0
    0.9424    3.1380   -1.2867 H   0  0  0  0  0  0  0  0  0  0  0  0
    0.8636    5.1629   -0.1174 H   0  0  0  0  0  0  0  0  0  0  0  0
   -1.6467    3.8461    0.8977 H   0  0  0  0  0  0  0  0  0  0  0  0
   -0.5866    3.2246    2.6038 H   0  0  0  0  0  0  0  0  0  0  0  0
   -3.4413    2.9246   -0.0817 H   0  0  0  0  0  0  0  0  0  0  0  0
   -3.3326    2.4908    2.7319 H   0  0  0  0  0  0  0  0  0  0  0  0
   -3.4314    0.7499   -0.6959 H   0  0  0  0  0  0  0  0  0  0  0  0
   -4.6315    0.8512    1.8546 H   0  0  0  0  0  0  0  0  0  0  0  0
   -1.6274    0.2187    1.6176 H   0  0  0  0  0  0  0  0  0  0  0  0
   -4.0436   -1.1107    1.6311 H   0  0  0  0  0  0  0  0  0  0  0  0
   -2.3003   -0.6270   -1.1489 H   0  0  0  0  0  0  0  0  0  0  0  0
   -1.3999   -2.9584   -0.8553 H   0  0  0  0  0  0  0  0  0  0  0  0
   -1.5174   -2.6749    0.9251 H   0  0  0  0  0  0  0  0  0  0  0  0
   -5.6989   -4.0234   -0.0346 H   0  0  0  0  0  0  0  0  0  0  0  0
   -2.6395   -6.2893   -0.4751 H   0  0  0  0  0  0  0  0  0  0  0  0
    1.8398   -0.4759    0.0827 H   0  0  0  0  0  0  0  0  0  0  0  0
  1  2  1  0
  2  3  1  0
  3  4  1  0
  4  5  2  0
  5  6  1  0
  6  7  2  0
  7  8  1  0
  8  9  2  0
  9 10  1  0
 10 11  2  0
 11 12  1  0
 12 13  1  0
 13 14  1  0
 14 15  1  0
 15 16  1  0
 14 17  1  0
 17 18  1  0
 17 19  1  0
 19 20  1  0
 19 21  1  0
 21 22  1  0
 21 23  1  0
 23 24  1  0
 23 25  1  0
 25 26  1  0
 26 27  1  0
 27 28  1  0
 28 29  2  0
 28 30  1  0
 28 31  1  0
 25 32  1  0
 11 33  1  0
 33 34  2  0
 34  4  1  0
 33  7  1  0
 32 12  1  0
  1 35  1  0
  1 36  1  0
  1 37  1  0
  2 38  1  0
  2 39  1  0
  5 40  1  0
  6 41  1  0
  9 42  1  0
 14 43  1  1
 15 44  1  0
 15 45  1  0
 16 46  1  0
 17 47  1  6
 18 48  1  0
 19 49  1  6
 20 50  1  0
 21 51  1  6
 22 52  1  0
 23 53  1  1
 24 54  1  0
 25 55  1  6
 26 56  1  0
 26 57  1  0
 30 58  1  0
 31 59  1  0
 34 60  1  0
M  END
$$$$
[H]OC(=O)[C@@]([H])(N([H])C(=O)[C@@]([H])(N([H])C(=O)[C@]([H])(N([H])C(=O)[C@@]([H])(C([H])([H])c1c([H])c([H])c([H])c([H])c1[H])C([H])([H])C([H])([H])[H])C([H])([H])c1c([H])n([H])c2c([H])c([H])c([H])c([H])c12)C([H])([H])C([H])([H])C([H])([H])N=C(N([H])[H])N([H])[H])C([H])([H])c1c([H])c([H])c([H])c([H])c1[H]
     RDKit          3D

 94 97  0  0  0  0  0  0  0  0999 V2000
    3.7032    1.5612    2.7217 C   0  0  0  0  0  0  0  0  0  0  0  0
    4.6124    1.5589    1.5201 C   0  0  0  0  0  0  0  0  0  0  0  0
    3.8135    1.2393    0.2833 C   0  0  2  0  0  0  0  0  0  0  0  0
    2.7244    2.2265   -0.0316 C   0  0  0  0  0  0  0  0  0  0  0  0
    3.1178    3.5991   -0.2752 C   0  0  0  0  0  0  0  0  0  0  0  0
    3.4558    3.9580   -1.5865 C   0  0  0  0  0  0  0  0  0  0  0  0
    3.8129    5.2493   -1.9049 C   0  0  0  0  0  0  0  0  0  0  0  0
    3.8373    6.2012   -0.9144 C   0  0  0  0  0  0  0  0  0  0  0  0
    3.5103    5.8697    0.3736 C   0  0  0  0  0  0  0  0  0  0  0  0
    3.1572    4.5757    0.6677 C   0  0  0  0  0  0  0  0  0  0  0  0
    3.1152   -0.0697    0.4238 C   0  0  0  0  0  0  0  0  0  0  0  0
    3.1742   -0.6451    1.5238 O   0  0  0  0  0  0  0  0  0  0  0  0
    2.3891   -0.6809   -0.6268 N   0  0  0  0  0  0  0  0  0  0  0  0
    1.7030   -1.9287   -0.4544 C   0  0  2  0  0  0  0  0  0  0  0  0
    2.2277   -2.9945   -1.3534 C   0  0  0  0  0  0  0  0  0  0  0  0
    3.6422   -3.3429   -1.2003 C   0  0  0  0  0  0  0  0  0  0  0  0
    4.1278   -4.3762   -0.3904 C   0  0  0  0  0  0  0  0  0  0  0  0
    5.4645   -4.3585   -0.4717 N   0  0  0  0  0  0  0  0  0  0  0  0
    5.8791   -3.3894   -1.2763 C   0  0  0  0  0  0  0  0  0  0  0  0
    7.1357   -2.9635   -1.6986 C   0  0  0  0  0  0  0  0  0  0  0  0
    7.2468   -1.9086   -2.5742 C   0  0  0  0  0  0  0  0  0  0  0  0
    6.1376   -1.2661   -3.0403 C   0  0  0  0  0  0  0  0  0  0  0  0
    4.8774   -1.6777   -2.6293 C   0  0  0  0  0  0  0  0  0  0  0  0
    4.7484   -2.7266   -1.7558 C   0  0  0  0  0  0  0  0  0  0  0  0
    0.2621   -1.6192   -0.7881 C   0  0  0  0  0  0  0  0  0  0  0  0
    0.0329   -0.8620   -1.7827 O   0  0  0  0  0  0  0  0  0  0  0  0
   -0.7614   -2.1516   -0.0184 N   0  0  0  0  0  0  0  0  0  0  0  0
   -2.1326   -1.8427   -0.3604 C   0  0  1  0  0  0  0  0  0  0  0  0
   -3.1242   -2.8611    0.0697 C   0  0  0  0  0  0  0  0  0  0  0  0
   -2.8200   -4.1878   -0.5542 C   0  0  0  0  0  0  0  0  0  0  0  0
   -3.8156   -5.2556   -0.1376 C   0  0  0  0  0  0  0  0  0  0  0  0
   -3.8239   -5.4536    1.2948 N   0  0  0  0  0  0  0  0  0  0  0  0
   -4.9369   -5.2863    1.9432 C   0  0  0  0  0  0  0  0  0  0  0  0
   -5.0060   -5.4668    3.3524 N   0  0  0  0  0  0  0  0  0  0  0  0
   -6.1155   -4.9192    1.2616 N   0  0  0  0  0  0  0  0  0  0  0  0
   -2.4093   -0.5090    0.2859 C   0  0  0  0  0  0  0  0  0  0  0  0
   -1.5339    0.0530    0.9512 O   0  0  0  0  0  0  0  0  0  0  0  0
   -3.6941    0.0599    0.0946 N   0  0  0  0  0  0  0  0  0  0  0  0
   -3.9799    1.3789    0.7100 C   0  0  1  0  0  0  0  0  0  0  0  0
   -4.3674    2.2545   -0.4329 C   0  0  0  0  0  0  0  0  0  0  0  0
   -4.6868    3.6465   -0.1284 C   0  0  0  0  0  0  0  0  0  0  0  0
   -3.6827    4.6200   -0.0630 C   0  0  0  0  0  0  0  0  0  0  0  0
   -3.9860    5.9321    0.1952 C   0  0  0  0  0  0  0  0  0  0  0  0
   -5.2803    6.3474    0.4000 C   0  0  0  0  0  0  0  0  0  0  0  0
   -6.2622    5.3985    0.3365 C   0  0  0  0  0  0  0  0  0  0  0  0
   -5.9725    4.0769    0.0779 C   0  0  0  0  0  0  0  0  0  0  0  0
   -5.1179    1.1737    1.6211 C   0  0  0  0  0  0  0  0  0  0  0  0
   -5.5584    2.2123    2.4105 O   0  0  0  0  0  0  0  0  0  0  0  0
   -5.6932    0.0747    1.6972 O   0  0  0  0  0  0  0  0  0  0  0  0
    2.6358    1.5649    2.4985 H   0  0  0  0  0  0  0  0  0  0  0  0
    3.8793    2.4849    3.3493 H   0  0  0  0  0  0  0  0  0  0  0  0
    4.0097    0.7316    3.3926 H   0  0  0  0  0  0  0  0  0  0  0  0
    5.4170    0.8248    1.7026 H   0  0  0  0  0  0  0  0  0  0  0  0
    5.1279    2.5391    1.4447 H   0  0  0  0  0  0  0  0  0  0  0  0
    4.5283    1.1436   -0.5535 H   0  0  0  0  0  0  0  0  0  0  0  0
    1.9229    2.2343    0.7383 H   0  0  0  0  0  0  0  0  0  0  0  0
    2.1893    1.7866   -0.9357 H   0  0  0  0  0  0  0  0  0  0  0  0
    3.4469    3.2340   -2.3866 H   0  0  0  0  0  0  0  0  0  0  0  0
    4.0796    5.5565   -2.9134 H   0  0  0  0  0  0  0  0  0  0  0  0
    4.1190    7.2420   -1.1506 H   0  0  0  0  0  0  0  0  0  0  0  0
    3.5341    6.6447    1.1599 H   0  0  0  0  0  0  0  0  0  0  0  0
    2.9017    4.3567    1.6854 H   0  0  0  0  0  0  0  0  0  0  0  0
    2.3633   -0.1816   -1.5417 H   0  0  0  0  0  0  0  0  0  0  0  0
    1.7424   -2.2037    0.6139 H   0  0  0  0  0  0  0  0  0  0  0  0
    1.5919   -3.9084   -1.1834 H   0  0  0  0  0  0  0  0  0  0  0  0
    2.0098   -2.7233   -2.4279 H   0  0  0  0  0  0  0  0  0  0  0  0
    3.4858   -5.0357    0.1742 H   0  0  0  0  0  0  0  0  0  0  0  0
    6.0767   -5.0390    0.0474 H   0  0  0  0  0  0  0  0  0  0  0  0
    7.9944   -3.4845   -1.3165 H   0  0  0  0  0  0  0  0  0  0  0  0
    8.2325   -1.5873   -2.8943 H   0  0  0  0  0  0  0  0  0  0  0  0
    6.1970   -0.4308   -3.7310 H   0  0  0  0  0  0  0  0  0  0  0  0
    4.0333   -1.1583   -3.0266 H   0  0  0  0  0  0  0  0  0  0  0  0
   -0.5765   -2.7625    0.7934 H   0  0  0  0  0  0  0  0  0  0  0  0
   -2.1542   -1.5932   -1.4502 H   0  0  0  0  0  0  0  0  0  0  0  0
   -3.0812   -2.9843    1.1836 H   0  0  0  0  0  0  0  0  0  0  0  0
   -4.1377   -2.4973   -0.1517 H   0  0  0  0  0  0  0  0  0  0  0  0
   -2.8454   -4.1227   -1.6569 H   0  0  0  0  0  0  0  0  0  0  0  0
   -1.8009   -4.5180   -0.2771 H   0  0  0  0  0  0  0  0  0  0  0  0
   -4.8371   -4.9734   -0.5036 H   0  0  0  0  0  0  0  0  0  0  0  0
   -3.5751   -6.2101   -0.6333 H   0  0  0  0  0  0  0  0  0  0  0  0
   -5.2267   -6.3757    3.7868 H   0  0  0  0  0  0  0  0  0  0  0  0
   -4.8204   -4.6257    3.9413 H   0  0  0  0  0  0  0  0  0  0  0  0
   -6.4991   -3.9549    1.4140 H   0  0  0  0  0  0  0  0  0  0  0  0
   -6.6050   -5.5785    0.6180 H   0  0  0  0  0  0  0  0  0  0  0  0
   -4.4734   -0.3589   -0.4431 H   0  0  0  0  0  0  0  0  0  0  0  0
   -3.0769    1.7390    1.2480 H   0  0  0  0  0  0  0  0  0  0  0  0
   -5.3144    1.8066   -0.8691 H   0  0  0  0  0  0  0  0  0  0  0  0
   -3.6490    2.2075   -1.2826 H   0  0  0  0  0  0  0  0  0  0  0  0
   -2.6664    4.2565   -0.2305 H   0  0  0  0  0  0  0  0  0  0  0  0
   -3.2045    6.6751    0.2427 H   0  0  0  0  0  0  0  0  0  0  0  0
   -5.4836    7.4045    0.6054 H   0  0  0  0  0  0  0  0  0  0  0  0
   -7.2969    5.7310    0.4985 H   0  0  0  0  0  0  0  0  0  0  0  0
   -6.7866    3.3500    0.0345 H   0  0  0  0  0  0  0  0  0  0  0  0
   -6.5548    2.2698    2.6203 H   0  0  0  0  0  0  0  0  0  0  0  0
  1  2  1  0
  2  3  1  0
  3  4  1  0
  4  5  1  0
  5  6  2  0
  6  7  1  0
  7  8  2  0
  8  9  1  0
  9 10  2  0
  3 11  1  0
 11 12  2  0
 11 13  1  0
 13 14  1  0
 14 15  1  0
 15 16  1  0
 16 17  2  0
 17 18  1  0
 18 19  1  0
 19 20  2  0
 20 21  1  0
 21 22  2  0
 22 23  1  0
 23 24  2  0
 14 25  1  0
 25 26  2  0
 25 27  1  0
 27 28  1  0
 28 29  1  0
 29 30  1  0
 30 31  1  0
 31 32  1  0
 32 33  2  3
 33 34  1  0
 33 35  1  0
 28 36  1  0
 36 37  2  0
 36 38  1  0
 38 39  1  0
 39 40  1  0
 40 41  1  0
 41 42  2  0
 42 43  1  0
 43 44  2  0
 44 45  1  0
 45 46  2  0
 39 47  1  0
 47 48  1  0
 47 49  2  0
 10  5  1  0
 24 16  1  0
 46 41  1  0
 24 19  1  0
  1 50  1  0
  1 51  1  0
  1 52  1  0
  2 53  1  0
  2 54  1  0
  3 55  1  6
  4 56  1  0
  4 57  1  0
  6 58  1  0
  7 59  1  0
  8 60  1  0
  9 61  1  0
 10 62  1  0
 13 63  1  0
 14 64  1  1
 15 65  1  0
 15 66  1  0
 17 67  1  0
 18 68  1  0
 20 69  1  0
 21 70  1  0
 22 71  1  0
 23 72  1  0
 27 73  1  0
 28 74  1  6
 29 75  1  0
 29 76  1  0
 30 77  1  0
 30 78  1  0
 31 79  1  0
 31 80  1  0
 34 81  1  0
 34 82  1  0
 35 83  1  0
 35 84  1  0
 38 85  1  0
 39 86  1  1
 40 87  1  0
 40 88  1  0
 42 89  1  0
 43 90  1  0
 44 91  1  0
 45 92  1  0
 46 93  1  0
 48 94  1  0
M  END
$$$$
[H]C#CC([H])([H])N([H])C(=O)[C@@]1([H])N(C(=O)[C@]([H])(N([H])C(=O)c2nc([H])c([H])c([H])c2[H])C([H])([H])N(O[H])C([H])=O)C([H])([H])C([H])([H])C1([H])[H]
     RDKit          3D

 49 50  0  0  0  0  0  0  0  0999 V2000
   -2.4149   -2.6292    2.5125 O   0  0  0  0  0  0  0  0  0  0  0  0
   -2.3928   -1.2661    2.4475 N   0  0  0  0  0  0  0  0  0  0  0  0
   -1.1341   -0.5865    2.0728 C   0  0  0  0  0  0  0  0  0  0  0  0
   -1.0503   -0.4387    0.5871 C   0  0  1  0  0  0  0  0  0  0  0  0
   -2.1826    0.3235    0.0304 N   0  0  0  0  0  0  0  0  0  0  0  0
   -3.1362   -0.2670   -0.7929 C   0  0  0  0  0  0  0  0  0  0  0  0
   -2.9954   -1.5105   -1.0592 O   0  0  0  0  0  0  0  0  0  0  0  0
   -4.2665    0.4397   -1.3592 C   0  0  0  0  0  0  0  0  0  0  0  0
   -4.4874    1.7578   -1.0701 C   0  0  0  0  0  0  0  0  0  0  0  0
   -5.5513    2.4551   -1.5974 C   0  0  0  0  0  0  0  0  0  0  0  0
   -6.4204    1.8005   -2.4444 C   0  0  0  0  0  0  0  0  0  0  0  0
   -6.1861    0.4733   -2.7273 C   0  0  0  0  0  0  0  0  0  0  0  0
   -5.1363   -0.1849   -2.1965 N   0  0  0  0  0  0  0  0  0  0  0  0
    0.2054    0.0773    0.0401 C   0  0  0  0  0  0  0  0  0  0  0  0
    0.1031    0.5976   -1.1447 O   0  0  0  0  0  0  0  0  0  0  0  0
    1.4716    0.0771    0.6278 N   0  0  0  0  0  0  0  0  0  0  0  0
    1.9840   -0.3457    1.8964 C   0  0  0  0  0  0  0  0  0  0  0  0
    3.3780    0.2276    2.0744 C   0  0  0  0  0  0  0  0  0  0  0  0
    3.3585    1.3330    1.0245 C   0  0  0  0  0  0  0  0  0  0  0  0
    2.6711    0.5812   -0.0862 C   0  0  1  0  0  0  0  0  0  0  0  0
    3.5302   -0.5596   -0.5134 C   0  0  0  0  0  0  0  0  0  0  0  0
    3.1386   -1.7207   -0.2465 O   0  0  0  0  0  0  0  0  0  0  0  0
    4.7471   -0.3420   -1.1977 N   0  0  0  0  0  0  0  0  0  0  0  0
    5.5759   -1.4768   -1.6143 C   0  0  0  0  0  0  0  0  0  0  0  0
    6.7793   -1.0237   -2.3047 C   0  0  0  0  0  0  0  0  0  0  0  0
    7.7789   -0.6412   -2.8590 C   0  0  0  0  0  0  0  0  0  0  0  0
   -3.5869   -0.5756    2.7337 C   0  0  0  0  0  0  0  0  0  0  0  0
   -3.6249    0.6776    2.6972 O   0  0  0  0  0  0  0  0  0  0  0  0
   -2.2486   -3.0221    1.6227 H   0  0  0  0  0  0  0  0  0  0  0  0
   -1.0704    0.3415    2.6508 H   0  0  0  0  0  0  0  0  0  0  0  0
   -0.3591   -1.3388    2.4222 H   0  0  0  0  0  0  0  0  0  0  0  0
   -1.2125   -1.4915    0.1828 H   0  0  0  0  0  0  0  0  0  0  0  0
   -2.2034    1.3224    0.2946 H   0  0  0  0  0  0  0  0  0  0  0  0
   -3.8173    2.2786   -0.4123 H   0  0  0  0  0  0  0  0  0  0  0  0
   -5.7435    3.5000   -1.3803 H   0  0  0  0  0  0  0  0  0  0  0  0
   -7.2661    2.3320   -2.8710 H   0  0  0  0  0  0  0  0  0  0  0  0
   -6.8576   -0.0566   -3.3932 H   0  0  0  0  0  0  0  0  0  0  0  0
    1.9997   -1.4358    2.0586 H   0  0  0  0  0  0  0  0  0  0  0  0
    1.4032    0.1199    2.7526 H   0  0  0  0  0  0  0  0  0  0  0  0
    4.1238   -0.5097    1.7708 H   0  0  0  0  0  0  0  0  0  0  0  0
    3.5571    0.6427    3.0874 H   0  0  0  0  0  0  0  0  0  0  0  0
    4.3555    1.6925    0.7807 H   0  0  0  0  0  0  0  0  0  0  0  0
    2.6536    2.1578    1.3064 H   0  0  0  0  0  0  0  0  0  0  0  0
    2.3785    1.2204   -0.9313 H   0  0  0  0  0  0  0  0  0  0  0  0
    5.1076    0.6051   -1.4354 H   0  0  0  0  0  0  0  0  0  0  0  0
    5.9057   -2.0331   -0.7006 H   0  0  0  0  0  0  0  0  0  0  0  0
    4.9675   -2.1747   -2.2609 H   0  0  0  0  0  0  0  0  0  0  0  0
    8.6691   -0.3127   -3.3508 H   0  0  0  0  0  0  0  0  0  0  0  0
   -4.4983   -1.0911    2.9908 H   0  0  0  0  0  0  0  0  0  0  0  0
  1  2  1  0
  2  3  1  0
  3  4  1  0
  4  5  1  0
  5  6  1  0
  6  7  2  0
  6  8  1  0
  8  9  2  0
  9 10  1  0
 10 11  2  0
 11 12  1  0
 12 13  2  0
  4 14  1  0
 14 15  2  0
 14 16  1  0
 16 17  1  0
 17 18  1  0
 18 19  1  0
 19 20  1  0
 20 21  1  0
 21 22  2  0
 21 23  1  0
 23 24  1  0
 24 25  1  0
 25 26  3  0
  2 27  1  0
 27 28  2  0
 13  8  1  0
 20 16  1  0
  1 29  1  0
  3 30  1  0
  3 31  1  0
  4 32  1  6
  5 33  1  0
  9 34  1  0
 10 35  1  0
 11 36  1  0
 12 37  1  0
 17 38  1  0
 17 39  1  0
 18 40  1  0
 18 41  1  0
 19 42  1  0
 19 43  1  0
 20 44  1  6
 23 45  1  0
 24 46  1  0
 24 47  1  0
 26 48  1  0
 27 49  1  0
M  END
$$$$
[H]N=C(c1c([H])c([H])c2c([H])c(S(=O)(=O)N([H])[C@]([H])(C(=O)N3C(=O)C([H])([H])C([H])([H])C3([H])[H])C([H])([H])c3c([H])c([H])c([H])c([H])c3[H])c([H])c([H])c2c1[H])N([H])[H]
     RDKit          3D

 57 60  0  0  0  0  0  0  0  0999 V2000
   -2.7789   -4.6468   -0.8078 C   0  0  0  0  0  0  0  0  0  0  0  0
   -2.1788   -4.1657   -1.9701 C   0  0  0  0  0  0  0  0  0  0  0  0
   -2.1252   -2.8285   -2.2357 C   0  0  0  0  0  0  0  0  0  0  0  0
   -2.6902   -1.8410   -1.3447 C   0  0  0  0  0  0  0  0  0  0  0  0
   -2.4714   -0.4995   -1.7780 C   0  0  0  0  0  0  0  0  0  0  0  0
   -2.3739    0.6575   -0.7952 C   0  0  1  0  0  0  0  0  0  0  0  0
   -3.7115    0.9440   -0.2379 C   0  0  0  0  0  0  0  0  0  0  0  0
   -4.5839    0.0062   -0.2895 O   0  0  0  0  0  0  0  0  0  0  0  0
   -4.1967    2.0985    0.3933 N   0  0  0  0  0  0  0  0  0  0  0  0
   -5.5431    2.1012    1.0435 C   0  0  0  0  0  0  0  0  0  0  0  0
   -5.6418    3.3410    1.8668 C   0  0  0  0  0  0  0  0  0  0  0  0
   -4.2328    3.8742    1.9086 C   0  0  0  0  0  0  0  0  0  0  0  0
   -3.7210    3.3867    0.5684 C   0  0  0  0  0  0  0  0  0  0  0  0
   -3.0215    4.0846   -0.1759 O   0  0  0  0  0  0  0  0  0  0  0  0
   -1.4540    0.0615    0.2701 N   0  0  0  0  0  0  0  0  0  0  0  0
   -0.1953    1.1266    0.5667 S   0  0  0  0  0  0  0  0  0  0  0  0
   -0.2805    1.6333    2.0077 O   0  0  0  0  0  0  0  0  0  0  0  0
    1.4531    0.7014    0.3038 C   0  0  0  0  0  0  0  0  0  0  0  0
    2.3217    1.8191    0.2728 C   0  0  0  0  0  0  0  0  0  0  0  0
    3.6816    1.6861    0.1350 C   0  0  0  0  0  0  0  0  0  0  0  0
    4.2309    0.4176    0.0295 C   0  0  0  0  0  0  0  0  0  0  0  0
    3.4118   -0.6843    0.0586 C   0  0  0  0  0  0  0  0  0  0  0  0
    4.0058   -1.9352   -0.0074 C   0  0  0  0  0  0  0  0  0  0  0  0
    5.3954   -2.0507   -0.0964 C   0  0  0  0  0  0  0  0  0  0  0  0
    6.2240   -0.9606   -0.1274 C   0  0  0  0  0  0  0  0  0  0  0  0
    7.6773   -1.0413   -0.1853 C   0  0  0  0  0  0  0  0  0  0  0  0
    8.3039   -2.1494   -0.3742 N   0  0  0  0  0  0  0  0  0  0  0  0
    8.5021    0.1086    0.0197 N   0  0  0  0  0  0  0  0  0  0  0  0
    5.6080    0.2685   -0.0636 C   0  0  0  0  0  0  0  0  0  0  0  0
    2.0284   -0.5220    0.1923 C   0  0  0  0  0  0  0  0  0  0  0  0
   -0.3618    2.3981   -0.3417 O   0  0  0  0  0  0  0  0  0  0  0  0
   -3.2452   -2.3749   -0.2536 C   0  0  0  0  0  0  0  0  0  0  0  0
   -3.3155   -3.7352    0.0601 C   0  0  0  0  0  0  0  0  0  0  0  0
   -2.8251   -5.7005   -0.5640 H   0  0  0  0  0  0  0  0  0  0  0  0
   -1.7567   -4.8837   -2.6495 H   0  0  0  0  0  0  0  0  0  0  0  0
   -1.6548   -2.5369   -3.1612 H   0  0  0  0  0  0  0  0  0  0  0  0
   -1.5711   -0.3993   -2.4686 H   0  0  0  0  0  0  0  0  0  0  0  0
   -3.3302   -0.2136   -2.4730 H   0  0  0  0  0  0  0  0  0  0  0  0
   -1.9113    1.5113   -1.1781 H   0  0  0  0  0  0  0  0  0  0  0  0
   -6.3659    2.0631    0.3204 H   0  0  0  0  0  0  0  0  0  0  0  0
   -5.5893    1.2222    1.7505 H   0  0  0  0  0  0  0  0  0  0  0  0
   -6.2695    4.1006    1.3209 H   0  0  0  0  0  0  0  0  0  0  0  0
   -6.0333    3.1111    2.8863 H   0  0  0  0  0  0  0  0  0  0  0  0
   -3.6992    3.3833    2.7406 H   0  0  0  0  0  0  0  0  0  0  0  0
   -4.2055    4.9839    1.9852 H   0  0  0  0  0  0  0  0  0  0  0  0
   -2.0373   -0.1833    1.0932 H   0  0  0  0  0  0  0  0  0  0  0  0
    1.8974    2.7989    0.3644 H   0  0  0  0  0  0  0  0  0  0  0  0
    4.3417    2.5470    0.1030 H   0  0  0  0  0  0  0  0  0  0  0  0
    3.4131   -2.8353    0.0168 H   0  0  0  0  0  0  0  0  0  0  0  0
    5.8045   -3.0341   -0.1329 H   0  0  0  0  0  0  0  0  0  0  0  0
    9.3113   -2.2514   -0.4247 H   0  0  0  0  0  0  0  0  0  0  0  0
    8.9978    0.2635    0.9320 H   0  0  0  0  0  0  0  0  0  0  0  0
    8.6160    0.7963   -0.7426 H   0  0  0  0  0  0  0  0  0  0  0  0
    6.2158    1.1897   -0.1022 H   0  0  0  0  0  0  0  0  0  0  0  0
    1.3805   -1.3796    0.2138 H   0  0  0  0  0  0  0  0  0  0  0  0
   -3.6538   -1.7798    0.5870 H   0  0  0  0  0  0  0  0  0  0  0  0
   -3.7960   -4.0533    0.9702 H   0  0  0  0  0  0  0  0  0  0  0  0
  1  2  2  0
  2  3  1  0
  3  4  2  0
  4  5  1  0
  5  6  1  0
  6  7  1  0
  7  8  2  0
  7  9  1  0
  9 10  1  0
 10 11  1  0
 11 12  1  0
 12 13  1  0
 13 14  2  0
  6 15  1  0
 15 16  1  0
 16 17  2  0
 16 18  1  0
 18 19  2  0
 19 20  1  0
 20 21  2  0
 21 22  1  0
 22 23  1  0
 23 24  2  0
 24 25  1  0
 25 26  1  0
 26 27  2  3
 26 28  1  0
 25 29  2  0
 22 30  2  0
 16 31  2  0
  4 32  1  0
 32 33  2  0
 33  1  1  0
 13  9  1  0
 30 18  1  0
 29 21  1  0
  1 34  1  0
  2 35  1  0
  3 36  1  0
  5 37  1  0
  5 38  1  0
  6 39  1  6
 10 40  1  0
 10 41  1  0
 11 42  1  0
 11 43  1  0
 12 44  1  0
 12 45  1  0
 15 46  1  0
 19 47  1  0
 20 48  1  0
 23 49  1  0
 24 50  1  0
 27 51  1  0
 28 52  1  0
 28 53  1  0
 29 54  1  0
 30 55  1  0
 32 56  1  0
 33 57  1  0
M  END
$$$$
[H]OC(=O)c1c(-c2c([H])c([H])c(F)c(C#N)c2[H])nc(-c2c([H])c([H])c(OC([H])([H])[H])c([H])c2[H])n1[H]
     RDKit          3D

 37 39  0  0  0  0  0  0  0  0999 V2000
    6.8171   -1.5055   -0.3266 C   0  0  0  0  0  0  0  0  0  0  0  0
    5.6180   -2.2418   -0.5157 O   0  0  0  0  0  0  0  0  0  0  0  0
    4.3947   -1.6367   -0.3454 C   0  0  0  0  0  0  0  0  0  0  0  0
    3.2209   -2.3288   -0.5228 C   0  0  0  0  0  0  0  0  0  0  0  0
    2.0155   -1.6897   -0.3435 C   0  0  0  0  0  0  0  0  0  0  0  0
    1.9425   -0.3601    0.0129 C   0  0  0  0  0  0  0  0  0  0  0  0
    3.1301    0.3439    0.1934 C   0  0  0  0  0  0  0  0  0  0  0  0
    4.3195   -0.3151    0.0089 C   0  0  0  0  0  0  0  0  0  0  0  0
    0.6586    0.3040    0.1994 C   0  0  0  0  0  0  0  0  0  0  0  0
   -0.5213   -0.2888    0.0486 N   0  0  0  0  0  0  0  0  0  0  0  0
   -1.5485    0.6027    0.2951 C   0  0  0  0  0  0  0  0  0  0  0  0
   -0.9382    1.7885    0.6067 C   0  0  0  0  0  0  0  0  0  0  0  0
    0.4095    1.5587    0.5370 N   0  0  0  0  0  0  0  0  0  0  0  0
   -1.5300    3.0692    0.9268 C   0  0  0  0  0  0  0  0  0  0  0  0
   -2.8728    3.3051    0.9640 O   0  0  0  0  0  0  0  0  0  0  0  0
   -0.7747    4.0381    1.1869 O   0  0  0  0  0  0  0  0  0  0  0  0
   -2.9594    0.2626    0.1923 C   0  0  0  0  0  0  0  0  0  0  0  0
   -3.8059    0.4723    1.2405 C   0  0  0  0  0  0  0  0  0  0  0  0
   -5.1614    0.1587    1.1187 C   0  0  0  0  0  0  0  0  0  0  0  0
   -5.6605   -0.3651   -0.0560 C   0  0  0  0  0  0  0  0  0  0  0  0
   -6.9787   -0.6838   -0.2125 F   0  0  0  0  0  0  0  0  0  0  0  0
   -4.8062   -0.5824   -1.1274 C   0  0  0  0  0  0  0  0  0  0  0  0
   -3.4613   -0.2632   -0.9853 C   0  0  0  0  0  0  0  0  0  0  0  0
   -5.3386   -1.1296   -2.3475 C   0  0  0  0  0  0  0  0  0  0  0  0
   -5.7514   -1.5741   -3.3332 N   0  0  0  0  0  0  0  0  0  0  0  0
    7.7026   -2.1728   -0.2929 H   0  0  0  0  0  0  0  0  0  0  0  0
    6.7692   -0.9555    0.6576 H   0  0  0  0  0  0  0  0  0  0  0  0
    6.9161   -0.7530   -1.1277 H   0  0  0  0  0  0  0  0  0  0  0  0
    3.2211   -3.3740   -0.8026 H   0  0  0  0  0  0  0  0  0  0  0  0
    1.0608   -2.2170   -0.4782 H   0  0  0  0  0  0  0  0  0  0  0  0
    3.0531    1.3763    0.4703 H   0  0  0  0  0  0  0  0  0  0  0  0
    5.2285    0.2866    0.1639 H   0  0  0  0  0  0  0  0  0  0  0  0
    1.1294    2.2654    0.7220 H   0  0  0  0  0  0  0  0  0  0  0  0
   -3.3675    3.8446    1.6587 H   0  0  0  0  0  0  0  0  0  0  0  0
   -3.5105    0.8611    2.2012 H   0  0  0  0  0  0  0  0  0  0  0  0
   -5.8399    0.3221    1.9441 H   0  0  0  0  0  0  0  0  0  0  0  0
   -2.7804   -0.4231   -1.8025 H   0  0  0  0  0  0  0  0  0  0  0  0
  1  2  1  0
  2  3  1  0
  3  4  2  0
  4  5  1  0
  5  6  2  0
  6  7  1  0
  7  8  2  0
  6  9  1  0
  9 10  2  0
 10 11  1  0
 11 12  2  0
 12 13  1  0
 12 14  1  0
 14 15  1  0
 14 16  2  0
 11 17  1  0
 17 18  2  0
 18 19  1  0
 19 20  2  0
 20 21  1  0
 20 22  1  0
 22 23  2  0
 22 24  1  0
 24 25  3  0
  8  3  1  0
 13  9  1  0
 23 17  1  0
  1 26  1  0
  1 27  1  0
  1 28  1  0
  4 29  1  0
  5 30  1  0
  7 31  1  0
  8 32  1  0
 13 33  1  0
 15 34  1  0
 18 35  1  0
 19 36  1  0
 23 37  1  0
M  END
$$$$
[H]O[C@]([H])(C([H])([H])[H])[C@]([H])(c1c([H])c([H])c(C#N)c([H])c1[H])N([H])c1c([H])c([H])c(C(F)(F)F)c([H])c1[H]
     RDKit          3D

 38 39  0  0  0  0  0  0  0  0999 V2000
   -1.6428   -2.5839    0.9508 C   0  0  0  0  0  0  0  0  0  0  0  0
   -0.5089   -1.9084    0.1646 C   0  0  1  0  0  0  0  0  0  0  0  0
   -0.6352   -2.3325   -1.1292 O   0  0  0  0  0  0  0  0  0  0  0  0
   -0.6085   -0.4519    0.3932 C   0  0  1  0  0  0  0  0  0  0  0  0
    0.2815    0.4205   -0.2684 N   0  0  0  0  0  0  0  0  0  0  0  0
    1.6873    0.4971   -0.2239 C   0  0  0  0  0  0  0  0  0  0  0  0
    2.4967   -0.5812   -0.3534 C   0  0  0  0  0  0  0  0  0  0  0  0
    3.8721   -0.4354   -0.2385 C   0  0  0  0  0  0  0  0  0  0  0  0
    4.4547    0.7864    0.0049 C   0  0  0  0  0  0  0  0  0  0  0  0
    3.6544    1.8970    0.1380 C   0  0  0  0  0  0  0  0  0  0  0  0
    2.3092    1.7418    0.0243 C   0  0  0  0  0  0  0  0  0  0  0  0
    5.9285    0.8438    0.1263 C   0  0  0  0  0  0  0  0  0  0  0  0
    6.2647   -0.0074    1.1923 F   0  0  0  0  0  0  0  0  0  0  0  0
    6.3838    2.1107    0.3980 F   0  0  0  0  0  0  0  0  0  0  0  0
    6.5327    0.3382   -0.9936 F   0  0  0  0  0  0  0  0  0  0  0  0
   -2.0304    0.0457    0.3293 C   0  0  0  0  0  0  0  0  0  0  0  0
   -2.8614   -0.2047   -0.7402 C   0  0  0  0  0  0  0  0  0  0  0  0
   -4.1599    0.2590   -0.7879 C   0  0  0  0  0  0  0  0  0  0  0  0
   -4.6812    1.0010    0.2470 C   0  0  0  0  0  0  0  0  0  0  0  0
   -3.8567    1.2616    1.3302 C   0  0  0  0  0  0  0  0  0  0  0  0
   -2.5615    0.7903    1.3618 C   0  0  0  0  0  0  0  0  0  0  0  0
   -6.0417    1.4887    0.2105 C   0  0  0  0  0  0  0  0  0  0  0  0
   -7.1341    1.8687    0.1991 N   0  0  0  0  0  0  0  0  0  0  0  0
   -2.5627   -2.6138    0.3395 H   0  0  0  0  0  0  0  0  0  0  0  0
   -1.8057   -2.1123    1.9150 H   0  0  0  0  0  0  0  0  0  0  0  0
   -1.3191   -3.6368    1.1014 H   0  0  0  0  0  0  0  0  0  0  0  0
    0.4114   -2.3055    0.6127 H   0  0  0  0  0  0  0  0  0  0  0  0
   -0.2698   -1.7056   -1.7992 H   0  0  0  0  0  0  0  0  0  0  0  0
   -0.3567   -0.3236    1.5133 H   0  0  0  0  0  0  0  0  0  0  0  0
   -0.1649    1.1523   -0.9202 H   0  0  0  0  0  0  0  0  0  0  0  0
    2.1473   -1.5914   -0.5698 H   0  0  0  0  0  0  0  0  0  0  0  0
    4.5066   -1.3260   -0.3447 H   0  0  0  0  0  0  0  0  0  0  0  0
    4.1558    2.8350    0.3266 H   0  0  0  0  0  0  0  0  0  0  0  0
    1.6761    2.6337    0.1325 H   0  0  0  0  0  0  0  0  0  0  0  0
   -2.4919   -0.7763   -1.5621 H   0  0  0  0  0  0  0  0  0  0  0  0
   -4.8071    0.0459   -1.6469 H   0  0  0  0  0  0  0  0  0  0  0  0
   -4.3051    1.8531    2.1318 H   0  0  0  0  0  0  0  0  0  0  0  0
   -1.9574    1.0263    2.2337 H   0  0  0  0  0  0  0  0  0  0  0  0
  1  2  1  0
  2  3  1  0
  2  4  1  0
  4  5  1  0
  5  6  1  0
  6  7  2  0
  7  8  1  0
  8  9  2  0
  9 10  1  0
 10 11  2  0
  9 12  1  0
 12 13  1  0
 12 14  1  0
 12 15  1  0
  4 16  1  0
 16 17  2  0
 17 18  1  0
 18 19  2  0
 19 20  1  0
 20 21  2  0
 19 22  1  0
 22 23  3  0
 11  6  1  0
 21 16  1  0
  1 24  1  0
  1 25  1  0
  1 26  1  0
  2 27  1  1
  3 28  1  0
  4 29  1  1
  5 30  1  0
  7 31  1  0
  8 32  1  0
 10 33  1  0
 11 34  1  0
 17 35  1  0
 18 36  1  0
 20 37  1  0
 21 38  1  0
M  END
$$$$
[H]c1c(N([H])C(=O)c2c([H])c([H])c(Cl)c([H])c2Cl)sc(S(=O)(=O)N([H])[H])c1[H]
     RDKit          3D

 28 29  0  0  0  0  0  0  0  0999 V2000
   -5.6858    0.9036    0.1709 N   0  0  0  0  0  0  0  0  0  0  0  0
   -5.1670   -0.5936   -0.5025 S   0  0  0  0  0  0  0  0  0  0  0  0
   -5.1848   -0.4652   -2.0206 O   0  0  0  0  0  0  0  0  0  0  0  0
   -5.9812   -1.7413   -0.0460 O   0  0  0  0  0  0  0  0  0  0  0  0
   -3.4726   -0.9065   -0.0910 C   0  0  0  0  0  0  0  0  0  0  0  0
   -2.9575   -1.9620    0.6087 C   0  0  0  0  0  0  0  0  0  0  0  0
   -1.6297   -1.9927    0.8029 C   0  0  0  0  0  0  0  0  0  0  0  0
   -0.8990   -0.9632    0.2838 C   0  0  0  0  0  0  0  0  0  0  0  0
    0.5086   -0.7512    0.3435 N   0  0  0  0  0  0  0  0  0  0  0  0
    1.0759    0.4167   -0.2800 C   0  0  0  0  0  0  0  0  0  0  0  0
    0.2960    1.2154   -0.8611 O   0  0  0  0  0  0  0  0  0  0  0  0
    2.4956    0.6785   -0.2485 C   0  0  0  0  0  0  0  0  0  0  0  0
    3.3407    0.2076   -1.2395 C   0  0  0  0  0  0  0  0  0  0  0  0
    4.7030    0.4552   -1.2151 C   0  0  0  0  0  0  0  0  0  0  0  0
    5.2673    1.1857   -0.1935 C   0  0  0  0  0  0  0  0  0  0  0  0
    6.9891    1.5261   -0.1184 Cl  0  0  0  0  0  0  0  0  0  0  0  0
    4.4382    1.6637    0.8044 C   0  0  0  0  0  0  0  0  0  0  0  0
    3.0782    1.4084    0.7671 C   0  0  0  0  0  0  0  0  0  0  0  0
    2.0036    2.0053    2.0240 Cl  0  0  0  0  0  0  0  0  0  0  0  0
   -2.0810    0.0153   -0.4581 S   0  0  0  0  0  0  0  0  0  0  0  0
   -5.1430    1.0628    1.0648 H   0  0  0  0  0  0  0  0  0  0  0  0
   -5.4115    1.6635   -0.4975 H   0  0  0  0  0  0  0  0  0  0  0  0
   -3.6486   -2.7446    0.9853 H   0  0  0  0  0  0  0  0  0  0  0  0
   -1.1076   -2.8014    1.3558 H   0  0  0  0  0  0  0  0  0  0  0  0
    1.0934   -1.4457    0.8364 H   0  0  0  0  0  0  0  0  0  0  0  0
    2.8711   -0.3666   -2.0353 H   0  0  0  0  0  0  0  0  0  0  0  0
    5.3509    0.0815   -1.9951 H   0  0  0  0  0  0  0  0  0  0  0  0
    4.8577    2.2450    1.6255 H   0  0  0  0  0  0  0  0  0  0  0  0
  1  2  1  0
  2  3  2  0
  2  4  2  0
  2  5  1  0
  5  6  2  0
  6  7  1  0
  7  8  2  0
  8  9  1  0
  9 10  1  0
 10 11  2  0
 10 12  1  0
 12 13  2  0
 13 14  1  0
 14 15  2  0
 15 16  1  0
 15 17  1  0
 17 18  2  0
 18 19  1  0
  8 20  1  0
 20  5  1  0
 18 12  1  0
  1 21  1  0
  1 22  1  0
  6 23  1  0
  7 24  1  0
  9 25  1  0
 13 26  1  0
 14 27  1  0
 17 28  1  0
M  END
$$$$
[H]c1c([H])c([H])c(N2c3c([H])c(C(=O)N4C([H])([H])C([H])([H])N(C([H])([H])[H])C([H])([H])C4([H])[H])c([H])c([H])c3C([H])([H])C2([H])[H])c(OC([H])([H])[H])c1[H]
     RDKit          3D

 51 54  0  0  0  0  0  0  0  0999 V2000
    0.8460   -0.3016    0.6994 C   0  0  0  0  0  0  0  0  0  0  0  0
    1.7816   -0.6548   -0.3419 C   0  0  0  0  0  0  0  0  0  0  0  0
    3.1428   -0.9489   -0.3067 N   0  0  0  0  0  0  0  0  0  0  0  0
    4.0438   -0.9888    0.8115 C   0  0  0  0  0  0  0  0  0  0  0  0
    5.4249   -1.4119    0.2971 C   0  0  0  0  0  0  0  0  0  0  0  0
    5.9192   -0.4733   -0.6565 N   0  0  0  0  0  0  0  0  0  0  0  0
    6.0743    0.8529   -0.1250 C   0  0  0  0  0  0  0  0  0  0  0  0
    5.0557   -0.4897   -1.8066 C   0  0  0  0  0  0  0  0  0  0  0  0
    3.8031   -1.2776   -1.5997 C   0  0  0  0  0  0  0  0  0  0  0  0
    1.2604   -0.7100   -1.5384 O   0  0  0  0  0  0  0  0  0  0  0  0
    1.1755   -0.1850    2.0218 C   0  0  0  0  0  0  0  0  0  0  0  0
    0.1958    0.1637    2.9655 C   0  0  0  0  0  0  0  0  0  0  0  0
   -1.1106    0.4017    2.6322 C   0  0  0  0  0  0  0  0  0  0  0  0
   -1.4436    0.2848    1.3041 C   0  0  0  0  0  0  0  0  0  0  0  0
   -0.5015   -0.0547    0.3664 C   0  0  0  0  0  0  0  0  0  0  0  0
   -2.8431    0.5619    1.1352 N   0  0  0  0  0  0  0  0  0  0  0  0
   -3.5036    0.9888   -0.0460 C   0  0  0  0  0  0  0  0  0  0  0  0
   -3.1942    2.1628   -0.7016 C   0  0  0  0  0  0  0  0  0  0  0  0
   -3.8429    2.5697   -1.8508 C   0  0  0  0  0  0  0  0  0  0  0  0
   -4.8448    1.7981   -2.3938 C   0  0  0  0  0  0  0  0  0  0  0  0
   -5.1649    0.6215   -1.7488 C   0  0  0  0  0  0  0  0  0  0  0  0
   -4.5134    0.2175   -0.5989 C   0  0  0  0  0  0  0  0  0  0  0  0
   -4.8462   -0.9783    0.0474 O   0  0  0  0  0  0  0  0  0  0  0  0
   -5.8633   -1.7647   -0.5011 C   0  0  0  0  0  0  0  0  0  0  0  0
   -3.4347    0.3102    2.4352 C   0  0  0  0  0  0  0  0  0  0  0  0
   -2.3375    0.7800    3.3603 C   0  0  0  0  0  0  0  0  0  0  0  0
    4.1959   -0.0150    1.3197 H   0  0  0  0  0  0  0  0  0  0  0  0
    3.7479   -1.7981    1.5071 H   0  0  0  0  0  0  0  0  0  0  0  0
    6.1156   -1.5345    1.1708 H   0  0  0  0  0  0  0  0  0  0  0  0
    5.3603   -2.4075   -0.1735 H   0  0  0  0  0  0  0  0  0  0  0  0
    5.0875    1.3382    0.0357 H   0  0  0  0  0  0  0  0  0  0  0  0
    6.5903    1.4637   -0.8993 H   0  0  0  0  0  0  0  0  0  0  0  0
    6.7029    0.8463    0.7708 H   0  0  0  0  0  0  0  0  0  0  0  0
    4.8921    0.5263   -2.1577 H   0  0  0  0  0  0  0  0  0  0  0  0
    5.6290   -1.0296   -2.6154 H   0  0  0  0  0  0  0  0  0  0  0  0
    3.9480   -2.3747   -1.6267 H   0  0  0  0  0  0  0  0  0  0  0  0
    3.1173   -1.0109   -2.4227 H   0  0  0  0  0  0  0  0  0  0  0  0
    2.1722   -0.3478    2.4062 H   0  0  0  0  0  0  0  0  0  0  0  0
    0.4718    0.2526    4.0109 H   0  0  0  0  0  0  0  0  0  0  0  0
   -0.8163   -0.1345   -0.6847 H   0  0  0  0  0  0  0  0  0  0  0  0
   -2.4040    2.7635   -0.2664 H   0  0  0  0  0  0  0  0  0  0  0  0
   -3.5798    3.5029   -2.3510 H   0  0  0  0  0  0  0  0  0  0  0  0
   -5.3452    2.1317   -3.2976 H   0  0  0  0  0  0  0  0  0  0  0  0
   -5.9547    0.0235   -2.1859 H   0  0  0  0  0  0  0  0  0  0  0  0
   -5.9039   -2.7605    0.0051 H   0  0  0  0  0  0  0  0  0  0  0  0
   -6.8648   -1.2697   -0.4362 H   0  0  0  0  0  0  0  0  0  0  0  0
   -5.6650   -1.9135   -1.5721 H   0  0  0  0  0  0  0  0  0  0  0  0
   -3.5667   -0.7883    2.5265 H   0  0  0  0  0  0  0  0  0  0  0  0
   -4.3763    0.8707    2.5774 H   0  0  0  0  0  0  0  0  0  0  0  0
   -2.4305    1.8883    3.4231 H   0  0  0  0  0  0  0  0  0  0  0  0
   -2.4024    0.3027    4.3606 H   0  0  0  0  0  0  0  0  0  0  0  0
  1  2  1  0
  2  3  1  0
  3  4  1  0
  4  5  1  0
  5  6  1  0
  6  7  1  0
  6  8  1  0
  8  9  1  0
  2 10  2  0
  1 11  2  0
 11 12  1  0
 12 13  2  0
 13 14  1  0
 14 15  2  0
 14 16  1  0
 16 17  1  0
 17 18  2  0
 18 19  1  0
 19 20  2  0
 20 21  1  0
 21 22  2  0
 22 23  1  0
 23 24  1  0
 16 25  1  0
 25 26  1  0
 15  1  1  0
 22 17  1  0
  9  3  1  0
 26 13  1  0
  4 27  1  0
  4 28  1  0
  5 29  1  0
  5 30  1  0
  7 31  1  0
  7 32  1  0
  7 33  1  0
  8 34  1  0
  8 35  1  0
  9 36  1  0
  9 37  1  0
 11 38  1  0
 12 39  1  0
 15 40  1  0
 18 41  1  0
 19 42  1  0
 20 43  1  0
 21 44  1  0
 24 45  1  0
 24 46  1  0
 24 47  1  0
 25 48  1  0
 25 49  1  0
 26 50  1  0
 26 51  1  0
M  END
$$$$
[H]N=C(N([H])[H])N([H])C([H])([H])C([H])([H])C([H])([H])[C@@]([H])(C(=O)O[H])N([H])C(=O)[C@@]([H])(N([H])C(=O)c1c([H])c([H])c(OC([H])([H])[C@@]([H])(C(=N[H])N([H])[H])N([H])c2c([H])c([H])c3nc([H])c([H])c([H])c3c2[H])c(C([H])([H])[H])c1[H])C([H])([H])C(=O)O[H]
     RDKit          3D

 83 85  0  0  0  0  0  0  0  0999 V2000
   -2.9481    2.6379    1.5193 C   0  0  0  0  0  0  0  0  0  0  0  0
   -2.2471    1.3457    1.6382 C   0  0  0  0  0  0  0  0  0  0  0  0
   -0.8919    1.2535    1.6335 C   0  0  0  0  0  0  0  0  0  0  0  0
   -0.2560    0.0296    1.7429 C   0  0  0  0  0  0  0  0  0  0  0  0
   -1.0395   -1.0947    1.8579 C   0  0  0  0  0  0  0  0  0  0  0  0
   -2.4172   -1.0134    1.8645 C   0  0  0  0  0  0  0  0  0  0  0  0
   -3.0558    0.1870    1.7562 C   0  0  0  0  0  0  0  0  0  0  0  0
   -4.4042    0.3390    1.7591 O   0  0  0  0  0  0  0  0  0  0  0  0
   -5.4704   -0.4795    1.8285 C   0  0  0  0  0  0  0  0  0  0  0  0
   -5.6285   -1.3929    0.6768 C   0  0  2  0  0  0  0  0  0  0  0  0
   -5.7155   -0.8218   -0.6325 N   0  0  0  0  0  0  0  0  0  0  0  0
   -6.5977    0.1266   -1.1704 C   0  0  0  0  0  0  0  0  0  0  0  0
   -6.9847    0.0257   -2.5289 C   0  0  0  0  0  0  0  0  0  0  0  0
   -7.8176    0.9388   -3.1126 C   0  0  0  0  0  0  0  0  0  0  0  0
   -8.3121    2.0012   -2.3830 C   0  0  0  0  0  0  0  0  0  0  0  0
   -9.1332    2.9240   -2.9209 N   0  0  0  0  0  0  0  0  0  0  0  0
   -9.6014    3.9614   -2.1802 C   0  0  0  0  0  0  0  0  0  0  0  0
   -9.2657    4.1184   -0.8591 C   0  0  0  0  0  0  0  0  0  0  0  0
   -8.4192    3.1687   -0.2948 C   0  0  0  0  0  0  0  0  0  0  0  0
   -7.9602    2.1338   -1.0655 C   0  0  0  0  0  0  0  0  0  0  0  0
   -7.1099    1.1853   -0.5021 C   0  0  0  0  0  0  0  0  0  0  0  0
   -6.7864   -2.3518    0.8890 C   0  0  0  0  0  0  0  0  0  0  0  0
   -7.0900   -3.2257   -0.1811 N   0  0  0  0  0  0  0  0  0  0  0  0
   -7.4124   -2.3443    1.9731 N   0  0  0  0  0  0  0  0  0  0  0  0
    1.1851   -0.0860    1.7547 C   0  0  0  0  0  0  0  0  0  0  0  0
    1.8424    0.9212    2.0980 O   0  0  0  0  0  0  0  0  0  0  0  0
    1.7950   -1.3041    1.3850 N   0  0  0  0  0  0  0  0  0  0  0  0
    3.2383   -1.3723    1.4175 C   0  0  1  0  0  0  0  0  0  0  0  0
    3.7462   -2.5457    2.2020 C   0  0  0  0  0  0  0  0  0  0  0  0
    3.3161   -2.5484    3.6178 C   0  0  0  0  0  0  0  0  0  0  0  0
    3.7525   -3.5718    4.4662 O   0  0  0  0  0  0  0  0  0  0  0  0
    2.5679   -1.6771    4.1320 O   0  0  0  0  0  0  0  0  0  0  0  0
    3.7356   -1.3732    0.0238 C   0  0  0  0  0  0  0  0  0  0  0  0
    2.9041   -1.3284   -0.9109 O   0  0  0  0  0  0  0  0  0  0  0  0
    5.0986   -1.4226   -0.3242 N   0  0  0  0  0  0  0  0  0  0  0  0
    5.5847   -1.4262   -1.6806 C   0  0  1  0  0  0  0  0  0  0  0  0
    6.4103   -0.2072   -2.0301 C   0  0  0  0  0  0  0  0  0  0  0  0
    7.6217   -0.0752   -1.1543 C   0  0  0  0  0  0  0  0  0  0  0  0
    8.3598    1.1887   -1.6199 C   0  0  0  0  0  0  0  0  0  0  0  0
    9.5313    1.3854   -0.8134 N   0  0  0  0  0  0  0  0  0  0  0  0
   10.3618    2.4895   -1.0679 C   0  0  0  0  0  0  0  0  0  0  0  0
    9.8742    3.8281   -1.0875 N   0  0  0  0  0  0  0  0  0  0  0  0
   11.6337    2.2674   -1.2963 N   0  0  0  0  0  0  0  0  0  0  0  0
    6.3650   -2.6787   -1.8616 C   0  0  0  0  0  0  0  0  0  0  0  0
    6.9687   -2.9715   -3.0756 O   0  0  0  0  0  0  0  0  0  0  0  0
    6.5182   -3.5299   -0.9407 O   0  0  0  0  0  0  0  0  0  0  0  0
   -2.3838    3.5000    1.8852 H   0  0  0  0  0  0  0  0  0  0  0  0
   -3.9207    2.5542    2.0822 H   0  0  0  0  0  0  0  0  0  0  0  0
   -3.2558    2.7812    0.4488 H   0  0  0  0  0  0  0  0  0  0  0  0
   -0.2842    2.1662    1.5411 H   0  0  0  0  0  0  0  0  0  0  0  0
   -0.6075   -2.0958    1.9507 H   0  0  0  0  0  0  0  0  0  0  0  0
   -2.9483   -1.9513    1.9825 H   0  0  0  0  0  0  0  0  0  0  0  0
   -5.2746   -1.2175    2.7302 H   0  0  0  0  0  0  0  0  0  0  0  0
   -6.4168   -0.0069    2.1953 H   0  0  0  0  0  0  0  0  0  0  0  0
   -4.7432   -2.1112    0.6747 H   0  0  0  0  0  0  0  0  0  0  0  0
   -4.9752   -1.1616   -1.3647 H   0  0  0  0  0  0  0  0  0  0  0  0
   -6.5915   -0.8095   -3.0929 H   0  0  0  0  0  0  0  0  0  0  0  0
   -8.1177    0.8665   -4.1548 H   0  0  0  0  0  0  0  0  0  0  0  0
  -10.2637    4.6937   -2.6305 H   0  0  0  0  0  0  0  0  0  0  0  0
   -9.6095    4.9295   -0.2320 H   0  0  0  0  0  0  0  0  0  0  0  0
   -8.1220    3.2530    0.7624 H   0  0  0  0  0  0  0  0  0  0  0  0
   -6.8598    1.3545    0.5122 H   0  0  0  0  0  0  0  0  0  0  0  0
   -6.8821   -3.0240   -1.1849 H   0  0  0  0  0  0  0  0  0  0  0  0
   -7.5602   -4.1657   -0.0198 H   0  0  0  0  0  0  0  0  0  0  0  0
   -7.2155   -1.7290    2.7682 H   0  0  0  0  0  0  0  0  0  0  0  0
    1.2083   -2.1049    1.1029 H   0  0  0  0  0  0  0  0  0  0  0  0
    3.6718   -0.4444    1.8787 H   0  0  0  0  0  0  0  0  0  0  0  0
    3.3366   -3.4817    1.7239 H   0  0  0  0  0  0  0  0  0  0  0  0
    4.8444   -2.6275    2.2028 H   0  0  0  0  0  0  0  0  0  0  0  0
    3.0716   -4.1718    4.8833 H   0  0  0  0  0  0  0  0  0  0  0  0
    5.8035   -1.4576    0.4408 H   0  0  0  0  0  0  0  0  0  0  0  0
    4.7198   -1.3996   -2.4108 H   0  0  0  0  0  0  0  0  0  0  0  0
    6.7002   -0.3030   -3.0862 H   0  0  0  0  0  0  0  0  0  0  0  0
    5.7669    0.6711   -1.9362 H   0  0  0  0  0  0  0  0  0  0  0  0
    7.2806    0.0983   -0.1063 H   0  0  0  0  0  0  0  0  0  0  0  0
    8.3270   -0.9010   -1.2562 H   0  0  0  0  0  0  0  0  0  0  0  0
    8.6363    0.9910   -2.6930 H   0  0  0  0  0  0  0  0  0  0  0  0
    7.6703    2.0526   -1.6351 H   0  0  0  0  0  0  0  0  0  0  0  0
    9.7462    0.7116   -0.0553 H   0  0  0  0  0  0  0  0  0  0  0  0
   10.4901    4.5995   -0.7738 H   0  0  0  0  0  0  0  0  0  0  0  0
    8.9013    4.0462   -1.4150 H   0  0  0  0  0  0  0  0  0  0  0  0
   12.0162    1.3082   -1.2891 H   0  0  0  0  0  0  0  0  0  0  0  0
    7.9942   -3.0283   -3.1016 H   0  0  0  0  0  0  0  0  0  0  0  0
  1  2  1  0
  2  3  2  0
  3  4  1  0
  4  5  2  0
  5  6  1  0
  6  7  2  0
  7  8  1  0
  8  9  1  0
  9 10  1  0
 10 11  1  0
 11 12  1  0
 12 13  2  0
 13 14  1  0
 14 15  2  0
 15 16  1  0
 16 17  2  0
 17 18  1  0
 18 19  2  0
 19 20  1  0
 20 21  2  0
 10 22  1  0
 22 23  1  0
 22 24  2  3
  4 25  1  0
 25 26  2  0
 25 27  1  0
 27 28  1  0
 28 29  1  0
 29 30  1  0
 30 31  1  0
 30 32  2  0
 28 33  1  0
 33 34  2  0
 33 35  1  0
 35 36  1  0
 36 37  1  0
 37 38  1  0
 38 39  1  0
 39 40  1  0
 40 41  1  0
 41 42  1  0
 41 43  2  3
 36 44  1  0
 44 45  1  0
 44 46  2  0
  7  2  1  0
 21 12  1  0
 20 15  1  0
  1 47  1  0
  1 48  1  0
  1 49  1  0
  3 50  1  0
  5 51  1  0
  6 52  1  0
  9 53  1  0
  9 54  1  0
 10 55  1  6
 11 56  1  0
 13 57  1  0
 14 58  1  0
 17 59  1  0
 18 60  1  0
 19 61  1  0
 21 62  1  0
 23 63  1  0
 23 64  1  0
 24 65  1  0
 27 66  1  0
 28 67  1  1
 29 68  1  0
 29 69  1  0
 31 70  1  0
 35 71  1  0
 36 72  1  6
 37 73  1  0
 37 74  1  0
 38 75  1  0
 38 76  1  0
 39 77  1  0
 39 78  1  0
 40 79  1  0
 42 80  1  0
 42 81  1  0
 43 82  1  0
 45 83  1  0
M  END
$$$$
[H]c1nn(C([H])([H])[H])c([H])c1-c1c([H])c([H])c2c(c1[H])C([H])([H])C([H])([H])N(C(=O)c1c([H])c(OC([H])([H])[H])c(OC([H])([H])[H])c(OC([H])([H])[H])c1[H])C2([H])[H]
     RDKit          3D

 55 58  0  0  0  0  0  0  0  0999 V2000
   -5.8843    2.5579    2.1270 C   0  0  0  0  0  0  0  0  0  0  0  0
   -6.0765    2.0391    0.8268 O   0  0  0  0  0  0  0  0  0  0  0  0
   -5.0162    1.2935    0.2840 C   0  0  0  0  0  0  0  0  0  0  0  0
   -3.8545    1.0791    0.9799 C   0  0  0  0  0  0  0  0  0  0  0  0
   -2.7757    0.3344    0.4570 C   0  0  0  0  0  0  0  0  0  0  0  0
   -2.9770   -0.1560   -0.7959 C   0  0  0  0  0  0  0  0  0  0  0  0
   -4.1716    0.0634   -1.5125 C   0  0  0  0  0  0  0  0  0  0  0  0
   -4.3177   -0.4595   -2.7782 O   0  0  0  0  0  0  0  0  0  0  0  0
   -3.3071   -1.2198   -3.4031 C   0  0  0  0  0  0  0  0  0  0  0  0
   -5.2024    0.7889   -0.9822 C   0  0  0  0  0  0  0  0  0  0  0  0
   -6.3907    1.0262   -1.6546 O   0  0  0  0  0  0  0  0  0  0  0  0
   -7.4829    0.1334   -1.5321 C   0  0  0  0  0  0  0  0  0  0  0  0
   -1.5967    0.2061    1.2860 C   0  0  0  0  0  0  0  0  0  0  0  0
   -1.5955    0.8910    2.4083 O   0  0  0  0  0  0  0  0  0  0  0  0
   -0.4333   -0.5302    1.1081 N   0  0  0  0  0  0  0  0  0  0  0  0
   -0.1296   -1.3944    0.0264 C   0  0  0  0  0  0  0  0  0  0  0  0
    1.1493   -2.1801    0.3340 C   0  0  0  0  0  0  0  0  0  0  0  0
    2.2225   -1.1786    0.5769 C   0  0  0  0  0  0  0  0  0  0  0  0
    3.4153   -1.1528   -0.0704 C   0  0  0  0  0  0  0  0  0  0  0  0
    4.3377   -0.1577    0.2643 C   0  0  0  0  0  0  0  0  0  0  0  0
    4.0388    0.7606    1.2187 C   0  0  0  0  0  0  0  0  0  0  0  0
    2.8049    0.7315    1.8858 C   0  0  0  0  0  0  0  0  0  0  0  0
    1.9179   -0.2335    1.5568 C   0  0  0  0  0  0  0  0  0  0  0  0
    0.5976   -0.3580    2.1762 C   0  0  0  0  0  0  0  0  0  0  0  0
    5.6250   -0.1327   -0.4376 C   0  0  0  0  0  0  0  0  0  0  0  0
    5.8142   -0.5356   -1.7527 C   0  0  0  0  0  0  0  0  0  0  0  0
    7.1131   -0.3753   -2.0584 N   0  0  0  0  0  0  0  0  0  0  0  0
    7.7510    0.1116   -0.9920 N   0  0  0  0  0  0  0  0  0  0  0  0
    9.1719    0.3968   -0.9995 C   0  0  0  0  0  0  0  0  0  0  0  0
    6.8591    0.2635   -0.0008 C   0  0  0  0  0  0  0  0  0  0  0  0
   -6.7077    3.2426    2.4213 H   0  0  0  0  0  0  0  0  0  0  0  0
   -5.7761    1.7689    2.9004 H   0  0  0  0  0  0  0  0  0  0  0  0
   -4.9431    3.1475    2.1548 H   0  0  0  0  0  0  0  0  0  0  0  0
   -3.7547    1.5000    1.9858 H   0  0  0  0  0  0  0  0  0  0  0  0
   -2.2073   -0.7218   -1.2858 H   0  0  0  0  0  0  0  0  0  0  0  0
   -2.9618   -2.0142   -2.6882 H   0  0  0  0  0  0  0  0  0  0  0  0
   -3.7817   -1.7515   -4.2523 H   0  0  0  0  0  0  0  0  0  0  0  0
   -2.4801   -0.5672   -3.7113 H   0  0  0  0  0  0  0  0  0  0  0  0
   -7.7750   -0.2916   -2.5239 H   0  0  0  0  0  0  0  0  0  0  0  0
   -7.2311   -0.7413   -0.8985 H   0  0  0  0  0  0  0  0  0  0  0  0
   -8.3586    0.6358   -1.0443 H   0  0  0  0  0  0  0  0  0  0  0  0
   -0.9259   -2.1581   -0.1683 H   0  0  0  0  0  0  0  0  0  0  0  0
    0.0522   -0.7812   -0.8871 H   0  0  0  0  0  0  0  0  0  0  0  0
    1.0030   -2.7532    1.2561 H   0  0  0  0  0  0  0  0  0  0  0  0
    1.4627   -2.7787   -0.5381 H   0  0  0  0  0  0  0  0  0  0  0  0
    3.6301   -1.9051   -0.8352 H   0  0  0  0  0  0  0  0  0  0  0  0
    4.7362    1.5306    1.4875 H   0  0  0  0  0  0  0  0  0  0  0  0
    2.6353    1.4921    2.6325 H   0  0  0  0  0  0  0  0  0  0  0  0
    0.5168   -1.2041    2.9014 H   0  0  0  0  0  0  0  0  0  0  0  0
    0.3826    0.5619    2.7379 H   0  0  0  0  0  0  0  0  0  0  0  0
    5.0897   -0.9142   -2.4444 H   0  0  0  0  0  0  0  0  0  0  0  0
    9.6468    0.1714   -0.0248 H   0  0  0  0  0  0  0  0  0  0  0  0
    9.6886   -0.2087   -1.7692 H   0  0  0  0  0  0  0  0  0  0  0  0
    9.3693    1.4876   -1.2039 H   0  0  0  0  0  0  0  0  0  0  0  0
    7.0832    0.6393    0.9838 H   0  0  0  0  0  0  0  0  0  0  0  0
  1  2  1  0
  2  3  1  0
  3  4  2  0
  4  5  1  0
  5  6  2  0
  6  7  1  0
  7  8  1  0
  8  9  1  0
  7 10  2  0
 10 11  1  0
 11 12  1  0
  5 13  1  0
 13 14  2  0
 13 15  1  0
 15 16  1  0
 16 17  1  0
 17 18  1  0
 18 19  2  0
 19 20  1  0
 20 21  2  0
 21 22  1  0
 22 23  2  0
 23 24  1  0
 20 25  1  0
 25 26  1  0
 26 27  2  0
 27 28  1  0
 28 29  1  0
 28 30  1  0
 10  3  1  0
 24 15  1  0
 30 25  2  0
 23 18  1  0
  1 31  1  0
  1 32  1  0
  1 33  1  0
  4 34  1  0
  6 35  1  0
  9 36  1  0
  9 37  1  0
  9 38  1  0
 12 39  1  0
 12 40  1  0
 12 41  1  0
 16 42  1  0
 16 43  1  0
 17 44  1  0
 17 45  1  0
 19 46  1  0
 21 47  1  0
 22 48  1  0
 24 49  1  0
 24 50  1  0
 26 51  1  0
 29 52  1  0
 29 53  1  0
 29 54  1  0
 30 55  1  0
M  END
$$$$
[H]OC(=O)[C@]1([H])C([H])([H])C([H])([H])c2c(n([H])c3c([H])c([H])c([H])c([H])c23)[C@]2([H])C([H])([H])[C@]([H])(N([H])[H])C([H])([H])[C@@]12[H]
     RDKit          3D

 41 44  0  0  0  0  0  0  0  0999 V2000
   -3.6773   -2.6379   -0.8574 N   0  0  0  0  0  0  0  0  0  0  0  0
   -2.9859   -1.6557   -0.0724 C   0  0  2  0  0  0  0  0  0  0  0  0
   -2.8438   -0.3476   -0.8460 C   0  0  0  0  0  0  0  0  0  0  0  0
   -1.5701    0.2846   -0.4151 C   0  0  1  0  0  0  0  0  0  0  0  0
   -1.7205    1.5517    0.3531 C   0  0  1  0  0  0  0  0  0  0  0  0
   -0.4883    1.8865    1.1402 C   0  0  0  0  0  0  0  0  0  0  0  0
    0.7590    1.9445    0.3205 C   0  0  0  0  0  0  0  0  0  0  0  0
    1.2580    0.5298    0.1829 C   0  0  0  0  0  0  0  0  0  0  0  0
    0.5395   -0.6562    0.2613 C   0  0  0  0  0  0  0  0  0  0  0  0
    1.3664   -1.7037    0.0815 N   0  0  0  0  0  0  0  0  0  0  0  0
    2.6044   -1.2060   -0.1109 C   0  0  0  0  0  0  0  0  0  0  0  0
    3.7936   -1.8585   -0.3377 C   0  0  0  0  0  0  0  0  0  0  0  0
    4.9363   -1.0982   -0.5041 C   0  0  0  0  0  0  0  0  0  0  0  0
    4.8894    0.2909   -0.4445 C   0  0  0  0  0  0  0  0  0  0  0  0
    3.6901    0.9368   -0.2163 C   0  0  0  0  0  0  0  0  0  0  0  0
    2.5576    0.1704   -0.0518 C   0  0  0  0  0  0  0  0  0  0  0  0
   -0.9126   -0.7449    0.5053 C   0  0  2  0  0  0  0  0  0  0  0  0
   -1.5101   -2.0560    0.0626 C   0  0  0  0  0  0  0  0  0  0  0  0
   -2.1156    2.7020   -0.4768 C   0  0  0  0  0  0  0  0  0  0  0  0
   -2.2847    3.9337    0.1344 O   0  0  0  0  0  0  0  0  0  0  0  0
   -2.3098    2.6305   -1.7163 O   0  0  0  0  0  0  0  0  0  0  0  0
   -3.1635   -2.7778   -1.7414 H   0  0  0  0  0  0  0  0  0  0  0  0
   -3.6988   -3.5303   -0.3409 H   0  0  0  0  0  0  0  0  0  0  0  0
   -3.4186   -1.4662    0.9126 H   0  0  0  0  0  0  0  0  0  0  0  0
   -2.7122   -0.6663   -1.9218 H   0  0  0  0  0  0  0  0  0  0  0  0
   -3.7314    0.2824   -0.7831 H   0  0  0  0  0  0  0  0  0  0  0  0
   -0.8923    0.5049   -1.2874 H   0  0  0  0  0  0  0  0  0  0  0  0
   -2.5462    1.4017    1.1026 H   0  0  0  0  0  0  0  0  0  0  0  0
   -0.6389    2.9172    1.5744 H   0  0  0  0  0  0  0  0  0  0  0  0
   -0.3446    1.2245    2.0115 H   0  0  0  0  0  0  0  0  0  0  0  0
    0.6215    2.4212   -0.6508 H   0  0  0  0  0  0  0  0  0  0  0  0
    1.5377    2.4785    0.9199 H   0  0  0  0  0  0  0  0  0  0  0  0
    1.1170   -2.7160    0.0863 H   0  0  0  0  0  0  0  0  0  0  0  0
    3.8576   -2.9350   -0.3886 H   0  0  0  0  0  0  0  0  0  0  0  0
    5.8679   -1.6097   -0.6819 H   0  0  0  0  0  0  0  0  0  0  0  0
    5.7959    0.8809   -0.5770 H   0  0  0  0  0  0  0  0  0  0  0  0
    3.6076    2.0086   -0.1624 H   0  0  0  0  0  0  0  0  0  0  0  0
   -1.1603   -0.5884    1.5542 H   0  0  0  0  0  0  0  0  0  0  0  0
   -1.1872   -2.3475   -0.9553 H   0  0  0  0  0  0  0  0  0  0  0  0
   -1.3881   -2.8345    0.8201 H   0  0  0  0  0  0  0  0  0  0  0  0
   -1.4985    4.4550    0.4980 H   0  0  0  0  0  0  0  0  0  0  0  0
  1  2  1  0
  2  3  1  0
  3  4  1  0
  4  5  1  0
  5  6  1  0
  6  7  1  0
  7  8  1  0
  8  9  2  0
  9 10  1  0
 10 11  1  0
 11 12  2  0
 12 13  1  0
 13 14  2  0
 14 15  1  0
 15 16  2  0
  9 17  1  0
 17 18  1  0
  5 19  1  0
 19 20  1  0
 19 21  2  0
 18  2  1  0
 17  4  1  0
 16  8  1  0
 16 11  1  0
  1 22  1  0
  1 23  1  0
  2 24  1  1
  3 25  1  0
  3 26  1  0
  4 27  1  6
  5 28  1  1
  6 29  1  0
  6 30  1  0
  7 31  1  0
  7 32  1  0
 10 33  1  0
 12 34  1  0
 13 35  1  0
 14 36  1  0
 15 37  1  0
 17 38  1  1
 18 39  1  0
 18 40  1  0
 20 41  1  0
M  END
$$$$
[H]Oc1c([H])c([H])c(C([H])([H])[C@@]([H])(C(=O)N([H])[C@]([H])(C(=O)N([H])[C@]([H])(C(=O)N([H])[H])C([H])([H])c2c([H])c([H])c([H])c([H])c2[H])[C@@]([H])(C([H])([H])[H])C([H])([H])C([H])([H])[H])N([H])C(=O)[C@@]2([H])N(C(=O)[C@@]([H])(N([H])[H])C([H])([H])C([H])([H])C([H])([H])N=C(N([H])[H])N([H])[H])C([H])([H])C([H])([H])C2([H])[H])c([H])c1[H]
     RDKit          3D

101103  0  0  0  0  0  0  0  0999 V2000
   -1.6953    2.6253   -2.5951 C   0  0  0  0  0  0  0  0  0  0  0  0
   -2.6650    3.0175   -1.4934 C   0  0  0  0  0  0  0  0  0  0  0  0
   -2.2783    2.5266   -0.1487 C   0  0  2  0  0  0  0  0  0  0  0  0
   -0.9042    3.0718    0.2694 C   0  0  0  0  0  0  0  0  0  0  0  0
   -2.4210    1.0854    0.1510 C   0  0  2  0  0  0  0  0  0  0  0  0
   -1.6681    0.2108   -0.7072 N   0  0  0  0  0  0  0  0  0  0  0  0
   -0.5474   -0.5629   -0.3540 C   0  0  0  0  0  0  0  0  0  0  0  0
   -0.1802   -0.5387    0.8458 O   0  0  0  0  0  0  0  0  0  0  0  0
    0.2624   -1.3977   -1.2987 C   0  0  2  0  0  0  0  0  0  0  0  0
   -0.4375   -2.4587   -2.0366 C   0  0  0  0  0  0  0  0  0  0  0  0
   -1.0506   -3.5639   -1.3619 C   0  0  0  0  0  0  0  0  0  0  0  0
   -2.3213   -3.5521   -0.8816 C   0  0  0  0  0  0  0  0  0  0  0  0
   -2.8811   -4.6473   -0.2387 C   0  0  0  0  0  0  0  0  0  0  0  0
   -2.1652   -5.8057   -0.0588 C   0  0  0  0  0  0  0  0  0  0  0  0
   -2.6949   -6.9074    0.5756 O   0  0  0  0  0  0  0  0  0  0  0  0
   -0.8654   -5.8373   -0.5448 C   0  0  0  0  0  0  0  0  0  0  0  0
   -0.3455   -4.7534   -1.1675 C   0  0  0  0  0  0  0  0  0  0  0  0
    1.4848   -1.7634   -0.7208 N   0  0  0  0  0  0  0  0  0  0  0  0
    2.6526   -2.1138   -0.1665 C   0  0  0  0  0  0  0  0  0  0  0  0
    2.8265   -2.6991    0.9504 O   0  0  0  0  0  0  0  0  0  0  0  0
    4.0144   -1.8443   -0.8120 C   0  0  2  0  0  0  0  0  0  0  0  0
    4.7305   -3.1745   -0.8528 C   0  0  0  0  0  0  0  0  0  0  0  0
    6.1672   -2.7279   -0.9290 C   0  0  0  0  0  0  0  0  0  0  0  0
    6.2153   -1.4243   -0.1858 C   0  0  0  0  0  0  0  0  0  0  0  0
    4.8552   -1.0696    0.0949 N   0  0  0  0  0  0  0  0  0  0  0  0
    4.4071   -0.1129    1.0499 C   0  0  0  0  0  0  0  0  0  0  0  0
    3.1053    0.0553    1.0275 O   0  0  0  0  0  0  0  0  0  0  0  0
    5.0746    0.6883    2.0265 C   0  0  1  0  0  0  0  0  0  0  0  0
    4.5507    0.4518    3.4036 N   0  0  0  0  0  0  0  0  0  0  0  0
    6.4864    1.0394    2.0204 C   0  0  0  0  0  0  0  0  0  0  0  0
    6.9659    1.8787    0.8632 C   0  0  0  0  0  0  0  0  0  0  0  0
    8.4617    2.1361    0.9589 C   0  0  0  0  0  0  0  0  0  0  0  0
    8.9194    2.9558   -0.1564 N   0  0  0  0  0  0  0  0  0  0  0  0
   10.0697    2.7796   -0.6926 C   0  0  0  0  0  0  0  0  0  0  0  0
   11.0451    1.8360   -0.3470 N   0  0  0  0  0  0  0  0  0  0  0  0
   10.4031    3.6576   -1.7975 N   0  0  0  0  0  0  0  0  0  0  0  0
   -3.8252    0.6756    0.2752 C   0  0  0  0  0  0  0  0  0  0  0  0
   -4.0332   -0.5689    0.3970 O   0  0  0  0  0  0  0  0  0  0  0  0
   -4.9400    1.5233    0.2612 N   0  0  0  0  0  0  0  0  0  0  0  0
   -6.2765    0.8731    0.3864 C   0  0  1  0  0  0  0  0  0  0  0  0
   -7.2232    1.9655    0.6345 C   0  0  0  0  0  0  0  0  0  0  0  0
   -8.6278    1.7071    0.8138 C   0  0  0  0  0  0  0  0  0  0  0  0
   -9.1513    1.4643    2.0905 C   0  0  0  0  0  0  0  0  0  0  0  0
  -10.5064    1.2407    2.2668 C   0  0  0  0  0  0  0  0  0  0  0  0
  -11.3882    1.2477    1.1970 C   0  0  0  0  0  0  0  0  0  0  0  0
  -10.8755    1.4867   -0.0646 C   0  0  0  0  0  0  0  0  0  0  0  0
   -9.5303    1.7065   -0.2137 C   0  0  0  0  0  0  0  0  0  0  0  0
   -6.4904    0.2881   -1.0046 C   0  0  0  0  0  0  0  0  0  0  0  0
   -7.5782   -0.5760   -1.2700 N   0  0  0  0  0  0  0  0  0  0  0  0
   -5.7239    0.5367   -1.9607 O   0  0  0  0  0  0  0  0  0  0  0  0
   -0.7894    2.1088   -2.2306 H   0  0  0  0  0  0  0  0  0  0  0  0
   -1.4386    3.4760   -3.2683 H   0  0  0  0  0  0  0  0  0  0  0  0
   -2.2328    1.8862   -3.2525 H   0  0  0  0  0  0  0  0  0  0  0  0
   -2.6359    4.1603   -1.5303 H   0  0  0  0  0  0  0  0  0  0  0  0
   -3.7085    2.7990   -1.7775 H   0  0  0  0  0  0  0  0  0  0  0  0
   -2.9700    3.0728    0.5768 H   0  0  0  0  0  0  0  0  0  0  0  0
   -0.9816    3.9201    0.9756 H   0  0  0  0  0  0  0  0  0  0  0  0
   -0.2641    2.2664    0.6318 H   0  0  0  0  0  0  0  0  0  0  0  0
   -0.4296    3.4870   -0.6724 H   0  0  0  0  0  0  0  0  0  0  0  0
   -1.9854    0.9177    1.2004 H   0  0  0  0  0  0  0  0  0  0  0  0
   -1.9912    0.1299   -1.6837 H   0  0  0  0  0  0  0  0  0  0  0  0
    0.5411   -0.5949   -2.0769 H   0  0  0  0  0  0  0  0  0  0  0  0
    0.2638   -2.8607   -2.8001 H   0  0  0  0  0  0  0  0  0  0  0  0
   -1.2212   -1.9325   -2.6768 H   0  0  0  0  0  0  0  0  0  0  0  0
   -2.9696   -2.6985   -0.9839 H   0  0  0  0  0  0  0  0  0  0  0  0
   -3.8940   -4.6491    0.1548 H   0  0  0  0  0  0  0  0  0  0  0  0
   -3.6324   -6.8754    0.9228 H   0  0  0  0  0  0  0  0  0  0  0  0
   -0.3061   -6.7575   -0.4043 H   0  0  0  0  0  0  0  0  0  0  0  0
    0.6576   -4.7787   -1.5423 H   0  0  0  0  0  0  0  0  0  0  0  0
    0.7865   -2.3617    0.2804 H   0  0  0  0  0  0  0  0  0  0  0  0
    3.9350   -1.3150   -1.7477 H   0  0  0  0  0  0  0  0  0  0  0  0
    4.5056   -3.7414    0.0762 H   0  0  0  0  0  0  0  0  0  0  0  0
    4.4059   -3.6875   -1.7842 H   0  0  0  0  0  0  0  0  0  0  0  0
    6.3985   -2.6261   -2.0129 H   0  0  0  0  0  0  0  0  0  0  0  0
    6.7968   -3.5191   -0.4582 H   0  0  0  0  0  0  0  0  0  0  0  0
    6.8805   -1.4685    0.7023 H   0  0  0  0  0  0  0  0  0  0  0  0
    6.6241   -0.6726   -0.9327 H   0  0  0  0  0  0  0  0  0  0  0  0
    4.5600    1.7704    1.8711 H   0  0  0  0  0  0  0  0  0  0  0  0
    3.5372    0.2559    3.2758 H   0  0  0  0  0  0  0  0  0  0  0  0
    5.0755   -0.3775    3.7673 H   0  0  0  0  0  0  0  0  0  0  0  0
    6.6309    1.7506    2.9255 H   0  0  0  0  0  0  0  0  0  0  0  0
    7.2092    0.2275    2.2883 H   0  0  0  0  0  0  0  0  0  0  0  0
    6.5079    2.9150    0.9398 H   0  0  0  0  0  0  0  0  0  0  0  0
    6.7028    1.5369   -0.1290 H   0  0  0  0  0  0  0  0  0  0  0  0
    8.7010    2.6612    1.8904 H   0  0  0  0  0  0  0  0  0  0  0  0
    9.0410    1.1947    0.9408 H   0  0  0  0  0  0  0  0  0  0  0  0
   12.0285    2.0532   -0.0856 H   0  0  0  0  0  0  0  0  0  0  0  0
   10.8069    0.8161   -0.3362 H   0  0  0  0  0  0  0  0  0  0  0  0
    9.8112    3.5490   -2.6439 H   0  0  0  0  0  0  0  0  0  0  0  0
   11.1926    4.3470   -1.7066 H   0  0  0  0  0  0  0  0  0  0  0  0
   -4.8503    2.5391    0.1864 H   0  0  0  0  0  0  0  0  0  0  0  0
   -6.2305    0.0553    1.0937 H   0  0  0  0  0  0  0  0  0  0  0  0
   -6.8706    2.5159    1.5764 H   0  0  0  0  0  0  0  0  0  0  0  0
   -7.0396    2.7473   -0.1767 H   0  0  0  0  0  0  0  0  0  0  0  0
   -8.5160    1.4476    2.9495 H   0  0  0  0  0  0  0  0  0  0  0  0
  -10.9604    1.0437    3.2378 H   0  0  0  0  0  0  0  0  0  0  0  0
  -12.4335    1.0647    1.3666 H   0  0  0  0  0  0  0  0  0  0  0  0
  -11.5439    1.4925   -0.9173 H   0  0  0  0  0  0  0  0  0  0  0  0
   -9.1598    1.9205   -1.2187 H   0  0  0  0  0  0  0  0  0  0  0  0
   -7.7214   -1.4087   -0.6269 H   0  0  0  0  0  0  0  0  0  0  0  0
   -8.2303   -0.4342   -2.0513 H   0  0  0  0  0  0  0  0  0  0  0  0
  1  2  1  0
  2  3  1  0
  3  4  1  0
  3  5  1  0
  5  6  1  0
  6  7  1  0
  7  8  2  0
  7  9  1  0
  9 10  1  0
 10 11  1  0
 11 12  2  0
 12 13  1  0
 13 14  2  0
 14 15  1  0
 14 16  1  0
 16 17  2  0
  9 18  1  0
 18 19  1  0
 19 20  2  0
 19 21  1  0
 21 22  1  0
 22 23  1  0
 23 24  1  0
 24 25  1  0
 25 26  1  0
 26 27  2  0
 26 28  1  0
 28 29  1  0
 28 30  1  0
 30 31  1  0
 31 32  1  0
 32 33  1  0
 33 34  2  3
 34 35  1  0
 34 36  1  0
  5 37  1  0
 37 38  2  0
 37 39  1  0
 39 40  1  0
 40 41  1  0
 41 42  1  0
 42 43  2  0
 43 44  1  0
 44 45  2  0
 45 46  1  0
 46 47  2  0
 40 48  1  0
 48 49  1  0
 48 50  2  0
 17 11  1  0
 25 21  1  0
 47 42  1  0
  1 51  1  0
  1 52  1  0
  1 53  1  0
  2 54  1  0
  2 55  1  0
  3 56  1  1
  4 57  1  0
  4 58  1  0
  4 59  1  0
  5 60  1  1
  6 61  1  0
  9 62  1  6
 10 63  1  0
 10 64  1  0
 12 65  1  0
 13 66  1  0
 15 67  1  0
 16 68  1  0
 17 69  1  0
 18 70  1  0
 21 71  1  6
 22 72  1  0
 22 73  1  0
 23 74  1  0
 23 75  1  0
 24 76  1  0
 24 77  1  0
 28 78  1  6
 29 79  1  0
 29 80  1  0
 30 81  1  0
 30 82  1  0
 31 83  1  0
 31 84  1  0
 32 85  1  0
 32 86  1  0
 35 87  1  0
 35 88  1  0
 36 89  1  0
 36 90  1  0
 39 91  1  0
 40 92  1  1
 41 93  1  0
 41 94  1  0
 43 95  1  0
 44 96  1  0
 45 97  1  0
 46 98  1  0
 47 99  1  0
 49100  1  0
 49101  1  0
M  END
$$$$
[H]OC(=O)[C@@]([H])(N([H])C(=O)[C@@]([H])(C([H])([H])S[H])[C@]1([H])c2c([H])c([H])c([H])c([H])c2C([H])([H])C1([H])[H])C([H])([H])c1c([H])n([H])c2c([H])c([H])c([H])c([H])c12
     RDKit          3D

 53 56  0  0  0  0  0  0  0  0999 V2000
    3.4782   -1.7825   -2.4232 O   0  0  0  0  0  0  0  0  0  0  0  0
    2.1949   -2.0029   -1.9522 C   0  0  0  0  0  0  0  0  0  0  0  0
    1.5180   -2.8711   -2.5693 O   0  0  0  0  0  0  0  0  0  0  0  0
    1.6105   -1.2915   -0.8037 C   0  0  2  0  0  0  0  0  0  0  0  0
    2.3780   -1.4916    0.4862 C   0  0  0  0  0  0  0  0  0  0  0  0
    3.7804   -1.0224    0.4109 C   0  0  0  0  0  0  0  0  0  0  0  0
    4.9153   -1.7668    0.3045 C   0  0  0  0  0  0  0  0  0  0  0  0
    5.9581   -0.9307    0.2736 N   0  0  0  0  0  0  0  0  0  0  0  0
    5.5435    0.3351    0.3561 C   0  0  0  0  0  0  0  0  0  0  0  0
    6.2666    1.5334    0.3622 C   0  0  0  0  0  0  0  0  0  0  0  0
    5.5485    2.7049    0.4604 C   0  0  0  0  0  0  0  0  0  0  0  0
    4.1646    2.6676    0.5485 C   0  0  0  0  0  0  0  0  0  0  0  0
    3.4578    1.4998    0.5428 C   0  0  0  0  0  0  0  0  0  0  0  0
    4.1722    0.3034    0.4436 C   0  0  0  0  0  0  0  0  0  0  0  0
    0.2467   -1.7077   -0.5384 N   0  0  0  0  0  0  0  0  0  0  0  0
   -0.8650   -0.7814   -0.5451 C   0  0  0  0  0  0  0  0  0  0  0  0
   -0.5836    0.3787   -0.7887 O   0  0  0  0  0  0  0  0  0  0  0  0
   -2.2076   -1.2742   -0.2666 C   0  0  1  0  0  0  0  0  0  0  0  0
   -2.3297   -1.7157    1.1829 C   0  0  0  0  0  0  0  0  0  0  0  0
   -2.0148   -0.4378    2.3801 S   0  0  0  0  0  0  0  0  0  0  0  0
   -3.3581   -0.5897   -0.8518 C   0  0  1  0  0  0  0  0  0  0  0  0
   -4.6716   -1.2988   -0.4635 C   0  0  0  0  0  0  0  0  0  0  0  0
   -5.2460   -0.4987    0.6429 C   0  0  0  0  0  0  0  0  0  0  0  0
   -4.7228    0.8983    0.3852 C   0  0  0  0  0  0  0  0  0  0  0  0
   -5.2094    2.0867    0.8715 C   0  0  0  0  0  0  0  0  0  0  0  0
   -4.6813    3.2843    0.4622 C   0  0  0  0  0  0  0  0  0  0  0  0
   -3.6577    3.2239   -0.4464 C   0  0  0  0  0  0  0  0  0  0  0  0
   -3.1642    2.0379   -0.9379 C   0  0  0  0  0  0  0  0  0  0  0  0
   -3.6750    0.7982   -0.5400 C   0  0  0  0  0  0  0  0  0  0  0  0
    3.8043   -0.8259   -2.4891 H   0  0  0  0  0  0  0  0  0  0  0  0
    1.6415   -0.2086   -1.0149 H   0  0  0  0  0  0  0  0  0  0  0  0
    1.8972   -0.9602    1.3259 H   0  0  0  0  0  0  0  0  0  0  0  0
    2.4102   -2.5767    0.7522 H   0  0  0  0  0  0  0  0  0  0  0  0
    4.9200   -2.8643    0.2561 H   0  0  0  0  0  0  0  0  0  0  0  0
    6.9770   -1.2031    0.1958 H   0  0  0  0  0  0  0  0  0  0  0  0
    7.3404    1.5490    0.2930 H   0  0  0  0  0  0  0  0  0  0  0  0
    6.0795    3.6504    0.4679 H   0  0  0  0  0  0  0  0  0  0  0  0
    3.6329    3.6197    0.6254 H   0  0  0  0  0  0  0  0  0  0  0  0
    2.3843    1.4412    0.6096 H   0  0  0  0  0  0  0  0  0  0  0  0
    0.0490   -2.6992   -0.3358 H   0  0  0  0  0  0  0  0  0  0  0  0
   -2.2124   -2.3145   -0.8099 H   0  0  0  0  0  0  0  0  0  0  0  0
   -1.5042   -2.4917    1.3291 H   0  0  0  0  0  0  0  0  0  0  0  0
   -3.2402   -2.2390    1.3820 H   0  0  0  0  0  0  0  0  0  0  0  0
   -1.8034    0.8287    1.8303 H   0  0  0  0  0  0  0  0  0  0  0  0
   -3.3272   -0.6739   -1.9779 H   0  0  0  0  0  0  0  0  0  0  0  0
   -4.4495   -2.3240   -0.1964 H   0  0  0  0  0  0  0  0  0  0  0  0
   -5.3862   -1.3014   -1.3333 H   0  0  0  0  0  0  0  0  0  0  0  0
   -5.0352   -0.8213    1.6480 H   0  0  0  0  0  0  0  0  0  0  0  0
   -6.3748   -0.4389    0.5314 H   0  0  0  0  0  0  0  0  0  0  0  0
   -6.0190    2.1161    1.5882 H   0  0  0  0  0  0  0  0  0  0  0  0
   -5.0613    4.2437    0.8450 H   0  0  0  0  0  0  0  0  0  0  0  0
   -3.2016    4.1358   -0.8073 H   0  0  0  0  0  0  0  0  0  0  0  0
   -2.3677    2.0692   -1.7018 H   0  0  0  0  0  0  0  0  0  0  0  0
  1  2  1  0
  2  3  2  0
  2  4  1  0
  4  5  1  0
  5  6  1  0
  6  7  2  0
  7  8  1  0
  8  9  1  0
  9 10  2  0
 10 11  1  0
 11 12  2  0
 12 13  1  0
 13 14  2  0
  4 15  1  0
 15 16  1  0
 16 17  2  0
 16 18  1  0
 18 19  1  0
 19 20  1  0
 18 21  1  0
 21 22  1  0
 22 23  1  0
 23 24  1  0
 24 25  2  0
 25 26  1  0
 26 27  2  0
 27 28  1  0
 28 29  2  0
 14  6  1  0
 29 21  1  0
 14  9  1  0
 29 24  1  0
  1 30  1  0
  4 31  1  6
  5 32  1  0
  5 33  1  0
  7 34  1  0
  8 35  1  0
 10 36  1  0
 11 37  1  0
 12 38  1  0
 13 39  1  0
 15 40  1  0
 18 41  1  6
 19 42  1  0
 19 43  1  0
 20 44  1  0
 21 45  1  6
 22 46  1  0
 22 47  1  0
 23 48  1  0
 23 49  1  0
 25 50  1  0
 26 51  1  0
 27 52  1  0
 28 53  1  0
M  END
$$$$
[H]OC(=O)C([H])([H])[C@@]([H])(C(=O)N([H])[C@]([H])(C(=O)O[H])C([H])([H])c1c([H])c([H])c([H])c([H])c1[H])N([H])C(=O)[C@@]([H])(N([H])C(=O)[C@@]([H])(N([H])[H])C([H])([H])c1c([H])nc([H])n1[H])C([H])([H])c1c([H])nc([H])n1[H]
     RDKit          3D

 70 72  0  0  0  0  0  0  0  0999 V2000
   -5.3177   -0.1218   -1.7978 N   0  0  0  0  0  0  0  0  0  0  0  0
   -4.9073    0.7148   -0.7193 C   0  0  1  0  0  0  0  0  0  0  0  0
   -5.9420    0.9687    0.3273 C   0  0  0  0  0  0  0  0  0  0  0  0
   -7.1672    1.6266   -0.1539 C   0  0  0  0  0  0  0  0  0  0  0  0
   -8.2284    1.9512    0.6671 C   0  0  0  0  0  0  0  0  0  0  0  0
   -9.1706    2.5363   -0.0899 N   0  0  0  0  0  0  0  0  0  0  0  0
   -8.7496    2.5992   -1.3754 C   0  0  0  0  0  0  0  0  0  0  0  0
   -7.5220    2.0343   -1.3779 N   0  0  0  0  0  0  0  0  0  0  0  0
   -3.6503    0.3056   -0.0518 C   0  0  0  0  0  0  0  0  0  0  0  0
   -3.3098    1.0416    0.9370 O   0  0  0  0  0  0  0  0  0  0  0  0
   -2.8392   -0.7844   -0.4102 N   0  0  0  0  0  0  0  0  0  0  0  0
   -1.6401   -1.0724    0.3239 C   0  0  1  0  0  0  0  0  0  0  0  0
   -1.2894   -2.5017    0.4538 C   0  0  0  0  0  0  0  0  0  0  0  0
   -2.2504   -3.3690    1.1305 C   0  0  0  0  0  0  0  0  0  0  0  0
   -3.4308   -3.0178    1.7502 C   0  0  0  0  0  0  0  0  0  0  0  0
   -4.0324   -4.1460    2.2369 N   0  0  0  0  0  0  0  0  0  0  0  0
   -3.2461   -5.1703    1.9276 C   0  0  0  0  0  0  0  0  0  0  0  0
   -2.1838   -4.7065    1.2686 N   0  0  0  0  0  0  0  0  0  0  0  0
   -0.5049   -0.4717   -0.5219 C   0  0  0  0  0  0  0  0  0  0  0  0
   -0.8760    0.0466   -1.5968 O   0  0  0  0  0  0  0  0  0  0  0  0
    0.8057   -0.5117   -0.1053 N   0  0  0  0  0  0  0  0  0  0  0  0
    2.0352   -0.0678   -0.6673 C   0  0  1  0  0  0  0  0  0  0  0  0
    2.0214    0.5487   -2.0303 C   0  0  0  0  0  0  0  0  0  0  0  0
    1.5931   -0.4824   -3.0446 C   0  0  0  0  0  0  0  0  0  0  0  0
    1.5497   -1.8330   -2.7573 O   0  0  0  0  0  0  0  0  0  0  0  0
    1.2701   -0.0948   -4.1861 O   0  0  0  0  0  0  0  0  0  0  0  0
    2.8560    0.6736    0.2760 C   0  0  0  0  0  0  0  0  0  0  0  0
    2.7386    0.3870    1.5177 O   0  0  0  0  0  0  0  0  0  0  0  0
    3.7868    1.6989   -0.0239 N   0  0  0  0  0  0  0  0  0  0  0  0
    4.5616    2.3684    1.0156 C   0  0  1  0  0  0  0  0  0  0  0  0
    6.0303    2.3549    0.7025 C   0  0  0  0  0  0  0  0  0  0  0  0
    6.4763    0.9460    0.6020 C   0  0  0  0  0  0  0  0  0  0  0  0
    6.9598    0.3068    1.7065 C   0  0  0  0  0  0  0  0  0  0  0  0
    7.3686   -0.9989    1.6231 C   0  0  0  0  0  0  0  0  0  0  0  0
    7.3056   -1.7054    0.4304 C   0  0  0  0  0  0  0  0  0  0  0  0
    6.8130   -1.0372   -0.6715 C   0  0  0  0  0  0  0  0  0  0  0  0
    6.4003    0.2622   -0.6131 C   0  0  0  0  0  0  0  0  0  0  0  0
    4.0372    3.7453    1.2562 C   0  0  0  0  0  0  0  0  0  0  0  0
    4.6589    4.5127    2.2249 O   0  0  0  0  0  0  0  0  0  0  0  0
    3.0708    4.2425    0.6339 O   0  0  0  0  0  0  0  0  0  0  0  0
   -4.6845   -0.1144   -2.6021 H   0  0  0  0  0  0  0  0  0  0  0  0
   -5.7242   -1.0192   -1.5210 H   0  0  0  0  0  0  0  0  0  0  0  0
   -4.6793    1.7295   -1.1770 H   0  0  0  0  0  0  0  0  0  0  0  0
   -6.1507   -0.0056    0.8490 H   0  0  0  0  0  0  0  0  0  0  0  0
   -5.4529    1.6509    1.0869 H   0  0  0  0  0  0  0  0  0  0  0  0
   -8.3172    1.7824    1.7205 H   0  0  0  0  0  0  0  0  0  0  0  0
   -9.2510    3.0029   -2.2366 H   0  0  0  0  0  0  0  0  0  0  0  0
   -6.8829    1.9064   -2.2155 H   0  0  0  0  0  0  0  0  0  0  0  0
   -3.1019   -1.3829   -1.2032 H   0  0  0  0  0  0  0  0  0  0  0  0
   -1.5782   -0.5093    1.2822 H   0  0  0  0  0  0  0  0  0  0  0  0
   -0.9781   -2.8771   -0.5453 H   0  0  0  0  0  0  0  0  0  0  0  0
   -0.3391   -2.5498    1.0663 H   0  0  0  0  0  0  0  0  0  0  0  0
   -3.8829   -2.0704    1.8874 H   0  0  0  0  0  0  0  0  0  0  0  0
   -3.4783   -6.2169    2.1947 H   0  0  0  0  0  0  0  0  0  0  0  0
   -1.4038   -5.2921    0.9052 H   0  0  0  0  0  0  0  0  0  0  0  0
    0.9259   -0.9911    0.8848 H   0  0  0  0  0  0  0  0  0  0  0  0
    2.5863   -1.1025   -0.8575 H   0  0  0  0  0  0  0  0  0  0  0  0
    2.9806    0.9769   -2.3156 H   0  0  0  0  0  0  0  0  0  0  0  0
    1.2670    1.3888   -2.0228 H   0  0  0  0  0  0  0  0  0  0  0  0
    1.6292   -2.5666   -3.4194 H   0  0  0  0  0  0  0  0  0  0  0  0
    3.9592    2.0200   -0.9778 H   0  0  0  0  0  0  0  0  0  0  0  0
    4.3953    1.8056    1.9514 H   0  0  0  0  0  0  0  0  0  0  0  0
    6.5739    2.8376    1.5368 H   0  0  0  0  0  0  0  0  0  0  0  0
    6.2073    2.8901   -0.2533 H   0  0  0  0  0  0  0  0  0  0  0  0
    7.0408    0.7944    2.6764 H   0  0  0  0  0  0  0  0  0  0  0  0
    7.7639   -1.5560    2.4713 H   0  0  0  0  0  0  0  0  0  0  0  0
    7.6265   -2.7371    0.3619 H   0  0  0  0  0  0  0  0  0  0  0  0
    6.7539   -1.5771   -1.6195 H   0  0  0  0  0  0  0  0  0  0  0  0
    6.0099    0.8125   -1.4632 H   0  0  0  0  0  0  0  0  0  0  0  0
    4.1044    5.1910    2.7373 H   0  0  0  0  0  0  0  0  0  0  0  0
  1  2  1  0
  2  3  1  0
  3  4  1  0
  4  5  2  0
  5  6  1  0
  6  7  2  0
  7  8  1  0
  2  9  1  0
  9 10  2  0
  9 11  1  0
 11 12  1  0
 12 13  1  0
 13 14  1  0
 14 15  2  0
 15 16  1  0
 16 17  2  0
 17 18  1  0
 12 19  1  0
 19 20  2  0
 19 21  1  0
 21 22  1  0
 22 23  1  0
 23 24  1  0
 24 25  1  0
 24 26  2  0
 22 27  1  0
 27 28  2  0
 27 29  1  0
 29 30  1  0
 30 31  1  0
 31 32  1  0
 32 33  2  0
 33 34  1  0
 34 35  2  0
 35 36  1  0
 36 37  2  0
 30 38  1  0
 38 39  1  0
 38 40  2  0
  8  4  1  0
 18 14  1  0
 37 32  1  0
  1 41  1  0
  1 42  1  0
  2 43  1  6
  3 44  1  0
  3 45  1  0
  5 46  1  0
  7 47  1  0
  8 48  1  0
 11 49  1  0
 12 50  1  1
 13 51  1  0
 13 52  1  0
 15 53  1  0
 17 54  1  0
 18 55  1  0
 21 56  1  0
 22 57  1  6
 23 58  1  0
 23 59  1  0
 25 60  1  0
 29 61  1  0
 30 62  1  1
 31 63  1  0
 31 64  1  0
 33 65  1  0
 34 66  1  0
 35 67  1  0
 36 68  1  0
 37 69  1  0
 39 70  1  0
M  END
$$$$
[H]c1c(-n2nnnc2[H])c([H])c2c(C([H])([H])C([H])([H])N(C([H])([H])[H])C([H])([H])[H])c([H])n([H])c2c1[H]
     RDKit          3D

 35 37  0  0  0  0  0  0  0  0999 V2000
    3.0363   -1.9330   -1.0268 C   0  0  0  0  0  0  0  0  0  0  0  0
    3.1644   -0.5175   -1.0999 N   0  0  0  0  0  0  0  0  0  0  0  0
    4.4478    0.0037   -0.7391 C   0  0  0  0  0  0  0  0  0  0  0  0
    2.0508    0.2581   -0.6952 C   0  0  0  0  0  0  0  0  0  0  0  0
    1.7312    0.2261    0.7763 C   0  0  0  0  0  0  0  0  0  0  0  0
    0.5563    1.0840    1.0480 C   0  0  0  0  0  0  0  0  0  0  0  0
    0.5770    2.3594    1.5994 C   0  0  0  0  0  0  0  0  0  0  0  0
   -0.6762    2.8277    1.6882 N   0  0  0  0  0  0  0  0  0  0  0  0
   -1.5087    1.8803    1.2060 C   0  0  0  0  0  0  0  0  0  0  0  0
   -2.8878    1.8698    1.0758 C   0  0  0  0  0  0  0  0  0  0  0  0
   -3.5022    0.7661    0.5435 C   0  0  0  0  0  0  0  0  0  0  0  0
   -2.7951   -0.3609    0.1214 C   0  0  0  0  0  0  0  0  0  0  0  0
   -1.4289   -0.3162    0.2652 C   0  0  0  0  0  0  0  0  0  0  0  0
   -0.7603    0.7744    0.7966 C   0  0  0  0  0  0  0  0  0  0  0  0
   -3.4725   -1.4802   -0.4269 N   0  0  0  0  0  0  0  0  0  0  0  0
   -4.2610   -1.4911   -1.5168 C   0  0  0  0  0  0  0  0  0  0  0  0
   -4.7352   -2.7257   -1.7347 N   0  0  0  0  0  0  0  0  0  0  0  0
   -4.2367   -3.4853   -0.7745 N   0  0  0  0  0  0  0  0  0  0  0  0
   -3.4835   -2.7239   -0.0012 N   0  0  0  0  0  0  0  0  0  0  0  0
    3.9153   -2.3336   -0.4450 H   0  0  0  0  0  0  0  0  0  0  0  0
    3.1268   -2.3646   -2.0641 H   0  0  0  0  0  0  0  0  0  0  0  0
    2.1006   -2.3228   -0.6045 H   0  0  0  0  0  0  0  0  0  0  0  0
    4.3200    0.6781    0.1166 H   0  0  0  0  0  0  0  0  0  0  0  0
    5.0777   -0.8450   -0.3903 H   0  0  0  0  0  0  0  0  0  0  0  0
    4.9187    0.5445   -1.5957 H   0  0  0  0  0  0  0  0  0  0  0  0
    1.1378    0.0179   -1.2994 H   0  0  0  0  0  0  0  0  0  0  0  0
    2.3067    1.3346   -0.9307 H   0  0  0  0  0  0  0  0  0  0  0  0
    2.5949    0.6706    1.3265 H   0  0  0  0  0  0  0  0  0  0  0  0
    1.4980   -0.8153    1.1074 H   0  0  0  0  0  0  0  0  0  0  0  0
    1.4627    2.9094    1.9176 H   0  0  0  0  0  0  0  0  0  0  0  0
   -0.9930    3.7634    2.0626 H   0  0  0  0  0  0  0  0  0  0  0  0
   -3.4358    2.7492    1.4037 H   0  0  0  0  0  0  0  0  0  0  0  0
   -4.5769    0.7310    0.4300 H   0  0  0  0  0  0  0  0  0  0  0  0
   -0.8221   -1.1580   -0.0436 H   0  0  0  0  0  0  0  0  0  0  0  0
   -4.4472   -0.5755   -2.0962 H   0  0  0  0  0  0  0  0  0  0  0  0
  1  2  1  0
  2  3  1  0
  2  4  1  0
  4  5  1  0
  5  6  1  0
  6  7  2  0
  7  8  1  0
  8  9  1  0
  9 10  2  0
 10 11  1  0
 11 12  2  0
 12 13  1  0
 13 14  2  0
 12 15  1  0
 15 16  1  0
 16 17  2  0
 17 18  1  0
 18 19  2  0
 14  6  1  0
 19 15  1  0
 14  9  1  0
  1 20  1  0
  1 21  1  0
  1 22  1  0
  3 23  1  0
  3 24  1  0
  3 25  1  0
  4 26  1  0
  4 27  1  0
  5 28  1  0
  5 29  1  0
  7 30  1  0
  8 31  1  0
 10 32  1  0
 11 33  1  0
 13 34  1  0
 16 35  1  0
M  END
$$$$
