[H]/C(C(=O)N([H])c1c(OC([H])([H])C([H])([H])[H])c([H])c2nc([H])c(C#N)c(N([H])c3c([H])c([H])c(OC([H])([H])c4c([H])c([H])c([H])c([H])c4[H])c(Cl)c3[H])c2c1[H])=C(/[H])C([H])([H])N(C([H])([H])[H])C([H])([H])[H]
     RDKit          3D

 70 73  0  0  0  0  0  0  0  0999 V2000
   -3.4377   -5.3668   -0.9909 C   0  0  0  0  0  0  0  0  0  0  0  0
   -4.3601   -4.4163   -0.2632 C   0  0  0  0  0  0  0  0  0  0  0  0
   -3.8381   -3.1740    0.0187 O   0  0  0  0  0  0  0  0  0  0  0  0
   -2.7519   -2.9469    0.8116 C   0  0  0  0  0  0  0  0  0  0  0  0
   -2.0558   -3.9647    1.4361 C   0  0  0  0  0  0  0  0  0  0  0  0
   -0.9602   -3.7216    2.2363 C   0  0  0  0  0  0  0  0  0  0  0  0
   -0.2828   -4.7234    2.8459 N   0  0  0  0  0  0  0  0  0  0  0  0
    0.7942   -4.4683    3.6325 C   0  0  0  0  0  0  0  0  0  0  0  0
    1.2428   -3.1721    3.8424 C   0  0  0  0  0  0  0  0  0  0  0  0
    2.3842   -2.8946    4.6753 C   0  0  0  0  0  0  0  0  0  0  0  0
    3.2942   -2.6529    5.3494 N   0  0  0  0  0  0  0  0  0  0  0  0
    0.5339   -2.1716    3.2089 C   0  0  0  0  0  0  0  0  0  0  0  0
    0.9167   -0.8169    3.3646 N   0  0  0  0  0  0  0  0  0  0  0  0
    1.8483   -0.2555    2.4585 C   0  0  0  0  0  0  0  0  0  0  0  0
    2.4218   -0.9818    1.4570 C   0  0  0  0  0  0  0  0  0  0  0  0
    3.3373   -0.4187    0.5652 C   0  0  0  0  0  0  0  0  0  0  0  0
    3.6712    0.9048    0.6993 C   0  0  0  0  0  0  0  0  0  0  0  0
    4.5700    1.5247   -0.1495 O   0  0  0  0  0  0  0  0  0  0  0  0
    5.1702    0.7817   -1.1870 C   0  0  0  0  0  0  0  0  0  0  0  0
    6.0874    1.6279   -1.9767 C   0  0  0  0  0  0  0  0  0  0  0  0
    6.8727    1.0696   -2.9338 C   0  0  0  0  0  0  0  0  0  0  0  0
    7.7248    1.8769   -3.6663 C   0  0  0  0  0  0  0  0  0  0  0  0
    7.7567    3.2453   -3.4041 C   0  0  0  0  0  0  0  0  0  0  0  0
    6.9747    3.8275   -2.4455 C   0  0  0  0  0  0  0  0  0  0  0  0
    6.1318    2.9768   -1.7321 C   0  0  0  0  0  0  0  0  0  0  0  0
    3.0835    1.6337    1.7196 C   0  0  0  0  0  0  0  0  0  0  0  0
    3.4896    3.3347    1.9212 Cl  0  0  0  0  0  0  0  0  0  0  0  0
    2.1873    1.0767    2.5900 C   0  0  0  0  0  0  0  0  0  0  0  0
   -0.5599   -2.4240    2.4095 C   0  0  0  0  0  0  0  0  0  0  0  0
   -1.2603   -1.3990    1.7813 C   0  0  0  0  0  0  0  0  0  0  0  0
   -2.3504   -1.5990    0.9807 C   0  0  0  0  0  0  0  0  0  0  0  0
   -3.1008   -0.6036    0.3125 N   0  0  0  0  0  0  0  0  0  0  0  0
   -2.9091    0.7738    0.3455 C   0  0  0  0  0  0  0  0  0  0  0  0
   -1.9926    1.2925    1.0177 O   0  0  0  0  0  0  0  0  0  0  0  0
   -3.7543    1.7058   -0.3945 C   0  0  0  0  0  0  0  0  0  0  0  0
   -4.7669    1.3799   -1.1626 C   0  0  0  0  0  0  0  0  0  0  0  0
   -5.6186    2.3148   -1.9088 C   0  0  0  0  0  0  0  0  0  0  0  0
   -5.3396    3.6863   -1.8274 N   0  0  0  0  0  0  0  0  0  0  0  0
   -4.1516    4.1320   -2.4553 C   0  0  0  0  0  0  0  0  0  0  0  0
   -5.8190    4.4240   -0.7213 C   0  0  0  0  0  0  0  0  0  0  0  0
   -3.3670   -6.3649   -0.5059 H   0  0  0  0  0  0  0  0  0  0  0  0
   -2.4549   -4.9019   -1.1426 H   0  0  0  0  0  0  0  0  0  0  0  0
   -3.8486   -5.5779   -2.0209 H   0  0  0  0  0  0  0  0  0  0  0  0
   -5.3145   -4.3436   -0.8383 H   0  0  0  0  0  0  0  0  0  0  0  0
   -4.6572   -4.9499    0.6854 H   0  0  0  0  0  0  0  0  0  0  0  0
   -2.3454   -5.0025    1.3318 H   0  0  0  0  0  0  0  0  0  0  0  0
    1.3015   -5.3053    4.0983 H   0  0  0  0  0  0  0  0  0  0  0  0
    0.5086   -0.2737    4.1325 H   0  0  0  0  0  0  0  0  0  0  0  0
    2.1860   -2.0160    1.3213 H   0  0  0  0  0  0  0  0  0  0  0  0
    3.7872   -0.9964   -0.2232 H   0  0  0  0  0  0  0  0  0  0  0  0
    4.3881    0.3328   -1.8600 H   0  0  0  0  0  0  0  0  0  0  0  0
    5.7917   -0.0544   -0.7554 H   0  0  0  0  0  0  0  0  0  0  0  0
    6.8678    0.0125   -3.1572 H   0  0  0  0  0  0  0  0  0  0  0  0
    8.3790    1.5053   -4.4422 H   0  0  0  0  0  0  0  0  0  0  0  0
    8.4237    3.8617   -3.9813 H   0  0  0  0  0  0  0  0  0  0  0  0
    7.0104    4.8790   -2.2567 H   0  0  0  0  0  0  0  0  0  0  0  0
    5.5153    3.4262   -0.9783 H   0  0  0  0  0  0  0  0  0  0  0  0
    1.7374    1.6423    3.3744 H   0  0  0  0  0  0  0  0  0  0  0  0
   -0.8992   -0.4157    1.9553 H   0  0  0  0  0  0  0  0  0  0  0  0
   -3.9251   -0.9211   -0.3032 H   0  0  0  0  0  0  0  0  0  0  0  0
   -3.5710    2.7938   -0.3301 H   0  0  0  0  0  0  0  0  0  0  0  0
   -5.0308    0.3159   -1.2820 H   0  0  0  0  0  0  0  0  0  0  0  0
   -5.5583    2.0009   -3.0037 H   0  0  0  0  0  0  0  0  0  0  0  0
   -6.7114    2.0990   -1.6781 H   0  0  0  0  0  0  0  0  0  0  0  0
   -3.5805    4.7503   -1.7143 H   0  0  0  0  0  0  0  0  0  0  0  0
   -3.5565    3.2526   -2.7921 H   0  0  0  0  0  0  0  0  0  0  0  0
   -4.3178    4.7691   -3.3507 H   0  0  0  0  0  0  0  0  0  0  0  0
   -6.9371    4.3150   -0.6403 H   0  0  0  0  0  0  0  0  0  0  0  0
   -5.6308    5.5150   -0.9266 H   0  0  0  0  0  0  0  0  0  0  0  0
   -5.3739    4.2342    0.2537 H   0  0  0  0  0  0  0  0  0  0  0  0
  1  2  1  0
  2  3  1  0
  3  4  1  0
  4  5  2  0
  5  6  1  0
  6  7  2  0
  7  8  1  0
  8  9  2  0
  9 10  1  0
 10 11  3  0
  9 12  1  0
 12 13  1  0
 13 14  1  0
 14 15  2  0
 15 16  1  0
 16 17  2  0
 17 18  1  0
 18 19  1  0
 19 20  1  0
 20 21  2  0
 21 22  1  0
 22 23  2  0
 23 24  1  0
 24 25  2  0
 17 26  1  0
 26 27  1  0
 26 28  2  0
 12 29  2  0
 29 30  1  0
 30 31  2  0
 31 32  1  0
 32 33  1  0
 33 34  2  0
 33 35  1  0
 35 36  2  0
 36 37  1  0
 37 38  1  0
 38 39  1  0
 38 40  1  0
 31  4  1  0
 29  6  1  0
 28 14  1  0
 25 20  1  0
  1 41  1  0
  1 42  1  0
  1 43  1  0
  2 44  1  0
  2 45  1  0
  5 46  1  0
  8 47  1  0
 13 48  1  0
 15 49  1  0
 16 50  1  0
 19 51  1  0
 19 52  1  0
 21 53  1  0
 22 54  1  0
 23 55  1  0
 24 56  1  0
 25 57  1  0
 28 58  1  0
 30 59  1  0
 32 60  1  0
 35 61  1  0
 36 62  1  0
 37 63  1  0
 37 64  1  0
 39 65  1  0
 39 66  1  0
 39 67  1  0
 40 68  1  0
 40 69  1  0
 40 70  1  0
M  END
$$$$
[H]c1nc(N([H])c2c([H])c([H])c(OC([H])([H])c3c([H])c([H])c([H])c(F)c3[H])c(Cl)c2[H])c2c([H])c(-c3oc(C([H])([H])N([H])C([H])([H])C([H])([H])S(=O)(=O)C([H])([H])[H])c([H])c3[H])c([H])c([H])c2n1
     RDKit          3D

 66 70  0  0  0  0  0  0  0  0999 V2000
  -10.9120    0.8479   -0.2841 C   0  0  0  0  0  0  0  0  0  0  0  0
  -10.1733   -0.7401   -0.2927 S   0  0  0  0  0  0  0  0  0  0  0  0
  -11.0856   -1.8806   -0.4942 O   0  0  0  0  0  0  0  0  0  0  0  0
   -9.1107   -0.7368   -1.3861 O   0  0  0  0  0  0  0  0  0  0  0  0
   -9.2298   -1.0230    1.2375 C   0  0  0  0  0  0  0  0  0  0  0  0
   -8.2208    0.0653    1.2856 C   0  0  0  0  0  0  0  0  0  0  0  0
   -7.2178    0.0463    2.3240 N   0  0  0  0  0  0  0  0  0  0  0  0
   -6.3829   -1.1449    2.1160 C   0  0  0  0  0  0  0  0  0  0  0  0
   -4.9405   -0.8460    2.1683 C   0  0  0  0  0  0  0  0  0  0  0  0
   -3.9962   -1.0545    3.1064 C   0  0  0  0  0  0  0  0  0  0  0  0
   -2.8087   -0.5531    2.5308 C   0  0  0  0  0  0  0  0  0  0  0  0
   -3.0981   -0.0798    1.3069 C   0  0  0  0  0  0  0  0  0  0  0  0
   -4.3769   -0.2745    1.1382 O   0  0  0  0  0  0  0  0  0  0  0  0
   -2.2626    0.5529    0.2573 C   0  0  0  0  0  0  0  0  0  0  0  0
   -2.9159    1.2428   -0.7690 C   0  0  0  0  0  0  0  0  0  0  0  0
   -2.2397    1.7530   -1.8441 C   0  0  0  0  0  0  0  0  0  0  0  0
   -0.8824    1.5983   -1.9432 C   0  0  0  0  0  0  0  0  0  0  0  0
   -0.1823    2.0411   -3.0037 N   0  0  0  0  0  0  0  0  0  0  0  0
    1.1368    1.8409   -3.1108 C   0  0  0  0  0  0  0  0  0  0  0  0
    1.7801    1.1832   -2.1383 N   0  0  0  0  0  0  0  0  0  0  0  0
    1.1560    0.7006   -1.0310 C   0  0  0  0  0  0  0  0  0  0  0  0
    1.8969    0.0059   -0.0315 N   0  0  0  0  0  0  0  0  0  0  0  0
    3.2864   -0.1599   -0.3726 C   0  0  0  0  0  0  0  0  0  0  0  0
    4.2732    0.7634   -0.1494 C   0  0  0  0  0  0  0  0  0  0  0  0
    5.5719    0.5446   -0.5949 C   0  0  0  0  0  0  0  0  0  0  0  0
    5.9239   -0.5931   -1.2744 C   0  0  0  0  0  0  0  0  0  0  0  0
    7.1246   -0.8891   -1.7599 O   0  0  0  0  0  0  0  0  0  0  0  0
    8.3834   -0.5252   -1.8794 C   0  0  0  0  0  0  0  0  0  0  0  0
    9.2962   -0.3338   -0.7474 C   0  0  0  0  0  0  0  0  0  0  0  0
   10.6651   -0.1244   -1.0653 C   0  0  0  0  0  0  0  0  0  0  0  0
   11.5659    0.0710   -0.0528 C   0  0  0  0  0  0  0  0  0  0  0  0
   11.1922    0.0741    1.2996 C   0  0  0  0  0  0  0  0  0  0  0  0
    9.8682   -0.1273    1.6172 C   0  0  0  0  0  0  0  0  0  0  0  0
    9.3767   -0.1354    2.8873 F   0  0  0  0  0  0  0  0  0  0  0  0
    8.9537   -0.3282    0.5689 C   0  0  0  0  0  0  0  0  0  0  0  0
    4.8800   -1.5264   -1.4809 C   0  0  0  0  0  0  0  0  0  0  0  0
    5.2620   -3.0305   -2.3289 Cl  0  0  0  0  0  0  0  0  0  0  0  0
    3.6060   -1.3162   -1.0441 C   0  0  0  0  0  0  0  0  0  0  0  0
   -0.1800    0.9108   -0.9322 C   0  0  0  0  0  0  0  0  0  0  0  0
   -0.9092    0.4065    0.1487 C   0  0  0  0  0  0  0  0  0  0  0  0
  -10.1351    1.6306   -0.5653 H   0  0  0  0  0  0  0  0  0  0  0  0
  -11.6823    0.9639   -1.0866 H   0  0  0  0  0  0  0  0  0  0  0  0
  -11.2980    1.1246    0.6963 H   0  0  0  0  0  0  0  0  0  0  0  0
   -8.6915   -1.9883    1.0959 H   0  0  0  0  0  0  0  0  0  0  0  0
   -9.9572   -1.0221    2.0441 H   0  0  0  0  0  0  0  0  0  0  0  0
   -7.7183    0.1939    0.2706 H   0  0  0  0  0  0  0  0  0  0  0  0
   -8.8020    1.0291    1.3927 H   0  0  0  0  0  0  0  0  0  0  0  0
   -6.6524    0.9000    2.2736 H   0  0  0  0  0  0  0  0  0  0  0  0
   -6.6491   -1.6610    1.1870 H   0  0  0  0  0  0  0  0  0  0  0  0
   -6.6487   -1.8315    2.9648 H   0  0  0  0  0  0  0  0  0  0  0  0
   -4.0265   -1.4903    4.0785 H   0  0  0  0  0  0  0  0  0  0  0  0
   -1.8139   -0.5513    2.9916 H   0  0  0  0  0  0  0  0  0  0  0  0
   -4.0152    1.3510   -0.6756 H   0  0  0  0  0  0  0  0  0  0  0  0
   -2.7459    2.2925   -2.6309 H   0  0  0  0  0  0  0  0  0  0  0  0
    1.6727    2.2038   -3.9522 H   0  0  0  0  0  0  0  0  0  0  0  0
    1.5564   -0.3587    0.8617 H   0  0  0  0  0  0  0  0  0  0  0  0
    3.9907    1.6725    0.3839 H   0  0  0  0  0  0  0  0  0  0  0  0
    6.3146    1.2931   -0.4064 H   0  0  0  0  0  0  0  0  0  0  0  0
    8.8915   -1.3249   -2.5793 H   0  0  0  0  0  0  0  0  0  0  0  0
    8.5319    0.3916   -2.5868 H   0  0  0  0  0  0  0  0  0  0  0  0
   10.9212   -0.1340   -2.1029 H   0  0  0  0  0  0  0  0  0  0  0  0
   12.5957    0.2285   -0.2957 H   0  0  0  0  0  0  0  0  0  0  0  0
   11.9030    0.2273    2.0930 H   0  0  0  0  0  0  0  0  0  0  0  0
    7.9321   -0.5033    0.8574 H   0  0  0  0  0  0  0  0  0  0  0  0
    2.8310   -2.0850   -1.2350 H   0  0  0  0  0  0  0  0  0  0  0  0
   -0.3785   -0.1164    0.9436 H   0  0  0  0  0  0  0  0  0  0  0  0
  1  2  1  0
  2  3  2  0
  2  4  2  0
  2  5  1  0
  5  6  1  0
  6  7  1  0
  7  8  1  0
  8  9  1  0
  9 10  2  0
 10 11  1  0
 11 12  2  0
 12 13  1  0
 12 14  1  0
 14 15  2  0
 15 16  1  0
 16 17  2  0
 17 18  1  0
 18 19  2  0
 19 20  1  0
 20 21  2  0
 21 22  1  0
 22 23  1  0
 23 24  2  0
 24 25  1  0
 25 26  2  0
 26 27  1  0
 27 28  1  0
 28 29  1  0
 29 30  2  0
 30 31  1  0
 31 32  2  0
 32 33  1  0
 33 34  1  0
 33 35  2  0
 26 36  1  0
 36 37  1  0
 36 38  2  0
 21 39  1  0
 39 40  2  0
 13  9  1  0
 40 14  1  0
 39 17  1  0
 38 23  1  0
 35 29  1  0
  1 41  1  0
  1 42  1  0
  1 43  1  0
  5 44  1  0
  5 45  1  0
  6 46  1  0
  6 47  1  0
  7 48  1  0
  8 49  1  0
  8 50  1  0
 10 51  1  0
 11 52  1  0
 15 53  1  0
 16 54  1  0
 19 55  1  0
 22 56  1  0
 24 57  1  0
 25 58  1  0
 28 59  1  0
 28 60  1  0
 30 61  1  0
 31 62  1  0
 32 63  1  0
 35 64  1  0
 38 65  1  0
 40 66  1  0
M  END
$$$$
[H]/C(C(=O)N([H])c1c(OC([H])([H])[H])c([H])c2nc([H])nc(N([H])c3c([H])c([H])c(F)c(Cl)c3[H])c2c1[H])=C(/[H])C([H])([H])N1C([H])([H])[C@]2([H])OC([H])([H])C([H])([H])O[C@]2([H])C1([H])[H]
     RDKit          3D

 61 65  0  0  0  0  0  0  0  0999 V2000
   -0.5578   -3.0497    3.1485 C   0  0  0  0  0  0  0  0  0  0  0  0
   -0.3440   -2.3177    1.9578 O   0  0  0  0  0  0  0  0  0  0  0  0
    0.8541   -1.7222    1.6668 C   0  0  0  0  0  0  0  0  0  0  0  0
    1.9352   -1.7803    2.4884 C   0  0  0  0  0  0  0  0  0  0  0  0
    3.1423   -1.1958    2.2234 C   0  0  0  0  0  0  0  0  0  0  0  0
    4.1826   -1.2813    3.0704 N   0  0  0  0  0  0  0  0  0  0  0  0
    5.3452   -0.6872    2.7611 C   0  0  0  0  0  0  0  0  0  0  0  0
    5.4524   -0.0267    1.6295 N   0  0  0  0  0  0  0  0  0  0  0  0
    4.4560    0.1062    0.7249 C   0  0  0  0  0  0  0  0  0  0  0  0
    4.6713    0.8048   -0.4815 N   0  0  0  0  0  0  0  0  0  0  0  0
    5.8726    1.4689   -0.8106 C   0  0  0  0  0  0  0  0  0  0  0  0
    6.1682    1.5602   -2.1771 C   0  0  0  0  0  0  0  0  0  0  0  0
    7.2905    2.2059   -2.6204 C   0  0  0  0  0  0  0  0  0  0  0  0
    8.1500    2.7791   -1.7153 C   0  0  0  0  0  0  0  0  0  0  0  0
    9.2788    3.4310   -2.1109 F   0  0  0  0  0  0  0  0  0  0  0  0
    7.8794    2.7017   -0.3723 C   0  0  0  0  0  0  0  0  0  0  0  0
    8.9715    3.4305    0.7940 Cl  0  0  0  0  0  0  0  0  0  0  0  0
    6.7288    2.0404    0.0841 C   0  0  0  0  0  0  0  0  0  0  0  0
    3.2507   -0.5032    1.0343 C   0  0  0  0  0  0  0  0  0  0  0  0
    2.1748   -0.4112    0.1547 C   0  0  0  0  0  0  0  0  0  0  0  0
    0.9764   -1.0138    0.4583 C   0  0  0  0  0  0  0  0  0  0  0  0
   -0.1592   -0.9663   -0.3790 N   0  0  0  0  0  0  0  0  0  0  0  0
   -0.2655   -0.3418   -1.6150 C   0  0  0  0  0  0  0  0  0  0  0  0
    0.6559    0.2775   -2.1645 O   0  0  0  0  0  0  0  0  0  0  0  0
   -1.5331   -0.3793   -2.3795 C   0  0  0  0  0  0  0  0  0  0  0  0
   -2.6199   -0.9849   -1.9625 C   0  0  0  0  0  0  0  0  0  0  0  0
   -3.8396   -0.9554   -2.8215 C   0  0  0  0  0  0  0  0  0  0  0  0
   -4.9658   -0.3402   -2.1933 N   0  0  0  0  0  0  0  0  0  0  0  0
   -5.5009   -1.0987   -1.0782 C   0  0  0  0  0  0  0  0  0  0  0  0
   -6.3994   -0.0569   -0.4265 C   0  0  1  0  0  0  0  0  0  0  0  0
   -6.7646   -0.4331    0.8615 O   0  0  0  0  0  0  0  0  0  0  0  0
   -6.6499    0.6761    1.7069 C   0  0  0  0  0  0  0  0  0  0  0  0
   -5.1751    0.9631    1.8576 C   0  0  0  0  0  0  0  0  0  0  0  0
   -4.5629    1.0447    0.6093 O   0  0  0  0  0  0  0  0  0  0  0  0
   -5.4839    1.1489   -0.4235 C   0  0  1  0  0  0  0  0  0  0  0  0
   -4.7305    0.9866   -1.7252 C   0  0  0  0  0  0  0  0  0  0  0  0
    0.2587   -3.8165    3.2291 H   0  0  0  0  0  0  0  0  0  0  0  0
   -0.5434   -2.3965    4.0323 H   0  0  0  0  0  0  0  0  0  0  0  0
   -1.5342   -3.5705    3.0657 H   0  0  0  0  0  0  0  0  0  0  0  0
    1.8324   -2.3348    3.4294 H   0  0  0  0  0  0  0  0  0  0  0  0
    6.1996   -0.7516    3.4464 H   0  0  0  0  0  0  0  0  0  0  0  0
    3.8884    0.8421   -1.1979 H   0  0  0  0  0  0  0  0  0  0  0  0
    5.4870    1.1062   -2.8990 H   0  0  0  0  0  0  0  0  0  0  0  0
    7.5117    2.2708   -3.6947 H   0  0  0  0  0  0  0  0  0  0  0  0
    6.5695    2.0372    1.1570 H   0  0  0  0  0  0  0  0  0  0  0  0
    2.2739    0.1343   -0.7658 H   0  0  0  0  0  0  0  0  0  0  0  0
   -1.0460   -1.4718   -0.0190 H   0  0  0  0  0  0  0  0  0  0  0  0
   -1.5657    0.1179   -3.3313 H   0  0  0  0  0  0  0  0  0  0  0  0
   -2.6906   -1.5095   -1.0277 H   0  0  0  0  0  0  0  0  0  0  0  0
   -4.1179   -1.9994   -3.1174 H   0  0  0  0  0  0  0  0  0  0  0  0
   -3.6305   -0.4227   -3.7695 H   0  0  0  0  0  0  0  0  0  0  0  0
   -4.6585   -1.3477   -0.3861 H   0  0  0  0  0  0  0  0  0  0  0  0
   -6.0694   -1.9854   -1.4001 H   0  0  0  0  0  0  0  0  0  0  0  0
   -7.2506    0.0935   -1.1029 H   0  0  0  0  0  0  0  0  0  0  0  0
   -7.0073    0.3298    2.7159 H   0  0  0  0  0  0  0  0  0  0  0  0
   -7.2257    1.5449    1.3456 H   0  0  0  0  0  0  0  0  0  0  0  0
   -4.9959    1.8900    2.4664 H   0  0  0  0  0  0  0  0  0  0  0  0
   -4.7349    0.1328    2.4660 H   0  0  0  0  0  0  0  0  0  0  0  0
   -6.0469    2.1040   -0.3790 H   0  0  0  0  0  0  0  0  0  0  0  0
   -5.1411    1.7062   -2.4580 H   0  0  0  0  0  0  0  0  0  0  0  0
   -3.6473    1.2166   -1.5800 H   0  0  0  0  0  0  0  0  0  0  0  0
  1  2  1  0
  2  3  1  0
  3  4  2  0
  4  5  1  0
  5  6  2  0
  6  7  1  0
  7  8  2  0
  8  9  1  0
  9 10  1  0
 10 11  1  0
 11 12  2  0
 12 13  1  0
 13 14  2  0
 14 15  1  0
 14 16  1  0
 16 17  1  0
 16 18  2  0
  9 19  2  0
 19 20  1  0
 20 21  2  0
 21 22  1  0
 22 23  1  0
 23 24  2  0
 23 25  1  0
 25 26  2  0
 26 27  1  0
 27 28  1  0
 28 29  1  0
 29 30  1  0
 30 31  1  0
 31 32  1  0
 32 33  1  0
 33 34  1  0
 34 35  1  0
 35 36  1  0
 21  3  1  0
 36 28  1  0
 19  5  1  0
 35 30  1  0
 18 11  1  0
  1 37  1  0
  1 38  1  0
  1 39  1  0
  4 40  1  0
  7 41  1  0
 10 42  1  0
 12 43  1  0
 13 44  1  0
 18 45  1  0
 20 46  1  0
 22 47  1  0
 25 48  1  0
 26 49  1  0
 27 50  1  0
 27 51  1  0
 29 52  1  0
 29 53  1  0
 30 54  1  6
 32 55  1  0
 32 56  1  0
 33 57  1  0
 33 58  1  0
 35 59  1  6
 36 60  1  0
 36 61  1  0
M  END
$$$$
[H]/C(C(=O)N([H])c1c(OC([H])([H])C([H])([H])[H])c([H])c2nc([H])c(C#N)c(N([H])c3c([H])c([H])c(OC([H])([H])c4c([H])c([H])c([H])c(F)c4[H])c(Cl)c3[H])c2c1[H])=C(/[H])C([H])([H])N(C([H])([H])[H])C([H])([H])[H]
     RDKit          3D

 70 73  0  0  0  0  0  0  0  0999 V2000
   -5.1148   -4.6635    0.3197 C   0  0  0  0  0  0  0  0  0  0  0  0
   -4.8587   -3.6988   -0.8157 C   0  0  0  0  0  0  0  0  0  0  0  0
   -4.0111   -2.6579   -0.4896 O   0  0  0  0  0  0  0  0  0  0  0  0
   -2.7082   -2.6881   -0.0748 C   0  0  0  0  0  0  0  0  0  0  0  0
   -2.0297   -3.8629    0.0729 C   0  0  0  0  0  0  0  0  0  0  0  0
   -0.7100   -3.8578    0.4944 C   0  0  0  0  0  0  0  0  0  0  0  0
   -0.0344   -5.0152    0.6419 N   0  0  0  0  0  0  0  0  0  0  0  0
    1.2480   -5.0276    1.0495 C   0  0  0  0  0  0  0  0  0  0  0  0
    1.9551   -3.8716    1.3426 C   0  0  0  0  0  0  0  0  0  0  0  0
    3.3313   -3.9333    1.7764 C   0  0  0  0  0  0  0  0  0  0  0  0
    4.4442   -3.9681    2.1321 N   0  0  0  0  0  0  0  0  0  0  0  0
    1.2754   -2.6810    1.1961 C   0  0  0  0  0  0  0  0  0  0  0  0
    1.9277   -1.4546    1.4723 N   0  0  0  0  0  0  0  0  0  0  0  0
    2.6379   -0.7197    0.4813 C   0  0  0  0  0  0  0  0  0  0  0  0
    3.2557    0.4590    0.8226 C   0  0  0  0  0  0  0  0  0  0  0  0
    3.9405    1.1609   -0.1540 C   0  0  0  0  0  0  0  0  0  0  0  0
    4.0287    0.7257   -1.4572 C   0  0  0  0  0  0  0  0  0  0  0  0
    4.7106    1.4352   -2.4097 O   0  0  0  0  0  0  0  0  0  0  0  0
    5.4033    2.6267   -2.2775 C   0  0  0  0  0  0  0  0  0  0  0  0
    6.5475    2.6000   -1.3442 C   0  0  0  0  0  0  0  0  0  0  0  0
    7.1716    1.4051   -1.0556 C   0  0  0  0  0  0  0  0  0  0  0  0
    8.2580    1.3589   -0.1741 C   0  0  0  0  0  0  0  0  0  0  0  0
    8.7187    2.5092    0.4177 C   0  0  0  0  0  0  0  0  0  0  0  0
    8.0861    3.7059    0.1223 C   0  0  0  0  0  0  0  0  0  0  0  0
    8.5370    4.8554    0.7065 F   0  0  0  0  0  0  0  0  0  0  0  0
    7.0221    3.7421   -0.7427 C   0  0  0  0  0  0  0  0  0  0  0  0
    3.4060   -0.4667   -1.8120 C   0  0  0  0  0  0  0  0  0  0  0  0
    3.4789   -1.0832   -3.4673 Cl  0  0  0  0  0  0  0  0  0  0  0  0
    2.7312   -1.1466   -0.8235 C   0  0  0  0  0  0  0  0  0  0  0  0
   -0.0461   -2.6927    0.7745 C   0  0  0  0  0  0  0  0  0  0  0  0
   -0.7671   -1.4954    0.6144 C   0  0  0  0  0  0  0  0  0  0  0  0
   -2.0746   -1.4518    0.1997 C   0  0  0  0  0  0  0  0  0  0  0  0
   -2.8236   -0.2674    0.0323 N   0  0  0  0  0  0  0  0  0  0  0  0
   -2.3403    1.0276    0.2509 C   0  0  0  0  0  0  0  0  0  0  0  0
   -1.1574    1.2950    0.6291 O   0  0  0  0  0  0  0  0  0  0  0  0
   -3.2190    2.1720    0.0423 C   0  0  0  0  0  0  0  0  0  0  0  0
   -4.4522    2.0342   -0.3438 C   0  0  0  0  0  0  0  0  0  0  0  0
   -5.3224    3.2507   -0.5459 C   0  0  0  0  0  0  0  0  0  0  0  0
   -6.4325    3.1040    0.3616 N   0  0  0  0  0  0  0  0  0  0  0  0
   -7.2914    2.0046   -0.0328 C   0  0  0  0  0  0  0  0  0  0  0  0
   -7.1477    4.3497    0.4598 C   0  0  0  0  0  0  0  0  0  0  0  0
   -6.1921   -4.7136    0.5920 H   0  0  0  0  0  0  0  0  0  0  0  0
   -4.7620   -5.6820    0.0274 H   0  0  0  0  0  0  0  0  0  0  0  0
   -4.5053   -4.3250    1.2060 H   0  0  0  0  0  0  0  0  0  0  0  0
   -4.4604   -4.2696   -1.7037 H   0  0  0  0  0  0  0  0  0  0  0  0
   -5.8556   -3.3170   -1.1775 H   0  0  0  0  0  0  0  0  0  0  0  0
   -2.5331   -4.8070   -0.1478 H   0  0  0  0  0  0  0  0  0  0  0  0
    1.7910   -5.9770    1.1668 H   0  0  0  0  0  0  0  0  0  0  0  0
    1.8756   -1.0884    2.4461 H   0  0  0  0  0  0  0  0  0  0  0  0
    3.2088    0.8312    1.8349 H   0  0  0  0  0  0  0  0  0  0  0  0
    4.4079    2.1045    0.1801 H   0  0  0  0  0  0  0  0  0  0  0  0
    5.7860    2.9126   -3.2880 H   0  0  0  0  0  0  0  0  0  0  0  0
    4.6606    3.3975   -1.9140 H   0  0  0  0  0  0  0  0  0  0  0  0
    6.8757    0.4525   -1.4745 H   0  0  0  0  0  0  0  0  0  0  0  0
    8.7397    0.4202    0.0451 H   0  0  0  0  0  0  0  0  0  0  0  0
    9.5560    2.4985    1.1019 H   0  0  0  0  0  0  0  0  0  0  0  0
    6.5719    4.7262   -0.9283 H   0  0  0  0  0  0  0  0  0  0  0  0
    2.2405   -2.0833   -1.0970 H   0  0  0  0  0  0  0  0  0  0  0  0
   -0.1902   -0.6170    0.8504 H   0  0  0  0  0  0  0  0  0  0  0  0
   -3.8370   -0.4073   -0.2874 H   0  0  0  0  0  0  0  0  0  0  0  0
   -2.8492    3.1685    0.2082 H   0  0  0  0  0  0  0  0  0  0  0  0
   -4.9432    1.0992   -0.5441 H   0  0  0  0  0  0  0  0  0  0  0  0
   -4.7831    4.1825   -0.3748 H   0  0  0  0  0  0  0  0  0  0  0  0
   -5.6765    3.1733   -1.6080 H   0  0  0  0  0  0  0  0  0  0  0  0
   -8.2949    2.1439    0.4643 H   0  0  0  0  0  0  0  0  0  0  0  0
   -6.8652    1.0266    0.2181 H   0  0  0  0  0  0  0  0  0  0  0  0
   -7.4809    2.0799   -1.1036 H   0  0  0  0  0  0  0  0  0  0  0  0
   -7.3583    4.7751   -0.5391 H   0  0  0  0  0  0  0  0  0  0  0  0
   -6.5739    5.0469    1.1160 H   0  0  0  0  0  0  0  0  0  0  0  0
   -8.1273    4.1302    0.9409 H   0  0  0  0  0  0  0  0  0  0  0  0
  1  2  1  0
  2  3  1  0
  3  4  1  0
  4  5  2  0
  5  6  1  0
  6  7  2  0
  7  8  1  0
  8  9  2  0
  9 10  1  0
 10 11  3  0
  9 12  1  0
 12 13  1  0
 13 14  1  0
 14 15  2  0
 15 16  1  0
 16 17  2  0
 17 18  1  0
 18 19  1  0
 19 20  1  0
 20 21  2  0
 21 22  1  0
 22 23  2  0
 23 24  1  0
 24 25  1  0
 24 26  2  0
 17 27  1  0
 27 28  1  0
 27 29  2  0
 12 30  2  0
 30 31  1  0
 31 32  2  0
 32 33  1  0
 33 34  1  0
 34 35  2  0
 34 36  1  0
 36 37  2  0
 37 38  1  0
 38 39  1  0
 39 40  1  0
 39 41  1  0
 32  4  1  0
 30  6  1  0
 29 14  1  0
 26 20  1  0
  1 42  1  0
  1 43  1  0
  1 44  1  0
  2 45  1  0
  2 46  1  0
  5 47  1  0
  8 48  1  0
 13 49  1  0
 15 50  1  0
 16 51  1  0
 19 52  1  0
 19 53  1  0
 21 54  1  0
 22 55  1  0
 23 56  1  0
 26 57  1  0
 29 58  1  0
 31 59  1  0
 33 60  1  0
 36 61  1  0
 37 62  1  0
 38 63  1  0
 38 64  1  0
 40 65  1  0
 40 66  1  0
 40 67  1  0
 41 68  1  0
 41 69  1  0
 41 70  1  0
M  END
$$$$
[H]/C(C(=O)N([H])c1c(OC([H])([H])C([H])([H])[H])c([H])c2nc([H])c(C#N)c(N([H])c3c([H])c([H])c(OC([H])([H])c4nc([H])c([H])c([H])c4[H])c(Cl)c3[H])c2c1[H])=C(/[H])C([H])([H])N(C([H])([H])[H])C([H])([H])[H]
     RDKit          3D

 69 72  0  0  0  0  0  0  0  0999 V2000
    4.4878   -5.2221    2.5772 C   0  0  0  0  0  0  0  0  0  0  0  0
    4.0775   -3.8534    3.0359 C   0  0  0  0  0  0  0  0  0  0  0  0
    3.6124   -3.0045    2.0364 O   0  0  0  0  0  0  0  0  0  0  0  0
    2.5206   -3.1570    1.2132 C   0  0  0  0  0  0  0  0  0  0  0  0
    1.7346   -4.2667    1.3465 C   0  0  0  0  0  0  0  0  0  0  0  0
    0.6366   -4.3995    0.5049 C   0  0  0  0  0  0  0  0  0  0  0  0
   -0.1541   -5.4800    0.6125 N   0  0  0  0  0  0  0  0  0  0  0  0
   -1.2174   -5.6104   -0.2012 C   0  0  0  0  0  0  0  0  0  0  0  0
   -1.5576   -4.6834   -1.1635 C   0  0  0  0  0  0  0  0  0  0  0  0
   -2.7156   -4.8713   -2.0165 C   0  0  0  0  0  0  0  0  0  0  0  0
   -3.6362   -5.0405   -2.7009 N   0  0  0  0  0  0  0  0  0  0  0  0
   -0.7528   -3.5629   -1.2882 C   0  0  0  0  0  0  0  0  0  0  0  0
   -1.0885   -2.6098   -2.2656 N   0  0  0  0  0  0  0  0  0  0  0  0
   -1.9616   -1.5458   -1.9068 C   0  0  0  0  0  0  0  0  0  0  0  0
   -2.4823   -1.4313   -0.6280 C   0  0  0  0  0  0  0  0  0  0  0  0
   -3.3338   -0.3929   -0.2799 C   0  0  0  0  0  0  0  0  0  0  0  0
   -3.6805    0.5508   -1.2052 C   0  0  0  0  0  0  0  0  0  0  0  0
   -4.5271    1.6002   -0.8940 O   0  0  0  0  0  0  0  0  0  0  0  0
   -5.0444    1.6891    0.4278 C   0  0  0  0  0  0  0  0  0  0  0  0
   -5.9231    2.8635    0.5762 C   0  0  0  0  0  0  0  0  0  0  0  0
   -7.2903    2.8130    0.3354 C   0  0  0  0  0  0  0  0  0  0  0  0
   -8.0984    3.9192    0.4785 C   0  0  0  0  0  0  0  0  0  0  0  0
   -7.5000    5.0994    0.8747 C   0  0  0  0  0  0  0  0  0  0  0  0
   -6.1473    5.1527    1.1138 C   0  0  0  0  0  0  0  0  0  0  0  0
   -5.4098    4.0380    0.9569 N   0  0  0  0  0  0  0  0  0  0  0  0
   -3.1783    0.4613   -2.4816 C   0  0  0  0  0  0  0  0  0  0  0  0
   -3.6388    1.6828   -3.6453 Cl  0  0  0  0  0  0  0  0  0  0  0  0
   -2.3425   -0.5608   -2.8175 C   0  0  0  0  0  0  0  0  0  0  0  0
    0.3269   -3.4575   -0.4423 C   0  0  0  0  0  0  0  0  0  0  0  0
    1.1554   -2.3512   -0.5364 C   0  0  0  0  0  0  0  0  0  0  0  0
    2.2619   -2.1391    0.2548 C   0  0  0  0  0  0  0  0  0  0  0  0
    3.1237   -1.0355    0.1911 N   0  0  0  0  0  0  0  0  0  0  0  0
    3.0582    0.0581   -0.6576 C   0  0  0  0  0  0  0  0  0  0  0  0
    2.1816    0.2168   -1.5215 O   0  0  0  0  0  0  0  0  0  0  0  0
    4.0760    1.1430   -0.5743 C   0  0  0  0  0  0  0  0  0  0  0  0
    4.0468    2.1991   -1.3648 C   0  0  0  0  0  0  0  0  0  0  0  0
    5.0576    3.2763   -1.2819 C   0  0  0  0  0  0  0  0  0  0  0  0
    4.4561    4.5619   -0.9757 N   0  0  0  0  0  0  0  0  0  0  0  0
    5.4926    5.5581   -0.9110 C   0  0  0  0  0  0  0  0  0  0  0  0
    3.7715    4.5228    0.3022 C   0  0  0  0  0  0  0  0  0  0  0  0
    3.9437   -6.0064    3.1337 H   0  0  0  0  0  0  0  0  0  0  0  0
    5.5675   -5.3786    2.8065 H   0  0  0  0  0  0  0  0  0  0  0  0
    4.3329   -5.3012    1.4721 H   0  0  0  0  0  0  0  0  0  0  0  0
    3.2607   -3.9768    3.7986 H   0  0  0  0  0  0  0  0  0  0  0  0
    4.9367   -3.3384    3.5293 H   0  0  0  0  0  0  0  0  0  0  0  0
    1.9404   -5.0457    2.0982 H   0  0  0  0  0  0  0  0  0  0  0  0
   -1.8804   -6.4840   -0.1343 H   0  0  0  0  0  0  0  0  0  0  0  0
   -0.7287   -2.6461   -3.2378 H   0  0  0  0  0  0  0  0  0  0  0  0
   -2.2240   -2.1608    0.1156 H   0  0  0  0  0  0  0  0  0  0  0  0
   -3.7004   -0.3658    0.7303 H   0  0  0  0  0  0  0  0  0  0  0  0
   -5.5664    0.7311    0.6381 H   0  0  0  0  0  0  0  0  0  0  0  0
   -4.2093    1.7497    1.1529 H   0  0  0  0  0  0  0  0  0  0  0  0
   -7.7021    1.8724    0.0305 H   0  0  0  0  0  0  0  0  0  0  0  0
   -9.1660    3.8960    0.2945 H   0  0  0  0  0  0  0  0  0  0  0  0
   -8.0911    6.0124    1.0054 H   0  0  0  0  0  0  0  0  0  0  0  0
   -5.7034    6.1072    1.4277 H   0  0  0  0  0  0  0  0  0  0  0  0
   -1.9474   -0.6350   -3.8141 H   0  0  0  0  0  0  0  0  0  0  0  0
    0.8869   -1.6228   -1.2935 H   0  0  0  0  0  0  0  0  0  0  0  0
    3.9378   -1.0377    0.8883 H   0  0  0  0  0  0  0  0  0  0  0  0
    4.8795    1.0873    0.1525 H   0  0  0  0  0  0  0  0  0  0  0  0
    3.2469    2.2587   -2.0913 H   0  0  0  0  0  0  0  0  0  0  0  0
    5.5825    3.4133   -2.2652 H   0  0  0  0  0  0  0  0  0  0  0  0
    5.8503    3.0014   -0.5593 H   0  0  0  0  0  0  0  0  0  0  0  0
    6.1284    5.4636   -1.8294 H   0  0  0  0  0  0  0  0  0  0  0  0
    5.0576    6.5675   -0.9018 H   0  0  0  0  0  0  0  0  0  0  0  0
    6.1548    5.4280   -0.0245 H   0  0  0  0  0  0  0  0  0  0  0  0
    2.7020    4.2982    0.1954 H   0  0  0  0  0  0  0  0  0  0  0  0
    3.8402    5.5540    0.7429 H   0  0  0  0  0  0  0  0  0  0  0  0
    4.2732    3.8279    1.0138 H   0  0  0  0  0  0  0  0  0  0  0  0
  1  2  1  0
  2  3  1  0
  3  4  1  0
  4  5  2  0
  5  6  1  0
  6  7  2  0
  7  8  1  0
  8  9  2  0
  9 10  1  0
 10 11  3  0
  9 12  1  0
 12 13  1  0
 13 14  1  0
 14 15  2  0
 15 16  1  0
 16 17  2  0
 17 18  1  0
 18 19  1  0
 19 20  1  0
 20 21  2  0
 21 22  1  0
 22 23  2  0
 23 24  1  0
 24 25  2  0
 17 26  1  0
 26 27  1  0
 26 28  2  0
 12 29  2  0
 29 30  1  0
 30 31  2  0
 31 32  1  0
 32 33  1  0
 33 34  2  0
 33 35  1  0
 35 36  2  0
 36 37  1  0
 37 38  1  0
 38 39  1  0
 38 40  1  0
 31  4  1  0
 29  6  1  0
 28 14  1  0
 25 20  1  0
  1 41  1  0
  1 42  1  0
  1 43  1  0
  2 44  1  0
  2 45  1  0
  5 46  1  0
  8 47  1  0
 13 48  1  0
 15 49  1  0
 16 50  1  0
 19 51  1  0
 19 52  1  0
 21 53  1  0
 22 54  1  0
 23 55  1  0
 24 56  1  0
 28 57  1  0
 30 58  1  0
 32 59  1  0
 35 60  1  0
 36 61  1  0
 37 62  1  0
 37 63  1  0
 39 64  1  0
 39 65  1  0
 39 66  1  0
 40 67  1  0
 40 68  1  0
 40 69  1  0
M  END
$$$$
[H]/C(C(=O)N([H])c1c(OC([H])([H])C([H])([H])[H])c([H])c2nc([H])nc(N([H])c3c([H])c([H])c(F)c(Cl)c3[H])c2c1[H])=C(/[H])C([H])([H])N1C([H])([H])[C@]2([H])OC([H])([H])C([H])([H])O[C@]2([H])C1([H])[H]
     RDKit          3D

 64 68  0  0  0  0  0  0  0  0999 V2000
   -1.8317   -5.7401   -1.0797 C   0  0  0  0  0  0  0  0  0  0  0  0
   -0.9852   -4.7790   -1.8686 C   0  0  0  0  0  0  0  0  0  0  0  0
   -0.8687   -3.5059   -1.3110 O   0  0  0  0  0  0  0  0  0  0  0  0
   -1.9057   -2.6196   -1.0762 C   0  0  0  0  0  0  0  0  0  0  0  0
   -3.1914   -2.9286   -1.3925 C   0  0  0  0  0  0  0  0  0  0  0  0
   -4.2008   -2.0048   -1.1379 C   0  0  0  0  0  0  0  0  0  0  0  0
   -5.4437   -2.3363   -1.4561 N   0  0  0  0  0  0  0  0  0  0  0  0
   -6.4427   -1.4784   -1.2259 C   0  0  0  0  0  0  0  0  0  0  0  0
   -6.1488   -0.3137   -0.6813 N   0  0  0  0  0  0  0  0  0  0  0  0
   -4.9390    0.1175   -0.3248 C   0  0  0  0  0  0  0  0  0  0  0  0
   -4.6949    1.3713    0.2367 N   0  0  0  0  0  0  0  0  0  0  0  0
   -5.6570    2.3666    0.5621 C   0  0  0  0  0  0  0  0  0  0  0  0
   -6.9905    2.1611    0.7247 C   0  0  0  0  0  0  0  0  0  0  0  0
   -7.8209    3.2415    1.0207 C   0  0  0  0  0  0  0  0  0  0  0  0
   -7.3569    4.5217    1.1603 C   0  0  0  0  0  0  0  0  0  0  0  0
   -8.1991    5.5582    1.4521 F   0  0  0  0  0  0  0  0  0  0  0  0
   -6.0087    4.7346    0.9977 C   0  0  0  0  0  0  0  0  0  0  0  0
   -5.4042    6.3710    1.1780 Cl  0  0  0  0  0  0  0  0  0  0  0  0
   -5.1997    3.6712    0.7069 C   0  0  0  0  0  0  0  0  0  0  0  0
   -3.8871   -0.7750   -0.5631 C   0  0  0  0  0  0  0  0  0  0  0  0
   -2.5829   -0.4941   -0.2567 C   0  0  0  0  0  0  0  0  0  0  0  0
   -1.5621   -1.3759   -0.4920 C   0  0  0  0  0  0  0  0  0  0  0  0
   -0.2100   -1.1376   -0.1818 N   0  0  0  0  0  0  0  0  0  0  0  0
    0.3282    0.0376    0.3123 C   0  0  0  0  0  0  0  0  0  0  0  0
   -0.2966    1.0662    0.5505 O   0  0  0  0  0  0  0  0  0  0  0  0
    1.7951    0.0926    0.5935 C   0  0  0  0  0  0  0  0  0  0  0  0
    2.3839    1.1612    1.0524 C   0  0  0  0  0  0  0  0  0  0  0  0
    3.8155    1.3224    1.3617 C   0  0  0  0  0  0  0  0  0  0  0  0
    4.5662    0.1628    1.0727 N   0  0  0  0  0  0  0  0  0  0  0  0
    4.7471   -0.1222   -0.3095 C   0  0  0  0  0  0  0  0  0  0  0  0
    6.2107    0.1687   -0.6211 C   0  0  1  0  0  0  0  0  0  0  0  0
    6.4190    1.3575   -1.2369 O   0  0  0  0  0  0  0  0  0  0  0  0
    7.3788    2.1902   -0.7606 C   0  0  0  0  0  0  0  0  0  0  0  0
    8.5143    1.3444   -0.1831 C   0  0  0  0  0  0  0  0  0  0  0  0
    7.9501    0.7548    0.9675 O   0  0  0  0  0  0  0  0  0  0  0  0
    6.9120   -0.0751    0.6773 C   0  0  1  0  0  0  0  0  0  0  0  0
    5.8475    0.0875    1.7346 C   0  0  0  0  0  0  0  0  0  0  0  0
   -1.1984   -6.5710   -0.6759 H   0  0  0  0  0  0  0  0  0  0  0  0
   -2.2587   -5.1643   -0.2162 H   0  0  0  0  0  0  0  0  0  0  0  0
   -2.6418   -6.1301   -1.7291 H   0  0  0  0  0  0  0  0  0  0  0  0
   -1.4052   -4.6699   -2.8985 H   0  0  0  0  0  0  0  0  0  0  0  0
    0.0433   -5.2269   -1.9575 H   0  0  0  0  0  0  0  0  0  0  0  0
   -3.4836   -3.8847   -1.8540 H   0  0  0  0  0  0  0  0  0  0  0  0
   -7.4867   -1.7504   -1.4899 H   0  0  0  0  0  0  0  0  0  0  0  0
   -3.6871    1.6359    0.4594 H   0  0  0  0  0  0  0  0  0  0  0  0
   -7.4209    1.1655    0.6447 H   0  0  0  0  0  0  0  0  0  0  0  0
   -8.8812    3.0315    1.1397 H   0  0  0  0  0  0  0  0  0  0  0  0
   -4.1338    3.9057    0.5885 H   0  0  0  0  0  0  0  0  0  0  0  0
   -2.3803    0.4686    0.1929 H   0  0  0  0  0  0  0  0  0  0  0  0
    0.4847   -1.9485   -0.3441 H   0  0  0  0  0  0  0  0  0  0  0  0
    2.3752   -0.7984    0.4175 H   0  0  0  0  0  0  0  0  0  0  0  0
    1.6988    2.0288    1.2159 H   0  0  0  0  0  0  0  0  0  0  0  0
    4.1767    2.1352    0.6538 H   0  0  0  0  0  0  0  0  0  0  0  0
    3.9347    1.6908    2.4074 H   0  0  0  0  0  0  0  0  0  0  0  0
    4.5115   -1.1970   -0.5069 H   0  0  0  0  0  0  0  0  0  0  0  0
    4.0664    0.4790   -0.9280 H   0  0  0  0  0  0  0  0  0  0  0  0
    6.5289   -0.6410   -1.3244 H   0  0  0  0  0  0  0  0  0  0  0  0
    7.7825    2.7814   -1.6147 H   0  0  0  0  0  0  0  0  0  0  0  0
    7.0404    2.8910    0.0291 H   0  0  0  0  0  0  0  0  0  0  0  0
    9.3536    1.9540    0.1854 H   0  0  0  0  0  0  0  0  0  0  0  0
    8.8076    0.5478   -0.9018 H   0  0  0  0  0  0  0  0  0  0  0  0
    7.3014   -1.1339    0.7331 H   0  0  0  0  0  0  0  0  0  0  0  0
    5.9938    1.0186    2.3184 H   0  0  0  0  0  0  0  0  0  0  0  0
    5.8380   -0.7922    2.4165 H   0  0  0  0  0  0  0  0  0  0  0  0
  1  2  1  0
  2  3  1  0
  3  4  1  0
  4  5  2  0
  5  6  1  0
  6  7  2  0
  7  8  1  0
  8  9  2  0
  9 10  1  0
 10 11  1  0
 11 12  1  0
 12 13  2  0
 13 14  1  0
 14 15  2  0
 15 16  1  0
 15 17  1  0
 17 18  1  0
 17 19  2  0
 10 20  2  0
 20 21  1  0
 21 22  2  0
 22 23  1  0
 23 24  1  0
 24 25  2  0
 24 26  1  0
 26 27  2  0
 27 28  1  0
 28 29  1  0
 29 30  1  0
 30 31  1  0
 31 32  1  0
 32 33  1  0
 33 34  1  0
 34 35  1  0
 35 36  1  0
 36 37  1  0
 22  4  1  0
 37 29  1  0
 20  6  1  0
 36 31  1  0
 19 12  1  0
  1 38  1  0
  1 39  1  0
  1 40  1  0
  2 41  1  0
  2 42  1  0
  5 43  1  0
  8 44  1  0
 11 45  1  0
 13 46  1  0
 14 47  1  0
 19 48  1  0
 21 49  1  0
 23 50  1  0
 26 51  1  0
 27 52  1  0
 28 53  1  0
 28 54  1  0
 30 55  1  0
 30 56  1  0
 31 57  1  6
 33 58  1  0
 33 59  1  0
 34 60  1  0
 34 61  1  0
 36 62  1  6
 37 63  1  0
 37 64  1  0
M  END
$$$$
[H]/C(C(=O)N([H])c1c(OC([H])([H])C([H])([H])OC([H])([H])[H])c([H])c2nc([H])nc(N([H])c3c([H])c([H])c(F)c(Cl)c3[H])c2c1[H])=C(/[H])C([H])([H])N1C([H])([H])[C@]2([H])OC([H])([H])C([H])([H])O[C@]2([H])C1([H])[H]
     RDKit          3D

 68 72  0  0  0  0  0  0  0  0999 V2000
   -0.3985    4.6471    4.5035 C   0  0  0  0  0  0  0  0  0  0  0  0
    0.2036    4.7200    3.2729 O   0  0  0  0  0  0  0  0  0  0  0  0
    0.1792    3.5701    2.5281 C   0  0  0  0  0  0  0  0  0  0  0  0
   -1.2261    3.0754    2.2061 C   0  0  0  0  0  0  0  0  0  0  0  0
   -1.0771    1.9149    1.4549 O   0  0  0  0  0  0  0  0  0  0  0  0
   -2.0969    1.1284    0.9418 C   0  0  0  0  0  0  0  0  0  0  0  0
   -3.4168    1.4198    1.1248 C   0  0  0  0  0  0  0  0  0  0  0  0
   -4.4472    0.6541    0.6245 C   0  0  0  0  0  0  0  0  0  0  0  0
   -5.7348    1.0179    0.8550 N   0  0  0  0  0  0  0  0  0  0  0  0
   -6.7194    0.2548    0.3568 C   0  0  0  0  0  0  0  0  0  0  0  0
   -6.3845   -0.8222   -0.3389 N   0  0  0  0  0  0  0  0  0  0  0  0
   -5.1482   -1.2528   -0.6126 C   0  0  0  0  0  0  0  0  0  0  0  0
   -4.9098   -2.4053   -1.3878 N   0  0  0  0  0  0  0  0  0  0  0  0
   -5.8732   -3.2891   -1.9328 C   0  0  0  0  0  0  0  0  0  0  0  0
   -7.1396   -3.4155   -1.4950 C   0  0  0  0  0  0  0  0  0  0  0  0
   -8.0154   -4.3078   -2.1291 C   0  0  0  0  0  0  0  0  0  0  0  0
   -7.5807   -5.0571   -3.2010 C   0  0  0  0  0  0  0  0  0  0  0  0
   -8.4238   -5.9190   -3.8145 F   0  0  0  0  0  0  0  0  0  0  0  0
   -6.2861   -4.9318   -3.6521 C   0  0  0  0  0  0  0  0  0  0  0  0
   -5.6912   -5.8746   -5.0199 Cl  0  0  0  0  0  0  0  0  0  0  0  0
   -5.4473   -4.0557   -3.0205 C   0  0  0  0  0  0  0  0  0  0  0  0
   -4.1212   -0.4729   -0.1035 C   0  0  0  0  0  0  0  0  0  0  0  0
   -2.7892   -0.8057   -0.3132 C   0  0  0  0  0  0  0  0  0  0  0  0
   -1.7696   -0.0219    0.1986 C   0  0  0  0  0  0  0  0  0  0  0  0
   -0.3874   -0.2615    0.0495 N   0  0  0  0  0  0  0  0  0  0  0  0
    0.1907   -1.3378   -0.6537 C   0  0  0  0  0  0  0  0  0  0  0  0
   -0.4817   -2.2485   -1.2558 O   0  0  0  0  0  0  0  0  0  0  0  0
    1.6579   -1.4964   -0.7490 C   0  0  0  0  0  0  0  0  0  0  0  0
    2.4998   -0.6657   -0.1956 C   0  0  0  0  0  0  0  0  0  0  0  0
    3.9934   -0.8658   -0.3190 C   0  0  0  0  0  0  0  0  0  0  0  0
    4.6115    0.2510   -0.9557 N   0  0  0  0  0  0  0  0  0  0  0  0
    4.6101    1.4732   -0.1927 C   0  0  0  0  0  0  0  0  0  0  0  0
    6.0766    1.6942    0.1060 C   0  0  1  0  0  0  0  0  0  0  0  0
    6.5066    0.7505    1.0637 O   0  0  0  0  0  0  0  0  0  0  0  0
    7.8967    0.8053    1.1502 C   0  0  0  0  0  0  0  0  0  0  0  0
    8.4744    0.3990   -0.1657 C   0  0  0  0  0  0  0  0  0  0  0  0
    8.0420    1.1667   -1.2146 O   0  0  0  0  0  0  0  0  0  0  0  0
    6.6867    1.3182   -1.2561 C   0  0  1  0  0  0  0  0  0  0  0  0
    5.9154    0.0275   -1.4923 C   0  0  0  0  0  0  0  0  0  0  0  0
   -1.4566    4.3906    4.3931 H   0  0  0  0  0  0  0  0  0  0  0  0
   -0.3467    5.6582    4.9702 H   0  0  0  0  0  0  0  0  0  0  0  0
    0.1057    3.9529    5.2074 H   0  0  0  0  0  0  0  0  0  0  0  0
    0.7108    2.7534    3.0703 H   0  0  0  0  0  0  0  0  0  0  0  0
    0.7550    3.7488    1.6042 H   0  0  0  0  0  0  0  0  0  0  0  0
   -1.8031    3.8050    1.6409 H   0  0  0  0  0  0  0  0  0  0  0  0
   -1.7611    2.8134    3.1376 H   0  0  0  0  0  0  0  0  0  0  0  0
   -3.6457    2.3250    1.7099 H   0  0  0  0  0  0  0  0  0  0  0  0
   -7.7753    0.5351    0.5340 H   0  0  0  0  0  0  0  0  0  0  0  0
   -3.8833   -2.6223   -1.5732 H   0  0  0  0  0  0  0  0  0  0  0  0
   -7.5312   -2.8770   -0.6603 H   0  0  0  0  0  0  0  0  0  0  0  0
   -9.0260   -4.4023   -1.7738 H   0  0  0  0  0  0  0  0  0  0  0  0
   -4.4393   -3.9732   -3.3892 H   0  0  0  0  0  0  0  0  0  0  0  0
   -2.5322   -1.6834   -0.8767 H   0  0  0  0  0  0  0  0  0  0  0  0
    0.3027    0.4148    0.4979 H   0  0  0  0  0  0  0  0  0  0  0  0
    2.0563   -2.3394   -1.3023 H   0  0  0  0  0  0  0  0  0  0  0  0
    2.1767    0.1793    0.3611 H   0  0  0  0  0  0  0  0  0  0  0  0
    4.3795   -1.0204    0.6928 H   0  0  0  0  0  0  0  0  0  0  0  0
    4.1525   -1.7552   -0.9473 H   0  0  0  0  0  0  0  0  0  0  0  0
    4.2894    2.3627   -0.8014 H   0  0  0  0  0  0  0  0  0  0  0  0
    4.0070    1.3906    0.7347 H   0  0  0  0  0  0  0  0  0  0  0  0
    6.3052    2.7201    0.3961 H   0  0  0  0  0  0  0  0  0  0  0  0
    8.2615    0.0933    1.9179 H   0  0  0  0  0  0  0  0  0  0  0  0
    8.1700    1.8476    1.4172 H   0  0  0  0  0  0  0  0  0  0  0  0
    8.3424   -0.6897   -0.3141 H   0  0  0  0  0  0  0  0  0  0  0  0
    9.5876    0.5587   -0.0917 H   0  0  0  0  0  0  0  0  0  0  0  0
    6.3369    2.0467   -1.9815 H   0  0  0  0  0  0  0  0  0  0  0  0
    6.3697   -0.8314   -0.9644 H   0  0  0  0  0  0  0  0  0  0  0  0
    5.9129   -0.1828   -2.5748 H   0  0  0  0  0  0  0  0  0  0  0  0
  1  2  1  0
  2  3  1  0
  3  4  1  0
  4  5  1  0
  5  6  1  0
  6  7  2  0
  7  8  1  0
  8  9  2  0
  9 10  1  0
 10 11  2  0
 11 12  1  0
 12 13  1  0
 13 14  1  0
 14 15  2  0
 15 16  1  0
 16 17  2  0
 17 18  1  0
 17 19  1  0
 19 20  1  0
 19 21  2  0
 12 22  2  0
 22 23  1  0
 23 24  2  0
 24 25  1  0
 25 26  1  0
 26 27  2  0
 26 28  1  0
 28 29  2  0
 29 30  1  0
 30 31  1  0
 31 32  1  0
 32 33  1  0
 33 34  1  0
 34 35  1  0
 35 36  1  0
 36 37  1  0
 37 38  1  0
 38 39  1  0
 24  6  1  0
 39 31  1  0
 22  8  1  0
 38 33  1  0
 21 14  1  0
  1 40  1  0
  1 41  1  0
  1 42  1  0
  3 43  1  0
  3 44  1  0
  4 45  1  0
  4 46  1  0
  7 47  1  0
 10 48  1  0
 13 49  1  0
 15 50  1  0
 16 51  1  0
 21 52  1  0
 23 53  1  0
 25 54  1  0
 28 55  1  0
 29 56  1  0
 30 57  1  0
 30 58  1  0
 32 59  1  0
 32 60  1  0
 33 61  1  1
 35 62  1  0
 35 63  1  0
 36 64  1  0
 36 65  1  0
 38 66  1  6
 39 67  1  0
 39 68  1  0
M  END
$$$$
[H]/C(C(=O)N([H])c1c(OC([H])([H])C([H])([H])[H])c([H])c2nc([H])c(C#N)c(N([H])c3c([H])c([H])c(OC([H])([H])c4c([H])c([H])c([H])c([H])c4[H])c(Cl)c3[H])c2c1[H])=C(/[H])C([H])([H])N1C([H])([H])C([H])([H])N(C([H])([H])[H])C([H])([H])C1([H])[H]
     RDKit          3D

 79 83  0  0  0  0  0  0  0  0999 V2000
    4.2664    3.4549   -3.0743 C   0  0  0  0  0  0  0  0  0  0  0  0
    3.1200    2.6442   -3.6747 C   0  0  0  0  0  0  0  0  0  0  0  0
    2.5984    1.8314   -2.6686 O   0  0  0  0  0  0  0  0  0  0  0  0
    1.5417    0.9531   -2.8463 C   0  0  0  0  0  0  0  0  0  0  0  0
    0.9783    0.8815   -4.0821 C   0  0  0  0  0  0  0  0  0  0  0  0
   -0.0757    0.0134   -4.2835 C   0  0  0  0  0  0  0  0  0  0  0  0
   -0.6441   -0.0697   -5.5006 N   0  0  0  0  0  0  0  0  0  0  0  0
   -1.6823   -0.9209   -5.7124 C   0  0  0  0  0  0  0  0  0  0  0  0
   -2.1901   -1.7213   -4.7131 C   0  0  0  0  0  0  0  0  0  0  0  0
   -3.2878   -2.6237   -4.9284 C   0  0  0  0  0  0  0  0  0  0  0  0
   -4.1713   -3.3552   -5.0857 N   0  0  0  0  0  0  0  0  0  0  0  0
   -1.5792   -1.6128   -3.4606 C   0  0  0  0  0  0  0  0  0  0  0  0
   -2.0784   -2.4289   -2.4359 N   0  0  0  0  0  0  0  0  0  0  0  0
   -3.1306   -1.9986   -1.5855 C   0  0  0  0  0  0  0  0  0  0  0  0
   -3.6983   -0.7287   -1.7071 C   0  0  0  0  0  0  0  0  0  0  0  0
   -4.7225   -0.3066   -0.8870 C   0  0  0  0  0  0  0  0  0  0  0  0
   -5.2077   -1.1555    0.0853 C   0  0  0  0  0  0  0  0  0  0  0  0
   -6.2292   -0.8246    0.9524 O   0  0  0  0  0  0  0  0  0  0  0  0
   -6.9321    0.3709    1.0135 C   0  0  0  0  0  0  0  0  0  0  0  0
   -7.9534    0.2698    2.1130 C   0  0  0  0  0  0  0  0  0  0  0  0
   -9.2378   -0.1832    1.8384 C   0  0  0  0  0  0  0  0  0  0  0  0
  -10.2085   -0.2989    2.8051 C   0  0  0  0  0  0  0  0  0  0  0  0
   -9.9239    0.0425    4.1139 C   0  0  0  0  0  0  0  0  0  0  0  0
   -8.6550    0.4944    4.4069 C   0  0  0  0  0  0  0  0  0  0  0  0
   -7.6798    0.6074    3.4196 C   0  0  0  0  0  0  0  0  0  0  0  0
   -4.6335   -2.4048    0.1890 C   0  0  0  0  0  0  0  0  0  0  0  0
   -5.2352   -3.5161    1.4267 Cl  0  0  0  0  0  0  0  0  0  0  0  0
   -3.6224   -2.8605   -0.5989 C   0  0  0  0  0  0  0  0  0  0  0  0
   -0.5275   -0.7535   -3.2347 C   0  0  0  0  0  0  0  0  0  0  0  0
    0.0789   -0.6516   -1.9755 C   0  0  0  0  0  0  0  0  0  0  0  0
    1.1275    0.1980   -1.7339 C   0  0  0  0  0  0  0  0  0  0  0  0
    1.7998    0.3632   -0.5018 N   0  0  0  0  0  0  0  0  0  0  0  0
    1.5197   -0.2621    0.7105 C   0  0  0  0  0  0  0  0  0  0  0  0
    0.5771   -1.0825    0.8155 O   0  0  0  0  0  0  0  0  0  0  0  0
    2.2953   -0.0076    1.9244 C   0  0  0  0  0  0  0  0  0  0  0  0
    3.3130    0.8165    1.9831 C   0  0  0  0  0  0  0  0  0  0  0  0
    4.0285    0.9863    3.3070 C   0  0  0  0  0  0  0  0  0  0  0  0
    5.4045    0.6059    3.1877 N   0  0  0  0  0  0  0  0  0  0  0  0
    6.1266    1.5203    2.3543 C   0  0  0  0  0  0  0  0  0  0  0  0
    6.9659    0.8353    1.3018 C   0  0  0  0  0  0  0  0  0  0  0  0
    7.6811   -0.3055    1.7812 N   0  0  0  0  0  0  0  0  0  0  0  0
    8.9024    0.0016    2.4614 C   0  0  0  0  0  0  0  0  0  0  0  0
    6.8556   -1.2512    2.4680 C   0  0  0  0  0  0  0  0  0  0  0  0
    5.4442   -0.7185    2.5822 C   0  0  0  0  0  0  0  0  0  0  0  0
    5.0248    2.7789   -2.6458 H   0  0  0  0  0  0  0  0  0  0  0  0
    4.7716    4.0120   -3.9073 H   0  0  0  0  0  0  0  0  0  0  0  0
    3.8526    4.1682   -2.3478 H   0  0  0  0  0  0  0  0  0  0  0  0
    3.5695    1.9536   -4.4476 H   0  0  0  0  0  0  0  0  0  0  0  0
    2.3850    3.3281   -4.1397 H   0  0  0  0  0  0  0  0  0  0  0  0
    1.3213    1.4826   -4.9318 H   0  0  0  0  0  0  0  0  0  0  0  0
   -2.1252   -0.9740   -6.6941 H   0  0  0  0  0  0  0  0  0  0  0  0
   -1.6837   -3.3809   -2.2722 H   0  0  0  0  0  0  0  0  0  0  0  0
   -3.3034   -0.0621   -2.4849 H   0  0  0  0  0  0  0  0  0  0  0  0
   -5.1403    0.6878   -1.0099 H   0  0  0  0  0  0  0  0  0  0  0  0
   -7.4470    0.6585    0.0954 H   0  0  0  0  0  0  0  0  0  0  0  0
   -6.2342    1.1816    1.2885 H   0  0  0  0  0  0  0  0  0  0  0  0
   -9.4417   -0.4453    0.8081 H   0  0  0  0  0  0  0  0  0  0  0  0
  -11.2104   -0.6525    2.5916 H   0  0  0  0  0  0  0  0  0  0  0  0
  -10.6950   -0.0500    4.8803 H   0  0  0  0  0  0  0  0  0  0  0  0
   -8.4413    0.7586    5.4307 H   0  0  0  0  0  0  0  0  0  0  0  0
   -6.6951    0.9647    3.6821 H   0  0  0  0  0  0  0  0  0  0  0  0
   -3.1748   -3.8468   -0.5116 H   0  0  0  0  0  0  0  0  0  0  0  0
   -0.3285   -1.2798   -1.2193 H   0  0  0  0  0  0  0  0  0  0  0  0
    2.6186    1.0439   -0.4941 H   0  0  0  0  0  0  0  0  0  0  0  0
    2.0292   -0.5191    2.8370 H   0  0  0  0  0  0  0  0  0  0  0  0
    3.6525    1.3726    1.1207 H   0  0  0  0  0  0  0  0  0  0  0  0
    3.9910    2.0447    3.6323 H   0  0  0  0  0  0  0  0  0  0  0  0
    3.5368    0.3680    4.0784 H   0  0  0  0  0  0  0  0  0  0  0  0
    6.7769    2.1654    2.9819 H   0  0  0  0  0  0  0  0  0  0  0  0
    5.4150    2.1740    1.8285 H   0  0  0  0  0  0  0  0  0  0  0  0
    7.7032    1.5849    0.9348 H   0  0  0  0  0  0  0  0  0  0  0  0
    6.2855    0.5323    0.4789 H   0  0  0  0  0  0  0  0  0  0  0  0
    9.6597    0.4287    1.7916 H   0  0  0  0  0  0  0  0  0  0  0  0
    9.3200   -0.9792    2.8290 H   0  0  0  0  0  0  0  0  0  0  0  0
    8.7689    0.6668    3.3258 H   0  0  0  0  0  0  0  0  0  0  0  0
    6.7839   -2.1563    1.8052 H   0  0  0  0  0  0  0  0  0  0  0  0
    7.2697   -1.5845    3.4420 H   0  0  0  0  0  0  0  0  0  0  0  0
    4.8287   -1.4483    3.1440 H   0  0  0  0  0  0  0  0  0  0  0  0
    5.0376   -0.6730    1.5488 H   0  0  0  0  0  0  0  0  0  0  0  0
  1  2  1  0
  2  3  1  0
  3  4  1  0
  4  5  2  0
  5  6  1  0
  6  7  2  0
  7  8  1  0
  8  9  2  0
  9 10  1  0
 10 11  3  0
  9 12  1  0
 12 13  1  0
 13 14  1  0
 14 15  2  0
 15 16  1  0
 16 17  2  0
 17 18  1  0
 18 19  1  0
 19 20  1  0
 20 21  2  0
 21 22  1  0
 22 23  2  0
 23 24  1  0
 24 25  2  0
 17 26  1  0
 26 27  1  0
 26 28  2  0
 12 29  2  0
 29 30  1  0
 30 31  2  0
 31 32  1  0
 32 33  1  0
 33 34  2  0
 33 35  1  0
 35 36  2  0
 36 37  1  0
 37 38  1  0
 38 39  1  0
 39 40  1  0
 40 41  1  0
 41 42  1  0
 41 43  1  0
 43 44  1  0
 31  4  1  0
 44 38  1  0
 29  6  1  0
 28 14  1  0
 25 20  1  0
  1 45  1  0
  1 46  1  0
  1 47  1  0
  2 48  1  0
  2 49  1  0
  5 50  1  0
  8 51  1  0
 13 52  1  0
 15 53  1  0
 16 54  1  0
 19 55  1  0
 19 56  1  0
 21 57  1  0
 22 58  1  0
 23 59  1  0
 24 60  1  0
 25 61  1  0
 28 62  1  0
 30 63  1  0
 32 64  1  0
 35 65  1  0
 36 66  1  0
 37 67  1  0
 37 68  1  0
 39 69  1  0
 39 70  1  0
 40 71  1  0
 40 72  1  0
 42 73  1  0
 42 74  1  0
 42 75  1  0
 43 76  1  0
 43 77  1  0
 44 78  1  0
 44 79  1  0
M  END
$$$$
[H]/C(C(=O)N([H])c1c(OC([H])([H])C([H])([H])[H])c([H])c2nc([H])c(C#N)c(N([H])c3c([H])c([H])c(OC([H])([H])c4c([H])c([H])c([H])c([H])c4[H])c(Cl)c3[H])c2c1[H])=C(/[H])C([H])([H])N1C([H])([H])C([H])([H])C([H])([H])C1([H])[H]
     RDKit          3D

 74 78  0  0  0  0  0  0  0  0999 V2000
    3.5456   -4.3946    4.9797 C   0  0  0  0  0  0  0  0  0  0  0  0
    2.3949   -4.6447    4.0119 C   0  0  0  0  0  0  0  0  0  0  0  0
    2.4053   -3.6875    2.9752 O   0  0  0  0  0  0  0  0  0  0  0  0
    1.4203   -3.7596    2.0013 C   0  0  0  0  0  0  0  0  0  0  0  0
    0.4518   -4.7119    2.0061 C   0  0  0  0  0  0  0  0  0  0  0  0
   -0.5270   -4.7935    1.0503 C   0  0  0  0  0  0  0  0  0  0  0  0
   -1.4645   -5.7574    1.0988 N   0  0  0  0  0  0  0  0  0  0  0  0
   -2.4247   -5.8180    0.1380 C   0  0  0  0  0  0  0  0  0  0  0  0
   -2.4525   -4.9020   -0.8901 C   0  0  0  0  0  0  0  0  0  0  0  0
   -3.4433   -4.9293   -1.9286 C   0  0  0  0  0  0  0  0  0  0  0  0
   -4.2401   -4.9685   -2.7827 N   0  0  0  0  0  0  0  0  0  0  0  0
   -1.5035   -3.9120   -0.9538 C   0  0  0  0  0  0  0  0  0  0  0  0
   -1.5280   -2.9548   -2.0020 N   0  0  0  0  0  0  0  0  0  0  0  0
   -2.2650   -1.7387   -1.8982 C   0  0  0  0  0  0  0  0  0  0  0  0
   -2.9696   -1.4654   -0.7527 C   0  0  0  0  0  0  0  0  0  0  0  0
   -3.6795   -0.3063   -0.6505 C   0  0  0  0  0  0  0  0  0  0  0  0
   -3.7370    0.6500   -1.6685 C   0  0  0  0  0  0  0  0  0  0  0  0
   -4.4728    1.8266   -1.5330 O   0  0  0  0  0  0  0  0  0  0  0  0
   -5.1674    2.0045   -0.3018 C   0  0  0  0  0  0  0  0  0  0  0  0
   -5.9103    3.2671   -0.2306 C   0  0  0  0  0  0  0  0  0  0  0  0
   -5.3489    4.4208    0.2477 C   0  0  0  0  0  0  0  0  0  0  0  0
   -6.0866    5.5591    0.2902 C   0  0  0  0  0  0  0  0  0  0  0  0
   -7.4141    5.5716   -0.1476 C   0  0  0  0  0  0  0  0  0  0  0  0
   -7.9979    4.4234   -0.6318 C   0  0  0  0  0  0  0  0  0  0  0  0
   -7.2341    3.2723   -0.6690 C   0  0  0  0  0  0  0  0  0  0  0  0
   -3.0204    0.3499   -2.8066 C   0  0  0  0  0  0  0  0  0  0  0  0
   -3.0655    1.5222   -4.1112 Cl  0  0  0  0  0  0  0  0  0  0  0  0
   -2.2877   -0.8305   -2.9313 C   0  0  0  0  0  0  0  0  0  0  0  0
   -0.5332   -3.8648    0.0312 C   0  0  0  0  0  0  0  0  0  0  0  0
    0.4544   -2.8730    0.0034 C   0  0  0  0  0  0  0  0  0  0  0  0
    1.4300   -2.8035    0.9686 C   0  0  0  0  0  0  0  0  0  0  0  0
    2.4478   -1.8175    0.9673 N   0  0  0  0  0  0  0  0  0  0  0  0
    2.6349   -0.7505    0.0787 C   0  0  0  0  0  0  0  0  0  0  0  0
    1.9048   -0.5042   -0.8736 O   0  0  0  0  0  0  0  0  0  0  0  0
    3.7875    0.1395    0.3009 C   0  0  0  0  0  0  0  0  0  0  0  0
    4.0733    1.1710   -0.4554 C   0  0  0  0  0  0  0  0  0  0  0  0
    5.2437    2.0552   -0.2096 C   0  0  0  0  0  0  0  0  0  0  0  0
    4.8835    3.4279    0.0268 N   0  0  0  0  0  0  0  0  0  0  0  0
    6.0986    4.1734    0.2969 C   0  0  0  0  0  0  0  0  0  0  0  0
    6.9330    4.0636   -0.9598 C   0  0  0  0  0  0  0  0  0  0  0  0
    5.8525    4.1012   -2.0299 C   0  0  0  0  0  0  0  0  0  0  0  0
    4.5333    3.9910   -1.2863 C   0  0  0  0  0  0  0  0  0  0  0  0
    4.4927   -4.5563    4.4584 H   0  0  0  0  0  0  0  0  0  0  0  0
    3.5296   -3.3161    5.2722 H   0  0  0  0  0  0  0  0  0  0  0  0
    3.4441   -5.0607    5.8509 H   0  0  0  0  0  0  0  0  0  0  0  0
    1.4274   -4.6235    4.5379 H   0  0  0  0  0  0  0  0  0  0  0  0
    2.5521   -5.6696    3.6170 H   0  0  0  0  0  0  0  0  0  0  0  0
    0.4728   -5.4410    2.8240 H   0  0  0  0  0  0  0  0  0  0  0  0
   -3.1686   -6.5761    0.1707 H   0  0  0  0  0  0  0  0  0  0  0  0
   -0.9878   -3.1616   -2.8640 H   0  0  0  0  0  0  0  0  0  0  0  0
   -2.9551   -2.1706    0.0559 H   0  0  0  0  0  0  0  0  0  0  0  0
   -4.2441   -0.0726    0.2507 H   0  0  0  0  0  0  0  0  0  0  0  0
   -5.8550    1.1230   -0.1320 H   0  0  0  0  0  0  0  0  0  0  0  0
   -4.4727    1.9696    0.5600 H   0  0  0  0  0  0  0  0  0  0  0  0
   -4.3331    4.4206    0.5850 H   0  0  0  0  0  0  0  0  0  0  0  0
   -5.7013    6.5044    0.6573 H   0  0  0  0  0  0  0  0  0  0  0  0
   -8.0101    6.4740   -0.1168 H   0  0  0  0  0  0  0  0  0  0  0  0
   -9.0231    4.4110   -0.9756 H   0  0  0  0  0  0  0  0  0  0  0  0
   -7.7202    2.3876   -1.0543 H   0  0  0  0  0  0  0  0  0  0  0  0
   -1.7338   -1.0183   -3.8633 H   0  0  0  0  0  0  0  0  0  0  0  0
    0.3941   -2.1777   -0.8264 H   0  0  0  0  0  0  0  0  0  0  0  0
    3.1663   -1.9367    1.7782 H   0  0  0  0  0  0  0  0  0  0  0  0
    4.4630   -0.0398    1.1312 H   0  0  0  0  0  0  0  0  0  0  0  0
    3.4229    1.3700   -1.2836 H   0  0  0  0  0  0  0  0  0  0  0  0
    5.8879    1.6810    0.6042 H   0  0  0  0  0  0  0  0  0  0  0  0
    5.8559    1.9871   -1.1521 H   0  0  0  0  0  0  0  0  0  0  0  0
    6.6138    3.7125    1.1819 H   0  0  0  0  0  0  0  0  0  0  0  0
    5.8940    5.2514    0.4617 H   0  0  0  0  0  0  0  0  0  0  0  0
    7.5740    4.9757   -1.0133 H   0  0  0  0  0  0  0  0  0  0  0  0
    7.5147    3.1416   -0.9445 H   0  0  0  0  0  0  0  0  0  0  0  0
    5.9248    5.0667   -2.5736 H   0  0  0  0  0  0  0  0  0  0  0  0
    5.9549    3.2826   -2.7695 H   0  0  0  0  0  0  0  0  0  0  0  0
    3.8523    3.2780   -1.7842 H   0  0  0  0  0  0  0  0  0  0  0  0
    4.0458    4.9817   -1.1663 H   0  0  0  0  0  0  0  0  0  0  0  0
  1  2  1  0
  2  3  1  0
  3  4  1  0
  4  5  2  0
  5  6  1  0
  6  7  2  0
  7  8  1  0
  8  9  2  0
  9 10  1  0
 10 11  3  0
  9 12  1  0
 12 13  1  0
 13 14  1  0
 14 15  2  0
 15 16  1  0
 16 17  2  0
 17 18  1  0
 18 19  1  0
 19 20  1  0
 20 21  2  0
 21 22  1  0
 22 23  2  0
 23 24  1  0
 24 25  2  0
 17 26  1  0
 26 27  1  0
 26 28  2  0
 12 29  2  0
 29 30  1  0
 30 31  2  0
 31 32  1  0
 32 33  1  0
 33 34  2  0
 33 35  1  0
 35 36  2  0
 36 37  1  0
 37 38  1  0
 38 39  1  0
 39 40  1  0
 40 41  1  0
 41 42  1  0
 31  4  1  0
 42 38  1  0
 29  6  1  0
 28 14  1  0
 25 20  1  0
  1 43  1  0
  1 44  1  0
  1 45  1  0
  2 46  1  0
  2 47  1  0
  5 48  1  0
  8 49  1  0
 13 50  1  0
 15 51  1  0
 16 52  1  0
 19 53  1  0
 19 54  1  0
 21 55  1  0
 22 56  1  0
 23 57  1  0
 24 58  1  0
 25 59  1  0
 28 60  1  0
 30 61  1  0
 32 62  1  0
 35 63  1  0
 36 64  1  0
 37 65  1  0
 37 66  1  0
 39 67  1  0
 39 68  1  0
 40 69  1  0
 40 70  1  0
 41 71  1  0
 41 72  1  0
 42 73  1  0
 42 74  1  0
M  END
$$$$
[H]c1nc(N([H])c2c([H])c([H])c(OC([H])([H])c3nc([H])c([H])c([H])c3[H])c(Cl)c2[H])c2c(O[C@@]([H])(C(=O)N(C([H])([H])[H])C([H])([H])[H])C([H])([H])[H])c([H])c([H])c([H])c2n1
     RDKit          3D

 58 61  0  0  0  0  0  0  0  0999 V2000
   -4.4693    0.5617   -0.0728 C   0  0  0  0  0  0  0  0  0  0  0  0
   -4.0827   -0.7057    0.7035 C   0  0  1  0  0  0  0  0  0  0  0  0
   -2.9799   -1.3208    0.1511 O   0  0  0  0  0  0  0  0  0  0  0  0
   -2.9001   -2.5941   -0.3421 C   0  0  0  0  0  0  0  0  0  0  0  0
   -4.0173   -3.4370   -0.3136 C   0  0  0  0  0  0  0  0  0  0  0  0
   -3.9394   -4.7180   -0.8129 C   0  0  0  0  0  0  0  0  0  0  0  0
   -2.7760   -5.2015   -1.3479 C   0  0  0  0  0  0  0  0  0  0  0  0
   -1.6498   -4.4083   -1.3975 C   0  0  0  0  0  0  0  0  0  0  0  0
   -0.5094   -4.8824   -1.9342 N   0  0  0  0  0  0  0  0  0  0  0  0
    0.5956   -4.1315   -2.0049 C   0  0  0  0  0  0  0  0  0  0  0  0
    0.5272   -2.9079   -1.5279 N   0  0  0  0  0  0  0  0  0  0  0  0
   -0.5967   -2.3527   -0.9654 C   0  0  0  0  0  0  0  0  0  0  0  0
   -0.5041   -1.0597   -0.4235 N   0  0  0  0  0  0  0  0  0  0  0  0
    0.7435   -0.3360   -0.6583 C   0  0  0  0  0  0  0  0  0  0  0  0
    1.2927    0.4145    0.3811 C   0  0  0  0  0  0  0  0  0  0  0  0
    2.4449    1.1443    0.2002 C   0  0  0  0  0  0  0  0  0  0  0  0
    3.0877    1.1538   -1.0123 C   0  0  0  0  0  0  0  0  0  0  0  0
    4.2611    1.8871   -1.2223 O   0  0  0  0  0  0  0  0  0  0  0  0
    4.8423    2.6549   -0.1935 C   0  0  0  0  0  0  0  0  0  0  0  0
    6.0638    3.2972   -0.7516 C   0  0  0  0  0  0  0  0  0  0  0  0
    7.2724    2.5994   -0.6548 C   0  0  0  0  0  0  0  0  0  0  0  0
    8.4475    3.1200   -1.1444 C   0  0  0  0  0  0  0  0  0  0  0  0
    8.3699    4.3748   -1.7396 C   0  0  0  0  0  0  0  0  0  0  0  0
    7.1838    5.0506   -1.8303 C   0  0  0  0  0  0  0  0  0  0  0  0
    6.0532    4.5065   -1.3382 N   0  0  0  0  0  0  0  0  0  0  0  0
    2.5696    0.4275   -2.0459 C   0  0  0  0  0  0  0  0  0  0  0  0
    3.3614    0.4089   -3.6241 Cl  0  0  0  0  0  0  0  0  0  0  0  0
    1.3969   -0.3107   -1.8515 C   0  0  0  0  0  0  0  0  0  0  0  0
   -1.7283   -3.1115   -0.8913 C   0  0  0  0  0  0  0  0  0  0  0  0
   -3.8355   -0.2439    2.1095 C   0  0  0  0  0  0  0  0  0  0  0  0
   -2.7021   -0.4552    2.5834 O   0  0  0  0  0  0  0  0  0  0  0  0
   -4.8124    0.3991    2.8837 N   0  0  0  0  0  0  0  0  0  0  0  0
   -6.1556    0.6839    2.4197 C   0  0  0  0  0  0  0  0  0  0  0  0
   -4.4909    0.8160    4.2320 C   0  0  0  0  0  0  0  0  0  0  0  0
   -5.5476    0.6052   -0.2675 H   0  0  0  0  0  0  0  0  0  0  0  0
   -4.1689    1.4800    0.4662 H   0  0  0  0  0  0  0  0  0  0  0  0
   -3.9062    0.5641   -1.0299 H   0  0  0  0  0  0  0  0  0  0  0  0
   -4.9640   -1.3473    0.7125 H   0  0  0  0  0  0  0  0  0  0  0  0
   -4.9308   -3.0580    0.1071 H   0  0  0  0  0  0  0  0  0  0  0  0
   -4.8469   -5.3163   -0.7575 H   0  0  0  0  0  0  0  0  0  0  0  0
   -2.7218   -6.2182   -1.7422 H   0  0  0  0  0  0  0  0  0  0  0  0
    1.5233   -4.5441   -2.4522 H   0  0  0  0  0  0  0  0  0  0  0  0
   -1.1492   -0.5083    0.1364 H   0  0  0  0  0  0  0  0  0  0  0  0
    0.7962    0.4103    1.3263 H   0  0  0  0  0  0  0  0  0  0  0  0
    2.8968    1.7413    0.9983 H   0  0  0  0  0  0  0  0  0  0  0  0
    4.1439    3.4645    0.1286 H   0  0  0  0  0  0  0  0  0  0  0  0
    5.1120    2.0641    0.6948 H   0  0  0  0  0  0  0  0  0  0  0  0
    7.2573    1.6176   -0.1738 H   0  0  0  0  0  0  0  0  0  0  0  0
    9.3859    2.5994   -1.0795 H   0  0  0  0  0  0  0  0  0  0  0  0
    9.2910    4.7886   -2.1261 H   0  0  0  0  0  0  0  0  0  0  0  0
    7.1830    6.0236   -2.3037 H   0  0  0  0  0  0  0  0  0  0  0  0
    1.0017   -0.8557   -2.7101 H   0  0  0  0  0  0  0  0  0  0  0  0
   -6.5694   -0.1136    1.7773 H   0  0  0  0  0  0  0  0  0  0  0  0
   -6.1394    1.6187    1.8244 H   0  0  0  0  0  0  0  0  0  0  0  0
   -6.8555    0.8629    3.2613 H   0  0  0  0  0  0  0  0  0  0  0  0
   -5.1901    1.5885    4.6138 H   0  0  0  0  0  0  0  0  0  0  0  0
   -4.4996   -0.0469    4.9436 H   0  0  0  0  0  0  0  0  0  0  0  0
   -3.4659    1.2564    4.3015 H   0  0  0  0  0  0  0  0  0  0  0  0
  1  2  1  0
  2  3  1  0
  3  4  1  0
  4  5  2  0
  5  6  1  0
  6  7  2  0
  7  8  1  0
  8  9  2  0
  9 10  1  0
 10 11  2  0
 11 12  1  0
 12 13  1  0
 13 14  1  0
 14 15  2  0
 15 16  1  0
 16 17  2  0
 17 18  1  0
 18 19  1  0
 19 20  1  0
 20 21  2  0
 21 22  1  0
 22 23  2  0
 23 24  1  0
 24 25  2  0
 17 26  1  0
 26 27  1  0
 26 28  2  0
 12 29  2  0
  2 30  1  0
 30 31  2  0
 30 32  1  0
 32 33  1  0
 32 34  1  0
 29  4  1  0
 29  8  1  0
 28 14  1  0
 25 20  1  0
  1 35  1  0
  1 36  1  0
  1 37  1  0
  2 38  1  1
  5 39  1  0
  6 40  1  0
  7 41  1  0
 10 42  1  0
 13 43  1  0
 15 44  1  0
 16 45  1  0
 19 46  1  0
 19 47  1  0
 21 48  1  0
 22 49  1  0
 23 50  1  0
 24 51  1  0
 28 52  1  0
 33 53  1  0
 33 54  1  0
 33 55  1  0
 34 56  1  0
 34 57  1  0
 34 58  1  0
M  END
$$$$
[H]c1nc(N([H])c2c([H])c([H])c3c(c([H])nn3C([H])([H])c3c([H])c([H])c([H])c(F)c3[H])c2[H])c2c(O[C@@]([H])(C(=O)N(C([H])([H])[H])C([H])([H])[H])C([H])([H])[H])c([H])c([H])c([H])c2n1
     RDKit          3D

 61 65  0  0  0  0  0  0  0  0999 V2000
   -4.9508    0.7809    1.4765 C   0  0  0  0  0  0  0  0  0  0  0  0
   -4.1598    0.8203    0.1970 C   0  0  1  0  0  0  0  0  0  0  0  0
   -3.0897   -0.0824    0.2584 O   0  0  0  0  0  0  0  0  0  0  0  0
   -3.1083   -1.4267    0.4120 C   0  0  0  0  0  0  0  0  0  0  0  0
   -4.3270   -2.1094    0.5088 C   0  0  0  0  0  0  0  0  0  0  0  0
   -4.4032   -3.4807    0.6715 C   0  0  0  0  0  0  0  0  0  0  0  0
   -3.2468   -4.2181    0.7431 C   0  0  0  0  0  0  0  0  0  0  0  0
   -2.0364   -3.5731    0.6505 C   0  0  0  0  0  0  0  0  0  0  0  0
   -0.9150   -4.3037    0.7364 N   0  0  0  0  0  0  0  0  0  0  0  0
    0.3082   -3.7369    0.6672 C   0  0  0  0  0  0  0  0  0  0  0  0
    0.3557   -2.4424    0.5114 N   0  0  0  0  0  0  0  0  0  0  0  0
   -0.7097   -1.5898    0.4099 C   0  0  0  0  0  0  0  0  0  0  0  0
   -0.4823   -0.2282    0.1574 N   0  0  0  0  0  0  0  0  0  0  0  0
    0.8431    0.2899    0.2012 C   0  0  0  0  0  0  0  0  0  0  0  0
    1.8227   -0.1138    1.0620 C   0  0  0  0  0  0  0  0  0  0  0  0
    3.1047    0.4026    1.0400 C   0  0  0  0  0  0  0  0  0  0  0  0
    3.4197    1.3663    0.1162 C   0  0  0  0  0  0  0  0  0  0  0  0
    4.5723    2.0246   -0.1130 N   0  0  0  0  0  0  0  0  0  0  0  0
    5.7873    1.8146    0.6235 C   0  0  0  0  0  0  0  0  0  0  0  0
    6.6894    0.8083    0.0711 C   0  0  0  0  0  0  0  0  0  0  0  0
    7.6098    1.1741   -0.8859 C   0  0  0  0  0  0  0  0  0  0  0  0
    8.4843    0.2397   -1.4279 C   0  0  0  0  0  0  0  0  0  0  0  0
    8.4585   -1.0691   -1.0290 C   0  0  0  0  0  0  0  0  0  0  0  0
    7.5444   -1.4485   -0.0738 C   0  0  0  0  0  0  0  0  0  0  0  0
    7.5291   -2.7477    0.3127 F   0  0  0  0  0  0  0  0  0  0  0  0
    6.6661   -0.5069    0.4697 C   0  0  0  0  0  0  0  0  0  0  0  0
    4.3445    2.8609   -1.1246 N   0  0  0  0  0  0  0  0  0  0  0  0
    3.0756    2.7594   -1.5543 C   0  0  0  0  0  0  0  0  0  0  0  0
    2.4674    1.8047   -0.7692 C   0  0  0  0  0  0  0  0  0  0  0  0
    1.2013    1.2748   -0.7265 C   0  0  0  0  0  0  0  0  0  0  0  0
   -1.9660   -2.1964    0.4863 C   0  0  0  0  0  0  0  0  0  0  0  0
   -4.9533    0.7444   -1.0233 C   0  0  0  0  0  0  0  0  0  0  0  0
   -4.6407   -0.0863   -1.9129 O   0  0  0  0  0  0  0  0  0  0  0  0
   -6.0778    1.5746   -1.2598 N   0  0  0  0  0  0  0  0  0  0  0  0
   -6.8471    1.4555   -2.5050 C   0  0  0  0  0  0  0  0  0  0  0  0
   -6.5530    2.5804   -0.3338 C   0  0  0  0  0  0  0  0  0  0  0  0
   -4.8993    1.7182    2.0718 H   0  0  0  0  0  0  0  0  0  0  0  0
   -4.5135    0.0016    2.1292 H   0  0  0  0  0  0  0  0  0  0  0  0
   -6.0177    0.5171    1.3241 H   0  0  0  0  0  0  0  0  0  0  0  0
   -3.6615    1.8476    0.2128 H   0  0  0  0  0  0  0  0  0  0  0  0
   -5.2744   -1.5871    0.4552 H   0  0  0  0  0  0  0  0  0  0  0  0
   -5.3422   -4.0069    0.7460 H   0  0  0  0  0  0  0  0  0  0  0  0
   -3.2465   -5.3000    0.8710 H   0  0  0  0  0  0  0  0  0  0  0  0
    1.1919   -4.3551    0.7409 H   0  0  0  0  0  0  0  0  0  0  0  0
   -1.1878    0.4506   -0.0828 H   0  0  0  0  0  0  0  0  0  0  0  0
    1.6202   -0.8526    1.8254 H   0  0  0  0  0  0  0  0  0  0  0  0
    3.8356    0.0440    1.7477 H   0  0  0  0  0  0  0  0  0  0  0  0
    6.3331    2.7753    0.7412 H   0  0  0  0  0  0  0  0  0  0  0  0
    5.5057    1.5185    1.6731 H   0  0  0  0  0  0  0  0  0  0  0  0
    7.6608    2.2047   -1.2285 H   0  0  0  0  0  0  0  0  0  0  0  0
    9.2000    0.5259   -2.1726 H   0  0  0  0  0  0  0  0  0  0  0  0
    9.1323   -1.8201   -1.4376 H   0  0  0  0  0  0  0  0  0  0  0  0
    5.9723   -0.8654    1.2183 H   0  0  0  0  0  0  0  0  0  0  0  0
    2.6403    3.3379   -2.3725 H   0  0  0  0  0  0  0  0  0  0  0  0
    0.4632    1.6448   -1.4460 H   0  0  0  0  0  0  0  0  0  0  0  0
   -7.3927    2.3686   -2.7364 H   0  0  0  0  0  0  0  0  0  0  0  0
   -6.1212    1.1693   -3.2930 H   0  0  0  0  0  0  0  0  0  0  0  0
   -7.5548    0.6097   -2.3353 H   0  0  0  0  0  0  0  0  0  0  0  0
   -7.0165    3.4344   -0.9118 H   0  0  0  0  0  0  0  0  0  0  0  0
   -5.7543    3.0367    0.2687 H   0  0  0  0  0  0  0  0  0  0  0  0
   -7.3902    2.1661    0.2601 H   0  0  0  0  0  0  0  0  0  0  0  0
  1  2  1  0
  2  3  1  0
  3  4  1  0
  4  5  2  0
  5  6  1  0
  6  7  2  0
  7  8  1  0
  8  9  2  0
  9 10  1  0
 10 11  2  0
 11 12  1  0
 12 13  1  0
 13 14  1  0
 14 15  2  0
 15 16  1  0
 16 17  2  0
 17 18  1  0
 18 19  1  0
 19 20  1  0
 20 21  2  0
 21 22  1  0
 22 23  2  0
 23 24  1  0
 24 25  1  0
 24 26  2  0
 18 27  1  0
 27 28  2  0
 28 29  1  0
 29 30  2  0
 12 31  2  0
  2 32  1  0
 32 33  2  0
 32 34  1  0
 34 35  1  0
 34 36  1  0
 31  4  1  0
 31  8  1  0
 30 14  1  0
 29 17  1  0
 26 20  1  0
  1 37  1  0
  1 38  1  0
  1 39  1  0
  2 40  1  6
  5 41  1  0
  6 42  1  0
  7 43  1  0
 10 44  1  0
 13 45  1  0
 15 46  1  0
 16 47  1  0
 19 48  1  0
 19 49  1  0
 21 50  1  0
 22 51  1  0
 23 52  1  0
 26 53  1  0
 28 54  1  0
 30 55  1  0
 35 56  1  0
 35 57  1  0
 35 58  1  0
 36 59  1  0
 36 60  1  0
 36 61  1  0
M  END
$$$$
[H]/C(C(=O)N([H])c1c(OC([H])([H])C([H])([H])[H])c([H])c2nc([H])c(C#N)c(N([H])c3c([H])c([H])c(OC([H])([H])c4c([H])c([H])c([H])c([H])c4[H])c(Cl)c3[H])c2c1[H])=C(/[H])C([H])([H])N1C([H])([H])C([H])([H])OC([H])([H])C1([H])[H]
     RDKit          3D

 75 79  0  0  0  0  0  0  0  0999 V2000
   -3.9955   -5.5221   -2.4468 C   0  0  0  0  0  0  0  0  0  0  0  0
   -3.8080   -4.7251   -1.2000 C   0  0  0  0  0  0  0  0  0  0  0  0
   -3.1365   -3.5212   -1.3378 O   0  0  0  0  0  0  0  0  0  0  0  0
   -1.8596   -3.3021   -1.7881 C   0  0  0  0  0  0  0  0  0  0  0  0
   -1.0074   -4.2992   -2.1912 C   0  0  0  0  0  0  0  0  0  0  0  0
    0.2674   -4.0989   -2.6417 C   0  0  0  0  0  0  0  0  0  0  0  0
    1.0920   -5.1040   -3.0375 N   0  0  0  0  0  0  0  0  0  0  0  0
    2.3443   -4.8504   -3.4771 C   0  0  0  0  0  0  0  0  0  0  0  0
    2.8509   -3.5670   -3.5480 C   0  0  0  0  0  0  0  0  0  0  0  0
    4.1770   -3.2680   -4.0110 C   0  0  0  0  0  0  0  0  0  0  0  0
    5.2379   -3.0165   -4.3962 N   0  0  0  0  0  0  0  0  0  0  0  0
    1.9958   -2.5464   -3.1399 C   0  0  0  0  0  0  0  0  0  0  0  0
    2.4316   -1.2179   -3.1953 N   0  0  0  0  0  0  0  0  0  0  0  0
    3.1075   -0.6239   -2.0937 C   0  0  0  0  0  0  0  0  0  0  0  0
    3.4888    0.7209   -2.1354 C   0  0  0  0  0  0  0  0  0  0  0  0
    4.1498    1.3288   -1.0948 C   0  0  0  0  0  0  0  0  0  0  0  0
    4.4646    0.6122    0.0502 C   0  0  0  0  0  0  0  0  0  0  0  0
    5.1345    1.2396    1.0967 O   0  0  0  0  0  0  0  0  0  0  0  0
    5.4687    2.5948    0.9569 C   0  0  0  0  0  0  0  0  0  0  0  0
    6.1743    3.1784    2.1000 C   0  0  0  0  0  0  0  0  0  0  0  0
    5.4930    3.6374    3.2068 C   0  0  0  0  0  0  0  0  0  0  0  0
    6.1308    4.1917    4.2848 C   0  0  0  0  0  0  0  0  0  0  0  0
    7.4984    4.2980    4.2694 C   0  0  0  0  0  0  0  0  0  0  0  0
    8.2048    3.8477    3.1751 C   0  0  0  0  0  0  0  0  0  0  0  0
    7.5480    3.2914    2.0982 C   0  0  0  0  0  0  0  0  0  0  0  0
    4.0943   -0.7145    0.1048 C   0  0  0  0  0  0  0  0  0  0  0  0
    4.4897   -1.6197    1.5466 Cl  0  0  0  0  0  0  0  0  0  0  0  0
    3.4263   -1.3204   -0.9527 C   0  0  0  0  0  0  0  0  0  0  0  0
    0.7112   -2.7955   -2.6875 C   0  0  0  0  0  0  0  0  0  0  0  0
   -0.1234   -1.7420   -2.2858 C   0  0  0  0  0  0  0  0  0  0  0  0
   -1.3978   -1.9752   -1.8381 C   0  0  0  0  0  0  0  0  0  0  0  0
   -2.3214   -0.9808   -1.4370 N   0  0  0  0  0  0  0  0  0  0  0  0
   -1.9948    0.3823   -1.2820 C   0  0  0  0  0  0  0  0  0  0  0  0
   -0.8516    0.8768   -1.4701 O   0  0  0  0  0  0  0  0  0  0  0  0
   -3.0085    1.3590   -0.8749 C   0  0  0  0  0  0  0  0  0  0  0  0
   -4.2738    1.0890   -0.6357 C   0  0  0  0  0  0  0  0  0  0  0  0
   -5.2175    2.1906   -0.2209 C   0  0  0  0  0  0  0  0  0  0  0  0
   -5.7592    1.8486    1.0537 N   0  0  0  0  0  0  0  0  0  0  0  0
   -4.8722    1.8506    2.1500 C   0  0  0  0  0  0  0  0  0  0  0  0
   -5.1988    2.7293    3.3020 C   0  0  0  0  0  0  0  0  0  0  0  0
   -6.4350    3.3583    3.1852 O   0  0  0  0  0  0  0  0  0  0  0  0
   -7.4052    2.4875    2.6944 C   0  0  0  0  0  0  0  0  0  0  0  0
   -7.1139    2.1913    1.2643 C   0  0  0  0  0  0  0  0  0  0  0  0
   -3.4437   -5.1442   -3.3212 H   0  0  0  0  0  0  0  0  0  0  0  0
   -3.7410   -6.5866   -2.2045 H   0  0  0  0  0  0  0  0  0  0  0  0
   -5.0807   -5.5678   -2.7624 H   0  0  0  0  0  0  0  0  0  0  0  0
   -3.3473   -5.3184   -0.3745 H   0  0  0  0  0  0  0  0  0  0  0  0
   -4.8392   -4.4765   -0.8048 H   0  0  0  0  0  0  0  0  0  0  0  0
   -1.3575   -5.3220   -2.1548 H   0  0  0  0  0  0  0  0  0  0  0  0
    2.9703   -5.6828   -3.7837 H   0  0  0  0  0  0  0  0  0  0  0  0
    2.2402   -0.6785   -4.0781 H   0  0  0  0  0  0  0  0  0  0  0  0
    3.2474    1.2736   -3.0143 H   0  0  0  0  0  0  0  0  0  0  0  0
    4.4147    2.3718   -1.1935 H   0  0  0  0  0  0  0  0  0  0  0  0
    4.4877    3.1432    0.8568 H   0  0  0  0  0  0  0  0  0  0  0  0
    6.0351    2.8132    0.0288 H   0  0  0  0  0  0  0  0  0  0  0  0
    4.4047    3.5721    3.2649 H   0  0  0  0  0  0  0  0  0  0  0  0
    5.6028    4.5508    5.1475 H   0  0  0  0  0  0  0  0  0  0  0  0
    8.0377    4.7400    5.1233 H   0  0  0  0  0  0  0  0  0  0  0  0
    9.3027    3.9384    3.1745 H   0  0  0  0  0  0  0  0  0  0  0  0
    8.1449    2.9408    1.2412 H   0  0  0  0  0  0  0  0  0  0  0  0
    3.1641   -2.3567   -0.8496 H   0  0  0  0  0  0  0  0  0  0  0  0
    0.3085   -0.7697   -2.3670 H   0  0  0  0  0  0  0  0  0  0  0  0
   -3.3307   -1.2468   -1.2383 H   0  0  0  0  0  0  0  0  0  0  0  0
   -2.7136    2.3870   -0.7559 H   0  0  0  0  0  0  0  0  0  0  0  0
   -4.6557    0.0887   -0.7315 H   0  0  0  0  0  0  0  0  0  0  0  0
   -6.0479    2.3222   -0.9377 H   0  0  0  0  0  0  0  0  0  0  0  0
   -4.6184    3.1201   -0.0818 H   0  0  0  0  0  0  0  0  0  0  0  0
   -3.8620    2.1958    1.7683 H   0  0  0  0  0  0  0  0  0  0  0  0
   -4.6814    0.7994    2.4578 H   0  0  0  0  0  0  0  0  0  0  0  0
   -4.4475    3.4783    3.5422 H   0  0  0  0  0  0  0  0  0  0  0  0
   -5.3055    2.0582    4.2068 H   0  0  0  0  0  0  0  0  0  0  0  0
   -8.3822    3.0410    2.7411 H   0  0  0  0  0  0  0  0  0  0  0  0
   -7.4951    1.5560    3.2623 H   0  0  0  0  0  0  0  0  0  0  0  0
   -7.7239    1.2753    0.9973 H   0  0  0  0  0  0  0  0  0  0  0  0
   -7.4894    2.9907    0.5859 H   0  0  0  0  0  0  0  0  0  0  0  0
  1  2  1  0
  2  3  1  0
  3  4  1  0
  4  5  2  0
  5  6  1  0
  6  7  2  0
  7  8  1  0
  8  9  2  0
  9 10  1  0
 10 11  3  0
  9 12  1  0
 12 13  1  0
 13 14  1  0
 14 15  2  0
 15 16  1  0
 16 17  2  0
 17 18  1  0
 18 19  1  0
 19 20  1  0
 20 21  2  0
 21 22  1  0
 22 23  2  0
 23 24  1  0
 24 25  2  0
 17 26  1  0
 26 27  1  0
 26 28  2  0
 12 29  2  0
 29 30  1  0
 30 31  2  0
 31 32  1  0
 32 33  1  0
 33 34  2  0
 33 35  1  0
 35 36  2  0
 36 37  1  0
 37 38  1  0
 38 39  1  0
 39 40  1  0
 40 41  1  0
 41 42  1  0
 42 43  1  0
 31  4  1  0
 43 38  1  0
 29  6  1  0
 28 14  1  0
 25 20  1  0
  1 44  1  0
  1 45  1  0
  1 46  1  0
  2 47  1  0
  2 48  1  0
  5 49  1  0
  8 50  1  0
 13 51  1  0
 15 52  1  0
 16 53  1  0
 19 54  1  0
 19 55  1  0
 21 56  1  0
 22 57  1  0
 23 58  1  0
 24 59  1  0
 25 60  1  0
 28 61  1  0
 30 62  1  0
 32 63  1  0
 35 64  1  0
 36 65  1  0
 37 66  1  0
 37 67  1  0
 39 68  1  0
 39 69  1  0
 40 70  1  0
 40 71  1  0
 42 72  1  0
 42 73  1  0
 43 74  1  0
 43 75  1  0
M  END
$$$$
[H]/C(C(=O)N([H])c1c(OC([H])([H])C([H])([H])[H])c([H])c2nc([H])c(C#N)c(N([H])c3c([H])c([H])c(OC([H])([H])c4nc([H])c([H])c([H])c4[H])c(Cl)c3[H])c2c1[H])=C(/[H])C([H])([H])N1C([H])([H])C([H])([H])C([H])([H])C1([H])[H]
     RDKit          3D

 73 77  0  0  0  0  0  0  0  0999 V2000
   -3.3097   -4.9126   -4.0128 C   0  0  0  0  0  0  0  0  0  0  0  0
   -3.0506   -3.4415   -4.1081 C   0  0  0  0  0  0  0  0  0  0  0  0
   -2.7142   -2.8175   -2.8991 O   0  0  0  0  0  0  0  0  0  0  0  0
   -1.6222   -3.0956   -2.1061 C   0  0  0  0  0  0  0  0  0  0  0  0
   -0.6831   -4.0474   -2.4078 C   0  0  0  0  0  0  0  0  0  0  0  0
    0.4192   -4.3223   -1.6002 C   0  0  0  0  0  0  0  0  0  0  0  0
    1.3289   -5.2605   -1.9128 N   0  0  0  0  0  0  0  0  0  0  0  0
    2.3956   -5.5153   -1.1145 C   0  0  0  0  0  0  0  0  0  0  0  0
    2.5954   -4.8197    0.0593 C   0  0  0  0  0  0  0  0  0  0  0  0
    3.7004   -5.0426    0.9427 C   0  0  0  0  0  0  0  0  0  0  0  0
    4.6037   -5.2250    1.6393 N   0  0  0  0  0  0  0  0  0  0  0  0
    1.6660   -3.8459    0.3997 C   0  0  0  0  0  0  0  0  0  0  0  0
    1.8279   -3.1117    1.5859 N   0  0  0  0  0  0  0  0  0  0  0  0
    2.5771   -1.8953    1.5751 C   0  0  0  0  0  0  0  0  0  0  0  0
    3.1625   -1.4614    0.3954 C   0  0  0  0  0  0  0  0  0  0  0  0
    3.8936   -0.2991    0.3216 C   0  0  0  0  0  0  0  0  0  0  0  0
    4.0503    0.4611    1.4585 C   0  0  0  0  0  0  0  0  0  0  0  0
    4.7914    1.6302    1.3627 O   0  0  0  0  0  0  0  0  0  0  0  0
    5.3808    2.0571    0.1564 C   0  0  0  0  0  0  0  0  0  0  0  0
    6.1151    3.3251    0.3029 C   0  0  0  0  0  0  0  0  0  0  0  0
    7.4573    3.3285    0.6636 C   0  0  0  0  0  0  0  0  0  0  0  0
    8.1276    4.5284    0.7947 C   0  0  0  0  0  0  0  0  0  0  0  0
    7.4023    5.6900    0.5522 C   0  0  0  0  0  0  0  0  0  0  0  0
    6.0687    5.6692    0.1946 C   0  0  0  0  0  0  0  0  0  0  0  0
    5.4449    4.4800    0.0755 N   0  0  0  0  0  0  0  0  0  0  0  0
    3.4773    0.0542    2.6527 C   0  0  0  0  0  0  0  0  0  0  0  0
    3.6576    0.9908    4.0995 Cl  0  0  0  0  0  0  0  0  0  0  0  0
    2.7536   -1.1133    2.6879 C   0  0  0  0  0  0  0  0  0  0  0  0
    0.5946   -3.6151   -0.4367 C   0  0  0  0  0  0  0  0  0  0  0  0
   -0.3527   -2.6405   -0.1129 C   0  0  0  0  0  0  0  0  0  0  0  0
   -1.4423   -2.3685   -0.9105 C   0  0  0  0  0  0  0  0  0  0  0  0
   -2.4013   -1.3978   -0.6073 N   0  0  0  0  0  0  0  0  0  0  0  0
   -2.4842   -0.5477    0.4988 C   0  0  0  0  0  0  0  0  0  0  0  0
   -1.6103   -0.5951    1.4037 O   0  0  0  0  0  0  0  0  0  0  0  0
   -3.5713    0.4391    0.6806 C   0  0  0  0  0  0  0  0  0  0  0  0
   -4.5488    0.6338   -0.1338 C   0  0  0  0  0  0  0  0  0  0  0  0
   -5.6605    1.5997   -0.0109 C   0  0  0  0  0  0  0  0  0  0  0  0
   -5.6444    2.4383    1.1359 N   0  0  0  0  0  0  0  0  0  0  0  0
   -6.8668    3.2317    1.1027 C   0  0  0  0  0  0  0  0  0  0  0  0
   -6.4966    4.6551    1.3550 C   0  0  0  0  0  0  0  0  0  0  0  0
   -5.1019    4.7501    0.8070 C   0  0  0  0  0  0  0  0  0  0  0  0
   -4.5535    3.3904    1.0395 C   0  0  0  0  0  0  0  0  0  0  0  0
   -2.6084   -5.5163   -4.6243 H   0  0  0  0  0  0  0  0  0  0  0  0
   -3.1963   -5.2842   -2.9664 H   0  0  0  0  0  0  0  0  0  0  0  0
   -4.3327   -5.1802   -4.3949 H   0  0  0  0  0  0  0  0  0  0  0  0
   -2.1389   -3.3233   -4.7678 H   0  0  0  0  0  0  0  0  0  0  0  0
   -3.8549   -2.9027   -4.6518 H   0  0  0  0  0  0  0  0  0  0  0  0
   -0.7971   -4.6187   -3.3298 H   0  0  0  0  0  0  0  0  0  0  0  0
    3.1281   -6.2787   -1.3770 H   0  0  0  0  0  0  0  0  0  0  0  0
    1.3865   -3.4893    2.4485 H   0  0  0  0  0  0  0  0  0  0  0  0
    3.0478   -2.0527   -0.5163 H   0  0  0  0  0  0  0  0  0  0  0  0
    4.3480    0.0394   -0.5893 H   0  0  0  0  0  0  0  0  0  0  0  0
    4.5779    2.1706   -0.6115 H   0  0  0  0  0  0  0  0  0  0  0  0
    6.0702    1.2823   -0.2672 H   0  0  0  0  0  0  0  0  0  0  0  0
    7.9991    2.4042    0.8469 H   0  0  0  0  0  0  0  0  0  0  0  0
    9.1707    4.5986    1.0722 H   0  0  0  0  0  0  0  0  0  0  0  0
    7.9483    6.6400    0.6601 H   0  0  0  0  0  0  0  0  0  0  0  0
    5.5298    6.5979    0.0118 H   0  0  0  0  0  0  0  0  0  0  0  0
    2.3174   -1.4097    3.6268 H   0  0  0  0  0  0  0  0  0  0  0  0
   -0.1467   -2.1327    0.8064 H   0  0  0  0  0  0  0  0  0  0  0  0
   -3.2067   -1.2662   -1.3170 H   0  0  0  0  0  0  0  0  0  0  0  0
   -3.5544    1.0538    1.5862 H   0  0  0  0  0  0  0  0  0  0  0  0
   -4.6018    0.0267   -1.0485 H   0  0  0  0  0  0  0  0  0  0  0  0
   -5.7018    2.1850   -0.9590 H   0  0  0  0  0  0  0  0  0  0  0  0
   -6.6067    0.9868   -0.0111 H   0  0  0  0  0  0  0  0  0  0  0  0
   -7.3586    3.1858    0.1045 H   0  0  0  0  0  0  0  0  0  0  0  0
   -7.5753    2.9112    1.9110 H   0  0  0  0  0  0  0  0  0  0  0  0
   -7.1311    5.3519    0.7319 H   0  0  0  0  0  0  0  0  0  0  0  0
   -6.6096    4.9852    2.3884 H   0  0  0  0  0  0  0  0  0  0  0  0
   -4.5257    5.5598    1.3004 H   0  0  0  0  0  0  0  0  0  0  0  0
   -5.1306    4.9797   -0.2892 H   0  0  0  0  0  0  0  0  0  0  0  0
   -3.8631    3.1401    0.1874 H   0  0  0  0  0  0  0  0  0  0  0  0
   -3.9608    3.3942    1.9857 H   0  0  0  0  0  0  0  0  0  0  0  0
  1  2  1  0
  2  3  1  0
  3  4  1  0
  4  5  2  0
  5  6  1  0
  6  7  2  0
  7  8  1  0
  8  9  2  0
  9 10  1  0
 10 11  3  0
  9 12  1  0
 12 13  1  0
 13 14  1  0
 14 15  2  0
 15 16  1  0
 16 17  2  0
 17 18  1  0
 18 19  1  0
 19 20  1  0
 20 21  2  0
 21 22  1  0
 22 23  2  0
 23 24  1  0
 24 25  2  0
 17 26  1  0
 26 27  1  0
 26 28  2  0
 12 29  2  0
 29 30  1  0
 30 31  2  0
 31 32  1  0
 32 33  1  0
 33 34  2  0
 33 35  1  0
 35 36  2  0
 36 37  1  0
 37 38  1  0
 38 39  1  0
 39 40  1  0
 40 41  1  0
 41 42  1  0
 31  4  1  0
 42 38  1  0
 29  6  1  0
 28 14  1  0
 25 20  1  0
  1 43  1  0
  1 44  1  0
  1 45  1  0
  2 46  1  0
  2 47  1  0
  5 48  1  0
  8 49  1  0
 13 50  1  0
 15 51  1  0
 16 52  1  0
 19 53  1  0
 19 54  1  0
 21 55  1  0
 22 56  1  0
 23 57  1  0
 24 58  1  0
 28 59  1  0
 30 60  1  0
 32 61  1  0
 35 62  1  0
 36 63  1  0
 37 64  1  0
 37 65  1  0
 39 66  1  0
 39 67  1  0
 40 68  1  0
 40 69  1  0
 41 70  1  0
 41 71  1  0
 42 72  1  0
 42 73  1  0
M  END
$$$$
[H]/C(C(=O)N([H])c1c(OC([H])([H])C([H])([H])[H])c([H])c2nc([H])c(C#N)c(N([H])c3c([H])c([H])c(OC([H])([H])c4c([H])c([H])c([H])c(F)c4[H])c(Cl)c3[H])c2c1[H])=C(/[H])C([H])([H])N1C([H])([H])C([H])([H])C([H])([H])C1([H])[H]
     RDKit          3D

 74 78  0  0  0  0  0  0  0  0999 V2000
   -4.5097   -4.4183   -2.5889 C   0  0  0  0  0  0  0  0  0  0  0  0
   -3.2244   -4.4464   -1.7656 C   0  0  0  0  0  0  0  0  0  0  0  0
   -2.9997   -3.2099   -1.1748 O   0  0  0  0  0  0  0  0  0  0  0  0
   -1.8591   -2.9498   -0.4250 C   0  0  0  0  0  0  0  0  0  0  0  0
   -0.8852   -3.8886   -0.2240 C   0  0  0  0  0  0  0  0  0  0  0  0
    0.2555   -3.6419    0.5109 C   0  0  0  0  0  0  0  0  0  0  0  0
    1.1450   -4.6424    0.7281 N   0  0  0  0  0  0  0  0  0  0  0  0
    2.2310   -4.4650    1.4905 C   0  0  0  0  0  0  0  0  0  0  0  0
    2.4672   -3.2164    2.0790 C   0  0  0  0  0  0  0  0  0  0  0  0
    3.6151   -3.0731    2.9494 C   0  0  0  0  0  0  0  0  0  0  0  0
    4.5281   -3.0158    3.6478 N   0  0  0  0  0  0  0  0  0  0  0  0
    1.5614   -2.2186    1.8441 C   0  0  0  0  0  0  0  0  0  0  0  0
    1.8325   -0.9278    2.4244 N   0  0  0  0  0  0  0  0  0  0  0  0
    3.0969   -0.3505    1.9851 C   0  0  0  0  0  0  0  0  0  0  0  0
    3.6207   -0.7394    0.7704 C   0  0  0  0  0  0  0  0  0  0  0  0
    4.9027   -0.3953    0.4216 C   0  0  0  0  0  0  0  0  0  0  0  0
    5.7537    0.3631    1.2625 C   0  0  0  0  0  0  0  0  0  0  0  0
    6.9376    0.6252    0.8774 O   0  0  0  0  0  0  0  0  0  0  0  0
    8.1515    0.8889    0.4725 C   0  0  0  0  0  0  0  0  0  0  0  0
    8.4973    1.6376   -0.7328 C   0  0  0  0  0  0  0  0  0  0  0  0
    7.6408    2.3392   -1.5227 C   0  0  0  0  0  0  0  0  0  0  0  0
    8.0718    2.9798   -2.6490 C   0  0  0  0  0  0  0  0  0  0  0  0
    9.4192    2.9651   -3.0693 C   0  0  0  0  0  0  0  0  0  0  0  0
   10.2682    2.2363   -2.2392 C   0  0  0  0  0  0  0  0  0  0  0  0
   11.5816    2.2251   -2.6338 F   0  0  0  0  0  0  0  0  0  0  0  0
    9.8533    1.5912   -1.1196 C   0  0  0  0  0  0  0  0  0  0  0  0
    5.1690    0.7429    2.4837 C   0  0  0  0  0  0  0  0  0  0  0  0
    6.2282    1.6818    3.5495 Cl  0  0  0  0  0  0  0  0  0  0  0  0
    3.8738    0.3890    2.8247 C   0  0  0  0  0  0  0  0  0  0  0  0
    0.4348   -2.3711    1.0737 C   0  0  0  0  0  0  0  0  0  0  0  0
   -0.5372   -1.4117    0.8810 C   0  0  0  0  0  0  0  0  0  0  0  0
   -1.6897   -1.6580    0.1515 C   0  0  0  0  0  0  0  0  0  0  0  0
   -2.8076   -0.8374    0.0377 N   0  0  0  0  0  0  0  0  0  0  0  0
   -3.0621    0.5340   -0.0606 C   0  0  0  0  0  0  0  0  0  0  0  0
   -2.1757    1.3753   -0.0451 O   0  0  0  0  0  0  0  0  0  0  0  0
   -4.4800    0.8902   -0.1808 C   0  0  0  0  0  0  0  0  0  0  0  0
   -5.0007    2.0895   -0.3066 C   0  0  0  0  0  0  0  0  0  0  0  0
   -6.4973    2.1615   -0.4150 C   0  0  0  0  0  0  0  0  0  0  0  0
   -7.0965    3.0048    0.6064 N   0  0  0  0  0  0  0  0  0  0  0  0
   -8.3787    2.3736    1.0243 C   0  0  0  0  0  0  0  0  0  0  0  0
   -9.3075    2.6226   -0.1189 C   0  0  0  0  0  0  0  0  0  0  0  0
   -8.8614    3.9150   -0.7409 C   0  0  0  0  0  0  0  0  0  0  0  0
   -7.5732    4.2457   -0.0504 C   0  0  0  0  0  0  0  0  0  0  0  0
   -4.5511   -3.5721   -3.2380 H   0  0  0  0  0  0  0  0  0  0  0  0
   -5.3605   -4.3397   -1.8251 H   0  0  0  0  0  0  0  0  0  0  0  0
   -4.6514   -5.3743   -3.1459 H   0  0  0  0  0  0  0  0  0  0  0  0
   -2.3838   -4.6232   -2.5052 H   0  0  0  0  0  0  0  0  0  0  0  0
   -3.2375   -5.2966   -1.0748 H   0  0  0  0  0  0  0  0  0  0  0  0
   -0.9772   -4.8954   -0.6444 H   0  0  0  0  0  0  0  0  0  0  0  0
    2.9460   -5.2345    1.6857 H   0  0  0  0  0  0  0  0  0  0  0  0
    1.2421   -0.4118    3.0732 H   0  0  0  0  0  0  0  0  0  0  0  0
    2.9790   -1.3238    0.1101 H   0  0  0  0  0  0  0  0  0  0  0  0
    5.3128   -0.7021   -0.5447 H   0  0  0  0  0  0  0  0  0  0  0  0
    8.8850    1.2258    1.2940 H   0  0  0  0  0  0  0  0  0  0  0  0
    8.6489   -0.1706    0.2513 H   0  0  0  0  0  0  0  0  0  0  0  0
    6.5587    2.3693   -1.2317 H   0  0  0  0  0  0  0  0  0  0  0  0
    7.3946    3.5281   -3.2623 H   0  0  0  0  0  0  0  0  0  0  0  0
    9.7260    3.4778   -3.9644 H   0  0  0  0  0  0  0  0  0  0  0  0
   10.5645    1.0506   -0.5083 H   0  0  0  0  0  0  0  0  0  0  0  0
    3.5128    0.7234    3.8128 H   0  0  0  0  0  0  0  0  0  0  0  0
   -0.3763   -0.4220    1.3131 H   0  0  0  0  0  0  0  0  0  0  0  0
   -3.7551   -1.4731    0.0640 H   0  0  0  0  0  0  0  0  0  0  0  0
   -5.1801    0.0455   -0.1674 H   0  0  0  0  0  0  0  0  0  0  0  0
   -4.3194    2.9101   -0.3227 H   0  0  0  0  0  0  0  0  0  0  0  0
   -6.9093    1.1158   -0.3694 H   0  0  0  0  0  0  0  0  0  0  0  0
   -6.7228    2.5757   -1.4228 H   0  0  0  0  0  0  0  0  0  0  0  0
   -8.6812    2.9593    1.9590 H   0  0  0  0  0  0  0  0  0  0  0  0
   -8.2866    1.3604    1.3442 H   0  0  0  0  0  0  0  0  0  0  0  0
   -9.2659    1.7603   -0.8594 H   0  0  0  0  0  0  0  0  0  0  0  0
  -10.3781    2.6248    0.1980 H   0  0  0  0  0  0  0  0  0  0  0  0
   -8.7186    3.7882   -1.8447 H   0  0  0  0  0  0  0  0  0  0  0  0
   -9.6281    4.7184   -0.5870 H   0  0  0  0  0  0  0  0  0  0  0  0
   -6.7981    4.5736   -0.7851 H   0  0  0  0  0  0  0  0  0  0  0  0
   -7.7807    5.0320    0.7038 H   0  0  0  0  0  0  0  0  0  0  0  0
  1  2  1  0
  2  3  1  0
  3  4  1  0
  4  5  2  0
  5  6  1  0
  6  7  2  0
  7  8  1  0
  8  9  2  0
  9 10  1  0
 10 11  3  0
  9 12  1  0
 12 13  1  0
 13 14  1  0
 14 15  2  0
 15 16  1  0
 16 17  2  0
 17 18  1  0
 18 19  1  0
 19 20  1  0
 20 21  2  0
 21 22  1  0
 22 23  2  0
 23 24  1  0
 24 25  1  0
 24 26  2  0
 17 27  1  0
 27 28  1  0
 27 29  2  0
 12 30  2  0
 30 31  1  0
 31 32  2  0
 32 33  1  0
 33 34  1  0
 34 35  2  0
 34 36  1  0
 36 37  2  0
 37 38  1  0
 38 39  1  0
 39 40  1  0
 40 41  1  0
 41 42  1  0
 42 43  1  0
 32  4  1  0
 43 39  1  0
 30  6  1  0
 29 14  1  0
 26 20  1  0
  1 44  1  0
  1 45  1  0
  1 46  1  0
  2 47  1  0
  2 48  1  0
  5 49  1  0
  8 50  1  0
 13 51  1  0
 15 52  1  0
 16 53  1  0
 19 54  1  0
 19 55  1  0
 21 56  1  0
 22 57  1  0
 23 58  1  0
 26 59  1  0
 29 60  1  0
 31 61  1  0
 33 62  1  0
 36 63  1  0
 37 64  1  0
 38 65  1  0
 38 66  1  0
 40 67  1  0
 40 68  1  0
 41 69  1  0
 41 70  1  0
 42 71  1  0
 42 72  1  0
 43 73  1  0
 43 74  1  0
M  END
$$$$
[H]/C(C(=O)N([H])c1nc([H])c2nc([H])nc(N([H])c3c([H])c([H])c(F)c(Cl)c3[H])c2c1[H])=C(/[H])C([H])([H])N(C([H])([H])[H])C([H])([H])[H]
     RDKit          3D

 46 48  0  0  0  0  0  0  0  0999 V2000
    4.9009    2.3508    0.1236 C   0  0  0  0  0  0  0  0  0  0  0  0
    5.7340    1.2317    0.4586 N   0  0  0  0  0  0  0  0  0  0  0  0
    7.1369    1.6141    0.3172 C   0  0  0  0  0  0  0  0  0  0  0  0
    5.4727    0.1073   -0.4443 C   0  0  0  0  0  0  0  0  0  0  0  0
    4.1103   -0.4564   -0.2193 C   0  0  0  0  0  0  0  0  0  0  0  0
    3.9052   -1.7036    0.1410 C   0  0  0  0  0  0  0  0  0  0  0  0
    2.6114   -2.3089    0.3740 C   0  0  0  0  0  0  0  0  0  0  0  0
    2.4995   -3.5217    0.7202 O   0  0  0  0  0  0  0  0  0  0  0  0
    1.4271   -1.5728    0.2253 N   0  0  0  0  0  0  0  0  0  0  0  0
    0.1333   -2.1571    0.4464 C   0  0  0  0  0  0  0  0  0  0  0  0
   -0.9700   -1.3284    0.2679 C   0  0  0  0  0  0  0  0  0  0  0  0
   -2.2128   -1.8350    0.4605 C   0  0  0  0  0  0  0  0  0  0  0  0
   -3.3538   -1.0434    0.2897 C   0  0  0  0  0  0  0  0  0  0  0  0
   -3.2634    0.3080   -0.0890 N   0  0  0  0  0  0  0  0  0  0  0  0
   -4.3046    1.2298   -0.2972 C   0  0  0  0  0  0  0  0  0  0  0  0
   -5.6304    1.0566   -0.0338 C   0  0  0  0  0  0  0  0  0  0  0  0
   -6.6204    2.0103   -0.2754 C   0  0  0  0  0  0  0  0  0  0  0  0
   -6.2138    3.2024   -0.8163 C   0  0  0  0  0  0  0  0  0  0  0  0
   -7.1323    4.1767   -1.0764 F   0  0  0  0  0  0  0  0  0  0  0  0
   -4.9135    3.4578   -1.1087 C   0  0  0  0  0  0  0  0  0  0  0  0
   -4.4170    5.0061   -1.8023 Cl  0  0  0  0  0  0  0  0  0  0  0  0
   -3.9755    2.4824   -0.8510 C   0  0  0  0  0  0  0  0  0  0  0  0
   -4.5087   -1.6833    0.5115 N   0  0  0  0  0  0  0  0  0  0  0  0
   -4.6454   -2.9631    0.8676 C   0  0  0  0  0  0  0  0  0  0  0  0
   -3.5319   -3.6972    1.0236 N   0  0  0  0  0  0  0  0  0  0  0  0
   -2.3048   -3.1629    0.8279 C   0  0  0  0  0  0  0  0  0  0  0  0
   -1.2067   -3.9815    1.0044 C   0  0  0  0  0  0  0  0  0  0  0  0
    0.0032   -3.4419    0.8041 N   0  0  0  0  0  0  0  0  0  0  0  0
    4.2141    2.5732    0.9671 H   0  0  0  0  0  0  0  0  0  0  0  0
    4.3332    2.1418   -0.8167 H   0  0  0  0  0  0  0  0  0  0  0  0
    5.5224    3.2305   -0.0519 H   0  0  0  0  0  0  0  0  0  0  0  0
    7.2073    2.3727   -0.4902 H   0  0  0  0  0  0  0  0  0  0  0  0
    7.5517    1.9408    1.2711 H   0  0  0  0  0  0  0  0  0  0  0  0
    7.6787    0.6896    0.0175 H   0  0  0  0  0  0  0  0  0  0  0  0
    6.2466   -0.6825   -0.2560 H   0  0  0  0  0  0  0  0  0  0  0  0
    5.5858    0.4219   -1.5027 H   0  0  0  0  0  0  0  0  0  0  0  0
    3.2767    0.2018   -0.3624 H   0  0  0  0  0  0  0  0  0  0  0  0
    4.8058   -2.3080    0.2665 H   0  0  0  0  0  0  0  0  0  0  0  0
    1.4839   -0.5769   -0.0569 H   0  0  0  0  0  0  0  0  0  0  0  0
   -0.8323   -0.3046   -0.0176 H   0  0  0  0  0  0  0  0  0  0  0  0
   -2.2765    0.7039   -0.2373 H   0  0  0  0  0  0  0  0  0  0  0  0
   -5.9795    0.1448    0.3965 H   0  0  0  0  0  0  0  0  0  0  0  0
   -7.6574    1.8091   -0.0440 H   0  0  0  0  0  0  0  0  0  0  0  0
   -2.9533    2.7020   -1.0883 H   0  0  0  0  0  0  0  0  0  0  0  0
   -5.6275   -3.4200    1.0309 H   0  0  0  0  0  0  0  0  0  0  0  0
   -1.3093   -5.0168    1.2940 H   0  0  0  0  0  0  0  0  0  0  0  0
  1  2  1  0
  2  3  1  0
  2  4  1  0
  4  5  1  0
  5  6  2  0
  6  7  1  0
  7  8  2  0
  7  9  1  0
  9 10  1  0
 10 11  2  0
 11 12  1  0
 12 13  2  0
 13 14  1  0
 14 15  1  0
 15 16  2  0
 16 17  1  0
 17 18  2  0
 18 19  1  0
 18 20  1  0
 20 21  1  0
 20 22  2  0
 13 23  1  0
 23 24  2  0
 24 25  1  0
 25 26  2  0
 26 27  1  0
 27 28  2  0
 28 10  1  0
 26 12  1  0
 22 15  1  0
  1 29  1  0
  1 30  1  0
  1 31  1  0
  3 32  1  0
  3 33  1  0
  3 34  1  0
  4 35  1  0
  4 36  1  0
  5 37  1  0
  6 38  1  0
  9 39  1  0
 11 40  1  0
 14 41  1  0
 16 42  1  0
 17 43  1  0
 22 44  1  0
 24 45  1  0
 27 46  1  0
M  END
$$$$
[H]c1nc(N([H])c2c([H])c([H])c(OC([H])([H])c3c([H])c([H])c([H])c(F)c3[H])c(Cl)c2[H])c2sc(C#C[C@@]3([H])N([H])C([H])([H])C([H])([H])C3([H])[H])c([H])c2n1
     RDKit          3D

 53 57  0  0  0  0  0  0  0  0999 V2000
   10.8101    1.3221    1.2681 F   0  0  0  0  0  0  0  0  0  0  0  0
   10.0222    1.0248    0.2112 C   0  0  0  0  0  0  0  0  0  0  0  0
   10.6313    0.5567   -0.9411 C   0  0  0  0  0  0  0  0  0  0  0  0
    9.8414    0.2519   -2.0201 C   0  0  0  0  0  0  0  0  0  0  0  0
    8.4593    0.3967   -1.9942 C   0  0  0  0  0  0  0  0  0  0  0  0
    7.8535    0.8593   -0.8566 C   0  0  0  0  0  0  0  0  0  0  0  0
    6.3942    1.0128   -0.8274 C   0  0  0  0  0  0  0  0  0  0  0  0
    5.7478   -0.1847   -0.3728 O   0  0  0  0  0  0  0  0  0  0  0  0
    4.3704   -0.2042   -0.2879 C   0  0  0  0  0  0  0  0  0  0  0  0
    3.5788    0.8734   -0.6192 C   0  0  0  0  0  0  0  0  0  0  0  0
    2.2195    0.8249   -0.5248 C   0  0  0  0  0  0  0  0  0  0  0  0
    1.5681   -0.3511   -0.0769 C   0  0  0  0  0  0  0  0  0  0  0  0
    0.1610   -0.3715   -0.0219 N   0  0  0  0  0  0  0  0  0  0  0  0
   -0.5800   -1.1827    0.8467 C   0  0  0  0  0  0  0  0  0  0  0  0
   -0.0790   -2.0100    1.7787 N   0  0  0  0  0  0  0  0  0  0  0  0
   -0.9526   -2.6891    2.5382 C   0  0  0  0  0  0  0  0  0  0  0  0
   -2.2754   -2.5842    2.4146 N   0  0  0  0  0  0  0  0  0  0  0  0
   -2.8577   -1.7558    1.4810 C   0  0  0  0  0  0  0  0  0  0  0  0
   -4.1806   -1.5573    1.2521 C   0  0  0  0  0  0  0  0  0  0  0  0
   -4.5169   -0.6792    0.2635 C   0  0  0  0  0  0  0  0  0  0  0  0
   -3.0040   -0.1546   -0.3196 S   0  0  0  0  0  0  0  0  0  0  0  0
   -1.9853   -1.0635    0.7066 C   0  0  0  0  0  0  0  0  0  0  0  0
   -5.8617   -0.3038   -0.1646 C   0  0  0  0  0  0  0  0  0  0  0  0
   -6.9652   -0.0041   -0.5355 C   0  0  0  0  0  0  0  0  0  0  0  0
   -8.3203    0.3378   -0.9925 C   0  0  2  0  0  0  0  0  0  0  0  0
   -8.6877    1.7336   -0.5595 C   0  0  0  0  0  0  0  0  0  0  0  0
   -9.5423    1.5358    0.6690 C   0  0  0  0  0  0  0  0  0  0  0  0
   -9.8694    0.0795    0.7216 C   0  0  0  0  0  0  0  0  0  0  0  0
   -9.3118   -0.5510   -0.4446 N   0  0  0  0  0  0  0  0  0  0  0  0
    2.3709   -1.4171    0.2487 C   0  0  0  0  0  0  0  0  0  0  0  0
    3.7675   -1.3504    0.1463 C   0  0  0  0  0  0  0  0  0  0  0  0
    4.7154   -2.7710    0.5885 Cl  0  0  0  0  0  0  0  0  0  0  0  0
    8.6491    1.1639    0.2233 C   0  0  0  0  0  0  0  0  0  0  0  0
   11.7108    0.4430   -0.9629 H   0  0  0  0  0  0  0  0  0  0  0  0
   10.3318   -0.1115   -2.9095 H   0  0  0  0  0  0  0  0  0  0  0  0
    7.9052    0.1319   -2.8950 H   0  0  0  0  0  0  0  0  0  0  0  0
    6.0457    1.2473   -1.8607 H   0  0  0  0  0  0  0  0  0  0  0  0
    6.0452    1.8192   -0.1573 H   0  0  0  0  0  0  0  0  0  0  0  0
    4.0605    1.7695   -0.9597 H   0  0  0  0  0  0  0  0  0  0  0  0
    1.5849    1.6738   -0.7852 H   0  0  0  0  0  0  0  0  0  0  0  0
   -0.3136    0.2905   -0.7079 H   0  0  0  0  0  0  0  0  0  0  0  0
   -0.5570   -3.3764    3.3125 H   0  0  0  0  0  0  0  0  0  0  0  0
   -4.9705   -2.0844    1.8411 H   0  0  0  0  0  0  0  0  0  0  0  0
   -8.3227    0.2084   -2.0948 H   0  0  0  0  0  0  0  0  0  0  0  0
   -7.8120    2.3622   -0.3970 H   0  0  0  0  0  0  0  0  0  0  0  0
   -9.3194    2.1847   -1.3648 H   0  0  0  0  0  0  0  0  0  0  0  0
   -8.9604    1.8029    1.5965 H   0  0  0  0  0  0  0  0  0  0  0  0
  -10.4633    2.1300    0.6398 H   0  0  0  0  0  0  0  0  0  0  0  0
   -9.4147   -0.4070    1.6243 H   0  0  0  0  0  0  0  0  0  0  0  0
  -10.9603   -0.1166    0.7769 H   0  0  0  0  0  0  0  0  0  0  0  0
   -8.9331   -1.4900   -0.2291 H   0  0  0  0  0  0  0  0  0  0  0  0
    1.9620   -2.3778    0.5852 H   0  0  0  0  0  0  0  0  0  0  0  0
    8.2101    1.5350    1.1489 H   0  0  0  0  0  0  0  0  0  0  0  0
  1  2  1  0
  2  3  2  0
  3  4  1  0
  4  5  2  0
  5  6  1  0
  6  7  1  0
  7  8  1  0
  8  9  1  0
  9 10  2  0
 10 11  1  0
 11 12  2  0
 12 13  1  0
 13 14  1  0
 14 15  2  0
 15 16  1  0
 16 17  2  0
 17 18  1  0
 18 19  1  0
 19 20  2  0
 20 21  1  0
 21 22  1  0
 20 23  1  0
 23 24  3  0
 24 25  1  0
 25 26  1  0
 26 27  1  0
 27 28  1  0
 28 29  1  0
 12 30  1  0
 30 31  2  0
 31 32  1  0
  6 33  2  0
 33  2  1  0
 31  9  1  0
 22 14  1  0
 29 25  1  0
 22 18  2  0
  3 34  1  0
  4 35  1  0
  5 36  1  0
  7 37  1  0
  7 38  1  0
 10 39  1  0
 11 40  1  0
 13 41  1  0
 16 42  1  0
 19 43  1  0
 25 44  1  6
 26 45  1  0
 26 46  1  0
 27 47  1  0
 27 48  1  0
 28 49  1  0
 28 50  1  0
 29 51  1  0
 30 52  1  0
 33 53  1  0
M  END
$$$$
[H]c1nc(N([H])c2c([H])c([H])c(OC([H])([H])c3c([H])c([H])c([H])c(F)c3[H])c(Cl)c2[H])c2c(n1)c([H])c([H])n2[H]
     RDKit          3D

 40 43  0  0  0  0  0  0  0  0999 V2000
    6.3502   -2.0474   -3.0473 F   0  0  0  0  0  0  0  0  0  0  0  0
    6.2739   -1.1734   -2.0175 C   0  0  0  0  0  0  0  0  0  0  0  0
    7.4175   -0.5712   -1.4953 C   0  0  0  0  0  0  0  0  0  0  0  0
    7.3177    0.3159   -0.4466 C   0  0  0  0  0  0  0  0  0  0  0  0
    6.0819    0.6089    0.0883 C   0  0  0  0  0  0  0  0  0  0  0  0
    4.9312    0.0304   -0.4051 C   0  0  0  0  0  0  0  0  0  0  0  0
    3.6140    0.3605    0.1856 C   0  0  0  0  0  0  0  0  0  0  0  0
    2.6261   -0.3611   -0.5007 O   0  0  0  0  0  0  0  0  0  0  0  0
    1.2726   -0.2778   -0.1918 C   0  0  0  0  0  0  0  0  0  0  0  0
    0.8633    0.5447    0.8305 C   0  0  0  0  0  0  0  0  0  0  0  0
   -0.4682    0.6377    1.1465 C   0  0  0  0  0  0  0  0  0  0  0  0
   -1.4745   -0.0718    0.4768 C   0  0  0  0  0  0  0  0  0  0  0  0
   -2.8031    0.0696    0.8731 N   0  0  0  0  0  0  0  0  0  0  0  0
   -3.9795   -0.2941    0.2225 C   0  0  0  0  0  0  0  0  0  0  0  0
   -4.0588   -0.8570   -0.9898 N   0  0  0  0  0  0  0  0  0  0  0  0
   -5.2122   -1.1842   -1.5967 C   0  0  0  0  0  0  0  0  0  0  0  0
   -6.4023   -0.9584   -1.0021 N   0  0  0  0  0  0  0  0  0  0  0  0
   -6.4164   -0.3930    0.2240 C   0  0  0  0  0  0  0  0  0  0  0  0
   -7.4723   -0.0471    1.0669 C   0  0  0  0  0  0  0  0  0  0  0  0
   -6.8755    0.4935    2.1855 C   0  0  0  0  0  0  0  0  0  0  0  0
   -5.5220    0.4712    2.0172 N   0  0  0  0  0  0  0  0  0  0  0  0
   -5.2238   -0.0656    0.8276 C   0  0  0  0  0  0  0  0  0  0  0  0
   -1.0442   -0.8867   -0.5392 C   0  0  0  0  0  0  0  0  0  0  0  0
    0.3184   -0.9903   -0.8729 C   0  0  0  0  0  0  0  0  0  0  0  0
    0.8261   -2.0382   -2.1732 Cl  0  0  0  0  0  0  0  0  0  0  0  0
    5.0509   -0.8499   -1.4491 C   0  0  0  0  0  0  0  0  0  0  0  0
    8.3660   -0.8420   -1.9593 H   0  0  0  0  0  0  0  0  0  0  0  0
    8.2062    0.7752   -0.0509 H   0  0  0  0  0  0  0  0  0  0  0  0
    5.9711    1.3112    0.9235 H   0  0  0  0  0  0  0  0  0  0  0  0
    3.5917    0.1268    1.2873 H   0  0  0  0  0  0  0  0  0  0  0  0
    3.4551    1.4603    0.1023 H   0  0  0  0  0  0  0  0  0  0  0  0
    1.5666    1.1356    1.4093 H   0  0  0  0  0  0  0  0  0  0  0  0
   -0.8026    1.2896    1.9557 H   0  0  0  0  0  0  0  0  0  0  0  0
   -2.9489    0.5299    1.8415 H   0  0  0  0  0  0  0  0  0  0  0  0
   -5.1319   -1.6349   -2.5802 H   0  0  0  0  0  0  0  0  0  0  0  0
   -8.5153   -0.1826    0.8659 H   0  0  0  0  0  0  0  0  0  0  0  0
   -7.3760    0.8775    3.0620 H   0  0  0  0  0  0  0  0  0  0  0  0
   -4.7983    0.8118    2.6911 H   0  0  0  0  0  0  0  0  0  0  0  0
   -1.7371   -1.4859   -1.1129 H   0  0  0  0  0  0  0  0  0  0  0  0
    4.1623   -1.3158   -1.8525 H   0  0  0  0  0  0  0  0  0  0  0  0
  1  2  1  0
  2  3  2  0
  3  4  1  0
  4  5  2  0
  5  6  1  0
  6  7  1  0
  7  8  1  0
  8  9  1  0
  9 10  2  0
 10 11  1  0
 11 12  2  0
 12 13  1  0
 13 14  1  0
 14 15  2  0
 15 16  1  0
 16 17  2  0
 17 18  1  0
 18 19  1  0
 19 20  2  0
 20 21  1  0
 21 22  1  0
 12 23  1  0
 23 24  2  0
 24 25  1  0
  6 26  2  0
 26  2  1  0
 24  9  1  0
 22 14  1  0
 22 18  2  0
  3 27  1  0
  4 28  1  0
  5 29  1  0
  7 30  1  0
  7 31  1  0
 10 32  1  0
 11 33  1  0
 13 34  1  0
 16 35  1  0
 19 36  1  0
 20 37  1  0
 21 38  1  0
 23 39  1  0
 26 40  1  0
M  END
$$$$
[H]OC([H])([H])C([H])([H])N(C(=O)[C@]([H])(Oc1c([H])c([H])c([H])c2nc([H])nc(N([H])c3c([H])c([H])c(OC([H])([H])c4nc([H])c([H])c([H])c4[H])c(Cl)c3[H])c12)C([H])([H])[H])C([H])([H])[H]
     RDKit          3D

 62 65  0  0  0  0  0  0  0  0999 V2000
   -4.7188   -1.0933    2.6431 C   0  0  0  0  0  0  0  0  0  0  0  0
   -3.7122   -0.4604    1.6625 C   0  0  1  0  0  0  0  0  0  0  0  0
   -2.8635   -1.2822    1.0257 O   0  0  0  0  0  0  0  0  0  0  0  0
   -2.7705   -2.5779    0.6917 C   0  0  0  0  0  0  0  0  0  0  0  0
   -3.8604   -3.4473    0.8398 C   0  0  0  0  0  0  0  0  0  0  0  0
   -3.7279   -4.7576    0.4892 C   0  0  0  0  0  0  0  0  0  0  0  0
   -2.5822   -5.2931   -0.0088 C   0  0  0  0  0  0  0  0  0  0  0  0
   -1.4978   -4.4662   -0.1654 C   0  0  0  0  0  0  0  0  0  0  0  0
   -0.3530   -4.9832   -0.6752 N   0  0  0  0  0  0  0  0  0  0  0  0
    0.6962   -4.1816   -0.8392 C   0  0  0  0  0  0  0  0  0  0  0  0
    0.6877   -2.9001   -0.5296 N   0  0  0  0  0  0  0  0  0  0  0  0
   -0.4602   -2.3300   -0.0047 C   0  0  0  0  0  0  0  0  0  0  0  0
   -0.3726   -1.0107    0.4473 N   0  0  0  0  0  0  0  0  0  0  0  0
    0.7974   -0.2408    0.0662 C   0  0  0  0  0  0  0  0  0  0  0  0
    1.3458    0.6524    0.9687 C   0  0  0  0  0  0  0  0  0  0  0  0
    2.4146    1.4326    0.6468 C   0  0  0  0  0  0  0  0  0  0  0  0
    3.0138    1.3657   -0.6266 C   0  0  0  0  0  0  0  0  0  0  0  0
    4.0351    2.1110   -0.9372 O   0  0  0  0  0  0  0  0  0  0  0  0
    5.0346    2.8520   -1.2160 C   0  0  0  0  0  0  0  0  0  0  0  0
    6.2525    2.6540   -0.3468 C   0  0  0  0  0  0  0  0  0  0  0  0
    6.3451    3.3307    0.8245 C   0  0  0  0  0  0  0  0  0  0  0  0
    7.4833    3.1328    1.6159 C   0  0  0  0  0  0  0  0  0  0  0  0
    8.4379    2.2674    1.1621 C   0  0  0  0  0  0  0  0  0  0  0  0
    8.3275    1.5873   -0.0320 C   0  0  0  0  0  0  0  0  0  0  0  0
    7.1941    1.8245   -0.7559 N   0  0  0  0  0  0  0  0  0  0  0  0
    2.4423    0.4530   -1.5284 C   0  0  0  0  0  0  0  0  0  0  0  0
    3.1785    0.3591   -3.1167 Cl  0  0  0  0  0  0  0  0  0  0  0  0
    1.3676   -0.3189   -1.1786 C   0  0  0  0  0  0  0  0  0  0  0  0
   -1.5716   -3.1121    0.1795 C   0  0  0  0  0  0  0  0  0  0  0  0
   -4.4144    0.6385    1.0432 C   0  0  0  0  0  0  0  0  0  0  0  0
   -5.1452    1.3092    1.9208 O   0  0  0  0  0  0  0  0  0  0  0  0
   -4.5136    1.1596   -0.2377 N   0  0  0  0  0  0  0  0  0  0  0  0
   -5.4124    2.3201   -0.4613 C   0  0  0  0  0  0  0  0  0  0  0  0
   -3.7743    0.6554   -1.3637 C   0  0  0  0  0  0  0  0  0  0  0  0
   -2.4860    1.4703   -1.4404 C   0  0  0  0  0  0  0  0  0  0  0  0
   -1.7099    1.0514   -2.5010 O   0  0  0  0  0  0  0  0  0  0  0  0
   -4.3358   -1.9382    3.1869 H   0  0  0  0  0  0  0  0  0  0  0  0
   -4.8886   -0.2912    3.4357 H   0  0  0  0  0  0  0  0  0  0  0  0
   -5.7034   -1.2456    2.2185 H   0  0  0  0  0  0  0  0  0  0  0  0
   -3.0214    0.0689    2.4897 H   0  0  0  0  0  0  0  0  0  0  0  0
   -4.7853   -3.0553    1.1970 H   0  0  0  0  0  0  0  0  0  0  0  0
   -4.5825   -5.4068    0.6145 H   0  0  0  0  0  0  0  0  0  0  0  0
   -2.4691   -6.3429   -0.2932 H   0  0  0  0  0  0  0  0  0  0  0  0
    1.6097   -4.6150   -1.2525 H   0  0  0  0  0  0  0  0  0  0  0  0
   -0.9866   -0.4967    1.0419 H   0  0  0  0  0  0  0  0  0  0  0  0
    0.9236    0.7425    1.9595 H   0  0  0  0  0  0  0  0  0  0  0  0
    2.8679    2.1444    1.3355 H   0  0  0  0  0  0  0  0  0  0  0  0
    4.8369    3.9797   -1.1013 H   0  0  0  0  0  0  0  0  0  0  0  0
    5.4071    2.8509   -2.3112 H   0  0  0  0  0  0  0  0  0  0  0  0
    5.5791    4.0075    1.1604 H   0  0  0  0  0  0  0  0  0  0  0  0
    7.6114    3.6458    2.5607 H   0  0  0  0  0  0  0  0  0  0  0  0
    9.3530    2.0690    1.7355 H   0  0  0  0  0  0  0  0  0  0  0  0
    9.0638    0.9095   -0.3990 H   0  0  0  0  0  0  0  0  0  0  0  0
    0.9680   -0.9874   -1.9607 H   0  0  0  0  0  0  0  0  0  0  0  0
   -5.6984    2.7910    0.4787 H   0  0  0  0  0  0  0  0  0  0  0  0
   -6.3119    1.8949   -0.9428 H   0  0  0  0  0  0  0  0  0  0  0  0
   -4.9017    2.9669   -1.1832 H   0  0  0  0  0  0  0  0  0  0  0  0
   -3.5470   -0.3934   -1.2167 H   0  0  0  0  0  0  0  0  0  0  0  0
   -4.3447    0.8351   -2.3145 H   0  0  0  0  0  0  0  0  0  0  0  0
   -1.9352    1.3878   -0.4943 H   0  0  0  0  0  0  0  0  0  0  0  0
   -2.7665    2.5480   -1.5366 H   0  0  0  0  0  0  0  0  0  0  0  0
   -1.0500    1.7588   -2.6910 H   0  0  0  0  0  0  0  0  0  0  0  0
  1  2  1  0
  2  3  1  0
  3  4  1  0
  4  5  2  0
  5  6  1  0
  6  7  2  0
  7  8  1  0
  8  9  2  0
  9 10  1  0
 10 11  2  0
 11 12  1  0
 12 13  1  0
 13 14  1  0
 14 15  2  0
 15 16  1  0
 16 17  2  0
 17 18  1  0
 18 19  1  0
 19 20  1  0
 20 21  2  0
 21 22  1  0
 22 23  2  0
 23 24  1  0
 24 25  2  0
 17 26  1  0
 26 27  1  0
 26 28  2  0
 12 29  2  0
  2 30  1  0
 30 31  2  0
 30 32  1  0
 32 33  1  0
 32 34  1  0
 34 35  1  0
 35 36  1  0
 29  4  1  0
 29  8  1  0
 28 14  1  0
 25 20  1  0
  1 37  1  0
  1 38  1  0
  1 39  1  0
  2 40  1  1
  5 41  1  0
  6 42  1  0
  7 43  1  0
 10 44  1  0
 13 45  1  0
 15 46  1  0
 16 47  1  0
 19 48  1  0
 19 49  1  0
 21 50  1  0
 22 51  1  0
 23 52  1  0
 24 53  1  0
 28 54  1  0
 33 55  1  0
 33 56  1  0
 33 57  1  0
 34 58  1  0
 34 59  1  0
 35 60  1  0
 35 61  1  0
 36 62  1  0
M  END
$$$$
[H]c1nc(N([H])c2c([H])c([H])c(OC([H])([H])c3nc([H])c([H])c([H])c3[H])c(Cl)c2[H])c2c(O[C@@]([H])(C(=O)N3C([H])([H])C([H])([H])OC([H])([H])C3([H])[H])C([H])([H])[H])c([H])c([H])c([H])c2n1
     RDKit          3D

 63 67  0  0  0  0  0  0  0  0999 V2000
   -2.9577   -1.4485    3.0677 C   0  0  0  0  0  0  0  0  0  0  0  0
   -3.5093   -0.4267    2.0297 C   0  0  1  0  0  0  0  0  0  0  0  0
   -2.4580    0.3714    1.7055 O   0  0  0  0  0  0  0  0  0  0  0  0
   -2.2052    1.6985    1.8653 C   0  0  0  0  0  0  0  0  0  0  0  0
   -3.1869    2.5450    2.3995 C   0  0  0  0  0  0  0  0  0  0  0  0
   -2.9711    3.8896    2.5798 C   0  0  0  0  0  0  0  0  0  0  0  0
   -1.7746    4.4559    2.2397 C   0  0  0  0  0  0  0  0  0  0  0  0
   -0.7812    3.6423    1.7082 C   0  0  0  0  0  0  0  0  0  0  0  0
    0.4040    4.1892    1.3908 N   0  0  0  0  0  0  0  0  0  0  0  0
    1.3832    3.4273    0.8972 C   0  0  0  0  0  0  0  0  0  0  0  0
    1.1876    2.1362    0.7202 N   0  0  0  0  0  0  0  0  0  0  0  0
    0.0157    1.4771    1.0104 C   0  0  0  0  0  0  0  0  0  0  0  0
   -0.0702    0.1144    0.7198 N   0  0  0  0  0  0  0  0  0  0  0  0
    1.0996   -0.5831    0.2715 C   0  0  0  0  0  0  0  0  0  0  0  0
    2.3427   -0.3760    0.7881 C   0  0  0  0  0  0  0  0  0  0  0  0
    3.4695   -1.0378    0.3226 C   0  0  0  0  0  0  0  0  0  0  0  0
    3.3562   -1.9365   -0.6903 C   0  0  0  0  0  0  0  0  0  0  0  0
    4.4341   -2.6194   -1.1882 O   0  0  0  0  0  0  0  0  0  0  0  0
    5.7586   -2.5364   -0.8004 C   0  0  0  0  0  0  0  0  0  0  0  0
    6.3178   -1.1847   -0.9980 C   0  0  0  0  0  0  0  0  0  0  0  0
    5.7769   -0.3874   -1.9856 C   0  0  0  0  0  0  0  0  0  0  0  0
    6.2691    0.8785   -2.2008 C   0  0  0  0  0  0  0  0  0  0  0  0
    7.2971    1.3089   -1.4120 C   0  0  0  0  0  0  0  0  0  0  0  0
    7.8216    0.4924   -0.4301 C   0  0  0  0  0  0  0  0  0  0  0  0
    7.3276   -0.7625   -0.2230 N   0  0  0  0  0  0  0  0  0  0  0  0
    2.1018   -2.1692   -1.2360 C   0  0  0  0  0  0  0  0  0  0  0  0
    1.9930   -3.3391   -2.5447 Cl  0  0  0  0  0  0  0  0  0  0  0  0
    0.9917   -1.5068   -0.7666 C   0  0  0  0  0  0  0  0  0  0  0  0
   -1.0003    2.2581    1.5211 C   0  0  0  0  0  0  0  0  0  0  0  0
   -4.2432   -1.2155    1.0780 C   0  0  0  0  0  0  0  0  0  0  0  0
   -5.1579   -1.9759    1.6409 O   0  0  0  0  0  0  0  0  0  0  0  0
   -4.1875   -1.3391   -0.2966 N   0  0  0  0  0  0  0  0  0  0  0  0
   -3.3103   -0.6151   -1.1618 C   0  0  0  0  0  0  0  0  0  0  0  0
   -4.1932   -0.0713   -2.2973 C   0  0  0  0  0  0  0  0  0  0  0  0
   -5.5454   -0.1172   -1.9628 O   0  0  0  0  0  0  0  0  0  0  0  0
   -6.0004   -1.4299   -1.8477 C   0  0  0  0  0  0  0  0  0  0  0  0
   -5.0690   -2.2822   -1.0296 C   0  0  0  0  0  0  0  0  0  0  0  0
   -3.8173   -1.8435    3.6079 H   0  0  0  0  0  0  0  0  0  0  0  0
   -2.2028   -0.9337    3.6742 H   0  0  0  0  0  0  0  0  0  0  0  0
   -2.4682   -2.2229    2.4427 H   0  0  0  0  0  0  0  0  0  0  0  0
   -4.2108    0.1825    2.6933 H   0  0  0  0  0  0  0  0  0  0  0  0
   -4.1181    2.0773    2.6529 H   0  0  0  0  0  0  0  0  0  0  0  0
   -3.7730    4.5117    3.0026 H   0  0  0  0  0  0  0  0  0  0  0  0
   -1.5455    5.4990    2.3562 H   0  0  0  0  0  0  0  0  0  0  0  0
    2.3512    3.8981    0.6429 H   0  0  0  0  0  0  0  0  0  0  0  0
   -0.8752   -0.4740    0.7698 H   0  0  0  0  0  0  0  0  0  0  0  0
    2.4939    0.3079    1.6126 H   0  0  0  0  0  0  0  0  0  0  0  0
    4.4128   -0.8099    0.7994 H   0  0  0  0  0  0  0  0  0  0  0  0
    6.3400   -3.2140   -1.4847 H   0  0  0  0  0  0  0  0  0  0  0  0
    5.9608   -2.9258    0.2198 H   0  0  0  0  0  0  0  0  0  0  0  0
    4.9487   -0.7559   -2.6091 H   0  0  0  0  0  0  0  0  0  0  0  0
    5.8696    1.5171   -2.9588 H   0  0  0  0  0  0  0  0  0  0  0  0
    7.6986    2.2924   -1.5592 H   0  0  0  0  0  0  0  0  0  0  0  0
    8.6307    0.8361    0.1878 H   0  0  0  0  0  0  0  0  0  0  0  0
    0.0253   -1.7283   -1.2333 H   0  0  0  0  0  0  0  0  0  0  0  0
   -2.6522   -1.3808   -1.6833 H   0  0  0  0  0  0  0  0  0  0  0  0
   -2.7161    0.1706   -0.7147 H   0  0  0  0  0  0  0  0  0  0  0  0
   -3.9407    1.0062   -2.4028 H   0  0  0  0  0  0  0  0  0  0  0  0
   -3.9841   -0.5353   -3.2636 H   0  0  0  0  0  0  0  0  0  0  0  0
   -6.9836   -1.3942   -1.3423 H   0  0  0  0  0  0  0  0  0  0  0  0
   -6.1696   -1.8274   -2.8677 H   0  0  0  0  0  0  0  0  0  0  0  0
   -5.6066   -2.9369   -0.3156 H   0  0  0  0  0  0  0  0  0  0  0  0
   -4.3943   -2.8407   -1.7042 H   0  0  0  0  0  0  0  0  0  0  0  0
  1  2  1  0
  2  3  1  0
  3  4  1  0
  4  5  2  0
  5  6  1  0
  6  7  2  0
  7  8  1  0
  8  9  2  0
  9 10  1  0
 10 11  2  0
 11 12  1  0
 12 13  1  0
 13 14  1  0
 14 15  2  0
 15 16  1  0
 16 17  2  0
 17 18  1  0
 18 19  1  0
 19 20  1  0
 20 21  2  0
 21 22  1  0
 22 23  2  0
 23 24  1  0
 24 25  2  0
 17 26  1  0
 26 27  1  0
 26 28  2  0
 12 29  2  0
  2 30  1  0
 30 31  2  0
 30 32  1  0
 32 33  1  0
 33 34  1  0
 34 35  1  0
 35 36  1  0
 36 37  1  0
 29  4  1  0
 37 32  1  0
 29  8  1  0
 28 14  1  0
 25 20  1  0
  1 38  1  0
  1 39  1  0
  1 40  1  0
  2 41  1  1
  5 42  1  0
  6 43  1  0
  7 44  1  0
 10 45  1  0
 13 46  1  0
 15 47  1  0
 16 48  1  0
 19 49  1  0
 19 50  1  0
 21 51  1  0
 22 52  1  0
 23 53  1  0
 24 54  1  0
 28 55  1  0
 33 56  1  0
 33 57  1  0
 34 58  1  0
 34 59  1  0
 36 60  1  0
 36 61  1  0
 37 62  1  0
 37 63  1  0
M  END
$$$$
[H]ON([H])C(=O)C([H])([H])C([H])([H])C([H])([H])C([H])([H])C([H])([H])C([H])([H])Oc1c(OC([H])([H])[H])c([H])c2nc([H])nc(N([H])c3c([H])c([H])c(F)c(Cl)c3[H])c2c1[H]
     RDKit          3D

 56 58  0  0  0  0  0  0  0  0999 V2000
   -2.0783   -5.4144    1.5774 C   0  0  0  0  0  0  0  0  0  0  0  0
   -1.3276   -4.2803    1.2084 O   0  0  0  0  0  0  0  0  0  0  0  0
   -1.9803   -3.0878    0.9361 C   0  0  0  0  0  0  0  0  0  0  0  0
   -3.3346   -2.9225    1.0018 C   0  0  0  0  0  0  0  0  0  0  0  0
   -3.9820   -1.7544    0.7358 C   0  0  0  0  0  0  0  0  0  0  0  0
   -5.3214   -1.6378    0.8075 N   0  0  0  0  0  0  0  0  0  0  0  0
   -5.9699   -0.5032    0.5440 C   0  0  0  0  0  0  0  0  0  0  0  0
   -5.2681    0.5806    0.1908 N   0  0  0  0  0  0  0  0  0  0  0  0
   -3.9097    0.5459    0.0955 C   0  0  0  0  0  0  0  0  0  0  0  0
   -3.1730    1.7018   -0.2336 N   0  0  0  0  0  0  0  0  0  0  0  0
   -3.8467    2.9154   -0.5613 C   0  0  0  0  0  0  0  0  0  0  0  0
   -5.0422    3.0311   -1.2044 C   0  0  0  0  0  0  0  0  0  0  0  0
   -5.6478    4.2623   -1.4606 C   0  0  0  0  0  0  0  0  0  0  0  0
   -5.0100    5.4077   -1.0488 C   0  0  0  0  0  0  0  0  0  0  0  0
   -5.5843    6.6041   -1.2930 F   0  0  0  0  0  0  0  0  0  0  0  0
   -3.7887    5.3167   -0.3928 C   0  0  0  0  0  0  0  0  0  0  0  0
   -2.9724    6.7629    0.1363 Cl  0  0  0  0  0  0  0  0  0  0  0  0
   -3.2124    4.0925   -0.1498 C   0  0  0  0  0  0  0  0  0  0  0  0
   -3.2276   -0.6296    0.3664 C   0  0  0  0  0  0  0  0  0  0  0  0
   -1.8659   -0.7784    0.2956 C   0  0  0  0  0  0  0  0  0  0  0  0
   -1.1910   -1.9778    0.5677 C   0  0  0  0  0  0  0  0  0  0  0  0
    0.1147   -2.0735    0.4862 O   0  0  0  0  0  0  0  0  0  0  0  0
    1.3360   -1.6498    0.2682 C   0  0  0  0  0  0  0  0  0  0  0  0
    1.7056   -0.4909    1.1763 C   0  0  0  0  0  0  0  0  0  0  0  0
    3.1053   -0.0360    0.9387 C   0  0  0  0  0  0  0  0  0  0  0  0
    4.1607   -1.0546    1.2184 C   0  0  0  0  0  0  0  0  0  0  0  0
    5.5532   -0.5101    0.9567 C   0  0  0  0  0  0  0  0  0  0  0  0
    5.7740   -0.1166   -0.4697 C   0  0  0  0  0  0  0  0  0  0  0  0
    7.1711    0.4123   -0.6063 C   0  0  0  0  0  0  0  0  0  0  0  0
    7.9530    0.5206    0.3645 O   0  0  0  0  0  0  0  0  0  0  0  0
    7.5842    0.7913   -1.9097 N   0  0  0  0  0  0  0  0  0  0  0  0
    8.8246    1.2691   -2.1075 O   0  0  0  0  0  0  0  0  0  0  0  0
   -2.5262   -5.3220    2.6039 H   0  0  0  0  0  0  0  0  0  0  0  0
   -1.4422   -6.3113    1.5919 H   0  0  0  0  0  0  0  0  0  0  0  0
   -2.9387   -5.5439    0.8627 H   0  0  0  0  0  0  0  0  0  0  0  0
   -3.9315   -3.7881    1.2877 H   0  0  0  0  0  0  0  0  0  0  0  0
   -7.0504   -0.3802    0.5904 H   0  0  0  0  0  0  0  0  0  0  0  0
   -2.1157    1.6917   -0.2400 H   0  0  0  0  0  0  0  0  0  0  0  0
   -5.5496    2.1602   -1.5595 H   0  0  0  0  0  0  0  0  0  0  0  0
   -6.5840    4.2760   -1.9662 H   0  0  0  0  0  0  0  0  0  0  0  0
   -2.2663    4.0155    0.3621 H   0  0  0  0  0  0  0  0  0  0  0  0
   -1.2638    0.0909    0.0088 H   0  0  0  0  0  0  0  0  0  0  0  0
    1.5362   -1.2494   -0.7772 H   0  0  0  0  0  0  0  0  0  0  0  0
    2.1595   -2.4102    0.4030 H   0  0  0  0  0  0  0  0  0  0  0  0
    1.5318   -0.7258    2.2508 H   0  0  0  0  0  0  0  0  0  0  0  0
    1.0324    0.3819    0.9485 H   0  0  0  0  0  0  0  0  0  0  0  0
    3.3450    0.8711    1.5276 H   0  0  0  0  0  0  0  0  0  0  0  0
    3.1613    0.2786   -0.1360 H   0  0  0  0  0  0  0  0  0  0  0  0
    4.1409   -1.4208    2.2605 H   0  0  0  0  0  0  0  0  0  0  0  0
    4.0594   -1.9335    0.5146 H   0  0  0  0  0  0  0  0  0  0  0  0
    6.2374   -1.3720    1.1757 H   0  0  0  0  0  0  0  0  0  0  0  0
    5.8204    0.2973    1.6617 H   0  0  0  0  0  0  0  0  0  0  0  0
    5.0286    0.5472   -0.9036 H   0  0  0  0  0  0  0  0  0  0  0  0
    5.7071   -1.0735   -1.0757 H   0  0  0  0  0  0  0  0  0  0  0  0
    6.9487    0.7085   -2.7174 H   0  0  0  0  0  0  0  0  0  0  0  0
    9.4112    0.9152   -1.3736 H   0  0  0  0  0  0  0  0  0  0  0  0
  1  2  1  0
  2  3  1  0
  3  4  2  0
  4  5  1  0
  5  6  2  0
  6  7  1  0
  7  8  2  0
  8  9  1  0
  9 10  1  0
 10 11  1  0
 11 12  2  0
 12 13  1  0
 13 14  2  0
 14 15  1  0
 14 16  1  0
 16 17  1  0
 16 18  2  0
  9 19  2  0
 19 20  1  0
 20 21  2  0
 21 22  1  0
 22 23  1  0
 23 24  1  0
 24 25  1  0
 25 26  1  0
 26 27  1  0
 27 28  1  0
 28 29  1  0
 29 30  2  0
 29 31  1  0
 31 32  1  0
 21  3  1  0
 19  5  1  0
 18 11  1  0
  1 33  1  0
  1 34  1  0
  1 35  1  0
  4 36  1  0
  7 37  1  0
 10 38  1  0
 12 39  1  0
 13 40  1  0
 18 41  1  0
 20 42  1  0
 23 43  1  0
 23 44  1  0
 24 45  1  0
 24 46  1  0
 25 47  1  0
 25 48  1  0
 26 49  1  0
 26 50  1  0
 27 51  1  0
 27 52  1  0
 28 53  1  0
 28 54  1  0
 31 55  1  0
 32 56  1  0
M  END
$$$$
