[H]c1nc(N([H])c2c([H])c([H])c(N([H])C(=O)C([H])([H])c3c([H])n(C4([H])C([H])([H])C([H])([H])N(C([H])([H])[H])C([H])([H])C4([H])[H])c4c([H])c([H])c([H])c([H])c34)c([H])c2Cl)c2c([H])c3c([H])nn(C([H])([H])C([H])([H])c4nc([H])c([H])c([H])c4[H])c3c([H])c2n1
     RDKit          3D

 85 92  0  0  0  0  0  0  0  0999 V2000
   -8.5131   -3.7830    0.5788 C   0  0  0  0  0  0  0  0  0  0  0  0
   -8.3554   -2.4258    0.1091 N   0  0  0  0  0  0  0  0  0  0  0  0
   -7.1148   -1.8226    0.5346 C   0  0  0  0  0  0  0  0  0  0  0  0
   -7.3164   -0.7530    1.5794 C   0  0  0  0  0  0  0  0  0  0  0  0
   -8.1656    0.4039    1.0958 C   0  0  0  0  0  0  0  0  0  0  0  0
   -9.3240   -0.1618    0.3522 C   0  0  0  0  0  0  0  0  0  0  0  0
   -9.4778   -1.6681    0.5546 C   0  0  0  0  0  0  0  0  0  0  0  0
   -7.3948    1.3945    0.3880 N   0  0  0  0  0  0  0  0  0  0  0  0
   -6.0588    1.3298    0.0836 C   0  0  0  0  0  0  0  0  0  0  0  0
   -5.6739    2.4568   -0.5863 C   0  0  0  0  0  0  0  0  0  0  0  0
   -4.4016    2.8975   -1.1377 C   0  0  0  0  0  0  0  0  0  0  0  0
   -3.2421    2.0890   -0.7422 C   0  0  0  0  0  0  0  0  0  0  0  0
   -3.3191    1.1079    0.0166 O   0  0  0  0  0  0  0  0  0  0  0  0
   -1.9920    2.5069   -1.2934 N   0  0  0  0  0  0  0  0  0  0  0  0
   -0.7776    1.8846   -1.0354 C   0  0  0  0  0  0  0  0  0  0  0  0
   -0.5014    1.1183    0.0500 C   0  0  0  0  0  0  0  0  0  0  0  0
    0.7255    0.4811    0.2777 C   0  0  0  0  0  0  0  0  0  0  0  0
    1.7357    0.6202   -0.6351 C   0  0  0  0  0  0  0  0  0  0  0  0
    3.0152    0.0377   -0.5333 N   0  0  0  0  0  0  0  0  0  0  0  0
    3.5359   -0.7553    0.4867 C   0  0  0  0  0  0  0  0  0  0  0  0
    2.8819   -1.1130    1.6043 N   0  0  0  0  0  0  0  0  0  0  0  0
    3.3832   -1.8665    2.5865 C   0  0  0  0  0  0  0  0  0  0  0  0
    4.6515   -2.3196    2.4711 N   0  0  0  0  0  0  0  0  0  0  0  0
    5.3945   -2.0197    1.3911 C   0  0  0  0  0  0  0  0  0  0  0  0
    6.6956   -2.4937    1.2943 C   0  0  0  0  0  0  0  0  0  0  0  0
    7.4839   -2.2015    0.1997 C   0  0  0  0  0  0  0  0  0  0  0  0
    8.7446   -2.5208   -0.1369 N   0  0  0  0  0  0  0  0  0  0  0  0
    9.7068   -3.3315    0.5622 C   0  0  0  0  0  0  0  0  0  0  0  0
   10.4878   -2.5064    1.5262 C   0  0  0  0  0  0  0  0  0  0  0  0
   11.1950   -1.4244    0.8532 C   0  0  0  0  0  0  0  0  0  0  0  0
   10.6106   -0.1595    0.7472 C   0  0  0  0  0  0  0  0  0  0  0  0
   11.2782    0.8528    0.1024 C   0  0  0  0  0  0  0  0  0  0  0  0
   12.5203    0.6499   -0.4471 C   0  0  0  0  0  0  0  0  0  0  0  0
   13.0818   -0.6219   -0.3279 C   0  0  0  0  0  0  0  0  0  0  0  0
   12.4149   -1.6044    0.3078 N   0  0  0  0  0  0  0  0  0  0  0  0
    8.9999   -1.9545   -1.3309 N   0  0  0  0  0  0  0  0  0  0  0  0
    7.9193   -1.2766   -1.7642 C   0  0  0  0  0  0  0  0  0  0  0  0
    6.9491   -1.4259   -0.7995 C   0  0  0  0  0  0  0  0  0  0  0  0
    5.6287   -0.9467   -0.6979 C   0  0  0  0  0  0  0  0  0  0  0  0
    4.8500   -1.2382    0.3901 C   0  0  0  0  0  0  0  0  0  0  0  0
    1.4760    1.4123   -1.7730 C   0  0  0  0  0  0  0  0  0  0  0  0
    2.7655    1.6123   -2.9710 Cl  0  0  0  0  0  0  0  0  0  0  0  0
    0.2759    2.0206   -1.9715 C   0  0  0  0  0  0  0  0  0  0  0  0
   -6.8544    3.2309   -0.6831 C   0  0  0  0  0  0  0  0  0  0  0  0
   -7.0699    4.4685   -1.2584 C   0  0  0  0  0  0  0  0  0  0  0  0
   -8.3462    5.0191   -1.2165 C   0  0  0  0  0  0  0  0  0  0  0  0
   -9.3643    4.3247   -0.6060 C   0  0  0  0  0  0  0  0  0  0  0  0
   -9.1729    3.1045   -0.0332 C   0  0  0  0  0  0  0  0  0  0  0  0
   -7.8775    2.5526   -0.0799 C   0  0  0  0  0  0  0  0  0  0  0  0
   -8.5640   -3.8687    1.6635 H   0  0  0  0  0  0  0  0  0  0  0  0
   -9.5120   -4.1226    0.1951 H   0  0  0  0  0  0  0  0  0  0  0  0
   -7.7650   -4.4670    0.1328 H   0  0  0  0  0  0  0  0  0  0  0  0
   -6.4657   -2.5999    1.0367 H   0  0  0  0  0  0  0  0  0  0  0  0
   -6.5890   -1.4839   -0.3585 H   0  0  0  0  0  0  0  0  0  0  0  0
   -7.8212   -1.2667    2.4512 H   0  0  0  0  0  0  0  0  0  0  0  0
   -6.3287   -0.4601    1.9547 H   0  0  0  0  0  0  0  0  0  0  0  0
   -8.5325    0.9107    2.0318 H   0  0  0  0  0  0  0  0  0  0  0  0
  -10.2840    0.2505    0.7933 H   0  0  0  0  0  0  0  0  0  0  0  0
   -9.3689    0.0735   -0.7134 H   0  0  0  0  0  0  0  0  0  0  0  0
   -9.7216   -1.8490    1.6184 H   0  0  0  0  0  0  0  0  0  0  0  0
  -10.3934   -1.9560   -0.0333 H   0  0  0  0  0  0  0  0  0  0  0  0
   -5.4705    0.4647    0.3728 H   0  0  0  0  0  0  0  0  0  0  0  0
   -4.1511    3.9547   -0.8728 H   0  0  0  0  0  0  0  0  0  0  0  0
   -4.4578    2.9194   -2.2693 H   0  0  0  0  0  0  0  0  0  0  0  0
   -1.9714    3.3521   -1.9490 H   0  0  0  0  0  0  0  0  0  0  0  0
   -1.2284    0.9660    0.8345 H   0  0  0  0  0  0  0  0  0  0  0  0
    0.8515   -0.1110    1.1692 H   0  0  0  0  0  0  0  0  0  0  0  0
    3.6699    0.2338   -1.3509 H   0  0  0  0  0  0  0  0  0  0  0  0
    2.8305   -2.1310    3.4621 H   0  0  0  0  0  0  0  0  0  0  0  0
    7.1353   -3.1085    2.0723 H   0  0  0  0  0  0  0  0  0  0  0  0
    9.1299   -4.1556    1.0839 H   0  0  0  0  0  0  0  0  0  0  0  0
   10.3706   -3.8506   -0.1887 H   0  0  0  0  0  0  0  0  0  0  0  0
   11.2394   -3.1517    2.0408 H   0  0  0  0  0  0  0  0  0  0  0  0
    9.7488   -2.1184    2.2818 H   0  0  0  0  0  0  0  0  0  0  0  0
    9.6160    0.0293    1.1800 H   0  0  0  0  0  0  0  0  0  0  0  0
   10.7732    1.8315    0.0471 H   0  0  0  0  0  0  0  0  0  0  0  0
   13.0238    1.4710   -0.9524 H   0  0  0  0  0  0  0  0  0  0  0  0
   14.0644   -0.7786   -0.7649 H   0  0  0  0  0  0  0  0  0  0  0  0
    7.7992   -0.7166   -2.6779 H   0  0  0  0  0  0  0  0  0  0  0  0
    5.3032   -0.3509   -1.5288 H   0  0  0  0  0  0  0  0  0  0  0  0
    0.0787    2.6270   -2.8422 H   0  0  0  0  0  0  0  0  0  0  0  0
   -6.2500    4.9871   -1.7303 H   0  0  0  0  0  0  0  0  0  0  0  0
   -8.5203    5.9896   -1.6664 H   0  0  0  0  0  0  0  0  0  0  0  0
  -10.3709    4.7536   -0.5690 H   0  0  0  0  0  0  0  0  0  0  0  0
   -9.9619    2.5500    0.4520 H   0  0  0  0  0  0  0  0  0  0  0  0
  1  2  1  0
  2  3  1  0
  3  4  1  0
  4  5  1  0
  5  6  1  0
  6  7  1  0
  5  8  1  0
  8  9  1  0
  9 10  2  0
 10 11  1  0
 11 12  1  0
 12 13  2  0
 12 14  1  0
 14 15  1  0
 15 16  2  0
 16 17  1  0
 17 18  2  0
 18 19  1  0
 19 20  1  0
 20 21  2  0
 21 22  1  0
 22 23  2  0
 23 24  1  0
 24 25  2  0
 25 26  1  0
 26 27  1  0
 27 28  1  0
 28 29  1  0
 29 30  1  0
 30 31  2  0
 31 32  1  0
 32 33  2  0
 33 34  1  0
 34 35  2  0
 27 36  1  0
 36 37  2  0
 37 38  1  0
 38 39  1  0
 39 40  2  0
 18 41  1  0
 41 42  1  0
 41 43  2  0
 10 44  1  0
 44 45  2  0
 45 46  1  0
 46 47  2  0
 47 48  1  0
 48 49  2  0
  7  2  1  0
 49  8  1  0
 43 15  1  0
 49 44  1  0
 40 20  1  0
 40 24  1  0
 38 26  2  0
 35 30  1  0
  1 50  1  0
  1 51  1  0
  1 52  1  0
  3 53  1  0
  3 54  1  0
  4 55  1  0
  4 56  1  0
  5 57  1  0
  6 58  1  0
  6 59  1  0
  7 60  1  0
  7 61  1  0
  9 62  1  0
 11 63  1  0
 11 64  1  0
 14 65  1  0
 16 66  1  0
 17 67  1  0
 19 68  1  0
 22 69  1  0
 25 70  1  0
 28 71  1  0
 28 72  1  0
 29 73  1  0
 29 74  1  0
 31 75  1  0
 32 76  1  0
 33 77  1  0
 34 78  1  0
 37 79  1  0
 39 80  1  0
 43 81  1  0
 45 82  1  0
 46 83  1  0
 47 84  1  0
 48 85  1  0
M  END
$$$$
[H]Oc1c([H])c([H])c(C([H])([H])OC([H])([H])C([H])([H])C([H])([H])c2c([H])c([H])c([H])c([H])c2[H])c([H])c1N([H])C(=O)c1oc(-c2sc(C([H])([H])O[H])c([H])c2[H])c([H])c1[H]
     RDKit          3D

 58 61  0  0  0  0  0  0  0  0999 V2000
  -11.1423   -0.1809   -2.8611 O   0  0  0  0  0  0  0  0  0  0  0  0
  -10.9049   -0.6588   -1.5850 C   0  0  0  0  0  0  0  0  0  0  0  0
   -9.4328   -0.6091   -1.2576 C   0  0  0  0  0  0  0  0  0  0  0  0
   -8.7570    0.4293   -0.6779 C   0  0  0  0  0  0  0  0  0  0  0  0
   -7.4464    0.2752   -0.4702 C   0  0  0  0  0  0  0  0  0  0  0  0
   -6.8784   -0.9150   -0.8551 C   0  0  0  0  0  0  0  0  0  0  0  0
   -8.2143   -1.7737   -1.4962 S   0  0  0  0  0  0  0  0  0  0  0  0
   -5.4742   -1.3251   -0.7360 C   0  0  0  0  0  0  0  0  0  0  0  0
   -4.9986   -2.5451   -1.1530 C   0  0  0  0  0  0  0  0  0  0  0  0
   -3.6245   -2.5810   -0.8818 C   0  0  0  0  0  0  0  0  0  0  0  0
   -3.3733   -1.3403   -0.3046 C   0  0  0  0  0  0  0  0  0  0  0  0
   -4.4839   -0.6663   -0.2509 O   0  0  0  0  0  0  0  0  0  0  0  0
   -2.0476   -0.8726    0.1697 C   0  0  0  0  0  0  0  0  0  0  0  0
   -1.0748   -1.6487    0.0442 O   0  0  0  0  0  0  0  0  0  0  0  0
   -1.9346    0.3926    0.7283 N   0  0  0  0  0  0  0  0  0  0  0  0
   -0.7996    1.0560    1.2457 C   0  0  0  0  0  0  0  0  0  0  0  0
    0.4564    0.5272    1.2850 C   0  0  0  0  0  0  0  0  0  0  0  0
    1.5768    1.1860    1.7976 C   0  0  0  0  0  0  0  0  0  0  0  0
    2.9256    0.5658    1.8179 C   0  0  0  0  0  0  0  0  0  0  0  0
    2.8207   -0.6873    1.2679 O   0  0  0  0  0  0  0  0  0  0  0  0
    3.9866   -1.4089    1.2092 C   0  0  0  0  0  0  0  0  0  0  0  0
    5.0496   -0.7148    0.3831 C   0  0  0  0  0  0  0  0  0  0  0  0
    6.3140   -1.5546    0.3507 C   0  0  0  0  0  0  0  0  0  0  0  0
    7.3051   -0.8221   -0.4683 C   0  0  0  0  0  0  0  0  0  0  0  0
    7.4006   -1.0160   -1.8450 C   0  0  0  0  0  0  0  0  0  0  0  0
    8.3231   -0.3317   -2.5956 C   0  0  0  0  0  0  0  0  0  0  0  0
    9.1669    0.5579   -1.9885 C   0  0  0  0  0  0  0  0  0  0  0  0
    9.0991    0.7753   -0.6205 C   0  0  0  0  0  0  0  0  0  0  0  0
    8.1636    0.0731    0.0997 C   0  0  0  0  0  0  0  0  0  0  0  0
    1.4111    2.4501    2.2967 C   0  0  0  0  0  0  0  0  0  0  0  0
    0.1588    3.0277    2.2787 C   0  0  0  0  0  0  0  0  0  0  0  0
   -0.9138    2.3538    1.7698 C   0  0  0  0  0  0  0  0  0  0  0  0
   -2.1521    2.9748    1.7730 O   0  0  0  0  0  0  0  0  0  0  0  0
  -11.8052   -0.7399   -3.3024 H   0  0  0  0  0  0  0  0  0  0  0  0
  -11.4478   -0.1241   -0.7932 H   0  0  0  0  0  0  0  0  0  0  0  0
  -11.1888   -1.7321   -1.5175 H   0  0  0  0  0  0  0  0  0  0  0  0
   -9.3032    1.3593   -0.3985 H   0  0  0  0  0  0  0  0  0  0  0  0
   -6.7958    1.0540   -0.0056 H   0  0  0  0  0  0  0  0  0  0  0  0
   -5.5640   -3.3434   -1.6086 H   0  0  0  0  0  0  0  0  0  0  0  0
   -2.9485   -3.3779   -1.0781 H   0  0  0  0  0  0  0  0  0  0  0  0
   -2.8383    0.9833    0.7898 H   0  0  0  0  0  0  0  0  0  0  0  0
    0.6643   -0.4546    0.9140 H   0  0  0  0  0  0  0  0  0  0  0  0
    3.5759    1.2012    1.1476 H   0  0  0  0  0  0  0  0  0  0  0  0
    3.3932    0.5892    2.8173 H   0  0  0  0  0  0  0  0  0  0  0  0
    4.3863   -1.6871    2.2201 H   0  0  0  0  0  0  0  0  0  0  0  0
    3.7649   -2.3666    0.6951 H   0  0  0  0  0  0  0  0  0  0  0  0
    5.3568    0.2504    0.8804 H   0  0  0  0  0  0  0  0  0  0  0  0
    4.6262   -0.5454   -0.6245 H   0  0  0  0  0  0  0  0  0  0  0  0
    6.6470   -1.6801    1.3983 H   0  0  0  0  0  0  0  0  0  0  0  0
    6.0919   -2.5462   -0.1206 H   0  0  0  0  0  0  0  0  0  0  0  0
    6.7020   -1.7359   -2.2659 H   0  0  0  0  0  0  0  0  0  0  0  0
    8.3755   -0.4983   -3.6457 H   0  0  0  0  0  0  0  0  0  0  0  0
    9.9244    1.1344   -2.5331 H   0  0  0  0  0  0  0  0  0  0  0  0
    9.7713    1.4828   -0.1427 H   0  0  0  0  0  0  0  0  0  0  0  0
    8.0767    0.2148    1.1821 H   0  0  0  0  0  0  0  0  0  0  0  0
    2.2552    2.9915    2.7019 H   0  0  0  0  0  0  0  0  0  0  0  0
    0.0638    4.0295    2.6818 H   0  0  0  0  0  0  0  0  0  0  0  0
   -2.2891    3.9071    2.1380 H   0  0  0  0  0  0  0  0  0  0  0  0
  1  2  1  0
  2  3  1  0
  3  4  2  0
  4  5  1  0
  5  6  2  0
  6  7  1  0
  6  8  1  0
  8  9  2  0
  9 10  1  0
 10 11  2  0
 11 12  1  0
 11 13  1  0
 13 14  2  0
 13 15  1  0
 15 16  1  0
 16 17  2  0
 17 18  1  0
 18 19  1  0
 19 20  1  0
 20 21  1  0
 21 22  1  0
 22 23  1  0
 23 24  1  0
 24 25  2  0
 25 26  1  0
 26 27  2  0
 27 28  1  0
 28 29  2  0
 18 30  2  0
 30 31  1  0
 31 32  2  0
 32 33  1  0
  7  3  1  0
 12  8  1  0
 32 16  1  0
 29 24  1  0
  1 34  1  0
  2 35  1  0
  2 36  1  0
  4 37  1  0
  5 38  1  0
  9 39  1  0
 10 40  1  0
 15 41  1  0
 17 42  1  0
 19 43  1  0
 19 44  1  0
 21 45  1  0
 21 46  1  0
 22 47  1  0
 22 48  1  0
 23 49  1  0
 23 50  1  0
 25 51  1  0
 26 52  1  0
 27 53  1  0
 28 54  1  0
 29 55  1  0
 30 56  1  0
 31 57  1  0
 33 58  1  0
M  END
$$$$
[H]C([H])=C([H])C(=O)N([H])c1c(OC([H])([H])/C([H])=C2\C([H])([H])C3([H])C([H])([H])N(C([H])([H])[H])C([H])([H])[C@@]3([H])C2([H])[H])c([H])c2nc([H])nc(N([H])c3c([H])c([H])c(F)c(Cl)c3[H])c2c1[H]
     RDKit          3D

 63 67  0  0  0  0  0  0  0  0999 V2000
   -6.6590    1.4951    2.1394 C   0  0  0  0  0  0  0  0  0  0  0  0
   -6.2230    0.3798    1.3407 N   0  0  0  0  0  0  0  0  0  0  0  0
   -4.7814    0.2780    1.4880 C   0  0  0  0  0  0  0  0  0  0  0  0
   -4.6220   -0.6088    2.6939 C   0  0  0  0  0  0  0  0  0  0  0  0
   -3.3181   -1.3895    2.6940 C   0  0  0  0  0  0  0  0  0  0  0  0
   -3.4706   -2.1922    1.4833 C   0  0  0  0  0  0  0  0  0  0  0  0
   -2.3878   -2.6259    0.7291 C   0  0  0  0  0  0  0  0  0  0  0  0
   -1.0331   -2.2451    1.2315 C   0  0  0  0  0  0  0  0  0  0  0  0
   -0.3089   -1.4776    0.4643 O   0  0  0  0  0  0  0  0  0  0  0  0
    0.8841   -0.9675    0.2349 C   0  0  0  0  0  0  0  0  0  0  0  0
    1.9918   -1.3778    0.9760 C   0  0  0  0  0  0  0  0  0  0  0  0
    3.2415   -0.9120    0.7907 C   0  0  0  0  0  0  0  0  0  0  0  0
    4.2465   -1.3682    1.5658 N   0  0  0  0  0  0  0  0  0  0  0  0
    5.5082   -0.8534    1.3587 C   0  0  0  0  0  0  0  0  0  0  0  0
    5.7001    0.0526    0.4272 N   0  0  0  0  0  0  0  0  0  0  0  0
    4.7690    0.5705   -0.3971 C   0  0  0  0  0  0  0  0  0  0  0  0
    5.0219    1.4780   -1.4278 N   0  0  0  0  0  0  0  0  0  0  0  0
    6.2599    2.1538   -1.6200 C   0  0  0  0  0  0  0  0  0  0  0  0
    6.5977    2.6854   -2.8168 C   0  0  0  0  0  0  0  0  0  0  0  0
    7.7873    3.4088   -2.9943 C   0  0  0  0  0  0  0  0  0  0  0  0
    8.6866    3.6280   -2.0104 C   0  0  0  0  0  0  0  0  0  0  0  0
    9.8381    4.2978   -2.1156 F   0  0  0  0  0  0  0  0  0  0  0  0
    8.3449    3.0659   -0.7127 C   0  0  0  0  0  0  0  0  0  0  0  0
    9.4641    3.3464    0.5794 Cl  0  0  0  0  0  0  0  0  0  0  0  0
    7.1868    2.3799   -0.5846 C   0  0  0  0  0  0  0  0  0  0  0  0
    3.4937    0.0659   -0.2002 C   0  0  0  0  0  0  0  0  0  0  0  0
    2.4128    0.5006   -0.9626 C   0  0  0  0  0  0  0  0  0  0  0  0
    1.1180   -0.0235   -0.7402 C   0  0  0  0  0  0  0  0  0  0  0  0
    0.0813    0.2308   -1.5688 N   0  0  0  0  0  0  0  0  0  0  0  0
   -0.9617    0.5198   -2.4066 C   0  0  0  0  0  0  0  0  0  0  0  0
   -1.4170    1.5325   -2.9300 O   0  0  0  0  0  0  0  0  0  0  0  0
   -1.6882   -0.7747   -2.7059 C   0  0  0  0  0  0  0  0  0  0  0  0
   -2.6974   -1.0774   -3.3521 C   0  0  0  0  0  0  0  0  0  0  0  0
   -4.8704   -2.4634    1.2321 C   0  0  0  0  0  0  0  0  0  0  0  0
   -5.6321   -1.7083    2.3003 C   0  0  2  0  0  0  0  0  0  0  0  0
   -6.7761   -0.8905    1.7417 C   0  0  0  0  0  0  0  0  0  0  0  0
   -6.9955    1.2794    3.1486 H   0  0  0  0  0  0  0  0  0  0  0  0
   -5.8020    2.2476    2.2644 H   0  0  0  0  0  0  0  0  0  0  0  0
   -7.4402    2.0570    1.5630 H   0  0  0  0  0  0  0  0  0  0  0  0
   -4.3234   -0.2098    0.6152 H   0  0  0  0  0  0  0  0  0  0  0  0
   -4.3607    1.3016    1.6230 H   0  0  0  0  0  0  0  0  0  0  0  0
   -4.7945   -0.1743    3.6451 H   0  0  0  0  0  0  0  0  0  0  0  0
   -2.5453   -0.5710    2.4078 H   0  0  0  0  0  0  0  0  0  0  0  0
   -3.0229   -1.8448    3.6122 H   0  0  0  0  0  0  0  0  0  0  0  0
   -2.6163   -3.1994   -0.1234 H   0  0  0  0  0  0  0  0  0  0  0  0
   -0.4938   -3.2543    1.4193 H   0  0  0  0  0  0  0  0  0  0  0  0
   -1.0982   -1.8778    2.3237 H   0  0  0  0  0  0  0  0  0  0  0  0
    1.8462   -2.1456    1.7412 H   0  0  0  0  0  0  0  0  0  0  0  0
    6.3564   -1.1902    1.9601 H   0  0  0  0  0  0  0  0  0  0  0  0
    4.3043    1.7231   -2.1708 H   0  0  0  0  0  0  0  0  0  0  0  0
    5.9368    2.5681   -3.6674 H   0  0  0  0  0  0  0  0  0  0  0  0
    7.9558    3.8058   -4.0030 H   0  0  0  0  0  0  0  0  0  0  0  0
    6.8538    2.0173    0.3966 H   0  0  0  0  0  0  0  0  0  0  0  0
    2.5990    1.2112   -1.7182 H   0  0  0  0  0  0  0  0  0  0  0  0
    0.2609    1.5915   -1.3162 H   0  0  0  0  0  0  0  0  0  0  0  0
   -1.1724   -1.6533   -2.1719 H   0  0  0  0  0  0  0  0  0  0  0  0
   -2.9207   -2.2373   -3.3405 H   0  0  0  0  0  0  0  0  0  0  0  0
   -3.4091   -0.5535   -3.9134 H   0  0  0  0  0  0  0  0  0  0  0  0
   -5.1259   -3.5676    1.2694 H   0  0  0  0  0  0  0  0  0  0  0  0
   -5.1305   -2.0408    0.2399 H   0  0  0  0  0  0  0  0  0  0  0  0
   -5.8626   -2.3085    3.1893 H   0  0  0  0  0  0  0  0  0  0  0  0
   -7.4242   -0.6850    2.6537 H   0  0  0  0  0  0  0  0  0  0  0  0
   -7.3624   -1.4028    0.9823 H   0  0  0  0  0  0  0  0  0  0  0  0
  1  2  1  0
  2  3  1  0
  3  4  1  0
  4  5  1  0
  5  6  1  0
  6  7  2  0
  7  8  1  0
  8  9  1  0
  9 10  1  0
 10 11  2  0
 11 12  1  0
 12 13  2  0
 13 14  1  0
 14 15  2  0
 15 16  1  0
 16 17  1  0
 17 18  1  0
 18 19  2  0
 19 20  1  0
 20 21  2  0
 21 22  1  0
 21 23  1  0
 23 24  1  0
 23 25  2  0
 16 26  2  0
 26 27  1  0
 27 28  2  0
 28 29  1  0
 29 30  1  0
 30 31  2  0
 30 32  1  0
 32 33  2  3
  6 34  1  0
 34 35  1  0
 35 36  1  0
 36  2  1  0
 35  4  1  0
 28 10  1  0
 26 12  1  0
 25 18  1  0
  1 37  1  0
  1 38  1  0
  1 39  1  0
  3 40  1  0
  3 41  1  0
  4 42  1  0
  5 43  1  0
  5 44  1  0
  7 45  1  0
  8 46  1  0
  8 47  1  0
 11 48  1  0
 14 49  1  0
 17 50  1  0
 19 51  1  0
 20 52  1  0
 25 53  1  0
 27 54  1  0
 29 55  1  0
 32 56  1  0
 33 57  1  0
 33 58  1  0
 34 59  1  0
 34 60  1  0
 35 61  1  1
 36 62  1  0
 36 63  1  0
M  END
$$$$
[H]/C(C(=O)N([H])c1c(OC([H])([H])[H])c([H])c2nc([H])nc(N([H])c3c([H])c([H])c(F)c(Cl)c3[H])c2c1[H])=C(/[H])C([H])([H])N1C([H])([H])C2([H])C([H])([H])C([H])([H])C1([H])C([H])([H])C2([H])[H]
     RDKit          3D

 62 66  0  0  0  0  0  0  0  0999 V2000
    0.1374   -4.6648   -0.3458 C   0  0  0  0  0  0  0  0  0  0  0  0
    0.1383   -3.2565   -0.4603 O   0  0  0  0  0  0  0  0  0  0  0  0
    1.2908   -2.5128   -0.2870 C   0  0  0  0  0  0  0  0  0  0  0  0
    2.4496   -3.1830    0.0028 C   0  0  0  0  0  0  0  0  0  0  0  0
    3.6389   -2.5336    0.1912 C   0  0  0  0  0  0  0  0  0  0  0  0
    4.7791   -3.2038    0.4791 N   0  0  0  0  0  0  0  0  0  0  0  0
    5.9431   -2.5759    0.6660 C   0  0  0  0  0  0  0  0  0  0  0  0
    5.9857   -1.2537    0.5670 N   0  0  0  0  0  0  0  0  0  0  0  0
    4.8805   -0.5353    0.2823 C   0  0  0  0  0  0  0  0  0  0  0  0
    4.9814    0.8591    0.1452 N   0  0  0  0  0  0  0  0  0  0  0  0
    6.2133    1.5309    0.3943 C   0  0  0  0  0  0  0  0  0  0  0  0
    6.5460    2.6301   -0.4161 C   0  0  0  0  0  0  0  0  0  0  0  0
    7.7026    3.3193   -0.1767 C   0  0  0  0  0  0  0  0  0  0  0  0
    8.5507    2.9510    0.8513 C   0  0  0  0  0  0  0  0  0  0  0  0
    9.6942    3.6364    1.0837 F   0  0  0  0  0  0  0  0  0  0  0  0
    8.2641    1.8818    1.6694 C   0  0  0  0  0  0  0  0  0  0  0  0
    9.3098    1.3825    2.9806 Cl  0  0  0  0  0  0  0  0  0  0  0  0
    7.0710    1.1921    1.4028 C   0  0  0  0  0  0  0  0  0  0  0  0
    3.6560   -1.1804    0.0844 C   0  0  0  0  0  0  0  0  0  0  0  0
    2.4820   -0.4979   -0.2092 C   0  0  0  0  0  0  0  0  0  0  0  0
    1.2629   -1.1173   -0.4062 C   0  0  0  0  0  0  0  0  0  0  0  0
    0.0533   -0.4750   -0.7021 N   0  0  0  0  0  0  0  0  0  0  0  0
   -0.1736    0.8818   -0.8728 C   0  0  0  0  0  0  0  0  0  0  0  0
    0.7197    1.7661   -0.7815 O   0  0  0  0  0  0  0  0  0  0  0  0
   -1.5073    1.4358   -1.1834 C   0  0  0  0  0  0  0  0  0  0  0  0
   -2.6032    0.7315   -1.3286 C   0  0  0  0  0  0  0  0  0  0  0  0
   -3.9229    1.3410   -1.6421 C   0  0  0  0  0  0  0  0  0  0  0  0
   -4.9439    1.1296   -0.7045 N   0  0  0  0  0  0  0  0  0  0  0  0
   -4.8454    1.7344    0.5710 C   0  0  0  0  0  0  0  0  0  0  0  0
   -6.0449    1.2390    1.3824 C   0  0  0  0  0  0  0  0  0  0  0  0
   -7.3128    1.3001    0.5276 C   0  0  0  0  0  0  0  0  0  0  0  0
   -7.2092    0.4655   -0.7198 C   0  0  0  0  0  0  0  0  0  0  0  0
   -5.7561   -0.0268   -0.8185 C   0  0  0  0  0  0  0  0  0  0  0  0
   -5.5786   -0.9655    0.3817 C   0  0  0  0  0  0  0  0  0  0  0  0
   -5.8147   -0.2409    1.6782 C   0  0  0  0  0  0  0  0  0  0  0  0
    0.9559   -5.0652   -1.0032 H   0  0  0  0  0  0  0  0  0  0  0  0
   -0.8406   -5.0702   -0.6715 H   0  0  0  0  0  0  0  0  0  0  0  0
    0.3950   -4.9854    0.6868 H   0  0  0  0  0  0  0  0  0  0  0  0
    2.4821   -4.2790    0.0986 H   0  0  0  0  0  0  0  0  0  0  0  0
    6.8694   -3.1232    0.9004 H   0  0  0  0  0  0  0  0  0  0  0  0
    4.1790    1.4813   -0.1449 H   0  0  0  0  0  0  0  0  0  0  0  0
    5.8619    2.8998   -1.2189 H   0  0  0  0  0  0  0  0  0  0  0  0
    7.9897    4.1787   -0.7891 H   0  0  0  0  0  0  0  0  0  0  0  0
    6.8700    0.3713    2.0901 H   0  0  0  0  0  0  0  0  0  0  0  0
    2.5449    0.5746   -0.2804 H   0  0  0  0  0  0  0  0  0  0  0  0
   -0.7897   -1.1341   -0.8053 H   0  0  0  0  0  0  0  0  0  0  0  0
   -1.6354    2.5138   -1.3106 H   0  0  0  0  0  0  0  0  0  0  0  0
   -2.5511   -0.3361   -1.2172 H   0  0  0  0  0  0  0  0  0  0  0  0
   -3.8282    2.4360   -1.8437 H   0  0  0  0  0  0  0  0  0  0  0  0
   -4.2493    0.9012   -2.6195 H   0  0  0  0  0  0  0  0  0  0  0  0
   -3.9385    1.4581    1.1454 H   0  0  0  0  0  0  0  0  0  0  0  0
   -4.9672    2.8361    0.4658 H   0  0  0  0  0  0  0  0  0  0  0  0
   -6.2272    1.8329    2.2768 H   0  0  0  0  0  0  0  0  0  0  0  0
   -7.5876    2.3574    0.3135 H   0  0  0  0  0  0  0  0  0  0  0  0
   -8.1230    0.8689    1.1543 H   0  0  0  0  0  0  0  0  0  0  0  0
   -7.3128    1.1793   -1.5891 H   0  0  0  0  0  0  0  0  0  0  0  0
   -7.9214   -0.3591   -0.7588 H   0  0  0  0  0  0  0  0  0  0  0  0
   -5.5633   -0.5796   -1.7356 H   0  0  0  0  0  0  0  0  0  0  0  0
   -4.5794   -1.4437    0.3226 H   0  0  0  0  0  0  0  0  0  0  0  0
   -6.3491   -1.7553    0.2481 H   0  0  0  0  0  0  0  0  0  0  0  0
   -6.7647   -0.5757    2.1864 H   0  0  0  0  0  0  0  0  0  0  0  0
   -4.9573   -0.3677    2.3916 H   0  0  0  0  0  0  0  0  0  0  0  0
  1  2  1  0
  2  3  1  0
  3  4  2  0
  4  5  1  0
  5  6  2  0
  6  7  1  0
  7  8  2  0
  8  9  1  0
  9 10  1  0
 10 11  1  0
 11 12  2  0
 12 13  1  0
 13 14  2  0
 14 15  1  0
 14 16  1  0
 16 17  1  0
 16 18  2  0
  9 19  2  0
 19 20  1  0
 20 21  2  0
 21 22  1  0
 22 23  1  0
 23 24  2  0
 23 25  1  0
 25 26  2  0
 26 27  1  0
 27 28  1  0
 28 29  1  0
 29 30  1  0
 30 31  1  0
 31 32  1  0
 32 33  1  0
 33 34  1  0
 34 35  1  0
 21  3  1  0
 33 28  1  0
 19  5  1  0
 35 30  1  0
 18 11  1  0
  1 36  1  0
  1 37  1  0
  1 38  1  0
  4 39  1  0
  7 40  1  0
 10 41  1  0
 12 42  1  0
 13 43  1  0
 18 44  1  0
 20 45  1  0
 22 46  1  0
 25 47  1  0
 26 48  1  0
 27 49  1  0
 27 50  1  0
 29 51  1  0
 29 52  1  0
 30 53  1  0
 31 54  1  0
 31 55  1  0
 32 56  1  0
 32 57  1  0
 33 58  1  0
 34 59  1  0
 34 60  1  0
 35 61  1  0
 35 62  1  0
M  END
$$$$
[H]c1nc(N([H])[H])c(-c2nc3c([H])c([H])c([H])c([H])c3n2[H])c(N([H])c2c([H])c([H])c(OC([H])([H])c3c([H])c([H])c([H])c([H])c3[H])c(Cl)c2[H])n1
     RDKit          3D

 51 55  0  0  0  0  0  0  0  0999 V2000
   -5.7499    1.8522    0.2670 N   0  0  0  0  0  0  0  0  0  0  0  0
   -4.3589    2.1233    0.3852 C   0  0  0  0  0  0  0  0  0  0  0  0
   -4.0710    3.4268    0.6897 N   0  0  0  0  0  0  0  0  0  0  0  0
   -2.7836    3.7589    0.7800 C   0  0  0  0  0  0  0  0  0  0  0  0
   -1.8207    2.8599    0.5831 N   0  0  0  0  0  0  0  0  0  0  0  0
   -2.0703    1.5399    0.2770 C   0  0  0  0  0  0  0  0  0  0  0  0
   -0.9993    0.6400    0.1791 N   0  0  0  0  0  0  0  0  0  0  0  0
    0.3584    1.1594    0.2201 C   0  0  0  0  0  0  0  0  0  0  0  0
    1.3311    0.4143    0.8966 C   0  0  0  0  0  0  0  0  0  0  0  0
    2.6461    0.8430    0.9356 C   0  0  0  0  0  0  0  0  0  0  0  0
    3.0545    2.0041    0.3207 C   0  0  0  0  0  0  0  0  0  0  0  0
    4.3533    2.3929    0.3821 O   0  0  0  0  0  0  0  0  0  0  0  0
    5.4343    1.7869    0.9903 C   0  0  0  0  0  0  0  0  0  0  0  0
    5.7788    0.4358    0.4798 C   0  0  0  0  0  0  0  0  0  0  0  0
    6.4663   -0.4938    1.2298 C   0  0  0  0  0  0  0  0  0  0  0  0
    6.7830   -1.7521    0.7154 C   0  0  0  0  0  0  0  0  0  0  0  0
    6.4151   -2.1025   -0.5643 C   0  0  0  0  0  0  0  0  0  0  0  0
    5.7295   -1.1813   -1.3182 C   0  0  0  0  0  0  0  0  0  0  0  0
    5.4207    0.0629   -0.7988 C   0  0  0  0  0  0  0  0  0  0  0  0
    2.0924    2.7297   -0.3420 C   0  0  0  0  0  0  0  0  0  0  0  0
    2.5013    4.2211   -1.1579 Cl  0  0  0  0  0  0  0  0  0  0  0  0
    0.7523    2.3117   -0.3937 C   0  0  0  0  0  0  0  0  0  0  0  0
   -3.3834    1.1639    0.1747 C   0  0  0  0  0  0  0  0  0  0  0  0
   -3.7360   -0.2184   -0.1158 C   0  0  0  0  0  0  0  0  0  0  0  0
   -2.9637   -1.1500   -0.7344 N   0  0  0  0  0  0  0  0  0  0  0  0
   -3.6788   -2.2618   -0.8849 C   0  0  0  0  0  0  0  0  0  0  0  0
   -3.3535   -3.4761   -1.4472 C   0  0  0  0  0  0  0  0  0  0  0  0
   -4.2918   -4.4770   -1.4771 C   0  0  0  0  0  0  0  0  0  0  0  0
   -5.5749   -4.2867   -0.9463 C   0  0  0  0  0  0  0  0  0  0  0  0
   -5.8875   -3.0577   -0.3832 C   0  0  0  0  0  0  0  0  0  0  0  0
   -4.9381   -2.0667   -0.3608 C   0  0  0  0  0  0  0  0  0  0  0  0
   -4.9309   -0.7864    0.1064 N   0  0  0  0  0  0  0  0  0  0  0  0
   -6.3792    1.8461    1.1067 H   0  0  0  0  0  0  0  0  0  0  0  0
   -6.1827    1.6532   -0.6471 H   0  0  0  0  0  0  0  0  0  0  0  0
   -2.5230    4.7778    1.0175 H   0  0  0  0  0  0  0  0  0  0  0  0
   -1.0278   -0.3883    0.0967 H   0  0  0  0  0  0  0  0  0  0  0  0
    1.0074   -0.5025    1.3816 H   0  0  0  0  0  0  0  0  0  0  0  0
    3.3219    0.1918    1.4953 H   0  0  0  0  0  0  0  0  0  0  0  0
    6.3508    2.4069    1.0139 H   0  0  0  0  0  0  0  0  0  0  0  0
    5.1620    1.6720    2.0842 H   0  0  0  0  0  0  0  0  0  0  0  0
    6.7734   -0.2720    2.2249 H   0  0  0  0  0  0  0  0  0  0  0  0
    7.3302   -2.4862    1.3184 H   0  0  0  0  0  0  0  0  0  0  0  0
    6.6709   -3.0980   -0.9582 H   0  0  0  0  0  0  0  0  0  0  0  0
    5.4445   -1.4742   -2.3318 H   0  0  0  0  0  0  0  0  0  0  0  0
    4.8865    0.7537   -1.4140 H   0  0  0  0  0  0  0  0  0  0  0  0
    0.0366    2.9141   -0.9552 H   0  0  0  0  0  0  0  0  0  0  0  0
   -2.3846   -3.6329   -1.8528 H   0  0  0  0  0  0  0  0  0  0  0  0
   -4.0516   -5.4277   -1.9121 H   0  0  0  0  0  0  0  0  0  0  0  0
   -6.3142   -5.0657   -0.9664 H   0  0  0  0  0  0  0  0  0  0  0  0
   -6.8594   -2.8620    0.0377 H   0  0  0  0  0  0  0  0  0  0  0  0
   -5.7866   -0.4173    0.5722 H   0  0  0  0  0  0  0  0  0  0  0  0
  1  2  1  0
  2  3  2  0
  3  4  1  0
  4  5  2  0
  5  6  1  0
  6  7  1  0
  7  8  1  0
  8  9  2  0
  9 10  1  0
 10 11  2  0
 11 12  1  0
 12 13  1  0
 13 14  1  0
 14 15  2  0
 15 16  1  0
 16 17  2  0
 17 18  1  0
 18 19  2  0
 11 20  1  0
 20 21  1  0
 20 22  2  0
  6 23  2  0
 23 24  1  0
 24 25  2  0
 25 26  1  0
 26 27  2  0
 27 28  1  0
 28 29  2  0
 29 30  1  0
 30 31  2  0
 31 32  1  0
 23  2  1  0
 32 24  1  0
 22  8  1  0
 31 26  1  0
 19 14  1  0
  1 33  1  0
  1 34  1  0
  4 35  1  0
  7 36  1  0
  9 37  1  0
 10 38  1  0
 13 39  1  0
 13 40  1  0
 15 41  1  0
 16 42  1  0
 17 43  1  0
 18 44  1  0
 19 45  1  0
 22 46  1  0
 27 47  1  0
 28 48  1  0
 29 49  1  0
 30 50  1  0
 32 51  1  0
M  END
$$$$
[H]c1nc(N([H])c2c([H])c([H])c3c(c([H])nn3C([H])([H])C([H])([H])c3c([H])c([H])c([H])c([H])c3[H])c2[H])c2c(C([H])([H])N3C([H])([H])C([H])([H])C([H])(N([H])[H])C([H])([H])C3([H])[H])c([H])c([H])n2n1
     RDKit          3D

 65 70  0  0  0  0  0  0  0  0999 V2000
   -8.0477   -2.0194    0.7646 N   0  0  0  0  0  0  0  0  0  0  0  0
   -6.6926   -2.1822    0.2919 C   0  0  0  0  0  0  0  0  0  0  0  0
   -5.7055   -2.3286    1.3995 C   0  0  0  0  0  0  0  0  0  0  0  0
   -4.2668   -2.0736    0.9259 C   0  0  0  0  0  0  0  0  0  0  0  0
   -4.1811   -0.9177    0.1623 N   0  0  0  0  0  0  0  0  0  0  0  0
   -3.0817   -0.5180   -0.5715 C   0  0  0  0  0  0  0  0  0  0  0  0
   -3.3555    0.8447   -1.1011 C   0  0  0  0  0  0  0  0  0  0  0  0
   -4.1666    1.2339   -2.1304 C   0  0  0  0  0  0  0  0  0  0  0  0
   -3.9917    2.5920   -2.3012 C   0  0  0  0  0  0  0  0  0  0  0  0
   -3.0984    3.0156   -1.4012 N   0  0  0  0  0  0  0  0  0  0  0  0
   -2.5136    4.2013   -1.1887 N   0  0  0  0  0  0  0  0  0  0  0  0
   -1.5442    4.3899   -0.2856 C   0  0  0  0  0  0  0  0  0  0  0  0
   -1.1376    3.3241    0.4384 N   0  0  0  0  0  0  0  0  0  0  0  0
   -1.7118    2.0962    0.2566 C   0  0  0  0  0  0  0  0  0  0  0  0
   -1.3031    0.9977    1.1286 N   0  0  0  0  0  0  0  0  0  0  0  0
    0.1480    1.0117    1.1487 C   0  0  0  0  0  0  0  0  0  0  0  0
    1.0630    0.6514    2.0226 C   0  0  0  0  0  0  0  0  0  0  0  0
    2.4185    0.5309    1.6832 C   0  0  0  0  0  0  0  0  0  0  0  0
    2.8569    0.7926    0.3829 C   0  0  0  0  0  0  0  0  0  0  0  0
    4.0207    0.7518   -0.2564 N   0  0  0  0  0  0  0  0  0  0  0  0
    5.3228    0.4373    0.1746 C   0  0  0  0  0  0  0  0  0  0  0  0
    5.6120   -1.0566    0.1322 C   0  0  0  0  0  0  0  0  0  0  0  0
    7.1089   -1.1741    0.3102 C   0  0  0  0  0  0  0  0  0  0  0  0
    7.6738   -2.4060    0.0622 C   0  0  0  0  0  0  0  0  0  0  0  0
    9.0647   -2.5028    0.0319 C   0  0  0  0  0  0  0  0  0  0  0  0
    9.8182   -1.3696    0.2498 C   0  0  0  0  0  0  0  0  0  0  0  0
    9.2705   -0.1531    0.4972 C   0  0  0  0  0  0  0  0  0  0  0  0
    7.8811   -0.0625    0.5274 C   0  0  0  0  0  0  0  0  0  0  0  0
    3.8036    1.1057   -1.5728 N   0  0  0  0  0  0  0  0  0  0  0  0
    2.5256    1.3597   -1.7382 C   0  0  0  0  0  0  0  0  0  0  0  0
    1.8968    1.1686   -0.5203 C   0  0  0  0  0  0  0  0  0  0  0  0
    0.6077    1.2818   -0.1840 C   0  0  0  0  0  0  0  0  0  0  0  0
   -2.6870    1.9803   -0.6590 C   0  0  0  0  0  0  0  0  0  0  0  0
   -5.3662   -0.1740    0.1231 C   0  0  0  0  0  0  0  0  0  0  0  0
   -6.4145   -1.0246   -0.6433 C   0  0  0  0  0  0  0  0  0  0  0  0
   -8.5161   -1.1875    0.3247 H   0  0  0  0  0  0  0  0  0  0  0  0
   -8.1371   -2.0518    1.7814 H   0  0  0  0  0  0  0  0  0  0  0  0
   -6.6613   -3.0948   -0.3202 H   0  0  0  0  0  0  0  0  0  0  0  0
   -5.9144   -1.7384    2.3057 H   0  0  0  0  0  0  0  0  0  0  0  0
   -5.7031   -3.3920    1.7448 H   0  0  0  0  0  0  0  0  0  0  0  0
   -3.6795   -1.9347    1.8661 H   0  0  0  0  0  0  0  0  0  0  0  0
   -3.9329   -2.9530    0.3650 H   0  0  0  0  0  0  0  0  0  0  0  0
   -2.0674   -0.7587   -0.2829 H   0  0  0  0  0  0  0  0  0  0  0  0
   -3.0942   -1.2158   -1.5867 H   0  0  0  0  0  0  0  0  0  0  0  0
   -4.8194    0.6371   -2.7528 H   0  0  0  0  0  0  0  0  0  0  0  0
   -4.4724    3.2140   -3.0712 H   0  0  0  0  0  0  0  0  0  0  0  0
   -1.1329    5.3676   -0.1193 H   0  0  0  0  0  0  0  0  0  0  0  0
   -1.8731    0.3839    1.6165 H   0  0  0  0  0  0  0  0  0  0  0  0
    0.7134    0.4418    3.0384 H   0  0  0  0  0  0  0  0  0  0  0  0
    3.1615    0.2273    2.3953 H   0  0  0  0  0  0  0  0  0  0  0  0
    5.5204    0.7595    1.2210 H   0  0  0  0  0  0  0  0  0  0  0  0
    6.0515    0.9054   -0.5090 H   0  0  0  0  0  0  0  0  0  0  0  0
    5.0496   -1.6372    0.8517 H   0  0  0  0  0  0  0  0  0  0  0  0
    5.4019   -1.4528   -0.9075 H   0  0  0  0  0  0  0  0  0  0  0  0
    7.0765   -3.2894   -0.0932 H   0  0  0  0  0  0  0  0  0  0  0  0
    9.5862   -3.4228   -0.1522 H   0  0  0  0  0  0  0  0  0  0  0  0
   10.9098   -1.4103    0.2201 H   0  0  0  0  0  0  0  0  0  0  0  0
    9.8097    0.7794    0.6627 H   0  0  0  0  0  0  0  0  0  0  0  0
    7.4078    0.8846    0.7357 H   0  0  0  0  0  0  0  0  0  0  0  0
    1.9762    1.6563   -2.6401 H   0  0  0  0  0  0  0  0  0  0  0  0
   -0.1304    1.5672   -0.9393 H   0  0  0  0  0  0  0  0  0  0  0  0
   -5.7991   -0.1623    1.1923 H   0  0  0  0  0  0  0  0  0  0  0  0
   -5.3619    0.8655   -0.1366 H   0  0  0  0  0  0  0  0  0  0  0  0
   -7.2521   -0.3953   -0.9070 H   0  0  0  0  0  0  0  0  0  0  0  0
   -5.9439   -1.3971   -1.5833 H   0  0  0  0  0  0  0  0  0  0  0  0
  1  2  1  0
  2  3  1  0
  3  4  1  0
  4  5  1  0
  5  6  1  0
  6  7  1  0
  7  8  1  0
  8  9  2  0
  9 10  1  0
 10 11  1  0
 11 12  2  0
 12 13  1  0
 13 14  2  0
 14 15  1  0
 15 16  1  0
 16 17  2  0
 17 18  1  0
 18 19  2  0
 19 20  1  0
 20 21  1  0
 21 22  1  0
 22 23  1  0
 23 24  2  0
 24 25  1  0
 25 26  2  0
 26 27  1  0
 27 28  2  0
 20 29  1  0
 29 30  2  0
 30 31  1  0
 31 32  2  0
 14 33  1  0
  5 34  1  0
 34 35  1  0
 35  2  1  0
 33  7  2  0
 33 10  1  0
 32 16  1  0
 31 19  1  0
 28 23  1  0
  1 36  1  0
  1 37  1  0
  2 38  1  0
  3 39  1  0
  3 40  1  0
  4 41  1  0
  4 42  1  0
  6 43  1  0
  6 44  1  0
  8 45  1  0
  9 46  1  0
 12 47  1  0
 15 48  1  0
 17 49  1  0
 18 50  1  0
 21 51  1  0
 21 52  1  0
 22 53  1  0
 22 54  1  0
 24 55  1  0
 25 56  1  0
 26 57  1  0
 27 58  1  0
 28 59  1  0
 30 60  1  0
 32 61  1  0
 34 62  1  0
 34 63  1  0
 35 64  1  0
 35 65  1  0
M  END
$$$$
[H]c1nc(N([H])c2c([H])c([H])c(Oc3c([H])c([H])c([H])c(C(F)(F)F)c3[H])c(Cl)c2[H])c2sc(-c3c([H])c([H])c([H])c(C([H])([H])C(=O)N(C([H])([H])[H])C([H])([H])C([H])([H])N([H])C([H])([H])[H])c3[H])c([H])c2n1
     RDKit          3D

 70 74  0  0  0  0  0  0  0  0999 V2000
  -10.7006    1.4096   -0.2373 C   0  0  0  0  0  0  0  0  0  0  0  0
   -9.9487    0.4845    0.5266 N   0  0  0  0  0  0  0  0  0  0  0  0
  -10.0310   -0.8915    0.2237 C   0  0  0  0  0  0  0  0  0  0  0  0
   -9.4152   -1.2331   -1.0981 C   0  0  0  0  0  0  0  0  0  0  0  0
   -8.0462   -0.8392   -1.2579 N   0  0  0  0  0  0  0  0  0  0  0  0
   -7.7899    0.3545   -2.0332 C   0  0  0  0  0  0  0  0  0  0  0  0
   -6.9824   -1.5690   -0.7339 C   0  0  0  0  0  0  0  0  0  0  0  0
   -7.2169   -2.5784   -0.0523 O   0  0  0  0  0  0  0  0  0  0  0  0
   -5.5462   -1.2113   -0.9327 C   0  0  0  0  0  0  0  0  0  0  0  0
   -4.9884   -0.3976    0.1520 C   0  0  0  0  0  0  0  0  0  0  0  0
   -5.7788    0.3537    0.9804 C   0  0  0  0  0  0  0  0  0  0  0  0
   -5.1971    1.2172    1.8896 C   0  0  0  0  0  0  0  0  0  0  0  0
   -3.8169    1.3328    1.9765 C   0  0  0  0  0  0  0  0  0  0  0  0
   -3.0325    0.5860    1.1574 C   0  0  0  0  0  0  0  0  0  0  0  0
   -3.6108   -0.2645    0.2635 C   0  0  0  0  0  0  0  0  0  0  0  0
   -1.5819    0.7508    1.2007 C   0  0  0  0  0  0  0  0  0  0  0  0
   -0.8816    1.7808    1.7698 C   0  0  0  0  0  0  0  0  0  0  0  0
    0.4567    1.7620    1.6528 C   0  0  0  0  0  0  0  0  0  0  0  0
    1.3677    2.6644    2.1415 N   0  0  0  0  0  0  0  0  0  0  0  0
    2.6753    2.5391    1.9754 C   0  0  0  0  0  0  0  0  0  0  0  0
    3.2414    1.5083    1.3085 N   0  0  0  0  0  0  0  0  0  0  0  0
    2.3975    0.5886    0.8008 C   0  0  0  0  0  0  0  0  0  0  0  0
    2.8552   -0.5475    0.0755 N   0  0  0  0  0  0  0  0  0  0  0  0
    4.2803   -0.7171    0.0165 C   0  0  0  0  0  0  0  0  0  0  0  0
    5.1517   -0.1479   -0.8471 C   0  0  0  0  0  0  0  0  0  0  0  0
    6.5326   -0.3896   -0.7191 C   0  0  0  0  0  0  0  0  0  0  0  0
    7.0543   -1.1988    0.2634 C   0  0  0  0  0  0  0  0  0  0  0  0
    8.3591   -1.4867    0.4498 O   0  0  0  0  0  0  0  0  0  0  0  0
    9.4929   -1.2002   -0.1947 C   0  0  0  0  0  0  0  0  0  0  0  0
   10.0726   -2.1302   -1.0559 C   0  0  0  0  0  0  0  0  0  0  0  0
   11.2355   -1.9017   -1.7342 C   0  0  0  0  0  0  0  0  0  0  0  0
   11.8853   -0.7079   -1.5809 C   0  0  0  0  0  0  0  0  0  0  0  0
   11.3496    0.2629   -0.7332 C   0  0  0  0  0  0  0  0  0  0  0  0
   10.1918   -0.0005   -0.0768 C   0  0  0  0  0  0  0  0  0  0  0  0
   12.1353    1.5357   -0.6448 C   0  0  0  0  0  0  0  0  0  0  0  0
   11.3015    2.4938   -0.1466 F   0  0  0  0  0  0  0  0  0  0  0  0
   13.2219    1.4353    0.1859 F   0  0  0  0  0  0  0  0  0  0  0  0
   12.5981    1.8803   -1.9024 F   0  0  0  0  0  0  0  0  0  0  0  0
    6.1354   -1.7848    1.1541 C   0  0  0  0  0  0  0  0  0  0  0  0
    6.7376   -2.8269    2.4579 Cl  0  0  0  0  0  0  0  0  0  0  0  0
    4.8112   -1.5500    1.0269 C   0  0  0  0  0  0  0  0  0  0  0  0
    1.0161    0.7107    0.9687 C   0  0  0  0  0  0  0  0  0  0  0  0
   -0.3636   -0.2143    0.5144 S   0  0  0  0  0  0  0  0  0  0  0  0
  -11.0239    1.0000   -1.2031 H   0  0  0  0  0  0  0  0  0  0  0  0
  -10.0235    2.3191   -0.3873 H   0  0  0  0  0  0  0  0  0  0  0  0
  -11.5971    1.7714    0.3523 H   0  0  0  0  0  0  0  0  0  0  0  0
   -9.9913    0.6177    1.5859 H   0  0  0  0  0  0  0  0  0  0  0  0
  -11.1305   -1.2198    0.2024 H   0  0  0  0  0  0  0  0  0  0  0  0
   -9.5181   -1.5073    1.0136 H   0  0  0  0  0  0  0  0  0  0  0  0
  -10.0588   -0.7990   -1.9295 H   0  0  0  0  0  0  0  0  0  0  0  0
   -9.4903   -2.3373   -1.2590 H   0  0  0  0  0  0  0  0  0  0  0  0
   -6.9113    0.2835   -2.7085 H   0  0  0  0  0  0  0  0  0  0  0  0
   -7.7537    1.2560   -1.3726 H   0  0  0  0  0  0  0  0  0  0  0  0
   -8.6615    0.5385   -2.7352 H   0  0  0  0  0  0  0  0  0  0  0  0
   -5.0024   -2.1929   -1.0414 H   0  0  0  0  0  0  0  0  0  0  0  0
   -5.4559   -0.6844   -1.8802 H   0  0  0  0  0  0  0  0  0  0  0  0
   -6.8774    0.2690    0.9135 H   0  0  0  0  0  0  0  0  0  0  0  0
   -5.8260    1.8063    2.5258 H   0  0  0  0  0  0  0  0  0  0  0  0
   -3.4201    2.0539    2.7206 H   0  0  0  0  0  0  0  0  0  0  0  0
   -2.9234   -0.8420   -0.3655 H   0  0  0  0  0  0  0  0  0  0  0  0
   -1.4444    2.5808    2.2981 H   0  0  0  0  0  0  0  0  0  0  0  0
    3.2937    3.3477    2.4182 H   0  0  0  0  0  0  0  0  0  0  0  0
    2.2442   -1.2217   -0.3994 H   0  0  0  0  0  0  0  0  0  0  0  0
    4.7779    0.4984   -1.6423 H   0  0  0  0  0  0  0  0  0  0  0  0
    7.2047    0.0920   -1.4362 H   0  0  0  0  0  0  0  0  0  0  0  0
    9.5476   -3.0862   -1.1641 H   0  0  0  0  0  0  0  0  0  0  0  0
   11.6898   -2.6372   -2.4106 H   0  0  0  0  0  0  0  0  0  0  0  0
   12.8067   -0.5298   -2.1176 H   0  0  0  0  0  0  0  0  0  0  0  0
    9.7846    0.7883    0.5813 H   0  0  0  0  0  0  0  0  0  0  0  0
    4.1328   -2.0271    1.7198 H   0  0  0  0  0  0  0  0  0  0  0  0
  1  2  1  0
  2  3  1  0
  3  4  1  0
  4  5  1  0
  5  6  1  0
  5  7  1  0
  7  8  2  0
  7  9  1  0
  9 10  1  0
 10 11  2  0
 11 12  1  0
 12 13  2  0
 13 14  1  0
 14 15  2  0
 14 16  1  0
 16 17  2  0
 17 18  1  0
 18 19  2  0
 19 20  1  0
 20 21  2  0
 21 22  1  0
 22 23  1  0
 23 24  1  0
 24 25  2  0
 25 26  1  0
 26 27  2  0
 27 28  1  0
 28 29  1  0
 29 30  2  0
 30 31  1  0
 31 32  2  0
 32 33  1  0
 33 34  2  0
 33 35  1  0
 35 36  1  0
 35 37  1  0
 35 38  1  0
 27 39  1  0
 39 40  1  0
 39 41  2  0
 22 42  2  0
 42 43  1  0
 15 10  1  0
 43 16  1  0
 42 18  1  0
 41 24  1  0
 34 29  1  0
  1 44  1  0
  1 45  1  0
  1 46  1  0
  2 47  1  0
  3 48  1  0
  3 49  1  0
  4 50  1  0
  4 51  1  0
  6 52  1  0
  6 53  1  0
  6 54  1  0
  9 55  1  0
  9 56  1  0
 11 57  1  0
 12 58  1  0
 13 59  1  0
 15 60  1  0
 17 61  1  0
 20 62  1  0
 23 63  1  0
 25 64  1  0
 26 65  1  0
 30 66  1  0
 31 67  1  0
 32 68  1  0
 34 69  1  0
 41 70  1  0
M  END
$$$$
[H]/C(C(=O)N([H])c1c([H])c([H])c2nc([H])nc(N([H])c3c([H])c([H])c(OC([H])([H])c4c([H])c([H])c([H])c(F)c4[H])c(Cl)c3[H])c2c1[H])=C(/[H])C([H])([H])N1C([H])([H])C([H])([H])C([H])([H])C1([H])[H]
     RDKit          3D

 65 69  0  0  0  0  0  0  0  0999 V2000
   -8.4491    2.5429   -0.3295 F   0  0  0  0  0  0  0  0  0  0  0  0
   -8.3820    1.7486    0.7811 C   0  0  0  0  0  0  0  0  0  0  0  0
   -8.6818    2.3066    2.0147 C   0  0  0  0  0  0  0  0  0  0  0  0
   -8.6006    1.4686    3.1048 C   0  0  0  0  0  0  0  0  0  0  0  0
   -8.2419    0.1554    2.9666 C   0  0  0  0  0  0  0  0  0  0  0  0
   -7.9427   -0.3996    1.7305 C   0  0  0  0  0  0  0  0  0  0  0  0
   -7.5811   -1.8176    1.6968 C   0  0  0  0  0  0  0  0  0  0  0  0
   -6.8560   -2.2388    0.5912 O   0  0  0  0  0  0  0  0  0  0  0  0
   -5.6310   -1.8416    0.1627 C   0  0  0  0  0  0  0  0  0  0  0  0
   -4.9047   -0.9007    0.8403 C   0  0  0  0  0  0  0  0  0  0  0  0
   -3.6506   -0.5081    0.3836 C   0  0  0  0  0  0  0  0  0  0  0  0
   -3.1234   -1.0825   -0.7844 C   0  0  0  0  0  0  0  0  0  0  0  0
   -1.8237   -0.6819   -1.1998 N   0  0  0  0  0  0  0  0  0  0  0  0
   -1.3764   -0.6277   -2.5386 C   0  0  0  0  0  0  0  0  0  0  0  0
   -2.2365   -0.8922   -3.5660 N   0  0  0  0  0  0  0  0  0  0  0  0
   -1.8821   -0.8181   -4.8487 C   0  0  0  0  0  0  0  0  0  0  0  0
   -0.6239   -0.4674   -5.1220 N   0  0  0  0  0  0  0  0  0  0  0  0
    0.2788   -0.1922   -4.1469 C   0  0  0  0  0  0  0  0  0  0  0  0
    1.5759    0.1671   -4.4679 C   0  0  0  0  0  0  0  0  0  0  0  0
    2.5139    0.4506   -3.5160 C   0  0  0  0  0  0  0  0  0  0  0  0
    2.1771    0.3829   -2.1443 C   0  0  0  0  0  0  0  0  0  0  0  0
    3.1995    0.6667   -1.2230 N   0  0  0  0  0  0  0  0  0  0  0  0
    3.0030    0.9908    0.1135 C   0  0  0  0  0  0  0  0  0  0  0  0
    1.8462    1.0673    0.6300 O   0  0  0  0  0  0  0  0  0  0  0  0
    4.1192    1.2731    1.0453 C   0  0  0  0  0  0  0  0  0  0  0  0
    5.3553    1.2390    0.6791 C   0  0  0  0  0  0  0  0  0  0  0  0
    6.4940    1.5278    1.6333 C   0  0  0  0  0  0  0  0  0  0  0  0
    7.3010    0.3098    1.6468 N   0  0  0  0  0  0  0  0  0  0  0  0
    8.4405    0.4027    2.5128 C   0  0  0  0  0  0  0  0  0  0  0  0
    9.6819    0.1834    1.7033 C   0  0  0  0  0  0  0  0  0  0  0  0
    9.1916   -0.5055    0.4717 C   0  0  0  0  0  0  0  0  0  0  0  0
    7.7535   -0.0517    0.3390 C   0  0  0  0  0  0  0  0  0  0  0  0
    0.8846    0.0235   -1.8597 C   0  0  0  0  0  0  0  0  0  0  0  0
   -0.0811   -0.2672   -2.8182 C   0  0  0  0  0  0  0  0  0  0  0  0
   -3.8392   -2.0185   -1.4613 C   0  0  0  0  0  0  0  0  0  0  0  0
   -5.0923   -2.3883   -0.9765 C   0  0  0  0  0  0  0  0  0  0  0  0
   -5.9889   -3.5909   -1.8657 Cl  0  0  0  0  0  0  0  0  0  0  0  0
   -8.0193    0.4304    0.6204 C   0  0  0  0  0  0  0  0  0  0  0  0
   -8.9681    3.3516    2.1333 H   0  0  0  0  0  0  0  0  0  0  0  0
   -8.8260    1.8633    4.0844 H   0  0  0  0  0  0  0  0  0  0  0  0
   -8.1931   -0.4640    3.8610 H   0  0  0  0  0  0  0  0  0  0  0  0
   -7.0335   -2.1043    2.6167 H   0  0  0  0  0  0  0  0  0  0  0  0
   -8.5332   -2.4255    1.7265 H   0  0  0  0  0  0  0  0  0  0  0  0
   -5.2471   -0.4329    1.7353 H   0  0  0  0  0  0  0  0  0  0  0  0
   -3.0422    0.2270    0.8806 H   0  0  0  0  0  0  0  0  0  0  0  0
   -1.1380   -0.3963   -0.4311 H   0  0  0  0  0  0  0  0  0  0  0  0
   -2.6077   -1.0395   -5.6319 H   0  0  0  0  0  0  0  0  0  0  0  0
    1.8001    0.2089   -5.5276 H   0  0  0  0  0  0  0  0  0  0  0  0
    3.5271    0.7313   -3.7906 H   0  0  0  0  0  0  0  0  0  0  0  0
    4.2117    0.6321   -1.5605 H   0  0  0  0  0  0  0  0  0  0  0  0
    3.9199    1.5244    2.0953 H   0  0  0  0  0  0  0  0  0  0  0  0
    5.6464    1.0050   -0.3180 H   0  0  0  0  0  0  0  0  0  0  0  0
    7.0430    2.4025    1.2644 H   0  0  0  0  0  0  0  0  0  0  0  0
    6.0572    1.7462    2.6061 H   0  0  0  0  0  0  0  0  0  0  0  0
    8.3827   -0.4097    3.2751 H   0  0  0  0  0  0  0  0  0  0  0  0
    8.4654    1.3528    3.0952 H   0  0  0  0  0  0  0  0  0  0  0  0
   10.1548    1.1735    1.4989 H   0  0  0  0  0  0  0  0  0  0  0  0
   10.3946   -0.4719    2.2555 H   0  0  0  0  0  0  0  0  0  0  0  0
    9.2681   -1.6002    0.5975 H   0  0  0  0  0  0  0  0  0  0  0  0
    9.7989   -0.2504   -0.4407 H   0  0  0  0  0  0  0  0  0  0  0  0
    7.6705    0.8014   -0.3713 H   0  0  0  0  0  0  0  0  0  0  0  0
    7.1317   -0.8858   -0.0417 H   0  0  0  0  0  0  0  0  0  0  0  0
    0.5955   -0.0583   -0.8465 H   0  0  0  0  0  0  0  0  0  0  0  0
   -3.4985   -2.5276   -2.3570 H   0  0  0  0  0  0  0  0  0  0  0  0
   -7.7881   -0.0004   -0.3319 H   0  0  0  0  0  0  0  0  0  0  0  0
  1  2  1  0
  2  3  2  0
  3  4  1  0
  4  5  2  0
  5  6  1  0
  6  7  1  0
  7  8  1  0
  8  9  1  0
  9 10  2  0
 10 11  1  0
 11 12  2  0
 12 13  1  0
 13 14  1  0
 14 15  2  0
 15 16  1  0
 16 17  2  0
 17 18  1  0
 18 19  2  0
 19 20  1  0
 20 21  2  0
 21 22  1  0
 22 23  1  0
 23 24  2  0
 23 25  1  0
 25 26  2  0
 26 27  1  0
 27 28  1  0
 28 29  1  0
 29 30  1  0
 30 31  1  0
 31 32  1  0
 21 33  1  0
 33 34  2  0
 12 35  1  0
 35 36  2  0
 36 37  1  0
  6 38  2  0
 38  2  1  0
 36  9  1  0
 34 14  1  0
 34 18  1  0
 32 28  1  0
  3 39  1  0
  4 40  1  0
  5 41  1  0
  7 42  1  0
  7 43  1  0
 10 44  1  0
 11 45  1  0
 13 46  1  0
 16 47  1  0
 19 48  1  0
 20 49  1  0
 22 50  1  0
 25 51  1  0
 26 52  1  0
 27 53  1  0
 27 54  1  0
 29 55  1  0
 29 56  1  0
 30 57  1  0
 30 58  1  0
 31 59  1  0
 31 60  1  0
 32 61  1  0
 32 62  1  0
 33 63  1  0
 35 64  1  0
 38 65  1  0
M  END
$$$$
[H]c1nn(C([H])([H])[H])c([H])c1N([H])c1nc([H])c2c([H])c(-c3c(Cl)c([H])c([H])c([H])c3Cl)c(=O)n(C([H])([H])[H])c2n1
     RDKit          3D

 41 44  0  0  0  0  0  0  0  0999 V2000
   -7.0328   -1.6734    0.7735 C   0  0  0  0  0  0  0  0  0  0  0  0
   -6.2790   -0.4765    0.3582 N   0  0  0  0  0  0  0  0  0  0  0  0
   -4.9425   -0.3617    0.2528 C   0  0  0  0  0  0  0  0  0  0  0  0
   -4.6210    0.9047   -0.1619 C   0  0  0  0  0  0  0  0  0  0  0  0
   -3.3764    1.5256   -0.4217 N   0  0  0  0  0  0  0  0  0  0  0  0
   -2.1497    0.8386   -0.2700 C   0  0  0  0  0  0  0  0  0  0  0  0
   -1.9952   -0.4239    0.1181 N   0  0  0  0  0  0  0  0  0  0  0  0
   -0.7976   -1.0176    0.2420 C   0  0  0  0  0  0  0  0  0  0  0  0
    0.3796   -0.3339   -0.0339 C   0  0  0  0  0  0  0  0  0  0  0  0
    1.6253   -0.9110    0.0823 C   0  0  0  0  0  0  0  0  0  0  0  0
    2.7742   -0.1992   -0.2010 C   0  0  0  0  0  0  0  0  0  0  0  0
    4.1145   -0.7377   -0.1019 C   0  0  0  0  0  0  0  0  0  0  0  0
    4.8459   -0.6527    1.0793 C   0  0  0  0  0  0  0  0  0  0  0  0
    4.0534    0.1391    2.4296 Cl  0  0  0  0  0  0  0  0  0  0  0  0
    6.1251   -1.1635    1.1832 C   0  0  0  0  0  0  0  0  0  0  0  0
    6.7230   -1.7756    0.1206 C   0  0  0  0  0  0  0  0  0  0  0  0
    6.0198   -1.8745   -1.0666 C   0  0  0  0  0  0  0  0  0  0  0  0
    4.7403   -1.3609   -1.1623 C   0  0  0  0  0  0  0  0  0  0  0  0
    3.8748   -1.5007   -2.6771 Cl  0  0  0  0  0  0  0  0  0  0  0  0
    2.5963    1.1063   -0.6014 C   0  0  0  0  0  0  0  0  0  0  0  0
    3.6530    1.7720   -0.8654 O   0  0  0  0  0  0  0  0  0  0  0  0
    1.3757    1.6501   -0.7084 N   0  0  0  0  0  0  0  0  0  0  0  0
    1.2490    3.0214   -1.1321 C   0  0  0  0  0  0  0  0  0  0  0  0
    0.2310    0.9743   -0.4367 C   0  0  0  0  0  0  0  0  0  0  0  0
   -0.9720    1.4965   -0.5379 N   0  0  0  0  0  0  0  0  0  0  0  0
   -5.8568    1.5616   -0.3043 C   0  0  0  0  0  0  0  0  0  0  0  0
   -6.7890    0.6810    0.0208 N   0  0  0  0  0  0  0  0  0  0  0  0
   -8.0140   -1.3999    1.1809 H   0  0  0  0  0  0  0  0  0  0  0  0
   -7.0917   -2.3148   -0.1330 H   0  0  0  0  0  0  0  0  0  0  0  0
   -6.4183   -2.1848    1.5352 H   0  0  0  0  0  0  0  0  0  0  0  0
   -4.2609   -1.1771    0.4737 H   0  0  0  0  0  0  0  0  0  0  0  0
   -3.3502    2.5469   -0.7435 H   0  0  0  0  0  0  0  0  0  0  0  0
   -0.6916   -2.0467    0.5594 H   0  0  0  0  0  0  0  0  0  0  0  0
    1.7265   -1.9368    0.3989 H   0  0  0  0  0  0  0  0  0  0  0  0
    6.6036   -1.0405    2.1568 H   0  0  0  0  0  0  0  0  0  0  0  0
    7.7231   -2.1605    0.2447 H   0  0  0  0  0  0  0  0  0  0  0  0
    6.5140   -2.3702   -1.9142 H   0  0  0  0  0  0  0  0  0  0  0  0
    0.4245    3.1813   -1.8537 H   0  0  0  0  0  0  0  0  0  0  0  0
    1.0104    3.6930   -0.2617 H   0  0  0  0  0  0  0  0  0  0  0  0
    2.1948    3.4169   -1.5635 H   0  0  0  0  0  0  0  0  0  0  0  0
   -5.9392    2.5848   -0.6216 H   0  0  0  0  0  0  0  0  0  0  0  0
  1  2  1  0
  2  3  1  0
  3  4  2  0
  4  5  1  0
  5  6  1  0
  6  7  2  0
  7  8  1  0
  8  9  2  0
  9 10  1  0
 10 11  2  0
 11 12  1  0
 12 13  2  0
 13 14  1  0
 13 15  1  0
 15 16  2  0
 16 17  1  0
 17 18  2  0
 18 19  1  0
 11 20  1  0
 20 21  2  0
 20 22  1  0
 22 23  1  0
 22 24  1  0
 24 25  2  0
  4 26  1  0
 26 27  2  0
 27  2  1  0
 25  6  1  0
 24  9  1  0
 18 12  1  0
  1 28  1  0
  1 29  1  0
  1 30  1  0
  3 31  1  0
  5 32  1  0
  8 33  1  0
 10 34  1  0
 15 35  1  0
 16 36  1  0
 17 37  1  0
 23 38  1  0
 23 39  1  0
 23 40  1  0
 26 41  1  0
M  END
$$$$
[H]c1nc(N([H])c2c([H])c([H])c(OC([H])([H])c3nc([H])c([H])c([H])c3[H])c(Cl)c2[H])c2c(C([H])([H])N3C([H])([H])C([H])([H])N(C([H])([H])[H])C([H])([H])C3([H])[H])c([H])c([H])n2n1
     RDKit          3D

 59 63  0  0  0  0  0  0  0  0999 V2000
   -6.8404    1.9670    0.4395 C   0  0  0  0  0  0  0  0  0  0  0  0
   -5.5061    2.4503    0.0468 N   0  0  0  0  0  0  0  0  0  0  0  0
   -4.5992    2.3048    1.1714 C   0  0  0  0  0  0  0  0  0  0  0  0
   -4.2189    0.8031    1.3211 C   0  0  0  0  0  0  0  0  0  0  0  0
   -3.6083    0.3427    0.1979 N   0  0  0  0  0  0  0  0  0  0  0  0
   -3.3550   -0.8264   -0.3834 C   0  0  0  0  0  0  0  0  0  0  0  0
   -3.1185   -2.1471    0.1895 C   0  0  0  0  0  0  0  0  0  0  0  0
   -4.1127   -3.0627    0.6084 C   0  0  0  0  0  0  0  0  0  0  0  0
   -3.5426   -4.3276    0.6314 C   0  0  0  0  0  0  0  0  0  0  0  0
   -2.2813   -4.2363    0.2652 N   0  0  0  0  0  0  0  0  0  0  0  0
   -1.3010   -5.1180    0.2039 N   0  0  0  0  0  0  0  0  0  0  0  0
   -0.0194   -4.8260   -0.0983 C   0  0  0  0  0  0  0  0  0  0  0  0
    0.3004   -3.5075   -0.3473 N   0  0  0  0  0  0  0  0  0  0  0  0
   -0.6839   -2.6088   -0.2895 C   0  0  0  0  0  0  0  0  0  0  0  0
   -0.3628   -1.2387   -0.3927 N   0  0  0  0  0  0  0  0  0  0  0  0
    1.0608   -0.8406   -0.3480 C   0  0  0  0  0  0  0  0  0  0  0  0
    1.9609   -1.5532    0.3765 C   0  0  0  0  0  0  0  0  0  0  0  0
    3.2918   -1.1737    0.4634 C   0  0  0  0  0  0  0  0  0  0  0  0
    3.7182   -0.0607   -0.1805 C   0  0  0  0  0  0  0  0  0  0  0  0
    4.9653    0.3694   -0.1272 O   0  0  0  0  0  0  0  0  0  0  0  0
    6.1020   -0.0984    0.5129 C   0  0  0  0  0  0  0  0  0  0  0  0
    7.0693    1.0658    0.1484 C   0  0  0  0  0  0  0  0  0  0  0  0
    7.2217    2.0862    1.0450 C   0  0  0  0  0  0  0  0  0  0  0  0
    7.8754    3.2449    0.6124 C   0  0  0  0  0  0  0  0  0  0  0  0
    8.3403    3.3150   -0.7055 C   0  0  0  0  0  0  0  0  0  0  0  0
    8.1541    2.2617   -1.5396 C   0  0  0  0  0  0  0  0  0  0  0  0
    7.5259    1.1628   -1.0991 N   0  0  0  0  0  0  0  0  0  0  0  0
    2.7963    0.6833   -0.9226 C   0  0  0  0  0  0  0  0  0  0  0  0
    3.3981    2.1505   -1.7361 Cl  0  0  0  0  0  0  0  0  0  0  0  0
    1.4882    0.3125   -1.0236 C   0  0  0  0  0  0  0  0  0  0  0  0
   -2.0143   -2.9491    0.0085 C   0  0  0  0  0  0  0  0  0  0  0  0
   -3.6304    1.3576   -0.9223 C   0  0  0  0  0  0  0  0  0  0  0  0
   -5.0500    1.7688   -1.1172 C   0  0  0  0  0  0  0  0  0  0  0  0
   -6.6971    1.3823    1.3973 H   0  0  0  0  0  0  0  0  0  0  0  0
   -7.5084    2.8429    0.5989 H   0  0  0  0  0  0  0  0  0  0  0  0
   -7.2881    1.3125   -0.3110 H   0  0  0  0  0  0  0  0  0  0  0  0
   -5.0317    2.6692    2.0855 H   0  0  0  0  0  0  0  0  0  0  0  0
   -3.6834    2.8246    0.9750 H   0  0  0  0  0  0  0  0  0  0  0  0
   -4.9595    0.2404    1.8799 H   0  0  0  0  0  0  0  0  0  0  0  0
   -3.3659    0.9443    2.1259 H   0  0  0  0  0  0  0  0  0  0  0  0
   -2.7976   -0.7308   -1.3915 H   0  0  0  0  0  0  0  0  0  0  0  0
   -4.4580   -0.9985   -0.9665 H   0  0  0  0  0  0  0  0  0  0  0  0
   -5.1107   -2.8241    0.8553 H   0  0  0  0  0  0  0  0  0  0  0  0
   -4.0663   -5.2545    0.8864 H   0  0  0  0  0  0  0  0  0  0  0  0
    0.7821   -5.5138   -0.1539 H   0  0  0  0  0  0  0  0  0  0  0  0
   -0.9557   -0.4253   -0.4802 H   0  0  0  0  0  0  0  0  0  0  0  0
    1.6602   -2.4127    0.9671 H   0  0  0  0  0  0  0  0  0  0  0  0
    3.9944   -1.8036    1.0574 H   0  0  0  0  0  0  0  0  0  0  0  0
    6.6302   -0.9581    0.1768 H   0  0  0  0  0  0  0  0  0  0  0  0
    5.9950   -0.0804    1.6112 H   0  0  0  0  0  0  0  0  0  0  0  0
    6.8552    2.0347    2.0591 H   0  0  0  0  0  0  0  0  0  0  0  0
    8.0317    4.0910    1.2417 H   0  0  0  0  0  0  0  0  0  0  0  0
    8.8651    4.2148   -1.0996 H   0  0  0  0  0  0  0  0  0  0  0  0
    8.4789    2.2633   -2.5438 H   0  0  0  0  0  0  0  0  0  0  0  0
    0.7678    0.8480   -1.5821 H   0  0  0  0  0  0  0  0  0  0  0  0
   -3.3499    0.7964   -1.8379 H   0  0  0  0  0  0  0  0  0  0  0  0
   -2.9715    2.1823   -0.7007 H   0  0  0  0  0  0  0  0  0  0  0  0
   -5.6884    0.8785   -1.3133 H   0  0  0  0  0  0  0  0  0  0  0  0
   -5.1528    2.4054   -2.0043 H   0  0  0  0  0  0  0  0  0  0  0  0
  1  2  1  0
  2  3  1  0
  3  4  1  0
  4  5  1  0
  5  6  1  0
  6  7  1  0
  7  8  1  0
  8  9  2  0
  9 10  1  0
 10 11  1  0
 11 12  2  0
 12 13  1  0
 13 14  2  0
 14 15  1  0
 15 16  1  0
 16 17  2  0
 17 18  1  0
 18 19  2  0
 19 20  1  0
 20 21  1  0
 21 22  1  0
 22 23  2  0
 23 24  1  0
 24 25  2  0
 25 26  1  0
 26 27  2  0
 19 28  1  0
 28 29  1  0
 28 30  2  0
 14 31  1  0
  5 32  1  0
 32 33  1  0
 33  2  1  0
 31  7  2  0
 31 10  1  0
 30 16  1  0
 27 22  1  0
  1 34  1  0
  1 35  1  0
  1 36  1  0
  3 37  1  0
  3 38  1  0
  4 39  1  0
  4 40  1  0
  6 41  1  0
  6 42  1  0
  8 43  1  0
  9 44  1  0
 12 45  1  0
 15 46  1  0
 17 47  1  0
 18 48  1  0
 21 49  1  0
 21 50  1  0
 23 51  1  0
 24 52  1  0
 25 53  1  0
 26 54  1  0
 30 55  1  0
 32 56  1  0
 32 57  1  0
 33 58  1  0
 33 59  1  0
M  END
$$$$
[H]c1nc(N([H])c2c([H])c([H])c(Oc3c([H])c([H])c(OC([H])(C([H])([H])[H])C([H])([H])[H])c(C#N)c3[H])c(OC([H])([H])[H])c2[H])nc(-c2c([H])nc([H])c([H])c2[H])c1[H]
     RDKit          3D

 57 60  0  0  0  0  0  0  0  0999 V2000
   -0.2895   -2.6848    0.0579 C   0  0  0  0  0  0  0  0  0  0  0  0
   -0.8687   -1.8321   -0.8953 O   0  0  0  0  0  0  0  0  0  0  0  0
   -0.2006   -0.7157   -1.3732 C   0  0  0  0  0  0  0  0  0  0  0  0
    1.0907   -0.4650   -0.8643 C   0  0  0  0  0  0  0  0  0  0  0  0
    1.8469    0.6027   -1.2583 C   0  0  0  0  0  0  0  0  0  0  0  0
    3.1405    0.9285   -0.8311 N   0  0  0  0  0  0  0  0  0  0  0  0
    4.0512    0.1337   -0.1027 C   0  0  0  0  0  0  0  0  0  0  0  0
    3.8461   -1.1135    0.3206 N   0  0  0  0  0  0  0  0  0  0  0  0
    4.7098   -1.8473    1.0028 C   0  0  0  0  0  0  0  0  0  0  0  0
    5.9490   -1.3151    1.3289 C   0  0  0  0  0  0  0  0  0  0  0  0
    6.1988   -0.0366    0.9123 C   0  0  0  0  0  0  0  0  0  0  0  0
    5.2780    0.6457    0.2262 N   0  0  0  0  0  0  0  0  0  0  0  0
    7.4856    0.5693    1.2290 C   0  0  0  0  0  0  0  0  0  0  0  0
    8.4758   -0.0524    1.9205 C   0  0  0  0  0  0  0  0  0  0  0  0
    9.6639    0.6283    2.1631 C   0  0  0  0  0  0  0  0  0  0  0  0
    9.8332    1.9113    1.7095 C   0  0  0  0  0  0  0  0  0  0  0  0
    8.8425    2.5005    1.0312 N   0  0  0  0  0  0  0  0  0  0  0  0
    7.7005    1.8703    0.7882 C   0  0  0  0  0  0  0  0  0  0  0  0
    1.2455    1.4403   -2.2115 C   0  0  0  0  0  0  0  0  0  0  0  0
    0.0064    1.2440   -2.7328 C   0  0  0  0  0  0  0  0  0  0  0  0
   -0.7282    0.1422   -2.3021 C   0  0  0  0  0  0  0  0  0  0  0  0
   -1.9920   -0.0803   -2.8172 O   0  0  0  0  0  0  0  0  0  0  0  0
   -3.1541   -0.1391   -2.0971 C   0  0  0  0  0  0  0  0  0  0  0  0
   -3.8051   -1.3072   -1.7670 C   0  0  0  0  0  0  0  0  0  0  0  0
   -4.9674   -1.3388   -1.0410 C   0  0  0  0  0  0  0  0  0  0  0  0
   -5.5566   -0.1339   -0.5928 C   0  0  0  0  0  0  0  0  0  0  0  0
   -6.6680   -0.1987    0.0991 O   0  0  0  0  0  0  0  0  0  0  0  0
   -7.6667    0.3544    0.7612 C   0  0  0  0  0  0  0  0  0  0  0  0
   -9.0678    0.0008    0.2319 C   0  0  0  0  0  0  0  0  0  0  0  0
   -7.6331   -0.0820    2.2565 C   0  0  0  0  0  0  0  0  0  0  0  0
   -4.8997    1.0215   -0.9284 C   0  0  0  0  0  0  0  0  0  0  0  0
   -3.7249    1.0333   -1.6630 C   0  0  0  0  0  0  0  0  0  0  0  0
   -5.3853    2.3145   -0.5397 C   0  0  0  0  0  0  0  0  0  0  0  0
   -5.7588    3.3808   -0.2363 N   0  0  0  0  0  0  0  0  0  0  0  0
   -0.9197   -3.5649    0.2689 H   0  0  0  0  0  0  0  0  0  0  0  0
    0.7189   -3.0467   -0.2949 H   0  0  0  0  0  0  0  0  0  0  0  0
   -0.0672   -2.1418    1.0096 H   0  0  0  0  0  0  0  0  0  0  0  0
    1.4731   -1.1489   -0.1316 H   0  0  0  0  0  0  0  0  0  0  0  0
    3.4883    1.9128   -1.0827 H   0  0  0  0  0  0  0  0  0  0  0  0
    4.4854   -2.8635    1.3226 H   0  0  0  0  0  0  0  0  0  0  0  0
    6.6246   -1.9463    1.8860 H   0  0  0  0  0  0  0  0  0  0  0  0
    8.3509   -1.0533    2.2775 H   0  0  0  0  0  0  0  0  0  0  0  0
   10.4435    0.1232    2.7139 H   0  0  0  0  0  0  0  0  0  0  0  0
   10.7804    2.4022    1.9243 H   0  0  0  0  0  0  0  0  0  0  0  0
    6.9117    2.3761    0.2330 H   0  0  0  0  0  0  0  0  0  0  0  0
    1.7959    2.3177   -2.5745 H   0  0  0  0  0  0  0  0  0  0  0  0
   -0.4446    1.8970   -3.4663 H   0  0  0  0  0  0  0  0  0  0  0  0
   -3.3598   -2.2538   -2.1278 H   0  0  0  0  0  0  0  0  0  0  0  0
   -5.4245   -2.2929   -0.8175 H   0  0  0  0  0  0  0  0  0  0  0  0
   -7.6433    1.4527    0.8202 H   0  0  0  0  0  0  0  0  0  0  0  0
   -9.7512    0.1005    1.1004 H   0  0  0  0  0  0  0  0  0  0  0  0
   -9.3752    0.7801   -0.5018 H   0  0  0  0  0  0  0  0  0  0  0  0
   -9.0736   -1.0179   -0.1873 H   0  0  0  0  0  0  0  0  0  0  0  0
   -8.4924    0.3856    2.7621 H   0  0  0  0  0  0  0  0  0  0  0  0
   -6.6787    0.2823    2.6802 H   0  0  0  0  0  0  0  0  0  0  0  0
   -7.6318   -1.1835    2.3254 H   0  0  0  0  0  0  0  0  0  0  0  0
   -3.2088    1.9710   -1.9247 H   0  0  0  0  0  0  0  0  0  0  0  0
  1  2  1  0
  2  3  1  0
  3  4  2  0
  4  5  1  0
  5  6  1  0
  6  7  1  0
  7  8  2  0
  8  9  1  0
  9 10  2  0
 10 11  1  0
 11 12  2  0
 11 13  1  0
 13 14  2  0
 14 15  1  0
 15 16  2  0
 16 17  1  0
 17 18  2  0
  5 19  2  0
 19 20  1  0
 20 21  2  0
 21 22  1  0
 22 23  1  0
 23 24  2  0
 24 25  1  0
 25 26  2  0
 26 27  1  0
 27 28  1  0
 28 29  1  0
 28 30  1  0
 26 31  1  0
 31 32  2  0
 31 33  1  0
 33 34  3  0
 21  3  1  0
 32 23  1  0
 12  7  1  0
 18 13  1  0
  1 35  1  0
  1 36  1  0
  1 37  1  0
  4 38  1  0
  6 39  1  0
  9 40  1  0
 10 41  1  0
 14 42  1  0
 15 43  1  0
 16 44  1  0
 18 45  1  0
 19 46  1  0
 20 47  1  0
 24 48  1  0
 25 49  1  0
 28 50  1  0
 29 51  1  0
 29 52  1  0
 29 53  1  0
 30 54  1  0
 30 55  1  0
 30 56  1  0
 32 57  1  0
M  END
$$$$
[H]C([H])=C([H])C(=O)N([H])c1c([H])c([H])c([H])c2nc([H])nc(N([H])c3c([H])c([H])c(OC([H])([H])c4c([H])c([H])c([H])c(F)c4[H])c(Cl)c3[H])c12
     RDKit          3D

 50 53  0  0  0  0  0  0  0  0999 V2000
    8.2802   -1.0509    1.6271 F   0  0  0  0  0  0  0  0  0  0  0  0
    7.6556    0.1077    1.2875 C   0  0  0  0  0  0  0  0  0  0  0  0
    8.3891    1.2550    1.2612 C   0  0  0  0  0  0  0  0  0  0  0  0
    7.7812    2.4359    0.9216 C   0  0  0  0  0  0  0  0  0  0  0  0
    6.4348    2.4304    0.6138 C   0  0  0  0  0  0  0  0  0  0  0  0
    5.7013    1.2663    0.6428 C   0  0  0  0  0  0  0  0  0  0  0  0
    4.2539    1.3265    0.3007 C   0  0  0  0  0  0  0  0  0  0  0  0
    3.6397    0.0692    0.3731 O   0  0  0  0  0  0  0  0  0  0  0  0
    2.2870   -0.0195    0.0779 C   0  0  0  0  0  0  0  0  0  0  0  0
    1.5431    1.0872   -0.2804 C   0  0  0  0  0  0  0  0  0  0  0  0
    0.2072    0.9735   -0.5679 C   0  0  0  0  0  0  0  0  0  0  0  0
   -0.4621   -0.2576   -0.5130 C   0  0  0  0  0  0  0  0  0  0  0  0
   -1.8739   -0.2752   -0.7975 N   0  0  0  0  0  0  0  0  0  0  0  0
   -2.4945   -1.4439   -1.2848 C   0  0  0  0  0  0  0  0  0  0  0  0
   -1.6793   -2.3417   -1.9474 N   0  0  0  0  0  0  0  0  0  0  0  0
   -2.1802   -3.3256   -2.6826 C   0  0  0  0  0  0  0  0  0  0  0  0
   -3.4983   -3.4952   -2.8173 N   0  0  0  0  0  0  0  0  0  0  0  0
   -4.3349   -2.6350   -2.1764 C   0  0  0  0  0  0  0  0  0  0  0  0
   -5.6940   -2.8028   -2.3038 C   0  0  0  0  0  0  0  0  0  0  0  0
   -6.5720   -1.9742   -1.6721 C   0  0  0  0  0  0  0  0  0  0  0  0
   -6.1113   -0.9541   -0.8892 C   0  0  0  0  0  0  0  0  0  0  0  0
   -4.7348   -0.7439   -0.7291 C   0  0  0  0  0  0  0  0  0  0  0  0
   -4.3081    0.1201    0.2938 N   0  0  0  0  0  0  0  0  0  0  0  0
   -4.9793    1.3095    0.6242 C   0  0  0  0  0  0  0  0  0  0  0  0
   -6.0023    1.6816    0.0072 O   0  0  0  0  0  0  0  0  0  0  0  0
   -4.5396    2.1998    1.7061 C   0  0  0  0  0  0  0  0  0  0  0  0
   -3.4953    1.9765    2.4559 C   0  0  0  0  0  0  0  0  0  0  0  0
   -3.8457   -1.5797   -1.3817 C   0  0  0  0  0  0  0  0  0  0  0  0
    0.2863   -1.3352   -0.1577 C   0  0  0  0  0  0  0  0  0  0  0  0
    1.6534   -1.2300    0.1379 C   0  0  0  0  0  0  0  0  0  0  0  0
    2.5515   -2.6741    0.5887 Cl  0  0  0  0  0  0  0  0  0  0  0  0
    6.3203    0.0970    0.9830 C   0  0  0  0  0  0  0  0  0  0  0  0
    9.4417    1.2575    1.5022 H   0  0  0  0  0  0  0  0  0  0  0  0
    8.3591    3.3447    0.9002 H   0  0  0  0  0  0  0  0  0  0  0  0
    5.9759    3.3725    0.3488 H   0  0  0  0  0  0  0  0  0  0  0  0
    4.1933    1.6858   -0.7491 H   0  0  0  0  0  0  0  0  0  0  0  0
    3.7656    2.0415    1.0115 H   0  0  0  0  0  0  0  0  0  0  0  0
    2.0424    2.0666   -0.3317 H   0  0  0  0  0  0  0  0  0  0  0  0
   -0.3705    1.8595   -0.8506 H   0  0  0  0  0  0  0  0  0  0  0  0
   -2.3576    0.6192   -0.7142 H   0  0  0  0  0  0  0  0  0  0  0  0
   -1.4978   -4.0220   -3.1962 H   0  0  0  0  0  0  0  0  0  0  0  0
   -6.0868   -3.6032   -2.9136 H   0  0  0  0  0  0  0  0  0  0  0  0
   -7.6663   -2.0976   -1.7703 H   0  0  0  0  0  0  0  0  0  0  0  0
   -6.8362   -0.3194   -0.3728 H   0  0  0  0  0  0  0  0  0  0  0  0
   -3.5041   -0.1413    0.9181 H   0  0  0  0  0  0  0  0  0  0  0  0
   -5.1170    3.1009    1.8969 H   0  0  0  0  0  0  0  0  0  0  0  0
   -3.2189    2.6650    3.2363 H   0  0  0  0  0  0  0  0  0  0  0  0
   -2.8922    1.1074    2.3118 H   0  0  0  0  0  0  0  0  0  0  0  0
   -0.1380   -2.3068   -0.0691 H   0  0  0  0  0  0  0  0  0  0  0  0
    5.7283   -0.8277    1.0040 H   0  0  0  0  0  0  0  0  0  0  0  0
  1  2  1  0
  2  3  2  0
  3  4  1  0
  4  5  2  0
  5  6  1  0
  6  7  1  0
  7  8  1  0
  8  9  1  0
  9 10  2  0
 10 11  1  0
 11 12  2  0
 12 13  1  0
 13 14  1  0
 14 15  2  0
 15 16  1  0
 16 17  2  0
 17 18  1  0
 18 19  2  0
 19 20  1  0
 20 21  2  0
 21 22  1  0
 22 23  1  0
 23 24  1  0
 24 25  2  0
 24 26  1  0
 26 27  2  3
 22 28  2  0
 12 29  1  0
 29 30  2  0
 30 31  1  0
  6 32  2  0
 32  2  1  0
 30  9  1  0
 28 14  1  0
 28 18  1  0
  3 33  1  0
  4 34  1  0
  5 35  1  0
  7 36  1  0
  7 37  1  0
 10 38  1  0
 11 39  1  0
 13 40  1  0
 16 41  1  0
 19 42  1  0
 20 43  1  0
 21 44  1  0
 23 45  1  0
 26 46  1  0
 27 47  1  0
 27 48  1  0
 29 49  1  0
 32 50  1  0
M  END
$$$$
[H]c1nc(N([H])c2c([H])c([H])c(Oc3c([H])c([H])c([H])c4snc([H])c34)c(Cl)c2[H])c2c([H])c(-c3sc(S(=O)(=O)N4C([H])([H])C([H])([H])C([H])([H])C4([H])[H])c([H])c3[H])c([H])c([H])c2n1
     RDKit          3D

 63 69  0  0  0  0  0  0  0  0999 V2000
   -8.1374   -0.4143    0.5261 O   0  0  0  0  0  0  0  0  0  0  0  0
   -7.3858    0.7877   -0.0326 S   0  0  0  0  0  0  0  0  0  0  0  0
   -7.8742    2.0133    0.7269 O   0  0  0  0  0  0  0  0  0  0  0  0
   -7.6775    1.0169   -1.6806 N   0  0  0  0  0  0  0  0  0  0  0  0
   -7.3097   -0.1393   -2.4478 C   0  0  0  0  0  0  0  0  0  0  0  0
   -8.5586   -1.0265   -2.4015 C   0  0  0  0  0  0  0  0  0  0  0  0
   -9.6790   -0.0224   -2.4199 C   0  0  0  0  0  0  0  0  0  0  0  0
   -9.0384    1.2750   -2.0496 C   0  0  0  0  0  0  0  0  0  0  0  0
   -5.7030    0.5233    0.3674 C   0  0  0  0  0  0  0  0  0  0  0  0
   -4.5806    0.5434   -0.4077 C   0  0  0  0  0  0  0  0  0  0  0  0
   -3.4051    0.3168    0.1868 C   0  0  0  0  0  0  0  0  0  0  0  0
   -3.4149    0.0808    1.5350 C   0  0  0  0  0  0  0  0  0  0  0  0
   -5.0792    0.1856    1.9217 S   0  0  0  0  0  0  0  0  0  0  0  0
   -2.2755   -0.1951    2.4254 C   0  0  0  0  0  0  0  0  0  0  0  0
   -2.4440   -0.4163    3.7646 C   0  0  0  0  0  0  0  0  0  0  0  0
   -1.3753   -0.6765    4.6043 C   0  0  0  0  0  0  0  0  0  0  0  0
   -0.0950   -0.7176    4.0909 C   0  0  0  0  0  0  0  0  0  0  0  0
    0.9552   -0.9674    4.8910 N   0  0  0  0  0  0  0  0  0  0  0  0
    2.2065   -1.0033    4.3733 C   0  0  0  0  0  0  0  0  0  0  0  0
    2.4128   -0.7935    3.0747 N   0  0  0  0  0  0  0  0  0  0  0  0
    1.4089   -0.5371    2.2103 C   0  0  0  0  0  0  0  0  0  0  0  0
    1.6122   -0.3492    0.8427 N   0  0  0  0  0  0  0  0  0  0  0  0
    2.8915   -0.3365    0.2387 C   0  0  0  0  0  0  0  0  0  0  0  0
    4.0762    0.0142    0.8182 C   0  0  0  0  0  0  0  0  0  0  0  0
    5.3058   -0.0211    0.1870 C   0  0  0  0  0  0  0  0  0  0  0  0
    5.3877   -0.4292   -1.1120 C   0  0  0  0  0  0  0  0  0  0  0  0
    6.5523   -0.4936   -1.8098 O   0  0  0  0  0  0  0  0  0  0  0  0
    7.8144   -0.1495   -1.4567 C   0  0  0  0  0  0  0  0  0  0  0  0
    8.7469   -1.1765   -1.3800 C   0  0  0  0  0  0  0  0  0  0  0  0
   10.0521   -1.0258   -1.0453 C   0  0  0  0  0  0  0  0  0  0  0  0
   10.4698    0.2567   -0.7618 C   0  0  0  0  0  0  0  0  0  0  0  0
    9.5601    1.3310   -0.8274 C   0  0  0  0  0  0  0  0  0  0  0  0
    9.6700    3.0169   -0.5770 S   0  0  0  0  0  0  0  0  0  0  0  0
    8.0838    3.4425   -0.9054 N   0  0  0  0  0  0  0  0  0  0  0  0
    7.4892    2.2934   -1.2016 C   0  0  0  0  0  0  0  0  0  0  0  0
    8.2463    1.1631   -1.1668 C   0  0  0  0  0  0  0  0  0  0  0  0
    4.2173   -0.7949   -1.7471 C   0  0  0  0  0  0  0  0  0  0  0  0
    4.2857   -1.3248   -3.4209 Cl  0  0  0  0  0  0  0  0  0  0  0  0
    3.0084   -0.7557   -1.1107 C   0  0  0  0  0  0  0  0  0  0  0  0
    0.1182   -0.4975    2.7312 C   0  0  0  0  0  0  0  0  0  0  0  0
   -0.9825   -0.2390    1.9209 C   0  0  0  0  0  0  0  0  0  0  0  0
   -7.1550    0.1032   -3.5277 H   0  0  0  0  0  0  0  0  0  0  0  0
   -6.4417   -0.6846   -2.0218 H   0  0  0  0  0  0  0  0  0  0  0  0
   -8.5761   -1.6837   -3.3043 H   0  0  0  0  0  0  0  0  0  0  0  0
   -8.5652   -1.6936   -1.5343 H   0  0  0  0  0  0  0  0  0  0  0  0
  -10.5030   -0.2962   -1.7276 H   0  0  0  0  0  0  0  0  0  0  0  0
  -10.1242   -0.0321   -3.4397 H   0  0  0  0  0  0  0  0  0  0  0  0
   -8.9960    1.9823   -2.9305 H   0  0  0  0  0  0  0  0  0  0  0  0
   -9.6156    1.7921   -1.2536 H   0  0  0  0  0  0  0  0  0  0  0  0
   -4.6752    0.7538   -1.4958 H   0  0  0  0  0  0  0  0  0  0  0  0
   -2.4317    0.3110   -0.3546 H   0  0  0  0  0  0  0  0  0  0  0  0
   -3.4519   -0.3850    4.1749 H   0  0  0  0  0  0  0  0  0  0  0  0
   -1.4864   -0.8521    5.6543 H   0  0  0  0  0  0  0  0  0  0  0  0
    3.0660   -1.2047    5.0111 H   0  0  0  0  0  0  0  0  0  0  0  0
    0.8163   -0.2092    0.1965 H   0  0  0  0  0  0  0  0  0  0  0  0
    4.0913    0.3786    1.8555 H   0  0  0  0  0  0  0  0  0  0  0  0
    6.1825    0.2791    0.7674 H   0  0  0  0  0  0  0  0  0  0  0  0
    8.4266   -2.2041   -1.6039 H   0  0  0  0  0  0  0  0  0  0  0  0
   10.7537   -1.8330   -0.9923 H   0  0  0  0  0  0  0  0  0  0  0  0
   11.4719    0.5092   -0.4845 H   0  0  0  0  0  0  0  0  0  0  0  0
    6.4061    2.3241   -1.4712 H   0  0  0  0  0  0  0  0  0  0  0  0
    2.1176   -1.0502   -1.6440 H   0  0  0  0  0  0  0  0  0  0  0  0
   -0.8655   -0.0629    0.8779 H   0  0  0  0  0  0  0  0  0  0  0  0
  1  2  2  0
  2  3  2  0
  2  4  1  0
  4  5  1  0
  5  6  1  0
  6  7  1  0
  7  8  1  0
  2  9  1  0
  9 10  2  0
 10 11  1  0
 11 12  2  0
 12 13  1  0
 12 14  1  0
 14 15  2  0
 15 16  1  0
 16 17  2  0
 17 18  1  0
 18 19  2  0
 19 20  1  0
 20 21  2  0
 21 22  1  0
 22 23  1  0
 23 24  2  0
 24 25  1  0
 25 26  2  0
 26 27  1  0
 27 28  1  0
 28 29  2  0
 29 30  1  0
 30 31  2  0
 31 32  1  0
 32 33  1  0
 33 34  1  0
 34 35  2  0
 35 36  1  0
 26 37  1  0
 37 38  1  0
 37 39  2  0
 21 40  1  0
 40 41  2  0
  8  4  1  0
 13  9  1  0
 41 14  1  0
 40 17  1  0
 39 23  1  0
 36 28  1  0
 36 32  2  0
  5 42  1  0
  5 43  1  0
  6 44  1  0
  6 45  1  0
  7 46  1  0
  7 47  1  0
  8 48  1  0
  8 49  1  0
 10 50  1  0
 11 51  1  0
 15 52  1  0
 16 53  1  0
 19 54  1  0
 22 55  1  0
 24 56  1  0
 25 57  1  0
 29 58  1  0
 30 59  1  0
 31 60  1  0
 35 61  1  0
 39 62  1  0
 41 63  1  0
M  END
$$$$
[H]c1nc(N([H])c2c([H])c([H])c3c(c([H])nn3C([H])([H])c3c([H])c([H])c([H])c(F)c3[H])c2[H])c2c(O[C@@]([H])(C(=O)N(C([H])([H])[H])C([H])([H])C([H])([H])C(=O)N(C([H])([H])[H])C([H])([H])[H])C([H])([H])[H])c([H])c([H])c([H])c2n1
     RDKit          3D

 74 78  0  0  0  0  0  0  0  0999 V2000
   -2.8351    3.7552    0.4897 C   0  0  0  0  0  0  0  0  0  0  0  0
   -2.5386    2.2847    0.4811 C   0  0  1  0  0  0  0  0  0  0  0  0
   -1.3404    2.0344    1.1382 O   0  0  0  0  0  0  0  0  0  0  0  0
   -0.9408    2.2887    2.4115 C   0  0  0  0  0  0  0  0  0  0  0  0
   -1.7894    2.8663    3.3255 C   0  0  0  0  0  0  0  0  0  0  0  0
   -1.4398    3.1512    4.6187 C   0  0  0  0  0  0  0  0  0  0  0  0
   -0.1779    2.8578    5.0642 C   0  0  0  0  0  0  0  0  0  0  0  0
    0.6985    2.2694    4.1472 C   0  0  0  0  0  0  0  0  0  0  0  0
    1.9557    2.0072    4.6088 N   0  0  0  0  0  0  0  0  0  0  0  0
    2.8506    1.4622    3.7775 C   0  0  0  0  0  0  0  0  0  0  0  0
    2.5338    1.1753    2.5237 N   0  0  0  0  0  0  0  0  0  0  0  0
    1.2949    1.4119    2.0028 C   0  0  0  0  0  0  0  0  0  0  0  0
    1.0073    0.9806    0.6981 N   0  0  0  0  0  0  0  0  0  0  0  0
    2.0755    0.5140   -0.1606 C   0  0  0  0  0  0  0  0  0  0  0  0
    3.3378    0.9923   -0.1791 C   0  0  0  0  0  0  0  0  0  0  0  0
    4.3024    0.4567   -1.0216 C   0  0  0  0  0  0  0  0  0  0  0  0
    3.9822   -0.5850   -1.8640 C   0  0  0  0  0  0  0  0  0  0  0  0
    4.7107   -1.2868   -2.7759 N   0  0  0  0  0  0  0  0  0  0  0  0
    6.0910   -1.1039   -3.1067 C   0  0  0  0  0  0  0  0  0  0  0  0
    7.0276   -1.9211   -2.3014 C   0  0  0  0  0  0  0  0  0  0  0  0
    7.3948   -3.2070   -2.6983 C   0  0  0  0  0  0  0  0  0  0  0  0
    8.2776   -3.9360   -1.9133 C   0  0  0  0  0  0  0  0  0  0  0  0
    8.8065   -3.4250   -0.7454 C   0  0  0  0  0  0  0  0  0  0  0  0
    8.4445   -2.1519   -0.3501 C   0  0  0  0  0  0  0  0  0  0  0  0
    8.9593   -1.6341    0.8027 F   0  0  0  0  0  0  0  0  0  0  0  0
    7.5542   -1.4167   -1.1418 C   0  0  0  0  0  0  0  0  0  0  0  0
    3.9083   -2.1811   -3.3091 N   0  0  0  0  0  0  0  0  0  0  0  0
    2.6859   -2.1112   -2.8004 C   0  0  0  0  0  0  0  0  0  0  0  0
    2.7078   -1.0906   -1.8674 C   0  0  0  0  0  0  0  0  0  0  0  0
    1.7815   -0.5439   -1.0278 C   0  0  0  0  0  0  0  0  0  0  0  0
    0.3552    1.9776    2.8440 C   0  0  0  0  0  0  0  0  0  0  0  0
   -3.6331    1.3991    0.8416 C   0  0  0  0  0  0  0  0  0  0  0  0
   -3.3795    0.5889    1.8049 O   0  0  0  0  0  0  0  0  0  0  0  0
   -4.9273    1.3235    0.2633 N   0  0  0  0  0  0  0  0  0  0  0  0
   -5.3310    2.1495   -0.8521 C   0  0  0  0  0  0  0  0  0  0  0  0
   -5.8899    0.4220    0.8563 C   0  0  0  0  0  0  0  0  0  0  0  0
   -5.8780   -0.9789    0.4319 C   0  0  0  0  0  0  0  0  0  0  0  0
   -6.1230   -1.3342   -0.9585 C   0  0  0  0  0  0  0  0  0  0  0  0
   -6.4188   -0.5423   -1.8773 O   0  0  0  0  0  0  0  0  0  0  0  0
   -6.0319   -2.7237   -1.3824 N   0  0  0  0  0  0  0  0  0  0  0  0
   -6.2679   -3.0689   -2.7428 C   0  0  0  0  0  0  0  0  0  0  0  0
   -5.7049   -3.7542   -0.4126 C   0  0  0  0  0  0  0  0  0  0  0  0
   -3.7426    3.9817    1.0513 H   0  0  0  0  0  0  0  0  0  0  0  0
   -2.8124    4.2319   -0.5165 H   0  0  0  0  0  0  0  0  0  0  0  0
   -2.0061    4.2610    1.0456 H   0  0  0  0  0  0  0  0  0  0  0  0
   -2.3151    2.0589   -0.6224 H   0  0  0  0  0  0  0  0  0  0  0  0
   -2.8031    3.1058    3.0010 H   0  0  0  0  0  0  0  0  0  0  0  0
   -2.1268    3.6077    5.3254 H   0  0  0  0  0  0  0  0  0  0  0  0
    0.1691    3.0538    6.0692 H   0  0  0  0  0  0  0  0  0  0  0  0
    3.8506    1.2695    4.1941 H   0  0  0  0  0  0  0  0  0  0  0  0
    0.0835    0.9331    0.2884 H   0  0  0  0  0  0  0  0  0  0  0  0
    3.6176    1.8398    0.4644 H   0  0  0  0  0  0  0  0  0  0  0  0
    5.2933    0.8613   -1.0092 H   0  0  0  0  0  0  0  0  0  0  0  0
    6.3329   -0.0045   -3.0148 H   0  0  0  0  0  0  0  0  0  0  0  0
    6.3061   -1.3301   -4.1844 H   0  0  0  0  0  0  0  0  0  0  0  0
    6.9712   -3.5893   -3.6137 H   0  0  0  0  0  0  0  0  0  0  0  0
    8.5586   -4.9330   -2.2254 H   0  0  0  0  0  0  0  0  0  0  0  0
    9.4927   -4.0201   -0.1572 H   0  0  0  0  0  0  0  0  0  0  0  0
    7.2992   -0.4370   -0.8059 H   0  0  0  0  0  0  0  0  0  0  0  0
    1.8171   -2.7056   -3.0327 H   0  0  0  0  0  0  0  0  0  0  0  0
    0.7685   -0.9656   -1.0482 H   0  0  0  0  0  0  0  0  0  0  0  0
   -6.4515    2.1196   -0.9946 H   0  0  0  0  0  0  0  0  0  0  0  0
   -5.1628    3.2544   -0.6560 H   0  0  0  0  0  0  0  0  0  0  0  0
   -4.8911    1.8610   -1.8200 H   0  0  0  0  0  0  0  0  0  0  0  0
   -5.7703    0.4319    1.9812 H   0  0  0  0  0  0  0  0  0  0  0  0
   -6.9088    0.8492    0.6673 H   0  0  0  0  0  0  0  0  0  0  0  0
   -4.9627   -1.5462    0.7543 H   0  0  0  0  0  0  0  0  0  0  0  0
   -6.6984   -1.5068    1.0285 H   0  0  0  0  0  0  0  0  0  0  0  0
   -6.7519   -2.2280   -3.3038 H   0  0  0  0  0  0  0  0  0  0  0  0
   -6.9413   -3.9479   -2.8621 H   0  0  0  0  0  0  0  0  0  0  0  0
   -5.3131   -3.2892   -3.2815 H   0  0  0  0  0  0  0  0  0  0  0  0
   -4.6406   -3.7256   -0.1746 H   0  0  0  0  0  0  0  0  0  0  0  0
   -6.0899   -4.7443   -0.7173 H   0  0  0  0  0  0  0  0  0  0  0  0
   -6.2679   -3.4768    0.5266 H   0  0  0  0  0  0  0  0  0  0  0  0
  1  2  1  0
  2  3  1  0
  3  4  1  0
  4  5  2  0
  5  6  1  0
  6  7  2  0
  7  8  1  0
  8  9  2  0
  9 10  1  0
 10 11  2  0
 11 12  1  0
 12 13  1  0
 13 14  1  0
 14 15  2  0
 15 16  1  0
 16 17  2  0
 17 18  1  0
 18 19  1  0
 19 20  1  0
 20 21  2  0
 21 22  1  0
 22 23  2  0
 23 24  1  0
 24 25  1  0
 24 26  2  0
 18 27  1  0
 27 28  2  0
 28 29  1  0
 29 30  2  0
 12 31  2  0
  2 32  1  0
 32 33  2  0
 32 34  1  0
 34 35  1  0
 34 36  1  0
 36 37  1  0
 37 38  1  0
 38 39  2  0
 38 40  1  0
 40 41  1  0
 40 42  1  0
 31  4  1  0
 31  8  1  0
 30 14  1  0
 29 17  1  0
 26 20  1  0
  1 43  1  0
  1 44  1  0
  1 45  1  0
  2 46  1  6
  5 47  1  0
  6 48  1  0
  7 49  1  0
 10 50  1  0
 13 51  1  0
 15 52  1  0
 16 53  1  0
 19 54  1  0
 19 55  1  0
 21 56  1  0
 22 57  1  0
 23 58  1  0
 26 59  1  0
 28 60  1  0
 30 61  1  0
 35 62  1  0
 35 63  1  0
 35 64  1  0
 36 65  1  0
 36 66  1  0
 37 67  1  0
 37 68  1  0
 41 69  1  0
 41 70  1  0
 41 71  1  0
 42 72  1  0
 42 73  1  0
 42 74  1  0
M  END
$$$$
[H]c1nc(N([H])[H])c(-c2nc3c([H])c([H])c([H])c([H])c3o2)c(N([H])c2c([H])c([H])c(OC([H])([H])c3c([H])c([H])c([H])c([H])c3[H])c(F)c2[H])n1
     RDKit          3D

 50 54  0  0  0  0  0  0  0  0999 V2000
   -4.3394   -3.7271   -1.0385 N   0  0  0  0  0  0  0  0  0  0  0  0
   -3.0037   -3.5260   -0.6244 C   0  0  0  0  0  0  0  0  0  0  0  0
   -2.0971   -4.5098   -0.5548 N   0  0  0  0  0  0  0  0  0  0  0  0
   -0.8323   -4.3026   -0.1595 C   0  0  0  0  0  0  0  0  0  0  0  0
   -0.5084   -3.0535    0.1673 N   0  0  0  0  0  0  0  0  0  0  0  0
   -1.3621   -1.9896    0.1276 C   0  0  0  0  0  0  0  0  0  0  0  0
   -0.8676   -0.7165    0.4576 N   0  0  0  0  0  0  0  0  0  0  0  0
    0.4633   -0.5210    0.9237 C   0  0  0  0  0  0  0  0  0  0  0  0
    1.0878    0.6641    0.5604 C   0  0  0  0  0  0  0  0  0  0  0  0
    2.3673    1.0219    0.9566 C   0  0  0  0  0  0  0  0  0  0  0  0
    3.0504    0.1436    1.7564 C   0  0  0  0  0  0  0  0  0  0  0  0
    4.3216    0.4465    2.1809 O   0  0  0  0  0  0  0  0  0  0  0  0
    5.0782    1.5628    1.8946 C   0  0  0  0  0  0  0  0  0  0  0  0
    5.3832    1.6704    0.4570 C   0  0  0  0  0  0  0  0  0  0  0  0
    5.6948    2.9221   -0.0712 C   0  0  0  0  0  0  0  0  0  0  0  0
    5.9959    3.0188   -1.4196 C   0  0  0  0  0  0  0  0  0  0  0  0
    5.9737    1.8692   -2.1802 C   0  0  0  0  0  0  0  0  0  0  0  0
    5.6671    0.6324   -1.6640 C   0  0  0  0  0  0  0  0  0  0  0  0
    5.3686    0.5400   -0.3247 C   0  0  0  0  0  0  0  0  0  0  0  0
    2.4639   -1.0694    2.1536 C   0  0  0  0  0  0  0  0  0  0  0  0
    3.2000   -1.8714    2.9368 F   0  0  0  0  0  0  0  0  0  0  0  0
    1.1875   -1.3550    1.7202 C   0  0  0  0  0  0  0  0  0  0  0  0
   -2.6406   -2.2116   -0.2739 C   0  0  0  0  0  0  0  0  0  0  0  0
   -3.6410   -1.1763   -0.3529 C   0  0  0  0  0  0  0  0  0  0  0  0
   -4.9339   -1.3293   -0.7571 N   0  0  0  0  0  0  0  0  0  0  0  0
   -5.5583   -0.1655   -0.7016 C   0  0  0  0  0  0  0  0  0  0  0  0
   -6.8311    0.3173   -0.9712 C   0  0  0  0  0  0  0  0  0  0  0  0
   -7.1626    1.6292   -0.8011 C   0  0  0  0  0  0  0  0  0  0  0  0
   -6.2344    2.5450   -0.3476 C   0  0  0  0  0  0  0  0  0  0  0  0
   -4.9653    2.0910   -0.0732 C   0  0  0  0  0  0  0  0  0  0  0  0
   -4.6280    0.7600   -0.2455 C   0  0  0  0  0  0  0  0  0  0  0  0
   -3.5468    0.0810   -0.0710 O   0  0  0  0  0  0  0  0  0  0  0  0
   -4.5598   -3.7195   -2.0465 H   0  0  0  0  0  0  0  0  0  0  0  0
   -5.0500   -3.8770   -0.2725 H   0  0  0  0  0  0  0  0  0  0  0  0
   -0.0921   -5.1032   -0.1021 H   0  0  0  0  0  0  0  0  0  0  0  0
   -1.4355    0.1629    0.3812 H   0  0  0  0  0  0  0  0  0  0  0  0
    0.5642    1.3607   -0.0661 H   0  0  0  0  0  0  0  0  0  0  0  0
    2.7911    1.9846    0.6395 H   0  0  0  0  0  0  0  0  0  0  0  0
    6.0016    1.5666    2.5202 H   0  0  0  0  0  0  0  0  0  0  0  0
    4.4637    2.4607    2.1574 H   0  0  0  0  0  0  0  0  0  0  0  0
    5.6881    3.7707    0.5991 H   0  0  0  0  0  0  0  0  0  0  0  0
    6.2402    3.9858   -1.8448 H   0  0  0  0  0  0  0  0  0  0  0  0
    6.2132    1.9657   -3.2376 H   0  0  0  0  0  0  0  0  0  0  0  0
    5.6565   -0.2564   -2.2830 H   0  0  0  0  0  0  0  0  0  0  0  0
    5.1223   -0.4268    0.1099 H   0  0  0  0  0  0  0  0  0  0  0  0
    0.7522   -2.2899    2.0645 H   0  0  0  0  0  0  0  0  0  0  0  0
   -7.5657   -0.3941   -1.3274 H   0  0  0  0  0  0  0  0  0  0  0  0
   -8.1651    2.0079   -1.0138 H   0  0  0  0  0  0  0  0  0  0  0  0
   -6.5279    3.5838   -0.2218 H   0  0  0  0  0  0  0  0  0  0  0  0
   -4.2476    2.8269    0.2831 H   0  0  0  0  0  0  0  0  0  0  0  0
  1  2  1  0
  2  3  2  0
  3  4  1  0
  4  5  2  0
  5  6  1  0
  6  7  1  0
  7  8  1  0
  8  9  2  0
  9 10  1  0
 10 11  2  0
 11 12  1  0
 12 13  1  0
 13 14  1  0
 14 15  2  0
 15 16  1  0
 16 17  2  0
 17 18  1  0
 18 19  2  0
 11 20  1  0
 20 21  1  0
 20 22  2  0
  6 23  2  0
 23 24  1  0
 24 25  2  0
 25 26  1  0
 26 27  2  0
 27 28  1  0
 28 29  2  0
 29 30  1  0
 30 31  2  0
 31 32  1  0
 23  2  1  0
 32 24  1  0
 22  8  1  0
 31 26  1  0
 19 14  1  0
  1 33  1  0
  1 34  1  0
  4 35  1  0
  7 36  1  0
  9 37  1  0
 10 38  1  0
 13 39  1  0
 13 40  1  0
 15 41  1  0
 16 42  1  0
 17 43  1  0
 18 44  1  0
 19 45  1  0
 22 46  1  0
 27 47  1  0
 28 48  1  0
 29 49  1  0
 30 50  1  0
M  END
$$$$
[H]c1nc(N([H])[H])c2c(-c3c([H])c([H])c4c(c3[H])C([H])([H])C(=O)N4C([H])([H])c3c([H])c([H])c([H])c(F)c3C([H])([H])[H])nn(C3([H])C([H])([H])C([H])([H])N(C([H])(C([H])([H])[H])C([H])([H])[H])C([H])([H])C3([H])[H])c2n1
     RDKit          3D

 70 75  0  0  0  0  0  0  0  0999 V2000
    7.3305    2.8886   -0.7945 C   0  0  0  0  0  0  0  0  0  0  0  0
    7.5174    1.3716   -0.6598 C   0  0  0  0  0  0  0  0  0  0  0  0
    8.3948    1.1684    0.5559 C   0  0  0  0  0  0  0  0  0  0  0  0
    6.2586    0.6999   -0.5514 N   0  0  0  0  0  0  0  0  0  0  0  0
    5.5005    0.9211   -1.7720 C   0  0  0  0  0  0  0  0  0  0  0  0
    4.2402    0.0484   -1.7763 C   0  0  0  0  0  0  0  0  0  0  0  0
    4.0216   -0.3836   -0.3548 C   0  0  0  0  0  0  0  0  0  0  0  0
    5.0924   -1.3460    0.0398 C   0  0  0  0  0  0  0  0  0  0  0  0
    6.4201   -0.7120   -0.3618 C   0  0  0  0  0  0  0  0  0  0  0  0
    2.6887   -0.8369   -0.0655 N   0  0  0  0  0  0  0  0  0  0  0  0
    1.6150   -0.1643   -0.3867 N   0  0  0  0  0  0  0  0  0  0  0  0
    0.4804   -0.8342    0.0131 C   0  0  0  0  0  0  0  0  0  0  0  0
   -0.8707   -0.3336   -0.1767 C   0  0  0  0  0  0  0  0  0  0  0  0
   -1.8770   -0.9857   -0.8330 C   0  0  0  0  0  0  0  0  0  0  0  0
   -3.1618   -0.4707   -0.9663 C   0  0  0  0  0  0  0  0  0  0  0  0
   -3.4429    0.7596   -0.4126 C   0  0  0  0  0  0  0  0  0  0  0  0
   -4.6464    1.5528   -0.3780 N   0  0  0  0  0  0  0  0  0  0  0  0
   -5.9168    1.1844   -0.9730 C   0  0  0  0  0  0  0  0  0  0  0  0
   -6.7768    0.4403   -0.0382 C   0  0  0  0  0  0  0  0  0  0  0  0
   -6.3268    0.1790    1.2314 C   0  0  0  0  0  0  0  0  0  0  0  0
   -7.0641   -0.5070    2.1651 C   0  0  0  0  0  0  0  0  0  0  0  0
   -8.3176   -0.9672    1.8431 C   0  0  0  0  0  0  0  0  0  0  0  0
   -8.7992   -0.7213    0.5757 C   0  0  0  0  0  0  0  0  0  0  0  0
  -10.0384   -1.1706    0.2454 F   0  0  0  0  0  0  0  0  0  0  0  0
   -8.0284   -0.0190   -0.3609 C   0  0  0  0  0  0  0  0  0  0  0  0
   -8.5557    0.2395   -1.7210 C   0  0  0  0  0  0  0  0  0  0  0  0
   -4.4044    2.7659    0.3290 C   0  0  0  0  0  0  0  0  0  0  0  0
   -5.2737    3.6539    0.5178 O   0  0  0  0  0  0  0  0  0  0  0  0
   -2.9844    2.7444    0.7641 C   0  0  0  0  0  0  0  0  0  0  0  0
   -2.4604    1.4513    0.2560 C   0  0  0  0  0  0  0  0  0  0  0  0
   -1.2069    0.9072    0.3652 C   0  0  0  0  0  0  0  0  0  0  0  0
    0.9015   -1.9786    0.6130 C   0  0  0  0  0  0  0  0  0  0  0  0
    0.2597   -3.0423    1.2252 C   0  0  0  0  0  0  0  0  0  0  0  0
   -1.1529   -3.0873    1.3446 N   0  0  0  0  0  0  0  0  0  0  0  0
    1.0411   -4.0242    1.7353 N   0  0  0  0  0  0  0  0  0  0  0  0
    2.3808   -3.9710    1.6537 C   0  0  0  0  0  0  0  0  0  0  0  0
    3.0247   -2.9501    1.0675 N   0  0  0  0  0  0  0  0  0  0  0  0
    2.2880   -1.9537    0.5481 C   0  0  0  0  0  0  0  0  0  0  0  0
    8.2896    3.4133   -0.6065 H   0  0  0  0  0  0  0  0  0  0  0  0
    7.0098    3.1664   -1.8192 H   0  0  0  0  0  0  0  0  0  0  0  0
    6.5237    3.2162   -0.0966 H   0  0  0  0  0  0  0  0  0  0  0  0
    8.1006    1.0785   -1.5753 H   0  0  0  0  0  0  0  0  0  0  0  0
    7.7461    1.3118    1.4623 H   0  0  0  0  0  0  0  0  0  0  0  0
    9.1444    2.0125    0.5464 H   0  0  0  0  0  0  0  0  0  0  0  0
    8.9275    0.2156    0.5597 H   0  0  0  0  0  0  0  0  0  0  0  0
    5.1478    1.9713   -1.7328 H   0  0  0  0  0  0  0  0  0  0  0  0
    6.1171    0.7404   -2.6755 H   0  0  0  0  0  0  0  0  0  0  0  0
    3.3892    0.6376   -2.1382 H   0  0  0  0  0  0  0  0  0  0  0  0
    4.3718   -0.8074   -2.4696 H   0  0  0  0  0  0  0  0  0  0  0  0
    4.1733    0.5405    0.2802 H   0  0  0  0  0  0  0  0  0  0  0  0
    5.1120   -1.4161    1.1644 H   0  0  0  0  0  0  0  0  0  0  0  0
    5.0474   -2.3279   -0.4189 H   0  0  0  0  0  0  0  0  0  0  0  0
    6.6766   -1.1302   -1.3783 H   0  0  0  0  0  0  0  0  0  0  0  0
    7.1765   -0.9855    0.3789 H   0  0  0  0  0  0  0  0  0  0  0  0
   -1.7003   -1.9487   -1.3061 H   0  0  0  0  0  0  0  0  0  0  0  0
   -3.9325   -1.0023   -1.4850 H   0  0  0  0  0  0  0  0  0  0  0  0
   -5.7365    0.6321   -1.9218 H   0  0  0  0  0  0  0  0  0  0  0  0
   -6.4353    2.1238   -1.2625 H   0  0  0  0  0  0  0  0  0  0  0  0
   -5.3397    0.5193    1.5434 H   0  0  0  0  0  0  0  0  0  0  0  0
   -6.7034   -0.7113    3.1691 H   0  0  0  0  0  0  0  0  0  0  0  0
   -8.9194   -1.5191    2.5838 H   0  0  0  0  0  0  0  0  0  0  0  0
   -9.6517    0.4275   -1.6241 H   0  0  0  0  0  0  0  0  0  0  0  0
   -8.4527   -0.6836   -2.3281 H   0  0  0  0  0  0  0  0  0  0  0  0
   -8.0597    1.1088   -2.1974 H   0  0  0  0  0  0  0  0  0  0  0  0
   -2.8818    2.8141    1.8650 H   0  0  0  0  0  0  0  0  0  0  0  0
   -2.4827    3.5799    0.2273 H   0  0  0  0  0  0  0  0  0  0  0  0
   -0.4357    1.4563    0.8929 H   0  0  0  0  0  0  0  0  0  0  0  0
   -1.7539   -3.7857    0.8353 H   0  0  0  0  0  0  0  0  0  0  0  0
   -1.5888   -2.3757    1.9798 H   0  0  0  0  0  0  0  0  0  0  0  0
    2.9701   -4.7895    2.0805 H   0  0  0  0  0  0  0  0  0  0  0  0
  1  2  1  0
  2  3  1  0
  2  4  1  0
  4  5  1  0
  5  6  1  0
  6  7  1  0
  7  8  1  0
  8  9  1  0
  7 10  1  0
 10 11  1  0
 11 12  2  0
 12 13  1  0
 13 14  2  0
 14 15  1  0
 15 16  2  0
 16 17  1  0
 17 18  1  0
 18 19  1  0
 19 20  2  0
 20 21  1  0
 21 22  2  0
 22 23  1  0
 23 24  1  0
 23 25  2  0
 25 26  1  0
 17 27  1  0
 27 28  2  0
 27 29  1  0
 29 30  1  0
 30 31  2  0
 12 32  1  0
 32 33  2  0
 33 34  1  0
 33 35  1  0
 35 36  2  0
 36 37  1  0
 37 38  2  0
  9  4  1  0
 38 10  1  0
 31 13  1  0
 38 32  1  0
 30 16  1  0
 25 19  1  0
  1 39  1  0
  1 40  1  0
  1 41  1  0
  2 42  1  0
  3 43  1  0
  3 44  1  0
  3 45  1  0
  5 46  1  0
  5 47  1  0
  6 48  1  0
  6 49  1  0
  7 50  1  0
  8 51  1  0
  8 52  1  0
  9 53  1  0
  9 54  1  0
 14 55  1  0
 15 56  1  0
 18 57  1  0
 18 58  1  0
 20 59  1  0
 21 60  1  0
 22 61  1  0
 26 62  1  0
 26 63  1  0
 26 64  1  0
 29 65  1  0
 29 66  1  0
 31 67  1  0
 34 68  1  0
 34 69  1  0
 36 70  1  0
M  END
$$$$
[H]c1nc(N([H])c2c([H])c([H])c(-n3nc([H])c([H])c3[H])c([H])c2[H])nc(Oc2c([H])c([H])c(N([H])C(=O)O[C@]3([H])C([H])([H])N([H])[C@]([H])(C(=O)N4C([H])([H])C([H])([H])C([H])([H])C4([H])[H])C3([H])[H])c([H])c2F)c1[H]
     RDKit          3D

 71 76  0  0  0  0  0  0  0  0999 V2000
   -2.7578    0.8868   -0.7718 F   0  0  0  0  0  0  0  0  0  0  0  0
   -1.6946    0.7994    0.0850 C   0  0  0  0  0  0  0  0  0  0  0  0
   -0.4295    1.1181   -0.2704 C   0  0  0  0  0  0  0  0  0  0  0  0
    0.6354    1.0218    0.6105 C   0  0  0  0  0  0  0  0  0  0  0  0
    1.9287    1.3777    0.2021 N   0  0  0  0  0  0  0  0  0  0  0  0
    3.1564    1.0370    0.7877 C   0  0  0  0  0  0  0  0  0  0  0  0
    3.3265    0.3272    1.8060 O   0  0  0  0  0  0  0  0  0  0  0  0
    4.3732    1.5024    0.2308 O   0  0  0  0  0  0  0  0  0  0  0  0
    5.6101    1.1821    0.7758 C   0  0  2  0  0  0  0  0  0  0  0  0
    6.3365    2.4905    1.1139 C   0  0  0  0  0  0  0  0  0  0  0  0
    7.7303    2.1913    1.0648 N   0  0  0  0  0  0  0  0  0  0  0  0
    7.9047    0.8505    0.5210 C   0  0  1  0  0  0  0  0  0  0  0  0
    6.6017    0.6356   -0.2632 C   0  0  0  0  0  0  0  0  0  0  0  0
    9.0988    0.7577   -0.3306 C   0  0  0  0  0  0  0  0  0  0  0  0
    9.7093    1.8613   -0.5231 O   0  0  0  0  0  0  0  0  0  0  0  0
    9.6398   -0.3710   -0.9434 N   0  0  0  0  0  0  0  0  0  0  0  0
    9.1877   -1.7311   -0.8808 C   0  0  0  0  0  0  0  0  0  0  0  0
    9.1717   -2.0976   -2.3745 C   0  0  0  0  0  0  0  0  0  0  0  0
   10.3366   -1.2797   -2.9426 C   0  0  0  0  0  0  0  0  0  0  0  0
   10.8052   -0.4043   -1.8035 C   0  0  0  0  0  0  0  0  0  0  0  0
    0.3585    0.5888    1.8672 C   0  0  0  0  0  0  0  0  0  0  0  0
   -0.9391    0.2550    2.2540 C   0  0  0  0  0  0  0  0  0  0  0  0
   -2.0152    0.3448    1.3856 C   0  0  0  0  0  0  0  0  0  0  0  0
   -3.2557    0.0494    1.6788 O   0  0  0  0  0  0  0  0  0  0  0  0
   -4.1372   -0.3542    2.5538 C   0  0  0  0  0  0  0  0  0  0  0  0
   -3.8898   -0.6808    3.8726 C   0  0  0  0  0  0  0  0  0  0  0  0
   -4.9262   -1.0913    4.6786 C   0  0  0  0  0  0  0  0  0  0  0  0
   -6.1488   -1.1742    4.2011 N   0  0  0  0  0  0  0  0  0  0  0  0
   -6.4437   -0.8607    2.8984 C   0  0  0  0  0  0  0  0  0  0  0  0
   -7.8008   -0.9832    2.5141 N   0  0  0  0  0  0  0  0  0  0  0  0
   -8.3716   -0.7394    1.2561 C   0  0  0  0  0  0  0  0  0  0  0  0
   -9.7686   -0.6292    1.1577 C   0  0  0  0  0  0  0  0  0  0  0  0
  -10.4080   -0.4071   -0.0407 C   0  0  0  0  0  0  0  0  0  0  0  0
   -9.7125   -0.2819   -1.2028 C   0  0  0  0  0  0  0  0  0  0  0  0
   -8.3470   -0.3845   -1.1429 C   0  0  0  0  0  0  0  0  0  0  0  0
   -7.6889   -0.6118    0.0809 C   0  0  0  0  0  0  0  0  0  0  0  0
  -10.3590   -0.0509   -2.4502 N   0  0  0  0  0  0  0  0  0  0  0  0
  -10.4730   -0.9222   -3.4546 C   0  0  0  0  0  0  0  0  0  0  0  0
  -11.1633   -0.3377   -4.5004 C   0  0  0  0  0  0  0  0  0  0  0  0
  -11.4634    0.9495   -4.0677 C   0  0  0  0  0  0  0  0  0  0  0  0
  -10.9608    1.0594   -2.8458 N   0  0  0  0  0  0  0  0  0  0  0  0
   -5.4551   -0.4751    2.1515 N   0  0  0  0  0  0  0  0  0  0  0  0
   -0.2153    1.4681   -1.2901 H   0  0  0  0  0  0  0  0  0  0  0  0
    1.9914    1.9911   -0.6711 H   0  0  0  0  0  0  0  0  0  0  0  0
    5.5858    0.5315    1.6619 H   0  0  0  0  0  0  0  0  0  0  0  0
    5.9785    2.9261    2.0479 H   0  0  0  0  0  0  0  0  0  0  0  0
    6.1149    3.1652    0.2380 H   0  0  0  0  0  0  0  0  0  0  0  0
    8.2603    2.8702    0.4647 H   0  0  0  0  0  0  0  0  0  0  0  0
    7.9041    0.1067    1.3332 H   0  0  0  0  0  0  0  0  0  0  0  0
    6.4771   -0.4266   -0.4140 H   0  0  0  0  0  0  0  0  0  0  0  0
    6.5719    1.2562   -1.1605 H   0  0  0  0  0  0  0  0  0  0  0  0
   10.0142   -2.3636   -0.4562 H   0  0  0  0  0  0  0  0  0  0  0  0
    8.2369   -1.9152   -0.4031 H   0  0  0  0  0  0  0  0  0  0  0  0
    8.2274   -1.7623   -2.8511 H   0  0  0  0  0  0  0  0  0  0  0  0
    9.2864   -3.1721   -2.5268 H   0  0  0  0  0  0  0  0  0  0  0  0
    9.9877   -0.7040   -3.8073 H   0  0  0  0  0  0  0  0  0  0  0  0
   11.1126   -1.9932   -3.2809 H   0  0  0  0  0  0  0  0  0  0  0  0
   11.1056    0.5832   -2.1668 H   0  0  0  0  0  0  0  0  0  0  0  0
   11.6832   -0.8566   -1.2978 H   0  0  0  0  0  0  0  0  0  0  0  0
    1.1590    0.5092    2.5896 H   0  0  0  0  0  0  0  0  0  0  0  0
   -1.0285   -0.0741    3.2694 H   0  0  0  0  0  0  0  0  0  0  0  0
   -2.9005   -0.6205    4.2880 H   0  0  0  0  0  0  0  0  0  0  0  0
   -4.6711   -1.3402    5.7270 H   0  0  0  0  0  0  0  0  0  0  0  0
   -8.4919   -1.3080    3.2703 H   0  0  0  0  0  0  0  0  0  0  0  0
  -10.3419   -0.7240    2.0674 H   0  0  0  0  0  0  0  0  0  0  0  0
  -11.4881   -0.3303   -0.0605 H   0  0  0  0  0  0  0  0  0  0  0  0
   -7.7584   -0.2921   -2.0301 H   0  0  0  0  0  0  0  0  0  0  0  0
   -6.6184   -0.6931    0.0629 H   0  0  0  0  0  0  0  0  0  0  0  0
  -10.0813   -1.9349   -3.4449 H   0  0  0  0  0  0  0  0  0  0  0  0
  -11.3987   -0.8160   -5.4392 H   0  0  0  0  0  0  0  0  0  0  0  0
  -12.0047    1.6740   -4.6590 H   0  0  0  0  0  0  0  0  0  0  0  0
  1  2  1  0
  2  3  2  0
  3  4  1  0
  4  5  1  0
  5  6  1  0
  6  7  2  0
  6  8  1  0
  8  9  1  0
  9 10  1  0
 10 11  1  0
 11 12  1  0
 12 13  1  0
 12 14  1  0
 14 15  2  0
 14 16  1  0
 16 17  1  0
 17 18  1  0
 18 19  1  0
 19 20  1  0
  4 21  2  0
 21 22  1  0
 22 23  2  0
 23 24  1  0
 24 25  1  0
 25 26  2  0
 26 27  1  0
 27 28  2  0
 28 29  1  0
 29 30  1  0
 30 31  1  0
 31 32  2  0
 32 33  1  0
 33 34  2  0
 34 35  1  0
 35 36  2  0
 34 37  1  0
 37 38  1  0
 38 39  2  0
 39 40  1  0
 40 41  2  0
 29 42  2  0
 23  2  1  0
 42 25  1  0
 13  9  1  0
 20 16  1  0
 36 31  1  0
 41 37  1  0
  3 43  1  0
  5 44  1  0
  9 45  1  1
 10 46  1  0
 10 47  1  0
 11 48  1  0
 12 49  1  1
 13 50  1  0
 13 51  1  0
 17 52  1  0
 17 53  1  0
 18 54  1  0
 18 55  1  0
 19 56  1  0
 19 57  1  0
 20 58  1  0
 20 59  1  0
 21 60  1  0
 22 61  1  0
 26 62  1  0
 27 63  1  0
 30 64  1  0
 32 65  1  0
 33 66  1  0
 35 67  1  0
 36 68  1  0
 38 69  1  0
 39 70  1  0
 40 71  1  0
M  END
$$$$
[H]/C(C(=O)N([H])c1c(OC([H])([H])C([H])([H])OC([H])([H])[H])c([H])c2nc([H])nc(N([H])c3c([H])c([H])c(F)c([H])c3F)c2c1[H])=C(/[H])C([H])([H])N1C([H])([H])[C@]2([H])OC([H])([H])C([H])([H])O[C@]2([H])C1([H])[H]
     RDKit          3D

 68 72  0  0  0  0  0  0  0  0999 V2000
   -1.6643    6.0951    1.7423 C   0  0  0  0  0  0  0  0  0  0  0  0
   -1.1581    5.7596    0.5082 O   0  0  0  0  0  0  0  0  0  0  0  0
   -1.2975    4.4123    0.1825 C   0  0  0  0  0  0  0  0  0  0  0  0
   -0.6117    3.4848    1.1482 C   0  0  0  0  0  0  0  0  0  0  0  0
   -0.7750    2.1762    0.7846 O   0  0  0  0  0  0  0  0  0  0  0  0
   -1.8256    1.3398    0.6425 C   0  0  0  0  0  0  0  0  0  0  0  0
   -3.1259    1.6370    0.8702 C   0  0  0  0  0  0  0  0  0  0  0  0
   -4.1279    0.7013    0.6915 C   0  0  0  0  0  0  0  0  0  0  0  0
   -5.4085    1.0646    0.9337 N   0  0  0  0  0  0  0  0  0  0  0  0
   -6.4249    0.1985    0.7751 C   0  0  0  0  0  0  0  0  0  0  0  0
   -6.1362   -1.0380    0.3692 N   0  0  0  0  0  0  0  0  0  0  0  0
   -4.9079   -1.5024    0.1021 C   0  0  0  0  0  0  0  0  0  0  0  0
   -4.6180   -2.8172   -0.3007 N   0  0  0  0  0  0  0  0  0  0  0  0
   -5.5753   -3.8281   -0.5410 C   0  0  0  0  0  0  0  0  0  0  0  0
   -6.9342   -3.7071   -0.5558 C   0  0  0  0  0  0  0  0  0  0  0  0
   -7.7777   -4.7990   -0.8361 C   0  0  0  0  0  0  0  0  0  0  0  0
   -7.2714   -6.0340   -1.1074 C   0  0  0  0  0  0  0  0  0  0  0  0
   -8.0372   -7.1146   -1.3840 F   0  0  0  0  0  0  0  0  0  0  0  0
   -5.8989   -6.1931   -1.1009 C   0  0  0  0  0  0  0  0  0  0  0  0
   -5.0882   -5.1149   -0.8247 C   0  0  0  0  0  0  0  0  0  0  0  0
   -3.7369   -5.2947   -0.8199 F   0  0  0  0  0  0  0  0  0  0  0  0
   -3.8683   -0.5799    0.2759 C   0  0  0  0  0  0  0  0  0  0  0  0
   -2.5273   -0.8926    0.0404 C   0  0  0  0  0  0  0  0  0  0  0  0
   -1.5215    0.0181    0.2107 C   0  0  0  0  0  0  0  0  0  0  0  0
   -0.1612   -0.2825    0.0070 N   0  0  0  0  0  0  0  0  0  0  0  0
    0.3666   -1.4708   -0.4946 C   0  0  0  0  0  0  0  0  0  0  0  0
   -0.3308   -2.4597   -0.8484 O   0  0  0  0  0  0  0  0  0  0  0  0
    1.8127   -1.6386   -0.6405 C   0  0  0  0  0  0  0  0  0  0  0  0
    2.6793   -0.7336   -0.3224 C   0  0  0  0  0  0  0  0  0  0  0  0
    4.1249   -0.9956   -0.5064 C   0  0  0  0  0  0  0  0  0  0  0  0
    4.6339    0.0127   -1.4179 N   0  0  0  0  0  0  0  0  0  0  0  0
    4.6445    1.3250   -0.8561 C   0  0  0  0  0  0  0  0  0  0  0  0
    6.0837    1.5785   -0.4036 C   0  0  1  0  0  0  0  0  0  0  0  0
    6.0727    1.3742    0.9803 O   0  0  0  0  0  0  0  0  0  0  0  0
    7.3615    1.4488    1.4607 C   0  0  0  0  0  0  0  0  0  0  0  0
    8.2433    0.4208    0.8293 C   0  0  0  0  0  0  0  0  0  0  0  0
    7.6489   -0.2451   -0.2163 O   0  0  0  0  0  0  0  0  0  0  0  0
    6.9362    0.5645   -1.0880 C   0  0  1  0  0  0  0  0  0  0  0  0
    5.9794   -0.2830   -1.8525 C   0  0  0  0  0  0  0  0  0  0  0  0
   -2.7523    5.8830    1.8675 H   0  0  0  0  0  0  0  0  0  0  0  0
   -1.6009    7.2136    1.8192 H   0  0  0  0  0  0  0  0  0  0  0  0
   -1.0302    5.6891    2.5332 H   0  0  0  0  0  0  0  0  0  0  0  0
   -2.3239    4.1583   -0.0732 H   0  0  0  0  0  0  0  0  0  0  0  0
   -0.7237    4.2977   -0.7918 H   0  0  0  0  0  0  0  0  0  0  0  0
   -0.9030    3.7054    2.2064 H   0  0  0  0  0  0  0  0  0  0  0  0
    0.4900    3.7177    1.0822 H   0  0  0  0  0  0  0  0  0  0  0  0
   -3.4050    2.6369    1.2222 H   0  0  0  0  0  0  0  0  0  0  0  0
   -7.4661    0.4817    0.9698 H   0  0  0  0  0  0  0  0  0  0  0  0
   -3.5971   -3.0858   -0.4392 H   0  0  0  0  0  0  0  0  0  0  0  0
   -7.3926   -2.7519   -0.3583 H   0  0  0  0  0  0  0  0  0  0  0  0
   -8.8407   -4.6364   -0.8325 H   0  0  0  0  0  0  0  0  0  0  0  0
   -5.4661   -7.1751   -1.3163 H   0  0  0  0  0  0  0  0  0  0  0  0
   -2.3144   -1.8928   -0.2813 H   0  0  0  0  0  0  0  0  0  0  0  0
    0.5687    0.4777    0.2665 H   0  0  0  0  0  0  0  0  0  0  0  0
    2.1944   -2.6008   -1.0486 H   0  0  0  0  0  0  0  0  0  0  0  0
    2.4068    0.2110    0.0735 H   0  0  0  0  0  0  0  0  0  0  0  0
    4.6768   -0.9951    0.4578 H   0  0  0  0  0  0  0  0  0  0  0  0
    4.2424   -2.0138   -0.9176 H   0  0  0  0  0  0  0  0  0  0  0  0
    4.3909    2.0681   -1.6672 H   0  0  0  0  0  0  0  0  0  0  0  0
    3.9356    1.5160   -0.0485 H   0  0  0  0  0  0  0  0  0  0  0  0
    6.3643    2.6238   -0.6236 H   0  0  0  0  0  0  0  0  0  0  0  0
    7.3060    1.2534    2.5582 H   0  0  0  0  0  0  0  0  0  0  0  0
    7.7859    2.4676    1.2558 H   0  0  0  0  0  0  0  0  0  0  0  0
    8.5414   -0.3606    1.5851 H   0  0  0  0  0  0  0  0  0  0  0  0
    9.2184    0.8622    0.4997 H   0  0  0  0  0  0  0  0  0  0  0  0
    7.6776    1.0633   -1.7748 H   0  0  0  0  0  0  0  0  0  0  0  0
    6.1637   -1.3745   -1.7172 H   0  0  0  0  0  0  0  0  0  0  0  0
    6.0761   -0.0269   -2.9444 H   0  0  0  0  0  0  0  0  0  0  0  0
  1  2  1  0
  2  3  1  0
  3  4  1  0
  4  5  1  0
  5  6  1  0
  6  7  2  0
  7  8  1  0
  8  9  2  0
  9 10  1  0
 10 11  2  0
 11 12  1  0
 12 13  1  0
 13 14  1  0
 14 15  2  0
 15 16  1  0
 16 17  2  0
 17 18  1  0
 17 19  1  0
 19 20  2  0
 20 21  1  0
 12 22  2  0
 22 23  1  0
 23 24  2  0
 24 25  1  0
 25 26  1  0
 26 27  2  0
 26 28  1  0
 28 29  2  0
 29 30  1  0
 30 31  1  0
 31 32  1  0
 32 33  1  0
 33 34  1  0
 34 35  1  0
 35 36  1  0
 36 37  1  0
 37 38  1  0
 38 39  1  0
 24  6  1  0
 39 31  1  0
 22  8  1  0
 38 33  1  0
 20 14  1  0
  1 40  1  0
  1 41  1  0
  1 42  1  0
  3 43  1  0
  3 44  1  0
  4 45  1  0
  4 46  1  0
  7 47  1  0
 10 48  1  0
 13 49  1  0
 15 50  1  0
 16 51  1  0
 19 52  1  0
 23 53  1  0
 25 54  1  0
 28 55  1  0
 29 56  1  0
 30 57  1  0
 30 58  1  0
 32 59  1  0
 32 60  1  0
 33 61  1  1
 35 62  1  0
 35 63  1  0
 36 64  1  0
 36 65  1  0
 38 66  1  6
 39 67  1  0
 39 68  1  0
M  END
$$$$
[H]/C(C(=O)N([H])c1c(N2C([H])([H])C([H])([H])N(C([H])([H])[H])C([H])(C(=O)N([H])C([H])([H])C([H])([H])[H])C2([H])[H])c([H])c2nc([H])nc(N([H])c3c([H])c([H])c(OC([H])([H])c4c([H])c([H])c([H])c(F)c4[H])c(Cl)c3[H])c2c1[H])=C(/[H])C([H])([H])N(C([H])([H])[H])C([H])([H])[H]
     RDKit          3D

 88 92  0  0  0  0  0  0  0  0999 V2000
   -7.3040   -1.2130    0.1098 C   0  0  0  0  0  0  0  0  0  0  0  0
   -6.2196   -0.9808    1.1496 C   0  0  0  0  0  0  0  0  0  0  0  0
   -5.3385    0.0716    0.7159 N   0  0  0  0  0  0  0  0  0  0  0  0
   -5.8524    1.3779    0.4973 C   0  0  0  0  0  0  0  0  0  0  0  0
   -7.0779    1.5597    0.7011 O   0  0  0  0  0  0  0  0  0  0  0  0
   -4.9177    2.4447    0.0431 C   0  0  0  0  0  0  0  0  0  0  0  0
   -3.6112    2.4522    0.7776 C   0  0  0  0  0  0  0  0  0  0  0  0
   -2.6349    3.0805   -0.1262 N   0  0  0  0  0  0  0  0  0  0  0  0
   -3.1861    4.0793   -1.0100 C   0  0  0  0  0  0  0  0  0  0  0  0
   -4.4369    4.6933   -0.4316 C   0  0  0  0  0  0  0  0  0  0  0  0
   -5.4638    3.7494   -0.0637 N   0  0  0  0  0  0  0  0  0  0  0  0
   -6.1307    4.2550    1.0995 C   0  0  0  0  0  0  0  0  0  0  0  0
   -1.2657    2.7255   -0.1241 C   0  0  0  0  0  0  0  0  0  0  0  0
   -0.3245    3.5629    0.4103 C   0  0  0  0  0  0  0  0  0  0  0  0
    1.0272    3.2381    0.4889 C   0  0  0  0  0  0  0  0  0  0  0  0
    1.8792    4.1151    1.0367 N   0  0  0  0  0  0  0  0  0  0  0  0
    3.1708    3.7807    1.1091 C   0  0  0  0  0  0  0  0  0  0  0  0
    3.5975    2.6096    0.6501 N   0  0  0  0  0  0  0  0  0  0  0  0
    2.8178    1.6757    0.0891 C   0  0  0  0  0  0  0  0  0  0  0  0
    3.3203    0.4789   -0.4165 N   0  0  0  0  0  0  0  0  0  0  0  0
    4.6505    0.0442   -0.3469 C   0  0  0  0  0  0  0  0  0  0  0  0
    5.5680    0.4193    0.6176 C   0  0  0  0  0  0  0  0  0  0  0  0
    6.8630   -0.0450    0.6192 C   0  0  0  0  0  0  0  0  0  0  0  0
    7.2671   -0.9210   -0.3780 C   0  0  0  0  0  0  0  0  0  0  0  0
    8.5623   -1.3754   -0.3613 O   0  0  0  0  0  0  0  0  0  0  0  0
    9.5802   -1.1018    0.5414 C   0  0  0  0  0  0  0  0  0  0  0  0
    9.2471   -1.5818    1.9070 C   0  0  0  0  0  0  0  0  0  0  0  0
    9.8811   -1.0116    2.9893 C   0  0  0  0  0  0  0  0  0  0  0  0
    9.6121   -1.4234    4.2628 C   0  0  0  0  0  0  0  0  0  0  0  0
    8.6739   -2.4433    4.4585 C   0  0  0  0  0  0  0  0  0  0  0  0
    8.0449   -3.0114    3.4033 C   0  0  0  0  0  0  0  0  0  0  0  0
    7.1151   -4.0146    3.5571 F   0  0  0  0  0  0  0  0  0  0  0  0
    8.3386   -2.5724    2.1121 C   0  0  0  0  0  0  0  0  0  0  0  0
    6.3664   -1.3000   -1.3413 C   0  0  0  0  0  0  0  0  0  0  0  0
    6.8451   -2.4163   -2.6258 Cl  0  0  0  0  0  0  0  0  0  0  0  0
    5.0884   -0.8235   -1.3194 C   0  0  0  0  0  0  0  0  0  0  0  0
    1.4614    2.0230    0.0124 C   0  0  0  0  0  0  0  0  0  0  0  0
    0.5387    1.1458   -0.5381 C   0  0  0  0  0  0  0  0  0  0  0  0
   -0.8153    1.4801   -0.6126 C   0  0  0  0  0  0  0  0  0  0  0  0
   -1.7169    0.6135   -1.2265 N   0  0  0  0  0  0  0  0  0  0  0  0
   -1.5326   -0.7151   -1.5818 C   0  0  0  0  0  0  0  0  0  0  0  0
   -0.5149   -1.3822   -1.3977 O   0  0  0  0  0  0  0  0  0  0  0  0
   -2.6527   -1.4533   -2.2602 C   0  0  0  0  0  0  0  0  0  0  0  0
   -2.5422   -2.6991   -2.6218 C   0  0  0  0  0  0  0  0  0  0  0  0
   -3.6388   -3.4457   -3.2956 C   0  0  0  0  0  0  0  0  0  0  0  0
   -3.9812   -4.5742   -2.4780 N   0  0  0  0  0  0  0  0  0  0  0  0
   -4.5814   -4.1369   -1.2509 C   0  0  0  0  0  0  0  0  0  0  0  0
   -4.9261   -5.4214   -3.1769 C   0  0  0  0  0  0  0  0  0  0  0  0
   -7.5323   -2.3065    0.1405 H   0  0  0  0  0  0  0  0  0  0  0  0
   -8.1826   -0.5985    0.3037 H   0  0  0  0  0  0  0  0  0  0  0  0
   -6.9273   -0.9959   -0.9295 H   0  0  0  0  0  0  0  0  0  0  0  0
   -6.7349   -0.6506    2.0817 H   0  0  0  0  0  0  0  0  0  0  0  0
   -5.6875   -1.9234    1.3678 H   0  0  0  0  0  0  0  0  0  0  0  0
   -4.3331   -0.1947    0.5776 H   0  0  0  0  0  0  0  0  0  0  0  0
   -4.6655    2.1380   -1.0251 H   0  0  0  0  0  0  0  0  0  0  0  0
   -3.7346    3.1475    1.6389 H   0  0  0  0  0  0  0  0  0  0  0  0
   -3.3361    1.4418    1.0722 H   0  0  0  0  0  0  0  0  0  0  0  0
   -3.3413    3.7108   -2.0460 H   0  0  0  0  0  0  0  0  0  0  0  0
   -2.4655    4.9406   -1.1364 H   0  0  0  0  0  0  0  0  0  0  0  0
   -4.8896    5.3906   -1.1824 H   0  0  0  0  0  0  0  0  0  0  0  0
   -4.1615    5.3541    0.4276 H   0  0  0  0  0  0  0  0  0  0  0  0
   -6.0659    5.3843    1.0538 H   0  0  0  0  0  0  0  0  0  0  0  0
   -7.1609    3.9329    1.2457 H   0  0  0  0  0  0  0  0  0  0  0  0
   -5.5803    3.9863    2.0487 H   0  0  0  0  0  0  0  0  0  0  0  0
   -0.6078    4.5141    0.7900 H   0  0  0  0  0  0  0  0  0  0  0  0
    3.8572    4.4790    1.5475 H   0  0  0  0  0  0  0  0  0  0  0  0
    2.6331   -0.1708   -0.9003 H   0  0  0  0  0  0  0  0  0  0  0  0
    5.2780    1.0677    1.3958 H   0  0  0  0  0  0  0  0  0  0  0  0
    7.5089    0.3118    1.3994 H   0  0  0  0  0  0  0  0  0  0  0  0
    9.8204   -0.0076    0.5782 H   0  0  0  0  0  0  0  0  0  0  0  0
   10.5379   -1.6040    0.2280 H   0  0  0  0  0  0  0  0  0  0  0  0
   10.6048   -0.2247    2.8390 H   0  0  0  0  0  0  0  0  0  0  0  0
   10.0690   -1.0195    5.1594 H   0  0  0  0  0  0  0  0  0  0  0  0
    8.4588   -2.7721    5.4844 H   0  0  0  0  0  0  0  0  0  0  0  0
    7.8093   -3.0575    1.2980 H   0  0  0  0  0  0  0  0  0  0  0  0
    4.4073   -1.1547   -2.1152 H   0  0  0  0  0  0  0  0  0  0  0  0
    0.9149    0.2304   -0.8989 H   0  0  0  0  0  0  0  0  0  0  0  0
   -2.6684    1.0272   -1.4682 H   0  0  0  0  0  0  0  0  0  0  0  0
   -3.5735   -0.9189   -2.4417 H   0  0  0  0  0  0  0  0  0  0  0  0
   -1.5801   -3.1882   -2.4003 H   0  0  0  0  0  0  0  0  0  0  0  0
   -4.4898   -2.7912   -3.4865 H   0  0  0  0  0  0  0  0  0  0  0  0
   -3.2943   -3.8201   -4.2895 H   0  0  0  0  0  0  0  0  0  0  0  0
   -4.9353   -3.1052   -1.3003 H   0  0  0  0  0  0  0  0  0  0  0  0
   -5.4445   -4.7897   -1.0002 H   0  0  0  0  0  0  0  0  0  0  0  0
   -3.8168   -4.2826   -0.4529 H   0  0  0  0  0  0  0  0  0  0  0  0
   -4.6126   -5.6742   -4.2126 H   0  0  0  0  0  0  0  0  0  0  0  0
   -4.9646   -6.3992   -2.6176 H   0  0  0  0  0  0  0  0  0  0  0  0
   -5.9636   -5.0203   -3.1477 H   0  0  0  0  0  0  0  0  0  0  0  0
  1  2  1  0
  2  3  1  0
  3  4  1  0
  4  5  2  0
  4  6  1  0
  6  7  1  0
  7  8  1  0
  8  9  1  0
  9 10  1  0
 10 11  1  0
 11 12  1  0
  8 13  1  0
 13 14  2  0
 14 15  1  0
 15 16  2  0
 16 17  1  0
 17 18  2  0
 18 19  1  0
 19 20  1  0
 20 21  1  0
 21 22  2  0
 22 23  1  0
 23 24  2  0
 24 25  1  0
 25 26  1  0
 26 27  1  0
 27 28  2  0
 28 29  1  0
 29 30  2  0
 30 31  1  0
 31 32  1  0
 31 33  2  0
 24 34  1  0
 34 35  1  0
 34 36  2  0
 19 37  2  0
 37 38  1  0
 38 39  2  0
 39 40  1  0
 40 41  1  0
 41 42  2  0
 41 43  1  0
 43 44  2  0
 44 45  1  0
 45 46  1  0
 46 47  1  0
 46 48  1  0
 11  6  1  0
 39 13  1  0
 37 15  1  0
 36 21  1  0
 33 27  1  0
  1 49  1  0
  1 50  1  0
  1 51  1  0
  2 52  1  0
  2 53  1  0
  3 54  1  0
  6 55  1  0
  7 56  1  0
  7 57  1  0
  9 58  1  0
  9 59  1  0
 10 60  1  0
 10 61  1  0
 12 62  1  0
 12 63  1  0
 12 64  1  0
 14 65  1  0
 17 66  1  0
 20 67  1  0
 22 68  1  0
 23 69  1  0
 26 70  1  0
 26 71  1  0
 28 72  1  0
 29 73  1  0
 30 74  1  0
 33 75  1  0
 36 76  1  0
 38 77  1  0
 40 78  1  0
 43 79  1  0
 44 80  1  0
 45 81  1  0
 45 82  1  0
 47 83  1  0
 47 84  1  0
 47 85  1  0
 48 86  1  0
 48 87  1  0
 48 88  1  0
M  END
$$$$
[H]c1nc(N2C([H])([H])C([H])([H])C([H])([H])C([H])(N([H])C([H])([H])[H])C2([H])[H])c2c([H])c(C#Cc3c([H])c([H])c([H])c([H])c3[H])c([H])c([H])c2n1
     RDKit          3D

 48 51  0  0  0  0  0  0  0  0999 V2000
   -5.9350    1.0322    0.0017 C   0  0  0  0  0  0  0  0  0  0  0  0
   -4.7739    0.2240    0.2803 N   0  0  0  0  0  0  0  0  0  0  0  0
   -3.9523    0.0597   -0.8791 C   0  0  0  0  0  0  0  0  0  0  0  0
   -3.3773    1.3503   -1.4047 C   0  0  0  0  0  0  0  0  0  0  0  0
   -2.0239    1.6814   -0.8014 C   0  0  0  0  0  0  0  0  0  0  0  0
   -1.9071    1.1739    0.6356 C   0  0  0  0  0  0  0  0  0  0  0  0
   -2.0931   -0.2558    0.6123 N   0  0  0  0  0  0  0  0  0  0  0  0
   -2.7745   -0.8420   -0.5226 C   0  0  0  0  0  0  0  0  0  0  0  0
   -1.6347   -1.0935    1.6567 C   0  0  0  0  0  0  0  0  0  0  0  0
   -2.5206   -1.6358    2.5468 N   0  0  0  0  0  0  0  0  0  0  0  0
   -2.1095   -2.3999    3.5640 C   0  0  0  0  0  0  0  0  0  0  0  0
   -0.8006   -2.6439    3.7201 N   0  0  0  0  0  0  0  0  0  0  0  0
    0.1093   -2.1187    2.8493 C   0  0  0  0  0  0  0  0  0  0  0  0
    1.4550   -2.3723    2.9969 C   0  0  0  0  0  0  0  0  0  0  0  0
    2.3690   -1.8504    2.1118 C   0  0  0  0  0  0  0  0  0  0  0  0
    2.0065   -1.0576    1.0434 C   0  0  0  0  0  0  0  0  0  0  0  0
    0.6321   -0.8111    0.9112 C   0  0  0  0  0  0  0  0  0  0  0  0
   -0.2896   -1.3277    1.7917 C   0  0  0  0  0  0  0  0  0  0  0  0
    2.9757   -0.5209    0.1262 C   0  0  0  0  0  0  0  0  0  0  0  0
    3.8064   -0.0751   -0.6274 C   0  0  0  0  0  0  0  0  0  0  0  0
    4.8148    0.4430   -1.5097 C   0  0  0  0  0  0  0  0  0  0  0  0
    5.9556   -0.2885   -1.8028 C   0  0  0  0  0  0  0  0  0  0  0  0
    6.9347    0.1983   -2.6456 C   0  0  0  0  0  0  0  0  0  0  0  0
    6.8252    1.4410   -3.2395 C   0  0  0  0  0  0  0  0  0  0  0  0
    5.6929    2.1746   -2.9525 C   0  0  0  0  0  0  0  0  0  0  0  0
    4.7173    1.6856   -2.1106 C   0  0  0  0  0  0  0  0  0  0  0  0
   -6.6996    0.9442    0.8283 H   0  0  0  0  0  0  0  0  0  0  0  0
   -5.6686    2.0861   -0.1403 H   0  0  0  0  0  0  0  0  0  0  0  0
   -6.4332    0.6087   -0.8937 H   0  0  0  0  0  0  0  0  0  0  0  0
   -5.0887   -0.7132    0.5957 H   0  0  0  0  0  0  0  0  0  0  0  0
   -4.5262   -0.4754   -1.6623 H   0  0  0  0  0  0  0  0  0  0  0  0
   -3.1756    1.1830   -2.5012 H   0  0  0  0  0  0  0  0  0  0  0  0
   -4.0626    2.2059   -1.3638 H   0  0  0  0  0  0  0  0  0  0  0  0
   -1.9267    2.7875   -0.7279 H   0  0  0  0  0  0  0  0  0  0  0  0
   -1.1879    1.2318   -1.3754 H   0  0  0  0  0  0  0  0  0  0  0  0
   -2.6795    1.6724    1.2739 H   0  0  0  0  0  0  0  0  0  0  0  0
   -0.9411    1.5048    1.0212 H   0  0  0  0  0  0  0  0  0  0  0  0
   -3.1655   -1.8565   -0.3052 H   0  0  0  0  0  0  0  0  0  0  0  0
   -2.0833   -0.8758   -1.3943 H   0  0  0  0  0  0  0  0  0  0  0  0
   -2.8754   -2.8061    4.2447 H   0  0  0  0  0  0  0  0  0  0  0  0
    1.7744   -2.9896    3.8228 H   0  0  0  0  0  0  0  0  0  0  0  0
    3.4403   -2.0431    2.2158 H   0  0  0  0  0  0  0  0  0  0  0  0
    0.3321   -0.1963    0.0646 H   0  0  0  0  0  0  0  0  0  0  0  0
    6.0255   -1.2729   -1.3222 H   0  0  0  0  0  0  0  0  0  0  0  0
    7.8182   -0.3931   -2.8589 H   0  0  0  0  0  0  0  0  0  0  0  0
    7.6050    1.8150   -3.9028 H   0  0  0  0  0  0  0  0  0  0  0  0
    5.6021    3.1495   -3.4146 H   0  0  0  0  0  0  0  0  0  0  0  0
    3.8137    2.2625   -1.8761 H   0  0  0  0  0  0  0  0  0  0  0  0
  1  2  1  0
  2  3  1  0
  3  4  1  0
  4  5  1  0
  5  6  1  0
  6  7  1  0
  7  8  1  0
  7  9  1  0
  9 10  2  0
 10 11  1  0
 11 12  2  0
 12 13  1  0
 13 14  2  0
 14 15  1  0
 15 16  2  0
 16 17  1  0
 17 18  2  0
 16 19  1  0
 19 20  3  0
 20 21  1  0
 21 22  2  0
 22 23  1  0
 23 24  2  0
 24 25  1  0
 25 26  2  0
  8  3  1  0
 18  9  1  0
 26 21  1  0
 18 13  1  0
  1 27  1  0
  1 28  1  0
  1 29  1  0
  2 30  1  0
  3 31  1  0
  4 32  1  0
  4 33  1  0
  5 34  1  0
  5 35  1  0
  6 36  1  0
  6 37  1  0
  8 38  1  0
  8 39  1  0
 11 40  1  0
 14 41  1  0
 15 42  1  0
 17 43  1  0
 22 44  1  0
 23 45  1  0
 24 46  1  0
 25 47  1  0
 26 48  1  0
M  END
$$$$
