[H]c1nc(N([H])c2c([H])c([H])c(N3C([H])([H])C([H])([H])C([H])([H])[C@@]([H])(N4C([H])([H])C([H])([H])N(C([H])([H])[H])C([H])([H])C4([H])[H])C3([H])[H])c([H])c2OC([H])([H])[H])nc(N([H])c2c([H])c([H])c([H])c([H])c2S(=O)(=O)C([H])(C([H])([H])[H])C([H])([H])[H])c1Cl
     RDKit          3D

 82 86  0  0  0  0  0  0  0  0999 V2000
   -0.2693    4.0601    0.8759 C   0  0  0  0  0  0  0  0  0  0  0  0
    0.2416    2.7918    0.5216 O   0  0  0  0  0  0  0  0  0  0  0  0
   -0.6288    1.8002    0.0995 C   0  0  0  0  0  0  0  0  0  0  0  0
   -1.9826    2.0068    0.0127 C   0  0  0  0  0  0  0  0  0  0  0  0
   -2.8608    1.0354   -0.4048 C   0  0  0  0  0  0  0  0  0  0  0  0
   -2.3182   -0.1874   -0.7420 C   0  0  0  0  0  0  0  0  0  0  0  0
   -0.9341   -0.3949   -0.6511 C   0  0  0  0  0  0  0  0  0  0  0  0
   -0.0514    0.5625   -0.2381 C   0  0  0  0  0  0  0  0  0  0  0  0
    1.3489    0.4030   -0.1677 N   0  0  0  0  0  0  0  0  0  0  0  0
    2.1158   -0.7588   -0.3195 C   0  0  0  0  0  0  0  0  0  0  0  0
    1.6492   -1.9989   -0.5452 N   0  0  0  0  0  0  0  0  0  0  0  0
    2.4385   -3.0649   -0.6923 C   0  0  0  0  0  0  0  0  0  0  0  0
    3.8026   -2.9217   -0.6149 C   0  0  0  0  0  0  0  0  0  0  0  0
    4.8776   -4.2793   -0.7968 Cl  0  0  0  0  0  0  0  0  0  0  0  0
    4.3438   -1.6490   -0.3816 C   0  0  0  0  0  0  0  0  0  0  0  0
    5.7463   -1.5361   -0.3238 N   0  0  0  0  0  0  0  0  0  0  0  0
    6.4865   -0.3709   -0.1092 C   0  0  0  0  0  0  0  0  0  0  0  0
    5.8995    0.8636    0.1064 C   0  0  0  0  0  0  0  0  0  0  0  0
    6.6682    2.0187    0.3138 C   0  0  0  0  0  0  0  0  0  0  0  0
    8.0301    1.8867    0.2965 C   0  0  0  0  0  0  0  0  0  0  0  0
    8.6424    0.6698    0.0840 C   0  0  0  0  0  0  0  0  0  0  0  0
    7.8924   -0.4682   -0.1201 C   0  0  0  0  0  0  0  0  0  0  0  0
    8.6301   -2.0082   -0.3835 S   0  0  0  0  0  0  0  0  0  0  0  0
    8.2738   -2.5843   -1.7357 O   0  0  0  0  0  0  0  0  0  0  0  0
    8.2795   -3.0403    0.6512 O   0  0  0  0  0  0  0  0  0  0  0  0
   10.4152   -1.9210   -0.3780 C   0  0  0  0  0  0  0  0  0  0  0  0
   10.9579   -1.1398   -1.5419 C   0  0  0  0  0  0  0  0  0  0  0  0
   10.9883   -1.5591    0.9502 C   0  0  0  0  0  0  0  0  0  0  0  0
    3.4554   -0.6711   -0.2524 N   0  0  0  0  0  0  0  0  0  0  0  0
   -4.2755    1.2201   -0.4881 N   0  0  0  0  0  0  0  0  0  0  0  0
   -5.0121    0.5596   -1.5728 C   0  0  0  0  0  0  0  0  0  0  0  0
   -6.1143    1.3974   -2.1331 C   0  0  0  0  0  0  0  0  0  0  0  0
   -6.6699    2.4290   -1.1875 C   0  0  0  0  0  0  0  0  0  0  0  0
   -6.4567    1.9014    0.2378 C   0  0  2  0  0  0  0  0  0  0  0  0
   -4.9796    2.0185    0.4871 C   0  0  0  0  0  0  0  0  0  0  0  0
   -6.9884    0.5856    0.2656 N   0  0  0  0  0  0  0  0  0  0  0  0
   -6.7727   -0.1774    1.4536 C   0  0  0  0  0  0  0  0  0  0  0  0
   -7.0366   -1.6534    1.1060 C   0  0  0  0  0  0  0  0  0  0  0  0
   -8.1966   -1.7387    0.2741 N   0  0  0  0  0  0  0  0  0  0  0  0
   -8.8913   -2.9689    0.5117 C   0  0  0  0  0  0  0  0  0  0  0  0
   -9.1040   -0.6274    0.4763 C   0  0  0  0  0  0  0  0  0  0  0  0
   -8.4506    0.6887    0.1022 C   0  0  0  0  0  0  0  0  0  0  0  0
    0.5152    4.7085    1.3293 H   0  0  0  0  0  0  0  0  0  0  0  0
   -1.1282    4.0331    1.5610 H   0  0  0  0  0  0  0  0  0  0  0  0
   -0.5859    4.5535   -0.0748 H   0  0  0  0  0  0  0  0  0  0  0  0
   -2.4208    2.9774    0.2806 H   0  0  0  0  0  0  0  0  0  0  0  0
   -2.9814   -0.9702   -1.0731 H   0  0  0  0  0  0  0  0  0  0  0  0
   -0.5824   -1.3789   -0.9373 H   0  0  0  0  0  0  0  0  0  0  0  0
    1.9222    1.2944    0.0263 H   0  0  0  0  0  0  0  0  0  0  0  0
    2.0499   -4.0641   -0.8721 H   0  0  0  0  0  0  0  0  0  0  0  0
    6.2976   -2.4315   -0.4581 H   0  0  0  0  0  0  0  0  0  0  0  0
    4.8405    1.0355    0.1326 H   0  0  0  0  0  0  0  0  0  0  0  0
    6.2126    2.9743    0.4812 H   0  0  0  0  0  0  0  0  0  0  0  0
    8.6965    2.7389    0.4498 H   0  0  0  0  0  0  0  0  0  0  0  0
    9.7272    0.5733    0.0689 H   0  0  0  0  0  0  0  0  0  0  0  0
   10.7368   -2.9936   -0.5627 H   0  0  0  0  0  0  0  0  0  0  0  0
   10.1262   -0.6990   -2.1672 H   0  0  0  0  0  0  0  0  0  0  0  0
   11.5176   -1.7704   -2.2752 H   0  0  0  0  0  0  0  0  0  0  0  0
   11.6440   -0.3346   -1.1831 H   0  0  0  0  0  0  0  0  0  0  0  0
   11.5845   -2.3512    1.4324 H   0  0  0  0  0  0  0  0  0  0  0  0
   10.1888   -1.1803    1.6317 H   0  0  0  0  0  0  0  0  0  0  0  0
   11.6696   -0.6707    0.8042 H   0  0  0  0  0  0  0  0  0  0  0  0
   -4.2614    0.4427   -2.4171 H   0  0  0  0  0  0  0  0  0  0  0  0
   -5.2862   -0.4834   -1.3230 H   0  0  0  0  0  0  0  0  0  0  0  0
   -5.8306    1.8784   -3.1195 H   0  0  0  0  0  0  0  0  0  0  0  0
   -6.9380    0.6882   -2.4452 H   0  0  0  0  0  0  0  0  0  0  0  0
   -6.0902    3.3944   -1.2755 H   0  0  0  0  0  0  0  0  0  0  0  0
   -7.7299    2.6245   -1.3852 H   0  0  0  0  0  0  0  0  0  0  0  0
   -7.0264    2.5531    0.9540 H   0  0  0  0  0  0  0  0  0  0  0  0
   -4.7090    1.7819    1.5393 H   0  0  0  0  0  0  0  0  0  0  0  0
   -4.6934    3.0767    0.3263 H   0  0  0  0  0  0  0  0  0  0  0  0
   -7.4782    0.1762    2.2292 H   0  0  0  0  0  0  0  0  0  0  0  0
   -5.7405   -0.1415    1.8288 H   0  0  0  0  0  0  0  0  0  0  0  0
   -7.0800   -2.2837    2.0248 H   0  0  0  0  0  0  0  0  0  0  0  0
   -6.1588   -1.9797    0.4740 H   0  0  0  0  0  0  0  0  0  0  0  0
   -8.5725   -3.6741   -0.3032 H   0  0  0  0  0  0  0  0  0  0  0  0
   -9.9884   -2.8742    0.5196 H   0  0  0  0  0  0  0  0  0  0  0  0
   -8.5258   -3.4228    1.4573 H   0  0  0  0  0  0  0  0  0  0  0  0
   -9.9657   -0.7746   -0.2014 H   0  0  0  0  0  0  0  0  0  0  0  0
   -9.5271   -0.5955    1.5149 H   0  0  0  0  0  0  0  0  0  0  0  0
   -8.8741    1.4542    0.7822 H   0  0  0  0  0  0  0  0  0  0  0  0
   -8.7444    0.9356   -0.9168 H   0  0  0  0  0  0  0  0  0  0  0  0
  1  2  1  0
  2  3  1  0
  3  4  2  0
  4  5  1  0
  5  6  2  0
  6  7  1  0
  7  8  2  0
  8  9  1  0
  9 10  1  0
 10 11  2  0
 11 12  1  0
 12 13  2  0
 13 14  1  0
 13 15  1  0
 15 16  1  0
 16 17  1  0
 17 18  2  0
 18 19  1  0
 19 20  2  0
 20 21  1  0
 21 22  2  0
 22 23  1  0
 23 24  2  0
 23 25  2  0
 23 26  1  0
 26 27  1  0
 26 28  1  0
 15 29  2  0
  5 30  1  0
 30 31  1  0
 31 32  1  0
 32 33  1  0
 33 34  1  0
 34 35  1  0
 34 36  1  0
 36 37  1  0
 37 38  1  0
 38 39  1  0
 39 40  1  0
 39 41  1  0
 41 42  1  0
  8  3  1  0
 29 10  1  0
 35 30  1  0
 42 36  1  0
 22 17  1  0
  1 43  1  0
  1 44  1  0
  1 45  1  0
  4 46  1  0
  6 47  1  0
  7 48  1  0
  9 49  1  0
 12 50  1  0
 16 51  1  0
 18 52  1  0
 19 53  1  0
 20 54  1  0
 21 55  1  0
 26 56  1  0
 27 57  1  0
 27 58  1  0
 27 59  1  0
 28 60  1  0
 28 61  1  0
 28 62  1  0
 31 63  1  0
 31 64  1  0
 32 65  1  0
 32 66  1  0
 33 67  1  0
 33 68  1  0
 34 69  1  1
 35 70  1  0
 35 71  1  0
 37 72  1  0
 37 73  1  0
 38 74  1  0
 38 75  1  0
 40 76  1  0
 40 77  1  0
 40 78  1  0
 41 79  1  0
 41 80  1  0
 42 81  1  0
 42 82  1  0
M  END
$$$$
[H]c1nc(N([H])c2c([H])c([H])c(N3C([H])([H])C([H])([H])C([H])(N4C([H])([H])C([H])([H])N(C([H])([H])[H])C([H])([H])C4([H])[H])C([H])([H])C3([H])[H])c([H])c2OC([H])([H])[H])nc(N([H])c2c([H])c([H])c([H])c([H])c2S(=O)(=O)C([H])(C([H])([H])[H])C([H])([H])[H])c1Cl
     RDKit          3D

 82 86  0  0  0  0  0  0  0  0999 V2000
   -0.1870    3.7228   -1.2569 C   0  0  0  0  0  0  0  0  0  0  0  0
    0.4390    2.5297   -0.8437 O   0  0  0  0  0  0  0  0  0  0  0  0
   -0.3483    1.4775   -0.4024 C   0  0  0  0  0  0  0  0  0  0  0  0
   -1.7220    1.6350   -0.3827 C   0  0  0  0  0  0  0  0  0  0  0  0
   -2.5624    0.6308    0.0436 C   0  0  0  0  0  0  0  0  0  0  0  0
   -1.9599   -0.5357    0.4478 C   0  0  0  0  0  0  0  0  0  0  0  0
   -0.5748   -0.7280    0.4408 C   0  0  0  0  0  0  0  0  0  0  0  0
    0.2576    0.2764    0.0150 C   0  0  0  0  0  0  0  0  0  0  0  0
    1.6540    0.2011   -0.0367 N   0  0  0  0  0  0  0  0  0  0  0  0
    2.4984   -0.8842    0.3177 C   0  0  0  0  0  0  0  0  0  0  0  0
    2.1033   -2.0726    0.7812 N   0  0  0  0  0  0  0  0  0  0  0  0
    2.9559   -3.0558    1.0957 C   0  0  0  0  0  0  0  0  0  0  0  0
    4.3092   -2.8632    0.9451 C   0  0  0  0  0  0  0  0  0  0  0  0
    5.4455   -4.1449    1.3534 Cl  0  0  0  0  0  0  0  0  0  0  0  0
    4.7527   -1.6166    0.4572 C   0  0  0  0  0  0  0  0  0  0  0  0
    6.1380   -1.4466    0.3110 N   0  0  0  0  0  0  0  0  0  0  0  0
    6.9009   -0.3576   -0.1368 C   0  0  0  0  0  0  0  0  0  0  0  0
    6.2766    0.8084   -0.5266 C   0  0  0  0  0  0  0  0  0  0  0  0
    7.0240    1.9039   -0.9778 C   0  0  0  0  0  0  0  0  0  0  0  0
    8.3820    1.8034   -1.0274 C   0  0  0  0  0  0  0  0  0  0  0  0
    9.0024    0.6381   -0.6374 C   0  0  0  0  0  0  0  0  0  0  0  0
    8.2961   -0.4485   -0.1920 C   0  0  0  0  0  0  0  0  0  0  0  0
    9.0842   -1.8926    0.2913 S   0  0  0  0  0  0  0  0  0  0  0  0
    8.6633   -3.0312   -0.6035 O   0  0  0  0  0  0  0  0  0  0  0  0
    8.8235   -2.3045    1.7132 O   0  0  0  0  0  0  0  0  0  0  0  0
   10.8572   -1.7881    0.1370 C   0  0  0  0  0  0  0  0  0  0  0  0
   11.2609   -1.6791   -1.2975 C   0  0  0  0  0  0  0  0  0  0  0  0
   11.4760   -0.7869    1.0544 C   0  0  0  0  0  0  0  0  0  0  0  0
    3.8248   -0.7008    0.1721 N   0  0  0  0  0  0  0  0  0  0  0  0
   -3.9818    0.8060    0.0512 N   0  0  0  0  0  0  0  0  0  0  0  0
   -4.5241    1.9609   -0.5784 C   0  0  0  0  0  0  0  0  0  0  0  0
   -6.0011    1.9283   -0.8544 C   0  0  0  0  0  0  0  0  0  0  0  0
   -6.8245    1.3726    0.2584 C   0  0  0  0  0  0  0  0  0  0  0  0
   -6.0036    0.6088    1.2781 C   0  0  0  0  0  0  0  0  0  0  0  0
   -4.8657   -0.1463    0.6796 C   0  0  0  0  0  0  0  0  0  0  0  0
   -7.9560    0.6086   -0.0875 N   0  0  0  0  0  0  0  0  0  0  0  0
   -7.7905   -0.5856   -0.8057 C   0  0  0  0  0  0  0  0  0  0  0  0
   -9.1362   -1.0235   -1.3907 C   0  0  0  0  0  0  0  0  0  0  0  0
  -10.1390   -0.8718   -0.3544 N   0  0  0  0  0  0  0  0  0  0  0  0
  -10.0361   -1.8235    0.7053 C   0  0  0  0  0  0  0  0  0  0  0  0
  -10.3349    0.4834    0.0484 C   0  0  0  0  0  0  0  0  0  0  0  0
   -9.1475    1.3193   -0.4248 C   0  0  0  0  0  0  0  0  0  0  0  0
    0.5375    4.4499   -1.6799 H   0  0  0  0  0  0  0  0  0  0  0  0
   -0.9481    3.5330   -2.0530 H   0  0  0  0  0  0  0  0  0  0  0  0
   -0.6880    4.2523   -0.4156 H   0  0  0  0  0  0  0  0  0  0  0  0
   -2.1476    2.5764   -0.7105 H   0  0  0  0  0  0  0  0  0  0  0  0
   -2.6020   -1.3517    0.7883 H   0  0  0  0  0  0  0  0  0  0  0  0
   -0.2121   -1.6859    0.7807 H   0  0  0  0  0  0  0  0  0  0  0  0
    2.1500    1.0935   -0.3956 H   0  0  0  0  0  0  0  0  0  0  0  0
    2.6174   -4.0222    1.4737 H   0  0  0  0  0  0  0  0  0  0  0  0
    6.7215   -2.3022    0.5911 H   0  0  0  0  0  0  0  0  0  0  0  0
    5.2202    0.9989   -0.5296 H   0  0  0  0  0  0  0  0  0  0  0  0
    6.5603    2.8305   -1.2896 H   0  0  0  0  0  0  0  0  0  0  0  0
    9.0220    2.6252   -1.3712 H   0  0  0  0  0  0  0  0  0  0  0  0
   10.0936    0.6299   -0.7052 H   0  0  0  0  0  0  0  0  0  0  0  0
   11.2252   -2.8031    0.4806 H   0  0  0  0  0  0  0  0  0  0  0  0
   11.9033   -0.7785   -1.4926 H   0  0  0  0  0  0  0  0  0  0  0  0
   10.3307   -1.5514   -1.9199 H   0  0  0  0  0  0  0  0  0  0  0  0
   11.7765   -2.5763   -1.6995 H   0  0  0  0  0  0  0  0  0  0  0  0
   12.0225   -1.2557    1.8769 H   0  0  0  0  0  0  0  0  0  0  0  0
   12.1781   -0.1622    0.4319 H   0  0  0  0  0  0  0  0  0  0  0  0
   10.7434   -0.0899    1.5079 H   0  0  0  0  0  0  0  0  0  0  0  0
   -4.2803    2.8410    0.0525 H   0  0  0  0  0  0  0  0  0  0  0  0
   -3.9354    2.1199   -1.5269 H   0  0  0  0  0  0  0  0  0  0  0  0
   -6.3084    2.9635   -1.1164 H   0  0  0  0  0  0  0  0  0  0  0  0
   -6.1470    1.3325   -1.7818 H   0  0  0  0  0  0  0  0  0  0  0  0
   -7.2139    2.2642    0.8421 H   0  0  0  0  0  0  0  0  0  0  0  0
   -6.6586   -0.1075    1.8153 H   0  0  0  0  0  0  0  0  0  0  0  0
   -5.5929    1.2907    2.0626 H   0  0  0  0  0  0  0  0  0  0  0  0
   -5.1731   -0.8869   -0.0780 H   0  0  0  0  0  0  0  0  0  0  0  0
   -4.3121   -0.6097    1.5260 H   0  0  0  0  0  0  0  0  0  0  0  0
   -7.5080   -1.4012   -0.0997 H   0  0  0  0  0  0  0  0  0  0  0  0
   -7.0082   -0.5774   -1.5870 H   0  0  0  0  0  0  0  0  0  0  0  0
   -9.4445   -0.3742   -2.2343 H   0  0  0  0  0  0  0  0  0  0  0  0
   -9.0261   -2.0597   -1.7202 H   0  0  0  0  0  0  0  0  0  0  0  0
   -9.1822   -2.5377    0.5321 H   0  0  0  0  0  0  0  0  0  0  0  0
   -9.9814   -1.3564    1.7041 H   0  0  0  0  0  0  0  0  0  0  0  0
  -10.9456   -2.4645    0.6802 H   0  0  0  0  0  0  0  0  0  0  0  0
  -11.2261    0.8855   -0.4545 H   0  0  0  0  0  0  0  0  0  0  0  0
  -10.4517    0.5517    1.1515 H   0  0  0  0  0  0  0  0  0  0  0  0
   -9.2778    1.5186   -1.4917 H   0  0  0  0  0  0  0  0  0  0  0  0
   -9.1611    2.2698    0.1783 H   0  0  0  0  0  0  0  0  0  0  0  0
  1  2  1  0
  2  3  1  0
  3  4  2  0
  4  5  1  0
  5  6  2  0
  6  7  1  0
  7  8  2  0
  8  9  1  0
  9 10  1  0
 10 11  2  0
 11 12  1  0
 12 13  2  0
 13 14  1  0
 13 15  1  0
 15 16  1  0
 16 17  1  0
 17 18  2  0
 18 19  1  0
 19 20  2  0
 20 21  1  0
 21 22  2  0
 22 23  1  0
 23 24  2  0
 23 25  2  0
 23 26  1  0
 26 27  1  0
 26 28  1  0
 15 29  2  0
  5 30  1  0
 30 31  1  0
 31 32  1  0
 32 33  1  0
 33 34  1  0
 34 35  1  0
 33 36  1  0
 36 37  1  0
 37 38  1  0
 38 39  1  0
 39 40  1  0
 39 41  1  0
 41 42  1  0
  8  3  1  0
 29 10  1  0
 35 30  1  0
 42 36  1  0
 22 17  1  0
  1 43  1  0
  1 44  1  0
  1 45  1  0
  4 46  1  0
  6 47  1  0
  7 48  1  0
  9 49  1  0
 12 50  1  0
 16 51  1  0
 18 52  1  0
 19 53  1  0
 20 54  1  0
 21 55  1  0
 26 56  1  0
 27 57  1  0
 27 58  1  0
 27 59  1  0
 28 60  1  0
 28 61  1  0
 28 62  1  0
 31 63  1  0
 31 64  1  0
 32 65  1  0
 32 66  1  0
 33 67  1  0
 34 68  1  0
 34 69  1  0
 35 70  1  0
 35 71  1  0
 37 72  1  0
 37 73  1  0
 38 74  1  0
 38 75  1  0
 40 76  1  0
 40 77  1  0
 40 78  1  0
 41 79  1  0
 41 80  1  0
 42 81  1  0
 42 82  1  0
M  END
$$$$
[H]c1nc(N([H])c2c([H])c([H])c(N3C([H])([H])C([H])([H])C([H])([H])[C@@]([H])(N4C([H])([H])C([H])([H])OC([H])([H])C4([H])[H])C3([H])[H])c([H])c2OC([H])([H])[H])nc(N([H])c2c([H])c([H])c([H])c([H])c2S(=O)(=O)C([H])(C([H])([H])[H])C([H])([H])[H])c1Cl
     RDKit          3D

 78 82  0  0  0  0  0  0  0  0999 V2000
   -3.7193   -2.7659    2.3862 C   0  0  0  0  0  0  0  0  0  0  0  0
   -2.3523   -2.8151    2.0359 O   0  0  0  0  0  0  0  0  0  0  0  0
   -1.8536   -1.8017    1.2202 C   0  0  0  0  0  0  0  0  0  0  0  0
   -2.6758   -0.7909    0.7776 C   0  0  0  0  0  0  0  0  0  0  0  0
   -2.2465    0.2376   -0.0301 C   0  0  0  0  0  0  0  0  0  0  0  0
   -0.9108    0.2101   -0.3877 C   0  0  0  0  0  0  0  0  0  0  0  0
   -0.0712   -0.8114    0.0575 C   0  0  0  0  0  0  0  0  0  0  0  0
   -0.5139   -1.8179    0.8542 C   0  0  0  0  0  0  0  0  0  0  0  0
    0.2687   -2.9077    1.2883 N   0  0  0  0  0  0  0  0  0  0  0  0
    1.6614   -3.0481    1.3029 C   0  0  0  0  0  0  0  0  0  0  0  0
    2.1395   -4.2653    1.7254 N   0  0  0  0  0  0  0  0  0  0  0  0
    3.4485   -4.5202    1.8265 C   0  0  0  0  0  0  0  0  0  0  0  0
    4.3508   -3.5576    1.5070 C   0  0  0  0  0  0  0  0  0  0  0  0
    6.0936   -3.8946    1.6441 Cl  0  0  0  0  0  0  0  0  0  0  0  0
    3.9190   -2.2980    1.0720 C   0  0  0  0  0  0  0  0  0  0  0  0
    4.9055   -1.3615    0.7392 N   0  0  0  0  0  0  0  0  0  0  0  0
    4.7843   -0.0113    0.3569 C   0  0  0  0  0  0  0  0  0  0  0  0
    3.6236    0.6931    0.4410 C   0  0  0  0  0  0  0  0  0  0  0  0
    3.5288    2.0416    0.0792 C   0  0  0  0  0  0  0  0  0  0  0  0
    4.6384    2.6954   -0.3795 C   0  0  0  0  0  0  0  0  0  0  0  0
    5.8191    2.0219   -0.4760 C   0  0  0  0  0  0  0  0  0  0  0  0
    5.8957    0.7000   -0.1169 C   0  0  0  0  0  0  0  0  0  0  0  0
    7.4428   -0.1430   -0.2423 S   0  0  0  0  0  0  0  0  0  0  0  0
    7.9505   -0.5472    1.1317 O   0  0  0  0  0  0  0  0  0  0  0  0
    7.3407   -1.2809   -1.1841 O   0  0  0  0  0  0  0  0  0  0  0  0
    8.6842    0.9949   -0.8564 C   0  0  0  0  0  0  0  0  0  0  0  0
    9.9715    0.1631   -1.0344 C   0  0  0  0  0  0  0  0  0  0  0  0
    8.9860    1.9844    0.2383 C   0  0  0  0  0  0  0  0  0  0  0  0
    2.5948   -2.1484    1.0056 N   0  0  0  0  0  0  0  0  0  0  0  0
   -3.0942    1.2761   -0.4753 N   0  0  0  0  0  0  0  0  0  0  0  0
   -2.7516    2.1335   -1.6204 C   0  0  0  0  0  0  0  0  0  0  0  0
   -4.0507    2.3637   -2.3761 C   0  0  0  0  0  0  0  0  0  0  0  0
   -4.9282    1.1356   -2.1377 C   0  0  0  0  0  0  0  0  0  0  0  0
   -5.5341    1.2969   -0.7498 C   0  0  2  0  0  0  0  0  0  0  0  0
   -4.3649    1.5682    0.1761 C   0  0  0  0  0  0  0  0  0  0  0  0
   -6.2569    0.1387   -0.3292 N   0  0  0  0  0  0  0  0  0  0  0  0
   -6.9253    0.3235    0.9176 C   0  0  0  0  0  0  0  0  0  0  0  0
   -8.2765    1.0063    0.7744 C   0  0  0  0  0  0  0  0  0  0  0  0
   -9.0573    0.3575   -0.1624 O   0  0  0  0  0  0  0  0  0  0  0  0
   -8.4448    0.3347   -1.4137 C   0  0  0  0  0  0  0  0  0  0  0  0
   -7.1424   -0.4255   -1.2957 C   0  0  0  0  0  0  0  0  0  0  0  0
   -4.0435   -3.6342    2.9789 H   0  0  0  0  0  0  0  0  0  0  0  0
   -3.9176   -1.8064    2.9461 H   0  0  0  0  0  0  0  0  0  0  0  0
   -4.3257   -2.7092    1.4624 H   0  0  0  0  0  0  0  0  0  0  0  0
   -3.7328   -0.7988    1.0808 H   0  0  0  0  0  0  0  0  0  0  0  0
   -0.5456    1.0040   -1.0208 H   0  0  0  0  0  0  0  0  0  0  0  0
    0.9444   -0.7687   -0.2786 H   0  0  0  0  0  0  0  0  0  0  0  0
   -0.2738   -3.7640    1.6605 H   0  0  0  0  0  0  0  0  0  0  0  0
    3.8261   -5.4909    2.1628 H   0  0  0  0  0  0  0  0  0  0  0  0
    5.9241   -1.7329    0.7727 H   0  0  0  0  0  0  0  0  0  0  0  0
    2.7192    0.2639    0.8128 H   0  0  0  0  0  0  0  0  0  0  0  0
    2.6024    2.5832    0.1521 H   0  0  0  0  0  0  0  0  0  0  0  0
    4.5948    3.7618   -0.6733 H   0  0  0  0  0  0  0  0  0  0  0  0
    6.7070    2.5613   -0.8584 H   0  0  0  0  0  0  0  0  0  0  0  0
    8.3909    1.4380   -1.8133 H   0  0  0  0  0  0  0  0  0  0  0  0
    9.7247   -0.9136   -1.1620 H   0  0  0  0  0  0  0  0  0  0  0  0
   10.6139    0.2322   -0.1383 H   0  0  0  0  0  0  0  0  0  0  0  0
   10.5121    0.5271   -1.9213 H   0  0  0  0  0  0  0  0  0  0  0  0
    9.1755    3.0079   -0.1398 H   0  0  0  0  0  0  0  0  0  0  0  0
    9.9137    1.7154    0.8172 H   0  0  0  0  0  0  0  0  0  0  0  0
    8.1927    2.0404    1.0139 H   0  0  0  0  0  0  0  0  0  0  0  0
   -2.0289    1.6109   -2.2840 H   0  0  0  0  0  0  0  0  0  0  0  0
   -2.3372    3.1073   -1.3064 H   0  0  0  0  0  0  0  0  0  0  0  0
   -3.8861    2.5083   -3.4683 H   0  0  0  0  0  0  0  0  0  0  0  0
   -4.5803    3.2224   -1.9159 H   0  0  0  0  0  0  0  0  0  0  0  0
   -5.6899    1.1494   -2.9313 H   0  0  0  0  0  0  0  0  0  0  0  0
   -4.3150    0.2098   -2.1772 H   0  0  0  0  0  0  0  0  0  0  0  0
   -6.2430    2.1528   -0.7984 H   0  0  0  0  0  0  0  0  0  0  0  0
   -4.4277    1.0952    1.1489 H   0  0  0  0  0  0  0  0  0  0  0  0
   -4.3683    2.6824    0.3624 H   0  0  0  0  0  0  0  0  0  0  0  0
   -7.1572   -0.7065    1.3163 H   0  0  0  0  0  0  0  0  0  0  0  0
   -6.3688    0.8755    1.6850 H   0  0  0  0  0  0  0  0  0  0  0  0
   -8.1821    2.0978    0.5904 H   0  0  0  0  0  0  0  0  0  0  0  0
   -8.7629    0.9085    1.7658 H   0  0  0  0  0  0  0  0  0  0  0  0
   -9.0887   -0.2113   -2.1014 H   0  0  0  0  0  0  0  0  0  0  0  0
   -8.3036    1.3644   -1.7513 H   0  0  0  0  0  0  0  0  0  0  0  0
   -6.7076   -0.6042   -2.2815 H   0  0  0  0  0  0  0  0  0  0  0  0
   -7.4323   -1.4442   -0.9023 H   0  0  0  0  0  0  0  0  0  0  0  0
  1  2  1  0
  2  3  1  0
  3  4  2  0
  4  5  1  0
  5  6  2  0
  6  7  1  0
  7  8  2  0
  8  9  1  0
  9 10  1  0
 10 11  2  0
 11 12  1  0
 12 13  2  0
 13 14  1  0
 13 15  1  0
 15 16  1  0
 16 17  1  0
 17 18  2  0
 18 19  1  0
 19 20  2  0
 20 21  1  0
 21 22  2  0
 22 23  1  0
 23 24  2  0
 23 25  2  0
 23 26  1  0
 26 27  1  0
 26 28  1  0
 15 29  2  0
  5 30  1  0
 30 31  1  0
 31 32  1  0
 32 33  1  0
 33 34  1  0
 34 35  1  0
 34 36  1  0
 36 37  1  0
 37 38  1  0
 38 39  1  0
 39 40  1  0
 40 41  1  0
  8  3  1  0
 29 10  1  0
 35 30  1  0
 41 36  1  0
 22 17  1  0
  1 42  1  0
  1 43  1  0
  1 44  1  0
  4 45  1  0
  6 46  1  0
  7 47  1  0
  9 48  1  0
 12 49  1  0
 16 50  1  0
 18 51  1  0
 19 52  1  0
 20 53  1  0
 21 54  1  0
 26 55  1  0
 27 56  1  0
 27 57  1  0
 27 58  1  0
 28 59  1  0
 28 60  1  0
 28 61  1  0
 31 62  1  0
 31 63  1  0
 32 64  1  0
 32 65  1  0
 33 66  1  0
 33 67  1  0
 34 68  1  6
 35 69  1  0
 35 70  1  0
 37 71  1  0
 37 72  1  0
 38 73  1  0
 38 74  1  0
 40 75  1  0
 40 76  1  0
 41 77  1  0
 41 78  1  0
M  END
$$$$
[H]c1nc(N([H])c2c([H])c([H])c(N3C([H])([H])C([H])([H])C([H])([H])[C@]([H])(N4C([H])([H])C([H])([H])N(C([H])([H])[H])C([H])([H])C4([H])[H])C3([H])[H])c([H])c2OC([H])([H])[H])nc(N([H])c2c([H])c([H])c([H])c([H])c2S(=O)(=O)C([H])(C([H])([H])[H])C([H])([H])[H])c1Cl
     RDKit          3D

 82 86  0  0  0  0  0  0  0  0999 V2000
    0.0125    4.1214   -1.5474 C   0  0  0  0  0  0  0  0  0  0  0  0
    0.4994    2.8975   -1.0338 O   0  0  0  0  0  0  0  0  0  0  0  0
   -0.3798    1.9190   -0.5962 C   0  0  0  0  0  0  0  0  0  0  0  0
   -1.7408    2.1113   -0.6495 C   0  0  0  0  0  0  0  0  0  0  0  0
   -2.6437    1.1689   -0.2267 C   0  0  0  0  0  0  0  0  0  0  0  0
   -2.0974   -0.0049    0.2644 C   0  0  0  0  0  0  0  0  0  0  0  0
   -0.7123   -0.2040    0.3202 C   0  0  0  0  0  0  0  0  0  0  0  0
    0.1841    0.7329   -0.1003 C   0  0  0  0  0  0  0  0  0  0  0  0
    1.5745    0.5801   -0.0629 N   0  0  0  0  0  0  0  0  0  0  0  0
    2.3505   -0.5148    0.3631 C   0  0  0  0  0  0  0  0  0  0  0  0
    1.8744   -1.6748    0.8338 N   0  0  0  0  0  0  0  0  0  0  0  0
    2.6263   -2.6888    1.2255 C   0  0  0  0  0  0  0  0  0  0  0  0
    3.9943   -2.6148    1.1729 C   0  0  0  0  0  0  0  0  0  0  0  0
    5.0000   -3.9475    1.6879 Cl  0  0  0  0  0  0  0  0  0  0  0  0
    4.5504   -1.4050    0.6811 C   0  0  0  0  0  0  0  0  0  0  0  0
    5.9456   -1.3530    0.6193 N   0  0  0  0  0  0  0  0  0  0  0  0
    6.7197   -0.2508    0.1849 C   0  0  0  0  0  0  0  0  0  0  0  0
    6.1812    0.9685   -0.1208 C   0  0  0  0  0  0  0  0  0  0  0  0
    6.9799    2.0507   -0.5372 C   0  0  0  0  0  0  0  0  0  0  0  0
    8.3340    1.8594   -0.6330 C   0  0  0  0  0  0  0  0  0  0  0  0
    8.9102    0.6507   -0.3340 C   0  0  0  0  0  0  0  0  0  0  0  0
    8.1192   -0.3929    0.0698 C   0  0  0  0  0  0  0  0  0  0  0  0
    8.8040   -1.9500    0.4678 S   0  0  0  0  0  0  0  0  0  0  0  0
    8.2459   -3.0066   -0.4056 O   0  0  0  0  0  0  0  0  0  0  0  0
    8.5826   -2.3168    1.9060 O   0  0  0  0  0  0  0  0  0  0  0  0
   10.5694   -1.9626    0.2346 C   0  0  0  0  0  0  0  0  0  0  0  0
   10.9959   -1.7762   -1.1770 C   0  0  0  0  0  0  0  0  0  0  0  0
   11.2347   -1.0634    1.2352 C   0  0  0  0  0  0  0  0  0  0  0  0
    3.6986   -0.4495    0.3144 N   0  0  0  0  0  0  0  0  0  0  0  0
   -4.0484    1.2820   -0.2492 N   0  0  0  0  0  0  0  0  0  0  0  0
   -4.7486    2.4216   -0.7542 C   0  0  0  0  0  0  0  0  0  0  0  0
   -5.7587    2.9904    0.2220 C   0  0  0  0  0  0  0  0  0  0  0  0
   -6.5024    1.8629    0.8826 C   0  0  0  0  0  0  0  0  0  0  0  0
   -6.3243    0.6176    0.0642 C   0  0  1  0  0  0  0  0  0  0  0  0
   -4.8732    0.1910    0.2606 C   0  0  0  0  0  0  0  0  0  0  0  0
   -7.2340   -0.4373    0.4715 N   0  0  0  0  0  0  0  0  0  0  0  0
   -7.2561   -1.5178   -0.4588 C   0  0  0  0  0  0  0  0  0  0  0  0
   -8.3055   -1.2912   -1.5552 C   0  0  0  0  0  0  0  0  0  0  0  0
   -9.6493   -1.2984   -1.0286 N   0  0  0  0  0  0  0  0  0  0  0  0
  -10.3058   -2.5654   -1.2089 C   0  0  0  0  0  0  0  0  0  0  0  0
   -9.6077   -0.9218    0.3541 C   0  0  0  0  0  0  0  0  0  0  0  0
   -8.5537    0.1333    0.5768 C   0  0  0  0  0  0  0  0  0  0  0  0
   -0.6478    4.6618   -0.8587 H   0  0  0  0  0  0  0  0  0  0  0  0
   -0.5881    3.9711   -2.4906 H   0  0  0  0  0  0  0  0  0  0  0  0
    0.8609    4.7903   -1.8540 H   0  0  0  0  0  0  0  0  0  0  0  0
   -2.1338    3.0600   -1.0490 H   0  0  0  0  0  0  0  0  0  0  0  0
   -2.7492   -0.7917    0.6155 H   0  0  0  0  0  0  0  0  0  0  0  0
   -0.4008   -1.1513    0.7209 H   0  0  0  0  0  0  0  0  0  0  0  0
    2.1467    1.4229   -0.4103 H   0  0  0  0  0  0  0  0  0  0  0  0
    2.1788   -3.6181    1.6033 H   0  0  0  0  0  0  0  0  0  0  0  0
    6.4508   -2.2359    0.9366 H   0  0  0  0  0  0  0  0  0  0  0  0
    5.1292    1.1998   -0.0602 H   0  0  0  0  0  0  0  0  0  0  0  0
    6.5345    3.0153   -0.7777 H   0  0  0  0  0  0  0  0  0  0  0  0
    8.9880    2.6815   -0.9547 H   0  0  0  0  0  0  0  0  0  0  0  0
    9.9679    0.5600   -0.4273 H   0  0  0  0  0  0  0  0  0  0  0  0
   10.8826   -3.0141    0.5210 H   0  0  0  0  0  0  0  0  0  0  0  0
   10.2099   -1.3602   -1.8392 H   0  0  0  0  0  0  0  0  0  0  0  0
   11.3461   -2.7155   -1.6588 H   0  0  0  0  0  0  0  0  0  0  0  0
   11.8490   -1.0696   -1.2108 H   0  0  0  0  0  0  0  0  0  0  0  0
   10.4448   -0.6224    1.8802 H   0  0  0  0  0  0  0  0  0  0  0  0
   11.9146   -1.6220    1.9377 H   0  0  0  0  0  0  0  0  0  0  0  0
   11.8693   -0.2858    0.7599 H   0  0  0  0  0  0  0  0  0  0  0  0
   -4.0509    3.2435   -1.0004 H   0  0  0  0  0  0  0  0  0  0  0  0
   -5.2501    2.1874   -1.7445 H   0  0  0  0  0  0  0  0  0  0  0  0
   -5.1499    3.5661    0.9797 H   0  0  0  0  0  0  0  0  0  0  0  0
   -6.4302    3.6812   -0.3263 H   0  0  0  0  0  0  0  0  0  0  0  0
   -6.0073    1.6873    1.8826 H   0  0  0  0  0  0  0  0  0  0  0  0
   -7.5733    2.1339    1.0213 H   0  0  0  0  0  0  0  0  0  0  0  0
   -6.4911    0.7680   -1.0112 H   0  0  0  0  0  0  0  0  0  0  0  0
   -4.7242   -0.7338   -0.2919 H   0  0  0  0  0  0  0  0  0  0  0  0
   -4.6570    0.0148    1.3466 H   0  0  0  0  0  0  0  0  0  0  0  0
   -7.5817   -2.4800    0.0341 H   0  0  0  0  0  0  0  0  0  0  0  0
   -6.3242   -1.7555   -0.9664 H   0  0  0  0  0  0  0  0  0  0  0  0
   -8.1842   -2.1694   -2.2457 H   0  0  0  0  0  0  0  0  0  0  0  0
   -8.0891   -0.3927   -2.1526 H   0  0  0  0  0  0  0  0  0  0  0  0
   -9.9026   -3.1175   -2.0690 H   0  0  0  0  0  0  0  0  0  0  0  0
  -11.3963   -2.4173   -1.4068 H   0  0  0  0  0  0  0  0  0  0  0  0
  -10.2374   -3.2097   -0.3000 H   0  0  0  0  0  0  0  0  0  0  0  0
  -10.5869   -0.4713    0.6388 H   0  0  0  0  0  0  0  0  0  0  0  0
   -9.4666   -1.8005    1.0424 H   0  0  0  0  0  0  0  0  0  0  0  0
   -8.6661    0.8823   -0.2321 H   0  0  0  0  0  0  0  0  0  0  0  0
   -8.7299    0.5559    1.5876 H   0  0  0  0  0  0  0  0  0  0  0  0
  1  2  1  0
  2  3  1  0
  3  4  2  0
  4  5  1  0
  5  6  2  0
  6  7  1  0
  7  8  2  0
  8  9  1  0
  9 10  1  0
 10 11  2  0
 11 12  1  0
 12 13  2  0
 13 14  1  0
 13 15  1  0
 15 16  1  0
 16 17  1  0
 17 18  2  0
 18 19  1  0
 19 20  2  0
 20 21  1  0
 21 22  2  0
 22 23  1  0
 23 24  2  0
 23 25  2  0
 23 26  1  0
 26 27  1  0
 26 28  1  0
 15 29  2  0
  5 30  1  0
 30 31  1  0
 31 32  1  0
 32 33  1  0
 33 34  1  0
 34 35  1  0
 34 36  1  0
 36 37  1  0
 37 38  1  0
 38 39  1  0
 39 40  1  0
 39 41  1  0
 41 42  1  0
  8  3  1  0
 29 10  1  0
 35 30  1  0
 42 36  1  0
 22 17  1  0
  1 43  1  0
  1 44  1  0
  1 45  1  0
  4 46  1  0
  6 47  1  0
  7 48  1  0
  9 49  1  0
 12 50  1  0
 16 51  1  0
 18 52  1  0
 19 53  1  0
 20 54  1  0
 21 55  1  0
 26 56  1  0
 27 57  1  0
 27 58  1  0
 27 59  1  0
 28 60  1  0
 28 61  1  0
 28 62  1  0
 31 63  1  0
 31 64  1  0
 32 65  1  0
 32 66  1  0
 33 67  1  0
 33 68  1  0
 34 69  1  6
 35 70  1  0
 35 71  1  0
 37 72  1  0
 37 73  1  0
 38 74  1  0
 38 75  1  0
 40 76  1  0
 40 77  1  0
 40 78  1  0
 41 79  1  0
 41 80  1  0
 42 81  1  0
 42 82  1  0
M  END
$$$$
[H]c1nc(N([H])c2c([H])c([H])c(N3C([H])([H])C([H])([H])C([H])([H])[C@]([H])(N4C([H])([H])C([H])([H])OC([H])([H])C4([H])[H])C3([H])[H])c([H])c2OC([H])([H])[H])nc(N([H])c2c([H])c([H])c([H])c([H])c2S(=O)(=O)C([H])(C([H])([H])[H])C([H])([H])[H])c1Cl
     RDKit          3D

 78 82  0  0  0  0  0  0  0  0999 V2000
   -2.8057   -5.6003    0.0673 C   0  0  0  0  0  0  0  0  0  0  0  0
   -1.5831   -4.9981    0.4312 O   0  0  0  0  0  0  0  0  0  0  0  0
   -1.4720   -3.6004    0.3285 C   0  0  0  0  0  0  0  0  0  0  0  0
   -2.5200   -2.8368   -0.1133 C   0  0  0  0  0  0  0  0  0  0  0  0
   -2.4368   -1.4708   -0.2192 C   0  0  0  0  0  0  0  0  0  0  0  0
   -1.2424   -0.8976    0.1419 C   0  0  0  0  0  0  0  0  0  0  0  0
   -0.1766   -1.6648    0.5892 C   0  0  0  0  0  0  0  0  0  0  0  0
   -0.2549   -3.0197    0.6950 C   0  0  0  0  0  0  0  0  0  0  0  0
    0.7841   -3.8334    1.1966 N   0  0  0  0  0  0  0  0  0  0  0  0
    2.1501   -3.5569    1.2966 C   0  0  0  0  0  0  0  0  0  0  0  0
    2.9109   -4.5323    1.9018 N   0  0  0  0  0  0  0  0  0  0  0  0
    4.2362   -4.4259    2.0100 C   0  0  0  0  0  0  0  0  0  0  0  0
    4.8772   -3.3293    1.5148 C   0  0  0  0  0  0  0  0  0  0  0  0
    6.6423   -3.2149    1.6735 Cl  0  0  0  0  0  0  0  0  0  0  0  0
    4.1422   -2.3082    0.8870 C   0  0  0  0  0  0  0  0  0  0  0  0
    4.8654   -1.2076    0.3923 N   0  0  0  0  0  0  0  0  0  0  0  0
    4.4601   -0.0758   -0.3198 C   0  0  0  0  0  0  0  0  0  0  0  0
    3.1923    0.0803   -0.7975 C   0  0  0  0  0  0  0  0  0  0  0  0
    2.7719    1.1931   -1.5380 C   0  0  0  0  0  0  0  0  0  0  0  0
    3.6766    2.1806   -1.8024 C   0  0  0  0  0  0  0  0  0  0  0  0
    4.9622    2.0396   -1.3292 C   0  0  0  0  0  0  0  0  0  0  0  0
    5.3813    0.9515   -0.6011 C   0  0  0  0  0  0  0  0  0  0  0  0
    7.0356    0.8101   -0.0388 S   0  0  0  0  0  0  0  0  0  0  0  0
    7.1273    0.7072    1.4558 O   0  0  0  0  0  0  0  0  0  0  0  0
    7.7559   -0.3346   -0.7275 O   0  0  0  0  0  0  0  0  0  0  0  0
    7.9261    2.2838   -0.5012 C   0  0  0  0  0  0  0  0  0  0  0  0
    9.4209    2.0927   -0.2302 C   0  0  0  0  0  0  0  0  0  0  0  0
    7.4130    3.4864    0.2289 C   0  0  0  0  0  0  0  0  0  0  0  0
    2.8269   -2.5071    0.8300 N   0  0  0  0  0  0  0  0  0  0  0  0
   -3.4794   -0.6525   -0.7054 N   0  0  0  0  0  0  0  0  0  0  0  0
   -4.3480   -1.0921   -1.8086 C   0  0  0  0  0  0  0  0  0  0  0  0
   -5.5555   -0.1937   -1.8146 C   0  0  0  0  0  0  0  0  0  0  0  0
   -6.1157   -0.0712   -0.4138 C   0  0  0  0  0  0  0  0  0  0  0  0
   -5.1846    0.7308    0.4261 C   0  0  1  0  0  0  0  0  0  0  0  0
   -3.7950    0.6664   -0.1666 C   0  0  0  0  0  0  0  0  0  0  0  0
   -5.5472    2.1032    0.6249 N   0  0  0  0  0  0  0  0  0  0  0  0
   -6.8172    2.1650    1.3211 C   0  0  0  0  0  0  0  0  0  0  0  0
   -7.0702    3.5946    1.7360 C   0  0  0  0  0  0  0  0  0  0  0  0
   -7.0463    4.4156    0.6284 O   0  0  0  0  0  0  0  0  0  0  0  0
   -5.8182    4.3642   -0.0074 C   0  0  0  0  0  0  0  0  0  0  0  0
   -5.6498    2.9186   -0.5315 C   0  0  0  0  0  0  0  0  0  0  0  0
   -2.8980   -5.6733   -1.0422 H   0  0  0  0  0  0  0  0  0  0  0  0
   -2.8578   -6.6536    0.4644 H   0  0  0  0  0  0  0  0  0  0  0  0
   -3.6964   -5.0815    0.4698 H   0  0  0  0  0  0  0  0  0  0  0  0
   -3.4577   -3.2822   -0.3983 H   0  0  0  0  0  0  0  0  0  0  0  0
   -1.1044    0.1849    0.0859 H   0  0  0  0  0  0  0  0  0  0  0  0
    0.7308   -1.1204    0.8725 H   0  0  0  0  0  0  0  0  0  0  0  0
    0.4543   -4.8045    1.5544 H   0  0  0  0  0  0  0  0  0  0  0  0
    4.8353   -5.2171    2.4988 H   0  0  0  0  0  0  0  0  0  0  0  0
    5.9390   -1.2422    0.6015 H   0  0  0  0  0  0  0  0  0  0  0  0
    2.4327   -0.6588   -0.6496 H   0  0  0  0  0  0  0  0  0  0  0  0
    1.7683    1.2870   -1.9036 H   0  0  0  0  0  0  0  0  0  0  0  0
    3.3658    3.0564   -2.3760 H   0  0  0  0  0  0  0  0  0  0  0  0
    5.6534    2.8414   -1.5691 H   0  0  0  0  0  0  0  0  0  0  0  0
    7.8407    2.3992   -1.5873 H   0  0  0  0  0  0  0  0  0  0  0  0
    9.6668    1.0271   -0.1911 H   0  0  0  0  0  0  0  0  0  0  0  0
    9.6984    2.6315    0.6936 H   0  0  0  0  0  0  0  0  0  0  0  0
   10.0237    2.5422   -1.0627 H   0  0  0  0  0  0  0  0  0  0  0  0
    7.3165    4.3637   -0.4476 H   0  0  0  0  0  0  0  0  0  0  0  0
    8.1367    3.7044    1.0485 H   0  0  0  0  0  0  0  0  0  0  0  0
    6.4051    3.2733    0.6692 H   0  0  0  0  0  0  0  0  0  0  0  0
   -4.5596   -2.1606   -1.7895 H   0  0  0  0  0  0  0  0  0  0  0  0
   -3.7102   -0.8889   -2.7238 H   0  0  0  0  0  0  0  0  0  0  0  0
   -5.2287    0.8177   -2.1301 H   0  0  0  0  0  0  0  0  0  0  0  0
   -6.3385   -0.5921   -2.5153 H   0  0  0  0  0  0  0  0  0  0  0  0
   -7.1678    0.2743   -0.4298 H   0  0  0  0  0  0  0  0  0  0  0  0
   -6.1856   -1.1044    0.0454 H   0  0  0  0  0  0  0  0  0  0  0  0
   -5.0890    0.2104    1.4268 H   0  0  0  0  0  0  0  0  0  0  0  0
   -3.6419    1.3630   -1.0123 H   0  0  0  0  0  0  0  0  0  0  0  0
   -3.0327    0.9684    0.5926 H   0  0  0  0  0  0  0  0  0  0  0  0
   -7.6427    1.9077    0.6148 H   0  0  0  0  0  0  0  0  0  0  0  0
   -6.8366    1.4678    2.1900 H   0  0  0  0  0  0  0  0  0  0  0  0
   -6.2824    3.8643    2.4722 H   0  0  0  0  0  0  0  0  0  0  0  0
   -8.0905    3.6969    2.2104 H   0  0  0  0  0  0  0  0  0  0  0  0
   -5.0485    4.4552    0.8161 H   0  0  0  0  0  0  0  0  0  0  0  0
   -5.6713    5.1040   -0.7899 H   0  0  0  0  0  0  0  0  0  0  0  0
   -4.7834    2.9700   -1.1920 H   0  0  0  0  0  0  0  0  0  0  0  0
   -6.5837    2.7092   -1.1328 H   0  0  0  0  0  0  0  0  0  0  0  0
  1  2  1  0
  2  3  1  0
  3  4  2  0
  4  5  1  0
  5  6  2  0
  6  7  1  0
  7  8  2  0
  8  9  1  0
  9 10  1  0
 10 11  2  0
 11 12  1  0
 12 13  2  0
 13 14  1  0
 13 15  1  0
 15 16  1  0
 16 17  1  0
 17 18  2  0
 18 19  1  0
 19 20  2  0
 20 21  1  0
 21 22  2  0
 22 23  1  0
 23 24  2  0
 23 25  2  0
 23 26  1  0
 26 27  1  0
 26 28  1  0
 15 29  2  0
  5 30  1  0
 30 31  1  0
 31 32  1  0
 32 33  1  0
 33 34  1  0
 34 35  1  0
 34 36  1  0
 36 37  1  0
 37 38  1  0
 38 39  1  0
 39 40  1  0
 40 41  1  0
  8  3  1  0
 29 10  1  0
 35 30  1  0
 41 36  1  0
 22 17  1  0
  1 42  1  0
  1 43  1  0
  1 44  1  0
  4 45  1  0
  6 46  1  0
  7 47  1  0
  9 48  1  0
 12 49  1  0
 16 50  1  0
 18 51  1  0
 19 52  1  0
 20 53  1  0
 21 54  1  0
 26 55  1  0
 27 56  1  0
 27 57  1  0
 27 58  1  0
 28 59  1  0
 28 60  1  0
 28 61  1  0
 31 62  1  0
 31 63  1  0
 32 64  1  0
 32 65  1  0
 33 66  1  0
 33 67  1  0
 34 68  1  1
 35 69  1  0
 35 70  1  0
 37 71  1  0
 37 72  1  0
 38 73  1  0
 38 74  1  0
 40 75  1  0
 40 76  1  0
 41 77  1  0
 41 78  1  0
M  END
$$$$
[H]c1nc(N([H])c2c([H])c([H])c(N3C([H])([H])C([H])([H])C([H])([H])[C@@]([H])(N4C([H])([H])C([H])([H])N(C([H])([H])[H])C([H])([H])C4([H])[H])C3([H])[H])c([H])c2OC([H])([H])[H])nc(N([H])c2c([H])c([H])c([H])c([H])c2S(=O)(=O)C(C([H])([H])[H])(C([H])([H])[H])C([H])([H])[H])c1Cl
     RDKit          3D

 85 89  0  0  0  0  0  0  0  0999 V2000
   -2.3915   -4.3467   -3.0450 C   0  0  0  0  0  0  0  0  0  0  0  0
   -1.3582   -3.9811   -2.1755 O   0  0  0  0  0  0  0  0  0  0  0  0
   -1.3009   -2.6835   -1.6985 C   0  0  0  0  0  0  0  0  0  0  0  0
   -2.2501   -1.7493   -2.0702 C   0  0  0  0  0  0  0  0  0  0  0  0
   -2.2308   -0.4534   -1.6216 C   0  0  0  0  0  0  0  0  0  0  0  0
   -1.1971   -0.1210   -0.7624 C   0  0  0  0  0  0  0  0  0  0  0  0
   -0.2510   -1.0590   -0.3937 C   0  0  0  0  0  0  0  0  0  0  0  0
   -0.2587   -2.3528   -0.8352 C   0  0  0  0  0  0  0  0  0  0  0  0
    0.6536   -3.3202   -0.4254 N   0  0  0  0  0  0  0  0  0  0  0  0
    1.9159   -3.2218    0.1780 C   0  0  0  0  0  0  0  0  0  0  0  0
    2.5041   -4.4218    0.5105 N   0  0  0  0  0  0  0  0  0  0  0  0
    3.7147   -4.4683    1.0495 C   0  0  0  0  0  0  0  0  0  0  0  0
    4.3819   -3.2853    1.2731 C   0  0  0  0  0  0  0  0  0  0  0  0
    5.9874   -3.3083    1.9998 Cl  0  0  0  0  0  0  0  0  0  0  0  0
    3.8269   -2.0343    0.9499 C   0  0  0  0  0  0  0  0  0  0  0  0
    4.5689   -0.8677    1.2318 N   0  0  0  0  0  0  0  0  0  0  0  0
    4.3058    0.4643    0.9652 C   0  0  0  0  0  0  0  0  0  0  0  0
    3.2239    0.8775    0.2440 C   0  0  0  0  0  0  0  0  0  0  0  0
    2.9007    2.2202    0.0129 C   0  0  0  0  0  0  0  0  0  0  0  0
    3.7114    3.1883    0.5355 C   0  0  0  0  0  0  0  0  0  0  0  0
    4.7947    2.7943    1.2532 C   0  0  0  0  0  0  0  0  0  0  0  0
    5.1409    1.4517    1.4974 C   0  0  0  0  0  0  0  0  0  0  0  0
    6.6309    1.1685    2.3053 S   0  0  0  0  0  0  0  0  0  0  0  0
    6.9858    2.4576    3.0883 O   0  0  0  0  0  0  0  0  0  0  0  0
    6.5696    0.1345    3.3996 O   0  0  0  0  0  0  0  0  0  0  0  0
    8.0171    0.8558    1.2862 C   0  0  0  0  0  0  0  0  0  0  0  0
    9.2694    0.5883    2.1436 C   0  0  0  0  0  0  0  0  0  0  0  0
    7.9060   -0.2467    0.3064 C   0  0  0  0  0  0  0  0  0  0  0  0
    8.4205    2.1655    0.5325 C   0  0  0  0  0  0  0  0  0  0  0  0
    2.6050   -2.1055    0.4145 N   0  0  0  0  0  0  0  0  0  0  0  0
   -3.1966    0.4869   -2.0265 N   0  0  0  0  0  0  0  0  0  0  0  0
   -3.8583    0.3629   -3.2943 C   0  0  0  0  0  0  0  0  0  0  0  0
   -5.3648    0.4939   -3.1450 C   0  0  0  0  0  0  0  0  0  0  0  0
   -5.5652    1.8774   -2.5158 C   0  0  0  0  0  0  0  0  0  0  0  0
   -5.0799    1.7185   -1.0784 C   0  0  2  0  0  0  0  0  0  0  0  0
   -3.5762    1.6210   -1.1711 C   0  0  0  0  0  0  0  0  0  0  0  0
   -5.7110    0.5923   -0.5152 N   0  0  0  0  0  0  0  0  0  0  0  0
   -7.1252    0.6667   -0.4179 C   0  0  0  0  0  0  0  0  0  0  0  0
   -7.4799    1.3319    0.8964 C   0  0  0  0  0  0  0  0  0  0  0  0
   -7.0770    0.5417    2.0254 N   0  0  0  0  0  0  0  0  0  0  0  0
   -6.9859    1.2342    3.2597 C   0  0  0  0  0  0  0  0  0  0  0  0
   -6.0256   -0.3874    1.7413 C   0  0  0  0  0  0  0  0  0  0  0  0
   -5.1223   -0.0205    0.6103 C   0  0  0  0  0  0  0  0  0  0  0  0
   -2.3809   -3.8030   -3.9999 H   0  0  0  0  0  0  0  0  0  0  0  0
   -3.3526   -4.1131   -2.5452 H   0  0  0  0  0  0  0  0  0  0  0  0
   -2.4058   -5.4321   -3.2591 H   0  0  0  0  0  0  0  0  0  0  0  0
   -3.0274   -2.1090   -2.7397 H   0  0  0  0  0  0  0  0  0  0  0  0
   -1.1468    0.8872   -0.3869 H   0  0  0  0  0  0  0  0  0  0  0  0
    0.5163   -0.7066    0.3141 H   0  0  0  0  0  0  0  0  0  0  0  0
    0.3255   -4.3398   -0.6034 H   0  0  0  0  0  0  0  0  0  0  0  0
    4.2228   -5.3892    1.3306 H   0  0  0  0  0  0  0  0  0  0  0  0
    5.4744   -1.0563    1.7569 H   0  0  0  0  0  0  0  0  0  0  0  0
    2.5439    0.1986   -0.2376 H   0  0  0  0  0  0  0  0  0  0  0  0
    2.0389    2.5204   -0.5597 H   0  0  0  0  0  0  0  0  0  0  0  0
    3.4957    4.2513    0.3816 H   0  0  0  0  0  0  0  0  0  0  0  0
    5.4250    3.5698    1.6575 H   0  0  0  0  0  0  0  0  0  0  0  0
    8.9580   -0.0908    2.9559 H   0  0  0  0  0  0  0  0  0  0  0  0
    9.5775    1.5533    2.5900 H   0  0  0  0  0  0  0  0  0  0  0  0
   10.0752    0.1627    1.5004 H   0  0  0  0  0  0  0  0  0  0  0  0
    8.7797   -0.1787   -0.4114 H   0  0  0  0  0  0  0  0  0  0  0  0
    7.9708   -1.2071    0.8124 H   0  0  0  0  0  0  0  0  0  0  0  0
    7.0221   -0.1910   -0.3547 H   0  0  0  0  0  0  0  0  0  0  0  0
    8.5035    2.9574    1.2753 H   0  0  0  0  0  0  0  0  0  0  0  0
    9.4136    1.9367    0.1007 H   0  0  0  0  0  0  0  0  0  0  0  0
    7.7121    2.3442   -0.2845 H   0  0  0  0  0  0  0  0  0  0  0  0
   -3.4977    1.1360   -4.0230 H   0  0  0  0  0  0  0  0  0  0  0  0
   -3.6549   -0.6009   -3.7730 H   0  0  0  0  0  0  0  0  0  0  0  0
   -5.8075    0.4360   -4.1399 H   0  0  0  0  0  0  0  0  0  0  0  0
   -5.6815   -0.3059   -2.4576 H   0  0  0  0  0  0  0  0  0  0  0  0
   -6.6104    2.1442   -2.6122 H   0  0  0  0  0  0  0  0  0  0  0  0
   -4.8756    2.5596   -3.0729 H   0  0  0  0  0  0  0  0  0  0  0  0
   -5.3150    2.6838   -0.5775 H   0  0  0  0  0  0  0  0  0  0  0  0
   -3.2313    2.5251   -1.7152 H   0  0  0  0  0  0  0  0  0  0  0  0
   -3.0550    1.5982   -0.2138 H   0  0  0  0  0  0  0  0  0  0  0  0
   -7.5014   -0.3960   -0.3165 H   0  0  0  0  0  0  0  0  0  0  0  0
   -7.6655    1.1653   -1.2149 H   0  0  0  0  0  0  0  0  0  0  0  0
   -8.5842    1.4282    0.9217 H   0  0  0  0  0  0  0  0  0  0  0  0
   -7.0648    2.3516    0.9926 H   0  0  0  0  0  0  0  0  0  0  0  0
   -7.5852    0.7708    4.0796 H   0  0  0  0  0  0  0  0  0  0  0  0
   -5.9480    1.4119    3.5970 H   0  0  0  0  0  0  0  0  0  0  0  0
   -7.4397    2.2580    3.1154 H   0  0  0  0  0  0  0  0  0  0  0  0
   -5.4207   -0.4859    2.6889 H   0  0  0  0  0  0  0  0  0  0  0  0
   -6.5014   -1.3951    1.6097 H   0  0  0  0  0  0  0  0  0  0  0  0
   -4.2538    0.5309    1.0404 H   0  0  0  0  0  0  0  0  0  0  0  0
   -4.6764   -1.0016    0.2593 H   0  0  0  0  0  0  0  0  0  0  0  0
  1  2  1  0
  2  3  1  0
  3  4  2  0
  4  5  1  0
  5  6  2  0
  6  7  1  0
  7  8  2  0
  8  9  1  0
  9 10  1  0
 10 11  2  0
 11 12  1  0
 12 13  2  0
 13 14  1  0
 13 15  1  0
 15 16  1  0
 16 17  1  0
 17 18  2  0
 18 19  1  0
 19 20  2  0
 20 21  1  0
 21 22  2  0
 22 23  1  0
 23 24  2  0
 23 25  2  0
 23 26  1  0
 26 27  1  0
 26 28  1  0
 26 29  1  0
 15 30  2  0
  5 31  1  0
 31 32  1  0
 32 33  1  0
 33 34  1  0
 34 35  1  0
 35 36  1  0
 35 37  1  0
 37 38  1  0
 38 39  1  0
 39 40  1  0
 40 41  1  0
 40 42  1  0
 42 43  1  0
  8  3  1  0
 30 10  1  0
 36 31  1  0
 43 37  1  0
 22 17  1  0
  1 44  1  0
  1 45  1  0
  1 46  1  0
  4 47  1  0
  6 48  1  0
  7 49  1  0
  9 50  1  0
 12 51  1  0
 16 52  1  0
 18 53  1  0
 19 54  1  0
 20 55  1  0
 21 56  1  0
 27 57  1  0
 27 58  1  0
 27 59  1  0
 28 60  1  0
 28 61  1  0
 28 62  1  0
 29 63  1  0
 29 64  1  0
 29 65  1  0
 32 66  1  0
 32 67  1  0
 33 68  1  0
 33 69  1  0
 34 70  1  0
 34 71  1  0
 35 72  1  1
 36 73  1  0
 36 74  1  0
 38 75  1  0
 38 76  1  0
 39 77  1  0
 39 78  1  0
 41 79  1  0
 41 80  1  0
 41 81  1  0
 42 82  1  0
 42 83  1  0
 43 84  1  0
 43 85  1  0
M  END
$$$$
[H]c1nc(N([H])c2c([H])c([H])c(N3C([H])([H])C([H])([H])C([H])([H])[C@@]([H])(N4C([H])([H])C([H])([H])OC([H])([H])C4([H])[H])C3([H])[H])c([H])c2OC([H])([H])[H])nc(N([H])c2c([H])c([H])c([H])c([H])c2S(=O)(=O)C(C([H])([H])[H])(C([H])([H])[H])C([H])([H])[H])c1Cl
     RDKit          3D

 81 85  0  0  0  0  0  0  0  0999 V2000
    2.4053    6.1821    0.7917 C   0  0  0  0  0  0  0  0  0  0  0  0
    1.4051    5.2636    0.5587 O   0  0  0  0  0  0  0  0  0  0  0  0
    1.4388    3.9311    0.4635 C   0  0  0  0  0  0  0  0  0  0  0  0
    2.6101    3.2132    0.5790 C   0  0  0  0  0  0  0  0  0  0  0  0
    2.6653    1.8421    0.4828 C   0  0  0  0  0  0  0  0  0  0  0  0
    1.4676    1.1911    0.2599 C   0  0  0  0  0  0  0  0  0  0  0  0
    0.2728    1.9254    0.1423 C   0  0  0  0  0  0  0  0  0  0  0  0
    0.1980    3.2666    0.2340 C   0  0  0  0  0  0  0  0  0  0  0  0
   -0.9681    4.0506    0.1609 N   0  0  0  0  0  0  0  0  0  0  0  0
   -2.2967    3.7060   -0.0135 C   0  0  0  0  0  0  0  0  0  0  0  0
   -3.2347    4.7151    0.0110 N   0  0  0  0  0  0  0  0  0  0  0  0
   -4.5300    4.4824   -0.1061 C   0  0  0  0  0  0  0  0  0  0  0  0
   -4.9795    3.2201   -0.2574 C   0  0  0  0  0  0  0  0  0  0  0  0
   -6.6775    2.8164   -0.4213 Cl  0  0  0  0  0  0  0  0  0  0  0  0
   -4.0716    2.1453   -0.2951 C   0  0  0  0  0  0  0  0  0  0  0  0
   -4.5478    0.8255   -0.3220 N   0  0  0  0  0  0  0  0  0  0  0  0
   -3.7933   -0.3290   -0.5427 C   0  0  0  0  0  0  0  0  0  0  0  0
   -2.6237   -0.3421   -1.2886 C   0  0  0  0  0  0  0  0  0  0  0  0
   -1.8793   -1.4610   -1.5693 C   0  0  0  0  0  0  0  0  0  0  0  0
   -2.3124   -2.6589   -1.0844 C   0  0  0  0  0  0  0  0  0  0  0  0
   -3.4579   -2.6882   -0.3491 C   0  0  0  0  0  0  0  0  0  0  0  0
   -4.2399   -1.5596   -0.0458 C   0  0  0  0  0  0  0  0  0  0  0  0
   -5.6977   -1.7403    0.8535 S   0  0  0  0  0  0  0  0  0  0  0  0
   -5.9582   -0.5909    1.8195 O   0  0  0  0  0  0  0  0  0  0  0  0
   -5.4365   -2.9158    1.8178 O   0  0  0  0  0  0  0  0  0  0  0  0
   -7.1309   -2.1797   -0.0392 C   0  0  0  0  0  0  0  0  0  0  0  0
   -7.5186   -1.2315   -1.1062 C   0  0  0  0  0  0  0  0  0  0  0  0
   -7.0564   -3.6199   -0.5464 C   0  0  0  0  0  0  0  0  0  0  0  0
   -8.3469   -2.2137    0.9344 C   0  0  0  0  0  0  0  0  0  0  0  0
   -2.7817    2.4930   -0.1671 N   0  0  0  0  0  0  0  0  0  0  0  0
    3.8925    1.1182    0.6043 N   0  0  0  0  0  0  0  0  0  0  0  0
    5.1604    1.8373    0.4918 C   0  0  0  0  0  0  0  0  0  0  0  0
    6.1726    0.9758   -0.1979 C   0  0  0  0  0  0  0  0  0  0  0  0
    5.5403   -0.0837   -1.0716 C   0  0  0  0  0  0  0  0  0  0  0  0
    4.7614   -1.0506   -0.2418 C   0  0  2  0  0  0  0  0  0  0  0  0
    4.0000   -0.2914    0.8585 C   0  0  0  0  0  0  0  0  0  0  0  0
    5.3537   -2.1484    0.3233 N   0  0  0  0  0  0  0  0  0  0  0  0
    6.3510   -2.1543    1.2814 C   0  0  0  0  0  0  0  0  0  0  0  0
    7.6672   -2.6278    0.7385 C   0  0  0  0  0  0  0  0  0  0  0  0
    7.5043   -3.8177    0.0503 O   0  0  0  0  0  0  0  0  0  0  0  0
    6.2561   -4.3989    0.1594 C   0  0  0  0  0  0  0  0  0  0  0  0
    5.1515   -3.4342   -0.2490 C   0  0  0  0  0  0  0  0  0  0  0  0
    2.1570    7.0923    0.1481 H   0  0  0  0  0  0  0  0  0  0  0  0
    2.3152    6.6025    1.8338 H   0  0  0  0  0  0  0  0  0  0  0  0
    3.4343    5.8976    0.5879 H   0  0  0  0  0  0  0  0  0  0  0  0
    3.5596    3.7439    0.7713 H   0  0  0  0  0  0  0  0  0  0  0  0
    1.4482    0.1276    0.1666 H   0  0  0  0  0  0  0  0  0  0  0  0
   -0.6321    1.3473   -0.0095 H   0  0  0  0  0  0  0  0  0  0  0  0
   -0.8218    5.1436    0.2435 H   0  0  0  0  0  0  0  0  0  0  0  0
   -5.2741    5.3077   -0.0868 H   0  0  0  0  0  0  0  0  0  0  0  0
   -5.5898    0.7417   -0.1360 H   0  0  0  0  0  0  0  0  0  0  0  0
   -2.2709    0.6228   -1.6948 H   0  0  0  0  0  0  0  0  0  0  0  0
   -0.9842   -1.4108   -2.1521 H   0  0  0  0  0  0  0  0  0  0  0  0
   -1.7877   -3.6130   -1.2607 H   0  0  0  0  0  0  0  0  0  0  0  0
   -3.8322   -3.6408    0.0580 H   0  0  0  0  0  0  0  0  0  0  0  0
   -6.7258   -1.1526   -1.8925 H   0  0  0  0  0  0  0  0  0  0  0  0
   -7.7090   -0.1967   -0.7379 H   0  0  0  0  0  0  0  0  0  0  0  0
   -8.4834   -1.5165   -1.6087 H   0  0  0  0  0  0  0  0  0  0  0  0
   -6.3568   -3.7316   -1.3663 H   0  0  0  0  0  0  0  0  0  0  0  0
   -6.8164   -4.2400    0.3404 H   0  0  0  0  0  0  0  0  0  0  0  0
   -8.0601   -3.9022   -0.8926 H   0  0  0  0  0  0  0  0  0  0  0  0
   -8.2053   -3.1381    1.5293 H   0  0  0  0  0  0  0  0  0  0  0  0
   -9.2476   -2.3352    0.3240 H   0  0  0  0  0  0  0  0  0  0  0  0
   -8.3431   -1.3397    1.5988 H   0  0  0  0  0  0  0  0  0  0  0  0
    4.9746    2.7446   -0.1301 H   0  0  0  0  0  0  0  0  0  0  0  0
    5.5440    2.0838    1.4995 H   0  0  0  0  0  0  0  0  0  0  0  0
    6.7880    1.6139   -0.8914 H   0  0  0  0  0  0  0  0  0  0  0  0
    6.8957    0.5337    0.5110 H   0  0  0  0  0  0  0  0  0  0  0  0
    4.8675    0.4640   -1.7876 H   0  0  0  0  0  0  0  0  0  0  0  0
    6.3598   -0.4978   -1.6793 H   0  0  0  0  0  0  0  0  0  0  0  0
    3.9356   -1.4184   -0.9315 H   0  0  0  0  0  0  0  0  0  0  0  0
    4.5588   -0.4921    1.8138 H   0  0  0  0  0  0  0  0  0  0  0  0
    2.9906   -0.7295    0.9170 H   0  0  0  0  0  0  0  0  0  0  0  0
    6.4490   -1.2744    1.9517 H   0  0  0  0  0  0  0  0  0  0  0  0
    6.0679   -2.9707    2.0355 H   0  0  0  0  0  0  0  0  0  0  0  0
    8.1409   -1.9022    0.0446 H   0  0  0  0  0  0  0  0  0  0  0  0
    8.3741   -2.8453    1.5903 H   0  0  0  0  0  0  0  0  0  0  0  0
    6.1860   -5.2680   -0.5256 H   0  0  0  0  0  0  0  0  0  0  0  0
    6.0505   -4.7880    1.1703 H   0  0  0  0  0  0  0  0  0  0  0  0
    5.1065   -3.4619   -1.3401 H   0  0  0  0  0  0  0  0  0  0  0  0
    4.2016   -3.8645    0.1437 H   0  0  0  0  0  0  0  0  0  0  0  0
  1  2  1  0
  2  3  1  0
  3  4  2  0
  4  5  1  0
  5  6  2  0
  6  7  1  0
  7  8  2  0
  8  9  1  0
  9 10  1  0
 10 11  2  0
 11 12  1  0
 12 13  2  0
 13 14  1  0
 13 15  1  0
 15 16  1  0
 16 17  1  0
 17 18  2  0
 18 19  1  0
 19 20  2  0
 20 21  1  0
 21 22  2  0
 22 23  1  0
 23 24  2  0
 23 25  2  0
 23 26  1  0
 26 27  1  0
 26 28  1  0
 26 29  1  0
 15 30  2  0
  5 31  1  0
 31 32  1  0
 32 33  1  0
 33 34  1  0
 34 35  1  0
 35 36  1  0
 35 37  1  0
 37 38  1  0
 38 39  1  0
 39 40  1  0
 40 41  1  0
 41 42  1  0
  8  3  1  0
 30 10  1  0
 36 31  1  0
 42 37  1  0
 22 17  1  0
  1 43  1  0
  1 44  1  0
  1 45  1  0
  4 46  1  0
  6 47  1  0
  7 48  1  0
  9 49  1  0
 12 50  1  0
 16 51  1  0
 18 52  1  0
 19 53  1  0
 20 54  1  0
 21 55  1  0
 27 56  1  0
 27 57  1  0
 27 58  1  0
 28 59  1  0
 28 60  1  0
 28 61  1  0
 29 62  1  0
 29 63  1  0
 29 64  1  0
 32 65  1  0
 32 66  1  0
 33 67  1  0
 33 68  1  0
 34 69  1  0
 34 70  1  0
 35 71  1  6
 36 72  1  0
 36 73  1  0
 38 74  1  0
 38 75  1  0
 39 76  1  0
 39 77  1  0
 41 78  1  0
 41 79  1  0
 42 80  1  0
 42 81  1  0
M  END
$$$$
[H]c1nc(N([H])c2c([H])c([H])c(N3C([H])([H])C([H])([H])C([H])([H])[C@@]([H])(N4C([H])([H])C([H])([H])C([H])([H])C4([H])[H])C3([H])[H])c([H])c2OC([H])([H])[H])nc(N([H])c2c([H])c([H])c([H])c([H])c2S(=O)(=O)C([H])(C([H])([H])[H])C([H])([H])[H])c1Cl
     RDKit          3D

 77 81  0  0  0  0  0  0  0  0999 V2000
   -0.9102   -4.1833   -1.6766 C   0  0  0  0  0  0  0  0  0  0  0  0
   -0.3170   -2.9944   -1.1972 O   0  0  0  0  0  0  0  0  0  0  0  0
   -1.1044   -1.8529   -1.0106 C   0  0  0  0  0  0  0  0  0  0  0  0
   -2.4334   -1.9039   -1.2936 C   0  0  0  0  0  0  0  0  0  0  0  0
   -3.3005   -0.8136   -1.1383 C   0  0  0  0  0  0  0  0  0  0  0  0
   -2.7347    0.3369   -0.6762 C   0  0  0  0  0  0  0  0  0  0  0  0
   -1.3703    0.3964   -0.3835 C   0  0  0  0  0  0  0  0  0  0  0  0
   -0.5153   -0.6564   -0.5300 C   0  0  0  0  0  0  0  0  0  0  0  0
    0.8620   -0.6931   -0.2657 N   0  0  0  0  0  0  0  0  0  0  0  0
    1.6608    0.3650    0.2192 C   0  0  0  0  0  0  0  0  0  0  0  0
    1.2588    1.5964    0.5181 N   0  0  0  0  0  0  0  0  0  0  0  0
    2.0473    2.5771    0.9751 C   0  0  0  0  0  0  0  0  0  0  0  0
    3.3932    2.3206    1.1619 C   0  0  0  0  0  0  0  0  0  0  0  0
    4.5008    3.5245    1.7502 Cl  0  0  0  0  0  0  0  0  0  0  0  0
    3.8757    1.0367    0.8628 C   0  0  0  0  0  0  0  0  0  0  0  0
    5.2449    0.7886    1.0429 N   0  0  0  0  0  0  0  0  0  0  0  0
    6.0116   -0.3662    0.8487 C   0  0  0  0  0  0  0  0  0  0  0  0
    5.4498   -1.5726    0.5590 C   0  0  0  0  0  0  0  0  0  0  0  0
    6.1734   -2.7611    0.3941 C   0  0  0  0  0  0  0  0  0  0  0  0
    7.5368   -2.6689    0.5410 C   0  0  0  0  0  0  0  0  0  0  0  0
    8.1213   -1.4616    0.8328 C   0  0  0  0  0  0  0  0  0  0  0  0
    7.3975   -0.3006    0.9916 C   0  0  0  0  0  0  0  0  0  0  0  0
    8.2484    1.1935    1.3266 S   0  0  0  0  0  0  0  0  0  0  0  0
    7.8779    1.8003    2.6373 O   0  0  0  0  0  0  0  0  0  0  0  0
    9.7380    0.8758    1.4379 O   0  0  0  0  0  0  0  0  0  0  0  0
    8.0888    2.3932    0.0614 C   0  0  0  0  0  0  0  0  0  0  0  0
    8.7239    1.8995   -1.2307 C   0  0  0  0  0  0  0  0  0  0  0  0
    8.8559    3.6355    0.5312 C   0  0  0  0  0  0  0  0  0  0  0  0
    2.9918    0.1403    0.4130 N   0  0  0  0  0  0  0  0  0  0  0  0
   -4.6710   -0.9324   -1.4461 N   0  0  0  0  0  0  0  0  0  0  0  0
   -5.1929   -2.2271   -1.8346 C   0  0  0  0  0  0  0  0  0  0  0  0
   -6.7097   -2.2511   -1.7568 C   0  0  0  0  0  0  0  0  0  0  0  0
   -7.1035   -1.5779   -0.4597 C   0  0  0  0  0  0  0  0  0  0  0  0
   -6.7573   -0.1003   -0.4684 C   0  0  2  0  0  0  0  0  0  0  0  0
   -5.6040    0.1529   -1.4055 C   0  0  0  0  0  0  0  0  0  0  0  0
   -6.5100    0.3097    0.8743 N   0  0  0  0  0  0  0  0  0  0  0  0
   -7.7342    0.1258    1.6346 C   0  0  0  0  0  0  0  0  0  0  0  0
   -8.6085    1.2646    1.0985 C   0  0  0  0  0  0  0  0  0  0  0  0
   -7.6232    2.3134    0.6036 C   0  0  0  0  0  0  0  0  0  0  0  0
   -6.3070    1.7324    1.0222 C   0  0  0  0  0  0  0  0  0  0  0  0
   -0.2062   -5.0202   -1.6397 H   0  0  0  0  0  0  0  0  0  0  0  0
   -1.3733   -4.0325   -2.6683 H   0  0  0  0  0  0  0  0  0  0  0  0
   -1.7197   -4.4394   -0.9322 H   0  0  0  0  0  0  0  0  0  0  0  0
   -2.8337   -2.8478   -1.6603 H   0  0  0  0  0  0  0  0  0  0  0  0
   -3.3574    1.2308   -0.5294 H   0  0  0  0  0  0  0  0  0  0  0  0
   -0.9984    1.3351   -0.0247 H   0  0  0  0  0  0  0  0  0  0  0  0
    1.3967   -1.6086   -0.4403 H   0  0  0  0  0  0  0  0  0  0  0  0
    1.6767    3.5733    1.2077 H   0  0  0  0  0  0  0  0  0  0  0  0
    5.8060    1.6272    1.4062 H   0  0  0  0  0  0  0  0  0  0  0  0
    4.3749   -1.7410    0.4315 H   0  0  0  0  0  0  0  0  0  0  0  0
    5.6965   -3.7026    0.1644 H   0  0  0  0  0  0  0  0  0  0  0  0
    8.1525   -3.5537    0.4255 H   0  0  0  0  0  0  0  0  0  0  0  0
    9.2226   -1.4187    0.9460 H   0  0  0  0  0  0  0  0  0  0  0  0
    7.0878    2.7325   -0.1791 H   0  0  0  0  0  0  0  0  0  0  0  0
    9.7902    1.6846   -1.0153 H   0  0  0  0  0  0  0  0  0  0  0  0
    8.5801    2.6983   -1.9824 H   0  0  0  0  0  0  0  0  0  0  0  0
    8.1451    1.0041   -1.5338 H   0  0  0  0  0  0  0  0  0  0  0  0
    8.9921    4.3403   -0.3136 H   0  0  0  0  0  0  0  0  0  0  0  0
    9.7934    3.2876    0.9713 H   0  0  0  0  0  0  0  0  0  0  0  0
    8.2539    4.0900    1.3406 H   0  0  0  0  0  0  0  0  0  0  0  0
   -4.9506   -2.4069   -2.9220 H   0  0  0  0  0  0  0  0  0  0  0  0
   -4.8139   -3.0624   -1.2479 H   0  0  0  0  0  0  0  0  0  0  0  0
   -7.0203   -3.2992   -1.7030 H   0  0  0  0  0  0  0  0  0  0  0  0
   -7.1300   -1.6902   -2.6101 H   0  0  0  0  0  0  0  0  0  0  0  0
   -8.2116   -1.7422   -0.3652 H   0  0  0  0  0  0  0  0  0  0  0  0
   -6.5517   -2.0952    0.3520 H   0  0  0  0  0  0  0  0  0  0  0  0
   -7.6362    0.4485   -0.8593 H   0  0  0  0  0  0  0  0  0  0  0  0
   -5.2069    1.1473   -1.2571 H   0  0  0  0  0  0  0  0  0  0  0  0
   -6.0708    0.1772   -2.4406 H   0  0  0  0  0  0  0  0  0  0  0  0
   -7.5684    0.2842    2.7229 H   0  0  0  0  0  0  0  0  0  0  0  0
   -8.2498   -0.8147    1.4452 H   0  0  0  0  0  0  0  0  0  0  0  0
   -9.2597    0.9190    0.2778 H   0  0  0  0  0  0  0  0  0  0  0  0
   -9.2018    1.6565    1.9506 H   0  0  0  0  0  0  0  0  0  0  0  0
   -7.8528    3.2747    1.1483 H   0  0  0  0  0  0  0  0  0  0  0  0
   -7.6593    2.4514   -0.4879 H   0  0  0  0  0  0  0  0  0  0  0  0
   -6.2107    1.9215    2.1303 H   0  0  0  0  0  0  0  0  0  0  0  0
   -5.4367    2.1298    0.5131 H   0  0  0  0  0  0  0  0  0  0  0  0
  1  2  1  0
  2  3  1  0
  3  4  2  0
  4  5  1  0
  5  6  2  0
  6  7  1  0
  7  8  2  0
  8  9  1  0
  9 10  1  0
 10 11  2  0
 11 12  1  0
 12 13  2  0
 13 14  1  0
 13 15  1  0
 15 16  1  0
 16 17  1  0
 17 18  2  0
 18 19  1  0
 19 20  2  0
 20 21  1  0
 21 22  2  0
 22 23  1  0
 23 24  2  0
 23 25  2  0
 23 26  1  0
 26 27  1  0
 26 28  1  0
 15 29  2  0
  5 30  1  0
 30 31  1  0
 31 32  1  0
 32 33  1  0
 33 34  1  0
 34 35  1  0
 34 36  1  0
 36 37  1  0
 37 38  1  0
 38 39  1  0
 39 40  1  0
  8  3  1  0
 29 10  1  0
 35 30  1  0
 40 36  1  0
 22 17  1  0
  1 41  1  0
  1 42  1  0
  1 43  1  0
  4 44  1  0
  6 45  1  0
  7 46  1  0
  9 47  1  0
 12 48  1  0
 16 49  1  0
 18 50  1  0
 19 51  1  0
 20 52  1  0
 21 53  1  0
 26 54  1  0
 27 55  1  0
 27 56  1  0
 27 57  1  0
 28 58  1  0
 28 59  1  0
 28 60  1  0
 31 61  1  0
 31 62  1  0
 32 63  1  0
 32 64  1  0
 33 65  1  0
 33 66  1  0
 34 67  1  6
 35 68  1  0
 35 69  1  0
 37 70  1  0
 37 71  1  0
 38 72  1  0
 38 73  1  0
 39 74  1  0
 39 75  1  0
 40 76  1  0
 40 77  1  0
M  END
$$$$
[H]c1nc(N([H])c2c([H])c([H])c(N3C([H])([H])C([H])([H])C([H])(N4C([H])([H])C([H])([H])N(C([H])([H])[H])C([H])([H])C4([H])[H])C([H])([H])C3([H])[H])c([H])c2OC([H])([H])[H])nc(N([H])c2c([H])c([H])c([H])c([H])c2S(=O)(=O)C(C([H])([H])[H])(C([H])([H])[H])C([H])([H])[H])c1Cl
     RDKit          3D

 85 89  0  0  0  0  0  0  0  0999 V2000
   -0.8932    1.5365   -3.6001 C   0  0  0  0  0  0  0  0  0  0  0  0
   -0.2128    1.0258   -2.4637 O   0  0  0  0  0  0  0  0  0  0  0  0
   -0.9187    0.4690   -1.4159 C   0  0  0  0  0  0  0  0  0  0  0  0
   -2.2930    0.3966   -1.4502 C   0  0  0  0  0  0  0  0  0  0  0  0
   -3.0414   -0.1478   -0.4354 C   0  0  0  0  0  0  0  0  0  0  0  0
   -2.3091   -0.6313    0.6534 C   0  0  0  0  0  0  0  0  0  0  0  0
   -0.9218   -0.5581    0.6879 C   0  0  0  0  0  0  0  0  0  0  0  0
   -0.1923   -0.0161   -0.3260 C   0  0  0  0  0  0  0  0  0  0  0  0
    1.1942    0.0852   -0.3418 N   0  0  0  0  0  0  0  0  0  0  0  0
    2.1581   -0.3455    0.5903 C   0  0  0  0  0  0  0  0  0  0  0  0
    1.8540   -0.9732    1.7263 N   0  0  0  0  0  0  0  0  0  0  0  0
    2.7541   -1.3915    2.6196 C   0  0  0  0  0  0  0  0  0  0  0  0
    4.0805   -1.1691    2.3661 C   0  0  0  0  0  0  0  0  0  0  0  0
    5.3436   -1.6789    3.4724 Cl  0  0  0  0  0  0  0  0  0  0  0  0
    4.4630   -0.5089    1.1791 C   0  0  0  0  0  0  0  0  0  0  0  0
    5.8375   -0.2834    0.9439 N   0  0  0  0  0  0  0  0  0  0  0  0
    6.4628    0.3451   -0.1587 C   0  0  0  0  0  0  0  0  0  0  0  0
    5.8031    0.7935   -1.2747 C   0  0  0  0  0  0  0  0  0  0  0  0
    6.4097    1.3977   -2.3668 C   0  0  0  0  0  0  0  0  0  0  0  0
    7.7628    1.5471   -2.3052 C   0  0  0  0  0  0  0  0  0  0  0  0
    8.4874    1.1196   -1.2157 C   0  0  0  0  0  0  0  0  0  0  0  0
    7.8651    0.5284   -0.1541 C   0  0  0  0  0  0  0  0  0  0  0  0
    8.7912   -0.0065    1.2102 S   0  0  0  0  0  0  0  0  0  0  0  0
    8.6663   -1.4996    1.3141 O   0  0  0  0  0  0  0  0  0  0  0  0
    8.2741    0.6689    2.4516 O   0  0  0  0  0  0  0  0  0  0  0  0
   10.5337    0.3212    1.0760 C   0  0  0  0  0  0  0  0  0  0  0  0
   10.8784    1.7635    0.9570 C   0  0  0  0  0  0  0  0  0  0  0  0
   11.1276   -0.1887    2.4062 C   0  0  0  0  0  0  0  0  0  0  0  0
   11.1271   -0.5030   -0.0263 C   0  0  0  0  0  0  0  0  0  0  0  0
    3.4703   -0.1477    0.3817 N   0  0  0  0  0  0  0  0  0  0  0  0
   -4.4561   -0.2621   -0.4390 N   0  0  0  0  0  0  0  0  0  0  0  0
   -5.2083   -0.2728   -1.6430 C   0  0  0  0  0  0  0  0  0  0  0  0
   -6.4523    0.5809   -1.6222 C   0  0  0  0  0  0  0  0  0  0  0  0
   -7.2574    0.4174   -0.3284 C   0  0  0  0  0  0  0  0  0  0  0  0
   -6.3866    0.4873    0.8740 C   0  0  0  0  0  0  0  0  0  0  0  0
   -5.1489   -0.3619    0.8276 C   0  0  0  0  0  0  0  0  0  0  0  0
   -8.1549   -0.6511   -0.3627 N   0  0  0  0  0  0  0  0  0  0  0  0
   -9.1928   -0.6075   -1.3343 C   0  0  0  0  0  0  0  0  0  0  0  0
  -10.5224   -0.5012   -0.6196 C   0  0  0  0  0  0  0  0  0  0  0  0
  -10.6168   -1.4226    0.4964 N   0  0  0  0  0  0  0  0  0  0  0  0
  -10.5764   -0.7414    1.7660 C   0  0  0  0  0  0  0  0  0  0  0  0
   -9.5481   -2.4040    0.4471 C   0  0  0  0  0  0  0  0  0  0  0  0
   -8.2532   -1.5933    0.6521 C   0  0  0  0  0  0  0  0  0  0  0  0
   -0.1487    2.0475   -4.2722 H   0  0  0  0  0  0  0  0  0  0  0  0
   -1.5745    2.3542   -3.2418 H   0  0  0  0  0  0  0  0  0  0  0  0
   -1.4366    0.7301   -4.0960 H   0  0  0  0  0  0  0  0  0  0  0  0
   -2.7905    0.8017   -2.3301 H   0  0  0  0  0  0  0  0  0  0  0  0
   -2.8100   -1.0726    1.4807 H   0  0  0  0  0  0  0  0  0  0  0  0
   -0.4590   -0.9657    1.5896 H   0  0  0  0  0  0  0  0  0  0  0  0
    1.6478    0.5762   -1.2032 H   0  0  0  0  0  0  0  0  0  0  0  0
    2.4984   -1.9032    3.5466 H   0  0  0  0  0  0  0  0  0  0  0  0
    6.4951   -0.6373    1.6874 H   0  0  0  0  0  0  0  0  0  0  0  0
    4.7198    0.6921   -1.3682 H   0  0  0  0  0  0  0  0  0  0  0  0
    5.8319    1.7347   -3.2252 H   0  0  0  0  0  0  0  0  0  0  0  0
    8.3125    2.0178   -3.1344 H   0  0  0  0  0  0  0  0  0  0  0  0
    9.5867    1.2610   -1.2137 H   0  0  0  0  0  0  0  0  0  0  0  0
    9.9948    2.4309    0.8880 H   0  0  0  0  0  0  0  0  0  0  0  0
   11.5726    1.8991    0.0974 H   0  0  0  0  0  0  0  0  0  0  0  0
   11.4375    2.0908    1.8516 H   0  0  0  0  0  0  0  0  0  0  0  0
   12.0123    0.4078    2.6352 H   0  0  0  0  0  0  0  0  0  0  0  0
   10.3855   -0.0449    3.2151 H   0  0  0  0  0  0  0  0  0  0  0  0
   11.3881   -1.2641    2.3162 H   0  0  0  0  0  0  0  0  0  0  0  0
   10.2951   -0.9482   -0.6180 H   0  0  0  0  0  0  0  0  0  0  0  0
   11.7126   -1.3349    0.3934 H   0  0  0  0  0  0  0  0  0  0  0  0
   11.7244    0.1706   -0.6839 H   0  0  0  0  0  0  0  0  0  0  0  0
   -4.5964    0.1014   -2.4783 H   0  0  0  0  0  0  0  0  0  0  0  0
   -5.4703   -1.3334   -1.9692 H   0  0  0  0  0  0  0  0  0  0  0  0
   -6.1664    1.6215   -1.7980 H   0  0  0  0  0  0  0  0  0  0  0  0
   -7.0904    0.2350   -2.4527 H   0  0  0  0  0  0  0  0  0  0  0  0
   -7.8765    1.3684   -0.3062 H   0  0  0  0  0  0  0  0  0  0  0  0
   -6.9589    0.2242    1.7767 H   0  0  0  0  0  0  0  0  0  0  0  0
   -6.0559    1.5584    1.0454 H   0  0  0  0  0  0  0  0  0  0  0  0
   -4.4894    0.0341    1.6343 H   0  0  0  0  0  0  0  0  0  0  0  0
   -5.3020   -1.4301    1.0441 H   0  0  0  0  0  0  0  0  0  0  0  0
   -9.2443   -1.5224   -1.9761 H   0  0  0  0  0  0  0  0  0  0  0  0
   -9.0655    0.2679   -1.9772 H   0  0  0  0  0  0  0  0  0  0  0  0
  -11.3733   -0.6328   -1.3233 H   0  0  0  0  0  0  0  0  0  0  0  0
  -10.6004    0.5232   -0.2097 H   0  0  0  0  0  0  0  0  0  0  0  0
  -11.6169   -0.4209    2.0576 H   0  0  0  0  0  0  0  0  0  0  0  0
   -9.9684    0.1889    1.7241 H   0  0  0  0  0  0  0  0  0  0  0  0
  -10.2043   -1.4458    2.5412 H   0  0  0  0  0  0  0  0  0  0  0  0
   -9.5376   -2.9370   -0.5120 H   0  0  0  0  0  0  0  0  0  0  0  0
   -9.6957   -3.1219    1.2743 H   0  0  0  0  0  0  0  0  0  0  0  0
   -8.4040   -1.1307    1.6566 H   0  0  0  0  0  0  0  0  0  0  0  0
   -7.4677   -2.3694    0.7185 H   0  0  0  0  0  0  0  0  0  0  0  0
  1  2  1  0
  2  3  1  0
  3  4  2  0
  4  5  1  0
  5  6  2  0
  6  7  1  0
  7  8  2  0
  8  9  1  0
  9 10  1  0
 10 11  2  0
 11 12  1  0
 12 13  2  0
 13 14  1  0
 13 15  1  0
 15 16  1  0
 16 17  1  0
 17 18  2  0
 18 19  1  0
 19 20  2  0
 20 21  1  0
 21 22  2  0
 22 23  1  0
 23 24  2  0
 23 25  2  0
 23 26  1  0
 26 27  1  0
 26 28  1  0
 26 29  1  0
 15 30  2  0
  5 31  1  0
 31 32  1  0
 32 33  1  0
 33 34  1  0
 34 35  1  0
 35 36  1  0
 34 37  1  0
 37 38  1  0
 38 39  1  0
 39 40  1  0
 40 41  1  0
 40 42  1  0
 42 43  1  0
  8  3  1  0
 30 10  1  0
 36 31  1  0
 43 37  1  0
 22 17  1  0
  1 44  1  0
  1 45  1  0
  1 46  1  0
  4 47  1  0
  6 48  1  0
  7 49  1  0
  9 50  1  0
 12 51  1  0
 16 52  1  0
 18 53  1  0
 19 54  1  0
 20 55  1  0
 21 56  1  0
 27 57  1  0
 27 58  1  0
 27 59  1  0
 28 60  1  0
 28 61  1  0
 28 62  1  0
 29 63  1  0
 29 64  1  0
 29 65  1  0
 32 66  1  0
 32 67  1  0
 33 68  1  0
 33 69  1  0
 34 70  1  0
 35 71  1  0
 35 72  1  0
 36 73  1  0
 36 74  1  0
 38 75  1  0
 38 76  1  0
 39 77  1  0
 39 78  1  0
 41 79  1  0
 41 80  1  0
 41 81  1  0
 42 82  1  0
 42 83  1  0
 43 84  1  0
 43 85  1  0
M  END
$$$$
[H]c1nc(N([H])c2c([H])c([H])c(N3C([H])([H])C([H])([H])C([H])([H])[C@]([H])(N4C([H])([H])C([H])([H])C([H])([H])C4([H])[H])C3([H])[H])c([H])c2OC([H])([H])[H])nc(N([H])c2c([H])c([H])c([H])c([H])c2S(=O)(=O)C([H])(C([H])([H])[H])C([H])([H])[H])c1Cl
     RDKit          3D

 77 81  0  0  0  0  0  0  0  0999 V2000
   -0.7361   -4.4266   -1.7411 C   0  0  0  0  0  0  0  0  0  0  0  0
   -0.2088   -3.2785   -1.1182 O   0  0  0  0  0  0  0  0  0  0  0  0
   -1.0271   -2.2702   -0.6396 C   0  0  0  0  0  0  0  0  0  0  0  0
   -2.3810   -2.4104   -0.7841 C   0  0  0  0  0  0  0  0  0  0  0  0
   -3.2711   -1.4583   -0.3385 C   0  0  0  0  0  0  0  0  0  0  0  0
   -2.7270   -0.3516    0.2635 C   0  0  0  0  0  0  0  0  0  0  0  0
   -1.3441   -0.1943    0.4187 C   0  0  0  0  0  0  0  0  0  0  0  0
   -0.4594   -1.1401   -0.0241 C   0  0  0  0  0  0  0  0  0  0  0  0
    0.9354   -1.0564    0.0925 N   0  0  0  0  0  0  0  0  0  0  0  0
    1.7092   -0.0256    0.6616 C   0  0  0  0  0  0  0  0  0  0  0  0
    1.2531    1.0839    1.2078 N   0  0  0  0  0  0  0  0  0  0  0  0
    2.0182    2.0485    1.7391 C   0  0  0  0  0  0  0  0  0  0  0  0
    3.3890    1.9090    1.7343 C   0  0  0  0  0  0  0  0  0  0  0  0
    4.4656    3.0995    2.3972 Cl  0  0  0  0  0  0  0  0  0  0  0  0
    3.9209    0.7409    1.1619 C   0  0  0  0  0  0  0  0  0  0  0  0
    5.3198    0.6032    1.1424 N   0  0  0  0  0  0  0  0  0  0  0  0
    6.1417   -0.4254    0.6672 C   0  0  0  0  0  0  0  0  0  0  0  0
    5.6460   -1.6234    0.2495 C   0  0  0  0  0  0  0  0  0  0  0  0
    6.4354   -2.6905   -0.1956 C   0  0  0  0  0  0  0  0  0  0  0  0
    7.7920   -2.4850   -0.1992 C   0  0  0  0  0  0  0  0  0  0  0  0
    8.3120   -1.2860    0.2172 C   0  0  0  0  0  0  0  0  0  0  0  0
    7.5286   -0.2410    0.6530 C   0  0  0  0  0  0  0  0  0  0  0  0
    8.2875    1.2620    1.1311 S   0  0  0  0  0  0  0  0  0  0  0  0
    8.0562    1.6115    2.5623 O   0  0  0  0  0  0  0  0  0  0  0  0
    9.7979    1.0822    0.9987 O   0  0  0  0  0  0  0  0  0  0  0  0
    7.8629    2.6250    0.1166 C   0  0  0  0  0  0  0  0  0  0  0  0
    8.3447    2.4063   -1.3051 C   0  0  0  0  0  0  0  0  0  0  0  0
    8.5747    3.8501    0.7086 C   0  0  0  0  0  0  0  0  0  0  0  0
    3.0678   -0.1602    0.6589 N   0  0  0  0  0  0  0  0  0  0  0  0
   -4.6774   -1.5540   -0.4826 N   0  0  0  0  0  0  0  0  0  0  0  0
   -5.2803   -2.3901   -1.5144 C   0  0  0  0  0  0  0  0  0  0  0  0
   -6.3597   -1.6472   -2.2788 C   0  0  0  0  0  0  0  0  0  0  0  0
   -6.4493   -0.1906   -1.8703 C   0  0  0  0  0  0  0  0  0  0  0  0
   -6.6422   -0.0579   -0.3692 C   0  0  1  0  0  0  0  0  0  0  0  0
   -5.6131   -0.8588    0.3829 C   0  0  0  0  0  0  0  0  0  0  0  0
   -6.4548    1.3412   -0.0336 N   0  0  0  0  0  0  0  0  0  0  0  0
   -7.4537    2.1710   -0.7161 C   0  0  0  0  0  0  0  0  0  0  0  0
   -8.7618    1.7310   -0.1446 C   0  0  0  0  0  0  0  0  0  0  0  0
   -8.3936    1.4191    1.3036 C   0  0  0  0  0  0  0  0  0  0  0  0
   -6.8712    1.6050    1.3559 C   0  0  0  0  0  0  0  0  0  0  0  0
    0.0861   -5.0727   -2.1047 H   0  0  0  0  0  0  0  0  0  0  0  0
   -1.4517   -4.1933   -2.5544 H   0  0  0  0  0  0  0  0  0  0  0  0
   -1.2623   -5.0107   -0.9465 H   0  0  0  0  0  0  0  0  0  0  0  0
   -2.8180   -3.3024   -1.2628 H   0  0  0  0  0  0  0  0  0  0  0  0
   -3.3824    0.4342    0.6278 H   0  0  0  0  0  0  0  0  0  0  0  0
   -1.0409    0.7168    0.9069 H   0  0  0  0  0  0  0  0  0  0  0  0
    1.4787   -1.8949   -0.3082 H   0  0  0  0  0  0  0  0  0  0  0  0
    1.6085    2.9596    2.1859 H   0  0  0  0  0  0  0  0  0  0  0  0
    5.8576    1.4226    1.5790 H   0  0  0  0  0  0  0  0  0  0  0  0
    4.5791   -1.8719    0.2280 H   0  0  0  0  0  0  0  0  0  0  0  0
    6.0075   -3.6261   -0.5193 H   0  0  0  0  0  0  0  0  0  0  0  0
    8.4665   -3.2825   -0.5365 H   0  0  0  0  0  0  0  0  0  0  0  0
    9.4098   -1.1532    0.2018 H   0  0  0  0  0  0  0  0  0  0  0  0
    6.8135    2.8929    0.0595 H   0  0  0  0  0  0  0  0  0  0  0  0
    9.3570    1.9287   -1.2629 H   0  0  0  0  0  0  0  0  0  0  0  0
    8.3645    3.3759   -1.8408 H   0  0  0  0  0  0  0  0  0  0  0  0
    7.6780    1.6647   -1.7677 H   0  0  0  0  0  0  0  0  0  0  0  0
    8.6652    4.6443   -0.0436 H   0  0  0  0  0  0  0  0  0  0  0  0
    9.5525    3.4871    1.0845 H   0  0  0  0  0  0  0  0  0  0  0  0
    7.9742    4.1521    1.5904 H   0  0  0  0  0  0  0  0  0  0  0  0
   -4.4889   -2.7550   -2.1953 H   0  0  0  0  0  0  0  0  0  0  0  0
   -5.7739   -3.2477   -1.0148 H   0  0  0  0  0  0  0  0  0  0  0  0
   -7.3445   -2.1546   -2.2208 H   0  0  0  0  0  0  0  0  0  0  0  0
   -6.0716   -1.6608   -3.3493 H   0  0  0  0  0  0  0  0  0  0  0  0
   -5.5829    0.3571   -2.2368 H   0  0  0  0  0  0  0  0  0  0  0  0
   -7.3696    0.2025   -2.3513 H   0  0  0  0  0  0  0  0  0  0  0  0
   -7.6807   -0.3419   -0.1125 H   0  0  0  0  0  0  0  0  0  0  0  0
   -5.1219   -0.3098    1.1994 H   0  0  0  0  0  0  0  0  0  0  0  0
   -6.1905   -1.6787    0.9121 H   0  0  0  0  0  0  0  0  0  0  0  0
   -7.2654    3.2116   -0.3337 H   0  0  0  0  0  0  0  0  0  0  0  0
   -7.3695    2.1599   -1.7996 H   0  0  0  0  0  0  0  0  0  0  0  0
   -9.2211    0.8796   -0.6580 H   0  0  0  0  0  0  0  0  0  0  0  0
   -9.5364    2.5447   -0.1361 H   0  0  0  0  0  0  0  0  0  0  0  0
   -8.6703    0.3826    1.5197 H   0  0  0  0  0  0  0  0  0  0  0  0
   -8.8990    2.1404    1.9893 H   0  0  0  0  0  0  0  0  0  0  0  0
   -6.4005    0.9463    2.0738 H   0  0  0  0  0  0  0  0  0  0  0  0
   -6.7033    2.6851    1.5141 H   0  0  0  0  0  0  0  0  0  0  0  0
  1  2  1  0
  2  3  1  0
  3  4  2  0
  4  5  1  0
  5  6  2  0
  6  7  1  0
  7  8  2  0
  8  9  1  0
  9 10  1  0
 10 11  2  0
 11 12  1  0
 12 13  2  0
 13 14  1  0
 13 15  1  0
 15 16  1  0
 16 17  1  0
 17 18  2  0
 18 19  1  0
 19 20  2  0
 20 21  1  0
 21 22  2  0
 22 23  1  0
 23 24  2  0
 23 25  2  0
 23 26  1  0
 26 27  1  0
 26 28  1  0
 15 29  2  0
  5 30  1  0
 30 31  1  0
 31 32  1  0
 32 33  1  0
 33 34  1  0
 34 35  1  0
 34 36  1  0
 36 37  1  0
 37 38  1  0
 38 39  1  0
 39 40  1  0
  8  3  1  0
 29 10  1  0
 35 30  1  0
 40 36  1  0
 22 17  1  0
  1 41  1  0
  1 42  1  0
  1 43  1  0
  4 44  1  0
  6 45  1  0
  7 46  1  0
  9 47  1  0
 12 48  1  0
 16 49  1  0
 18 50  1  0
 19 51  1  0
 20 52  1  0
 21 53  1  0
 26 54  1  0
 27 55  1  0
 27 56  1  0
 27 57  1  0
 28 58  1  0
 28 59  1  0
 28 60  1  0
 31 61  1  0
 31 62  1  0
 32 63  1  0
 32 64  1  0
 33 65  1  0
 33 66  1  0
 34 67  1  6
 35 68  1  0
 35 69  1  0
 37 70  1  0
 37 71  1  0
 38 72  1  0
 38 73  1  0
 39 74  1  0
 39 75  1  0
 40 76  1  0
 40 77  1  0
M  END
$$$$
[H]c1nc(N([H])c2c([H])c([H])c(N3C([H])([H])C([H])([H])C(C([H])([H])[H])(C([H])([H])[H])C([H])([H])C3([H])[H])c([H])c2OC([H])([H])[H])nc(N([H])c2c([H])c([H])c([H])c([H])c2S(=O)(=O)C([H])(C([H])([H])[H])C([H])([H])[H])c1Cl
     RDKit          3D

 71 74  0  0  0  0  0  0  0  0999 V2000
    1.9944   -3.7904    0.5854 C   0  0  0  0  0  0  0  0  0  0  0  0
    1.2278   -2.7107    0.1386 O   0  0  0  0  0  0  0  0  0  0  0  0
    1.8521   -1.5385   -0.2350 C   0  0  0  0  0  0  0  0  0  0  0  0
    3.2190   -1.4345   -0.1681 C   0  0  0  0  0  0  0  0  0  0  0  0
    3.9146   -0.2883   -0.5267 C   0  0  0  0  0  0  0  0  0  0  0  0
    3.1447    0.7558   -0.9606 C   0  0  0  0  0  0  0  0  0  0  0  0
    1.7440    0.6537   -1.0311 C   0  0  0  0  0  0  0  0  0  0  0  0
    1.0600   -0.4700   -0.6796 C   0  0  0  0  0  0  0  0  0  0  0  0
   -0.3188   -0.6803   -0.7095 N   0  0  0  0  0  0  0  0  0  0  0  0
   -1.3023    0.2466   -1.1182 C   0  0  0  0  0  0  0  0  0  0  0  0
   -1.0645    1.4886   -1.5468 N   0  0  0  0  0  0  0  0  0  0  0  0
   -2.0232    2.3225   -1.9207 C   0  0  0  0  0  0  0  0  0  0  0  0
   -3.3413    1.9438   -1.8860 C   0  0  0  0  0  0  0  0  0  0  0  0
   -4.6232    3.0142   -2.3829 Cl  0  0  0  0  0  0  0  0  0  0  0  0
   -3.6291    0.6314   -1.4355 C   0  0  0  0  0  0  0  0  0  0  0  0
   -4.9895    0.2657   -1.3576 N   0  0  0  0  0  0  0  0  0  0  0  0
   -5.5057   -0.9834   -1.0027 C   0  0  0  0  0  0  0  0  0  0  0  0
   -4.7086   -2.1166   -1.1747 C   0  0  0  0  0  0  0  0  0  0  0  0
   -5.2495   -3.3642   -0.9514 C   0  0  0  0  0  0  0  0  0  0  0  0
   -6.5465   -3.5462   -0.5655 C   0  0  0  0  0  0  0  0  0  0  0  0
   -7.3178   -2.4335   -0.3991 C   0  0  0  0  0  0  0  0  0  0  0  0
   -6.8174   -1.1421   -0.6106 C   0  0  0  0  0  0  0  0  0  0  0  0
   -7.8588    0.2064   -0.2546 S   0  0  0  0  0  0  0  0  0  0  0  0
   -7.9605    1.2063   -1.3775 O   0  0  0  0  0  0  0  0  0  0  0  0
   -9.3083   -0.3468   -0.1375 O   0  0  0  0  0  0  0  0  0  0  0  0
   -7.4599    1.0523    1.2295 C   0  0  0  0  0  0  0  0  0  0  0  0
   -8.6147    2.0679    1.4515 C   0  0  0  0  0  0  0  0  0  0  0  0
   -6.2109    1.8398    1.2567 C   0  0  0  0  0  0  0  0  0  0  0  0
   -2.6081   -0.1147   -1.0885 N   0  0  0  0  0  0  0  0  0  0  0  0
    5.3189   -0.2183   -0.4263 N   0  0  0  0  0  0  0  0  0  0  0  0
    6.0574    0.7540   -1.1968 C   0  0  0  0  0  0  0  0  0  0  0  0
    6.7097    1.7364   -0.2564 C   0  0  0  0  0  0  0  0  0  0  0  0
    7.4724    1.0476    0.8473 C   0  0  0  0  0  0  0  0  0  0  0  0
    8.8797    0.7405    0.3248 C   0  0  0  0  0  0  0  0  0  0  0  0
    7.6547    2.0679    1.9579 C   0  0  0  0  0  0  0  0  0  0  0  0
    6.8118   -0.1479    1.4206 C   0  0  0  0  0  0  0  0  0  0  0  0
    6.1267   -1.0588    0.4318 C   0  0  0  0  0  0  0  0  0  0  0  0
    1.3448   -4.6017    0.9855 H   0  0  0  0  0  0  0  0  0  0  0  0
    2.6037   -4.2550   -0.2221 H   0  0  0  0  0  0  0  0  0  0  0  0
    2.6890   -3.5135    1.4181 H   0  0  0  0  0  0  0  0  0  0  0  0
    3.8368   -2.2779    0.1764 H   0  0  0  0  0  0  0  0  0  0  0  0
    3.6052    1.7025   -1.2581 H   0  0  0  0  0  0  0  0  0  0  0  0
    1.2189    1.5177   -1.3816 H   0  0  0  0  0  0  0  0  0  0  0  0
   -0.7252   -1.6293   -0.3991 H   0  0  0  0  0  0  0  0  0  0  0  0
   -1.8423    3.3382   -2.2723 H   0  0  0  0  0  0  0  0  0  0  0  0
   -5.7029    1.0016   -1.6199 H   0  0  0  0  0  0  0  0  0  0  0  0
   -3.6800   -2.0825   -1.4977 H   0  0  0  0  0  0  0  0  0  0  0  0
   -4.6347   -4.2436   -1.0829 H   0  0  0  0  0  0  0  0  0  0  0  0
   -6.9542   -4.5442   -0.3957 H   0  0  0  0  0  0  0  0  0  0  0  0
   -8.3489   -2.5436   -0.0940 H   0  0  0  0  0  0  0  0  0  0  0  0
   -7.4880    0.3390    2.1139 H   0  0  0  0  0  0  0  0  0  0  0  0
   -9.5465    1.4558    1.4501 H   0  0  0  0  0  0  0  0  0  0  0  0
   -8.5757    2.7350    0.5772 H   0  0  0  0  0  0  0  0  0  0  0  0
   -8.4537    2.5761    2.4150 H   0  0  0  0  0  0  0  0  0  0  0  0
   -6.2164    2.5512    2.1452 H   0  0  0  0  0  0  0  0  0  0  0  0
   -5.3058    1.2066    1.4598 H   0  0  0  0  0  0  0  0  0  0  0  0
   -6.0496    2.4719    0.3626 H   0  0  0  0  0  0  0  0  0  0  0  0
    5.4181    1.2985   -1.9028 H   0  0  0  0  0  0  0  0  0  0  0  0
    6.8320    0.2166   -1.8197 H   0  0  0  0  0  0  0  0  0  0  0  0
    7.4397    2.3290   -0.8452 H   0  0  0  0  0  0  0  0  0  0  0  0
    5.9479    2.4349    0.1243 H   0  0  0  0  0  0  0  0  0  0  0  0
    9.5671    1.5905    0.5216 H   0  0  0  0  0  0  0  0  0  0  0  0
    8.8622    0.6158   -0.7916 H   0  0  0  0  0  0  0  0  0  0  0  0
    9.2954   -0.1423    0.8369 H   0  0  0  0  0  0  0  0  0  0  0  0
    8.3148    1.6209    2.7328 H   0  0  0  0  0  0  0  0  0  0  0  0
    6.6543    2.2193    2.4306 H   0  0  0  0  0  0  0  0  0  0  0  0
    8.0042    3.0391    1.5860 H   0  0  0  0  0  0  0  0  0  0  0  0
    7.6142   -0.7751    1.9088 H   0  0  0  0  0  0  0  0  0  0  0  0
    6.1032    0.0948    2.2467 H   0  0  0  0  0  0  0  0  0  0  0  0
    6.8759   -1.6113   -0.1697 H   0  0  0  0  0  0  0  0  0  0  0  0
    5.5671   -1.7908    1.0115 H   0  0  0  0  0  0  0  0  0  0  0  0
  1  2  1  0
  2  3  1  0
  3  4  2  0
  4  5  1  0
  5  6  2  0
  6  7  1  0
  7  8  2  0
  8  9  1  0
  9 10  1  0
 10 11  2  0
 11 12  1  0
 12 13  2  0
 13 14  1  0
 13 15  1  0
 15 16  1  0
 16 17  1  0
 17 18  2  0
 18 19  1  0
 19 20  2  0
 20 21  1  0
 21 22  2  0
 22 23  1  0
 23 24  2  0
 23 25  2  0
 23 26  1  0
 26 27  1  0
 26 28  1  0
 15 29  2  0
  5 30  1  0
 30 31  1  0
 31 32  1  0
 32 33  1  0
 33 34  1  0
 33 35  1  0
 33 36  1  0
 36 37  1  0
  8  3  1  0
 29 10  1  0
 37 30  1  0
 22 17  1  0
  1 38  1  0
  1 39  1  0
  1 40  1  0
  4 41  1  0
  6 42  1  0
  7 43  1  0
  9 44  1  0
 12 45  1  0
 16 46  1  0
 18 47  1  0
 19 48  1  0
 20 49  1  0
 21 50  1  0
 26 51  1  0
 27 52  1  0
 27 53  1  0
 27 54  1  0
 28 55  1  0
 28 56  1  0
 28 57  1  0
 31 58  1  0
 31 59  1  0
 32 60  1  0
 32 61  1  0
 34 62  1  0
 34 63  1  0
 34 64  1  0
 35 65  1  0
 35 66  1  0
 35 67  1  0
 36 68  1  0
 36 69  1  0
 37 70  1  0
 37 71  1  0
M  END
$$$$
[H]c1nc(N([H])c2c([H])c([H])c(N3C([H])([H])C([H])([H])C([H])([H])[C@]([H])(N4C([H])([H])C([H])([H])OC([H])([H])C4([H])[H])C3([H])[H])c([H])c2OC([H])([H])[H])nc(N([H])c2c([H])c([H])c([H])c([H])c2S(=O)(=O)C(C([H])([H])[H])(C([H])([H])[H])C([H])([H])[H])c1Cl
     RDKit          3D

 81 85  0  0  0  0  0  0  0  0999 V2000
    2.9786    5.6512   -0.5221 C   0  0  0  0  0  0  0  0  0  0  0  0
    1.7023    5.0367   -0.4016 O   0  0  0  0  0  0  0  0  0  0  0  0
    1.6224    3.6916   -0.0797 C   0  0  0  0  0  0  0  0  0  0  0  0
    2.7642    2.9497    0.1250 C   0  0  0  0  0  0  0  0  0  0  0  0
    2.7292    1.6154    0.4443 C   0  0  0  0  0  0  0  0  0  0  0  0
    1.4910    1.0235    0.5596 C   0  0  0  0  0  0  0  0  0  0  0  0
    0.3381    1.7859    0.3521 C   0  0  0  0  0  0  0  0  0  0  0  0
    0.3398    3.1129    0.0308 C   0  0  0  0  0  0  0  0  0  0  0  0
   -0.7621    3.9412   -0.1827 N   0  0  0  0  0  0  0  0  0  0  0  0
   -2.1271    3.6224   -0.2403 C   0  0  0  0  0  0  0  0  0  0  0  0
   -3.0068    4.6808   -0.4425 N   0  0  0  0  0  0  0  0  0  0  0  0
   -4.3103    4.5113   -0.5087 C   0  0  0  0  0  0  0  0  0  0  0  0
   -4.8241    3.2660   -0.3759 C   0  0  0  0  0  0  0  0  0  0  0  0
   -6.5698    3.0184   -0.4674 Cl  0  0  0  0  0  0  0  0  0  0  0  0
   -3.9885    2.1482   -0.1680 C   0  0  0  0  0  0  0  0  0  0  0  0
   -4.6056    0.9058    0.0426 N   0  0  0  0  0  0  0  0  0  0  0  0
   -4.0259   -0.3592    0.1397 C   0  0  0  0  0  0  0  0  0  0  0  0
   -2.7290   -0.6310   -0.3002 C   0  0  0  0  0  0  0  0  0  0  0  0
   -2.1172   -1.8530   -0.2064 C   0  0  0  0  0  0  0  0  0  0  0  0
   -2.8208   -2.8890    0.3562 C   0  0  0  0  0  0  0  0  0  0  0  0
   -4.0941   -2.6500    0.7909 C   0  0  0  0  0  0  0  0  0  0  0  0
   -4.7441   -1.4088    0.7060 C   0  0  0  0  0  0  0  0  0  0  0  0
   -6.3957   -1.2718    1.1838 S   0  0  0  0  0  0  0  0  0  0  0  0
   -6.6834   -0.0348    2.0247 O   0  0  0  0  0  0  0  0  0  0  0  0
   -6.6009   -2.4097    2.2249 O   0  0  0  0  0  0  0  0  0  0  0  0
   -7.5963   -1.5700   -0.0461 C   0  0  0  0  0  0  0  0  0  0  0  0
   -7.5514   -0.7344   -1.2741 C   0  0  0  0  0  0  0  0  0  0  0  0
   -7.6711   -3.0724   -0.4063 C   0  0  0  0  0  0  0  0  0  0  0  0
   -9.0078   -1.3077    0.5569 C   0  0  0  0  0  0  0  0  0  0  0  0
   -2.6821    2.4338   -0.1177 N   0  0  0  0  0  0  0  0  0  0  0  0
    3.9145    0.8576    0.6562 N   0  0  0  0  0  0  0  0  0  0  0  0
    5.0569    1.5231    1.2458 C   0  0  0  0  0  0  0  0  0  0  0  0
    6.1872    1.3049    0.2284 C   0  0  0  0  0  0  0  0  0  0  0  0
    6.4863   -0.1637    0.2177 C   0  0  0  0  0  0  0  0  0  0  0  0
    5.3674   -1.0495    0.6736 C   0  0  1  0  0  0  0  0  0  0  0  0
    4.0221   -0.5340    0.2776 C   0  0  0  0  0  0  0  0  0  0  0  0
    5.6338   -2.3589    0.2275 N   0  0  0  0  0  0  0  0  0  0  0  0
    5.7086   -2.6341   -1.1474 C   0  0  0  0  0  0  0  0  0  0  0  0
    7.1222   -3.1344   -1.4648 C   0  0  0  0  0  0  0  0  0  0  0  0
    7.8596   -3.3547   -0.2952 O   0  0  0  0  0  0  0  0  0  0  0  0
    7.1441   -4.1457    0.6093 C   0  0  0  0  0  0  0  0  0  0  0  0
    5.9169   -3.3886    1.1202 C   0  0  0  0  0  0  0  0  0  0  0  0
    3.5328    5.1315   -1.3528 H   0  0  0  0  0  0  0  0  0  0  0  0
    2.7947    6.7204   -0.7719 H   0  0  0  0  0  0  0  0  0  0  0  0
    3.5523    5.5488    0.4459 H   0  0  0  0  0  0  0  0  0  0  0  0
    3.7517    3.4275    0.0320 H   0  0  0  0  0  0  0  0  0  0  0  0
    1.4464   -0.0276    0.8107 H   0  0  0  0  0  0  0  0  0  0  0  0
   -0.5893    1.2967    0.4844 H   0  0  0  0  0  0  0  0  0  0  0  0
   -0.5728    5.0103   -0.3283 H   0  0  0  0  0  0  0  0  0  0  0  0
   -5.0265    5.3308   -0.6675 H   0  0  0  0  0  0  0  0  0  0  0  0
   -5.6657    0.9643    0.1646 H   0  0  0  0  0  0  0  0  0  0  0  0
   -2.1331    0.1590   -0.7884 H   0  0  0  0  0  0  0  0  0  0  0  0
   -1.1216   -1.9997   -0.5615 H   0  0  0  0  0  0  0  0  0  0  0  0
   -2.4112   -3.8926    0.4739 H   0  0  0  0  0  0  0  0  0  0  0  0
   -4.6754   -3.4500    1.2425 H   0  0  0  0  0  0  0  0  0  0  0  0
   -6.5089   -0.5837   -1.6440 H   0  0  0  0  0  0  0  0  0  0  0  0
   -8.0345    0.2432   -1.1614 H   0  0  0  0  0  0  0  0  0  0  0  0
   -8.0634   -1.2288   -2.1408 H   0  0  0  0  0  0  0  0  0  0  0  0
   -6.8750   -3.3643   -1.0920 H   0  0  0  0  0  0  0  0  0  0  0  0
   -7.6113   -3.5956    0.5857 H   0  0  0  0  0  0  0  0  0  0  0  0
   -8.6469   -3.2769   -0.8917 H   0  0  0  0  0  0  0  0  0  0  0  0
   -9.0600   -1.9889    1.4271 H   0  0  0  0  0  0  0  0  0  0  0  0
   -9.7443   -1.5498   -0.2055 H   0  0  0  0  0  0  0  0  0  0  0  0
   -9.0253   -0.2554    0.8890 H   0  0  0  0  0  0  0  0  0  0  0  0
    4.9582    2.5927    1.3984 H   0  0  0  0  0  0  0  0  0  0  0  0
    5.3962    0.9732    2.1598 H   0  0  0  0  0  0  0  0  0  0  0  0
    5.8647    1.6807   -0.7721 H   0  0  0  0  0  0  0  0  0  0  0  0
    7.0672    1.8789    0.5250 H   0  0  0  0  0  0  0  0  0  0  0  0
    7.3766   -0.3006    0.9128 H   0  0  0  0  0  0  0  0  0  0  0  0
    6.9105   -0.4798   -0.7766 H   0  0  0  0  0  0  0  0  0  0  0  0
    5.3798   -1.0632    1.7898 H   0  0  0  0  0  0  0  0  0  0  0  0
    3.2028   -1.0934    0.7649 H   0  0  0  0  0  0  0  0  0  0  0  0
    3.8330   -0.6500   -0.8207 H   0  0  0  0  0  0  0  0  0  0  0  0
    5.0101   -3.4053   -1.5267 H   0  0  0  0  0  0  0  0  0  0  0  0
    5.5691   -1.7187   -1.7688 H   0  0  0  0  0  0  0  0  0  0  0  0
    7.0855   -4.0805   -2.0547 H   0  0  0  0  0  0  0  0  0  0  0  0
    7.6875   -2.3939   -2.0746 H   0  0  0  0  0  0  0  0  0  0  0  0
    6.8998   -5.1274    0.1879 H   0  0  0  0  0  0  0  0  0  0  0  0
    7.8076   -4.3019    1.4843 H   0  0  0  0  0  0  0  0  0  0  0  0
    5.1208   -4.1910    1.1663 H   0  0  0  0  0  0  0  0  0  0  0  0
    6.0467   -3.0638    2.1661 H   0  0  0  0  0  0  0  0  0  0  0  0
  1  2  1  0
  2  3  1  0
  3  4  2  0
  4  5  1  0
  5  6  2  0
  6  7  1  0
  7  8  2  0
  8  9  1  0
  9 10  1  0
 10 11  2  0
 11 12  1  0
 12 13  2  0
 13 14  1  0
 13 15  1  0
 15 16  1  0
 16 17  1  0
 17 18  2  0
 18 19  1  0
 19 20  2  0
 20 21  1  0
 21 22  2  0
 22 23  1  0
 23 24  2  0
 23 25  2  0
 23 26  1  0
 26 27  1  0
 26 28  1  0
 26 29  1  0
 15 30  2  0
  5 31  1  0
 31 32  1  0
 32 33  1  0
 33 34  1  0
 34 35  1  0
 35 36  1  0
 35 37  1  0
 37 38  1  0
 38 39  1  0
 39 40  1  0
 40 41  1  0
 41 42  1  0
  8  3  1  0
 30 10  1  0
 36 31  1  0
 42 37  1  0
 22 17  1  0
  1 43  1  0
  1 44  1  0
  1 45  1  0
  4 46  1  0
  6 47  1  0
  7 48  1  0
  9 49  1  0
 12 50  1  0
 16 51  1  0
 18 52  1  0
 19 53  1  0
 20 54  1  0
 21 55  1  0
 27 56  1  0
 27 57  1  0
 27 58  1  0
 28 59  1  0
 28 60  1  0
 28 61  1  0
 29 62  1  0
 29 63  1  0
 29 64  1  0
 32 65  1  0
 32 66  1  0
 33 67  1  0
 33 68  1  0
 34 69  1  0
 34 70  1  0
 35 71  1  1
 36 72  1  0
 36 73  1  0
 38 74  1  0
 38 75  1  0
 39 76  1  0
 39 77  1  0
 41 78  1  0
 41 79  1  0
 42 80  1  0
 42 81  1  0
M  END
$$$$
[H]c1nc(N([H])c2c([H])c([H])c(N3C([H])([H])C([H])([H])C([H])(N4C([H])([H])C([H])([H])OC([H])([H])C4([H])[H])C([H])([H])C3([H])[H])c([H])c2OC([H])([H])[H])nc(N([H])c2c([H])c([H])c([H])c([H])c2S(=O)(=O)C([H])(C([H])([H])[H])C([H])([H])[H])c1Cl
     RDKit          3D

 78 82  0  0  0  0  0  0  0  0999 V2000
   -2.7990   -4.7366   -1.3510 C   0  0  0  0  0  0  0  0  0  0  0  0
   -1.4818   -4.2815   -1.0963 O   0  0  0  0  0  0  0  0  0  0  0  0
   -1.2626   -2.9268   -0.9115 C   0  0  0  0  0  0  0  0  0  0  0  0
   -2.2756   -1.9993   -0.9649 C   0  0  0  0  0  0  0  0  0  0  0  0
   -2.0617   -0.6368   -0.7804 C   0  0  0  0  0  0  0  0  0  0  0  0
   -0.7814   -0.2202   -0.5369 C   0  0  0  0  0  0  0  0  0  0  0  0
    0.2811   -1.1355   -0.4738 C   0  0  0  0  0  0  0  0  0  0  0  0
    0.0363   -2.4736   -0.6602 C   0  0  0  0  0  0  0  0  0  0  0  0
    1.0486   -3.4282   -0.5632 N   0  0  0  0  0  0  0  0  0  0  0  0
    2.4501   -3.2971   -0.5441 C   0  0  0  0  0  0  0  0  0  0  0  0
    3.1806   -4.4584   -0.3853 N   0  0  0  0  0  0  0  0  0  0  0  0
    4.4963   -4.5095   -0.3751 C   0  0  0  0  0  0  0  0  0  0  0  0
    5.2173   -3.3469   -0.5311 C   0  0  0  0  0  0  0  0  0  0  0  0
    6.9576   -3.3296   -0.5341 Cl  0  0  0  0  0  0  0  0  0  0  0  0
    4.5356   -2.1282   -0.6989 C   0  0  0  0  0  0  0  0  0  0  0  0
    5.3043   -0.9689   -0.8278 N   0  0  0  0  0  0  0  0  0  0  0  0
    4.9428    0.3708   -1.0715 C   0  0  0  0  0  0  0  0  0  0  0  0
    3.7071    0.7399   -1.5352 C   0  0  0  0  0  0  0  0  0  0  0  0
    3.4274    2.0598   -1.8188 C   0  0  0  0  0  0  0  0  0  0  0  0
    4.3635    3.0489   -1.6512 C   0  0  0  0  0  0  0  0  0  0  0  0
    5.6208    2.6944   -1.1820 C   0  0  0  0  0  0  0  0  0  0  0  0
    5.9101    1.3798   -0.8961 C   0  0  0  0  0  0  0  0  0  0  0  0
    7.5019    1.0371   -0.2945 S   0  0  0  0  0  0  0  0  0  0  0  0
    8.2978    0.1131   -1.1647 O   0  0  0  0  0  0  0  0  0  0  0  0
    8.2966    2.3490   -0.2987 O   0  0  0  0  0  0  0  0  0  0  0  0
    7.4681    0.4327    1.3549 C   0  0  0  0  0  0  0  0  0  0  0  0
    8.8634   -0.1388    1.7159 C   0  0  0  0  0  0  0  0  0  0  0  0
    7.0596    1.4683    2.3670 C   0  0  0  0  0  0  0  0  0  0  0  0
    3.1822   -2.2006   -0.6916 N   0  0  0  0  0  0  0  0  0  0  0  0
   -3.1115    0.3177   -0.8518 N   0  0  0  0  0  0  0  0  0  0  0  0
   -4.3569    0.0033   -1.5564 C   0  0  0  0  0  0  0  0  0  0  0  0
   -5.4456    0.9770   -1.1084 C   0  0  0  0  0  0  0  0  0  0  0  0
   -5.4163    1.0960    0.3875 C   0  0  0  0  0  0  0  0  0  0  0  0
   -4.1724    1.8834    0.7406 C   0  0  0  0  0  0  0  0  0  0  0  0
   -3.0537    1.6221   -0.2518 C   0  0  0  0  0  0  0  0  0  0  0  0
   -6.5566    1.8175    0.8825 N   0  0  0  0  0  0  0  0  0  0  0  0
   -6.4174    2.0469    2.3263 C   0  0  0  0  0  0  0  0  0  0  0  0
   -7.6213    2.8766    2.7374 C   0  0  0  0  0  0  0  0  0  0  0  0
   -8.8104    2.1862    2.5319 O   0  0  0  0  0  0  0  0  0  0  0  0
   -8.9221    1.9916    1.1601 C   0  0  0  0  0  0  0  0  0  0  0  0
   -7.7951    1.0731    0.7374 C   0  0  0  0  0  0  0  0  0  0  0  0
   -2.8361   -5.8616   -1.3099 H   0  0  0  0  0  0  0  0  0  0  0  0
   -3.1900   -4.3824   -2.3292 H   0  0  0  0  0  0  0  0  0  0  0  0
   -3.5377   -4.4041   -0.5867 H   0  0  0  0  0  0  0  0  0  0  0  0
   -3.2912   -2.3704   -1.1607 H   0  0  0  0  0  0  0  0  0  0  0  0
   -0.5304    0.8148   -0.3940 H   0  0  0  0  0  0  0  0  0  0  0  0
    1.2667   -0.7437   -0.2556 H   0  0  0  0  0  0  0  0  0  0  0  0
    0.7052   -4.4618   -0.4798 H   0  0  0  0  0  0  0  0  0  0  0  0
    5.0715   -5.4367   -0.2489 H   0  0  0  0  0  0  0  0  0  0  0  0
    6.3584   -1.1165   -0.7423 H   0  0  0  0  0  0  0  0  0  0  0  0
    2.9114   -0.0041   -1.7193 H   0  0  0  0  0  0  0  0  0  0  0  0
    2.4405    2.3544   -2.1905 H   0  0  0  0  0  0  0  0  0  0  0  0
    4.1803    4.0991   -1.8612 H   0  0  0  0  0  0  0  0  0  0  0  0
    6.3509    3.4879   -1.0554 H   0  0  0  0  0  0  0  0  0  0  0  0
    6.8109   -0.4447    1.4204 H   0  0  0  0  0  0  0  0  0  0  0  0
    8.9078   -1.1290    1.2165 H   0  0  0  0  0  0  0  0  0  0  0  0
    8.8703   -0.2948    2.7926 H   0  0  0  0  0  0  0  0  0  0  0  0
    9.6590    0.5303    1.3215 H   0  0  0  0  0  0  0  0  0  0  0  0
    6.3760    2.2282    1.9706 H   0  0  0  0  0  0  0  0  0  0  0  0
    8.0149    1.9242    2.7543 H   0  0  0  0  0  0  0  0  0  0  0  0
    6.5683    1.0168    3.2596 H   0  0  0  0  0  0  0  0  0  0  0  0
   -4.2295    0.1961   -2.6622 H   0  0  0  0  0  0  0  0  0  0  0  0
   -4.6789   -1.0320   -1.4555 H   0  0  0  0  0  0  0  0  0  0  0  0
   -6.3764    0.6017   -1.5329 H   0  0  0  0  0  0  0  0  0  0  0  0
   -5.2359    1.9773   -1.5346 H   0  0  0  0  0  0  0  0  0  0  0  0
   -5.4040    0.1109    0.8986 H   0  0  0  0  0  0  0  0  0  0  0  0
   -4.4001    2.9747    0.6779 H   0  0  0  0  0  0  0  0  0  0  0  0
   -3.8424    1.6927    1.7865 H   0  0  0  0  0  0  0  0  0  0  0  0
   -3.1634    2.3692   -1.0913 H   0  0  0  0  0  0  0  0  0  0  0  0
   -2.0806    1.8030    0.1914 H   0  0  0  0  0  0  0  0  0  0  0  0
   -6.4486    1.0642    2.8141 H   0  0  0  0  0  0  0  0  0  0  0  0
   -5.5199    2.6190    2.5767 H   0  0  0  0  0  0  0  0  0  0  0  0
   -7.6190    3.7806    2.0982 H   0  0  0  0  0  0  0  0  0  0  0  0
   -7.5723    3.1645    3.7921 H   0  0  0  0  0  0  0  0  0  0  0  0
   -8.6856    2.9938    0.6972 H   0  0  0  0  0  0  0  0  0  0  0  0
   -9.9176    1.6194    0.8580 H   0  0  0  0  0  0  0  0  0  0  0  0
   -7.9512    0.6460   -0.2539 H   0  0  0  0  0  0  0  0  0  0  0  0
   -7.7886    0.2449    1.4991 H   0  0  0  0  0  0  0  0  0  0  0  0
  1  2  1  0
  2  3  1  0
  3  4  2  0
  4  5  1  0
  5  6  2  0
  6  7  1  0
  7  8  2  0
  8  9  1  0
  9 10  1  0
 10 11  2  0
 11 12  1  0
 12 13  2  0
 13 14  1  0
 13 15  1  0
 15 16  1  0
 16 17  1  0
 17 18  2  0
 18 19  1  0
 19 20  2  0
 20 21  1  0
 21 22  2  0
 22 23  1  0
 23 24  2  0
 23 25  2  0
 23 26  1  0
 26 27  1  0
 26 28  1  0
 15 29  2  0
  5 30  1  0
 30 31  1  0
 31 32  1  0
 32 33  1  0
 33 34  1  0
 34 35  1  0
 33 36  1  0
 36 37  1  0
 37 38  1  0
 38 39  1  0
 39 40  1  0
 40 41  1  0
  8  3  1  0
 29 10  1  0
 35 30  1  0
 41 36  1  0
 22 17  1  0
  1 42  1  0
  1 43  1  0
  1 44  1  0
  4 45  1  0
  6 46  1  0
  7 47  1  0
  9 48  1  0
 12 49  1  0
 16 50  1  0
 18 51  1  0
 19 52  1  0
 20 53  1  0
 21 54  1  0
 26 55  1  0
 27 56  1  0
 27 57  1  0
 27 58  1  0
 28 59  1  0
 28 60  1  0
 28 61  1  0
 31 62  1  0
 31 63  1  0
 32 64  1  0
 32 65  1  0
 33 66  1  0
 34 67  1  0
 34 68  1  0
 35 69  1  0
 35 70  1  0
 37 71  1  0
 37 72  1  0
 38 73  1  0
 38 74  1  0
 40 75  1  0
 40 76  1  0
 41 77  1  0
 41 78  1  0
M  END
$$$$
[H]c1nc(N([H])c2c([H])c([H])c(N3C([H])([H])C([H])([H])C([H])([H])[C@@]([H])(N4C([H])([H])C([H])([H])C([H])([H])C4([H])[H])C3([H])[H])c([H])c2OC([H])([H])[H])nc(N([H])c2c([H])c([H])c([H])c([H])c2S(=O)(=O)C(C([H])([H])[H])(C([H])([H])[H])C([H])([H])[H])c1Cl
     RDKit          3D

 80 84  0  0  0  0  0  0  0  0999 V2000
    1.6100    3.4388    2.9514 C   0  0  0  0  0  0  0  0  0  0  0  0
    1.0069    2.4410    2.1645 O   0  0  0  0  0  0  0  0  0  0  0  0
    1.7798    1.5255    1.4581 C   0  0  0  0  0  0  0  0  0  0  0  0
    3.1411    1.5846    1.5170 C   0  0  0  0  0  0  0  0  0  0  0  0
    3.9791    0.7126    0.8456 C   0  0  0  0  0  0  0  0  0  0  0  0
    3.3792   -0.2453    0.0936 C   0  0  0  0  0  0  0  0  0  0  0  0
    1.9727   -0.3270    0.0166 C   0  0  0  0  0  0  0  0  0  0  0  0
    1.1452    0.5339    0.6793 C   0  0  0  0  0  0  0  0  0  0  0  0
   -0.2588    0.5281    0.6913 N   0  0  0  0  0  0  0  0  0  0  0  0
   -1.1006   -0.2608   -0.0957 C   0  0  0  0  0  0  0  0  0  0  0  0
   -0.6819   -1.1279   -1.0086 N   0  0  0  0  0  0  0  0  0  0  0  0
   -1.4954   -1.8766   -1.7556 C   0  0  0  0  0  0  0  0  0  0  0  0
   -2.8450   -1.7349   -1.5603 C   0  0  0  0  0  0  0  0  0  0  0  0
   -3.9299   -2.6803   -2.5091 Cl  0  0  0  0  0  0  0  0  0  0  0  0
   -3.3758   -0.8331   -0.6062 C   0  0  0  0  0  0  0  0  0  0  0  0
   -4.7623   -0.7475   -0.4780 N   0  0  0  0  0  0  0  0  0  0  0  0
   -5.5170    0.0395    0.4011 C   0  0  0  0  0  0  0  0  0  0  0  0
   -4.9447    0.8300    1.3761 C   0  0  0  0  0  0  0  0  0  0  0  0
   -5.7206    1.5809    2.2575 C   0  0  0  0  0  0  0  0  0  0  0  0
   -7.0782    1.5351    2.1579 C   0  0  0  0  0  0  0  0  0  0  0  0
   -7.6920    0.7466    1.1836 C   0  0  0  0  0  0  0  0  0  0  0  0
   -6.9271    0.0062    0.3125 C   0  0  0  0  0  0  0  0  0  0  0  0
   -7.6988   -0.9473   -0.9029 S   0  0  0  0  0  0  0  0  0  0  0  0
   -7.3751   -2.4078   -0.6446 O   0  0  0  0  0  0  0  0  0  0  0  0
   -7.2227   -0.6374   -2.3020 O   0  0  0  0  0  0  0  0  0  0  0  0
   -9.4779   -0.8503   -0.8382 C   0  0  0  0  0  0  0  0  0  0  0  0
  -10.0588   -1.7396   -1.9529 C   0  0  0  0  0  0  0  0  0  0  0  0
  -10.0403   -1.4089    0.4460 C   0  0  0  0  0  0  0  0  0  0  0  0
  -10.0149    0.5213   -1.0742 C   0  0  0  0  0  0  0  0  0  0  0  0
   -2.4395   -0.1576    0.0599 N   0  0  0  0  0  0  0  0  0  0  0  0
    5.3877    0.8547    0.9574 N   0  0  0  0  0  0  0  0  0  0  0  0
    5.9698    2.0616    1.5104 C   0  0  0  0  0  0  0  0  0  0  0  0
    7.4484    2.0502    1.1886 C   0  0  0  0  0  0  0  0  0  0  0  0
    7.6520    1.7512   -0.2693 C   0  0  0  0  0  0  0  0  0  0  0  0
    7.1106    0.4136   -0.6256 C   0  0  2  0  0  0  0  0  0  0  0  0
    6.3138   -0.1779    0.5459 C   0  0  0  0  0  0  0  0  0  0  0  0
    8.0578   -0.4998   -1.1668 N   0  0  0  0  0  0  0  0  0  0  0  0
    9.1382   -0.8845   -0.3273 C   0  0  0  0  0  0  0  0  0  0  0  0
    9.0694   -2.3924   -0.2402 C   0  0  0  0  0  0  0  0  0  0  0  0
    8.4086   -2.8136   -1.5147 C   0  0  0  0  0  0  0  0  0  0  0  0
    7.5568   -1.6153   -1.8795 C   0  0  0  0  0  0  0  0  0  0  0  0
    2.3705    2.9943    3.6394 H   0  0  0  0  0  0  0  0  0  0  0  0
    0.8568    3.9964    3.5525 H   0  0  0  0  0  0  0  0  0  0  0  0
    2.1221    4.1902    2.3298 H   0  0  0  0  0  0  0  0  0  0  0  0
    3.5872    2.3705    2.1317 H   0  0  0  0  0  0  0  0  0  0  0  0
    3.9485   -0.9599   -0.4583 H   0  0  0  0  0  0  0  0  0  0  0  0
    1.5723   -1.1158   -0.5894 H   0  0  0  0  0  0  0  0  0  0  0  0
   -0.7703    1.1925    1.3764 H   0  0  0  0  0  0  0  0  0  0  0  0
   -1.0936   -2.5606   -2.4801 H   0  0  0  0  0  0  0  0  0  0  0  0
   -5.3204   -1.3647   -1.1316 H   0  0  0  0  0  0  0  0  0  0  0  0
   -3.8695    0.9220    1.5274 H   0  0  0  0  0  0  0  0  0  0  0  0
   -5.2644    2.2091    3.0313 H   0  0  0  0  0  0  0  0  0  0  0  0
   -7.7016    2.1084    2.8303 H   0  0  0  0  0  0  0  0  0  0  0  0
   -8.7860    0.7490    1.1576 H   0  0  0  0  0  0  0  0  0  0  0  0
   -9.8460   -2.7960   -1.7200 H   0  0  0  0  0  0  0  0  0  0  0  0
   -9.6142   -1.3992   -2.9169 H   0  0  0  0  0  0  0  0  0  0  0  0
  -11.1376   -1.6040   -2.0155 H   0  0  0  0  0  0  0  0  0  0  0  0
   -9.1777   -1.6592    1.1071 H   0  0  0  0  0  0  0  0  0  0  0  0
  -10.7242   -0.6726    0.9479 H   0  0  0  0  0  0  0  0  0  0  0  0
  -10.6307   -2.3273    0.2985 H   0  0  0  0  0  0  0  0  0  0  0  0
   -9.2206    1.2983   -1.1311 H   0  0  0  0  0  0  0  0  0  0  0  0
  -10.5490    0.5559   -2.0338 H   0  0  0  0  0  0  0  0  0  0  0  0
  -10.7782    0.7978   -0.2935 H   0  0  0  0  0  0  0  0  0  0  0  0
    5.8946    2.0733    2.6280 H   0  0  0  0  0  0  0  0  0  0  0  0
    5.4700    2.9817    1.1372 H   0  0  0  0  0  0  0  0  0  0  0  0
    7.9199    1.3307    1.8725 H   0  0  0  0  0  0  0  0  0  0  0  0
    7.8009    3.1026    1.4211 H   0  0  0  0  0  0  0  0  0  0  0  0
    8.7451    1.8531   -0.4597 H   0  0  0  0  0  0  0  0  0  0  0  0
    7.0805    2.5380   -0.8243 H   0  0  0  0  0  0  0  0  0  0  0  0
    6.3246    0.5551   -1.4280 H   0  0  0  0  0  0  0  0  0  0  0  0
    6.9978   -0.4057    1.3949 H   0  0  0  0  0  0  0  0  0  0  0  0
    5.8457   -1.1097    0.2215 H   0  0  0  0  0  0  0  0  0  0  0  0
    8.9661   -0.4887    0.7125 H   0  0  0  0  0  0  0  0  0  0  0  0
   10.1330   -0.5520   -0.6789 H   0  0  0  0  0  0  0  0  0  0  0  0
    8.3744   -2.6754    0.5992 H   0  0  0  0  0  0  0  0  0  0  0  0
   10.0768   -2.8474   -0.0884 H   0  0  0  0  0  0  0  0  0  0  0  0
    9.1270   -2.9972   -2.3399 H   0  0  0  0  0  0  0  0  0  0  0  0
    7.7558   -3.7219   -1.3718 H   0  0  0  0  0  0  0  0  0  0  0  0
    6.5211   -1.8433   -1.5479 H   0  0  0  0  0  0  0  0  0  0  0  0
    7.5238   -1.5081   -2.9808 H   0  0  0  0  0  0  0  0  0  0  0  0
  1  2  1  0
  2  3  1  0
  3  4  2  0
  4  5  1  0
  5  6  2  0
  6  7  1  0
  7  8  2  0
  8  9  1  0
  9 10  1  0
 10 11  2  0
 11 12  1  0
 12 13  2  0
 13 14  1  0
 13 15  1  0
 15 16  1  0
 16 17  1  0
 17 18  2  0
 18 19  1  0
 19 20  2  0
 20 21  1  0
 21 22  2  0
 22 23  1  0
 23 24  2  0
 23 25  2  0
 23 26  1  0
 26 27  1  0
 26 28  1  0
 26 29  1  0
 15 30  2  0
  5 31  1  0
 31 32  1  0
 32 33  1  0
 33 34  1  0
 34 35  1  0
 35 36  1  0
 35 37  1  0
 37 38  1  0
 38 39  1  0
 39 40  1  0
 40 41  1  0
  8  3  1  0
 30 10  1  0
 36 31  1  0
 41 37  1  0
 22 17  1  0
  1 42  1  0
  1 43  1  0
  1 44  1  0
  4 45  1  0
  6 46  1  0
  7 47  1  0
  9 48  1  0
 12 49  1  0
 16 50  1  0
 18 51  1  0
 19 52  1  0
 20 53  1  0
 21 54  1  0
 27 55  1  0
 27 56  1  0
 27 57  1  0
 28 58  1  0
 28 59  1  0
 28 60  1  0
 29 61  1  0
 29 62  1  0
 29 63  1  0
 32 64  1  0
 32 65  1  0
 33 66  1  0
 33 67  1  0
 34 68  1  0
 34 69  1  0
 35 70  1  6
 36 71  1  0
 36 72  1  0
 38 73  1  0
 38 74  1  0
 39 75  1  0
 39 76  1  0
 40 77  1  0
 40 78  1  0
 41 79  1  0
 41 80  1  0
M  END
$$$$
[H]C([H])=C([H])C(=O)N1C([H])([H])C([H])([H])N(C2([H])C([H])([H])C([H])([H])N(c3c([H])c([H])c(N([H])c4nc([H])c(Cl)c(N([H])c5c([H])c([H])c([H])c([H])c5S(=O)(=O)C([H])(C([H])([H])[H])C([H])([H])[H])n4)c(OC([H])([H])[H])c3[H])C([H])([H])C2([H])[H])C([H])([H])C1([H])[H]
     RDKit          3D

 85 89  0  0  0  0  0  0  0  0999 V2000
    0.3602   -4.0438    1.0220 C   0  0  0  0  0  0  0  0  0  0  0  0
    1.0333   -2.8870    0.5678 O   0  0  0  0  0  0  0  0  0  0  0  0
    0.3455   -1.7872    0.1181 C   0  0  0  0  0  0  0  0  0  0  0  0
   -1.0183   -1.8105    0.1086 C   0  0  0  0  0  0  0  0  0  0  0  0
   -1.7731   -0.7318   -0.3332 C   0  0  0  0  0  0  0  0  0  0  0  0
   -1.0622    0.3538   -0.7572 C   0  0  0  0  0  0  0  0  0  0  0  0
    0.3425    0.3916   -0.7531 C   0  0  0  0  0  0  0  0  0  0  0  0
    1.0633   -0.6746   -0.3173 C   0  0  0  0  0  0  0  0  0  0  0  0
    2.4575   -0.7315   -0.2791 N   0  0  0  0  0  0  0  0  0  0  0  0
    3.3781    0.2523   -0.6898 C   0  0  0  0  0  0  0  0  0  0  0  0
    3.0640    1.4386   -1.1966 N   0  0  0  0  0  0  0  0  0  0  0  0
    3.9548    2.3436   -1.5873 C   0  0  0  0  0  0  0  0  0  0  0  0
    5.2914    2.0237   -1.4550 C   0  0  0  0  0  0  0  0  0  0  0  0
    6.4918    3.1748   -1.9517 Cl  0  0  0  0  0  0  0  0  0  0  0  0
    5.7048    0.7765   -0.9224 C   0  0  0  0  0  0  0  0  0  0  0  0
    7.0881    0.5457   -0.8278 N   0  0  0  0  0  0  0  0  0  0  0  0
    7.6910   -0.6341   -0.3284 C   0  0  0  0  0  0  0  0  0  0  0  0
    6.9873   -1.7687   -0.0044 C   0  0  0  0  0  0  0  0  0  0  0  0
    7.6306   -2.9262    0.4456 C   0  0  0  0  0  0  0  0  0  0  0  0
    8.9950   -2.9041    0.5571 C   0  0  0  0  0  0  0  0  0  0  0  0
    9.7073   -1.7761    0.2365 C   0  0  0  0  0  0  0  0  0  0  0  0
    9.0916   -0.6071   -0.2142 C   0  0  0  0  0  0  0  0  0  0  0  0
    9.9941    0.8087   -0.5880 S   0  0  0  0  0  0  0  0  0  0  0  0
   11.4772    0.4421   -0.3803 O   0  0  0  0  0  0  0  0  0  0  0  0
    9.9306    1.2175   -2.0360 O   0  0  0  0  0  0  0  0  0  0  0  0
    9.7014    2.1946    0.4399 C   0  0  0  0  0  0  0  0  0  0  0  0
   10.1671    1.9562    1.8697 C   0  0  0  0  0  0  0  0  0  0  0  0
   10.6157    3.3222   -0.0789 C   0  0  0  0  0  0  0  0  0  0  0  0
    4.7062   -0.0128   -0.5806 N   0  0  0  0  0  0  0  0  0  0  0  0
   -3.1819   -0.7201   -0.3593 N   0  0  0  0  0  0  0  0  0  0  0  0
   -3.8557   -1.8569    0.2119 C   0  0  0  0  0  0  0  0  0  0  0  0
   -5.2824   -1.6651    0.5645 C   0  0  0  0  0  0  0  0  0  0  0  0
   -5.9759   -0.5136   -0.0887 C   0  0  0  0  0  0  0  0  0  0  0  0
   -5.2717   -0.1442   -1.3509 C   0  0  0  0  0  0  0  0  0  0  0  0
   -3.8875    0.3891   -0.9427 C   0  0  0  0  0  0  0  0  0  0  0  0
   -7.4012   -0.8074   -0.3318 N   0  0  0  0  0  0  0  0  0  0  0  0
   -8.0060   -1.0140    0.9262 C   0  0  0  0  0  0  0  0  0  0  0  0
   -9.4488   -0.6441    1.0437 C   0  0  0  0  0  0  0  0  0  0  0  0
   -9.8437    0.4301    0.1772 N   0  0  0  0  0  0  0  0  0  0  0  0
   -9.4182    0.3341   -1.1808 C   0  0  0  0  0  0  0  0  0  0  0  0
   -7.9044    0.2318   -1.1435 C   0  0  0  0  0  0  0  0  0  0  0  0
  -10.6023    1.5016    0.6516 C   0  0  0  0  0  0  0  0  0  0  0  0
  -10.9760    1.5718    1.8829 O   0  0  0  0  0  0  0  0  0  0  0  0
  -11.0354    2.6173   -0.1801 C   0  0  0  0  0  0  0  0  0  0  0  0
  -11.7547    3.6118    0.3137 C   0  0  0  0  0  0  0  0  0  0  0  0
    1.0974   -4.7822    1.3600 H   0  0  0  0  0  0  0  0  0  0  0  0
   -0.3061   -3.8051    1.8686 H   0  0  0  0  0  0  0  0  0  0  0  0
   -0.2807   -4.4358    0.2125 H   0  0  0  0  0  0  0  0  0  0  0  0
   -1.5276   -2.6876    0.4524 H   0  0  0  0  0  0  0  0  0  0  0  0
   -1.5809    1.2324   -1.1103 H   0  0  0  0  0  0  0  0  0  0  0  0
    0.7630    1.3005   -1.1087 H   0  0  0  0  0  0  0  0  0  0  0  0
    2.8893   -1.6403    0.1146 H   0  0  0  0  0  0  0  0  0  0  0  0
    3.6533    3.3176   -2.0025 H   0  0  0  0  0  0  0  0  0  0  0  0
    7.7211    1.3315   -1.1840 H   0  0  0  0  0  0  0  0  0  0  0  0
    5.9122   -1.8472   -0.0813 H   0  0  0  0  0  0  0  0  0  0  0  0
    7.0351   -3.7923    0.6886 H   0  0  0  0  0  0  0  0  0  0  0  0
    9.5102   -3.8096    0.9086 H   0  0  0  0  0  0  0  0  0  0  0  0
   10.7806   -1.7728    0.3298 H   0  0  0  0  0  0  0  0  0  0  0  0
    8.6809    2.5648    0.4739 H   0  0  0  0  0  0  0  0  0  0  0  0
    9.3639    1.4982    2.4693 H   0  0  0  0  0  0  0  0  0  0  0  0
   11.0624    1.3115    1.8955 H   0  0  0  0  0  0  0  0  0  0  0  0
   10.3499    2.9713    2.3066 H   0  0  0  0  0  0  0  0  0  0  0  0
   10.5964    3.3862   -1.1720 H   0  0  0  0  0  0  0  0  0  0  0  0
   10.3136    4.3023    0.3394 H   0  0  0  0  0  0  0  0  0  0  0  0
   11.6540    3.1246    0.2685 H   0  0  0  0  0  0  0  0  0  0  0  0
   -3.3110   -2.0606    1.1870 H   0  0  0  0  0  0  0  0  0  0  0  0
   -3.6979   -2.7777   -0.3894 H   0  0  0  0  0  0  0  0  0  0  0  0
   -5.4533   -1.6357    1.6811 H   0  0  0  0  0  0  0  0  0  0  0  0
   -5.8407   -2.5979    0.2543 H   0  0  0  0  0  0  0  0  0  0  0  0
   -5.9699    0.3403    0.6239 H   0  0  0  0  0  0  0  0  0  0  0  0
   -5.7453    0.7061   -1.8797 H   0  0  0  0  0  0  0  0  0  0  0  0
   -5.1109   -1.0341   -1.9581 H   0  0  0  0  0  0  0  0  0  0  0  0
   -3.3879    0.8415   -1.8247 H   0  0  0  0  0  0  0  0  0  0  0  0
   -4.0075    1.2215   -0.2028 H   0  0  0  0  0  0  0  0  0  0  0  0
   -7.4569   -0.5339    1.7725 H   0  0  0  0  0  0  0  0  0  0  0  0
   -7.9506   -2.1206    1.1504 H   0  0  0  0  0  0  0  0  0  0  0  0
   -9.6817   -0.3447    2.0940 H   0  0  0  0  0  0  0  0  0  0  0  0
  -10.1113   -1.5356    0.8569 H   0  0  0  0  0  0  0  0  0  0  0  0
   -9.6866    1.1431   -1.8494 H   0  0  0  0  0  0  0  0  0  0  0  0
   -9.8221   -0.6074   -1.6730 H   0  0  0  0  0  0  0  0  0  0  0  0
   -7.5238    1.2389   -0.8820 H   0  0  0  0  0  0  0  0  0  0  0  0
   -7.6157   -0.0081   -2.2104 H   0  0  0  0  0  0  0  0  0  0  0  0
  -10.7828    2.6724   -1.2285 H   0  0  0  0  0  0  0  0  0  0  0  0
  -12.0570    3.6467    1.3579 H   0  0  0  0  0  0  0  0  0  0  0  0
  -12.0457    4.4094   -0.3535 H   0  0  0  0  0  0  0  0  0  0  0  0
  1  2  1  0
  2  3  1  0
  3  4  2  0
  4  5  1  0
  5  6  2  0
  6  7  1  0
  7  8  2  0
  8  9  1  0
  9 10  1  0
 10 11  2  0
 11 12  1  0
 12 13  2  0
 13 14  1  0
 13 15  1  0
 15 16  1  0
 16 17  1  0
 17 18  2  0
 18 19  1  0
 19 20  2  0
 20 21  1  0
 21 22  2  0
 22 23  1  0
 23 24  2  0
 23 25  2  0
 23 26  1  0
 26 27  1  0
 26 28  1  0
 15 29  2  0
  5 30  1  0
 30 31  1  0
 31 32  1  0
 32 33  1  0
 33 34  1  0
 34 35  1  0
 33 36  1  0
 36 37  1  0
 37 38  1  0
 38 39  1  0
 39 40  1  0
 40 41  1  0
 39 42  1  0
 42 43  2  0
 42 44  1  0
 44 45  2  3
  8  3  1  0
 29 10  1  0
 35 30  1  0
 41 36  1  0
 22 17  1  0
  1 46  1  0
  1 47  1  0
  1 48  1  0
  4 49  1  0
  6 50  1  0
  7 51  1  0
  9 52  1  0
 12 53  1  0
 16 54  1  0
 18 55  1  0
 19 56  1  0
 20 57  1  0
 21 58  1  0
 26 59  1  0
 27 60  1  0
 27 61  1  0
 27 62  1  0
 28 63  1  0
 28 64  1  0
 28 65  1  0
 31 66  1  0
 31 67  1  0
 32 68  1  0
 32 69  1  0
 33 70  1  0
 34 71  1  0
 34 72  1  0
 35 73  1  0
 35 74  1  0
 37 75  1  0
 37 76  1  0
 38 77  1  0
 38 78  1  0
 40 79  1  0
 40 80  1  0
 41 81  1  0
 41 82  1  0
 44 83  1  0
 45 84  1  0
 45 85  1  0
M  END
$$$$
[H]C([H])=C([H])C(=O)N1C([H])([H])C([H])([H])N(c2c([H])c([H])c(N([H])c3nc([H])c(Cl)c(N([H])c4c([H])c([H])c([H])c([H])c4S(=O)(=O)C([H])(C([H])([H])[H])C([H])([H])[H])n3)c(OC([H])([H])[H])c2[H])C([H])([H])C1([H])[H]
     RDKit          3D

 70 73  0  0  0  0  0  0  0  0999 V2000
    3.4638   -4.9536    2.0299 C   0  0  0  0  0  0  0  0  0  0  0  0
    2.3608   -4.4925    1.3016 O   0  0  0  0  0  0  0  0  0  0  0  0
    2.0303   -3.1571    1.2168 C   0  0  0  0  0  0  0  0  0  0  0  0
    2.8394   -2.2648    1.8896 C   0  0  0  0  0  0  0  0  0  0  0  0
    2.5956   -0.9093    1.8674 C   0  0  0  0  0  0  0  0  0  0  0  0
    1.5176   -0.4545    1.1551 C   0  0  0  0  0  0  0  0  0  0  0  0
    0.7108   -1.3816    0.4798 C   0  0  0  0  0  0  0  0  0  0  0  0
    0.9230   -2.7177    0.4823 C   0  0  0  0  0  0  0  0  0  0  0  0
    0.1751   -3.6737   -0.1837 N   0  0  0  0  0  0  0  0  0  0  0  0
   -1.0588   -3.5803   -0.8630 C   0  0  0  0  0  0  0  0  0  0  0  0
   -1.5606   -4.6911   -1.4999 N   0  0  0  0  0  0  0  0  0  0  0  0
   -2.7302   -4.6822   -2.1360 C   0  0  0  0  0  0  0  0  0  0  0  0
   -3.5037   -3.5541   -2.1892 C   0  0  0  0  0  0  0  0  0  0  0  0
   -5.0486   -3.5480   -3.0302 Cl  0  0  0  0  0  0  0  0  0  0  0  0
   -3.0199   -2.3995   -1.5458 C   0  0  0  0  0  0  0  0  0  0  0  0
   -3.8243   -1.2524   -1.6576 N   0  0  0  0  0  0  0  0  0  0  0  0
   -3.6838    0.0189   -1.0734 C   0  0  0  0  0  0  0  0  0  0  0  0
   -2.8883    0.2760    0.0219 C   0  0  0  0  0  0  0  0  0  0  0  0
   -2.8347    1.5400    0.5648 C   0  0  0  0  0  0  0  0  0  0  0  0
   -3.5716    2.5702    0.0295 C   0  0  0  0  0  0  0  0  0  0  0  0
   -4.3674    2.2956   -1.0684 C   0  0  0  0  0  0  0  0  0  0  0  0
   -4.4497    1.0590   -1.6381 C   0  0  0  0  0  0  0  0  0  0  0  0
   -5.5061    0.7826   -3.0049 S   0  0  0  0  0  0  0  0  0  0  0  0
   -6.7074   -0.0265   -2.6108 O   0  0  0  0  0  0  0  0  0  0  0  0
   -4.7833    0.1864   -4.1766 O   0  0  0  0  0  0  0  0  0  0  0  0
   -6.1736    2.3586   -3.5101 C   0  0  0  0  0  0  0  0  0  0  0  0
   -7.2746    2.1127   -4.5577 C   0  0  0  0  0  0  0  0  0  0  0  0
   -5.1526    3.2913   -4.0621 C   0  0  0  0  0  0  0  0  0  0  0  0
   -1.8314   -2.5078   -0.9332 N   0  0  0  0  0  0  0  0  0  0  0  0
    3.4730   -0.0603    2.5708 N   0  0  0  0  0  0  0  0  0  0  0  0
    4.7309   -0.6089    3.0983 C   0  0  0  0  0  0  0  0  0  0  0  0
    5.5203    0.5059    3.7547 C   0  0  0  0  0  0  0  0  0  0  0  0
    5.6187    1.6764    2.8550 N   0  0  0  0  0  0  0  0  0  0  0  0
    4.3729    2.1553    2.3132 C   0  0  0  0  0  0  0  0  0  0  0  0
    3.1865    1.3158    2.8007 C   0  0  0  0  0  0  0  0  0  0  0  0
    6.8712    2.2467    2.5860 C   0  0  0  0  0  0  0  0  0  0  0  0
    7.8595    1.6495    3.1857 O   0  0  0  0  0  0  0  0  0  0  0  0
    7.1828    3.3508    1.7738 C   0  0  0  0  0  0  0  0  0  0  0  0
    6.4446    4.1414    1.0589 C   0  0  0  0  0  0  0  0  0  0  0  0
    3.4166   -4.6600    3.0966 H   0  0  0  0  0  0  0  0  0  0  0  0
    4.4207   -4.5995    1.5897 H   0  0  0  0  0  0  0  0  0  0  0  0
    3.4746   -6.0581    1.9996 H   0  0  0  0  0  0  0  0  0  0  0  0
    3.7069   -2.6280    2.4658 H   0  0  0  0  0  0  0  0  0  0  0  0
    1.2949    0.5969    1.1103 H   0  0  0  0  0  0  0  0  0  0  0  0
   -0.0949   -0.9562   -0.0749 H   0  0  0  0  0  0  0  0  0  0  0  0
    0.5887   -4.6950   -0.2114 H   0  0  0  0  0  0  0  0  0  0  0  0
   -3.1283   -5.5635   -2.6422 H   0  0  0  0  0  0  0  0  0  0  0  0
   -4.6991   -1.3502   -2.2831 H   0  0  0  0  0  0  0  0  0  0  0  0
   -2.3096   -0.5440    0.4798 H   0  0  0  0  0  0  0  0  0  0  0  0
   -2.1941    1.7113    1.4288 H   0  0  0  0  0  0  0  0  0  0  0  0
   -3.5225    3.5685    0.4674 H   0  0  0  0  0  0  0  0  0  0  0  0
   -4.9623    3.1319   -1.4821 H   0  0  0  0  0  0  0  0  0  0  0  0
   -6.6623    2.8066   -2.6320 H   0  0  0  0  0  0  0  0  0  0  0  0
   -8.0853    2.8308   -4.3272 H   0  0  0  0  0  0  0  0  0  0  0  0
   -6.8128    2.3501   -5.5625 H   0  0  0  0  0  0  0  0  0  0  0  0
   -7.5904    1.0541   -4.5015 H   0  0  0  0  0  0  0  0  0  0  0  0
   -5.3566    3.4234   -5.1452 H   0  0  0  0  0  0  0  0  0  0  0  0
   -4.1187    2.8842   -3.9974 H   0  0  0  0  0  0  0  0  0  0  0  0
   -5.2017    4.3273   -3.6404 H   0  0  0  0  0  0  0  0  0  0  0  0
    5.3136   -0.9914    2.2486 H   0  0  0  0  0  0  0  0  0  0  0  0
    4.5016   -1.3689    3.8483 H   0  0  0  0  0  0  0  0  0  0  0  0
    5.0278    0.8032    4.6983 H   0  0  0  0  0  0  0  0  0  0  0  0
    6.5468    0.1645    3.9828 H   0  0  0  0  0  0  0  0  0  0  0  0
    4.3723    2.0800    1.1967 H   0  0  0  0  0  0  0  0  0  0  0  0
    4.1388    3.1906    2.6256 H   0  0  0  0  0  0  0  0  0  0  0  0
    3.0786    1.4805    3.9033 H   0  0  0  0  0  0  0  0  0  0  0  0
    2.3060    1.7145    2.3341 H   0  0  0  0  0  0  0  0  0  0  0  0
    8.2935    3.6018    1.7330 H   0  0  0  0  0  0  0  0  0  0  0  0
    6.9559    4.9595    0.4946 H   0  0  0  0  0  0  0  0  0  0  0  0
    5.3948    4.1178    0.9318 H   0  0  0  0  0  0  0  0  0  0  0  0
  1  2  1  0
  2  3  1  0
  3  4  2  0
  4  5  1  0
  5  6  2  0
  6  7  1  0
  7  8  2  0
  8  9  1  0
  9 10  1  0
 10 11  2  0
 11 12  1  0
 12 13  2  0
 13 14  1  0
 13 15  1  0
 15 16  1  0
 16 17  1  0
 17 18  2  0
 18 19  1  0
 19 20  2  0
 20 21  1  0
 21 22  2  0
 22 23  1  0
 23 24  2  0
 23 25  2  0
 23 26  1  0
 26 27  1  0
 26 28  1  0
 15 29  2  0
  5 30  1  0
 30 31  1  0
 31 32  1  0
 32 33  1  0
 33 34  1  0
 34 35  1  0
 33 36  1  0
 36 37  2  0
 36 38  1  0
 38 39  2  3
  8  3  1  0
 29 10  1  0
 35 30  1  0
 22 17  1  0
  1 40  1  0
  1 41  1  0
  1 42  1  0
  4 43  1  0
  6 44  1  0
  7 45  1  0
  9 46  1  0
 12 47  1  0
 16 48  1  0
 18 49  1  0
 19 50  1  0
 20 51  1  0
 21 52  1  0
 26 53  1  0
 27 54  1  0
 27 55  1  0
 27 56  1  0
 28 57  1  0
 28 58  1  0
 28 59  1  0
 31 60  1  0
 31 61  1  0
 32 62  1  0
 32 63  1  0
 34 64  1  0
 34 65  1  0
 35 66  1  0
 35 67  1  0
 38 68  1  0
 39 69  1  0
 39 70  1  0
M  END
$$$$
[H]c1nc(N([H])c2c([H])c([H])c(N3C([H])([H])C([H])([H])C([H])(N4C([H])([H])C([H])([H])C([H])([H])C4([H])[H])C([H])([H])C3([H])[H])c([H])c2OC([H])([H])[H])nc(N([H])c2c([H])c([H])c([H])c([H])c2S(=O)(=O)C([H])(C([H])([H])[H])C([H])([H])[H])c1Cl
     RDKit          3D

 77 81  0  0  0  0  0  0  0  0999 V2000
    0.8444    1.1735   -3.4882 C   0  0  0  0  0  0  0  0  0  0  0  0
    0.1439    0.9247   -2.3025 O   0  0  0  0  0  0  0  0  0  0  0  0
    0.7822    0.3868   -1.2119 C   0  0  0  0  0  0  0  0  0  0  0  0
    2.1247    0.0964   -1.3057 C   0  0  0  0  0  0  0  0  0  0  0  0
    2.8153   -0.4444   -0.2422 C   0  0  0  0  0  0  0  0  0  0  0  0
    2.1684   -0.7054    0.9431 C   0  0  0  0  0  0  0  0  0  0  0  0
    0.8041   -0.4045    1.0222 C   0  0  0  0  0  0  0  0  0  0  0  0
    0.0946    0.1289   -0.0087 C   0  0  0  0  0  0  0  0  0  0  0  0
   -1.2782    0.4436    0.0285 N   0  0  0  0  0  0  0  0  0  0  0  0
   -2.2158    0.2947    1.0523 C   0  0  0  0  0  0  0  0  0  0  0  0
   -1.9079   -0.2100    2.2386 N   0  0  0  0  0  0  0  0  0  0  0  0
   -2.7961   -0.3635    3.2240 C   0  0  0  0  0  0  0  0  0  0  0  0
   -4.0813    0.0263    2.9742 C   0  0  0  0  0  0  0  0  0  0  0  0
   -5.2951   -0.1412    4.2182 Cl  0  0  0  0  0  0  0  0  0  0  0  0
   -4.4529    0.5671    1.7291 C   0  0  0  0  0  0  0  0  0  0  0  0
   -5.7836    0.9344    1.4634 N   0  0  0  0  0  0  0  0  0  0  0  0
   -6.3139    1.5195    0.2955 C   0  0  0  0  0  0  0  0  0  0  0  0
   -5.5606    2.1541   -0.6571 C   0  0  0  0  0  0  0  0  0  0  0  0
   -6.0806    2.8280   -1.7613 C   0  0  0  0  0  0  0  0  0  0  0  0
   -7.4338    2.8623   -1.9097 C   0  0  0  0  0  0  0  0  0  0  0  0
   -8.2187    2.2364   -0.9751 C   0  0  0  0  0  0  0  0  0  0  0  0
   -7.6979    1.5567    0.1348 C   0  0  0  0  0  0  0  0  0  0  0  0
   -8.8110    0.7276    1.1504 S   0  0  0  0  0  0  0  0  0  0  0  0
   -8.7176    1.1212    2.6121 O   0  0  0  0  0  0  0  0  0  0  0  0
  -10.2307    1.2112    0.7746 O   0  0  0  0  0  0  0  0  0  0  0  0
   -8.8787   -1.0165    0.9527 C   0  0  0  0  0  0  0  0  0  0  0  0
   -7.6434   -1.7952    1.1622 C   0  0  0  0  0  0  0  0  0  0  0  0
   -9.4496   -1.2951   -0.4370 C   0  0  0  0  0  0  0  0  0  0  0  0
   -3.4913    0.6665    0.8456 N   0  0  0  0  0  0  0  0  0  0  0  0
    4.1960   -0.7607   -0.3178 N   0  0  0  0  0  0  0  0  0  0  0  0
    4.9336   -1.1733    0.8819 C   0  0  0  0  0  0  0  0  0  0  0  0
    6.4199   -1.1596    0.6163 C   0  0  0  0  0  0  0  0  0  0  0  0
    6.8115    0.1552   -0.0512 C   0  0  0  0  0  0  0  0  0  0  0  0
    6.0206    0.3973   -1.2880 C   0  0  0  0  0  0  0  0  0  0  0  0
    4.9953   -0.7223   -1.5248 C   0  0  0  0  0  0  0  0  0  0  0  0
    8.2232    0.2736   -0.2312 N   0  0  0  0  0  0  0  0  0  0  0  0
    8.8279   -0.6885   -1.0738 C   0  0  0  0  0  0  0  0  0  0  0  0
    9.5633   -1.6898   -0.2068 C   0  0  0  0  0  0  0  0  0  0  0  0
    9.6882   -0.9817    1.1154 C   0  0  0  0  0  0  0  0  0  0  0  0
    8.9705    0.3394    0.9746 C   0  0  0  0  0  0  0  0  0  0  0  0
    1.2786    0.2534   -3.9436 H   0  0  0  0  0  0  0  0  0  0  0  0
    0.2521    1.7597   -4.2252 H   0  0  0  0  0  0  0  0  0  0  0  0
    1.7405    1.8297   -3.2721 H   0  0  0  0  0  0  0  0  0  0  0  0
    2.6405    0.3088   -2.2572 H   0  0  0  0  0  0  0  0  0  0  0  0
    2.7020   -1.1359    1.8005 H   0  0  0  0  0  0  0  0  0  0  0  0
    0.3661   -0.6318    1.9705 H   0  0  0  0  0  0  0  0  0  0  0  0
   -1.7003    0.8770   -0.8818 H   0  0  0  0  0  0  0  0  0  0  0  0
   -2.5090   -0.7756    4.1686 H   0  0  0  0  0  0  0  0  0  0  0  0
   -6.4448    0.7483    2.2946 H   0  0  0  0  0  0  0  0  0  0  0  0
   -4.4875    2.1799   -0.5950 H   0  0  0  0  0  0  0  0  0  0  0  0
   -5.4582    3.3165   -2.4921 H   0  0  0  0  0  0  0  0  0  0  0  0
   -7.9369    3.3599   -2.7309 H   0  0  0  0  0  0  0  0  0  0  0  0
   -9.3145    2.2697   -1.1049 H   0  0  0  0  0  0  0  0  0  0  0  0
   -9.6419   -1.3897    1.6818 H   0  0  0  0  0  0  0  0  0  0  0  0
   -6.8736   -1.6188    0.3769 H   0  0  0  0  0  0  0  0  0  0  0  0
   -7.8590   -2.9107    1.0478 H   0  0  0  0  0  0  0  0  0  0  0  0
   -7.1554   -1.6284    2.1419 H   0  0  0  0  0  0  0  0  0  0  0  0
   -8.6222   -1.3689   -1.1571 H   0  0  0  0  0  0  0  0  0  0  0  0
  -10.1824   -0.5193   -0.6655 H   0  0  0  0  0  0  0  0  0  0  0  0
   -9.9573   -2.2694   -0.3724 H   0  0  0  0  0  0  0  0  0  0  0  0
    4.6355   -2.2205    1.0843 H   0  0  0  0  0  0  0  0  0  0  0  0
    4.6564   -0.5745    1.7660 H   0  0  0  0  0  0  0  0  0  0  0  0
    6.9138   -1.2598    1.6106 H   0  0  0  0  0  0  0  0  0  0  0  0
    6.7068   -2.0371    0.0389 H   0  0  0  0  0  0  0  0  0  0  0  0
    6.5190    0.9496    0.6967 H   0  0  0  0  0  0  0  0  0  0  0  0
    5.4138    1.3290   -1.2316 H   0  0  0  0  0  0  0  0  0  0  0  0
    6.6594    0.5251   -2.2015 H   0  0  0  0  0  0  0  0  0  0  0  0
    5.5071   -1.7091   -1.5693 H   0  0  0  0  0  0  0  0  0  0  0  0
    4.4546   -0.5000   -2.4387 H   0  0  0  0  0  0  0  0  0  0  0  0
    9.5960   -0.1824   -1.6990 H   0  0  0  0  0  0  0  0  0  0  0  0
    8.1431   -1.1934   -1.7799 H   0  0  0  0  0  0  0  0  0  0  0  0
    9.0162   -2.6556   -0.1333 H   0  0  0  0  0  0  0  0  0  0  0  0
   10.5501   -1.9363   -0.6537 H   0  0  0  0  0  0  0  0  0  0  0  0
    9.3099   -1.5809    1.9603 H   0  0  0  0  0  0  0  0  0  0  0  0
   10.7892   -0.8438    1.3002 H   0  0  0  0  0  0  0  0  0  0  0  0
    9.7787    1.1139    0.8224 H   0  0  0  0  0  0  0  0  0  0  0  0
    8.4248    0.6477    1.8661 H   0  0  0  0  0  0  0  0  0  0  0  0
  1  2  1  0
  2  3  1  0
  3  4  2  0
  4  5  1  0
  5  6  2  0
  6  7  1  0
  7  8  2  0
  8  9  1  0
  9 10  1  0
 10 11  2  0
 11 12  1  0
 12 13  2  0
 13 14  1  0
 13 15  1  0
 15 16  1  0
 16 17  1  0
 17 18  2  0
 18 19  1  0
 19 20  2  0
 20 21  1  0
 21 22  2  0
 22 23  1  0
 23 24  2  0
 23 25  2  0
 23 26  1  0
 26 27  1  0
 26 28  1  0
 15 29  2  0
  5 30  1  0
 30 31  1  0
 31 32  1  0
 32 33  1  0
 33 34  1  0
 34 35  1  0
 33 36  1  0
 36 37  1  0
 37 38  1  0
 38 39  1  0
 39 40  1  0
  8  3  1  0
 29 10  1  0
 35 30  1  0
 40 36  1  0
 22 17  1  0
  1 41  1  0
  1 42  1  0
  1 43  1  0
  4 44  1  0
  6 45  1  0
  7 46  1  0
  9 47  1  0
 12 48  1  0
 16 49  1  0
 18 50  1  0
 19 51  1  0
 20 52  1  0
 21 53  1  0
 26 54  1  0
 27 55  1  0
 27 56  1  0
 27 57  1  0
 28 58  1  0
 28 59  1  0
 28 60  1  0
 31 61  1  0
 31 62  1  0
 32 63  1  0
 32 64  1  0
 33 65  1  0
 34 66  1  0
 34 67  1  0
 35 68  1  0
 35 69  1  0
 37 70  1  0
 37 71  1  0
 38 72  1  0
 38 73  1  0
 39 74  1  0
 39 75  1  0
 40 76  1  0
 40 77  1  0
M  END
$$$$
[H]c1nc(N([H])c2c([H])c([H])c(N3C([H])([H])C([H])([H])C([H])([H])[C@]([H])(N4C([H])([H])C([H])([H])C([H])([H])C4([H])[H])C3([H])[H])c([H])c2OC([H])([H])[H])nc(N([H])c2c([H])c([H])c([H])c([H])c2S(=O)(=O)C(C([H])([H])[H])(C([H])([H])[H])C([H])([H])[H])c1Cl
     RDKit          3D

 80 84  0  0  0  0  0  0  0  0999 V2000
    2.0653   -1.5948   -2.4155 C   0  0  0  0  0  0  0  0  0  0  0  0
    1.3100   -0.7860   -1.5583 O   0  0  0  0  0  0  0  0  0  0  0  0
    1.9084    0.1180   -0.6646 C   0  0  0  0  0  0  0  0  0  0  0  0
    3.2483    0.2549   -0.5854 C   0  0  0  0  0  0  0  0  0  0  0  0
    3.8115    1.1507    0.3013 C   0  0  0  0  0  0  0  0  0  0  0  0
    2.9922    1.9044    1.1035 C   0  0  0  0  0  0  0  0  0  0  0  0
    1.6022    1.7746    1.0337 C   0  0  0  0  0  0  0  0  0  0  0  0
    1.0537    0.8800    0.1494 C   0  0  0  0  0  0  0  0  0  0  0  0
   -0.3220    0.6974    0.0383 N   0  0  0  0  0  0  0  0  0  0  0  0
   -1.3536    1.2768    0.7679 C   0  0  0  0  0  0  0  0  0  0  0  0
   -1.2805    2.1661    1.7629 N   0  0  0  0  0  0  0  0  0  0  0  0
   -2.3560    2.6351    2.4076 C   0  0  0  0  0  0  0  0  0  0  0  0
   -3.6184    2.2174    2.0735 C   0  0  0  0  0  0  0  0  0  0  0  0
   -5.0418    2.8109    2.8987 Cl  0  0  0  0  0  0  0  0  0  0  0  0
   -3.7479    1.2778    1.0276 C   0  0  0  0  0  0  0  0  0  0  0  0
   -5.0406    0.8397    0.7082 N   0  0  0  0  0  0  0  0  0  0  0  0
   -5.4400   -0.0635   -0.2902 C   0  0  0  0  0  0  0  0  0  0  0  0
   -4.5634   -0.5935   -1.2085 C   0  0  0  0  0  0  0  0  0  0  0  0
   -5.0480   -1.4736   -2.1685 C   0  0  0  0  0  0  0  0  0  0  0  0
   -6.3643   -1.8285   -2.2302 C   0  0  0  0  0  0  0  0  0  0  0  0
   -7.2758   -1.3043   -1.3100 C   0  0  0  0  0  0  0  0  0  0  0  0
   -6.8025   -0.4346   -0.3595 C   0  0  0  0  0  0  0  0  0  0  0  0
   -7.9453    0.2090    0.7830 S   0  0  0  0  0  0  0  0  0  0  0  0
   -8.0448    1.7206    0.6298 O   0  0  0  0  0  0  0  0  0  0  0  0
   -7.5552   -0.1635    2.2038 O   0  0  0  0  0  0  0  0  0  0  0  0
   -9.5960   -0.4001    0.5643 C   0  0  0  0  0  0  0  0  0  0  0  0
  -10.4659    0.2693    1.6578 C   0  0  0  0  0  0  0  0  0  0  0  0
  -10.2265   -0.0036   -0.7296 C   0  0  0  0  0  0  0  0  0  0  0  0
   -9.6342   -1.8890    0.8439 C   0  0  0  0  0  0  0  0  0  0  0  0
   -2.6169    0.8767    0.4520 N   0  0  0  0  0  0  0  0  0  0  0  0
    5.2183    1.2958    0.4205 N   0  0  0  0  0  0  0  0  0  0  0  0
    5.7477    2.3256    1.2629 C   0  0  0  0  0  0  0  0  0  0  0  0
    7.2245    2.2978    1.4768 C   0  0  0  0  0  0  0  0  0  0  0  0
    7.9857    1.6160    0.3594 C   0  0  0  0  0  0  0  0  0  0  0  0
    7.4269    0.2462    0.2199 C   0  0  1  0  0  0  0  0  0  0  0  0
    6.0333    0.3479   -0.3435 C   0  0  0  0  0  0  0  0  0  0  0  0
    8.2007   -0.6978   -0.5032 N   0  0  0  0  0  0  0  0  0  0  0  0
    9.4766   -1.0209    0.0474 C   0  0  0  0  0  0  0  0  0  0  0  0
    9.5007   -2.5228    0.2376 C   0  0  0  0  0  0  0  0  0  0  0  0
    8.5940   -2.9982   -0.8821 C   0  0  0  0  0  0  0  0  0  0  0  0
    7.5293   -1.9039   -0.8481 C   0  0  0  0  0  0  0  0  0  0  0  0
    2.7707   -0.9818   -3.0358 H   0  0  0  0  0  0  0  0  0  0  0  0
    1.3956   -2.1216   -3.1268 H   0  0  0  0  0  0  0  0  0  0  0  0
    2.6932   -2.3089   -1.8322 H   0  0  0  0  0  0  0  0  0  0  0  0
    3.8736   -0.3533   -1.2373 H   0  0  0  0  0  0  0  0  0  0  0  0
    3.3604    2.6141    1.8027 H   0  0  0  0  0  0  0  0  0  0  0  0
    0.9998    2.4022    1.6931 H   0  0  0  0  0  0  0  0  0  0  0  0
   -0.6253    0.0047   -0.7349 H   0  0  0  0  0  0  0  0  0  0  0  0
   -2.2870    3.3587    3.2190 H   0  0  0  0  0  0  0  0  0  0  0  0
   -5.8251    1.2429    1.2982 H   0  0  0  0  0  0  0  0  0  0  0  0
   -3.5069   -0.3785   -1.2548 H   0  0  0  0  0  0  0  0  0  0  0  0
   -4.3429   -1.8997   -2.9067 H   0  0  0  0  0  0  0  0  0  0  0  0
   -6.7475   -2.5180   -2.9798 H   0  0  0  0  0  0  0  0  0  0  0  0
   -8.3124   -1.6185   -1.3988 H   0  0  0  0  0  0  0  0  0  0  0  0
  -10.6154    1.3241    1.3426 H   0  0  0  0  0  0  0  0  0  0  0  0
   -9.9633    0.2281    2.6380 H   0  0  0  0  0  0  0  0  0  0  0  0
  -11.4364   -0.2344    1.7479 H   0  0  0  0  0  0  0  0  0  0  0  0
  -11.0739    0.7024   -0.6251 H   0  0  0  0  0  0  0  0  0  0  0  0
  -10.6439   -0.9151   -1.2049 H   0  0  0  0  0  0  0  0  0  0  0  0
   -9.5210    0.4673   -1.4412 H   0  0  0  0  0  0  0  0  0  0  0  0
  -10.1004   -2.1104    1.8228 H   0  0  0  0  0  0  0  0  0  0  0  0
  -10.1342   -2.4446    0.0088 H   0  0  0  0  0  0  0  0  0  0  0  0
   -8.5941   -2.3019    0.8869 H   0  0  0  0  0  0  0  0  0  0  0  0
    5.2634    2.2349    2.2796 H   0  0  0  0  0  0  0  0  0  0  0  0
    5.3945    3.2968    0.8282 H   0  0  0  0  0  0  0  0  0  0  0  0
    7.5044    1.8862    2.4784 H   0  0  0  0  0  0  0  0  0  0  0  0
    7.5884    3.3682    1.4792 H   0  0  0  0  0  0  0  0  0  0  0  0
    9.0492    1.5891    0.6781 H   0  0  0  0  0  0  0  0  0  0  0  0
    7.8418    2.2653   -0.5435 H   0  0  0  0  0  0  0  0  0  0  0  0
    7.3007   -0.1624    1.2681 H   0  0  0  0  0  0  0  0  0  0  0  0
    5.5602   -0.6533   -0.2142 H   0  0  0  0  0  0  0  0  0  0  0  0
    6.0658    0.6028   -1.4189 H   0  0  0  0  0  0  0  0  0  0  0  0
    9.5615   -0.5107    1.0494 H   0  0  0  0  0  0  0  0  0  0  0  0
   10.3463   -0.7415   -0.5797 H   0  0  0  0  0  0  0  0  0  0  0  0
    9.0312   -2.8162    1.2225 H   0  0  0  0  0  0  0  0  0  0  0  0
   10.5159   -2.9555    0.1493 H   0  0  0  0  0  0  0  0  0  0  0  0
    9.1342   -3.0261   -1.8416 H   0  0  0  0  0  0  0  0  0  0  0  0
    8.1137   -3.9865   -0.6388 H   0  0  0  0  0  0  0  0  0  0  0  0
    6.8658   -2.1950    0.0175 H   0  0  0  0  0  0  0  0  0  0  0  0
    6.9096   -1.8843   -1.7402 H   0  0  0  0  0  0  0  0  0  0  0  0
  1  2  1  0
  2  3  1  0
  3  4  2  0
  4  5  1  0
  5  6  2  0
  6  7  1  0
  7  8  2  0
  8  9  1  0
  9 10  1  0
 10 11  2  0
 11 12  1  0
 12 13  2  0
 13 14  1  0
 13 15  1  0
 15 16  1  0
 16 17  1  0
 17 18  2  0
 18 19  1  0
 19 20  2  0
 20 21  1  0
 21 22  2  0
 22 23  1  0
 23 24  2  0
 23 25  2  0
 23 26  1  0
 26 27  1  0
 26 28  1  0
 26 29  1  0
 15 30  2  0
  5 31  1  0
 31 32  1  0
 32 33  1  0
 33 34  1  0
 34 35  1  0
 35 36  1  0
 35 37  1  0
 37 38  1  0
 38 39  1  0
 39 40  1  0
 40 41  1  0
  8  3  1  0
 30 10  1  0
 36 31  1  0
 41 37  1  0
 22 17  1  0
  1 42  1  0
  1 43  1  0
  1 44  1  0
  4 45  1  0
  6 46  1  0
  7 47  1  0
  9 48  1  0
 12 49  1  0
 16 50  1  0
 18 51  1  0
 19 52  1  0
 20 53  1  0
 21 54  1  0
 27 55  1  0
 27 56  1  0
 27 57  1  0
 28 58  1  0
 28 59  1  0
 28 60  1  0
 29 61  1  0
 29 62  1  0
 29 63  1  0
 32 64  1  0
 32 65  1  0
 33 66  1  0
 33 67  1  0
 34 68  1  0
 34 69  1  0
 35 70  1  1
 36 71  1  0
 36 72  1  0
 38 73  1  0
 38 74  1  0
 39 75  1  0
 39 76  1  0
 40 77  1  0
 40 78  1  0
 41 79  1  0
 41 80  1  0
M  END
$$$$
[H]c1nc(N([H])c2c([H])c([H])c(N3C([H])([H])C([H])([H])C([H])(N4C([H])([H])C([H])([H])OC([H])([H])C4([H])[H])C([H])([H])C3([H])[H])c([H])c2OC([H])([H])[H])nc(N([H])c2c([H])c([H])c([H])c([H])c2S(=O)(=O)C(C([H])([H])[H])(C([H])([H])[H])C([H])([H])[H])c1Cl
     RDKit          3D

 81 85  0  0  0  0  0  0  0  0999 V2000
    2.3397    5.2827   -2.1594 C   0  0  0  0  0  0  0  0  0  0  0  0
    1.2426    4.6678   -1.5580 O   0  0  0  0  0  0  0  0  0  0  0  0
    1.2603    3.4073   -0.9815 C   0  0  0  0  0  0  0  0  0  0  0  0
    2.4158    2.6596   -0.9712 C   0  0  0  0  0  0  0  0  0  0  0  0
    2.4577    1.4057   -0.4054 C   0  0  0  0  0  0  0  0  0  0  0  0
    1.2874    0.9445    0.1460 C   0  0  0  0  0  0  0  0  0  0  0  0
    0.1091    1.7026    0.1383 C   0  0  0  0  0  0  0  0  0  0  0  0
    0.0590    2.9517   -0.4238 C   0  0  0  0  0  0  0  0  0  0  0  0
   -1.0729    3.7969   -0.4216 N   0  0  0  0  0  0  0  0  0  0  0  0
   -2.4106    3.5103   -0.1640 C   0  0  0  0  0  0  0  0  0  0  0  0
   -3.2747    4.5857   -0.1748 N   0  0  0  0  0  0  0  0  0  0  0  0
   -4.5698    4.5028    0.0205 C   0  0  0  0  0  0  0  0  0  0  0  0
   -5.1533    3.2928    0.2541 C   0  0  0  0  0  0  0  0  0  0  0  0
   -6.8709    3.1192    0.5352 Cl  0  0  0  0  0  0  0  0  0  0  0  0
   -4.3126    2.1487    0.2743 C   0  0  0  0  0  0  0  0  0  0  0  0
   -4.8888    0.9080    0.5583 N   0  0  0  0  0  0  0  0  0  0  0  0
   -4.2920   -0.3580    0.5362 C   0  0  0  0  0  0  0  0  0  0  0  0
   -3.0452   -0.6119   -0.0107 C   0  0  0  0  0  0  0  0  0  0  0  0
   -2.4016   -1.8318   -0.0158 C   0  0  0  0  0  0  0  0  0  0  0  0
   -3.0437   -2.8797    0.5640 C   0  0  0  0  0  0  0  0  0  0  0  0
   -4.2760   -2.6803    1.1130 C   0  0  0  0  0  0  0  0  0  0  0  0
   -4.9486   -1.4436    1.1261 C   0  0  0  0  0  0  0  0  0  0  0  0
   -6.5620   -1.3868    1.7219 S   0  0  0  0  0  0  0  0  0  0  0  0
   -6.8577   -0.2057    2.6204 O   0  0  0  0  0  0  0  0  0  0  0  0
   -6.6861   -2.5706    2.7157 O   0  0  0  0  0  0  0  0  0  0  0  0
   -7.8302   -1.6650    0.5506 C   0  0  0  0  0  0  0  0  0  0  0  0
   -7.8347   -0.7085   -0.5922 C   0  0  0  0  0  0  0  0  0  0  0  0
   -7.8315   -3.1071    0.0467 C   0  0  0  0  0  0  0  0  0  0  0  0
   -9.2210   -1.5125    1.2111 C   0  0  0  0  0  0  0  0  0  0  0  0
   -3.0058    2.3414    0.0647 N   0  0  0  0  0  0  0  0  0  0  0  0
    3.6480    0.6281   -0.3794 N   0  0  0  0  0  0  0  0  0  0  0  0
    4.8690    1.2323   -0.8050 C   0  0  0  0  0  0  0  0  0  0  0  0
    6.1212    0.5612   -0.3237 C   0  0  0  0  0  0  0  0  0  0  0  0
    5.9439   -0.8685    0.0660 C   0  0  0  0  0  0  0  0  0  0  0  0
    4.7174   -1.5021   -0.5364 C   0  0  0  0  0  0  0  0  0  0  0  0
    3.5297   -0.7523    0.0824 C   0  0  0  0  0  0  0  0  0  0  0  0
    7.1319   -1.6134   -0.2446 N   0  0  0  0  0  0  0  0  0  0  0  0
    8.2617   -1.1385    0.5025 C   0  0  0  0  0  0  0  0  0  0  0  0
    8.6451   -2.1244    1.5919 C   0  0  0  0  0  0  0  0  0  0  0  0
    9.0810   -3.3071    1.0357 O   0  0  0  0  0  0  0  0  0  0  0  0
    8.3572   -3.6514   -0.0974 C   0  0  0  0  0  0  0  0  0  0  0  0
    6.9561   -3.0403   -0.0744 C   0  0  0  0  0  0  0  0  0  0  0  0
    2.5368    4.7833   -3.1446 H   0  0  0  0  0  0  0  0  0  0  0  0
    2.0861    6.3496   -2.3381 H   0  0  0  0  0  0  0  0  0  0  0  0
    3.2470    5.2340   -1.4943 H   0  0  0  0  0  0  0  0  0  0  0  0
    3.3341    3.0523   -1.4202 H   0  0  0  0  0  0  0  0  0  0  0  0
    1.2657   -0.0275    0.6009 H   0  0  0  0  0  0  0  0  0  0  0  0
   -0.7807    1.3184    0.6037 H   0  0  0  0  0  0  0  0  0  0  0  0
   -0.8668    4.8408   -0.6550 H   0  0  0  0  0  0  0  0  0  0  0  0
   -5.2385    5.3676    0.0095 H   0  0  0  0  0  0  0  0  0  0  0  0
   -5.9055    0.9627    0.8408 H   0  0  0  0  0  0  0  0  0  0  0  0
   -2.5012    0.1725   -0.5206 H   0  0  0  0  0  0  0  0  0  0  0  0
   -1.4369   -1.9903   -0.4474 H   0  0  0  0  0  0  0  0  0  0  0  0
   -2.6215   -3.8799    0.6132 H   0  0  0  0  0  0  0  0  0  0  0  0
   -4.8131   -3.5114    1.5839 H   0  0  0  0  0  0  0  0  0  0  0  0
   -6.8146   -0.7488   -1.0758 H   0  0  0  0  0  0  0  0  0  0  0  0
   -7.9820    0.3437   -0.2869 H   0  0  0  0  0  0  0  0  0  0  0  0
   -8.5928   -0.9767   -1.3683 H   0  0  0  0  0  0  0  0  0  0  0  0
   -7.0872   -3.2702   -0.7442 H   0  0  0  0  0  0  0  0  0  0  0  0
   -8.8315   -3.2722   -0.4055 H   0  0  0  0  0  0  0  0  0  0  0  0
   -7.7368   -3.7680    0.9151 H   0  0  0  0  0  0  0  0  0  0  0  0
   -9.1789   -0.5720    1.8098 H   0  0  0  0  0  0  0  0  0  0  0  0
   -9.9666   -1.3860    0.4277 H   0  0  0  0  0  0  0  0  0  0  0  0
   -9.4001   -2.3276    1.9224 H   0  0  0  0  0  0  0  0  0  0  0  0
    4.8329    1.3672   -1.9065 H   0  0  0  0  0  0  0  0  0  0  0  0
    4.8742    2.2796   -0.3792 H   0  0  0  0  0  0  0  0  0  0  0  0
    6.8743    0.6506   -1.1413 H   0  0  0  0  0  0  0  0  0  0  0  0
    6.5483    1.1286    0.5314 H   0  0  0  0  0  0  0  0  0  0  0  0
    5.7945   -0.9223    1.1842 H   0  0  0  0  0  0  0  0  0  0  0  0
    4.7530   -1.3739   -1.6308 H   0  0  0  0  0  0  0  0  0  0  0  0
    4.7216   -2.5689   -0.2300 H   0  0  0  0  0  0  0  0  0  0  0  0
    3.6407   -0.7457    1.1674 H   0  0  0  0  0  0  0  0  0  0  0  0
    2.6214   -1.2437   -0.3041 H   0  0  0  0  0  0  0  0  0  0  0  0
    9.1571   -0.9920   -0.1622 H   0  0  0  0  0  0  0  0  0  0  0  0
    8.0697   -0.1521    0.9675 H   0  0  0  0  0  0  0  0  0  0  0  0
    9.4464   -1.6215    2.1969 H   0  0  0  0  0  0  0  0  0  0  0  0
    7.7568   -2.3359    2.2069 H   0  0  0  0  0  0  0  0  0  0  0  0
    8.9320   -3.2883   -0.9813 H   0  0  0  0  0  0  0  0  0  0  0  0
    8.2904   -4.7566   -0.2065 H   0  0  0  0  0  0  0  0  0  0  0  0
    6.5217   -3.3052    0.9031 H   0  0  0  0  0  0  0  0  0  0  0  0
    6.4059   -3.5043   -0.9203 H   0  0  0  0  0  0  0  0  0  0  0  0
  1  2  1  0
  2  3  1  0
  3  4  2  0
  4  5  1  0
  5  6  2  0
  6  7  1  0
  7  8  2  0
  8  9  1  0
  9 10  1  0
 10 11  2  0
 11 12  1  0
 12 13  2  0
 13 14  1  0
 13 15  1  0
 15 16  1  0
 16 17  1  0
 17 18  2  0
 18 19  1  0
 19 20  2  0
 20 21  1  0
 21 22  2  0
 22 23  1  0
 23 24  2  0
 23 25  2  0
 23 26  1  0
 26 27  1  0
 26 28  1  0
 26 29  1  0
 15 30  2  0
  5 31  1  0
 31 32  1  0
 32 33  1  0
 33 34  1  0
 34 35  1  0
 35 36  1  0
 34 37  1  0
 37 38  1  0
 38 39  1  0
 39 40  1  0
 40 41  1  0
 41 42  1  0
  8  3  1  0
 30 10  1  0
 36 31  1  0
 42 37  1  0
 22 17  1  0
  1 43  1  0
  1 44  1  0
  1 45  1  0
  4 46  1  0
  6 47  1  0
  7 48  1  0
  9 49  1  0
 12 50  1  0
 16 51  1  0
 18 52  1  0
 19 53  1  0
 20 54  1  0
 21 55  1  0
 27 56  1  0
 27 57  1  0
 27 58  1  0
 28 59  1  0
 28 60  1  0
 28 61  1  0
 29 62  1  0
 29 63  1  0
 29 64  1  0
 32 65  1  0
 32 66  1  0
 33 67  1  0
 33 68  1  0
 34 69  1  0
 35 70  1  0
 35 71  1  0
 36 72  1  0
 36 73  1  0
 38 74  1  0
 38 75  1  0
 39 76  1  0
 39 77  1  0
 41 78  1  0
 41 79  1  0
 42 80  1  0
 42 81  1  0
M  END
$$$$
[H]c1nc(N([H])c2c([H])c([H])c(N3C([H])([H])C([H])([H])C([H])([H])C3([H])[H])c([H])c2OC([H])([H])[H])nc(N([H])c2c([H])c([H])c([H])c([H])c2S(=O)(=O)C([H])(C([H])([H])[H])C([H])([H])[H])c1Cl
     RDKit          3D

 62 65  0  0  0  0  0  0  0  0999 V2000
    3.2096   -2.0609    2.6947 C   0  0  0  0  0  0  0  0  0  0  0  0
    2.4224   -1.4133    1.7127 O   0  0  0  0  0  0  0  0  0  0  0  0
    2.9677   -0.3618    0.9953 C   0  0  0  0  0  0  0  0  0  0  0  0
    4.2572    0.0530    1.2291 C   0  0  0  0  0  0  0  0  0  0  0  0
    4.8235    1.0886    0.5366 C   0  0  0  0  0  0  0  0  0  0  0  0
    4.0752    1.7161   -0.4079 C   0  0  0  0  0  0  0  0  0  0  0  0
    2.7540    1.2879   -0.6446 C   0  0  0  0  0  0  0  0  0  0  0  0
    2.1664    0.2666    0.0243 C   0  0  0  0  0  0  0  0  0  0  0  0
    0.8696   -0.1802   -0.1856 N   0  0  0  0  0  0  0  0  0  0  0  0
   -0.1084    0.2853   -1.0961 C   0  0  0  0  0  0  0  0  0  0  0  0
    0.0610    1.2910   -1.9564 N   0  0  0  0  0  0  0  0  0  0  0  0
   -0.8873    1.7043   -2.8056 C   0  0  0  0  0  0  0  0  0  0  0  0
   -2.1134    1.0929   -2.8294 C   0  0  0  0  0  0  0  0  0  0  0  0
   -3.3915    1.5675   -3.9002 Cl  0  0  0  0  0  0  0  0  0  0  0  0
   -2.3447    0.0208   -1.9370 C   0  0  0  0  0  0  0  0  0  0  0  0
   -3.6191   -0.5623   -1.9497 N   0  0  0  0  0  0  0  0  0  0  0  0
   -4.0331   -1.6625   -1.1801 C   0  0  0  0  0  0  0  0  0  0  0  0
   -3.0825   -2.5500   -0.6621 C   0  0  0  0  0  0  0  0  0  0  0  0
   -3.4800   -3.7098   -0.0047 C   0  0  0  0  0  0  0  0  0  0  0  0
   -4.8200   -3.9597    0.1206 C   0  0  0  0  0  0  0  0  0  0  0  0
   -5.7733   -3.1221   -0.3685 C   0  0  0  0  0  0  0  0  0  0  0  0
   -5.4002   -1.9313   -1.0412 C   0  0  0  0  0  0  0  0  0  0  0  0
   -6.6384   -0.8507   -1.5489 S   0  0  0  0  0  0  0  0  0  0  0  0
   -7.9900   -1.6248   -1.4519 O   0  0  0  0  0  0  0  0  0  0  0  0
   -6.4774   -0.4460   -2.9853 O   0  0  0  0  0  0  0  0  0  0  0  0
   -6.8303    0.5130   -0.4913 C   0  0  0  0  0  0  0  0  0  0  0  0
   -7.3705    0.0426    0.8690 C   0  0  0  0  0  0  0  0  0  0  0  0
   -5.5901    1.2834   -0.2036 C   0  0  0  0  0  0  0  0  0  0  0  0
   -1.3250   -0.2996   -1.1400 N   0  0  0  0  0  0  0  0  0  0  0  0
    6.1674    1.4448    0.8462 N   0  0  0  0  0  0  0  0  0  0  0  0
    6.8682    2.5381    0.1883 C   0  0  0  0  0  0  0  0  0  0  0  0
    8.2520    2.5587    0.7521 C   0  0  0  0  0  0  0  0  0  0  0  0
    8.4449    1.1679    1.3147 C   0  0  0  0  0  0  0  0  0  0  0  0
    7.0530    0.8320    1.8113 C   0  0  0  0  0  0  0  0  0  0  0  0
    4.0894   -2.5362    2.1987 H   0  0  0  0  0  0  0  0  0  0  0  0
    2.6755   -2.8565    3.2164 H   0  0  0  0  0  0  0  0  0  0  0  0
    3.5743   -1.2577    3.3766 H   0  0  0  0  0  0  0  0  0  0  0  0
    4.8446   -0.4612    1.9910 H   0  0  0  0  0  0  0  0  0  0  0  0
    4.5234    2.5305   -0.9509 H   0  0  0  0  0  0  0  0  0  0  0  0
    2.2714    1.8655   -1.4148 H   0  0  0  0  0  0  0  0  0  0  0  0
    0.5351   -1.0076    0.4279 H   0  0  0  0  0  0  0  0  0  0  0  0
   -0.7109    2.5334   -3.4969 H   0  0  0  0  0  0  0  0  0  0  0  0
   -4.3140   -0.1463   -2.6066 H   0  0  0  0  0  0  0  0  0  0  0  0
   -2.0227   -2.3788   -0.7743 H   0  0  0  0  0  0  0  0  0  0  0  0
   -2.7473   -4.3997    0.3987 H   0  0  0  0  0  0  0  0  0  0  0  0
   -5.1686   -4.8689    0.6336 H   0  0  0  0  0  0  0  0  0  0  0  0
   -6.8436   -3.3243   -0.2661 H   0  0  0  0  0  0  0  0  0  0  0  0
   -7.6366    1.2216   -0.8449 H   0  0  0  0  0  0  0  0  0  0  0  0
   -8.2066   -0.6669    0.7112 H   0  0  0  0  0  0  0  0  0  0  0  0
   -7.7906    0.9344    1.3833 H   0  0  0  0  0  0  0  0  0  0  0  0
   -6.5680   -0.3436    1.5138 H   0  0  0  0  0  0  0  0  0  0  0  0
   -4.8537    0.7097    0.3759 H   0  0  0  0  0  0  0  0  0  0  0  0
   -5.8201    2.1632    0.4907 H   0  0  0  0  0  0  0  0  0  0  0  0
   -5.2221    1.7511   -1.1308 H   0  0  0  0  0  0  0  0  0  0  0  0
    6.3066    3.4803    0.3755 H   0  0  0  0  0  0  0  0  0  0  0  0
    6.8731    2.3300   -0.9042 H   0  0  0  0  0  0  0  0  0  0  0  0
    8.4205    3.3305    1.5265 H   0  0  0  0  0  0  0  0  0  0  0  0
    8.9618    2.7046   -0.1146 H   0  0  0  0  0  0  0  0  0  0  0  0
    8.6951    0.5113    0.4519 H   0  0  0  0  0  0  0  0  0  0  0  0
    9.2055    1.1239    2.1031 H   0  0  0  0  0  0  0  0  0  0  0  0
    6.8957   -0.2634    1.8903 H   0  0  0  0  0  0  0  0  0  0  0  0
    6.9158    1.3020    2.8021 H   0  0  0  0  0  0  0  0  0  0  0  0
  1  2  1  0
  2  3  1  0
  3  4  2  0
  4  5  1  0
  5  6  2  0
  6  7  1  0
  7  8  2  0
  8  9  1  0
  9 10  1  0
 10 11  2  0
 11 12  1  0
 12 13  2  0
 13 14  1  0
 13 15  1  0
 15 16  1  0
 16 17  1  0
 17 18  2  0
 18 19  1  0
 19 20  2  0
 20 21  1  0
 21 22  2  0
 22 23  1  0
 23 24  2  0
 23 25  2  0
 23 26  1  0
 26 27  1  0
 26 28  1  0
 15 29  2  0
  5 30  1  0
 30 31  1  0
 31 32  1  0
 32 33  1  0
 33 34  1  0
  8  3  1  0
 29 10  1  0
 34 30  1  0
 22 17  1  0
  1 35  1  0
  1 36  1  0
  1 37  1  0
  4 38  1  0
  6 39  1  0
  7 40  1  0
  9 41  1  0
 12 42  1  0
 16 43  1  0
 18 44  1  0
 19 45  1  0
 20 46  1  0
 21 47  1  0
 26 48  1  0
 27 49  1  0
 27 50  1  0
 27 51  1  0
 28 52  1  0
 28 53  1  0
 28 54  1  0
 31 55  1  0
 31 56  1  0
 32 57  1  0
 32 58  1  0
 33 59  1  0
 33 60  1  0
 34 61  1  0
 34 62  1  0
M  END
$$$$
