[H]C([H])=C([H])C(=O)N1C([H])([H])C([H])([H])C([H])([H])[C@@]([H])(n2nc(C#Cc3c([H])c([H])c4nc([H])n(C([H])([H])c5c([H])c([H])c([H])c([H])c5OC([H])([H])[H])c4c3[H])c3c(N([H])[H])nc([H])nc32)C1([H])[H]
     RDKit          3D

 68 73  0  0  0  0  0  0  0  0999 V2000
    3.8267    2.3021    1.0287 C   0  0  0  0  0  0  0  0  0  0  0  0
    4.5802    1.1676    0.7602 O   0  0  0  0  0  0  0  0  0  0  0  0
    5.9310    1.2133    0.5543 C   0  0  0  0  0  0  0  0  0  0  0  0
    6.5322    2.4706    0.6313 C   0  0  0  0  0  0  0  0  0  0  0  0
    7.8710    2.6623    0.4526 C   0  0  0  0  0  0  0  0  0  0  0  0
    8.6695    1.5768    0.1850 C   0  0  0  0  0  0  0  0  0  0  0  0
    8.0904    0.3487    0.1079 C   0  0  0  0  0  0  0  0  0  0  0  0
    6.7113    0.1396    0.2897 C   0  0  0  0  0  0  0  0  0  0  0  0
    6.2242   -1.2373    0.1355 C   0  0  0  0  0  0  0  0  0  0  0  0
    5.7666   -1.4784   -1.2073 N   0  0  0  0  0  0  0  0  0  0  0  0
    6.6123   -1.7005   -2.2655 C   0  0  0  0  0  0  0  0  0  0  0  0
    5.9204   -1.8434   -3.3985 N   0  0  0  0  0  0  0  0  0  0  0  0
    4.6113   -1.7225   -3.1248 C   0  0  0  0  0  0  0  0  0  0  0  0
    3.4789   -1.8014   -3.9031 C   0  0  0  0  0  0  0  0  0  0  0  0
    2.2541   -1.6553   -3.3095 C   0  0  0  0  0  0  0  0  0  0  0  0
    2.1641   -1.4344   -1.9616 C   0  0  0  0  0  0  0  0  0  0  0  0
    3.2812   -1.3545   -1.1867 C   0  0  0  0  0  0  0  0  0  0  0  0
    4.5452   -1.4944   -1.7411 C   0  0  0  0  0  0  0  0  0  0  0  0
    0.8612   -1.2807   -1.3361 C   0  0  0  0  0  0  0  0  0  0  0  0
   -0.2125   -1.1534   -0.8022 C   0  0  0  0  0  0  0  0  0  0  0  0
   -1.4833   -1.0117   -0.1480 C   0  0  0  0  0  0  0  0  0  0  0  0
   -2.7150   -1.0622   -0.6716 N   0  0  0  0  0  0  0  0  0  0  0  0
   -3.6290   -0.8817    0.2833 N   0  0  0  0  0  0  0  0  0  0  0  0
   -5.0608   -0.8709    0.1026 C   0  0  2  0  0  0  0  0  0  0  0  0
   -5.4580   -1.6251   -1.1423 C   0  0  0  0  0  0  0  0  0  0  0  0
   -6.9519   -1.5570   -1.3190 C   0  0  0  0  0  0  0  0  0  0  0  0
   -7.6444   -0.8193   -0.1940 C   0  0  0  0  0  0  0  0  0  0  0  0
   -7.0238    0.4605    0.0510 N   0  0  0  0  0  0  0  0  0  0  0  0
   -5.5872    0.5617   -0.0595 C   0  0  0  0  0  0  0  0  0  0  0  0
   -7.7888    1.5866    0.3902 C   0  0  0  0  0  0  0  0  0  0  0  0
   -9.0501    1.5262    0.4969 O   0  0  0  0  0  0  0  0  0  0  0  0
   -7.1423    2.8676    0.6301 C   0  0  0  0  0  0  0  0  0  0  0  0
   -7.8646    3.9179    0.9480 C   0  0  0  0  0  0  0  0  0  0  0  0
   -3.0356   -0.7058    1.4702 C   0  0  0  0  0  0  0  0  0  0  0  0
   -3.4504   -0.4883    2.7373 N   0  0  0  0  0  0  0  0  0  0  0  0
   -2.5361   -0.3545    3.7176 C   0  0  0  0  0  0  0  0  0  0  0  0
   -1.2105   -0.4324    3.4664 N   0  0  0  0  0  0  0  0  0  0  0  0
   -0.7545   -0.6473    2.2214 C   0  0  0  0  0  0  0  0  0  0  0  0
    0.6413   -0.7349    1.9220 N   0  0  0  0  0  0  0  0  0  0  0  0
   -1.6777   -0.7852    1.2139 C   0  0  0  0  0  0  0  0  0  0  0  0
    2.7454    2.0307    1.1915 H   0  0  0  0  0  0  0  0  0  0  0  0
    4.1373    2.8194    1.9492 H   0  0  0  0  0  0  0  0  0  0  0  0
    3.9212    3.0260    0.1748 H   0  0  0  0  0  0  0  0  0  0  0  0
    5.9297    3.3523    0.8421 H   0  0  0  0  0  0  0  0  0  0  0  0
    8.3613    3.6318    0.5081 H   0  0  0  0  0  0  0  0  0  0  0  0
    9.7554    1.6853    0.0336 H   0  0  0  0  0  0  0  0  0  0  0  0
    8.7301   -0.5149   -0.1054 H   0  0  0  0  0  0  0  0  0  0  0  0
    5.3459   -1.4329    0.8063 H   0  0  0  0  0  0  0  0  0  0  0  0
    7.0644   -1.9431    0.4111 H   0  0  0  0  0  0  0  0  0  0  0  0
    7.6878   -1.7428   -2.1307 H   0  0  0  0  0  0  0  0  0  0  0  0
    3.5797   -1.9759   -4.9581 H   0  0  0  0  0  0  0  0  0  0  0  0
    1.3510   -1.7204   -3.9457 H   0  0  0  0  0  0  0  0  0  0  0  0
    3.1988   -1.1818   -0.0937 H   0  0  0  0  0  0  0  0  0  0  0  0
   -5.5926   -1.3138    0.9815 H   0  0  0  0  0  0  0  0  0  0  0  0
   -5.0703   -2.6729   -1.1270 H   0  0  0  0  0  0  0  0  0  0  0  0
   -4.9561   -1.1329   -2.0226 H   0  0  0  0  0  0  0  0  0  0  0  0
   -7.2505   -1.0871   -2.2916 H   0  0  0  0  0  0  0  0  0  0  0  0
   -7.3402   -2.5935   -1.3195 H   0  0  0  0  0  0  0  0  0  0  0  0
   -8.6871   -0.5940   -0.5542 H   0  0  0  0  0  0  0  0  0  0  0  0
   -7.7393   -1.4400    0.7168 H   0  0  0  0  0  0  0  0  0  0  0  0
   -5.1221    1.2175    0.6988 H   0  0  0  0  0  0  0  0  0  0  0  0
   -5.3233    0.8636   -1.1109 H   0  0  0  0  0  0  0  0  0  0  0  0
   -6.0767    3.0021    0.5580 H   0  0  0  0  0  0  0  0  0  0  0  0
   -7.4148    4.8972    1.1359 H   0  0  0  0  0  0  0  0  0  0  0  0
   -8.9337    3.8226    1.0286 H   0  0  0  0  0  0  0  0  0  0  0  0
   -2.8832   -0.1838    4.7107 H   0  0  0  0  0  0  0  0  0  0  0  0
    1.1574   -1.6238    2.0112 H   0  0  0  0  0  0  0  0  0  0  0  0
    1.1277    0.1360    1.6082 H   0  0  0  0  0  0  0  0  0  0  0  0
  1  2  1  0
  2  3  1  0
  3  4  2  0
  4  5  1  0
  5  6  2  0
  6  7  1  0
  7  8  2  0
  8  9  1  0
  9 10  1  0
 10 11  1  0
 11 12  2  0
 12 13  1  0
 13 14  2  0
 14 15  1  0
 15 16  2  0
 16 17  1  0
 17 18  2  0
 16 19  1  0
 19 20  3  0
 20 21  1  0
 21 22  2  0
 22 23  1  0
 23 24  1  0
 24 25  1  0
 25 26  1  0
 26 27  1  0
 27 28  1  0
 28 29  1  0
 28 30  1  0
 30 31  2  0
 30 32  1  0
 32 33  2  3
 23 34  1  0
 34 35  2  0
 35 36  1  0
 36 37  2  0
 37 38  1  0
 38 39  1  0
 38 40  2  0
  8  3  1  0
 18 10  1  0
 40 21  1  0
 18 13  1  0
 29 24  1  0
 40 34  1  0
  1 41  1  0
  1 42  1  0
  1 43  1  0
  4 44  1  0
  5 45  1  0
  6 46  1  0
  7 47  1  0
  9 48  1  0
  9 49  1  0
 11 50  1  0
 14 51  1  0
 15 52  1  0
 17 53  1  0
 24 54  1  1
 25 55  1  0
 25 56  1  0
 26 57  1  0
 26 58  1  0
 27 59  1  0
 27 60  1  0
 29 61  1  0
 29 62  1  0
 32 63  1  0
 33 64  1  0
 33 65  1  0
 36 66  1  0
 39 67  1  0
 39 68  1  0
M  END
$$$$
[H]C1=C([H])C([H])(N([H])C(=O)N([H])c2nc3c([H])c([H])c(N([H])C(=O)c4c([H])c([H])c([H])c(C#N)c4[H])c([H])c3s2)C([H])([H])C([H])([H])N(C(=O)C([H])([H])C([H])([H])C([H])([H])[H])C1([H])[H]
     RDKit          3D

 62 65  0  0  0  0  0  0  0  0999 V2000
  -10.2287    2.5207    0.1454 C   0  0  0  0  0  0  0  0  0  0  0  0
   -9.9632    1.0345    0.0986 C   0  0  0  0  0  0  0  0  0  0  0  0
   -8.4643    0.8069    0.1255 C   0  0  0  0  0  0  0  0  0  0  0  0
   -8.1834   -0.6406    0.0825 C   0  0  0  0  0  0  0  0  0  0  0  0
   -9.1413   -1.4702    0.0325 O   0  0  0  0  0  0  0  0  0  0  0  0
   -6.8663   -1.1131    0.0967 N   0  0  0  0  0  0  0  0  0  0  0  0
   -6.6928   -2.5392    0.0533 C   0  0  0  0  0  0  0  0  0  0  0  0
   -5.5452   -2.8433   -0.8278 C   0  0  0  0  0  0  0  0  0  0  0  0
   -4.3317   -2.3513   -0.9034 C   0  0  0  0  0  0  0  0  0  0  0  0
   -3.6656   -1.3013   -0.1240 C   0  0  0  0  0  0  0  0  0  0  0  0
   -4.5977   -0.6584    0.8731 C   0  0  0  0  0  0  0  0  0  0  0  0
   -5.8231   -0.1230    0.1559 C   0  0  0  0  0  0  0  0  0  0  0  0
   -2.5293   -1.8912    0.5998 N   0  0  0  0  0  0  0  0  0  0  0  0
   -1.2237   -1.3839    0.3552 C   0  0  0  0  0  0  0  0  0  0  0  0
   -1.0581   -0.4439   -0.4708 O   0  0  0  0  0  0  0  0  0  0  0  0
   -0.0897   -1.9110    1.0212 N   0  0  0  0  0  0  0  0  0  0  0  0
    1.2211   -1.3783    0.7562 C   0  0  0  0  0  0  0  0  0  0  0  0
    1.5883   -0.4153   -0.0580 N   0  0  0  0  0  0  0  0  0  0  0  0
    2.8391   -0.0716   -0.1592 C   0  0  0  0  0  0  0  0  0  0  0  0
    3.3662    0.9333   -0.9838 C   0  0  0  0  0  0  0  0  0  0  0  0
    4.6852    1.2052   -1.0072 C   0  0  0  0  0  0  0  0  0  0  0  0
    5.6301    0.5277   -0.2306 C   0  0  0  0  0  0  0  0  0  0  0  0
    6.9816    0.8770   -0.3411 N   0  0  0  0  0  0  0  0  0  0  0  0
    8.0173    0.4814    0.4968 C   0  0  0  0  0  0  0  0  0  0  0  0
    7.8399   -0.2544    1.4839 O   0  0  0  0  0  0  0  0  0  0  0  0
    9.3962    0.9273    0.2465 C   0  0  0  0  0  0  0  0  0  0  0  0
   10.2751    0.9036    1.3306 C   0  0  0  0  0  0  0  0  0  0  0  0
   11.5751    1.3020    1.1553 C   0  0  0  0  0  0  0  0  0  0  0  0
   11.9793    1.7199   -0.1063 C   0  0  0  0  0  0  0  0  0  0  0  0
   11.1226    1.7457   -1.1751 C   0  0  0  0  0  0  0  0  0  0  0  0
    9.8215    1.3458   -0.9945 C   0  0  0  0  0  0  0  0  0  0  0  0
   11.5461    2.1804   -2.4832 C   0  0  0  0  0  0  0  0  0  0  0  0
   11.8944    2.5150   -3.5354 N   0  0  0  0  0  0  0  0  0  0  0  0
    5.1172   -0.4558    0.5766 C   0  0  0  0  0  0  0  0  0  0  0  0
    3.7448   -0.7468    0.6086 C   0  0  0  0  0  0  0  0  0  0  0  0
    2.7340   -1.8483    1.4395 S   0  0  0  0  0  0  0  0  0  0  0  0
  -11.2026    2.7378   -0.3227 H   0  0  0  0  0  0  0  0  0  0  0  0
   -9.4543    3.1188   -0.3418 H   0  0  0  0  0  0  0  0  0  0  0  0
  -10.3019    2.8035    1.2325 H   0  0  0  0  0  0  0  0  0  0  0  0
  -10.3494    0.6166   -0.8514 H   0  0  0  0  0  0  0  0  0  0  0  0
  -10.3686    0.5101    0.9996 H   0  0  0  0  0  0  0  0  0  0  0  0
   -8.0167    1.2845   -0.7478 H   0  0  0  0  0  0  0  0  0  0  0  0
   -8.0748    1.2033    1.0878 H   0  0  0  0  0  0  0  0  0  0  0  0
   -7.6193   -3.0618   -0.2963 H   0  0  0  0  0  0  0  0  0  0  0  0
   -6.5047   -2.9172    1.0904 H   0  0  0  0  0  0  0  0  0  0  0  0
   -5.7674   -3.6458   -1.5632 H   0  0  0  0  0  0  0  0  0  0  0  0
   -3.7223   -2.8043   -1.6786 H   0  0  0  0  0  0  0  0  0  0  0  0
   -3.2701   -0.4994   -0.8173 H   0  0  0  0  0  0  0  0  0  0  0  0
   -4.8808   -1.4445    1.6058 H   0  0  0  0  0  0  0  0  0  0  0  0
   -4.0754    0.1276    1.4400 H   0  0  0  0  0  0  0  0  0  0  0  0
   -6.1261    0.8037    0.6581 H   0  0  0  0  0  0  0  0  0  0  0  0
   -5.4981    0.0675   -0.9072 H   0  0  0  0  0  0  0  0  0  0  0  0
   -2.7016   -2.6615    1.2709 H   0  0  0  0  0  0  0  0  0  0  0  0
   -0.1651   -2.6829    1.7077 H   0  0  0  0  0  0  0  0  0  0  0  0
    2.7024    1.5253   -1.6348 H   0  0  0  0  0  0  0  0  0  0  0  0
    5.0597    1.9949   -1.6620 H   0  0  0  0  0  0  0  0  0  0  0  0
    7.2575    1.5152   -1.1523 H   0  0  0  0  0  0  0  0  0  0  0  0
    9.9544    0.5797    2.3008 H   0  0  0  0  0  0  0  0  0  0  0  0
   12.3182    1.3139    1.9414 H   0  0  0  0  0  0  0  0  0  0  0  0
   13.0004    2.0380   -0.2630 H   0  0  0  0  0  0  0  0  0  0  0  0
    9.1216    1.3498   -1.8153 H   0  0  0  0  0  0  0  0  0  0  0  0
    5.7139   -1.0584    1.2152 H   0  0  0  0  0  0  0  0  0  0  0  0
  1  2  1  0
  2  3  1  0
  3  4  1  0
  4  5  2  0
  4  6  1  0
  6  7  1  0
  7  8  1  0
  8  9  2  0
  9 10  1  0
 10 11  1  0
 11 12  1  0
 10 13  1  0
 13 14  1  0
 14 15  2  0
 14 16  1  0
 16 17  1  0
 17 18  2  0
 18 19  1  0
 19 20  2  0
 20 21  1  0
 21 22  2  0
 22 23  1  0
 23 24  1  0
 24 25  2  0
 24 26  1  0
 26 27  2  0
 27 28  1  0
 28 29  2  0
 29 30  1  0
 30 31  2  0
 30 32  1  0
 32 33  3  0
 22 34  1  0
 34 35  2  0
 35 36  1  0
 12  6  1  0
 36 17  1  0
 35 19  1  0
 31 26  1  0
  1 37  1  0
  1 38  1  0
  1 39  1  0
  2 40  1  0
  2 41  1  0
  3 42  1  0
  3 43  1  0
  7 44  1  0
  7 45  1  0
  8 46  1  0
  9 47  1  0
 10 48  1  0
 11 49  1  0
 11 50  1  0
 12 51  1  0
 12 52  1  0
 13 53  1  0
 16 54  1  0
 20 55  1  0
 21 56  1  0
 23 57  1  0
 27 58  1  0
 28 59  1  0
 29 60  1  0
 31 61  1  0
 34 62  1  0
M  END
$$$$
[H]/C(C(=O)N([H])c1c(OC([H])([H])C([H])([H])[H])c([H])c2nc([H])c(C#N)c(N([H])c3c([H])c([H])c(OC([H])([H])c4c([H])c([H])c([H])c(F)c4[H])c(Cl)c3[H])c2c1[H])=C(/[H])C([H])([H])N(C([H])([H])[H])C([H])([H])[H]
     RDKit          3D

 70 73  0  0  0  0  0  0  0  0999 V2000
   -5.1148   -4.6635    0.3197 C   0  0  0  0  0  0  0  0  0  0  0  0
   -4.8587   -3.6988   -0.8157 C   0  0  0  0  0  0  0  0  0  0  0  0
   -4.0111   -2.6579   -0.4896 O   0  0  0  0  0  0  0  0  0  0  0  0
   -2.7082   -2.6881   -0.0748 C   0  0  0  0  0  0  0  0  0  0  0  0
   -2.0297   -3.8629    0.0729 C   0  0  0  0  0  0  0  0  0  0  0  0
   -0.7100   -3.8578    0.4944 C   0  0  0  0  0  0  0  0  0  0  0  0
   -0.0344   -5.0152    0.6419 N   0  0  0  0  0  0  0  0  0  0  0  0
    1.2480   -5.0276    1.0495 C   0  0  0  0  0  0  0  0  0  0  0  0
    1.9551   -3.8716    1.3426 C   0  0  0  0  0  0  0  0  0  0  0  0
    3.3313   -3.9333    1.7764 C   0  0  0  0  0  0  0  0  0  0  0  0
    4.4442   -3.9681    2.1321 N   0  0  0  0  0  0  0  0  0  0  0  0
    1.2754   -2.6810    1.1961 C   0  0  0  0  0  0  0  0  0  0  0  0
    1.9277   -1.4546    1.4723 N   0  0  0  0  0  0  0  0  0  0  0  0
    2.6379   -0.7197    0.4813 C   0  0  0  0  0  0  0  0  0  0  0  0
    3.2557    0.4590    0.8226 C   0  0  0  0  0  0  0  0  0  0  0  0
    3.9405    1.1609   -0.1540 C   0  0  0  0  0  0  0  0  0  0  0  0
    4.0287    0.7257   -1.4572 C   0  0  0  0  0  0  0  0  0  0  0  0
    4.7106    1.4352   -2.4097 O   0  0  0  0  0  0  0  0  0  0  0  0
    5.4033    2.6267   -2.2775 C   0  0  0  0  0  0  0  0  0  0  0  0
    6.5475    2.6000   -1.3442 C   0  0  0  0  0  0  0  0  0  0  0  0
    7.1716    1.4051   -1.0556 C   0  0  0  0  0  0  0  0  0  0  0  0
    8.2580    1.3589   -0.1741 C   0  0  0  0  0  0  0  0  0  0  0  0
    8.7187    2.5092    0.4177 C   0  0  0  0  0  0  0  0  0  0  0  0
    8.0861    3.7059    0.1223 C   0  0  0  0  0  0  0  0  0  0  0  0
    8.5370    4.8554    0.7065 F   0  0  0  0  0  0  0  0  0  0  0  0
    7.0221    3.7421   -0.7427 C   0  0  0  0  0  0  0  0  0  0  0  0
    3.4060   -0.4667   -1.8120 C   0  0  0  0  0  0  0  0  0  0  0  0
    3.4789   -1.0832   -3.4673 Cl  0  0  0  0  0  0  0  0  0  0  0  0
    2.7312   -1.1466   -0.8235 C   0  0  0  0  0  0  0  0  0  0  0  0
   -0.0461   -2.6927    0.7745 C   0  0  0  0  0  0  0  0  0  0  0  0
   -0.7671   -1.4954    0.6144 C   0  0  0  0  0  0  0  0  0  0  0  0
   -2.0746   -1.4518    0.1997 C   0  0  0  0  0  0  0  0  0  0  0  0
   -2.8236   -0.2674    0.0323 N   0  0  0  0  0  0  0  0  0  0  0  0
   -2.3403    1.0276    0.2509 C   0  0  0  0  0  0  0  0  0  0  0  0
   -1.1574    1.2950    0.6291 O   0  0  0  0  0  0  0  0  0  0  0  0
   -3.2190    2.1720    0.0423 C   0  0  0  0  0  0  0  0  0  0  0  0
   -4.4522    2.0342   -0.3438 C   0  0  0  0  0  0  0  0  0  0  0  0
   -5.3224    3.2507   -0.5459 C   0  0  0  0  0  0  0  0  0  0  0  0
   -6.4325    3.1040    0.3616 N   0  0  0  0  0  0  0  0  0  0  0  0
   -7.2914    2.0046   -0.0328 C   0  0  0  0  0  0  0  0  0  0  0  0
   -7.1477    4.3497    0.4598 C   0  0  0  0  0  0  0  0  0  0  0  0
   -6.1921   -4.7136    0.5920 H   0  0  0  0  0  0  0  0  0  0  0  0
   -4.7620   -5.6820    0.0274 H   0  0  0  0  0  0  0  0  0  0  0  0
   -4.5053   -4.3250    1.2060 H   0  0  0  0  0  0  0  0  0  0  0  0
   -4.4604   -4.2696   -1.7037 H   0  0  0  0  0  0  0  0  0  0  0  0
   -5.8556   -3.3170   -1.1775 H   0  0  0  0  0  0  0  0  0  0  0  0
   -2.5331   -4.8070   -0.1478 H   0  0  0  0  0  0  0  0  0  0  0  0
    1.7910   -5.9770    1.1668 H   0  0  0  0  0  0  0  0  0  0  0  0
    1.8756   -1.0884    2.4461 H   0  0  0  0  0  0  0  0  0  0  0  0
    3.2088    0.8312    1.8349 H   0  0  0  0  0  0  0  0  0  0  0  0
    4.4079    2.1045    0.1801 H   0  0  0  0  0  0  0  0  0  0  0  0
    5.7860    2.9126   -3.2880 H   0  0  0  0  0  0  0  0  0  0  0  0
    4.6606    3.3975   -1.9140 H   0  0  0  0  0  0  0  0  0  0  0  0
    6.8757    0.4525   -1.4745 H   0  0  0  0  0  0  0  0  0  0  0  0
    8.7397    0.4202    0.0451 H   0  0  0  0  0  0  0  0  0  0  0  0
    9.5560    2.4985    1.1019 H   0  0  0  0  0  0  0  0  0  0  0  0
    6.5719    4.7262   -0.9283 H   0  0  0  0  0  0  0  0  0  0  0  0
    2.2405   -2.0833   -1.0970 H   0  0  0  0  0  0  0  0  0  0  0  0
   -0.1902   -0.6170    0.8504 H   0  0  0  0  0  0  0  0  0  0  0  0
   -3.8370   -0.4073   -0.2874 H   0  0  0  0  0  0  0  0  0  0  0  0
   -2.8492    3.1685    0.2082 H   0  0  0  0  0  0  0  0  0  0  0  0
   -4.9432    1.0992   -0.5441 H   0  0  0  0  0  0  0  0  0  0  0  0
   -4.7831    4.1825   -0.3748 H   0  0  0  0  0  0  0  0  0  0  0  0
   -5.6765    3.1733   -1.6080 H   0  0  0  0  0  0  0  0  0  0  0  0
   -8.2949    2.1439    0.4643 H   0  0  0  0  0  0  0  0  0  0  0  0
   -6.8652    1.0266    0.2181 H   0  0  0  0  0  0  0  0  0  0  0  0
   -7.4809    2.0799   -1.1036 H   0  0  0  0  0  0  0  0  0  0  0  0
   -7.3583    4.7751   -0.5391 H   0  0  0  0  0  0  0  0  0  0  0  0
   -6.5739    5.0469    1.1160 H   0  0  0  0  0  0  0  0  0  0  0  0
   -8.1273    4.1302    0.9409 H   0  0  0  0  0  0  0  0  0  0  0  0
  1  2  1  0
  2  3  1  0
  3  4  1  0
  4  5  2  0
  5  6  1  0
  6  7  2  0
  7  8  1  0
  8  9  2  0
  9 10  1  0
 10 11  3  0
  9 12  1  0
 12 13  1  0
 13 14  1  0
 14 15  2  0
 15 16  1  0
 16 17  2  0
 17 18  1  0
 18 19  1  0
 19 20  1  0
 20 21  2  0
 21 22  1  0
 22 23  2  0
 23 24  1  0
 24 25  1  0
 24 26  2  0
 17 27  1  0
 27 28  1  0
 27 29  2  0
 12 30  2  0
 30 31  1  0
 31 32  2  0
 32 33  1  0
 33 34  1  0
 34 35  2  0
 34 36  1  0
 36 37  2  0
 37 38  1  0
 38 39  1  0
 39 40  1  0
 39 41  1  0
 32  4  1  0
 30  6  1  0
 29 14  1  0
 26 20  1  0
  1 42  1  0
  1 43  1  0
  1 44  1  0
  2 45  1  0
  2 46  1  0
  5 47  1  0
  8 48  1  0
 13 49  1  0
 15 50  1  0
 16 51  1  0
 19 52  1  0
 19 53  1  0
 21 54  1  0
 22 55  1  0
 23 56  1  0
 26 57  1  0
 29 58  1  0
 31 59  1  0
 33 60  1  0
 36 61  1  0
 37 62  1  0
 38 63  1  0
 38 64  1  0
 40 65  1  0
 40 66  1  0
 40 67  1  0
 41 68  1  0
 41 69  1  0
 41 70  1  0
M  END
$$$$
[H]ON([H])C(=O)[C@]1([H])C([H])([H])C([H])([H])[C@@]([H])(N([H])C(=O)c2c(C(=O)c3c([H])c([H])c([H])n(C([H])([H])c4c([H])c([H])c([H])c([H])c4[H])c3=O)c3c(N([H])c4c([H])c([H])c(OC([H])([H])c5c([H])c([H])c([H])c(F)c5[H])c(Cl)c4[H])nc([H])nn3c2[H])C([H])([H])C1([H])[H]
     RDKit          3D

 90 96  0  0  0  0  0  0  0  0999 V2000
  -10.7823   -1.7549    1.4954 O   0  0  0  0  0  0  0  0  0  0  0  0
   -9.4427   -1.8655    1.6285 N   0  0  0  0  0  0  0  0  0  0  0  0
   -8.7024   -2.5430    0.6447 C   0  0  0  0  0  0  0  0  0  0  0  0
   -9.2817   -3.0415   -0.3391 O   0  0  0  0  0  0  0  0  0  0  0  0
   -7.2169   -2.6322    0.8331 C   0  0  1  0  0  0  0  0  0  0  0  0
   -6.6170   -3.3995   -0.3215 C   0  0  0  0  0  0  0  0  0  0  0  0
   -5.1009   -3.4368   -0.1331 C   0  0  0  0  0  0  0  0  0  0  0  0
   -4.6496   -2.0013   -0.3751 C   0  0  1  0  0  0  0  0  0  0  0  0
   -5.1400   -1.1921    0.7860 C   0  0  0  0  0  0  0  0  0  0  0  0
   -6.6082   -1.2831    1.0228 C   0  0  0  0  0  0  0  0  0  0  0  0
   -3.2092   -1.9391   -0.5382 N   0  0  0  0  0  0  0  0  0  0  0  0
   -2.5506   -2.0525   -1.7797 C   0  0  0  0  0  0  0  0  0  0  0  0
   -3.3105   -2.2387   -2.7753 O   0  0  0  0  0  0  0  0  0  0  0  0
   -1.1106   -1.9808   -1.9498 C   0  0  0  0  0  0  0  0  0  0  0  0
   -0.3625   -2.8088   -2.8057 C   0  0  0  0  0  0  0  0  0  0  0  0
    0.9546   -2.5002   -2.6507 N   0  0  0  0  0  0  0  0  0  0  0  0
    2.0220   -3.0147   -3.2395 N   0  0  0  0  0  0  0  0  0  0  0  0
    3.2587   -2.5799   -2.9566 C   0  0  0  0  0  0  0  0  0  0  0  0
    3.4669   -1.6074   -2.0672 N   0  0  0  0  0  0  0  0  0  0  0  0
    2.3753   -1.0609   -1.4459 C   0  0  0  0  0  0  0  0  0  0  0  0
    2.6256   -0.0113   -0.5512 N   0  0  0  0  0  0  0  0  0  0  0  0
    3.9898    0.3192   -0.3167 C   0  0  0  0  0  0  0  0  0  0  0  0
    4.6545   -0.3083    0.7299 C   0  0  0  0  0  0  0  0  0  0  0  0
    5.9838   -0.0949    1.0044 C   0  0  0  0  0  0  0  0  0  0  0  0
    6.7227    0.7612    0.2441 C   0  0  0  0  0  0  0  0  0  0  0  0
    8.0438    1.0388    0.4387 O   0  0  0  0  0  0  0  0  0  0  0  0
    8.7977    0.4237    1.4317 C   0  0  0  0  0  0  0  0  0  0  0  0
    8.8816   -1.0405    1.1472 C   0  0  0  0  0  0  0  0  0  0  0  0
    8.6215   -1.6014   -0.0805 C   0  0  0  0  0  0  0  0  0  0  0  0
    8.6991   -2.9419   -0.2661 C   0  0  0  0  0  0  0  0  0  0  0  0
    9.0494   -3.7557    0.8092 C   0  0  0  0  0  0  0  0  0  0  0  0
    9.3130   -3.2024    2.0431 C   0  0  0  0  0  0  0  0  0  0  0  0
    9.6572   -4.0195    3.0987 F   0  0  0  0  0  0  0  0  0  0  0  0
    9.2340   -1.8563    2.2280 C   0  0  0  0  0  0  0  0  0  0  0  0
    6.0844    1.4076   -0.8106 C   0  0  0  0  0  0  0  0  0  0  0  0
    7.0174    2.5249   -1.8164 Cl  0  0  0  0  0  0  0  0  0  0  0  0
    4.7451    1.1797   -1.0708 C   0  0  0  0  0  0  0  0  0  0  0  0
    1.1033   -1.5159   -1.7423 C   0  0  0  0  0  0  0  0  0  0  0  0
   -0.1832   -1.2009   -1.3142 C   0  0  0  0  0  0  0  0  0  0  0  0
   -0.5209   -0.1412   -0.3681 C   0  0  0  0  0  0  0  0  0  0  0  0
   -0.4730   -0.2587    0.8712 O   0  0  0  0  0  0  0  0  0  0  0  0
   -0.9577    1.1694   -0.9055 C   0  0  0  0  0  0  0  0  0  0  0  0
   -0.4862    1.5925   -2.1362 C   0  0  0  0  0  0  0  0  0  0  0  0
   -0.8608    2.8010   -2.6834 C   0  0  0  0  0  0  0  0  0  0  0  0
   -1.7137    3.6052   -2.0088 C   0  0  0  0  0  0  0  0  0  0  0  0
   -2.1875    3.2031   -0.7953 N   0  0  0  0  0  0  0  0  0  0  0  0
   -3.0975    4.0731   -0.1118 C   0  0  0  0  0  0  0  0  0  0  0  0
   -2.4238    4.9970    0.8005 C   0  0  0  0  0  0  0  0  0  0  0  0
   -1.7776    6.1134    0.3384 C   0  0  0  0  0  0  0  0  0  0  0  0
   -1.1493    6.9850    1.1969 C   0  0  0  0  0  0  0  0  0  0  0  0
   -1.1769    6.7157    2.5686 C   0  0  0  0  0  0  0  0  0  0  0  0
   -1.8198    5.6006    3.0541 C   0  0  0  0  0  0  0  0  0  0  0  0
   -2.4387    4.7502    2.1667 C   0  0  0  0  0  0  0  0  0  0  0  0
   -1.8190    2.0109   -0.2519 C   0  0  0  0  0  0  0  0  0  0  0  0
   -2.2767    1.6899    0.8545 O   0  0  0  0  0  0  0  0  0  0  0  0
  -11.0129   -1.6956    0.5256 H   0  0  0  0  0  0  0  0  0  0  0  0
   -8.9846   -1.4462    2.4450 H   0  0  0  0  0  0  0  0  0  0  0  0
   -6.9780   -3.2280    1.7632 H   0  0  0  0  0  0  0  0  0  0  0  0
   -6.7972   -2.8389   -1.2679 H   0  0  0  0  0  0  0  0  0  0  0  0
   -7.0590   -4.3878   -0.4533 H   0  0  0  0  0  0  0  0  0  0  0  0
   -4.7280   -4.1436   -0.8801 H   0  0  0  0  0  0  0  0  0  0  0  0
   -4.8857   -3.7666    0.8824 H   0  0  0  0  0  0  0  0  0  0  0  0
   -5.0931   -1.7439   -1.3570 H   0  0  0  0  0  0  0  0  0  0  0  0
   -4.6394   -1.6446    1.6975 H   0  0  0  0  0  0  0  0  0  0  0  0
   -4.7740   -0.1363    0.7735 H   0  0  0  0  0  0  0  0  0  0  0  0
   -6.8813   -0.9536    2.0570 H   0  0  0  0  0  0  0  0  0  0  0  0
   -7.1320   -0.5882    0.3350 H   0  0  0  0  0  0  0  0  0  0  0  0
   -2.6601   -1.8191    0.3239 H   0  0  0  0  0  0  0  0  0  0  0  0
   -0.7946   -3.5472   -3.4521 H   0  0  0  0  0  0  0  0  0  0  0  0
    4.1496   -3.0048   -3.4410 H   0  0  0  0  0  0  0  0  0  0  0  0
    1.9351    0.5308   -0.0675 H   0  0  0  0  0  0  0  0  0  0  0  0
    4.0887   -0.9980    1.3499 H   0  0  0  0  0  0  0  0  0  0  0  0
    6.4129   -0.6119    1.8497 H   0  0  0  0  0  0  0  0  0  0  0  0
    9.7965    0.8675    1.5927 H   0  0  0  0  0  0  0  0  0  0  0  0
    8.2970    0.4907    2.4432 H   0  0  0  0  0  0  0  0  0  0  0  0
    8.3471   -0.9722   -0.9278 H   0  0  0  0  0  0  0  0  0  0  0  0
    8.4972   -3.4222   -1.2340 H   0  0  0  0  0  0  0  0  0  0  0  0
    9.1124   -4.8244    0.6702 H   0  0  0  0  0  0  0  0  0  0  0  0
    9.4352   -1.4039    3.1771 H   0  0  0  0  0  0  0  0  0  0  0  0
    4.2441    1.6849   -1.8951 H   0  0  0  0  0  0  0  0  0  0  0  0
    0.1831    0.9875   -2.6996 H   0  0  0  0  0  0  0  0  0  0  0  0
   -0.4803    3.1163   -3.6487 H   0  0  0  0  0  0  0  0  0  0  0  0
   -2.0440    4.5579   -2.3831 H   0  0  0  0  0  0  0  0  0  0  0  0
   -3.8250    3.4211    0.4290 H   0  0  0  0  0  0  0  0  0  0  0  0
   -3.7082    4.5969   -0.8937 H   0  0  0  0  0  0  0  0  0  0  0  0
   -1.7687    6.2996   -0.7186 H   0  0  0  0  0  0  0  0  0  0  0  0
   -0.6494    7.8574    0.7950 H   0  0  0  0  0  0  0  0  0  0  0  0
   -0.6875    7.3818    3.2609 H   0  0  0  0  0  0  0  0  0  0  0  0
   -1.8191    5.4218    4.1362 H   0  0  0  0  0  0  0  0  0  0  0  0
   -2.9505    3.8827    2.5468 H   0  0  0  0  0  0  0  0  0  0  0  0
  1  2  1  0
  2  3  1  0
  3  4  2  0
  3  5  1  0
  5  6  1  0
  6  7  1  0
  7  8  1  0
  8  9  1  0
  9 10  1  0
  8 11  1  0
 11 12  1  0
 12 13  2  0
 12 14  1  0
 14 15  2  0
 15 16  1  0
 16 17  1  0
 17 18  2  0
 18 19  1  0
 19 20  2  0
 20 21  1  0
 21 22  1  0
 22 23  2  0
 23 24  1  0
 24 25  2  0
 25 26  1  0
 26 27  1  0
 27 28  1  0
 28 29  2  0
 29 30  1  0
 30 31  2  0
 31 32  1  0
 32 33  1  0
 32 34  2  0
 25 35  1  0
 35 36  1  0
 35 37  2  0
 20 38  1  0
 38 39  2  0
 39 40  1  0
 40 41  2  0
 40 42  1  0
 42 43  2  0
 43 44  1  0
 44 45  2  0
 45 46  1  0
 46 47  1  0
 47 48  1  0
 48 49  2  0
 49 50  1  0
 50 51  2  0
 51 52  1  0
 52 53  2  0
 46 54  1  0
 54 55  2  0
 10  5  1  0
 39 14  1  0
 54 42  1  0
 38 16  1  0
 53 48  1  0
 37 22  1  0
 34 28  1  0
  1 56  1  0
  2 57  1  0
  5 58  1  1
  6 59  1  0
  6 60  1  0
  7 61  1  0
  7 62  1  0
  8 63  1  6
  9 64  1  0
  9 65  1  0
 10 66  1  0
 10 67  1  0
 11 68  1  0
 15 69  1  0
 18 70  1  0
 21 71  1  0
 23 72  1  0
 24 73  1  0
 27 74  1  0
 27 75  1  0
 29 76  1  0
 30 77  1  0
 31 78  1  0
 34 79  1  0
 37 80  1  0
 43 81  1  0
 44 82  1  0
 45 83  1  0
 47 84  1  0
 47 85  1  0
 49 86  1  0
 50 87  1  0
 51 88  1  0
 52 89  1  0
 53 90  1  0
M  END
$$$$
[H]c1nc(N([H])c2c([H])c(C#CC([H])([H])N([H])[H])n(OC([H])([H])[H])c2[H])c2c(n1)c([H])c([H])n2[H]
     RDKit          3D

 35 37  0  0  0  0  0  0  0  0999 V2000
    2.6261    2.2264    1.8678 C   0  0  0  0  0  0  0  0  0  0  0  0
    2.6021    1.6990    0.5703 O   0  0  0  0  0  0  0  0  0  0  0  0
    1.6738    0.8140    0.1052 N   0  0  0  0  0  0  0  0  0  0  0  0
    0.3460    0.9015    0.2946 C   0  0  0  0  0  0  0  0  0  0  0  0
   -0.2887   -0.1519   -0.3065 C   0  0  0  0  0  0  0  0  0  0  0  0
   -1.6450   -0.5292   -0.4077 N   0  0  0  0  0  0  0  0  0  0  0  0
   -2.7212    0.1940    0.1579 C   0  0  0  0  0  0  0  0  0  0  0  0
   -2.5642    1.3254    0.8568 N   0  0  0  0  0  0  0  0  0  0  0  0
   -3.5966    1.9884    1.3800 C   0  0  0  0  0  0  0  0  0  0  0  0
   -4.8226    1.5131    1.2037 N   0  0  0  0  0  0  0  0  0  0  0  0
   -5.0689    0.3858    0.5164 C   0  0  0  0  0  0  0  0  0  0  0  0
   -6.2152   -0.3124    0.1912 C   0  0  0  0  0  0  0  0  0  0  0  0
   -5.8436   -1.4207   -0.5465 C   0  0  0  0  0  0  0  0  0  0  0  0
   -4.5130   -1.3966   -0.6658 N   0  0  0  0  0  0  0  0  0  0  0  0
   -4.0122   -0.3001   -0.0237 C   0  0  0  0  0  0  0  0  0  0  0  0
    0.7542   -0.8939   -0.8804 C   0  0  0  0  0  0  0  0  0  0  0  0
    1.9596   -0.2797   -0.6143 C   0  0  0  0  0  0  0  0  0  0  0  0
    3.2896   -0.6654   -0.9922 C   0  0  0  0  0  0  0  0  0  0  0  0
    4.4144   -1.0129   -1.3076 C   0  0  0  0  0  0  0  0  0  0  0  0
    5.7738   -1.4334   -1.6628 C   0  0  0  0  0  0  0  0  0  0  0  0
    6.6647   -0.9134   -0.6290 N   0  0  0  0  0  0  0  0  0  0  0  0
    3.1767    1.5484    2.5775 H   0  0  0  0  0  0  0  0  0  0  0  0
    1.6062    2.4598    2.2454 H   0  0  0  0  0  0  0  0  0  0  0  0
    3.2408    3.1640    1.8269 H   0  0  0  0  0  0  0  0  0  0  0  0
   -0.1021    1.6991    0.8435 H   0  0  0  0  0  0  0  0  0  0  0  0
   -1.9054   -1.4155   -0.9414 H   0  0  0  0  0  0  0  0  0  0  0  0
   -3.3740    2.9077    1.9383 H   0  0  0  0  0  0  0  0  0  0  0  0
   -7.2037    0.0006    0.4889 H   0  0  0  0  0  0  0  0  0  0  0  0
   -6.5085   -2.1754   -0.9562 H   0  0  0  0  0  0  0  0  0  0  0  0
   -3.8684   -2.0653   -1.1535 H   0  0  0  0  0  0  0  0  0  0  0  0
    0.6586   -1.8059   -1.4466 H   0  0  0  0  0  0  0  0  0  0  0  0
    5.8964   -2.5252   -1.6660 H   0  0  0  0  0  0  0  0  0  0  0  0
    5.9943   -1.0098   -2.6587 H   0  0  0  0  0  0  0  0  0  0  0  0
    6.1094   -0.9417    0.2775 H   0  0  0  0  0  0  0  0  0  0  0  0
    7.4664   -1.5789   -0.4831 H   0  0  0  0  0  0  0  0  0  0  0  0
  1  2  1  0
  2  3  1  0
  3  4  1  0
  4  5  2  0
  5  6  1  0
  6  7  1  0
  7  8  2  0
  8  9  1  0
  9 10  2  0
 10 11  1  0
 11 12  1  0
 12 13  2  0
 13 14  1  0
 14 15  1  0
  5 16  1  0
 16 17  2  0
 17 18  1  0
 18 19  3  0
 19 20  1  0
 20 21  1  0
 17  3  1  0
 15  7  1  0
 15 11  2  0
  1 22  1  0
  1 23  1  0
  1 24  1  0
  4 25  1  0
  6 26  1  0
  9 27  1  0
 12 28  1  0
 13 29  1  0
 14 30  1  0
 16 31  1  0
 20 32  1  0
 20 33  1  0
 21 34  1  0
 21 35  1  0
M  END
$$$$
[H]OC([H])([H])[C@@]1([H])N(C([H])([H])/C([H])=C(\[H])C(=O)N([H])c2c(OC([H])([H])[H])c([H])c3nc([H])nc(N([H])c4c([H])c([H])c(Oc5nc([H])c([H])c([H])c5[H])c([H])c4Cl)c3c2[H])C([H])([H])C([H])([H])C([H])([H])C1([H])[H]
     RDKit          3D

 72 76  0  0  0  0  0  0  0  0999 V2000
   -1.5498   -0.7734    1.9049 C   0  0  0  0  0  0  0  0  0  0  0  0
   -1.6334    0.4865    1.1251 O   0  0  0  0  0  0  0  0  0  0  0  0
   -0.4883    0.5905    0.3665 C   0  0  0  0  0  0  0  0  0  0  0  0
    0.4369   -0.4718    0.3772 C   0  0  0  0  0  0  0  0  0  0  0  0
    1.6707   -0.1951   -0.2702 C   0  0  0  0  0  0  0  0  0  0  0  0
    2.5339   -1.1628   -0.2304 N   0  0  0  0  0  0  0  0  0  0  0  0
    3.7223   -0.9093   -0.6785 C   0  0  0  0  0  0  0  0  0  0  0  0
    4.1489    0.2585   -1.1543 N   0  0  0  0  0  0  0  0  0  0  0  0
    3.2056    1.1859   -1.1782 C   0  0  0  0  0  0  0  0  0  0  0  0
    3.7007    2.6188   -0.9633 N   0  0  0  0  0  0  0  0  0  0  0  0
    5.0944    2.5815   -0.5350 C   0  0  0  0  0  0  0  0  0  0  0  0
    5.2639    1.4978    0.4171 C   0  0  0  0  0  0  0  0  0  0  0  0
    6.5921    1.1049    0.7309 C   0  0  0  0  0  0  0  0  0  0  0  0
    7.6786    1.7717    0.1159 C   0  0  0  0  0  0  0  0  0  0  0  0
    8.8953    1.1919    0.5472 O   0  0  0  0  0  0  0  0  0  0  0  0
    8.7970   -0.2478    0.3808 C   0  0  0  0  0  0  0  0  0  0  0  0
    8.3995   -0.8014   -0.7681 C   0  0  0  0  0  0  0  0  0  0  0  0
    8.2407   -2.1730   -0.9571 C   0  0  0  0  0  0  0  0  0  0  0  0
    8.5390   -2.9953    0.1360 C   0  0  0  0  0  0  0  0  0  0  0  0
    8.9964   -2.3542    1.3393 C   0  0  0  0  0  0  0  0  0  0  0  0
    9.1049   -1.0646    1.4235 N   0  0  0  0  0  0  0  0  0  0  0  0
    7.4057    2.6919   -0.6999 C   0  0  0  0  0  0  0  0  0  0  0  0
    6.0977    3.1541   -1.0705 C   0  0  0  0  0  0  0  0  0  0  0  0
    5.9303    4.5500   -2.0905 Cl  0  0  0  0  0  0  0  0  0  0  0  0
    1.8373    1.0976   -0.8119 C   0  0  0  0  0  0  0  0  0  0  0  0
    0.8926    2.0107   -0.8076 C   0  0  0  0  0  0  0  0  0  0  0  0
   -0.3155    1.8781   -0.2867 C   0  0  0  0  0  0  0  0  0  0  0  0
   -1.5733    2.6208   -0.3369 N   0  0  0  0  0  0  0  0  0  0  0  0
   -2.4805    1.8812   -1.0721 C   0  0  0  0  0  0  0  0  0  0  0  0
   -1.3165    1.0394   -1.7906 O   0  0  0  0  0  0  0  0  0  0  0  0
   -3.4523    1.1491   -1.7948 C   0  0  0  0  0  0  0  0  0  0  0  0
   -4.6305    1.1439   -1.3305 C   0  0  0  0  0  0  0  0  0  0  0  0
   -5.8563    0.4966   -1.6651 C   0  0  0  0  0  0  0  0  0  0  0  0
   -6.1641   -0.2722   -0.4647 N   0  0  0  0  0  0  0  0  0  0  0  0
   -6.5438    0.5048    0.6301 C   0  0  0  0  0  0  0  0  0  0  0  0
   -7.8505    0.0108    1.2460 C   0  0  0  0  0  0  0  0  0  0  0  0
   -7.7231   -1.4391    1.5621 C   0  0  0  0  0  0  0  0  0  0  0  0
   -6.5335   -2.1352    0.9827 C   0  0  0  0  0  0  0  0  0  0  0  0
   -6.1992   -1.6446   -0.4532 C   0  0  1  0  0  0  0  0  0  0  0  0
   -7.2840   -2.2186   -1.3898 C   0  0  0  0  0  0  0  0  0  0  0  0
   -7.1321   -3.6189   -1.2905 O   0  0  0  0  0  0  0  0  0  0  0  0
   -0.7367   -0.0828    2.7760 H   0  0  0  0  0  0  0  0  0  0  0  0
   -0.7788   -1.4184    1.7510 H   0  0  0  0  0  0  0  0  0  0  0  0
   -2.3260   -0.8312    2.6025 H   0  0  0  0  0  0  0  0  0  0  0  0
    0.2906   -1.4276    0.7131 H   0  0  0  0  0  0  0  0  0  0  0  0
    4.4678   -1.7502   -0.7362 H   0  0  0  0  0  0  0  0  0  0  0  0
    3.1248    3.4296   -1.0355 H   0  0  0  0  0  0  0  0  0  0  0  0
    4.4480    1.1590    0.9678 H   0  0  0  0  0  0  0  0  0  0  0  0
    6.8029    0.3394    1.4392 H   0  0  0  0  0  0  0  0  0  0  0  0
    8.1083   -0.2206   -1.6500 H   0  0  0  0  0  0  0  0  0  0  0  0
    7.9213   -2.6060   -1.8472 H   0  0  0  0  0  0  0  0  0  0  0  0
    8.4588   -4.0601    0.0798 H   0  0  0  0  0  0  0  0  0  0  0  0
    9.1626   -2.9979    2.1378 H   0  0  0  0  0  0  0  0  0  0  0  0
    8.2478    3.2840   -1.2163 H   0  0  0  0  0  0  0  0  0  0  0  0
    1.1720    2.9905   -1.2440 H   0  0  0  0  0  0  0  0  0  0  0  0
   -1.6927    3.5029    0.0754 H   0  0  0  0  0  0  0  0  0  0  0  0
   -3.2499    0.5702   -2.6693 H   0  0  0  0  0  0  0  0  0  0  0  0
   -4.7411    1.8813   -0.4477 H   0  0  0  0  0  0  0  0  0  0  0  0
   -6.7278    1.1592   -1.9107 H   0  0  0  0  0  0  0  0  0  0  0  0
   -5.6648   -0.2162   -2.4578 H   0  0  0  0  0  0  0  0  0  0  0  0
   -5.8167    0.4978    1.4422 H   0  0  0  0  0  0  0  0  0  0  0  0
   -6.5985    1.5742    0.3089 H   0  0  0  0  0  0  0  0  0  0  0  0
   -8.0785    0.6426    2.1053 H   0  0  0  0  0  0  0  0  0  0  0  0
   -8.6631    0.1828    0.4987 H   0  0  0  0  0  0  0  0  0  0  0  0
   -8.6773   -1.9809    1.1680 H   0  0  0  0  0  0  0  0  0  0  0  0
   -7.7144   -1.5772    2.6638 H   0  0  0  0  0  0  0  0  0  0  0  0
   -6.6837   -3.2085    0.9931 H   0  0  0  0  0  0  0  0  0  0  0  0
   -5.6566   -1.9181    1.6097 H   0  0  0  0  0  0  0  0  0  0  0  0
   -5.2042   -2.1386   -0.6969 H   0  0  0  0  0  0  0  0  0  0  0  0
   -7.1251   -1.9453   -2.4008 H   0  0  0  0  0  0  0  0  0  0  0  0
   -8.2809   -1.9992   -1.0599 H   0  0  0  0  0  0  0  0  0  0  0  0
   -6.2459   -3.8745   -1.0527 H   0  0  0  0  0  0  0  0  0  0  0  0
  1  2  1  0
  2  3  1  0
  3  4  2  0
  4  5  1  0
  5  6  2  0
  6  7  1  0
  7  8  2  0
  8  9  1  0
  9 10  1  0
 10 11  1  0
 11 12  2  0
 12 13  1  0
 13 14  2  0
 14 15  1  0
 15 16  1  0
 16 17  2  0
 17 18  1  0
 18 19  2  0
 19 20  1  0
 20 21  2  0
 14 22  1  0
 22 23  2  0
 23 24  1  0
  9 25  2  0
 25 26  1  0
 26 27  2  0
 27 28  1  0
 28 29  1  0
 29 30  2  0
 29 31  1  0
 31 32  2  0
 32 33  1  0
 33 34  1  0
 34 35  1  0
 35 36  1  0
 36 37  1  0
 37 38  1  0
 38 39  1  0
 39 40  1  0
 40 41  1  0
 27  3  1  0
 39 34  1  0
 25  5  1  0
 23 11  1  0
 21 16  1  0
  1 42  1  0
  1 43  1  0
  1 44  1  0
  4 45  1  0
  7 46  1  0
 10 47  1  0
 12 48  1  0
 13 49  1  0
 17 50  1  0
 18 51  1  0
 19 52  1  0
 20 53  1  0
 22 54  1  0
 26 55  1  0
 28 56  1  0
 31 57  1  0
 32 58  1  0
 33 59  1  0
 33 60  1  0
 35 61  1  0
 35 62  1  0
 36 63  1  0
 36 64  1  0
 37 65  1  0
 37 66  1  0
 38 67  1  0
 38 68  1  0
 39 69  1  6
 40 70  1  0
 40 71  1  0
 41 72  1  0
M  END
$$$$
[H]OC(=O)/C(=C(/[H])c1oc(-c2c([H])c([H])c3nc([H])nc(N([H])c4c([H])c([H])c(OC([H])([H])c5c([H])c([H])c([H])c([H])c5[H])c(Cl)c4[H])c3c2[H])c([H])c1[H])C([H])([H])C([H])([H])C([H])([H])C([H])([H])C([H])([H])S[H]
     RDKit          3D

 72 76  0  0  0  0  0  0  0  0999 V2000
   -7.6996   -4.9627    1.1580 S   0  0  0  0  0  0  0  0  0  0  0  0
   -8.1128   -3.9621   -0.3313 C   0  0  0  0  0  0  0  0  0  0  0  0
   -8.8643   -2.7077    0.1097 C   0  0  0  0  0  0  0  0  0  0  0  0
   -7.9154   -1.9561    1.0269 C   0  0  0  0  0  0  0  0  0  0  0  0
   -8.5877   -0.6913    1.5343 C   0  0  0  0  0  0  0  0  0  0  0  0
   -7.6593    0.0678    2.4241 C   0  0  0  0  0  0  0  0  0  0  0  0
   -6.4098    0.5333    1.6836 C   0  0  0  0  0  0  0  0  0  0  0  0
   -5.2472    0.0421    1.9893 C   0  0  0  0  0  0  0  0  0  0  0  0
   -3.9428    0.3355    1.4212 C   0  0  0  0  0  0  0  0  0  0  0  0
   -2.7652    0.4136    2.2250 C   0  0  0  0  0  0  0  0  0  0  0  0
   -1.7178    0.6997    1.3865 C   0  0  0  0  0  0  0  0  0  0  0  0
   -2.2449    0.7921    0.1163 C   0  0  0  0  0  0  0  0  0  0  0  0
   -3.4995    0.5723    0.2351 O   0  0  0  0  0  0  0  0  0  0  0  0
   -1.4528    1.0975   -1.0938 C   0  0  0  0  0  0  0  0  0  0  0  0
   -2.0033    1.2997   -2.3295 C   0  0  0  0  0  0  0  0  0  0  0  0
   -1.2804    1.6092   -3.4460 C   0  0  0  0  0  0  0  0  0  0  0  0
    0.0973    1.7263   -3.3189 C   0  0  0  0  0  0  0  0  0  0  0  0
    0.8441    2.0544   -4.3891 N   0  0  0  0  0  0  0  0  0  0  0  0
    2.1710    2.1882   -4.2672 C   0  0  0  0  0  0  0  0  0  0  0  0
    2.7899    1.9946   -3.0643 N   0  0  0  0  0  0  0  0  0  0  0  0
    2.1079    1.6641   -1.9525 C   0  0  0  0  0  0  0  0  0  0  0  0
    2.7454    1.3852   -0.7313 N   0  0  0  0  0  0  0  0  0  0  0  0
    4.1230    1.5434   -0.4682 C   0  0  0  0  0  0  0  0  0  0  0  0
    4.7310    0.6250    0.3589 C   0  0  0  0  0  0  0  0  0  0  0  0
    6.0513    0.7250    0.7320 C   0  0  0  0  0  0  0  0  0  0  0  0
    6.8108    1.7836    0.2679 C   0  0  0  0  0  0  0  0  0  0  0  0
    8.1585    1.8893    0.6674 O   0  0  0  0  0  0  0  0  0  0  0  0
    8.8372    0.9843    1.4532 C   0  0  0  0  0  0  0  0  0  0  0  0
    9.0219   -0.3688    0.8888 C   0  0  0  0  0  0  0  0  0  0  0  0
    9.3623   -1.4572    1.6948 C   0  0  0  0  0  0  0  0  0  0  0  0
    9.5605   -2.7144    1.1864 C   0  0  0  0  0  0  0  0  0  0  0  0
    9.4281   -2.9585   -0.1580 C   0  0  0  0  0  0  0  0  0  0  0  0
    9.0927   -1.9047   -0.9821 C   0  0  0  0  0  0  0  0  0  0  0  0
    8.8945   -0.6325   -0.4579 C   0  0  0  0  0  0  0  0  0  0  0  0
    6.2399    2.7171   -0.5592 C   0  0  0  0  0  0  0  0  0  0  0  0
    7.1548    4.0801   -1.1874 Cl  0  0  0  0  0  0  0  0  0  0  0  0
    4.8945    2.5788   -0.9160 C   0  0  0  0  0  0  0  0  0  0  0  0
    0.7282    1.5293   -2.0810 C   0  0  0  0  0  0  0  0  0  0  0  0
   -0.0756    1.2188   -1.0008 C   0  0  0  0  0  0  0  0  0  0  0  0
   -6.5630    1.5553    0.6805 C   0  0  0  0  0  0  0  0  0  0  0  0
   -5.5881    2.1548   -0.0656 O   0  0  0  0  0  0  0  0  0  0  0  0
   -7.7622    1.9566    0.4579 O   0  0  0  0  0  0  0  0  0  0  0  0
   -6.9281   -6.0644    0.7398 H   0  0  0  0  0  0  0  0  0  0  0  0
   -7.1469   -3.6989   -0.8172 H   0  0  0  0  0  0  0  0  0  0  0  0
   -8.7217   -4.6016   -0.9783 H   0  0  0  0  0  0  0  0  0  0  0  0
   -9.0933   -2.1009   -0.7867 H   0  0  0  0  0  0  0  0  0  0  0  0
   -9.7817   -3.0362    0.6245 H   0  0  0  0  0  0  0  0  0  0  0  0
   -6.9605   -1.7249    0.5385 H   0  0  0  0  0  0  0  0  0  0  0  0
   -7.6979   -2.6504    1.8858 H   0  0  0  0  0  0  0  0  0  0  0  0
   -9.0079   -0.1228    0.6969 H   0  0  0  0  0  0  0  0  0  0  0  0
   -9.4624   -1.0130    2.1463 H   0  0  0  0  0  0  0  0  0  0  0  0
   -8.1244    1.0343    2.7625 H   0  0  0  0  0  0  0  0  0  0  0  0
   -7.3555   -0.5166    3.2925 H   0  0  0  0  0  0  0  0  0  0  0  0
   -5.2700   -0.7104    2.8133 H   0  0  0  0  0  0  0  0  0  0  0  0
   -2.7622    0.2669    3.2777 H   0  0  0  0  0  0  0  0  0  0  0  0
   -0.6584    0.8317    1.6859 H   0  0  0  0  0  0  0  0  0  0  0  0
   -3.0873    1.2059   -2.4224 H   0  0  0  0  0  0  0  0  0  0  0  0
   -1.7346    1.7722   -4.4287 H   0  0  0  0  0  0  0  0  0  0  0  0
    2.7276    2.4560   -5.1567 H   0  0  0  0  0  0  0  0  0  0  0  0
    2.1881    1.0219    0.0927 H   0  0  0  0  0  0  0  0  0  0  0  0
    4.1463   -0.2290    0.7454 H   0  0  0  0  0  0  0  0  0  0  0  0
    6.4779   -0.0098    1.3879 H   0  0  0  0  0  0  0  0  0  0  0  0
    9.8187    1.4413    1.7365 H   0  0  0  0  0  0  0  0  0  0  0  0
    8.3394    0.8158    2.4569 H   0  0  0  0  0  0  0  0  0  0  0  0
    9.4607   -1.2129    2.7601 H   0  0  0  0  0  0  0  0  0  0  0  0
    9.8225   -3.5142    1.8633 H   0  0  0  0  0  0  0  0  0  0  0  0
    9.5851   -3.9686   -0.5783 H   0  0  0  0  0  0  0  0  0  0  0  0
    8.9839   -2.0808   -2.0527 H   0  0  0  0  0  0  0  0  0  0  0  0
    8.6326    0.1711   -1.1242 H   0  0  0  0  0  0  0  0  0  0  0  0
    4.4426    3.3056   -1.5631 H   0  0  0  0  0  0  0  0  0  0  0  0
    0.3460    1.0577   -0.0211 H   0  0  0  0  0  0  0  0  0  0  0  0
   -5.6321    2.3742   -1.0551 H   0  0  0  0  0  0  0  0  0  0  0  0
  1  2  1  0
  2  3  1  0
  3  4  1  0
  4  5  1  0
  5  6  1  0
  6  7  1  0
  7  8  2  0
  8  9  1  0
  9 10  2  0
 10 11  1  0
 11 12  2  0
 12 13  1  0
 12 14  1  0
 14 15  2  0
 15 16  1  0
 16 17  2  0
 17 18  1  0
 18 19  2  0
 19 20  1  0
 20 21  2  0
 21 22  1  0
 22 23  1  0
 23 24  2  0
 24 25  1  0
 25 26  2  0
 26 27  1  0
 27 28  1  0
 28 29  1  0
 29 30  2  0
 30 31  1  0
 31 32  2  0
 32 33  1  0
 33 34  2  0
 26 35  1  0
 35 36  1  0
 35 37  2  0
 21 38  1  0
 38 39  2  0
  7 40  1  0
 40 41  1  0
 40 42  2  0
 13  9  1  0
 39 14  1  0
 38 17  1  0
 37 23  1  0
 34 29  1  0
  1 43  1  0
  2 44  1  0
  2 45  1  0
  3 46  1  0
  3 47  1  0
  4 48  1  0
  4 49  1  0
  5 50  1  0
  5 51  1  0
  6 52  1  0
  6 53  1  0
  8 54  1  0
 10 55  1  0
 11 56  1  0
 15 57  1  0
 16 58  1  0
 19 59  1  0
 22 60  1  0
 24 61  1  0
 25 62  1  0
 28 63  1  0
 28 64  1  0
 30 65  1  0
 31 66  1  0
 32 67  1  0
 33 68  1  0
 34 69  1  0
 37 70  1  0
 39 71  1  0
 41 72  1  0
M  END
$$$$
[H]/C(C(=O)N([H])c1c(OC([H])([H])[H])c([H])c2nc([H])nc(N([H])c3c([H])c([H])c(F)c(Cl)c3[H])c2c1[H])=C(/[H])C([H])([H])N1C([H])([H])C([H])([H])C([H])([H])C1([H])[H]
     RDKit          3D

 55 58  0  0  0  0  0  0  0  0999 V2000
   -0.2230    4.3570    3.4188 C   0  0  0  0  0  0  0  0  0  0  0  0
    0.1301    3.1944    2.7017 O   0  0  0  0  0  0  0  0  0  0  0  0
   -0.9093    2.5322    2.0136 C   0  0  0  0  0  0  0  0  0  0  0  0
   -2.1882    3.0165    2.0571 C   0  0  0  0  0  0  0  0  0  0  0  0
   -3.1966    2.3637    1.3823 C   0  0  0  0  0  0  0  0  0  0  0  0
   -4.4660    2.8170    1.4090 N   0  0  0  0  0  0  0  0  0  0  0  0
   -5.4654    2.2010    0.7634 C   0  0  0  0  0  0  0  0  0  0  0  0
   -5.1773    1.0982    0.0724 N   0  0  0  0  0  0  0  0  0  0  0  0
   -3.9645    0.5367   -0.0412 C   0  0  0  0  0  0  0  0  0  0  0  0
   -3.7491   -0.6102   -0.8248 N   0  0  0  0  0  0  0  0  0  0  0  0
   -4.8098   -1.3016   -1.4820 C   0  0  0  0  0  0  0  0  0  0  0  0
   -4.5201   -1.9436   -2.7036 C   0  0  0  0  0  0  0  0  0  0  0  0
   -5.4313   -2.6654   -3.4211 C   0  0  0  0  0  0  0  0  0  0  0  0
   -6.7065   -2.7633   -2.9080 C   0  0  0  0  0  0  0  0  0  0  0  0
   -7.6695   -3.4746   -3.5816 F   0  0  0  0  0  0  0  0  0  0  0  0
   -7.0449   -2.1606   -1.7252 C   0  0  0  0  0  0  0  0  0  0  0  0
   -8.6447   -2.2525   -1.0306 Cl  0  0  0  0  0  0  0  0  0  0  0  0
   -6.0889   -1.4294   -1.0146 C   0  0  0  0  0  0  0  0  0  0  0  0
   -2.9494    1.2118    0.6486 C   0  0  0  0  0  0  0  0  0  0  0  0
   -1.6678    0.7254    0.6044 C   0  0  0  0  0  0  0  0  0  0  0  0
   -0.6425    1.3641    1.2733 C   0  0  0  0  0  0  0  0  0  0  0  0
    0.6811    0.9117    1.2636 N   0  0  0  0  0  0  0  0  0  0  0  0
    1.2109   -0.2157    0.5995 C   0  0  0  0  0  0  0  0  0  0  0  0
    0.5504   -0.9942   -0.0971 O   0  0  0  0  0  0  0  0  0  0  0  0
    2.6596   -0.5293    0.7167 C   0  0  0  0  0  0  0  0  0  0  0  0
    3.2159   -1.5501    0.1328 C   0  0  0  0  0  0  0  0  0  0  0  0
    4.6406   -1.8547    0.2509 C   0  0  0  0  0  0  0  0  0  0  0  0
    5.3366   -1.8624   -1.0121 N   0  0  0  0  0  0  0  0  0  0  0  0
    6.7413   -2.1760   -0.8592 C   0  0  0  0  0  0  0  0  0  0  0  0
    7.5121   -0.8996   -0.8963 C   0  0  0  0  0  0  0  0  0  0  0  0
    6.5199    0.1837   -1.1492 C   0  0  0  0  0  0  0  0  0  0  0  0
    5.2767   -0.5293   -1.5730 C   0  0  0  0  0  0  0  0  0  0  0  0
    0.5968    4.7750    4.0026 H   0  0  0  0  0  0  0  0  0  0  0  0
   -0.7323    5.1172    2.7720 H   0  0  0  0  0  0  0  0  0  0  0  0
   -1.0107    4.0343    4.1578 H   0  0  0  0  0  0  0  0  0  0  0  0
   -2.4143    3.9130    2.6204 H   0  0  0  0  0  0  0  0  0  0  0  0
   -6.4859    2.5373    0.7656 H   0  0  0  0  0  0  0  0  0  0  0  0
   -2.7889   -1.0326   -0.9784 H   0  0  0  0  0  0  0  0  0  0  0  0
   -3.5061   -1.8583   -3.0991 H   0  0  0  0  0  0  0  0  0  0  0  0
   -5.1980   -3.1573   -4.3627 H   0  0  0  0  0  0  0  0  0  0  0  0
   -6.3654   -0.9746   -0.0633 H   0  0  0  0  0  0  0  0  0  0  0  0
   -1.4937   -0.1704    0.0332 H   0  0  0  0  0  0  0  0  0  0  0  0
    1.3874    1.5088    1.8439 H   0  0  0  0  0  0  0  0  0  0  0  0
    3.2719    0.1246    1.3156 H   0  0  0  0  0  0  0  0  0  0  0  0
    2.6012   -2.2040   -0.4670 H   0  0  0  0  0  0  0  0  0  0  0  0
    5.1720   -1.0910    0.8913 H   0  0  0  0  0  0  0  0  0  0  0  0
    4.8125   -2.8521    0.7274 H   0  0  0  0  0  0  0  0  0  0  0  0
    6.9540   -2.7946    0.0309 H   0  0  0  0  0  0  0  0  0  0  0  0
    7.0741   -2.7899   -1.7443 H   0  0  0  0  0  0  0  0  0  0  0  0
    8.2901   -0.8587   -1.6868 H   0  0  0  0  0  0  0  0  0  0  0  0
    8.0321   -0.7346    0.0802 H   0  0  0  0  0  0  0  0  0  0  0  0
    6.8472    0.8865   -1.9541 H   0  0  0  0  0  0  0  0  0  0  0  0
    6.3611    0.8099   -0.2417 H   0  0  0  0  0  0  0  0  0  0  0  0
    5.2331   -0.5391   -2.6802 H   0  0  0  0  0  0  0  0  0  0  0  0
    4.4013    0.0496   -1.2192 H   0  0  0  0  0  0  0  0  0  0  0  0
  1  2  1  0
  2  3  1  0
  3  4  2  0
  4  5  1  0
  5  6  2  0
  6  7  1  0
  7  8  2  0
  8  9  1  0
  9 10  1  0
 10 11  1  0
 11 12  2  0
 12 13  1  0
 13 14  2  0
 14 15  1  0
 14 16  1  0
 16 17  1  0
 16 18  2  0
  9 19  2  0
 19 20  1  0
 20 21  2  0
 21 22  1  0
 22 23  1  0
 23 24  2  0
 23 25  1  0
 25 26  2  0
 26 27  1  0
 27 28  1  0
 28 29  1  0
 29 30  1  0
 30 31  1  0
 31 32  1  0
 21  3  1  0
 32 28  1  0
 19  5  1  0
 18 11  1  0
  1 33  1  0
  1 34  1  0
  1 35  1  0
  4 36  1  0
  7 37  1  0
 10 38  1  0
 12 39  1  0
 13 40  1  0
 18 41  1  0
 20 42  1  0
 22 43  1  0
 25 44  1  0
 26 45  1  0
 27 46  1  0
 27 47  1  0
 29 48  1  0
 29 49  1  0
 30 50  1  0
 30 51  1  0
 31 52  1  0
 31 53  1  0
 32 54  1  0
 32 55  1  0
M  END
$$$$
[H]c1nc(N([H])c2c([H])c([H])c(OC([H])([H])C3([H])OC([H])([H])C([H])([H])N([H])C3([H])[H])c(C(F)(F)F)c2[H])c2c([H])c(O[C@@]([H])(OC([H])([H])c3c([H])c([H])c([H])c(F)c3[H])C([H])([H])[H])c([H])c([H])c2n1
     RDKit          3D

 69 73  0  0  0  0  0  0  0  0999 V2000
   -6.1082   -1.1156   -1.5195 C   0  0  0  0  0  0  0  0  0  0  0  0
   -5.6766    0.1376   -0.7704 C   0  0  2  0  0  0  0  0  0  0  0  0
   -6.0652    1.2844   -1.4597 O   0  0  0  0  0  0  0  0  0  0  0  0
   -6.9902    2.0662   -0.8333 C   0  0  0  0  0  0  0  0  0  0  0  0
   -8.2919    1.4137   -0.5560 C   0  0  0  0  0  0  0  0  0  0  0  0
   -8.6201    1.1172    0.7415 C   0  0  0  0  0  0  0  0  0  0  0  0
   -9.8230    0.5146    0.9696 C   0  0  0  0  0  0  0  0  0  0  0  0
  -10.7167    0.1919   -0.0330 C   0  0  0  0  0  0  0  0  0  0  0  0
  -10.3436    0.5109   -1.3395 C   0  0  0  0  0  0  0  0  0  0  0  0
  -11.2244    0.1901   -2.3166 F   0  0  0  0  0  0  0  0  0  0  0  0
   -9.1407    1.1173   -1.6008 C   0  0  0  0  0  0  0  0  0  0  0  0
   -4.2931    0.0871   -0.5656 O   0  0  0  0  0  0  0  0  0  0  0  0
   -3.6526    0.0312    0.6499 C   0  0  0  0  0  0  0  0  0  0  0  0
   -4.2696    0.0156    1.8724 C   0  0  0  0  0  0  0  0  0  0  0  0
   -3.5224   -0.0429    3.0489 C   0  0  0  0  0  0  0  0  0  0  0  0
   -2.1400   -0.0877    3.0352 C   0  0  0  0  0  0  0  0  0  0  0  0
   -1.4434   -0.1446    4.1952 N   0  0  0  0  0  0  0  0  0  0  0  0
   -0.0962   -0.1886    4.1990 C   0  0  0  0  0  0  0  0  0  0  0  0
    0.5264   -0.1744    3.0167 N   0  0  0  0  0  0  0  0  0  0  0  0
   -0.1053   -0.1189    1.8248 C   0  0  0  0  0  0  0  0  0  0  0  0
    0.5808   -0.1270    0.6013 N   0  0  0  0  0  0  0  0  0  0  0  0
    1.9855   -0.1461    0.3918 C   0  0  0  0  0  0  0  0  0  0  0  0
    2.9292    0.2120    1.3170 C   0  0  0  0  0  0  0  0  0  0  0  0
    4.3014    0.1356    1.0305 C   0  0  0  0  0  0  0  0  0  0  0  0
    4.7614   -0.2988   -0.1853 C   0  0  0  0  0  0  0  0  0  0  0  0
    6.1321   -0.3721   -0.4637 O   0  0  0  0  0  0  0  0  0  0  0  0
    7.0173    0.0112    0.5442 C   0  0  0  0  0  0  0  0  0  0  0  0
    8.4578   -0.0902    0.1721 C   0  0  0  0  0  0  0  0  0  0  0  0
    8.8673    0.9839   -0.8222 C   0  0  0  0  0  0  0  0  0  0  0  0
   10.0665    0.5660   -1.5026 N   0  0  0  0  0  0  0  0  0  0  0  0
    9.7166   -0.5861   -2.3185 C   0  0  0  0  0  0  0  0  0  0  0  0
    8.9546   -1.5933   -1.5237 C   0  0  0  0  0  0  0  0  0  0  0  0
    8.8693   -1.3503   -0.1776 O   0  0  0  0  0  0  0  0  0  0  0  0
    3.8193   -0.6596   -1.1202 C   0  0  0  0  0  0  0  0  0  0  0  0
    2.4766   -0.5877   -0.8462 C   0  0  0  0  0  0  0  0  0  0  0  0
    4.2939   -1.1339   -2.4460 C   0  0  0  0  0  0  0  0  0  0  0  0
    5.0717   -2.2530   -2.2531 F   0  0  0  0  0  0  0  0  0  0  0  0
    3.2523   -1.4595   -3.2586 F   0  0  0  0  0  0  0  0  0  0  0  0
    5.0960   -0.1815   -3.0362 F   0  0  0  0  0  0  0  0  0  0  0  0
   -1.4977   -0.0729    1.8119 C   0  0  0  0  0  0  0  0  0  0  0  0
   -2.2464   -0.0146    0.6531 C   0  0  0  0  0  0  0  0  0  0  0  0
   -6.9209   -1.5963   -0.9444 H   0  0  0  0  0  0  0  0  0  0  0  0
   -5.3115   -1.8560   -1.6346 H   0  0  0  0  0  0  0  0  0  0  0  0
   -6.5641   -0.7924   -2.4798 H   0  0  0  0  0  0  0  0  0  0  0  0
   -6.2365    0.1529    0.1776 H   0  0  0  0  0  0  0  0  0  0  0  0
   -7.2248    3.0039   -1.3758 H   0  0  0  0  0  0  0  0  0  0  0  0
   -6.5274    2.4236    0.1337 H   0  0  0  0  0  0  0  0  0  0  0  0
   -7.9697    1.3423    1.5637 H   0  0  0  0  0  0  0  0  0  0  0  0
  -10.1363    0.2560    1.9767 H   0  0  0  0  0  0  0  0  0  0  0  0
  -11.6595   -0.2827    0.1721 H   0  0  0  0  0  0  0  0  0  0  0  0
   -8.8707    1.3547   -2.6045 H   0  0  0  0  0  0  0  0  0  0  0  0
   -5.3531    0.0495    1.9206 H   0  0  0  0  0  0  0  0  0  0  0  0
   -4.0196   -0.0538    4.0093 H   0  0  0  0  0  0  0  0  0  0  0  0
    0.4936   -0.2344    5.1044 H   0  0  0  0  0  0  0  0  0  0  0  0
    0.0183   -0.1135   -0.2984 H   0  0  0  0  0  0  0  0  0  0  0  0
    2.6666    0.5752    2.2798 H   0  0  0  0  0  0  0  0  0  0  0  0
    5.0200    0.4311    1.8002 H   0  0  0  0  0  0  0  0  0  0  0  0
    6.8227   -0.5398    1.4832 H   0  0  0  0  0  0  0  0  0  0  0  0
    6.8133    1.0935    0.7716 H   0  0  0  0  0  0  0  0  0  0  0  0
    9.0367    0.1666    1.1116 H   0  0  0  0  0  0  0  0  0  0  0  0
    9.0739    1.9490   -0.3211 H   0  0  0  0  0  0  0  0  0  0  0  0
    8.0369    1.1360   -1.5172 H   0  0  0  0  0  0  0  0  0  0  0  0
   10.7481    0.2126   -0.7751 H   0  0  0  0  0  0  0  0  0  0  0  0
    9.0947   -0.2532   -3.2009 H   0  0  0  0  0  0  0  0  0  0  0  0
   10.6544   -0.9727   -2.7640 H   0  0  0  0  0  0  0  0  0  0  0  0
    9.4927   -2.5785   -1.6413 H   0  0  0  0  0  0  0  0  0  0  0  0
    7.9473   -1.7808   -1.9851 H   0  0  0  0  0  0  0  0  0  0  0  0
    1.7443   -0.8805   -1.6022 H   0  0  0  0  0  0  0  0  0  0  0  0
   -1.7783    0.0004   -0.3045 H   0  0  0  0  0  0  0  0  0  0  0  0
  1  2  1  0
  2  3  1  0
  3  4  1  0
  4  5  1  0
  5  6  2  0
  6  7  1  0
  7  8  2  0
  8  9  1  0
  9 10  1  0
  9 11  2  0
  2 12  1  0
 12 13  1  0
 13 14  2  0
 14 15  1  0
 15 16  2  0
 16 17  1  0
 17 18  2  0
 18 19  1  0
 19 20  2  0
 20 21  1  0
 21 22  1  0
 22 23  2  0
 23 24  1  0
 24 25  2  0
 25 26  1  0
 26 27  1  0
 27 28  1  0
 28 29  1  0
 29 30  1  0
 30 31  1  0
 31 32  1  0
 32 33  1  0
 25 34  1  0
 34 35  2  0
 34 36  1  0
 36 37  1  0
 36 38  1  0
 36 39  1  0
 20 40  1  0
 40 41  2  0
 11  5  1  0
 41 13  1  0
 40 16  1  0
 35 22  1  0
 33 28  1  0
  1 42  1  0
  1 43  1  0
  1 44  1  0
  2 45  1  1
  4 46  1  0
  4 47  1  0
  6 48  1  0
  7 49  1  0
  8 50  1  0
 11 51  1  0
 14 52  1  0
 15 53  1  0
 18 54  1  0
 21 55  1  0
 23 56  1  0
 24 57  1  0
 27 58  1  0
 27 59  1  0
 28 60  1  0
 29 61  1  0
 29 62  1  0
 30 63  1  0
 31 64  1  0
 31 65  1  0
 32 66  1  0
 32 67  1  0
 35 68  1  0
 41 69  1  0
M  END
$$$$
[H]c1nc(N([H])c2c([H])c([H])c(Oc3c([H])c([H])c([H])c4nc([H])sc34)c(Cl)c2[H])c2c([H])c(N([H])N3C([H])([H])C([H])([H])N(C([H])([H])[H])C([H])([H])C3([H])[H])c([H])c([H])c2n1
     RDKit          3D

 60 65  0  0  0  0  0  0  0  0999 V2000
   -6.8812    3.6284   -1.0357 C   0  0  0  0  0  0  0  0  0  0  0  0
   -6.7397    2.1965   -0.8579 N   0  0  0  0  0  0  0  0  0  0  0  0
   -6.5902    1.7952    0.4851 C   0  0  0  0  0  0  0  0  0  0  0  0
   -5.6567    0.6758    0.7687 C   0  0  0  0  0  0  0  0  0  0  0  0
   -4.5191    0.5749   -0.0870 N   0  0  0  0  0  0  0  0  0  0  0  0
   -4.4724    1.5456   -1.1445 C   0  0  0  0  0  0  0  0  0  0  0  0
   -5.8306    1.6117   -1.8059 C   0  0  0  0  0  0  0  0  0  0  0  0
   -4.2427   -0.7033   -0.5225 N   0  0  0  0  0  0  0  0  0  0  0  0
   -3.4596   -1.5603    0.2952 C   0  0  0  0  0  0  0  0  0  0  0  0
   -4.0185   -2.4243    1.2035 C   0  0  0  0  0  0  0  0  0  0  0  0
   -3.2668   -3.2533    1.9939 C   0  0  0  0  0  0  0  0  0  0  0  0
   -1.8799   -3.2432    1.8963 C   0  0  0  0  0  0  0  0  0  0  0  0
   -1.1053   -4.0218    2.6357 N   0  0  0  0  0  0  0  0  0  0  0  0
    0.2290   -4.0100    2.5415 C   0  0  0  0  0  0  0  0  0  0  0  0
    0.8193   -3.1932    1.6796 N   0  0  0  0  0  0  0  0  0  0  0  0
    0.1220   -2.3608    0.8810 C   0  0  0  0  0  0  0  0  0  0  0  0
    0.7143   -1.5126   -0.0563 N   0  0  0  0  0  0  0  0  0  0  0  0
    2.1438   -1.4072   -0.1954 C   0  0  0  0  0  0  0  0  0  0  0  0
    2.6514   -1.0676   -1.4614 C   0  0  0  0  0  0  0  0  0  0  0  0
    3.9816   -0.9037   -1.7277 C   0  0  0  0  0  0  0  0  0  0  0  0
    4.8936   -1.0765   -0.7125 C   0  0  0  0  0  0  0  0  0  0  0  0
    6.2484   -0.9174   -0.9534 O   0  0  0  0  0  0  0  0  0  0  0  0
    7.0788   -0.0125   -0.3436 C   0  0  0  0  0  0  0  0  0  0  0  0
    8.1933   -0.3583    0.3934 C   0  0  0  0  0  0  0  0  0  0  0  0
    8.9021    0.6901    0.9283 C   0  0  0  0  0  0  0  0  0  0  0  0
    8.5897    2.0177    0.7860 C   0  0  0  0  0  0  0  0  0  0  0  0
    7.4487    2.3679    0.0314 C   0  0  0  0  0  0  0  0  0  0  0  0
    7.0268    3.5811   -0.1910 N   0  0  0  0  0  0  0  0  0  0  0  0
    5.9412    3.7842   -0.9158 C   0  0  0  0  0  0  0  0  0  0  0  0
    5.4766    2.1864   -1.3140 S   0  0  0  0  0  0  0  0  0  0  0  0
    6.7261    1.3396   -0.5119 C   0  0  0  0  0  0  0  0  0  0  0  0
    4.4180   -1.4069    0.5270 C   0  0  0  0  0  0  0  0  0  0  0  0
    5.5177   -1.6485    1.8812 Cl  0  0  0  0  0  0  0  0  0  0  0  0
    3.0540   -1.5739    0.7983 C   0  0  0  0  0  0  0  0  0  0  0  0
   -1.2734   -2.3785    0.9847 C   0  0  0  0  0  0  0  0  0  0  0  0
   -2.0571   -1.5616    0.2085 C   0  0  0  0  0  0  0  0  0  0  0  0
   -6.0614    4.0548   -1.6529 H   0  0  0  0  0  0  0  0  0  0  0  0
   -7.8841    3.7944   -1.4862 H   0  0  0  0  0  0  0  0  0  0  0  0
   -6.9193    4.0802   -0.0279 H   0  0  0  0  0  0  0  0  0  0  0  0
   -6.2893    2.7053    1.0845 H   0  0  0  0  0  0  0  0  0  0  0  0
   -7.5917    1.5211    0.8928 H   0  0  0  0  0  0  0  0  0  0  0  0
   -6.1711   -0.3074    0.7768 H   0  0  0  0  0  0  0  0  0  0  0  0
   -5.2742    0.8151    1.8117 H   0  0  0  0  0  0  0  0  0  0  0  0
   -4.1615    2.5452   -0.8442 H   0  0  0  0  0  0  0  0  0  0  0  0
   -3.7508    1.1874   -1.9084 H   0  0  0  0  0  0  0  0  0  0  0  0
   -5.7402    2.2991   -2.6727 H   0  0  0  0  0  0  0  0  0  0  0  0
   -6.1681    0.6422   -2.1848 H   0  0  0  0  0  0  0  0  0  0  0  0
   -4.5996   -1.0452   -1.4378 H   0  0  0  0  0  0  0  0  0  0  0  0
   -5.1037   -2.4829    1.3311 H   0  0  0  0  0  0  0  0  0  0  0  0
   -3.7170   -3.9386    2.7147 H   0  0  0  0  0  0  0  0  0  0  0  0
    0.8518   -4.6673    3.1675 H   0  0  0  0  0  0  0  0  0  0  0  0
    0.1637   -0.9077   -0.7092 H   0  0  0  0  0  0  0  0  0  0  0  0
    1.9174   -0.9327   -2.2612 H   0  0  0  0  0  0  0  0  0  0  0  0
    4.3238   -0.6354   -2.7422 H   0  0  0  0  0  0  0  0  0  0  0  0
    8.4459   -1.3923    0.5108 H   0  0  0  0  0  0  0  0  0  0  0  0
    9.7835    0.4277    1.5110 H   0  0  0  0  0  0  0  0  0  0  0  0
    9.2190    2.7629    1.2512 H   0  0  0  0  0  0  0  0  0  0  0  0
    5.4660    4.7469   -1.1875 H   0  0  0  0  0  0  0  0  0  0  0  0
    2.7465   -1.8117    1.8008 H   0  0  0  0  0  0  0  0  0  0  0  0
   -1.6686   -0.8610   -0.5203 H   0  0  0  0  0  0  0  0  0  0  0  0
  1  2  1  0
  2  3  1  0
  3  4  1  0
  4  5  1  0
  5  6  1  0
  6  7  1  0
  5  8  1  0
  8  9  1  0
  9 10  2  0
 10 11  1  0
 11 12  2  0
 12 13  1  0
 13 14  2  0
 14 15  1  0
 15 16  2  0
 16 17  1  0
 17 18  1  0
 18 19  2  0
 19 20  1  0
 20 21  2  0
 21 22  1  0
 22 23  1  0
 23 24  2  0
 24 25  1  0
 25 26  2  0
 26 27  1  0
 27 28  1  0
 28 29  2  0
 29 30  1  0
 30 31  1  0
 21 32  1  0
 32 33  1  0
 32 34  2  0
 16 35  1  0
 35 36  2  0
  7  2  1  0
 36  9  1  0
 35 12  1  0
 34 18  1  0
 31 23  1  0
 31 27  2  0
  1 37  1  0
  1 38  1  0
  1 39  1  0
  3 40  1  0
  3 41  1  0
  4 42  1  0
  4 43  1  0
  6 44  1  0
  6 45  1  0
  7 46  1  0
  7 47  1  0
  8 48  1  0
 10 49  1  0
 11 50  1  0
 14 51  1  0
 17 52  1  0
 19 53  1  0
 20 54  1  0
 24 55  1  0
 25 56  1  0
 26 57  1  0
 29 58  1  0
 34 59  1  0
 36 60  1  0
M  END
$$$$
[H]C([H])=C([H])C(=O)N1C([H])([H])C([H])([H])C([H])([H])[C@@]([H])(n2nc(C(=O)N([H])c3c([H])c(Cl)c(OC(=O)N(C([H])([H])[H])C([H])([H])[H])c([H])c3Cl)c3c(N([H])[H])nc([H])nc32)C1([H])[H]
     RDKit          3D

 61 64  0  0  0  0  0  0  0  0999 V2000
    9.2307    0.8656   -1.6443 C   0  0  0  0  0  0  0  0  0  0  0  0
    8.4150   -0.1758   -2.2086 N   0  0  0  0  0  0  0  0  0  0  0  0
    8.9409   -1.1252   -3.1620 C   0  0  0  0  0  0  0  0  0  0  0  0
    7.0388   -0.2704   -1.8096 C   0  0  0  0  0  0  0  0  0  0  0  0
    6.2811   -1.1608   -2.2712 O   0  0  0  0  0  0  0  0  0  0  0  0
    6.4912    0.6195   -0.8969 O   0  0  0  0  0  0  0  0  0  0  0  0
    5.1650    0.5413   -0.5019 C   0  0  0  0  0  0  0  0  0  0  0  0
    4.1615    1.2006   -1.1545 C   0  0  0  0  0  0  0  0  0  0  0  0
    2.8606    1.1006   -0.7362 C   0  0  0  0  0  0  0  0  0  0  0  0
    1.5881    1.9519   -1.5834 Cl  0  0  0  0  0  0  0  0  0  0  0  0
    2.4743    0.3259    0.3745 C   0  0  0  0  0  0  0  0  0  0  0  0
    1.1312    0.2653    0.7474 N   0  0  0  0  0  0  0  0  0  0  0  0
    0.5680   -0.4451    1.8388 C   0  0  0  0  0  0  0  0  0  0  0  0
    1.2922   -1.1027    2.5796 O   0  0  0  0  0  0  0  0  0  0  0  0
   -0.8814   -0.3581    2.0376 C   0  0  0  0  0  0  0  0  0  0  0  0
   -1.7478    0.0725    1.0741 N   0  0  0  0  0  0  0  0  0  0  0  0
   -2.9761    0.0860    1.4785 N   0  0  0  0  0  0  0  0  0  0  0  0
   -4.2047    0.4588    0.8151 C   0  0  2  0  0  0  0  0  0  0  0  0
   -5.0078   -0.8026    0.5249 C   0  0  0  0  0  0  0  0  0  0  0  0
   -6.3562   -0.4577   -0.0787 C   0  0  0  0  0  0  0  0  0  0  0  0
   -6.2695    0.8891   -0.8063 C   0  0  0  0  0  0  0  0  0  0  0  0
   -4.9948    0.9193   -1.4160 N   0  0  0  0  0  0  0  0  0  0  0  0
   -3.8927    1.2427   -0.4523 C   0  0  0  0  0  0  0  0  0  0  0  0
   -4.6397    0.6487   -2.7189 C   0  0  0  0  0  0  0  0  0  0  0  0
   -3.3574    0.8584   -3.0398 O   0  0  0  0  0  0  0  0  0  0  0  0
   -5.4038    0.1752   -3.8064 C   0  0  0  0  0  0  0  0  0  0  0  0
   -6.6528   -0.1613   -3.8431 C   0  0  0  0  0  0  0  0  0  0  0  0
   -2.9498   -0.3505    2.7668 C   0  0  0  0  0  0  0  0  0  0  0  0
   -3.9173   -0.5289    3.6739 N   0  0  0  0  0  0  0  0  0  0  0  0
   -3.6551   -0.9673    4.9146 C   0  0  0  0  0  0  0  0  0  0  0  0
   -2.3935   -1.2375    5.2686 N   0  0  0  0  0  0  0  0  0  0  0  0
   -1.3426   -1.0836    4.4041 C   0  0  0  0  0  0  0  0  0  0  0  0
   -0.0346   -1.3696    4.8777 N   0  0  0  0  0  0  0  0  0  0  0  0
   -1.6229   -0.6360    3.1362 C   0  0  0  0  0  0  0  0  0  0  0  0
    3.5041   -0.3200    1.0035 C   0  0  0  0  0  0  0  0  0  0  0  0
    4.8467   -0.2254    0.5833 C   0  0  0  0  0  0  0  0  0  0  0  0
    6.1071   -1.0912    1.4527 Cl  0  0  0  0  0  0  0  0  0  0  0  0
    9.7357    0.5033   -0.7068 H   0  0  0  0  0  0  0  0  0  0  0  0
    8.5859    1.7328   -1.3873 H   0  0  0  0  0  0  0  0  0  0  0  0
   10.0000    1.1976   -2.3820 H   0  0  0  0  0  0  0  0  0  0  0  0
    9.4773   -0.5533   -3.9699 H   0  0  0  0  0  0  0  0  0  0  0  0
    9.6990   -1.7994   -2.6733 H   0  0  0  0  0  0  0  0  0  0  0  0
    8.1099   -1.7081   -3.6118 H   0  0  0  0  0  0  0  0  0  0  0  0
    4.4272    1.8121   -2.0225 H   0  0  0  0  0  0  0  0  0  0  0  0
    0.4260    0.8124    0.1519 H   0  0  0  0  0  0  0  0  0  0  0  0
   -4.8622    1.0962    1.4380 H   0  0  0  0  0  0  0  0  0  0  0  0
   -4.4247   -1.4626   -0.1259 H   0  0  0  0  0  0  0  0  0  0  0  0
   -5.2145   -1.2574    1.5152 H   0  0  0  0  0  0  0  0  0  0  0  0
   -7.1608   -0.3590    0.6688 H   0  0  0  0  0  0  0  0  0  0  0  0
   -6.6674   -1.2091   -0.8264 H   0  0  0  0  0  0  0  0  0  0  0  0
   -6.2821    1.6366    0.0838 H   0  0  0  0  0  0  0  0  0  0  0  0
   -7.1555    1.0644   -1.3826 H   0  0  0  0  0  0  0  0  0  0  0  0
   -3.9974    2.3126   -0.2136 H   0  0  0  0  0  0  0  0  0  0  0  0
   -2.9161    1.0473   -0.8773 H   0  0  0  0  0  0  0  0  0  0  0  0
   -4.8589    0.0725   -4.7866 H   0  0  0  0  0  0  0  0  0  0  0  0
   -7.0968   -0.5209   -4.8198 H   0  0  0  0  0  0  0  0  0  0  0  0
   -7.3824   -0.1793   -3.0698 H   0  0  0  0  0  0  0  0  0  0  0  0
   -4.4954   -1.0849    5.5872 H   0  0  0  0  0  0  0  0  0  0  0  0
    0.5290   -0.5460    5.2215 H   0  0  0  0  0  0  0  0  0  0  0  0
    0.3695   -2.3494    4.9103 H   0  0  0  0  0  0  0  0  0  0  0  0
    3.3589   -0.9418    1.8573 H   0  0  0  0  0  0  0  0  0  0  0  0
  1  2  1  0
  2  3  1  0
  2  4  1  0
  4  5  2  0
  4  6  1  0
  6  7  1  0
  7  8  2  0
  8  9  1  0
  9 10  1  0
  9 11  2  0
 11 12  1  0
 12 13  1  0
 13 14  2  0
 13 15  1  0
 15 16  2  0
 16 17  1  0
 17 18  1  0
 18 19  1  0
 19 20  1  0
 20 21  1  0
 21 22  1  0
 22 23  1  0
 22 24  1  0
 24 25  2  0
 24 26  1  0
 26 27  2  3
 17 28  1  0
 28 29  2  0
 29 30  1  0
 30 31  2  0
 31 32  1  0
 32 33  1  0
 32 34  2  0
 11 35  1  0
 35 36  2  0
 36 37  1  0
 36  7  1  0
 34 15  1  0
 23 18  1  0
 34 28  1  0
  1 38  1  0
  1 39  1  0
  1 40  1  0
  3 41  1  0
  3 42  1  0
  3 43  1  0
  8 44  1  0
 12 45  1  0
 18 46  1  1
 19 47  1  0
 19 48  1  0
 20 49  1  0
 20 50  1  0
 21 51  1  0
 21 52  1  0
 23 53  1  0
 23 54  1  0
 26 55  1  0
 27 56  1  0
 27 57  1  0
 30 58  1  0
 33 59  1  0
 33 60  1  0
 35 61  1  0
M  END
$$$$
[H]c1nc(N([H])c2c([H])c([H])c(Oc3c([H])c([H])c([H])c(C(F)(F)F)c3[H])c([H])c2[H])c2sc(C#Cc3c([H])c([H])c(C([H])([H])[H])c([H])c3[H])c([H])c2n1
     RDKit          3D

 54 58  0  0  0  0  0  0  0  0999 V2000
   10.7145   -3.7801    0.6698 C   0  0  0  0  0  0  0  0  0  0  0  0
    9.4681   -2.9361    0.6666 C   0  0  0  0  0  0  0  0  0  0  0  0
    8.5781   -2.9628    1.7123 C   0  0  0  0  0  0  0  0  0  0  0  0
    7.4502   -2.1794    1.6692 C   0  0  0  0  0  0  0  0  0  0  0  0
    7.1613   -1.3472    0.5995 C   0  0  0  0  0  0  0  0  0  0  0  0
    8.0543   -1.3176   -0.4532 C   0  0  0  0  0  0  0  0  0  0  0  0
    9.1931   -2.1086   -0.4100 C   0  0  0  0  0  0  0  0  0  0  0  0
    5.9823   -0.5312    0.5196 C   0  0  0  0  0  0  0  0  0  0  0  0
    4.9815    0.1342    0.4335 C   0  0  0  0  0  0  0  0  0  0  0  0
    3.7586    0.9175    0.3032 C   0  0  0  0  0  0  0  0  0  0  0  0
    3.5853    2.2583    0.4946 C   0  0  0  0  0  0  0  0  0  0  0  0
    2.3582    2.7657    0.3058 C   0  0  0  0  0  0  0  0  0  0  0  0
    1.9451    4.0740    0.4366 N   0  0  0  0  0  0  0  0  0  0  0  0
    0.6928    4.4386    0.2158 C   0  0  0  0  0  0  0  0  0  0  0  0
   -0.2850    3.5945   -0.1495 N   0  0  0  0  0  0  0  0  0  0  0  0
    0.0389    2.2922   -0.2989 C   0  0  0  0  0  0  0  0  0  0  0  0
   -0.8465    1.2736   -0.6868 N   0  0  0  0  0  0  0  0  0  0  0  0
   -2.2264    1.3508   -0.9645 C   0  0  0  0  0  0  0  0  0  0  0  0
   -2.8592    0.2894   -1.6538 C   0  0  0  0  0  0  0  0  0  0  0  0
   -4.1881    0.2724   -1.9249 C   0  0  0  0  0  0  0  0  0  0  0  0
   -4.9572    1.3474   -1.5045 C   0  0  0  0  0  0  0  0  0  0  0  0
   -6.3342    1.3031   -1.7935 O   0  0  0  0  0  0  0  0  0  0  0  0
   -7.1824    0.6994   -0.8455 C   0  0  0  0  0  0  0  0  0  0  0  0
   -7.8602    1.5167    0.0171 C   0  0  0  0  0  0  0  0  0  0  0  0
   -8.7011    0.9191    0.9614 C   0  0  0  0  0  0  0  0  0  0  0  0
   -8.8295   -0.4520    1.0072 C   0  0  0  0  0  0  0  0  0  0  0  0
   -8.1515   -1.2792    0.1442 C   0  0  0  0  0  0  0  0  0  0  0  0
   -7.3159   -0.6711   -0.7944 C   0  0  0  0  0  0  0  0  0  0  0  0
   -8.2810   -2.7462    0.2020 C   0  0  0  0  0  0  0  0  0  0  0  0
   -8.2798   -3.2268   -1.0890 F   0  0  0  0  0  0  0  0  0  0  0  0
   -7.1260   -3.2163    0.7971 F   0  0  0  0  0  0  0  0  0  0  0  0
   -9.4190   -3.1613    0.8525 F   0  0  0  0  0  0  0  0  0  0  0  0
   -4.4269    2.4112   -0.8363 C   0  0  0  0  0  0  0  0  0  0  0  0
   -3.0488    2.3622   -0.5902 C   0  0  0  0  0  0  0  0  0  0  0  0
    1.3740    1.9013   -0.0643 C   0  0  0  0  0  0  0  0  0  0  0  0
    2.1884    0.4023   -0.1383 S   0  0  0  0  0  0  0  0  0  0  0  0
   10.6135   -4.4580   -0.2214 H   0  0  0  0  0  0  0  0  0  0  0  0
   10.6859   -4.3980    1.5884 H   0  0  0  0  0  0  0  0  0  0  0  0
   11.6212   -3.1916    0.5403 H   0  0  0  0  0  0  0  0  0  0  0  0
    8.7362   -3.5876    2.5774 H   0  0  0  0  0  0  0  0  0  0  0  0
    6.7331   -2.1767    2.4724 H   0  0  0  0  0  0  0  0  0  0  0  0
    7.8318   -0.6711   -1.2879 H   0  0  0  0  0  0  0  0  0  0  0  0
    9.8991   -2.0914   -1.2348 H   0  0  0  0  0  0  0  0  0  0  0  0
    4.4642    2.8748    0.7956 H   0  0  0  0  0  0  0  0  0  0  0  0
    0.4899    5.5125    0.3533 H   0  0  0  0  0  0  0  0  0  0  0  0
   -0.4348    0.2894   -0.7861 H   0  0  0  0  0  0  0  0  0  0  0  0
   -2.1984   -0.5228   -1.9585 H   0  0  0  0  0  0  0  0  0  0  0  0
   -4.6129   -0.5711   -2.4555 H   0  0  0  0  0  0  0  0  0  0  0  0
   -7.7834    2.5990    0.0112 H   0  0  0  0  0  0  0  0  0  0  0  0
   -9.2707    1.5218    1.6759 H   0  0  0  0  0  0  0  0  0  0  0  0
   -9.5024   -0.8674    1.7710 H   0  0  0  0  0  0  0  0  0  0  0  0
   -6.7810   -1.3118   -1.4762 H   0  0  0  0  0  0  0  0  0  0  0  0
   -5.0294    3.2380   -0.5159 H   0  0  0  0  0  0  0  0  0  0  0  0
   -2.6676    3.2041   -0.0561 H   0  0  0  0  0  0  0  0  0  0  0  0
  1  2  1  0
  2  3  2  0
  3  4  1  0
  4  5  2  0
  5  6  1  0
  6  7  2  0
  5  8  1  0
  8  9  3  0
  9 10  1  0
 10 11  2  0
 11 12  1  0
 12 13  2  0
 13 14  1  0
 14 15  2  0
 15 16  1  0
 16 17  1  0
 17 18  1  0
 18 19  2  0
 19 20  1  0
 20 21  2  0
 21 22  1  0
 22 23  1  0
 23 24  2  0
 24 25  1  0
 25 26  2  0
 26 27  1  0
 27 28  2  0
 27 29  1  0
 29 30  1  0
 29 31  1  0
 29 32  1  0
 21 33  1  0
 33 34  2  0
 16 35  2  0
 35 36  1  0
  7  2  1  0
 36 10  1  0
 35 12  1  0
 34 18  1  0
 28 23  1  0
  1 37  1  0
  1 38  1  0
  1 39  1  0
  3 40  1  0
  4 41  1  0
  6 42  1  0
  7 43  1  0
 11 44  1  0
 14 45  1  0
 17 46  1  0
 19 47  1  0
 20 48  1  0
 24 49  1  0
 25 50  1  0
 26 51  1  0
 28 52  1  0
 33 53  1  0
 34 54  1  0
M  END
$$$$
[H]ON([H])C(=O)C([H])([H])C([H])([H])C([H])([H])C([H])([H])C([H])([H])C([H])([H])C([H])([H])N([H])C(=O)N1C([H])([H])C([H])([H])C([H])([H])C([H])(c2nc([H])c(-c3c([H])c([H])c4nc([H])nc(N([H])c5c([H])c([H])c(F)c([H])c5[H])c4c3[H])n2[H])C1([H])[H]
     RDKit          3D

 80 84  0  0  0  0  0  0  0  0999 V2000
   13.6178    2.6925   -0.6881 F   0  0  0  0  0  0  0  0  0  0  0  0
   12.4030    2.0927   -0.5275 C   0  0  0  0  0  0  0  0  0  0  0  0
   12.2729    0.8335   -0.0057 C   0  0  0  0  0  0  0  0  0  0  0  0
   11.0047    0.2468    0.1468 C   0  0  0  0  0  0  0  0  0  0  0  0
    9.8656    0.8930   -0.2131 C   0  0  0  0  0  0  0  0  0  0  0  0
    8.5427    0.4037   -0.1416 N   0  0  0  0  0  0  0  0  0  0  0  0
    8.2361   -0.9589   -0.2483 C   0  0  0  0  0  0  0  0  0  0  0  0
    9.1793   -1.8796   -0.5052 N   0  0  0  0  0  0  0  0  0  0  0  0
    8.9340   -3.1890   -0.6508 C   0  0  0  0  0  0  0  0  0  0  0  0
    7.6880   -3.6659   -0.5440 N   0  0  0  0  0  0  0  0  0  0  0  0
    6.6927   -2.8228   -0.2903 C   0  0  0  0  0  0  0  0  0  0  0  0
    5.3968   -3.3052   -0.1763 C   0  0  0  0  0  0  0  0  0  0  0  0
    4.3833   -2.4094    0.0876 C   0  0  0  0  0  0  0  0  0  0  0  0
    4.6285   -1.0630    0.2383 C   0  0  0  0  0  0  0  0  0  0  0  0
    5.9191   -0.5769    0.1262 C   0  0  0  0  0  0  0  0  0  0  0  0
    6.9470   -1.4524   -0.1373 C   0  0  0  0  0  0  0  0  0  0  0  0
    3.5442   -0.1212    0.5170 C   0  0  0  0  0  0  0  0  0  0  0  0
    3.6273    1.2464    0.6773 C   0  0  0  0  0  0  0  0  0  0  0  0
    2.3860    1.7070    0.9131 N   0  0  0  0  0  0  0  0  0  0  0  0
    1.5097    0.6868    0.9100 C   0  0  0  0  0  0  0  0  0  0  0  0
    2.2326   -0.4184    0.6671 N   0  0  0  0  0  0  0  0  0  0  0  0
    0.0206    0.7557    1.1245 C   0  0  0  0  0  0  0  0  0  0  0  0
   -0.3854    0.0765    2.3896 C   0  0  0  0  0  0  0  0  0  0  0  0
   -0.5369   -1.4063    2.2851 C   0  0  0  0  0  0  0  0  0  0  0  0
   -1.3302   -1.8652    1.0863 C   0  0  0  0  0  0  0  0  0  0  0  0
   -1.7201   -0.6507    0.3637 N   0  0  0  0  0  0  0  0  0  0  0  0
   -0.6201    0.1435   -0.1041 C   0  0  0  0  0  0  0  0  0  0  0  0
   -3.0616   -0.3067    0.1479 C   0  0  0  0  0  0  0  0  0  0  0  0
   -3.9043   -1.1242    0.5966 O   0  0  0  0  0  0  0  0  0  0  0  0
   -3.4534    0.8440   -0.5080 N   0  0  0  0  0  0  0  0  0  0  0  0
   -4.6972    1.4152   -0.8439 C   0  0  0  0  0  0  0  0  0  0  0  0
   -5.6610    1.8523    0.1632 C   0  0  0  0  0  0  0  0  0  0  0  0
   -6.3316    0.9307    1.0862 C   0  0  0  0  0  0  0  0  0  0  0  0
   -7.2141   -0.1218    0.4442 C   0  0  0  0  0  0  0  0  0  0  0  0
   -8.3357    0.4973   -0.3697 C   0  0  0  0  0  0  0  0  0  0  0  0
   -9.1359   -0.6282   -0.9392 C   0  0  0  0  0  0  0  0  0  0  0  0
  -10.2833   -0.2016   -1.7882 C   0  0  0  0  0  0  0  0  0  0  0  0
  -11.3148    0.5989   -1.1237 C   0  0  0  0  0  0  0  0  0  0  0  0
  -11.2960    0.8577    0.0908 O   0  0  0  0  0  0  0  0  0  0  0  0
  -12.3823    1.0985   -1.9124 N   0  0  0  0  0  0  0  0  0  0  0  0
  -13.3829    1.8523   -1.3773 O   0  0  0  0  0  0  0  0  0  0  0  0
   10.0245    2.1865   -0.7465 C   0  0  0  0  0  0  0  0  0  0  0  0
   11.2617    2.7723   -0.9006 C   0  0  0  0  0  0  0  0  0  0  0  0
   13.1601    0.3001    0.2869 H   0  0  0  0  0  0  0  0  0  0  0  0
   10.9509   -0.7374    0.5870 H   0  0  0  0  0  0  0  0  0  0  0  0
    7.7533    1.1040   -0.0049 H   0  0  0  0  0  0  0  0  0  0  0  0
    9.7680   -3.8638   -0.8592 H   0  0  0  0  0  0  0  0  0  0  0  0
    5.1854   -4.3636   -0.2930 H   0  0  0  0  0  0  0  0  0  0  0  0
    3.3570   -2.7636    0.1805 H   0  0  0  0  0  0  0  0  0  0  0  0
    6.0528    0.4713    0.2543 H   0  0  0  0  0  0  0  0  0  0  0  0
    4.5662    1.8084    0.6150 H   0  0  0  0  0  0  0  0  0  0  0  0
    1.9013   -1.4049    0.5894 H   0  0  0  0  0  0  0  0  0  0  0  0
   -0.2919    1.8122    1.1746 H   0  0  0  0  0  0  0  0  0  0  0  0
   -1.3659    0.5051    2.7159 H   0  0  0  0  0  0  0  0  0  0  0  0
    0.3377    0.2939    3.1814 H   0  0  0  0  0  0  0  0  0  0  0  0
    0.4174   -1.9657    2.3736 H   0  0  0  0  0  0  0  0  0  0  0  0
   -1.1289   -1.7314    3.1945 H   0  0  0  0  0  0  0  0  0  0  0  0
   -2.2175   -2.4383    1.3372 H   0  0  0  0  0  0  0  0  0  0  0  0
   -0.6769   -2.4911    0.4428 H   0  0  0  0  0  0  0  0  0  0  0  0
   -0.8162    0.8487   -0.8995 H   0  0  0  0  0  0  0  0  0  0  0  0
    0.1006   -0.6186   -0.5651 H   0  0  0  0  0  0  0  0  0  0  0  0
   -2.6075    1.4727   -0.8441 H   0  0  0  0  0  0  0  0  0  0  0  0
   -5.2304    0.7352   -1.6057 H   0  0  0  0  0  0  0  0  0  0  0  0
   -4.5044    2.3274   -1.5102 H   0  0  0  0  0  0  0  0  0  0  0  0
   -6.4952    2.3909   -0.4143 H   0  0  0  0  0  0  0  0  0  0  0  0
   -5.2318    2.7124    0.7682 H   0  0  0  0  0  0  0  0  0  0  0  0
   -7.0997    1.5816    1.6559 H   0  0  0  0  0  0  0  0  0  0  0  0
   -5.7455    0.5105    1.9169 H   0  0  0  0  0  0  0  0  0  0  0  0
   -7.6650   -0.6978    1.2725 H   0  0  0  0  0  0  0  0  0  0  0  0
   -6.6694   -0.7994   -0.2084 H   0  0  0  0  0  0  0  0  0  0  0  0
   -7.9326    1.1770   -1.1538 H   0  0  0  0  0  0  0  0  0  0  0  0
   -8.9352    1.0848    0.3148 H   0  0  0  0  0  0  0  0  0  0  0  0
   -9.4679   -1.2482   -0.0597 H   0  0  0  0  0  0  0  0  0  0  0  0
   -8.4285   -1.2957   -1.4815 H   0  0  0  0  0  0  0  0  0  0  0  0
  -10.7128   -1.1181   -2.2792 H   0  0  0  0  0  0  0  0  0  0  0  0
   -9.8259    0.3545   -2.6663 H   0  0  0  0  0  0  0  0  0  0  0  0
  -12.4591    0.9166   -2.9355 H   0  0  0  0  0  0  0  0  0  0  0  0
  -13.8537    2.3704   -2.0496 H   0  0  0  0  0  0  0  0  0  0  0  0
    9.1468    2.7324   -1.0422 H   0  0  0  0  0  0  0  0  0  0  0  0
   11.3937    3.7662   -1.3086 H   0  0  0  0  0  0  0  0  0  0  0  0
  1  2  1  0
  2  3  2  0
  3  4  1  0
  4  5  2  0
  5  6  1  0
  6  7  1  0
  7  8  2  0
  8  9  1  0
  9 10  2  0
 10 11  1  0
 11 12  2  0
 12 13  1  0
 13 14  2  0
 14 15  1  0
 15 16  2  0
 14 17  1  0
 17 18  2  0
 18 19  1  0
 19 20  2  0
 20 21  1  0
 20 22  1  0
 22 23  1  0
 23 24  1  0
 24 25  1  0
 25 26  1  0
 26 27  1  0
 26 28  1  0
 28 29  2  0
 28 30  1  0
 30 31  1  0
 31 32  1  0
 32 33  1  0
 33 34  1  0
 34 35  1  0
 35 36  1  0
 36 37  1  0
 37 38  1  0
 38 39  2  0
 38 40  1  0
 40 41  1  0
  5 42  1  0
 42 43  2  0
 43  2  1  0
 16  7  1  0
 21 17  1  0
 27 22  1  0
 16 11  1  0
  3 44  1  0
  4 45  1  0
  6 46  1  0
  9 47  1  0
 12 48  1  0
 13 49  1  0
 15 50  1  0
 18 51  1  0
 21 52  1  0
 22 53  1  0
 23 54  1  0
 23 55  1  0
 24 56  1  0
 24 57  1  0
 25 58  1  0
 25 59  1  0
 27 60  1  0
 27 61  1  0
 30 62  1  0
 31 63  1  0
 31 64  1  0
 32 65  1  0
 32 66  1  0
 33 67  1  0
 33 68  1  0
 34 69  1  0
 34 70  1  0
 35 71  1  0
 35 72  1  0
 36 73  1  0
 36 74  1  0
 37 75  1  0
 37 76  1  0
 40 77  1  0
 41 78  1  0
 42 79  1  0
 43 80  1  0
M  END
$$$$
[H]OC([H])([H])c1c([H])c([H])c([H])c(N([H])c2nc([H])nc3c([H])c(OC([H])([H])C([H])([H])C([H])([H])N4C([H])([H])C([H])([H])C([H])([H])C4([H])[H])c([H])c([H])c23)c1[H]
     RDKit          3D

 54 57  0  0  0  0  0  0  0  0999 V2000
   -9.3463   -1.2233    0.9189 O   0  0  0  0  0  0  0  0  0  0  0  0
   -8.0496   -1.4133    0.4796 C   0  0  0  0  0  0  0  0  0  0  0  0
   -7.1695   -0.2789    0.7895 C   0  0  0  0  0  0  0  0  0  0  0  0
   -7.5781    0.8612    1.4353 C   0  0  0  0  0  0  0  0  0  0  0  0
   -6.7111    1.9050    1.7045 C   0  0  0  0  0  0  0  0  0  0  0  0
   -5.3952    1.8313    1.3273 C   0  0  0  0  0  0  0  0  0  0  0  0
   -4.9431    0.6779    0.6633 C   0  0  0  0  0  0  0  0  0  0  0  0
   -3.5672    0.6769    0.3356 N   0  0  0  0  0  0  0  0  0  0  0  0
   -3.0515    0.0129   -0.7908 C   0  0  0  0  0  0  0  0  0  0  0  0
   -3.8215   -0.6234   -1.6885 N   0  0  0  0  0  0  0  0  0  0  0  0
   -3.3611   -1.2372   -2.7833 C   0  0  0  0  0  0  0  0  0  0  0  0
   -2.0467   -1.2289   -3.0197 N   0  0  0  0  0  0  0  0  0  0  0  0
   -1.1502   -0.6222   -2.1943 C   0  0  0  0  0  0  0  0  0  0  0  0
    0.1821   -0.6455   -2.4855 C   0  0  0  0  0  0  0  0  0  0  0  0
    1.1046   -0.0270   -1.6459 C   0  0  0  0  0  0  0  0  0  0  0  0
    2.4485   -0.0674   -1.9754 O   0  0  0  0  0  0  0  0  0  0  0  0
    3.4637    0.4558   -1.2280 C   0  0  0  0  0  0  0  0  0  0  0  0
    3.6258   -0.2606    0.0762 C   0  0  0  0  0  0  0  0  0  0  0  0
    4.7625    0.4188    0.8162 C   0  0  0  0  0  0  0  0  0  0  0  0
    6.0062    0.3743    0.1066 N   0  0  0  0  0  0  0  0  0  0  0  0
    6.5777   -0.9295    0.0142 C   0  0  0  0  0  0  0  0  0  0  0  0
    7.2080   -1.1812    1.3722 C   0  0  0  0  0  0  0  0  0  0  0  0
    7.4206    0.2114    1.9196 C   0  0  0  0  0  0  0  0  0  0  0  0
    6.9832    1.1527    0.8326 C   0  0  0  0  0  0  0  0  0  0  0  0
    0.5798    0.5882   -0.5395 C   0  0  0  0  0  0  0  0  0  0  0  0
   -0.7779    0.6138   -0.2381 C   0  0  0  0  0  0  0  0  0  0  0  0
   -1.6806    0.0079   -1.0593 C   0  0  0  0  0  0  0  0  0  0  0  0
   -5.8257   -0.3536    0.4052 C   0  0  0  0  0  0  0  0  0  0  0  0
   -9.3340   -1.1219    1.8879 H   0  0  0  0  0  0  0  0  0  0  0  0
   -8.1262   -1.5616   -0.6393 H   0  0  0  0  0  0  0  0  0  0  0  0
   -7.6821   -2.3743    0.8762 H   0  0  0  0  0  0  0  0  0  0  0  0
   -8.6141    0.9414    1.7419 H   0  0  0  0  0  0  0  0  0  0  0  0
   -7.0601    2.8110    2.2242 H   0  0  0  0  0  0  0  0  0  0  0  0
   -4.7040    2.6331    1.5270 H   0  0  0  0  0  0  0  0  0  0  0  0
   -2.9409    1.1954    0.9771 H   0  0  0  0  0  0  0  0  0  0  0  0
   -4.0531   -1.7428   -3.4802 H   0  0  0  0  0  0  0  0  0  0  0  0
    0.5635   -1.1331   -3.3575 H   0  0  0  0  0  0  0  0  0  0  0  0
    4.4244    0.3176   -1.8186 H   0  0  0  0  0  0  0  0  0  0  0  0
    3.3442    1.5745   -1.0505 H   0  0  0  0  0  0  0  0  0  0  0  0
    2.7751   -0.3617    0.7190 H   0  0  0  0  0  0  0  0  0  0  0  0
    3.9385   -1.3088   -0.1888 H   0  0  0  0  0  0  0  0  0  0  0  0
    4.7848   -0.0149    1.8276 H   0  0  0  0  0  0  0  0  0  0  0  0
    4.4594    1.4818    0.9384 H   0  0  0  0  0  0  0  0  0  0  0  0
    7.3601   -0.9219   -0.7769 H   0  0  0  0  0  0  0  0  0  0  0  0
    5.8990   -1.7473   -0.2226 H   0  0  0  0  0  0  0  0  0  0  0  0
    6.5892   -1.8236    2.0230 H   0  0  0  0  0  0  0  0  0  0  0  0
    8.1677   -1.7115    1.1989 H   0  0  0  0  0  0  0  0  0  0  0  0
    8.5204    0.3408    2.0529 H   0  0  0  0  0  0  0  0  0  0  0  0
    6.8918    0.3793    2.8743 H   0  0  0  0  0  0  0  0  0  0  0  0
    7.8195    1.4522    0.1664 H   0  0  0  0  0  0  0  0  0  0  0  0
    6.4719    2.0378    1.2664 H   0  0  0  0  0  0  0  0  0  0  0  0
    1.2404    1.1141    0.1334 H   0  0  0  0  0  0  0  0  0  0  0  0
   -1.1266    1.1148    0.6544 H   0  0  0  0  0  0  0  0  0  0  0  0
   -5.4963   -1.2663   -0.0881 H   0  0  0  0  0  0  0  0  0  0  0  0
  1  2  1  0
  2  3  1  0
  3  4  2  0
  4  5  1  0
  5  6  2  0
  6  7  1  0
  7  8  1  0
  8  9  1  0
  9 10  2  0
 10 11  1  0
 11 12  2  0
 12 13  1  0
 13 14  2  0
 14 15  1  0
 15 16  1  0
 16 17  1  0
 17 18  1  0
 18 19  1  0
 19 20  1  0
 20 21  1  0
 21 22  1  0
 22 23  1  0
 23 24  1  0
 15 25  2  0
 25 26  1  0
 26 27  2  0
  7 28  2  0
 28  3  1  0
 27  9  1  0
 27 13  1  0
 24 20  1  0
  1 29  1  0
  2 30  1  0
  2 31  1  0
  4 32  1  0
  5 33  1  0
  6 34  1  0
  8 35  1  0
 11 36  1  0
 14 37  1  0
 17 38  1  0
 17 39  1  0
 18 40  1  0
 18 41  1  0
 19 42  1  0
 19 43  1  0
 21 44  1  0
 21 45  1  0
 22 46  1  0
 22 47  1  0
 23 48  1  0
 23 49  1  0
 24 50  1  0
 24 51  1  0
 25 52  1  0
 26 53  1  0
 28 54  1  0
M  END
$$$$
[H]c1nc(N([H])c2c([H])c(C#N)c([H])c(OC([H])([H])[H])c2[H])c2c([H])c(N3C([H])([H])C([H])([H])OC([H])([H])C3([H])[H])c([H])c([H])c2n1
     RDKit          3D

 46 49  0  0  0  0  0  0  0  0999 V2000
    5.9768    2.9451   -1.9980 C   0  0  0  0  0  0  0  0  0  0  0  0
    4.7117    2.6580   -1.4815 O   0  0  0  0  0  0  0  0  0  0  0  0
    4.3132    1.3307   -1.3531 C   0  0  0  0  0  0  0  0  0  0  0  0
    3.0653    1.0904   -0.8424 C   0  0  0  0  0  0  0  0  0  0  0  0
    2.6032   -0.2248   -0.6872 C   0  0  0  0  0  0  0  0  0  0  0  0
    1.2940   -0.4109   -0.1785 N   0  0  0  0  0  0  0  0  0  0  0  0
    0.7955   -1.5161    0.5039 C   0  0  0  0  0  0  0  0  0  0  0  0
    1.5849   -2.5645    0.8205 N   0  0  0  0  0  0  0  0  0  0  0  0
    1.1246   -3.6163    1.5001 C   0  0  0  0  0  0  0  0  0  0  0  0
   -0.1524   -3.6989    1.9122 N   0  0  0  0  0  0  0  0  0  0  0  0
   -1.0100   -2.7008    1.6413 C   0  0  0  0  0  0  0  0  0  0  0  0
   -2.3200   -2.7878    2.0635 C   0  0  0  0  0  0  0  0  0  0  0  0
   -3.1558   -1.7468    1.7622 C   0  0  0  0  0  0  0  0  0  0  0  0
   -2.7492   -0.6407    1.0694 C   0  0  0  0  0  0  0  0  0  0  0  0
   -1.4082   -0.5811    0.6525 C   0  0  0  0  0  0  0  0  0  0  0  0
   -0.5232   -1.5990    0.9280 C   0  0  0  0  0  0  0  0  0  0  0  0
   -3.6311    0.4467    0.7529 N   0  0  0  0  0  0  0  0  0  0  0  0
   -3.1650    1.6417    0.1016 C   0  0  0  0  0  0  0  0  0  0  0  0
   -4.1187    2.7634    0.4708 C   0  0  0  0  0  0  0  0  0  0  0  0
   -5.3581    2.4240   -0.0070 O   0  0  0  0  0  0  0  0  0  0  0  0
   -5.9342    1.3459    0.6096 C   0  0  0  0  0  0  0  0  0  0  0  0
   -5.0027    0.2966    1.1076 C   0  0  0  0  0  0  0  0  0  0  0  0
    3.4131   -1.2585   -1.0524 C   0  0  0  0  0  0  0  0  0  0  0  0
    4.6749   -1.0217   -1.5686 C   0  0  0  0  0  0  0  0  0  0  0  0
    5.1089    0.2731   -1.7122 C   0  0  0  0  0  0  0  0  0  0  0  0
    5.5436   -2.1159   -1.9590 C   0  0  0  0  0  0  0  0  0  0  0  0
    6.2227   -2.9822   -2.2520 N   0  0  0  0  0  0  0  0  0  0  0  0
    6.1206    4.0404   -1.9879 H   0  0  0  0  0  0  0  0  0  0  0  0
    6.0396    2.5472   -3.0409 H   0  0  0  0  0  0  0  0  0  0  0  0
    6.7407    2.4974   -1.3360 H   0  0  0  0  0  0  0  0  0  0  0  0
    2.4249    1.9395   -0.5533 H   0  0  0  0  0  0  0  0  0  0  0  0
    0.6519    0.4177   -0.3665 H   0  0  0  0  0  0  0  0  0  0  0  0
    1.7617   -4.4661    1.7575 H   0  0  0  0  0  0  0  0  0  0  0  0
   -2.6923   -3.6316    2.6099 H   0  0  0  0  0  0  0  0  0  0  0  0
   -4.1851   -1.8276    2.1019 H   0  0  0  0  0  0  0  0  0  0  0  0
   -1.0997    0.2902    0.1062 H   0  0  0  0  0  0  0  0  0  0  0  0
   -2.1613    1.9786    0.4439 H   0  0  0  0  0  0  0  0  0  0  0  0
   -3.2337    1.4859   -0.9848 H   0  0  0  0  0  0  0  0  0  0  0  0
   -4.0708    3.0289    1.5252 H   0  0  0  0  0  0  0  0  0  0  0  0
   -3.7737    3.6561   -0.1234 H   0  0  0  0  0  0  0  0  0  0  0  0
   -6.6659    1.6776    1.4043 H   0  0  0  0  0  0  0  0  0  0  0  0
   -6.5994    0.8523   -0.1598 H   0  0  0  0  0  0  0  0  0  0  0  0
   -5.0601    0.3129    2.2342 H   0  0  0  0  0  0  0  0  0  0  0  0
   -5.3392   -0.7418    0.8377 H   0  0  0  0  0  0  0  0  0  0  0  0
    3.1445   -2.3118   -0.9899 H   0  0  0  0  0  0  0  0  0  0  0  0
    6.0934    0.5046   -2.1136 H   0  0  0  0  0  0  0  0  0  0  0  0
  1  2  1  0
  2  3  1  0
  3  4  2  0
  4  5  1  0
  5  6  1  0
  6  7  1  0
  7  8  2  0
  8  9  1  0
  9 10  2  0
 10 11  1  0
 11 12  2  0
 12 13  1  0
 13 14  2  0
 14 15  1  0
 15 16  2  0
 14 17  1  0
 17 18  1  0
 18 19  1  0
 19 20  1  0
 20 21  1  0
 21 22  1  0
  5 23  2  0
 23 24  1  0
 24 25  2  0
 24 26  1  0
 26 27  3  0
 25  3  1  0
 16  7  1  0
 22 17  1  0
 16 11  1  0
  1 28  1  0
  1 29  1  0
  1 30  1  0
  4 31  1  0
  6 32  1  0
  9 33  1  0
 12 34  1  0
 13 35  1  0
 15 36  1  0
 18 37  1  0
 18 38  1  0
 19 39  1  0
 19 40  1  0
 21 41  1  0
 21 42  1  0
 22 43  1  0
 22 44  1  0
 23 45  1  0
 25 46  1  0
M  END
$$$$
[H]c1nc(N([H])c2c([H])c([H])c3c(c([H])nn3C([H])([H])c3c([H])c([H])c([H])c(Cl)c3[H])c2[H])c2c([H])c(F)c([H])c([H])c2n1
     RDKit          3D

 44 48  0  0  0  0  0  0  0  0999 V2000
    6.1408    3.8123    1.3985 F   0  0  0  0  0  0  0  0  0  0  0  0
    5.9500    2.4724    1.2999 C   0  0  0  0  0  0  0  0  0  0  0  0
    6.9879    1.6270    1.6136 C   0  0  0  0  0  0  0  0  0  0  0  0
    6.7731    0.2655    1.5067 C   0  0  0  0  0  0  0  0  0  0  0  0
    5.5618   -0.2505    1.0996 C   0  0  0  0  0  0  0  0  0  0  0  0
    5.3631   -1.5737    1.0001 N   0  0  0  0  0  0  0  0  0  0  0  0
    4.1990   -2.1229    0.6085 C   0  0  0  0  0  0  0  0  0  0  0  0
    3.2112   -1.2762    0.3109 N   0  0  0  0  0  0  0  0  0  0  0  0
    3.2867    0.0504    0.3705 C   0  0  0  0  0  0  0  0  0  0  0  0
    2.2180    0.8784    0.0141 N   0  0  0  0  0  0  0  0  0  0  0  0
    0.9158    0.4987   -0.3894 C   0  0  0  0  0  0  0  0  0  0  0  0
    0.3693   -0.6799    0.0111 C   0  0  0  0  0  0  0  0  0  0  0  0
   -0.8985   -1.0661   -0.4131 C   0  0  0  0  0  0  0  0  0  0  0  0
   -1.6058   -0.2358   -1.2516 C   0  0  0  0  0  0  0  0  0  0  0  0
   -2.8230   -0.3195   -1.8260 N   0  0  0  0  0  0  0  0  0  0  0  0
   -3.7537   -1.4254   -1.6605 C   0  0  0  0  0  0  0  0  0  0  0  0
   -4.6267   -1.1182   -0.5074 C   0  0  0  0  0  0  0  0  0  0  0  0
   -5.7568   -0.3628   -0.7180 C   0  0  0  0  0  0  0  0  0  0  0  0
   -6.6330   -0.0260    0.2787 C   0  0  0  0  0  0  0  0  0  0  0  0
   -6.3742   -0.4634    1.5591 C   0  0  0  0  0  0  0  0  0  0  0  0
   -5.2444   -1.2209    1.7799 C   0  0  0  0  0  0  0  0  0  0  0  0
   -4.9085   -1.7795    3.3991 Cl  0  0  0  0  0  0  0  0  0  0  0  0
   -4.3587   -1.5594    0.7627 C   0  0  0  0  0  0  0  0  0  0  0  0
   -3.0255    0.7475   -2.5445 N   0  0  0  0  0  0  0  0  0  0  0  0
   -1.9715    1.5678   -2.4780 C   0  0  0  0  0  0  0  0  0  0  0  0
   -1.0365    0.9527   -1.6452 C   0  0  0  0  0  0  0  0  0  0  0  0
    0.2147    1.3693   -1.2474 C   0  0  0  0  0  0  0  0  0  0  0  0
    4.4886    0.5871    0.7742 C   0  0  0  0  0  0  0  0  0  0  0  0
    4.7292    1.9334    0.8891 C   0  0  0  0  0  0  0  0  0  0  0  0
    7.9507    1.9898    1.9358 H   0  0  0  0  0  0  0  0  0  0  0  0
    7.5754   -0.4458    1.7476 H   0  0  0  0  0  0  0  0  0  0  0  0
    4.0676   -3.2133    0.5370 H   0  0  0  0  0  0  0  0  0  0  0  0
    2.3498    1.9461    0.0356 H   0  0  0  0  0  0  0  0  0  0  0  0
    0.8414   -1.3781    0.6783 H   0  0  0  0  0  0  0  0  0  0  0  0
   -1.3423   -1.9895   -0.1083 H   0  0  0  0  0  0  0  0  0  0  0  0
   -3.1946   -2.3686   -1.5119 H   0  0  0  0  0  0  0  0  0  0  0  0
   -4.4029   -1.4965   -2.5622 H   0  0  0  0  0  0  0  0  0  0  0  0
   -5.9903   -0.0026   -1.7127 H   0  0  0  0  0  0  0  0  0  0  0  0
   -7.5185    0.5699    0.0949 H   0  0  0  0  0  0  0  0  0  0  0  0
   -7.0587   -0.2075    2.3716 H   0  0  0  0  0  0  0  0  0  0  0  0
   -3.4749   -2.1645    0.9767 H   0  0  0  0  0  0  0  0  0  0  0  0
   -1.8050    2.5148   -2.9386 H   0  0  0  0  0  0  0  0  0  0  0  0
    0.6552    2.3055   -1.5614 H   0  0  0  0  0  0  0  0  0  0  0  0
    3.9550    2.6578    0.6593 H   0  0  0  0  0  0  0  0  0  0  0  0
  1  2  1  0
  2  3  2  0
  3  4  1  0
  4  5  2  0
  5  6  1  0
  6  7  2  0
  7  8  1  0
  8  9  2  0
  9 10  1  0
 10 11  1  0
 11 12  2  0
 12 13  1  0
 13 14  2  0
 14 15  1  0
 15 16  1  0
 16 17  1  0
 17 18  2  0
 18 19  1  0
 19 20  2  0
 20 21  1  0
 21 22  1  0
 21 23  2  0
 15 24  1  0
 24 25  2  0
 25 26  1  0
 26 27  2  0
  9 28  1  0
 28 29  2  0
 29  2  1  0
 28  5  1  0
 27 11  1  0
 26 14  1  0
 23 17  1  0
  3 30  1  0
  4 31  1  0
  7 32  1  0
 10 33  1  0
 12 34  1  0
 13 35  1  0
 16 36  1  0
 16 37  1  0
 18 38  1  0
 19 39  1  0
 20 40  1  0
 23 41  1  0
 25 42  1  0
 27 43  1  0
 29 44  1  0
M  END
$$$$
[H]c1nc2c([H])c([H])n([H])c2c(Oc2c([H])c([H])c(N([H])C(=O)N([H])c3c([H])c([H])c(Cl)c(Cl)c3[H])c([H])c2Cl)c1[H]
     RDKit          3D

 42 45  0  0  0  0  0  0  0  0999 V2000
   -9.8447    1.1103   -0.7078 Cl  0  0  0  0  0  0  0  0  0  0  0  0
   -8.2254    0.5018   -0.4112 C   0  0  0  0  0  0  0  0  0  0  0  0
   -8.0380   -0.7249    0.1822 C   0  0  0  0  0  0  0  0  0  0  0  0
   -6.7911   -1.2408    0.4333 C   0  0  0  0  0  0  0  0  0  0  0  0
   -5.6268   -0.5215    0.0870 C   0  0  0  0  0  0  0  0  0  0  0  0
   -4.3756   -1.0991    0.3602 N   0  0  0  0  0  0  0  0  0  0  0  0
   -3.1210   -0.4815    0.1666 C   0  0  0  0  0  0  0  0  0  0  0  0
   -2.9450    0.6581   -0.2702 O   0  0  0  0  0  0  0  0  0  0  0  0
   -1.9722   -1.2533    0.5097 N   0  0  0  0  0  0  0  0  0  0  0  0
   -0.6479   -0.8258    0.4035 C   0  0  0  0  0  0  0  0  0  0  0  0
    0.3196   -1.8268    0.2739 C   0  0  0  0  0  0  0  0  0  0  0  0
    1.6485   -1.4998    0.1848 C   0  0  0  0  0  0  0  0  0  0  0  0
    2.1023   -0.1789    0.2177 C   0  0  0  0  0  0  0  0  0  0  0  0
    3.3525    0.2446    0.1396 O   0  0  0  0  0  0  0  0  0  0  0  0
    4.6242   -0.0670    0.0243 C   0  0  0  0  0  0  0  0  0  0  0  0
    5.1365   -1.3352   -0.0759 C   0  0  0  0  0  0  0  0  0  0  0  0
    6.5128   -1.5844   -0.1966 C   0  0  0  0  0  0  0  0  0  0  0  0
    7.3755   -0.5666   -0.2170 N   0  0  0  0  0  0  0  0  0  0  0  0
    6.9302    0.6923   -0.1224 C   0  0  0  0  0  0  0  0  0  0  0  0
    7.6713    1.8704   -0.1255 C   0  0  0  0  0  0  0  0  0  0  0  0
    6.7326    2.8614   -0.0044 C   0  0  0  0  0  0  0  0  0  0  0  0
    5.4872    2.3006    0.0676 N   0  0  0  0  0  0  0  0  0  0  0  0
    5.5999    0.9685   -0.0041 C   0  0  0  0  0  0  0  0  0  0  0  0
    1.0995    0.8077    0.3499 C   0  0  0  0  0  0  0  0  0  0  0  0
    1.5839    2.4942    0.3996 Cl  0  0  0  0  0  0  0  0  0  0  0  0
   -0.2342    0.4810    0.4397 C   0  0  0  0  0  0  0  0  0  0  0  0
   -5.8251    0.6976   -0.5029 C   0  0  0  0  0  0  0  0  0  0  0  0
   -7.1081    1.2202   -0.7573 C   0  0  0  0  0  0  0  0  0  0  0  0
   -7.3267    2.7822   -1.5126 Cl  0  0  0  0  0  0  0  0  0  0  0  0
   -8.9221   -1.2861    0.4522 H   0  0  0  0  0  0  0  0  0  0  0  0
   -6.6686   -2.2202    0.9077 H   0  0  0  0  0  0  0  0  0  0  0  0
   -4.3759   -2.0915    0.7457 H   0  0  0  0  0  0  0  0  0  0  0  0
   -2.1228   -2.2487    0.8886 H   0  0  0  0  0  0  0  0  0  0  0  0
    0.0375   -2.8864    0.2409 H   0  0  0  0  0  0  0  0  0  0  0  0
    2.3801   -2.2937    0.0844 H   0  0  0  0  0  0  0  0  0  0  0  0
    4.4716   -2.1919   -0.0633 H   0  0  0  0  0  0  0  0  0  0  0  0
    6.8412   -2.6248   -0.2717 H   0  0  0  0  0  0  0  0  0  0  0  0
    8.7438    1.9823   -0.2051 H   0  0  0  0  0  0  0  0  0  0  0  0
    6.8884    3.9143    0.0329 H   0  0  0  0  0  0  0  0  0  0  0  0
    4.6016    2.8240    0.1622 H   0  0  0  0  0  0  0  0  0  0  0  0
   -0.9479    1.3164    0.5598 H   0  0  0  0  0  0  0  0  0  0  0  0
   -5.0216    1.3209   -0.8077 H   0  0  0  0  0  0  0  0  0  0  0  0
  1  2  1  0
  2  3  2  0
  3  4  1  0
  4  5  2  0
  5  6  1  0
  6  7  1  0
  7  8  2  0
  7  9  1  0
  9 10  1  0
 10 11  2  0
 11 12  1  0
 12 13  2  0
 13 14  1  0
 14 15  1  0
 15 16  2  0
 16 17  1  0
 17 18  2  0
 18 19  1  0
 19 20  1  0
 20 21  2  0
 21 22  1  0
 22 23  1  0
 13 24  1  0
 24 25  1  0
 24 26  2  0
  5 27  1  0
 27 28  2  0
 28 29  1  0
 28  2  1  0
 26 10  1  0
 23 15  1  0
 23 19  2  0
  3 30  1  0
  4 31  1  0
  6 32  1  0
  9 33  1  0
 11 34  1  0
 12 35  1  0
 16 36  1  0
 17 37  1  0
 20 38  1  0
 21 39  1  0
 22 40  1  0
 26 41  1  0
 27 42  1  0
M  END
$$$$
[H]c1nc([H])c2c([H])c([H])c(N([H])C([H])([H])C([H])([H])[H])nc2c1N([H])c1c([H])c(Oc2c([H])c([H])c(N([H])C(=O)C3(C(=O)N4C([H])([H])C([H])([H])N(C([H])([H])[H])C([H])([H])C4([H])[H])C([H])([H])C3([H])[H])c(C([H])([H])[H])c2[H])c(Cl)c([H])c1Cl
     RDKit          3D

 80 85  0  0  0  0  0  0  0  0999 V2000
   11.9702    0.0689   -2.3237 C   0  0  0  0  0  0  0  0  0  0  0  0
   11.5798    1.0152   -1.2070 C   0  0  0  0  0  0  0  0  0  0  0  0
   10.1627    1.2251   -1.0900 N   0  0  0  0  0  0  0  0  0  0  0  0
    9.3144    0.1660   -0.6697 C   0  0  0  0  0  0  0  0  0  0  0  0
    9.8525   -1.0519   -0.3359 C   0  0  0  0  0  0  0  0  0  0  0  0
    8.9643   -2.0513    0.0642 C   0  0  0  0  0  0  0  0  0  0  0  0
    7.6113   -1.7944    0.1115 C   0  0  0  0  0  0  0  0  0  0  0  0
    6.7109   -2.7603    0.5069 C   0  0  0  0  0  0  0  0  0  0  0  0
    5.3966   -2.4955    0.5524 N   0  0  0  0  0  0  0  0  0  0  0  0
    4.8746   -1.2833    0.2184 C   0  0  0  0  0  0  0  0  0  0  0  0
    5.7125   -0.2903   -0.1780 C   0  0  0  0  0  0  0  0  0  0  0  0
    5.2648    0.9555   -0.6041 N   0  0  0  0  0  0  0  0  0  0  0  0
    4.0617    1.6072   -0.3385 C   0  0  0  0  0  0  0  0  0  0  0  0
    3.2598    1.3288    0.7403 C   0  0  0  0  0  0  0  0  0  0  0  0
    2.0872    2.0430    1.0306 C   0  0  0  0  0  0  0  0  0  0  0  0
    1.3224    1.7143    2.1325 O   0  0  0  0  0  0  0  0  0  0  0  0
    0.0334    1.2501    2.0355 C   0  0  0  0  0  0  0  0  0  0  0  0
   -0.5833    0.9069    0.8681 C   0  0  0  0  0  0  0  0  0  0  0  0
   -1.9115    0.4402    0.8587 C   0  0  0  0  0  0  0  0  0  0  0  0
   -2.6632    0.2996    1.9950 C   0  0  0  0  0  0  0  0  0  0  0  0
   -3.9760   -0.1508    2.0814 N   0  0  0  0  0  0  0  0  0  0  0  0
   -4.8541   -0.5795    1.0525 C   0  0  0  0  0  0  0  0  0  0  0  0
   -4.4414   -0.5745   -0.0855 O   0  0  0  0  0  0  0  0  0  0  0  0
   -6.2175   -1.0062    1.4455 C   0  0  0  0  0  0  0  0  0  0  0  0
   -6.7734   -0.3185    2.7103 C   0  0  0  0  0  0  0  0  0  0  0  0
   -6.3176   -1.6992    2.8001 C   0  0  0  0  0  0  0  0  0  0  0  0
   -7.3029   -1.3598    0.5339 C   0  0  0  0  0  0  0  0  0  0  0  0
   -8.4089   -1.7592    1.2138 O   0  0  0  0  0  0  0  0  0  0  0  0
   -7.5146   -1.3992   -0.8292 N   0  0  0  0  0  0  0  0  0  0  0  0
   -8.8767   -1.8716   -1.2713 C   0  0  0  0  0  0  0  0  0  0  0  0
   -9.5361   -0.8458   -2.1433 C   0  0  0  0  0  0  0  0  0  0  0  0
   -8.6796   -0.4715   -3.2617 N   0  0  0  0  0  0  0  0  0  0  0  0
   -8.5148    0.9416   -3.4084 C   0  0  0  0  0  0  0  0  0  0  0  0
   -7.4602   -1.2210   -3.2570 C   0  0  0  0  0  0  0  0  0  0  0  0
   -6.6791   -1.0656   -1.9396 C   0  0  0  0  0  0  0  0  0  0  0  0
   -2.0096    0.6574    3.1820 C   0  0  0  0  0  0  0  0  0  0  0  0
   -2.7643    0.5298    4.4523 C   0  0  0  0  0  0  0  0  0  0  0  0
   -0.7110    1.1148    3.1970 C   0  0  0  0  0  0  0  0  0  0  0  0
    1.7606    3.0633    0.1733 C   0  0  0  0  0  0  0  0  0  0  0  0
    0.3329    4.0362    0.4708 Cl  0  0  0  0  0  0  0  0  0  0  0  0
    2.5699    3.3586   -0.9301 C   0  0  0  0  0  0  0  0  0  0  0  0
    3.7085    2.6568   -1.2047 C   0  0  0  0  0  0  0  0  0  0  0  0
    4.7126    3.0467   -2.6059 Cl  0  0  0  0  0  0  0  0  0  0  0  0
    7.0913   -0.5721   -0.2252 C   0  0  0  0  0  0  0  0  0  0  0  0
    7.9606    0.3755   -0.6073 N   0  0  0  0  0  0  0  0  0  0  0  0
   11.0638   -0.2578   -2.8667 H   0  0  0  0  0  0  0  0  0  0  0  0
   12.6040    0.5860   -3.0932 H   0  0  0  0  0  0  0  0  0  0  0  0
   12.6004   -0.7704   -1.9683 H   0  0  0  0  0  0  0  0  0  0  0  0
   12.1333    1.9724   -1.3802 H   0  0  0  0  0  0  0  0  0  0  0  0
   11.9683    0.6109   -0.2230 H   0  0  0  0  0  0  0  0  0  0  0  0
    9.7236    2.1708   -1.3140 H   0  0  0  0  0  0  0  0  0  0  0  0
   10.9154   -1.2782   -0.3562 H   0  0  0  0  0  0  0  0  0  0  0  0
    9.3523   -3.0218    0.3331 H   0  0  0  0  0  0  0  0  0  0  0  0
    7.0325   -3.7517    0.7903 H   0  0  0  0  0  0  0  0  0  0  0  0
    3.8022   -1.2299    0.2694 H   0  0  0  0  0  0  0  0  0  0  0  0
    5.9745    1.4839   -1.2380 H   0  0  0  0  0  0  0  0  0  0  0  0
    3.4895    0.5649    1.4714 H   0  0  0  0  0  0  0  0  0  0  0  0
   -0.0629    0.9805   -0.0765 H   0  0  0  0  0  0  0  0  0  0  0  0
   -2.3554    0.1821   -0.0947 H   0  0  0  0  0  0  0  0  0  0  0  0
   -4.4114   -0.2006    3.0587 H   0  0  0  0  0  0  0  0  0  0  0  0
   -7.8724   -0.1265    2.7569 H   0  0  0  0  0  0  0  0  0  0  0  0
   -6.2021    0.5020    3.1538 H   0  0  0  0  0  0  0  0  0  0  0  0
   -7.0971   -2.4770    2.9489 H   0  0  0  0  0  0  0  0  0  0  0  0
   -5.3415   -1.9666    3.2369 H   0  0  0  0  0  0  0  0  0  0  0  0
   -8.6844   -2.8158   -1.7927 H   0  0  0  0  0  0  0  0  0  0  0  0
   -9.5310   -2.0353   -0.4059 H   0  0  0  0  0  0  0  0  0  0  0  0
  -10.4256   -1.3338   -2.5887 H   0  0  0  0  0  0  0  0  0  0  0  0
   -9.8912    0.0167   -1.5543 H   0  0  0  0  0  0  0  0  0  0  0  0
   -8.3797    1.1465   -4.4998 H   0  0  0  0  0  0  0  0  0  0  0  0
   -7.6465    1.3567   -2.8789 H   0  0  0  0  0  0  0  0  0  0  0  0
   -9.4832    1.4245   -3.1144 H   0  0  0  0  0  0  0  0  0  0  0  0
   -7.6819   -2.2814   -3.4604 H   0  0  0  0  0  0  0  0  0  0  0  0
   -6.8029   -0.7915   -4.0457 H   0  0  0  0  0  0  0  0  0  0  0  0
   -6.3197   -0.0281   -1.9779 H   0  0  0  0  0  0  0  0  0  0  0  0
   -5.8752   -1.8317   -2.0304 H   0  0  0  0  0  0  0  0  0  0  0  0
   -3.1351   -0.5228    4.6157 H   0  0  0  0  0  0  0  0  0  0  0  0
   -2.0776    0.7139    5.3045 H   0  0  0  0  0  0  0  0  0  0  0  0
   -3.5791    1.2759    4.5551 H   0  0  0  0  0  0  0  0  0  0  0  0
   -0.2195    1.3898    4.1452 H   0  0  0  0  0  0  0  0  0  0  0  0
    2.2956    4.1637   -1.5907 H   0  0  0  0  0  0  0  0  0  0  0  0
  1  2  1  0
  2  3  1  0
  3  4  1  0
  4  5  2  0
  5  6  1  0
  6  7  2  0
  7  8  1  0
  8  9  2  0
  9 10  1  0
 10 11  2  0
 11 12  1  0
 12 13  1  0
 13 14  2  0
 14 15  1  0
 15 16  1  0
 16 17  1  0
 17 18  2  0
 18 19  1  0
 19 20  2  0
 20 21  1  0
 21 22  1  0
 22 23  2  0
 22 24  1  0
 24 25  1  0
 25 26  1  0
 24 27  1  0
 27 28  2  0
 27 29  1  0
 29 30  1  0
 30 31  1  0
 31 32  1  0
 32 33  1  0
 32 34  1  0
 34 35  1  0
 20 36  1  0
 36 37  1  0
 36 38  2  0
 15 39  2  0
 39 40  1  0
 39 41  1  0
 41 42  2  0
 42 43  1  0
 11 44  1  0
 44 45  2  0
 45  4  1  0
 44  7  1  0
 42 13  1  0
 38 17  1  0
 26 24  1  0
 35 29  1  0
  1 46  1  0
  1 47  1  0
  1 48  1  0
  2 49  1  0
  2 50  1  0
  3 51  1  0
  5 52  1  0
  6 53  1  0
  8 54  1  0
 10 55  1  0
 12 56  1  0
 14 57  1  0
 18 58  1  0
 19 59  1  0
 21 60  1  0
 25 61  1  0
 25 62  1  0
 26 63  1  0
 26 64  1  0
 30 65  1  0
 30 66  1  0
 31 67  1  0
 31 68  1  0
 33 69  1  0
 33 70  1  0
 33 71  1  0
 34 72  1  0
 34 73  1  0
 35 74  1  0
 35 75  1  0
 37 76  1  0
 37 77  1  0
 37 78  1  0
 38 79  1  0
 41 80  1  0
M  END
$$$$
[H]/C(C(=O)N([H])c1c([H])c([H])c2c(c1[H])C([H])([H])[C@@]([H])(N([H])C(=O)c1c(OC([H])([H])C([H])([H])[H])c([H])c3c(N([H])c4c([H])c([H])c(F)c(Cl)c4[H])n([H])nc3c1[H])C2([H])[H])=C(/[H])C([H])([H])N1C([H])([H])C([H])([H])N([H])C([H])([H])C1([H])[H]
     RDKit          3D

 80 85  0  0  0  0  0  0  0  0999 V2000
    3.8510    1.4419    3.0785 C   0  0  0  0  0  0  0  0  0  0  0  0
    3.2720    1.6665    1.7039 C   0  0  0  0  0  0  0  0  0  0  0  0
    3.3506    0.5035    0.9648 O   0  0  0  0  0  0  0  0  0  0  0  0
    4.4057   -0.2337    0.5530 C   0  0  0  0  0  0  0  0  0  0  0  0
    5.7054    0.1819    0.8701 C   0  0  0  0  0  0  0  0  0  0  0  0
    6.7970   -0.5226    0.4746 C   0  0  0  0  0  0  0  0  0  0  0  0
    8.1714   -0.3376    0.6598 C   0  0  0  0  0  0  0  0  0  0  0  0
    8.7758    0.7640    1.3376 N   0  0  0  0  0  0  0  0  0  0  0  0
   10.1499    0.9111    1.5708 C   0  0  0  0  0  0  0  0  0  0  0  0
   10.7067    2.1841    1.4469 C   0  0  0  0  0  0  0  0  0  0  0  0
   12.0376    2.3360    1.7070 C   0  0  0  0  0  0  0  0  0  0  0  0
   12.8246    1.2797    2.0836 C   0  0  0  0  0  0  0  0  0  0  0  0
   14.1353    1.4915    2.3286 F   0  0  0  0  0  0  0  0  0  0  0  0
   12.2773    0.0075    2.2113 C   0  0  0  0  0  0  0  0  0  0  0  0
   13.3470   -1.2882    2.6892 Cl  0  0  0  0  0  0  0  0  0  0  0  0
   10.9320   -0.1586    1.9494 C   0  0  0  0  0  0  0  0  0  0  0  0
    8.7355   -1.3713    0.0377 N   0  0  0  0  0  0  0  0  0  0  0  0
    7.8144   -2.1769   -0.5141 N   0  0  0  0  0  0  0  0  0  0  0  0
    6.5836   -1.6632   -0.2521 C   0  0  0  0  0  0  0  0  0  0  0  0
    5.3238   -2.1015   -0.5816 C   0  0  0  0  0  0  0  0  0  0  0  0
    4.1834   -1.4034   -0.1907 C   0  0  0  0  0  0  0  0  0  0  0  0
    2.8621   -1.9002   -0.4945 C   0  0  0  0  0  0  0  0  0  0  0  0
    2.8789   -3.0151   -1.2005 O   0  0  0  0  0  0  0  0  0  0  0  0
    1.6180   -1.3805   -0.1491 N   0  0  0  0  0  0  0  0  0  0  0  0
    0.3936   -2.0862   -0.5501 C   0  0  1  0  0  0  0  0  0  0  0  0
   -0.2195   -2.5672    0.7503 C   0  0  0  0  0  0  0  0  0  0  0  0
   -1.6637   -2.3082    0.5796 C   0  0  0  0  0  0  0  0  0  0  0  0
   -2.7376   -2.7680    1.3494 C   0  0  0  0  0  0  0  0  0  0  0  0
   -4.0342   -2.4286    1.0385 C   0  0  0  0  0  0  0  0  0  0  0  0
   -4.2861   -1.6287   -0.0395 C   0  0  0  0  0  0  0  0  0  0  0  0
   -5.6095   -1.2116   -0.3981 N   0  0  0  0  0  0  0  0  0  0  0  0
   -6.5717   -0.8703    0.5639 C   0  0  0  0  0  0  0  0  0  0  0  0
   -6.2383   -0.9123    1.8085 O   0  0  0  0  0  0  0  0  0  0  0  0
   -7.9112   -0.4789    0.1967 C   0  0  0  0  0  0  0  0  0  0  0  0
   -8.3256   -0.4247   -1.0334 C   0  0  0  0  0  0  0  0  0  0  0  0
   -9.7085   -0.0217   -1.4139 C   0  0  0  0  0  0  0  0  0  0  0  0
   -9.8223    1.0982   -2.2525 N   0  0  0  0  0  0  0  0  0  0  0  0
   -9.4816    2.3742   -1.7752 C   0  0  0  0  0  0  0  0  0  0  0  0
   -9.0930    3.3592   -2.8501 C   0  0  0  0  0  0  0  0  0  0  0  0
   -9.9439    3.3268   -3.9842 N   0  0  0  0  0  0  0  0  0  0  0  0
  -10.3870    2.0624   -4.4407 C   0  0  0  0  0  0  0  0  0  0  0  0
   -9.9189    0.8917   -3.6507 C   0  0  0  0  0  0  0  0  0  0  0  0
   -3.2104   -1.1774   -0.7983 C   0  0  0  0  0  0  0  0  0  0  0  0
   -1.8914   -1.5059   -0.5047 C   0  0  0  0  0  0  0  0  0  0  0  0
   -0.5779   -1.1391   -1.1464 C   0  0  0  0  0  0  0  0  0  0  0  0
    4.7085    2.1199    3.2611 H   0  0  0  0  0  0  0  0  0  0  0  0
    3.0317    1.6516    3.8223 H   0  0  0  0  0  0  0  0  0  0  0  0
    4.1056    0.3680    3.2416 H   0  0  0  0  0  0  0  0  0  0  0  0
    2.1887    1.9365    1.7993 H   0  0  0  0  0  0  0  0  0  0  0  0
    3.7495    2.5461    1.1991 H   0  0  0  0  0  0  0  0  0  0  0  0
    5.8911    1.0916    1.4463 H   0  0  0  0  0  0  0  0  0  0  0  0
    8.1520    1.5383    1.6963 H   0  0  0  0  0  0  0  0  0  0  0  0
   10.0902    3.0201    1.1496 H   0  0  0  0  0  0  0  0  0  0  0  0
   12.4591    3.3499    1.6036 H   0  0  0  0  0  0  0  0  0  0  0  0
   10.5321   -1.1643    2.0848 H   0  0  0  0  0  0  0  0  0  0  0  0
    9.7801   -1.5208   -0.0267 H   0  0  0  0  0  0  0  0  0  0  0  0
    5.1954   -3.0099   -1.1572 H   0  0  0  0  0  0  0  0  0  0  0  0
    1.4657   -0.5245    0.3750 H   0  0  0  0  0  0  0  0  0  0  0  0
    0.6911   -2.9413   -1.1907 H   0  0  0  0  0  0  0  0  0  0  0  0
    0.1738   -1.9551    1.5791 H   0  0  0  0  0  0  0  0  0  0  0  0
   -0.0103   -3.6499    0.8896 H   0  0  0  0  0  0  0  0  0  0  0  0
   -2.5871   -3.3997    2.2101 H   0  0  0  0  0  0  0  0  0  0  0  0
   -4.8656   -2.8013    1.6316 H   0  0  0  0  0  0  0  0  0  0  0  0
   -5.8267   -1.1717   -1.4064 H   0  0  0  0  0  0  0  0  0  0  0  0
   -8.6101   -0.2164    0.9814 H   0  0  0  0  0  0  0  0  0  0  0  0
   -7.6738   -0.6731   -1.8509 H   0  0  0  0  0  0  0  0  0  0  0  0
  -10.2392   -0.8954   -1.8865 H   0  0  0  0  0  0  0  0  0  0  0  0
  -10.2567    0.1557   -0.4576 H   0  0  0  0  0  0  0  0  0  0  0  0
  -10.3645    2.8170   -1.2399 H   0  0  0  0  0  0  0  0  0  0  0  0
   -8.6958    2.2726   -1.0000 H   0  0  0  0  0  0  0  0  0  0  0  0
   -9.1291    4.4098   -2.4437 H   0  0  0  0  0  0  0  0  0  0  0  0
   -8.0458    3.2068   -3.1868 H   0  0  0  0  0  0  0  0  0  0  0  0
   -9.8437    4.0808   -4.6570 H   0  0  0  0  0  0  0  0  0  0  0  0
  -11.5156    2.0779   -4.5361 H   0  0  0  0  0  0  0  0  0  0  0  0
  -10.0215    1.9217   -5.4953 H   0  0  0  0  0  0  0  0  0  0  0  0
   -8.9638    0.4406   -4.0364 H   0  0  0  0  0  0  0  0  0  0  0  0
  -10.6853    0.0722   -3.8021 H   0  0  0  0  0  0  0  0  0  0  0  0
   -3.3952   -0.5448   -1.6553 H   0  0  0  0  0  0  0  0  0  0  0  0
   -0.6256   -1.3391   -2.2422 H   0  0  0  0  0  0  0  0  0  0  0  0
   -0.3592   -0.0685   -1.0122 H   0  0  0  0  0  0  0  0  0  0  0  0
  1  2  1  0
  2  3  1  0
  3  4  1  0
  4  5  2  0
  5  6  1  0
  6  7  2  0
  7  8  1  0
  8  9  1  0
  9 10  2  0
 10 11  1  0
 11 12  2  0
 12 13  1  0
 12 14  1  0
 14 15  1  0
 14 16  2  0
  7 17  1  0
 17 18  1  0
 18 19  2  0
 19 20  1  0
 20 21  2  0
 21 22  1  0
 22 23  2  0
 22 24  1  0
 24 25  1  0
 25 26  1  0
 26 27  1  0
 27 28  2  0
 28 29  1  0
 29 30  2  0
 30 31  1  0
 31 32  1  0
 32 33  2  0
 32 34  1  0
 34 35  2  0
 35 36  1  0
 36 37  1  0
 37 38  1  0
 38 39  1  0
 39 40  1  0
 40 41  1  0
 41 42  1  0
 30 43  1  0
 43 44  2  0
 44 45  1  0
 21  4  1  0
 45 25  1  0
 19  6  1  0
 44 27  1  0
 16  9  1  0
 42 37  1  0
  1 46  1  0
  1 47  1  0
  1 48  1  0
  2 49  1  0
  2 50  1  0
  5 51  1  0
  8 52  1  0
 10 53  1  0
 11 54  1  0
 16 55  1  0
 17 56  1  0
 20 57  1  0
 24 58  1  0
 25 59  1  6
 26 60  1  0
 26 61  1  0
 28 62  1  0
 29 63  1  0
 31 64  1  0
 34 65  1  0
 35 66  1  0
 36 67  1  0
 36 68  1  0
 38 69  1  0
 38 70  1  0
 39 71  1  0
 39 72  1  0
 40 73  1  0
 41 74  1  0
 41 75  1  0
 42 76  1  0
 42 77  1  0
 43 78  1  0
 45 79  1  0
 45 80  1  0
M  END
$$$$
