[H]Oc1c(OC([H])([H])C([H])([H])[H])c([H])c(/C([H])=C2\C(=O)N([H])C([H])([H])C2([H])[H])c([H])c1C([H])([H])Sc1c([H])c([H])c([H])c([H])c1[H]
     RDKit          3D

 46 48  0  0  0  0  0  0  0  0999 V2000
   -1.7328    6.0668    0.4106 C   0  0  0  0  0  0  0  0  0  0  0  0
   -2.2110    4.6231    0.1718 C   0  0  0  0  0  0  0  0  0  0  0  0
   -1.1965    3.7506    0.1423 O   0  0  0  0  0  0  0  0  0  0  0  0
   -1.0349    2.4339   -0.0332 C   0  0  0  0  0  0  0  0  0  0  0  0
   -2.0190    1.5085   -0.2967 C   0  0  0  0  0  0  0  0  0  0  0  0
   -1.7401    0.1498   -0.4415 C   0  0  0  0  0  0  0  0  0  0  0  0
   -2.7629   -0.6898   -1.0175 C   0  0  0  0  0  0  0  0  0  0  0  0
   -3.4293   -1.6617   -0.5402 C   0  0  0  0  0  0  0  0  0  0  0  0
   -4.4894   -2.4763   -1.2689 C   0  0  0  0  0  0  0  0  0  0  0  0
   -4.6627   -3.6557   -0.3386 C   0  0  0  0  0  0  0  0  0  0  0  0
   -4.4686   -3.0882    0.9870 N   0  0  0  0  0  0  0  0  0  0  0  0
   -3.4078   -2.1611    0.8219 C   0  0  0  0  0  0  0  0  0  0  0  0
   -2.5482   -1.7901    1.6898 O   0  0  0  0  0  0  0  0  0  0  0  0
   -0.4145   -0.2200   -0.2959 C   0  0  0  0  0  0  0  0  0  0  0  0
    0.6143    0.6550   -0.0348 C   0  0  0  0  0  0  0  0  0  0  0  0
    2.0814    0.2758   -0.1736 C   0  0  0  0  0  0  0  0  0  0  0  0
    2.7480   -0.6639    1.1754 S   0  0  0  0  0  0  0  0  0  0  0  0
    4.3007   -1.4115    0.7949 C   0  0  0  0  0  0  0  0  0  0  0  0
    4.7299   -1.6819   -0.4942 C   0  0  0  0  0  0  0  0  0  0  0  0
    5.9388   -2.2651   -0.7800 C   0  0  0  0  0  0  0  0  0  0  0  0
    6.7853   -2.6065    0.2495 C   0  0  0  0  0  0  0  0  0  0  0  0
    6.3864   -2.3483    1.5655 C   0  0  0  0  0  0  0  0  0  0  0  0
    5.1694   -1.7630    1.8104 C   0  0  0  0  0  0  0  0  0  0  0  0
    0.2924    1.9744    0.0900 C   0  0  0  0  0  0  0  0  0  0  0  0
    1.2955    2.9278    0.3426 O   0  0  0  0  0  0  0  0  0  0  0  0
   -1.8381    6.6074   -0.5345 H   0  0  0  0  0  0  0  0  0  0  0  0
   -0.6520    6.0664    0.6953 H   0  0  0  0  0  0  0  0  0  0  0  0
   -2.3785    6.5188    1.1675 H   0  0  0  0  0  0  0  0  0  0  0  0
   -2.8972    4.3945    1.0557 H   0  0  0  0  0  0  0  0  0  0  0  0
   -2.8719    4.6393   -0.7298 H   0  0  0  0  0  0  0  0  0  0  0  0
   -3.0681    1.8438   -0.4062 H   0  0  0  0  0  0  0  0  0  0  0  0
   -3.0163   -0.4805   -2.1272 H   0  0  0  0  0  0  0  0  0  0  0  0
   -5.3974   -1.8959   -1.3857 H   0  0  0  0  0  0  0  0  0  0  0  0
   -4.1234   -2.8048   -2.2425 H   0  0  0  0  0  0  0  0  0  0  0  0
   -5.6669   -4.0938   -0.4336 H   0  0  0  0  0  0  0  0  0  0  0  0
   -3.8780   -4.4144   -0.5374 H   0  0  0  0  0  0  0  0  0  0  0  0
   -4.9825   -3.2974    1.8520 H   0  0  0  0  0  0  0  0  0  0  0  0
   -0.1747   -1.2815   -0.3890 H   0  0  0  0  0  0  0  0  0  0  0  0
    2.6041    1.1378   -0.5803 H   0  0  0  0  0  0  0  0  0  0  0  0
    2.0062   -0.4359   -1.1253 H   0  0  0  0  0  0  0  0  0  0  0  0
    4.0312   -1.4175   -1.3007 H   0  0  0  0  0  0  0  0  0  0  0  0
    6.2266   -2.4544   -1.7994 H   0  0  0  0  0  0  0  0  0  0  0  0
    7.7219   -3.0753    0.0187 H   0  0  0  0  0  0  0  0  0  0  0  0
    7.0211   -2.6171    2.3906 H   0  0  0  0  0  0  0  0  0  0  0  0
    4.8449   -1.5358    2.8429 H   0  0  0  0  0  0  0  0  0  0  0  0
    2.2646    2.7134    0.4801 H   0  0  0  0  0  0  0  0  0  0  0  0
  1  2  1  0
  2  3  1  0
  3  4  1  0
  4  5  2  0
  5  6  1  0
  6  7  1  0
  7  8  2  0
  8  9  1  0
  9 10  1  0
 10 11  1  0
 11 12  1  0
 12 13  2  0
  6 14  2  0
 14 15  1  0
 15 16  1  0
 16 17  1  0
 17 18  1  0
 18 19  2  0
 19 20  1  0
 20 21  2  0
 21 22  1  0
 22 23  2  0
 15 24  2  0
 24 25  1  0
 24  4  1  0
 12  8  1  0
 23 18  1  0
  1 26  1  0
  1 27  1  0
  1 28  1  0
  2 29  1  0
  2 30  1  0
  5 31  1  0
  7 32  1  0
  9 33  1  0
  9 34  1  0
 10 35  1  0
 10 36  1  0
 11 37  1  0
 14 38  1  0
 16 39  1  0
 16 40  1  0
 19 41  1  0
 20 42  1  0
 21 43  1  0
 22 44  1  0
 23 45  1  0
 25 46  1  0
M  END
$$$$
[H]OC([H])([H])C(=O)N1C([H])([H])C([H])([H])N(c2c([H])c([H])c(N([H])c3nc([H])c(Cl)c(Oc4c([H])c([H])c([H])c(N([H])C(=O)C([H])=C([H])[H])c4[H])n3)c(OC([H])([H])[H])c2[H])C([H])([H])C1([H])[H]
     RDKit          3D

 65 68  0  0  0  0  0  0  0  0999 V2000
   -2.6135   -4.8668   -1.4750 C   0  0  0  0  0  0  0  0  0  0  0  0
   -1.5187   -3.9845   -1.6343 O   0  0  0  0  0  0  0  0  0  0  0  0
   -1.5956   -2.7441   -1.0317 C   0  0  0  0  0  0  0  0  0  0  0  0
   -2.6626   -2.3206   -0.2932 C   0  0  0  0  0  0  0  0  0  0  0  0
   -2.7643   -1.0853    0.3196 C   0  0  0  0  0  0  0  0  0  0  0  0
   -1.6964   -0.2447    0.1552 C   0  0  0  0  0  0  0  0  0  0  0  0
   -0.5830   -0.6461   -0.5967 C   0  0  0  0  0  0  0  0  0  0  0  0
   -0.4986   -1.8747   -1.1983 C   0  0  0  0  0  0  0  0  0  0  0  0
    0.5933   -2.3173   -1.9630 N   0  0  0  0  0  0  0  0  0  0  0  0
    1.7881   -1.6380   -2.2775 C   0  0  0  0  0  0  0  0  0  0  0  0
    2.7233   -2.2907   -3.0571 N   0  0  0  0  0  0  0  0  0  0  0  0
    3.8739   -1.7717   -3.4243 C   0  0  0  0  0  0  0  0  0  0  0  0
    4.2003   -0.4767   -3.0143 C   0  0  0  0  0  0  0  0  0  0  0  0
    5.7002    0.2257   -3.5193 Cl  0  0  0  0  0  0  0  0  0  0  0  0
    3.3012    0.2020   -2.2407 C   0  0  0  0  0  0  0  0  0  0  0  0
    3.5214    1.5068   -1.7662 O   0  0  0  0  0  0  0  0  0  0  0  0
    4.0041    1.6321   -0.4487 C   0  0  0  0  0  0  0  0  0  0  0  0
    3.0608    1.5022    0.5771 C   0  0  0  0  0  0  0  0  0  0  0  0
    3.5312    1.6255    1.8543 C   0  0  0  0  0  0  0  0  0  0  0  0
    4.8431    1.8626    2.1610 C   0  0  0  0  0  0  0  0  0  0  0  0
    5.7622    1.9869    1.1024 C   0  0  0  0  0  0  0  0  0  0  0  0
    7.0881    2.2508    1.4330 N   0  0  0  0  0  0  0  0  0  0  0  0
    8.2094    2.0050    0.6230 C   0  0  0  0  0  0  0  0  0  0  0  0
    8.1367    1.4965   -0.5234 O   0  0  0  0  0  0  0  0  0  0  0  0
    9.5315    2.3619    1.1453 C   0  0  0  0  0  0  0  0  0  0  0  0
   10.5880    2.1409    0.4043 C   0  0  0  0  0  0  0  0  0  0  0  0
    5.3328    1.8711   -0.1962 C   0  0  0  0  0  0  0  0  0  0  0  0
    2.1430   -0.4203   -1.9165 N   0  0  0  0  0  0  0  0  0  0  0  0
   -3.9150   -0.7049    1.0590 N   0  0  0  0  0  0  0  0  0  0  0  0
   -5.1684   -1.3836    0.9984 C   0  0  0  0  0  0  0  0  0  0  0  0
   -6.3760   -0.4745    1.0137 C   0  0  0  0  0  0  0  0  0  0  0  0
   -6.1040    0.9141    1.1348 N   0  0  0  0  0  0  0  0  0  0  0  0
   -4.7702    1.4701    1.3332 C   0  0  0  0  0  0  0  0  0  0  0  0
   -3.8641    0.4428    1.9588 C   0  0  0  0  0  0  0  0  0  0  0  0
   -7.1630    1.8455    1.0623 C   0  0  0  0  0  0  0  0  0  0  0  0
   -6.8495    3.0916    1.1799 O   0  0  0  0  0  0  0  0  0  0  0  0
   -8.5852    1.5718    0.8687 C   0  0  0  0  0  0  0  0  0  0  0  0
   -8.9583    0.2721    0.7478 O   0  0  0  0  0  0  0  0  0  0  0  0
   -3.5893   -4.3577   -1.7037 H   0  0  0  0  0  0  0  0  0  0  0  0
   -2.6851   -5.1794   -0.4142 H   0  0  0  0  0  0  0  0  0  0  0  0
   -2.5582   -5.7306   -2.1676 H   0  0  0  0  0  0  0  0  0  0  0  0
   -3.4926   -3.0108   -0.1764 H   0  0  0  0  0  0  0  0  0  0  0  0
   -1.6655    0.7406    0.5830 H   0  0  0  0  0  0  0  0  0  0  0  0
    0.2227    0.0641   -0.6856 H   0  0  0  0  0  0  0  0  0  0  0  0
    0.5333   -3.3138   -2.3791 H   0  0  0  0  0  0  0  0  0  0  0  0
    4.5828   -2.3233   -4.0411 H   0  0  0  0  0  0  0  0  0  0  0  0
    2.0139    1.3128    0.3315 H   0  0  0  0  0  0  0  0  0  0  0  0
    2.8214    1.5319    2.6949 H   0  0  0  0  0  0  0  0  0  0  0  0
    5.1903    1.9542    3.1638 H   0  0  0  0  0  0  0  0  0  0  0  0
    7.2534    2.6891    2.4011 H   0  0  0  0  0  0  0  0  0  0  0  0
    9.5910    2.7950    2.1225 H   0  0  0  0  0  0  0  0  0  0  0  0
   11.5655    2.4114    0.8052 H   0  0  0  0  0  0  0  0  0  0  0  0
   10.4967    1.7026   -0.5793 H   0  0  0  0  0  0  0  0  0  0  0  0
    5.9861    1.9853   -1.0494 H   0  0  0  0  0  0  0  0  0  0  0  0
   -5.2417   -2.1314    0.1849 H   0  0  0  0  0  0  0  0  0  0  0  0
   -5.2271   -2.0052    1.9419 H   0  0  0  0  0  0  0  0  0  0  0  0
   -7.0983   -0.7863    1.8057 H   0  0  0  0  0  0  0  0  0  0  0  0
   -6.8828   -0.6448    0.0362 H   0  0  0  0  0  0  0  0  0  0  0  0
   -4.3239    1.7021    0.3231 H   0  0  0  0  0  0  0  0  0  0  0  0
   -4.7883    2.4129    1.8846 H   0  0  0  0  0  0  0  0  0  0  0  0
   -4.3284    0.0971    2.9358 H   0  0  0  0  0  0  0  0  0  0  0  0
   -2.8639    0.7974    2.1770 H   0  0  0  0  0  0  0  0  0  0  0  0
   -9.1771    2.0366    1.7168 H   0  0  0  0  0  0  0  0  0  0  0  0
   -8.8928    2.1067   -0.0850 H   0  0  0  0  0  0  0  0  0  0  0  0
   -9.6882    0.1095    0.0986 H   0  0  0  0  0  0  0  0  0  0  0  0
  1  2  1  0
  2  3  1  0
  3  4  2  0
  4  5  1  0
  5  6  2  0
  6  7  1  0
  7  8  2  0
  8  9  1  0
  9 10  1  0
 10 11  2  0
 11 12  1  0
 12 13  2  0
 13 14  1  0
 13 15  1  0
 15 16  1  0
 16 17  1  0
 17 18  2  0
 18 19  1  0
 19 20  2  0
 20 21  1  0
 21 22  1  0
 22 23  1  0
 23 24  2  0
 23 25  1  0
 25 26  2  3
 21 27  2  0
 15 28  2  0
  5 29  1  0
 29 30  1  0
 30 31  1  0
 31 32  1  0
 32 33  1  0
 33 34  1  0
 32 35  1  0
 35 36  2  0
 35 37  1  0
 37 38  1  0
  8  3  1  0
 28 10  1  0
 34 29  1  0
 27 17  1  0
  1 39  1  0
  1 40  1  0
  1 41  1  0
  4 42  1  0
  6 43  1  0
  7 44  1  0
  9 45  1  0
 12 46  1  0
 18 47  1  0
 19 48  1  0
 20 49  1  0
 22 50  1  0
 25 51  1  0
 26 52  1  0
 26 53  1  0
 27 54  1  0
 30 55  1  0
 30 56  1  0
 31 57  1  0
 31 58  1  0
 33 59  1  0
 33 60  1  0
 34 61  1  0
 34 62  1  0
 37 63  1  0
 37 64  1  0
 38 65  1  0
M  END
$$$$
[H]C([H])=C([H])C(=O)N([H])c1c(OC([H])([H])C([H])([H])N([H])C(=O)C([H])([H])[H])c([H])c2nc([H])nc(N([H])c3c([H])c([H])c(Cl)c([H])c3F)c2c1[H]
     RDKit          3D

 50 52  0  0  0  0  0  0  0  0999 V2000
   -7.7031    1.4840   -1.8726 C   0  0  0  0  0  0  0  0  0  0  0  0
   -6.5699    0.9199   -1.1002 C   0  0  0  0  0  0  0  0  0  0  0  0
   -5.9781    1.6926   -0.3172 O   0  0  0  0  0  0  0  0  0  0  0  0
   -6.1479   -0.4174   -1.2134 N   0  0  0  0  0  0  0  0  0  0  0  0
   -5.0543   -0.9853   -0.4825 C   0  0  0  0  0  0  0  0  0  0  0  0
   -3.7366   -0.3383   -0.7586 C   0  0  0  0  0  0  0  0  0  0  0  0
   -2.6806   -0.9287   -0.0196 O   0  0  0  0  0  0  0  0  0  0  0  0
   -1.3897   -0.4244   -0.1777 C   0  0  0  0  0  0  0  0  0  0  0  0
   -1.1593    0.6198   -1.0322 C   0  0  0  0  0  0  0  0  0  0  0  0
    0.0967    1.1606   -1.2295 C   0  0  0  0  0  0  0  0  0  0  0  0
    0.2709    2.1959   -2.0884 N   0  0  0  0  0  0  0  0  0  0  0  0
    1.4945    2.7261   -2.2834 C   0  0  0  0  0  0  0  0  0  0  0  0
    2.5142    2.2096   -1.6162 N   0  0  0  0  0  0  0  0  0  0  0  0
    2.4151    1.1706   -0.7379 C   0  0  0  0  0  0  0  0  0  0  0  0
    3.5072    0.6525   -0.0538 N   0  0  0  0  0  0  0  0  0  0  0  0
    4.8457    1.0838   -0.1385 C   0  0  0  0  0  0  0  0  0  0  0  0
    5.3359    2.1040   -0.9159 C   0  0  0  0  0  0  0  0  0  0  0  0
    6.6788    2.4858   -0.9567 C   0  0  0  0  0  0  0  0  0  0  0  0
    7.5711    1.8120   -0.1810 C   0  0  0  0  0  0  0  0  0  0  0  0
    9.2785    2.2303   -0.1748 Cl  0  0  0  0  0  0  0  0  0  0  0  0
    7.1299    0.7797    0.6175 C   0  0  0  0  0  0  0  0  0  0  0  0
    5.8219    0.4184    0.6482 C   0  0  0  0  0  0  0  0  0  0  0  0
    5.3995   -0.6069    1.4447 F   0  0  0  0  0  0  0  0  0  0  0  0
    1.1454    0.6134   -0.5295 C   0  0  0  0  0  0  0  0  0  0  0  0
    0.9159   -0.4389    0.3322 C   0  0  0  0  0  0  0  0  0  0  0  0
   -0.3368   -1.0050    0.5521 C   0  0  0  0  0  0  0  0  0  0  0  0
   -0.5917   -2.0767    1.4251 N   0  0  0  0  0  0  0  0  0  0  0  0
    0.2799   -2.7957    2.2358 C   0  0  0  0  0  0  0  0  0  0  0  0
    1.4969   -2.5630    2.2970 O   0  0  0  0  0  0  0  0  0  0  0  0
   -0.2300   -3.8797    3.0644 C   0  0  0  0  0  0  0  0  0  0  0  0
    0.5711   -4.5760    3.8402 C   0  0  0  0  0  0  0  0  0  0  0  0
   -7.6375    2.5885   -1.9361 H   0  0  0  0  0  0  0  0  0  0  0  0
   -8.6450    1.1497   -1.3545 H   0  0  0  0  0  0  0  0  0  0  0  0
   -7.7362    1.0979   -2.9140 H   0  0  0  0  0  0  0  0  0  0  0  0
   -6.6940   -1.0181   -1.8916 H   0  0  0  0  0  0  0  0  0  0  0  0
   -5.3356   -0.9255    0.6032 H   0  0  0  0  0  0  0  0  0  0  0  0
   -5.0247   -2.0809   -0.7173 H   0  0  0  0  0  0  0  0  0  0  0  0
   -3.5399   -0.4383   -1.8497 H   0  0  0  0  0  0  0  0  0  0  0  0
   -3.7881    0.7329   -0.5288 H   0  0  0  0  0  0  0  0  0  0  0  0
   -1.9641    1.0793   -1.6037 H   0  0  0  0  0  0  0  0  0  0  0  0
    1.6497    3.5567   -2.9691 H   0  0  0  0  0  0  0  0  0  0  0  0
    3.3355   -0.1522    0.6058 H   0  0  0  0  0  0  0  0  0  0  0  0
    4.6816    2.6793   -1.5551 H   0  0  0  0  0  0  0  0  0  0  0  0
    6.9861    3.2863   -1.5835 H   0  0  0  0  0  0  0  0  0  0  0  0
    7.8228    0.2155    1.2555 H   0  0  0  0  0  0  0  0  0  0  0  0
    1.7463   -0.8409    0.8594 H   0  0  0  0  0  0  0  0  0  0  0  0
   -1.6235   -2.3759    1.4614 H   0  0  0  0  0  0  0  0  0  0  0  0
   -1.2752   -4.1256    3.0517 H   0  0  0  0  0  0  0  0  0  0  0  0
    0.1991   -5.3834    4.4591 H   0  0  0  0  0  0  0  0  0  0  0  0
    1.6515   -4.3684    3.8937 H   0  0  0  0  0  0  0  0  0  0  0  0
  1  2  1  0
  2  3  2  0
  2  4  1  0
  4  5  1  0
  5  6  1  0
  6  7  1  0
  7  8  1  0
  8  9  2  0
  9 10  1  0
 10 11  2  0
 11 12  1  0
 12 13  2  0
 13 14  1  0
 14 15  1  0
 15 16  1  0
 16 17  2  0
 17 18  1  0
 18 19  2  0
 19 20  1  0
 19 21  1  0
 21 22  2  0
 22 23  1  0
 14 24  2  0
 24 25  1  0
 25 26  2  0
 26 27  1  0
 27 28  1  0
 28 29  2  0
 28 30  1  0
 30 31  2  3
 26  8  1  0
 24 10  1  0
 22 16  1  0
  1 32  1  0
  1 33  1  0
  1 34  1  0
  4 35  1  0
  5 36  1  0
  5 37  1  0
  6 38  1  0
  6 39  1  0
  9 40  1  0
 12 41  1  0
 15 42  1  0
 17 43  1  0
 18 44  1  0
 21 45  1  0
 25 46  1  0
 27 47  1  0
 30 48  1  0
 31 49  1  0
 31 50  1  0
M  END
$$$$
[H]OC(=O)C([H])([H])C([H])([H])N([H])c1c(Br)c([H])c([H])c([H])c1N([H])c1nc([H])nc2c([H])c([H])nc([H])c12
     RDKit          3D

 38 40  0  0  0  0  0  0  0  0999 V2000
    4.3619    3.1546    0.8127 O   0  0  0  0  0  0  0  0  0  0  0  0
    3.5571    2.3828    0.0047 C   0  0  0  0  0  0  0  0  0  0  0  0
    2.9951    2.8707   -1.0032 O   0  0  0  0  0  0  0  0  0  0  0  0
    3.3772    0.9219    0.3809 C   0  0  0  0  0  0  0  0  0  0  0  0
    2.0836    0.7872    1.1051 C   0  0  0  0  0  0  0  0  0  0  0  0
    1.8138   -0.5848    1.4591 N   0  0  0  0  0  0  0  0  0  0  0  0
    1.5794   -1.5212    0.4190 C   0  0  0  0  0  0  0  0  0  0  0  0
    2.5582   -2.3582    0.0096 C   0  0  0  0  0  0  0  0  0  0  0  0
    4.2548   -2.4767    0.8683 Br  0  0  0  0  0  0  0  0  0  0  0  0
    2.3112   -3.2204   -1.0611 C   0  0  0  0  0  0  0  0  0  0  0  0
    1.0973   -3.2147   -1.6793 C   0  0  0  0  0  0  0  0  0  0  0  0
    0.1146   -2.3244   -1.2091 C   0  0  0  0  0  0  0  0  0  0  0  0
    0.3009   -1.4659   -0.1747 C   0  0  0  0  0  0  0  0  0  0  0  0
   -0.6472   -0.6089    0.3582 N   0  0  0  0  0  0  0  0  0  0  0  0
   -1.9125   -0.2962   -0.1914 C   0  0  0  0  0  0  0  0  0  0  0  0
   -2.3803   -0.7603   -1.3518 N   0  0  0  0  0  0  0  0  0  0  0  0
   -3.5495   -0.4897   -1.9275 C   0  0  0  0  0  0  0  0  0  0  0  0
   -4.3749    0.3346   -1.3045 N   0  0  0  0  0  0  0  0  0  0  0  0
   -4.0113    0.8730   -0.1135 C   0  0  0  0  0  0  0  0  0  0  0  0
   -4.8957    1.7329    0.5174 C   0  0  0  0  0  0  0  0  0  0  0  0
   -4.5635    2.2986    1.7265 C   0  0  0  0  0  0  0  0  0  0  0  0
   -3.3700    2.0034    2.2835 N   0  0  0  0  0  0  0  0  0  0  0  0
   -2.4786    1.1561    1.6794 C   0  0  0  0  0  0  0  0  0  0  0  0
   -2.7856    0.5807    0.4760 C   0  0  0  0  0  0  0  0  0  0  0  0
    5.3106    2.8007    0.9814 H   0  0  0  0  0  0  0  0  0  0  0  0
    3.4870    0.3666   -0.5434 H   0  0  0  0  0  0  0  0  0  0  0  0
    4.1816    0.6663    1.1200 H   0  0  0  0  0  0  0  0  0  0  0  0
    2.1755    1.4301    2.0275 H   0  0  0  0  0  0  0  0  0  0  0  0
    1.2840    1.2382    0.4518 H   0  0  0  0  0  0  0  0  0  0  0  0
    1.7891   -0.8982    2.4810 H   0  0  0  0  0  0  0  0  0  0  0  0
    3.1075   -3.8924   -1.3872 H   0  0  0  0  0  0  0  0  0  0  0  0
    0.9068   -3.8791   -2.5050 H   0  0  0  0  0  0  0  0  0  0  0  0
   -0.8137   -2.3977   -1.7481 H   0  0  0  0  0  0  0  0  0  0  0  0
   -0.4091   -0.1468    1.2890 H   0  0  0  0  0  0  0  0  0  0  0  0
   -3.8433   -0.9271   -2.8935 H   0  0  0  0  0  0  0  0  0  0  0  0
   -5.8305    1.9412    0.0437 H   0  0  0  0  0  0  0  0  0  0  0  0
   -5.2406    2.9780    2.2434 H   0  0  0  0  0  0  0  0  0  0  0  0
   -1.5409    0.9451    2.1537 H   0  0  0  0  0  0  0  0  0  0  0  0
  1  2  1  0
  2  3  2  0
  2  4  1  0
  4  5  1  0
  5  6  1  0
  6  7  1  0
  7  8  2  0
  8  9  1  0
  8 10  1  0
 10 11  2  0
 11 12  1  0
 12 13  2  0
 13 14  1  0
 14 15  1  0
 15 16  2  0
 16 17  1  0
 17 18  2  0
 18 19  1  0
 19 20  2  0
 20 21  1  0
 21 22  2  0
 22 23  1  0
 23 24  2  0
 13  7  1  0
 24 15  1  0
 24 19  1  0
  1 25  1  0
  4 26  1  0
  4 27  1  0
  5 28  1  0
  5 29  1  0
  6 30  1  0
 10 31  1  0
 11 32  1  0
 12 33  1  0
 14 34  1  0
 17 35  1  0
 20 36  1  0
 21 37  1  0
 23 38  1  0
M  END
$$$$
[H]/C(C(=O)N1C([H])([H])c2sc3nc([H])nc(N([H])c4c([H])c([H])c(Cl)c(Cl)c4[H])c3c2C([H])([H])C1([H])[H])=C(/[H])C([H])([H])N([H])C12C([H])([H])C3([H])C([H])([H])C([H])(C([H])([H])C([H])(C3([H])[H])C1([H])[H])C2([H])[H]
     RDKit          3D

 69 75  0  0  0  0  0  0  0  0999 V2000
    8.4236   -3.9455   -3.6671 Cl  0  0  0  0  0  0  0  0  0  0  0  0
    7.5233   -2.8676   -2.6229 C   0  0  0  0  0  0  0  0  0  0  0  0
    6.9210   -1.7827   -3.1851 C   0  0  0  0  0  0  0  0  0  0  0  0
    6.1990   -0.9104   -2.3765 C   0  0  0  0  0  0  0  0  0  0  0  0
    6.1152   -1.1648   -1.0437 C   0  0  0  0  0  0  0  0  0  0  0  0
    5.4265   -0.2995   -0.1544 N   0  0  0  0  0  0  0  0  0  0  0  0
    5.4446    1.1008   -0.2869 C   0  0  0  0  0  0  0  0  0  0  0  0
    6.2511    1.6095   -1.2522 N   0  0  0  0  0  0  0  0  0  0  0  0
    6.4592    2.8835   -1.5277 C   0  0  0  0  0  0  0  0  0  0  0  0
    5.7971    3.7580   -0.7650 N   0  0  0  0  0  0  0  0  0  0  0  0
    4.9632    3.3240    0.2304 C   0  0  0  0  0  0  0  0  0  0  0  0
    3.9885    4.1783    1.3484 S   0  0  0  0  0  0  0  0  0  0  0  0
    3.3140    2.8996    2.1678 C   0  0  0  0  0  0  0  0  0  0  0  0
    2.3195    2.7125    3.2932 C   0  0  0  0  0  0  0  0  0  0  0  0
    1.3242    1.7765    2.7709 N   0  0  0  0  0  0  0  0  0  0  0  0
    1.7798    0.6242    2.0638 C   0  0  0  0  0  0  0  0  0  0  0  0
    3.3206    0.5420    2.2402 C   0  0  0  0  0  0  0  0  0  0  0  0
    3.8638    1.7585    1.5552 C   0  0  0  0  0  0  0  0  0  0  0  0
    4.7303    2.0013    0.5362 C   0  0  0  0  0  0  0  0  0  0  0  0
   -0.0233    2.0445    2.9978 C   0  0  0  0  0  0  0  0  0  0  0  0
   -0.1864    3.1175    3.7486 O   0  0  0  0  0  0  0  0  0  0  0  0
   -1.2169    1.3773    2.5684 C   0  0  0  0  0  0  0  0  0  0  0  0
   -1.3887    0.3397    1.8220 C   0  0  0  0  0  0  0  0  0  0  0  0
   -2.8038   -0.1302    1.5493 C   0  0  0  0  0  0  0  0  0  0  0  0
   -2.9687   -0.0625    0.1223 N   0  0  0  0  0  0  0  0  0  0  0  0
   -4.2651   -0.4748   -0.3389 C   0  0  0  0  0  0  0  0  0  0  0  0
   -5.3598    0.4091    0.1875 C   0  0  0  0  0  0  0  0  0  0  0  0
   -6.6722    0.0556   -0.4432 C   0  0  0  0  0  0  0  0  0  0  0  0
   -7.0242   -1.3583   -0.1111 C   0  0  0  0  0  0  0  0  0  0  0  0
   -5.9195   -2.2576   -0.6199 C   0  0  0  0  0  0  0  0  0  0  0  0
   -5.8734   -2.1097   -2.1348 C   0  0  0  0  0  0  0  0  0  0  0  0
   -5.5610   -0.6737   -2.4824 C   0  0  0  0  0  0  0  0  0  0  0  0
   -6.6119    0.2659   -1.9375 C   0  0  0  0  0  0  0  0  0  0  0  0
   -4.2421   -0.3243   -1.8656 C   0  0  0  0  0  0  0  0  0  0  0  0
   -4.5900   -1.8996   -0.0355 C   0  0  0  0  0  0  0  0  0  0  0  0
    6.7377   -2.2797   -0.4874 C   0  0  0  0  0  0  0  0  0  0  0  0
    7.4588   -3.1592   -1.2705 C   0  0  0  0  0  0  0  0  0  0  0  0
    8.2468   -4.5642   -0.5896 Cl  0  0  0  0  0  0  0  0  0  0  0  0
    6.9721   -1.5559   -4.2420 H   0  0  0  0  0  0  0  0  0  0  0  0
    5.7240   -0.0827   -2.8787 H   0  0  0  0  0  0  0  0  0  0  0  0
    4.9195   -0.7618    0.5971 H   0  0  0  0  0  0  0  0  0  0  0  0
    7.1207    3.2321   -2.3175 H   0  0  0  0  0  0  0  0  0  0  0  0
    1.9050    3.7031    3.5042 H   0  0  0  0  0  0  0  0  0  0  0  0
    2.8433    2.3271    4.1733 H   0  0  0  0  0  0  0  0  0  0  0  0
    1.6179    0.7033    0.9821 H   0  0  0  0  0  0  0  0  0  0  0  0
    1.3815   -0.3282    2.5147 H   0  0  0  0  0  0  0  0  0  0  0  0
    3.6836   -0.4125    1.9870 H   0  0  0  0  0  0  0  0  0  0  0  0
    3.5417    0.6696    3.3438 H   0  0  0  0  0  0  0  0  0  0  0  0
   -2.1650    1.8330    2.9444 H   0  0  0  0  0  0  0  0  0  0  0  0
   -0.5674   -0.1672    1.3961 H   0  0  0  0  0  0  0  0  0  0  0  0
   -2.8654   -1.1962    1.8557 H   0  0  0  0  0  0  0  0  0  0  0  0
   -3.5464    0.4196    2.1187 H   0  0  0  0  0  0  0  0  0  0  0  0
   -2.7657    0.8751   -0.2750 H   0  0  0  0  0  0  0  0  0  0  0  0
   -5.1646    1.4834    0.0333 H   0  0  0  0  0  0  0  0  0  0  0  0
   -5.4727    0.2362    1.2908 H   0  0  0  0  0  0  0  0  0  0  0  0
   -7.4342    0.7697   -0.0223 H   0  0  0  0  0  0  0  0  0  0  0  0
   -7.1453   -1.4411    0.9872 H   0  0  0  0  0  0  0  0  0  0  0  0
   -7.9664   -1.6894   -0.5999 H   0  0  0  0  0  0  0  0  0  0  0  0
   -6.1888   -3.3057   -0.3890 H   0  0  0  0  0  0  0  0  0  0  0  0
   -6.7814   -2.4871   -2.6192 H   0  0  0  0  0  0  0  0  0  0  0  0
   -4.9747   -2.7078   -2.4658 H   0  0  0  0  0  0  0  0  0  0  0  0
   -5.4594   -0.6088   -3.5652 H   0  0  0  0  0  0  0  0  0  0  0  0
   -6.2936    1.3028   -2.1338 H   0  0  0  0  0  0  0  0  0  0  0  0
   -7.5896    0.1076   -2.3927 H   0  0  0  0  0  0  0  0  0  0  0  0
   -3.4808   -1.0257   -2.2624 H   0  0  0  0  0  0  0  0  0  0  0  0
   -3.9636    0.7495   -2.0540 H   0  0  0  0  0  0  0  0  0  0  0  0
   -3.8307   -2.5699   -0.4959 H   0  0  0  0  0  0  0  0  0  0  0  0
   -4.6071   -2.1268    1.0392 H   0  0  0  0  0  0  0  0  0  0  0  0
    6.6526   -2.4594    0.5884 H   0  0  0  0  0  0  0  0  0  0  0  0
  1  2  1  0
  2  3  2  0
  3  4  1  0
  4  5  2  0
  5  6  1  0
  6  7  1  0
  7  8  1  0
  8  9  2  0
  9 10  1  0
 10 11  2  0
 11 12  1  0
 12 13  1  0
 13 14  1  0
 14 15  1  0
 15 16  1  0
 16 17  1  0
 17 18  1  0
 18 19  1  0
 15 20  1  0
 20 21  2  0
 20 22  1  0
 22 23  2  0
 23 24  1  0
 24 25  1  0
 25 26  1  0
 26 27  1  0
 27 28  1  0
 28 29  1  0
 29 30  1  0
 30 31  1  0
 31 32  1  0
 32 33  1  0
 32 34  1  0
 30 35  1  0
  5 36  1  0
 36 37  2  0
 37 38  1  0
 37  2  1  0
 19  7  2  0
 34 26  1  0
 19 11  1  0
 35 26  1  0
 18 13  2  0
 33 28  1  0
  3 39  1  0
  4 40  1  0
  6 41  1  0
  9 42  1  0
 14 43  1  0
 14 44  1  0
 16 45  1  0
 16 46  1  0
 17 47  1  0
 17 48  1  0
 22 49  1  0
 23 50  1  0
 24 51  1  0
 24 52  1  0
 25 53  1  0
 27 54  1  0
 27 55  1  0
 28 56  1  0
 29 57  1  0
 29 58  1  0
 30 59  1  0
 31 60  1  0
 31 61  1  0
 32 62  1  0
 33 63  1  0
 33 64  1  0
 34 65  1  0
 34 66  1  0
 35 67  1  0
 35 68  1  0
 36 69  1  0
M  END
$$$$
[H]/C(=N\OC([H])([H])C([H])([H])[H])c1c(N([H])[H])nc([H])nc1N([H])c1c([H])c([H])c2c(c([H])nn2C([H])([H])c2c([H])c([H])c([H])c(F)c2[H])c1[H]
     RDKit          3D

 50 53  0  0  0  0  0  0  0  0999 V2000
   -7.2601    0.0065    2.5994 C   0  0  0  0  0  0  0  0  0  0  0  0
   -6.3251   -0.4168    1.4627 C   0  0  0  0  0  0  0  0  0  0  0  0
   -5.0466   -0.5860    2.0525 O   0  0  0  0  0  0  0  0  0  0  0  0
   -4.0135   -0.9686    1.2354 N   0  0  0  0  0  0  0  0  0  0  0  0
   -3.9471   -2.0737    0.6234 C   0  0  0  0  0  0  0  0  0  0  0  0
   -2.9470   -2.6140   -0.2559 C   0  0  0  0  0  0  0  0  0  0  0  0
   -3.1561   -3.8900   -0.7930 C   0  0  0  0  0  0  0  0  0  0  0  0
   -4.3577   -4.5864   -0.4224 N   0  0  0  0  0  0  0  0  0  0  0  0
   -2.2825   -4.4774   -1.6318 N   0  0  0  0  0  0  0  0  0  0  0  0
   -1.1522   -3.8451   -1.9917 C   0  0  0  0  0  0  0  0  0  0  0  0
   -0.9490   -2.6347   -1.4849 N   0  0  0  0  0  0  0  0  0  0  0  0
   -1.7914   -1.9889   -0.6345 C   0  0  0  0  0  0  0  0  0  0  0  0
   -1.4330   -0.7200   -0.1394 N   0  0  0  0  0  0  0  0  0  0  0  0
   -0.2869    0.0259   -0.5055 C   0  0  0  0  0  0  0  0  0  0  0  0
    0.2382    0.9079    0.4476 C   0  0  0  0  0  0  0  0  0  0  0  0
    1.3286    1.7044    0.1991 C   0  0  0  0  0  0  0  0  0  0  0  0
    1.9467    1.6518   -1.0269 C   0  0  0  0  0  0  0  0  0  0  0  0
    2.9991    2.2692   -1.5925 N   0  0  0  0  0  0  0  0  0  0  0  0
    3.8102    3.2649   -0.9011 C   0  0  0  0  0  0  0  0  0  0  0  0
    4.9553    2.6655   -0.1797 C   0  0  0  0  0  0  0  0  0  0  0  0
    6.1361    2.4828   -0.8970 C   0  0  0  0  0  0  0  0  0  0  0  0
    7.2443    1.9357   -0.2997 C   0  0  0  0  0  0  0  0  0  0  0  0
    7.2058    1.5566    1.0255 C   0  0  0  0  0  0  0  0  0  0  0  0
    6.0337    1.7441    1.7172 C   0  0  0  0  0  0  0  0  0  0  0  0
    5.9568    1.3868    3.0142 F   0  0  0  0  0  0  0  0  0  0  0  0
    4.9174    2.2921    1.1263 C   0  0  0  0  0  0  0  0  0  0  0  0
    3.1502    1.8228   -2.8273 N   0  0  0  0  0  0  0  0  0  0  0  0
    2.2184    0.9047   -3.1266 C   0  0  0  0  0  0  0  0  0  0  0  0
    1.4530    0.7974   -1.9783 C   0  0  0  0  0  0  0  0  0  0  0  0
    0.3392   -0.0133   -1.7197 C   0  0  0  0  0  0  0  0  0  0  0  0
   -6.6873    0.7412    3.2241 H   0  0  0  0  0  0  0  0  0  0  0  0
   -8.1191    0.5250    2.1145 H   0  0  0  0  0  0  0  0  0  0  0  0
   -7.5574   -0.8410    3.2364 H   0  0  0  0  0  0  0  0  0  0  0  0
   -6.3276    0.3576    0.6865 H   0  0  0  0  0  0  0  0  0  0  0  0
   -6.7019   -1.3535    1.0038 H   0  0  0  0  0  0  0  0  0  0  0  0
   -4.8409   -2.7130    0.8280 H   0  0  0  0  0  0  0  0  0  0  0  0
   -4.3224   -5.1866    0.4276 H   0  0  0  0  0  0  0  0  0  0  0  0
   -5.2366   -4.5031   -0.9732 H   0  0  0  0  0  0  0  0  0  0  0  0
   -0.4701   -4.3444   -2.6682 H   0  0  0  0  0  0  0  0  0  0  0  0
   -2.0392   -0.2317    0.5734 H   0  0  0  0  0  0  0  0  0  0  0  0
   -0.2444    0.9590    1.4285 H   0  0  0  0  0  0  0  0  0  0  0  0
    1.7354    2.3877    0.9321 H   0  0  0  0  0  0  0  0  0  0  0  0
    4.1680    3.9591   -1.6892 H   0  0  0  0  0  0  0  0  0  0  0  0
    3.1369    3.8171   -0.2135 H   0  0  0  0  0  0  0  0  0  0  0  0
    6.2260    2.7606   -1.9390 H   0  0  0  0  0  0  0  0  0  0  0  0
    8.1635    1.7979   -0.8706 H   0  0  0  0  0  0  0  0  0  0  0  0
    8.0848    1.1208    1.5050 H   0  0  0  0  0  0  0  0  0  0  0  0
    4.0032    2.4328    1.6884 H   0  0  0  0  0  0  0  0  0  0  0  0
    2.0764    0.3643   -4.0349 H   0  0  0  0  0  0  0  0  0  0  0  0
   -0.0319   -0.6541   -2.4911 H   0  0  0  0  0  0  0  0  0  0  0  0
  1  2  1  0
  2  3  1  0
  3  4  1  0
  4  5  2  0
  5  6  1  0
  6  7  2  0
  7  8  1  0
  7  9  1  0
  9 10  2  0
 10 11  1  0
 11 12  2  0
 12 13  1  0
 13 14  1  0
 14 15  2  0
 15 16  1  0
 16 17  2  0
 17 18  1  0
 18 19  1  0
 19 20  1  0
 20 21  2  0
 21 22  1  0
 22 23  2  0
 23 24  1  0
 24 25  1  0
 24 26  2  0
 18 27  1  0
 27 28  2  0
 28 29  1  0
 29 30  2  0
 12  6  1  0
 30 14  1  0
 29 17  1  0
 26 20  1  0
  1 31  1  0
  1 32  1  0
  1 33  1  0
  2 34  1  0
  2 35  1  0
  5 36  1  0
  8 37  1  0
  8 38  1  0
 10 39  1  0
 13 40  1  0
 15 41  1  0
 16 42  1  0
 19 43  1  0
 19 44  1  0
 21 45  1  0
 22 46  1  0
 23 47  1  0
 26 48  1  0
 28 49  1  0
 30 50  1  0
M  END
$$$$
[H]c1nc(N([H])c2c([H])c([H])c(F)c(Cl)c2[H])c2c(OC3([H])C([H])([H])C([H])([H])OC([H])([H])C3([H])[H])c([H])c(OC([H])([H])C([H])([H])C([H])([H])N3C([H])([H])C([H])([H])N(C([H])([H])[H])C([H])([H])C3([H])[H])c([H])c2n1
     RDKit          3D

 70 74  0  0  0  0  0  0  0  0999 V2000
    8.1077   -1.0972    2.0296 C   0  0  0  0  0  0  0  0  0  0  0  0
    6.9025   -1.1322    1.2388 N   0  0  0  0  0  0  0  0  0  0  0  0
    6.1377   -2.3306    1.4501 C   0  0  0  0  0  0  0  0  0  0  0  0
    5.1240   -2.5478    0.3577 C   0  0  0  0  0  0  0  0  0  0  0  0
    4.8943   -1.4808   -0.5008 N   0  0  0  0  0  0  0  0  0  0  0  0
    3.6490   -0.9975   -0.8374 C   0  0  0  0  0  0  0  0  0  0  0  0
    2.7897   -0.2600    0.1138 C   0  0  0  0  0  0  0  0  0  0  0  0
    2.3770   -0.9658    1.3619 C   0  0  0  0  0  0  0  0  0  0  0  0
    1.5360   -0.1887    2.1349 O   0  0  0  0  0  0  0  0  0  0  0  0
    0.2834    0.2687    1.9296 C   0  0  0  0  0  0  0  0  0  0  0  0
   -0.4621   -0.0222    0.8198 C   0  0  0  0  0  0  0  0  0  0  0  0
   -1.7453    0.4956    0.6820 C   0  0  0  0  0  0  0  0  0  0  0  0
   -2.5029    0.2091   -0.4166 O   0  0  0  0  0  0  0  0  0  0  0  0
   -2.1643   -0.6255   -1.4488 C   0  0  0  0  0  0  0  0  0  0  0  0
   -3.2819   -1.6228   -1.7941 C   0  0  0  0  0  0  0  0  0  0  0  0
   -2.7891   -2.4091   -2.9905 C   0  0  0  0  0  0  0  0  0  0  0  0
   -1.4455   -2.1678   -3.2588 O   0  0  0  0  0  0  0  0  0  0  0  0
   -1.2181   -0.8654   -3.6823 C   0  0  0  0  0  0  0  0  0  0  0  0
   -1.9208    0.1109   -2.7646 C   0  0  0  0  0  0  0  0  0  0  0  0
   -2.2956    1.3206    1.6710 C   0  0  0  0  0  0  0  0  0  0  0  0
   -3.5574    1.8251    1.5607 C   0  0  0  0  0  0  0  0  0  0  0  0
   -4.3999    1.7027    0.4547 N   0  0  0  0  0  0  0  0  0  0  0  0
   -5.7587    2.1866    0.4731 C   0  0  0  0  0  0  0  0  0  0  0  0
   -6.5322    2.1102    1.5830 C   0  0  0  0  0  0  0  0  0  0  0  0
   -7.8292    2.6446    1.5051 C   0  0  0  0  0  0  0  0  0  0  0  0
   -8.2909    3.2246    0.3335 C   0  0  0  0  0  0  0  0  0  0  0  0
   -9.5394    3.7384    0.2607 F   0  0  0  0  0  0  0  0  0  0  0  0
   -7.4987    3.2943   -0.7816 C   0  0  0  0  0  0  0  0  0  0  0  0
   -8.0293    4.0134   -2.2837 Cl  0  0  0  0  0  0  0  0  0  0  0  0
   -6.2364    2.7757   -0.7089 C   0  0  0  0  0  0  0  0  0  0  0  0
   -3.9922    2.6056    2.6130 N   0  0  0  0  0  0  0  0  0  0  0  0
   -3.2638    2.8738    3.6779 C   0  0  0  0  0  0  0  0  0  0  0  0
   -2.0277    2.3899    3.7987 N   0  0  0  0  0  0  0  0  0  0  0  0
   -1.5134    1.6067    2.8072 C   0  0  0  0  0  0  0  0  0  0  0  0
   -0.2664    1.0963    2.9285 C   0  0  0  0  0  0  0  0  0  0  0  0
    6.0402   -0.7836   -0.9971 C   0  0  0  0  0  0  0  0  0  0  0  0
    7.2661   -0.9381   -0.1444 C   0  0  0  0  0  0  0  0  0  0  0  0
    8.2564   -2.0239    2.6194 H   0  0  0  0  0  0  0  0  0  0  0  0
    8.9838   -0.8067    1.4261 H   0  0  0  0  0  0  0  0  0  0  0  0
    7.9723   -0.2768    2.7858 H   0  0  0  0  0  0  0  0  0  0  0  0
    5.5829   -2.2310    2.4200 H   0  0  0  0  0  0  0  0  0  0  0  0
    6.7976   -3.2116    1.5830 H   0  0  0  0  0  0  0  0  0  0  0  0
    4.1889   -2.9722    0.7571 H   0  0  0  0  0  0  0  0  0  0  0  0
    5.5549   -3.4035   -0.2728 H   0  0  0  0  0  0  0  0  0  0  0  0
    3.0311   -1.8727   -1.2360 H   0  0  0  0  0  0  0  0  0  0  0  0
    3.7579   -0.3682   -1.7856 H   0  0  0  0  0  0  0  0  0  0  0  0
    3.2825    0.7078    0.4551 H   0  0  0  0  0  0  0  0  0  0  0  0
    1.8994    0.1023   -0.4265 H   0  0  0  0  0  0  0  0  0  0  0  0
    3.3064   -1.2196    1.9730 H   0  0  0  0  0  0  0  0  0  0  0  0
    1.8335   -1.9229    1.1450 H   0  0  0  0  0  0  0  0  0  0  0  0
   -0.1178   -0.6593    0.0343 H   0  0  0  0  0  0  0  0  0  0  0  0
   -1.2647   -1.2081   -1.2531 H   0  0  0  0  0  0  0  0  0  0  0  0
   -4.2144   -1.0903   -2.0589 H   0  0  0  0  0  0  0  0  0  0  0  0
   -3.3827   -2.2889   -0.9105 H   0  0  0  0  0  0  0  0  0  0  0  0
   -2.9049   -3.4853   -2.7572 H   0  0  0  0  0  0  0  0  0  0  0  0
   -3.4418   -2.1971   -3.8876 H   0  0  0  0  0  0  0  0  0  0  0  0
   -1.4969   -0.7077   -4.7448 H   0  0  0  0  0  0  0  0  0  0  0  0
   -0.1272   -0.6913   -3.5866 H   0  0  0  0  0  0  0  0  0  0  0  0
   -1.2765    0.9845   -2.6533 H   0  0  0  0  0  0  0  0  0  0  0  0
   -2.9230    0.3318   -3.1916 H   0  0  0  0  0  0  0  0  0  0  0  0
   -4.1433    1.3041   -0.4394 H   0  0  0  0  0  0  0  0  0  0  0  0
   -6.2184    1.6502    2.5017 H   0  0  0  0  0  0  0  0  0  0  0  0
   -8.4317    2.5779    2.3929 H   0  0  0  0  0  0  0  0  0  0  0  0
   -5.5845    2.8218   -1.5920 H   0  0  0  0  0  0  0  0  0  0  0  0
   -3.6569    3.5088    4.5044 H   0  0  0  0  0  0  0  0  0  0  0  0
    0.3259    1.3266    3.8105 H   0  0  0  0  0  0  0  0  0  0  0  0
    5.8040    0.2770   -1.2050 H   0  0  0  0  0  0  0  0  0  0  0  0
    6.2922   -1.2460   -1.9960 H   0  0  0  0  0  0  0  0  0  0  0  0
    7.8548    0.0040   -0.2015 H   0  0  0  0  0  0  0  0  0  0  0  0
    7.9139   -1.7712   -0.4858 H   0  0  0  0  0  0  0  0  0  0  0  0
  1  2  1  0
  2  3  1  0
  3  4  1  0
  4  5  1  0
  5  6  1  0
  6  7  1  0
  7  8  1  0
  8  9  1  0
  9 10  1  0
 10 11  2  0
 11 12  1  0
 12 13  1  0
 13 14  1  0
 14 15  1  0
 15 16  1  0
 16 17  1  0
 17 18  1  0
 18 19  1  0
 12 20  2  0
 20 21  1  0
 21 22  1  0
 22 23  1  0
 23 24  2  0
 24 25  1  0
 25 26  2  0
 26 27  1  0
 26 28  1  0
 28 29  1  0
 28 30  2  0
 21 31  2  0
 31 32  1  0
 32 33  2  0
 33 34  1  0
 34 35  2  0
  5 36  1  0
 36 37  1  0
 37  2  1  0
 35 10  1  0
 19 14  1  0
 34 20  1  0
 30 23  1  0
  1 38  1  0
  1 39  1  0
  1 40  1  0
  3 41  1  0
  3 42  1  0
  4 43  1  0
  4 44  1  0
  6 45  1  0
  6 46  1  0
  7 47  1  0
  7 48  1  0
  8 49  1  0
  8 50  1  0
 11 51  1  0
 14 52  1  0
 15 53  1  0
 15 54  1  0
 16 55  1  0
 16 56  1  0
 18 57  1  0
 18 58  1  0
 19 59  1  0
 19 60  1  0
 22 61  1  0
 24 62  1  0
 25 63  1  0
 30 64  1  0
 32 65  1  0
 35 66  1  0
 36 67  1  0
 36 68  1  0
 37 69  1  0
 37 70  1  0
M  END
$$$$
[H]N=C(C(C#N)=C([H])c1c([H])c([H])c(O[H])c([H])c1[H])C([H])(C#N)C#N
     RDKit          3D

 26 26  0  0  0  0  0  0  0  0999 V2000
    5.1452    0.3909   -0.1086 O   0  0  0  0  0  0  0  0  0  0  0  0
    3.8042    0.0891   -0.1380 C   0  0  0  0  0  0  0  0  0  0  0  0
    3.1794   -0.2549   -1.3374 C   0  0  0  0  0  0  0  0  0  0  0  0
    1.8322   -0.5546   -1.3485 C   0  0  0  0  0  0  0  0  0  0  0  0
    1.1040   -0.5108   -0.1559 C   0  0  0  0  0  0  0  0  0  0  0  0
   -0.3014   -0.8597   -0.1953 C   0  0  0  0  0  0  0  0  0  0  0  0
   -1.2984   -0.1841    0.3143 C   0  0  0  0  0  0  0  0  0  0  0  0
   -0.9823    1.0577    0.9957 C   0  0  0  0  0  0  0  0  0  0  0  0
   -0.7435    2.0819    1.5324 N   0  0  0  0  0  0  0  0  0  0  0  0
   -2.6831   -0.6163    0.2239 C   0  0  0  0  0  0  0  0  0  0  0  0
   -3.0046   -1.6961   -0.3708 N   0  0  0  0  0  0  0  0  0  0  0  0
   -3.7611    0.2196    0.8441 C   0  0  0  0  0  0  0  0  0  0  0  0
   -3.5622    0.3498    2.2860 C   0  0  0  0  0  0  0  0  0  0  0  0
   -3.4214    0.4432    3.4515 N   0  0  0  0  0  0  0  0  0  0  0  0
   -3.8411    1.5456    0.2312 C   0  0  0  0  0  0  0  0  0  0  0  0
   -3.9240    2.5991   -0.2670 N   0  0  0  0  0  0  0  0  0  0  0  0
    1.7250   -0.1737    1.0133 C   0  0  0  0  0  0  0  0  0  0  0  0
    3.0967    0.1353    1.0449 C   0  0  0  0  0  0  0  0  0  0  0  0
    5.5256    1.3141   -0.2329 H   0  0  0  0  0  0  0  0  0  0  0  0
    3.7986   -0.2695   -2.2216 H   0  0  0  0  0  0  0  0  0  0  0  0
    1.3443   -0.8203   -2.2657 H   0  0  0  0  0  0  0  0  0  0  0  0
   -0.5845   -1.8025   -0.7115 H   0  0  0  0  0  0  0  0  0  0  0  0
   -2.4411   -2.3821   -0.8388 H   0  0  0  0  0  0  0  0  0  0  0  0
   -4.7306   -0.3387    0.7196 H   0  0  0  0  0  0  0  0  0  0  0  0
    1.1649   -0.1631    1.9173 H   0  0  0  0  0  0  0  0  0  0  0  0
    3.5594    0.4001    1.9934 H   0  0  0  0  0  0  0  0  0  0  0  0
  1  2  1  0
  2  3  2  0
  3  4  1  0
  4  5  2  0
  5  6  1  0
  6  7  2  3
  7  8  1  0
  8  9  3  0
  7 10  1  0
 10 11  2  3
 10 12  1  0
 12 13  1  0
 13 14  3  0
 12 15  1  0
 15 16  3  0
  5 17  1  0
 17 18  2  0
 18  2  1  0
  1 19  1  0
  3 20  1  0
  4 21  1  0
  6 22  1  0
 11 23  1  0
 12 24  1  0
 17 25  1  0
 18 26  1  0
M  END
$$$$
[H]C([H])=C([H])C(=O)N([H])c1c(OC([H])([H])C([H])([H])N([H])C(=O)C([H])=C([H])C([H])([H])N(C([H])([H])[H])C([H])([H])[H])c([H])c2nc([H])nc(N([H])c3c([H])c([H])c(Br)c([H])c3F)c2c1[H]
     RDKit          3D

 62 64  0  0  0  0  0  0  0  0999 V2000
    7.3088   -3.1288    0.3085 C   0  0  0  0  0  0  0  0  0  0  0  0
    8.2480   -2.0246    0.3263 N   0  0  0  0  0  0  0  0  0  0  0  0
    7.9820   -1.2330    1.5095 C   0  0  0  0  0  0  0  0  0  0  0  0
    8.0003   -1.1988   -0.8333 C   0  0  0  0  0  0  0  0  0  0  0  0
    6.6764   -0.4847   -0.7496 C   0  0  0  0  0  0  0  0  0  0  0  0
    6.6337    0.8213   -0.7700 C   0  0  0  0  0  0  0  0  0  0  0  0
    5.4006    1.5647   -0.6940 C   0  0  0  0  0  0  0  0  0  0  0  0
    5.3957    2.8381   -0.7153 O   0  0  0  0  0  0  0  0  0  0  0  0
    4.1532    0.9174   -0.5935 N   0  0  0  0  0  0  0  0  0  0  0  0
    2.9142    1.6612   -0.5173 C   0  0  0  0  0  0  0  0  0  0  0  0
    1.7310    0.7188   -0.4171 C   0  0  0  0  0  0  0  0  0  0  0  0
    0.5129    1.4315   -0.3429 O   0  0  0  0  0  0  0  0  0  0  0  0
   -0.6774    0.7319   -0.2455 C   0  0  0  0  0  0  0  0  0  0  0  0
   -0.7089   -0.6372   -0.2180 C   0  0  0  0  0  0  0  0  0  0  0  0
   -1.8968   -1.3464   -0.1208 C   0  0  0  0  0  0  0  0  0  0  0  0
   -1.9175   -2.6810   -0.0905 N   0  0  0  0  0  0  0  0  0  0  0  0
   -3.0394   -3.4046    0.0068 C   0  0  0  0  0  0  0  0  0  0  0  0
   -4.1835   -2.7285    0.0755 N   0  0  0  0  0  0  0  0  0  0  0  0
   -4.2708   -1.3796    0.0522 C   0  0  0  0  0  0  0  0  0  0  0  0
   -5.4909   -0.7006    0.1072 N   0  0  0  0  0  0  0  0  0  0  0  0
   -6.8098   -1.2233    0.2318 C   0  0  0  0  0  0  0  0  0  0  0  0
   -7.1147   -2.5414    0.4035 C   0  0  0  0  0  0  0  0  0  0  0  0
   -8.4375   -2.9598    0.5304 C   0  0  0  0  0  0  0  0  0  0  0  0
   -9.4925   -2.0853    0.4910 C   0  0  0  0  0  0  0  0  0  0  0  0
  -11.3019   -2.6509    0.6635 Br  0  0  0  0  0  0  0  0  0  0  0  0
   -9.1669   -0.7593    0.3173 C   0  0  0  0  0  0  0  0  0  0  0  0
   -7.8923   -0.3242    0.1912 C   0  0  0  0  0  0  0  0  0  0  0  0
   -7.6195    1.0134    0.0175 F   0  0  0  0  0  0  0  0  0  0  0  0
   -3.0811   -0.6522   -0.0499 C   0  0  0  0  0  0  0  0  0  0  0  0
   -3.0327    0.7320   -0.0789 C   0  0  0  0  0  0  0  0  0  0  0  0
   -1.8672    1.4736   -0.1750 C   0  0  0  0  0  0  0  0  0  0  0  0
   -1.7941    2.8830   -0.2014 N   0  0  0  0  0  0  0  0  0  0  0  0
   -2.8191    3.8364   -0.1595 C   0  0  0  0  0  0  0  0  0  0  0  0
   -4.0167    3.4801   -0.0890 O   0  0  0  0  0  0  0  0  0  0  0  0
   -2.5502    5.2771   -0.1943 C   0  0  0  0  0  0  0  0  0  0  0  0
   -1.3567    5.7851   -0.2646 C   0  0  0  0  0  0  0  0  0  0  0  0
    6.8779   -3.3058    1.3325 H   0  0  0  0  0  0  0  0  0  0  0  0
    6.4811   -3.0050   -0.3949 H   0  0  0  0  0  0  0  0  0  0  0  0
    7.8462   -4.0764    0.0598 H   0  0  0  0  0  0  0  0  0  0  0  0
    8.7363   -1.4566    2.3086 H   0  0  0  0  0  0  0  0  0  0  0  0
    6.9575   -1.4524    1.8941 H   0  0  0  0  0  0  0  0  0  0  0  0
    8.0805   -0.1500    1.2899 H   0  0  0  0  0  0  0  0  0  0  0  0
    7.9285   -1.8750   -1.7125 H   0  0  0  0  0  0  0  0  0  0  0  0
    8.8305   -0.4810   -0.9780 H   0  0  0  0  0  0  0  0  0  0  0  0
    5.8087   -1.1078   -0.6763 H   0  0  0  0  0  0  0  0  0  0  0  0
    7.5671    1.3740   -0.8471 H   0  0  0  0  0  0  0  0  0  0  0  0
    4.1134   -0.1129   -0.5731 H   0  0  0  0  0  0  0  0  0  0  0  0
    2.8483    2.2904   -1.4230 H   0  0  0  0  0  0  0  0  0  0  0  0
    2.8874    2.3014    0.3862 H   0  0  0  0  0  0  0  0  0  0  0  0
    1.7690    0.0794   -1.3314 H   0  0  0  0  0  0  0  0  0  0  0  0
    1.8312    0.0713    0.4557 H   0  0  0  0  0  0  0  0  0  0  0  0
    0.1919   -1.2338   -0.2699 H   0  0  0  0  0  0  0  0  0  0  0  0
   -3.0302   -4.5075    0.0294 H   0  0  0  0  0  0  0  0  0  0  0  0
   -5.4314    0.3661    0.0454 H   0  0  0  0  0  0  0  0  0  0  0  0
   -6.3584   -3.3130    0.4539 H   0  0  0  0  0  0  0  0  0  0  0  0
   -8.6463   -4.0075    0.6651 H   0  0  0  0  0  0  0  0  0  0  0  0
   -9.9846   -0.0490    0.2819 H   0  0  0  0  0  0  0  0  0  0  0  0
   -3.9388    1.2738   -0.0219 H   0  0  0  0  0  0  0  0  0  0  0  0
   -0.7854    3.2795   -0.2636 H   0  0  0  0  0  0  0  0  0  0  0  0
   -3.3855    5.9595   -0.1597 H   0  0  0  0  0  0  0  0  0  0  0  0
   -1.1893    6.8799   -0.2893 H   0  0  0  0  0  0  0  0  0  0  0  0
   -0.4244    5.2373   -0.3056 H   0  0  0  0  0  0  0  0  0  0  0  0
  1  2  1  0
  2  3  1  0
  2  4  1  0
  4  5  1  0
  5  6  2  3
  6  7  1  0
  7  8  2  0
  7  9  1  0
  9 10  1  0
 10 11  1  0
 11 12  1  0
 12 13  1  0
 13 14  2  0
 14 15  1  0
 15 16  2  0
 16 17  1  0
 17 18  2  0
 18 19  1  0
 19 20  1  0
 20 21  1  0
 21 22  2  0
 22 23  1  0
 23 24  2  0
 24 25  1  0
 24 26  1  0
 26 27  2  0
 27 28  1  0
 19 29  2  0
 29 30  1  0
 30 31  2  0
 31 32  1  0
 32 33  1  0
 33 34  2  0
 33 35  1  0
 35 36  2  3
 31 13  1  0
 29 15  1  0
 27 21  1  0
  1 37  1  0
  1 38  1  0
  1 39  1  0
  3 40  1  0
  3 41  1  0
  3 42  1  0
  4 43  1  0
  4 44  1  0
  5 45  1  0
  6 46  1  0
  9 47  1  0
 10 48  1  0
 10 49  1  0
 11 50  1  0
 11 51  1  0
 14 52  1  0
 17 53  1  0
 20 54  1  0
 22 55  1  0
 23 56  1  0
 26 57  1  0
 30 58  1  0
 32 59  1  0
 35 60  1  0
 36 61  1  0
 36 62  1  0
M  END
$$$$
[H]C#Cc1c([H])c([H])c([H])c(N([H])c2nc([H])nc3c([H])c(OC([H])([H])C([H])([H])OC([H])([H])[H])c(N([H])C(=O)/C([H])=C(\[H])C([H])([H])N(C([H])([H])[H])C([H])([H])[H])c([H])c23)c1[H]
     RDKit          3D

 60 62  0  0  0  0  0  0  0  0999 V2000
    0.5140    7.1015   -1.4299 C   0  0  0  0  0  0  0  0  0  0  0  0
    1.0131    6.4942   -0.2741 O   0  0  0  0  0  0  0  0  0  0  0  0
    0.9192    5.1093   -0.4883 C   0  0  0  0  0  0  0  0  0  0  0  0
    1.4282    4.3573    0.6979 C   0  0  0  0  0  0  0  0  0  0  0  0
    1.3724    2.9776    0.5905 O   0  0  0  0  0  0  0  0  0  0  0  0
    0.2491    2.1869    0.4995 C   0  0  0  0  0  0  0  0  0  0  0  0
   -1.0270    2.6789    0.5397 C   0  0  0  0  0  0  0  0  0  0  0  0
   -2.1673    1.8901    0.4519 C   0  0  0  0  0  0  0  0  0  0  0  0
   -3.3907    2.4176    0.4923 N   0  0  0  0  0  0  0  0  0  0  0  0
   -4.5015    1.6667    0.4062 C   0  0  0  0  0  0  0  0  0  0  0  0
   -4.3744    0.3574    0.2768 N   0  0  0  0  0  0  0  0  0  0  0  0
   -3.1585   -0.2432    0.2290 C   0  0  0  0  0  0  0  0  0  0  0  0
   -3.0590   -1.6432    0.0589 N   0  0  0  0  0  0  0  0  0  0  0  0
   -4.1383   -2.5591   -0.0188 C   0  0  0  0  0  0  0  0  0  0  0  0
   -3.9313   -3.7353   -0.7550 C   0  0  0  0  0  0  0  0  0  0  0  0
   -4.9561   -4.6405   -0.8213 C   0  0  0  0  0  0  0  0  0  0  0  0
   -6.1623   -4.4229   -0.1915 C   0  0  0  0  0  0  0  0  0  0  0  0
   -6.4000   -3.2816    0.5395 C   0  0  0  0  0  0  0  0  0  0  0  0
   -5.3386   -2.3589    0.6005 C   0  0  0  0  0  0  0  0  0  0  0  0
   -7.6510   -3.0244    1.2063 C   0  0  0  0  0  0  0  0  0  0  0  0
   -8.7173   -2.8073    1.7489 C   0  0  0  0  0  0  0  0  0  0  0  0
   -2.0198    0.5261    0.3174 C   0  0  0  0  0  0  0  0  0  0  0  0
   -0.7252    0.0097    0.2765 C   0  0  0  0  0  0  0  0  0  0  0  0
    0.4065    0.7853    0.3617 C   0  0  0  0  0  0  0  0  0  0  0  0
    1.7228    0.2939    0.3047 N   0  0  0  0  0  0  0  0  0  0  0  0
    2.1619   -1.0409    0.2077 C   0  0  0  0  0  0  0  0  0  0  0  0
    1.3893   -2.0549    0.1607 O   0  0  0  0  0  0  0  0  0  0  0  0
    3.5908   -1.4050    0.1484 C   0  0  0  0  0  0  0  0  0  0  0  0
    4.5861   -0.5554    0.1698 C   0  0  0  0  0  0  0  0  0  0  0  0
    6.0027   -0.9045    0.1119 C   0  0  0  0  0  0  0  0  0  0  0  0
    6.3881   -2.2389    0.0547 N   0  0  0  0  0  0  0  0  0  0  0  0
    6.1834   -3.0481    1.2157 C   0  0  0  0  0  0  0  0  0  0  0  0
    6.2506   -2.9317   -1.1873 C   0  0  0  0  0  0  0  0  0  0  0  0
    1.1314    6.7828   -2.2992 H   0  0  0  0  0  0  0  0  0  0  0  0
    0.4880    8.2049   -1.3561 H   0  0  0  0  0  0  0  0  0  0  0  0
   -0.5082    6.6863   -1.5765 H   0  0  0  0  0  0  0  0  0  0  0  0
   -0.0513    4.8627   -0.8743 H   0  0  0  0  0  0  0  0  0  0  0  0
    1.6394    4.9080   -1.3517 H   0  0  0  0  0  0  0  0  0  0  0  0
    0.8110    4.7089    1.5851 H   0  0  0  0  0  0  0  0  0  0  0  0
    2.4605    4.7218    0.9361 H   0  0  0  0  0  0  0  0  0  0  0  0
   -1.2157    3.7422    0.6715 H   0  0  0  0  0  0  0  0  0  0  0  0
   -5.5050    2.1195    0.4408 H   0  0  0  0  0  0  0  0  0  0  0  0
   -2.1073   -2.0928   -0.0196 H   0  0  0  0  0  0  0  0  0  0  0  0
   -2.9751   -3.9014   -1.2503 H   0  0  0  0  0  0  0  0  0  0  0  0
   -4.8052   -5.5666   -1.3967 H   0  0  0  0  0  0  0  0  0  0  0  0
   -6.9845   -5.1480   -0.2449 H   0  0  0  0  0  0  0  0  0  0  0  0
   -5.5752   -1.4824    1.2122 H   0  0  0  0  0  0  0  0  0  0  0  0
   -9.6524   -2.5969    2.2236 H   0  0  0  0  0  0  0  0  0  0  0  0
   -0.6504   -1.0578    0.1721 H   0  0  0  0  0  0  0  0  0  0  0  0
    2.5165    1.0107    0.3376 H   0  0  0  0  0  0  0  0  0  0  0  0
    3.8925   -2.4516    0.0756 H   0  0  0  0  0  0  0  0  0  0  0  0
    4.3784    0.5228    0.2370 H   0  0  0  0  0  0  0  0  0  0  0  0
    6.4197   -0.3795   -0.8018 H   0  0  0  0  0  0  0  0  0  0  0  0
    6.5291   -0.3940    0.9578 H   0  0  0  0  0  0  0  0  0  0  0  0
    5.5093   -3.8999    1.1007 H   0  0  0  0  0  0  0  0  0  0  0  0
    7.1800   -3.4639    1.5367 H   0  0  0  0  0  0  0  0  0  0  0  0
    5.8328   -2.4213    2.0850 H   0  0  0  0  0  0  0  0  0  0  0  0
    5.6635   -3.8691   -1.1335 H   0  0  0  0  0  0  0  0  0  0  0  0
    7.2727   -3.2429   -1.5231 H   0  0  0  0  0  0  0  0  0  0  0  0
    5.8455   -2.2591   -1.9445 H   0  0  0  0  0  0  0  0  0  0  0  0
  1  2  1  0
  2  3  1  0
  3  4  1  0
  4  5  1  0
  5  6  1  0
  6  7  2  0
  7  8  1  0
  8  9  2  0
  9 10  1  0
 10 11  2  0
 11 12  1  0
 12 13  1  0
 13 14  1  0
 14 15  2  0
 15 16  1  0
 16 17  2  0
 17 18  1  0
 18 19  2  0
 18 20  1  0
 20 21  3  0
 12 22  2  0
 22 23  1  0
 23 24  2  0
 24 25  1  0
 25 26  1  0
 26 27  2  0
 26 28  1  0
 28 29  2  0
 29 30  1  0
 30 31  1  0
 31 32  1  0
 31 33  1  0
 24  6  1  0
 22  8  1  0
 19 14  1  0
  1 34  1  0
  1 35  1  0
  1 36  1  0
  3 37  1  0
  3 38  1  0
  4 39  1  0
  4 40  1  0
  7 41  1  0
 10 42  1  0
 13 43  1  0
 15 44  1  0
 16 45  1  0
 17 46  1  0
 19 47  1  0
 21 48  1  0
 23 49  1  0
 25 50  1  0
 28 51  1  0
 29 52  1  0
 30 53  1  0
 30 54  1  0
 32 55  1  0
 32 56  1  0
 32 57  1  0
 33 58  1  0
 33 59  1  0
 33 60  1  0
M  END
$$$$
[H]OC([H])([H])C1([H])N(C([H])([H])/C([H])=C(\[H])C(=O)N([H])c2c(OC([H])([H])[C@@]3([H])OC([H])([H])C([H])([H])OC3([H])[H])c([H])c3nc([H])nc(N([H])c4c([H])c([H])c(F)c(Cl)c4[H])c3c2[H])C([H])([H])C1([H])[H]
     RDKit          3D

 68 72  0  0  0  0  0  0  0  0999 V2000
    8.1044    0.8884   -1.6478 O   0  0  0  0  0  0  0  0  0  0  0  0
    7.9260    1.5966   -0.4717 C   0  0  0  0  0  0  0  0  0  0  0  0
    7.4179    0.7213    0.6528 C   0  0  0  0  0  0  0  0  0  0  0  0
    8.0688   -0.6256    0.7551 C   0  0  0  0  0  0  0  0  0  0  0  0
    6.7320   -1.2150    0.4108 C   0  0  0  0  0  0  0  0  0  0  0  0
    6.1396    0.1077    0.3477 N   0  0  0  0  0  0  0  0  0  0  0  0
    5.1912    0.3862    1.4092 C   0  0  0  0  0  0  0  0  0  0  0  0
    3.8658   -0.2266    1.1342 C   0  0  0  0  0  0  0  0  0  0  0  0
    2.7633    0.4917    1.0251 C   0  0  0  0  0  0  0  0  0  0  0  0
    1.4566   -0.1870    0.7467 C   0  0  0  0  0  0  0  0  0  0  0  0
    1.4414   -1.4165    0.6243 O   0  0  0  0  0  0  0  0  0  0  0  0
    0.3379    0.6821    0.6497 N   0  0  0  0  0  0  0  0  0  0  0  0
   -1.0055    0.3293    0.3968 C   0  0  0  0  0  0  0  0  0  0  0  0
   -1.4211   -0.9682    0.2002 C   0  0  0  0  0  0  0  0  0  0  0  0
   -2.7576   -1.2613   -0.0461 C   0  0  0  0  0  0  0  0  0  0  0  0
   -3.2028   -2.5717   -0.2505 C   0  0  0  0  0  0  0  0  0  0  0  0
   -2.3254   -3.6561   -0.1764 N   0  0  0  0  0  0  0  0  0  0  0  0
   -2.7216   -4.9913   -0.4178 C   0  0  0  0  0  0  0  0  0  0  0  0
   -3.6913   -5.3936   -1.2922 C   0  0  0  0  0  0  0  0  0  0  0  0
   -4.0293   -6.7483   -1.4290 C   0  0  0  0  0  0  0  0  0  0  0  0
   -3.4025   -7.7178   -0.6953 C   0  0  0  0  0  0  0  0  0  0  0  0
   -3.7364   -9.0256   -0.8347 F   0  0  0  0  0  0  0  0  0  0  0  0
   -2.4291   -7.3379    0.1841 C   0  0  0  0  0  0  0  0  0  0  0  0
   -1.6383   -8.5976    1.1137 Cl  0  0  0  0  0  0  0  0  0  0  0  0
   -2.1069   -6.0326    0.3134 C   0  0  0  0  0  0  0  0  0  0  0  0
   -4.5238   -2.7710   -0.4865 N   0  0  0  0  0  0  0  0  0  0  0  0
   -5.4200   -1.7907   -0.5344 C   0  0  0  0  0  0  0  0  0  0  0  0
   -4.9758   -0.5439   -0.3363 N   0  0  0  0  0  0  0  0  0  0  0  0
   -3.6766   -0.2633   -0.0957 C   0  0  0  0  0  0  0  0  0  0  0  0
   -3.2460    1.0344    0.1039 C   0  0  0  0  0  0  0  0  0  0  0  0
   -1.9433    1.4080    0.3517 C   0  0  0  0  0  0  0  0  0  0  0  0
   -1.5159    2.6612    0.5497 O   0  0  0  0  0  0  0  0  0  0  0  0
   -1.9480    3.9340    0.5855 C   0  0  0  0  0  0  0  0  0  0  0  0
   -2.4687    4.5894   -0.6542 C   0  0  2  0  0  0  0  0  0  0  0  0
   -2.8669    6.0168   -0.2207 C   0  0  0  0  0  0  0  0  0  0  0  0
   -3.7846    5.8306    0.8119 O   0  0  0  0  0  0  0  0  0  0  0  0
   -4.9400    5.2993    0.2917 C   0  0  0  0  0  0  0  0  0  0  0  0
   -4.7696    4.6258   -1.0309 C   0  0  0  0  0  0  0  0  0  0  0  0
   -3.5475    4.0619   -1.2668 O   0  0  0  0  0  0  0  0  0  0  0  0
    8.4876    1.5197   -2.3079 H   0  0  0  0  0  0  0  0  0  0  0  0
    7.1872    2.3956   -0.6244 H   0  0  0  0  0  0  0  0  0  0  0  0
    8.8740    2.0766   -0.1715 H   0  0  0  0  0  0  0  0  0  0  0  0
    7.4743    1.2574    1.6109 H   0  0  0  0  0  0  0  0  0  0  0  0
    8.3593   -0.9068    1.8053 H   0  0  0  0  0  0  0  0  0  0  0  0
    8.8754   -0.8211    0.0186 H   0  0  0  0  0  0  0  0  0  0  0  0
    6.7273   -1.6996   -0.5886 H   0  0  0  0  0  0  0  0  0  0  0  0
    6.2727   -1.8479    1.2080 H   0  0  0  0  0  0  0  0  0  0  0  0
    5.1412    1.4671    1.5458 H   0  0  0  0  0  0  0  0  0  0  0  0
    5.6070   -0.0646    2.3322 H   0  0  0  0  0  0  0  0  0  0  0  0
    3.7824   -1.2980    1.0162 H   0  0  0  0  0  0  0  0  0  0  0  0
    2.8307    1.5600    1.1403 H   0  0  0  0  0  0  0  0  0  0  0  0
    0.5237    1.7406    0.7831 H   0  0  0  0  0  0  0  0  0  0  0  0
   -0.7317   -1.7949    0.2276 H   0  0  0  0  0  0  0  0  0  0  0  0
   -1.3066   -3.5532    0.0666 H   0  0  0  0  0  0  0  0  0  0  0  0
   -4.1926   -4.6651   -1.9073 H   0  0  0  0  0  0  0  0  0  0  0  0
   -4.8052   -7.0069   -2.1361 H   0  0  0  0  0  0  0  0  0  0  0  0
   -1.3316   -5.7327    1.0142 H   0  0  0  0  0  0  0  0  0  0  0  0
   -6.4788   -2.0109   -0.7296 H   0  0  0  0  0  0  0  0  0  0  0  0
   -4.0379    1.7749    0.0778 H   0  0  0  0  0  0  0  0  0  0  0  0
   -1.1743    4.6260    1.0871 H   0  0  0  0  0  0  0  0  0  0  0  0
   -2.8157    4.0417    1.3424 H   0  0  0  0  0  0  0  0  0  0  0  0
   -1.6562    4.6652   -1.4286 H   0  0  0  0  0  0  0  0  0  0  0  0
   -3.3714    6.4760   -1.0927 H   0  0  0  0  0  0  0  0  0  0  0  0
   -1.9782    6.5862    0.1149 H   0  0  0  0  0  0  0  0  0  0  0  0
   -5.7502    6.0670    0.2563 H   0  0  0  0  0  0  0  0  0  0  0  0
   -5.3146    4.5288    1.0187 H   0  0  0  0  0  0  0  0  0  0  0  0
   -5.6076    3.8873   -1.2079 H   0  0  0  0  0  0  0  0  0  0  0  0
   -4.9408    5.4083   -1.8280 H   0  0  0  0  0  0  0  0  0  0  0  0
  1  2  1  0
  2  3  1  0
  3  4  1  0
  4  5  1  0
  5  6  1  0
  6  7  1  0
  7  8  1  0
  8  9  2  0
  9 10  1  0
 10 11  2  0
 10 12  1  0
 12 13  1  0
 13 14  2  0
 14 15  1  0
 15 16  2  0
 16 17  1  0
 17 18  1  0
 18 19  2  0
 19 20  1  0
 20 21  2  0
 21 22  1  0
 21 23  1  0
 23 24  1  0
 23 25  2  0
 16 26  1  0
 26 27  2  0
 27 28  1  0
 28 29  2  0
 29 30  1  0
 30 31  2  0
 31 32  1  0
 32 33  1  0
 33 34  1  0
 34 35  1  0
 35 36  1  0
 36 37  1  0
 37 38  1  0
 38 39  1  0
  6  3  1  0
 31 13  1  0
 39 34  1  0
 29 15  1  0
 25 18  1  0
  1 40  1  0
  2 41  1  0
  2 42  1  0
  3 43  1  0
  4 44  1  0
  4 45  1  0
  5 46  1  0
  5 47  1  0
  7 48  1  0
  7 49  1  0
  8 50  1  0
  9 51  1  0
 12 52  1  0
 14 53  1  0
 17 54  1  0
 19 55  1  0
 20 56  1  0
 25 57  1  0
 27 58  1  0
 30 59  1  0
 33 60  1  0
 33 61  1  0
 34 62  1  6
 35 63  1  0
 35 64  1  0
 37 65  1  0
 37 66  1  0
 38 67  1  0
 38 68  1  0
M  END
$$$$
[H]OC(C([H])([H])[H])(C([H])([H])[H])C([H])([H])Oc1c([H])c([H])c([H])c(N([H])c2nc([H])c(F)c(N([H])c3c([H])c([H])c([H])c(N([H])C(=O)C([H])=C([H])[H])c3[H])n2)c1[H]
     RDKit          3D

 56 58  0  0  0  0  0  0  0  0999 V2000
   -6.4426    2.1146    2.9186 C   0  0  0  0  0  0  0  0  0  0  0  0
   -7.0787    1.9832    1.5412 C   0  0  0  0  0  0  0  0  0  0  0  0
   -6.5205    3.1034    0.6890 C   0  0  0  0  0  0  0  0  0  0  0  0
   -8.4641    2.0592    1.6510 O   0  0  0  0  0  0  0  0  0  0  0  0
   -6.6475    0.6729    0.9171 C   0  0  0  0  0  0  0  0  0  0  0  0
   -5.2516    0.6639    0.8375 O   0  0  0  0  0  0  0  0  0  0  0  0
   -4.5135   -0.3853    0.3164 C   0  0  0  0  0  0  0  0  0  0  0  0
   -5.1688   -1.5061   -0.1620 C   0  0  0  0  0  0  0  0  0  0  0  0
   -4.4850   -2.5719   -0.6874 C   0  0  0  0  0  0  0  0  0  0  0  0
   -3.0819   -2.5278   -0.7429 C   0  0  0  0  0  0  0  0  0  0  0  0
   -2.3891   -1.4409   -0.2825 C   0  0  0  0  0  0  0  0  0  0  0  0
   -0.9933   -1.2991   -0.3144 N   0  0  0  0  0  0  0  0  0  0  0  0
   -0.0457   -2.0437   -1.0368 C   0  0  0  0  0  0  0  0  0  0  0  0
   -0.3257   -3.0590   -1.8657 N   0  0  0  0  0  0  0  0  0  0  0  0
    0.6289   -3.7187   -2.5169 C   0  0  0  0  0  0  0  0  0  0  0  0
    1.9504   -3.3909   -2.3711 C   0  0  0  0  0  0  0  0  0  0  0  0
    2.9389   -4.0665   -3.0389 F   0  0  0  0  0  0  0  0  0  0  0  0
    2.2725   -2.3348   -1.5120 C   0  0  0  0  0  0  0  0  0  0  0  0
    3.6216   -1.9604   -1.3595 N   0  0  0  0  0  0  0  0  0  0  0  0
    4.1349   -0.9570   -0.5361 C   0  0  0  0  0  0  0  0  0  0  0  0
    3.4706   -0.4682    0.5454 C   0  0  0  0  0  0  0  0  0  0  0  0
    4.0346    0.5568    1.3152 C   0  0  0  0  0  0  0  0  0  0  0  0
    5.2423    1.0769    1.0009 C   0  0  0  0  0  0  0  0  0  0  0  0
    5.9691    0.6044   -0.1084 C   0  0  0  0  0  0  0  0  0  0  0  0
    7.2123    1.1944   -0.3305 N   0  0  0  0  0  0  0  0  0  0  0  0
    7.9089    1.1539   -1.5498 C   0  0  0  0  0  0  0  0  0  0  0  0
    7.4476    0.5618   -2.5947 O   0  0  0  0  0  0  0  0  0  0  0  0
    9.2160    1.7766   -1.7463 C   0  0  0  0  0  0  0  0  0  0  0  0
    9.8138    2.4100   -0.7926 C   0  0  0  0  0  0  0  0  0  0  0  0
    5.3857   -0.3992   -0.8378 C   0  0  0  0  0  0  0  0  0  0  0  0
    1.2568   -1.7398   -0.9094 N   0  0  0  0  0  0  0  0  0  0  0  0
   -3.1519   -0.3837    0.2435 C   0  0  0  0  0  0  0  0  0  0  0  0
   -5.3914    2.4112    2.7466 H   0  0  0  0  0  0  0  0  0  0  0  0
   -6.9286    2.8990    3.5086 H   0  0  0  0  0  0  0  0  0  0  0  0
   -6.5011    1.1341    3.4080 H   0  0  0  0  0  0  0  0  0  0  0  0
   -6.9459    2.9623   -0.3359 H   0  0  0  0  0  0  0  0  0  0  0  0
   -5.4352    2.9726    0.6109 H   0  0  0  0  0  0  0  0  0  0  0  0
   -6.7555    4.1042    1.1050 H   0  0  0  0  0  0  0  0  0  0  0  0
   -8.7003    2.8974    2.0957 H   0  0  0  0  0  0  0  0  0  0  0  0
   -6.9712   -0.2029    1.5204 H   0  0  0  0  0  0  0  0  0  0  0  0
   -7.1220    0.6505   -0.1047 H   0  0  0  0  0  0  0  0  0  0  0  0
   -6.2461   -1.5657   -0.1313 H   0  0  0  0  0  0  0  0  0  0  0  0
   -4.9886   -3.4519   -1.0637 H   0  0  0  0  0  0  0  0  0  0  0  0
   -2.5843   -3.3762   -1.1457 H   0  0  0  0  0  0  0  0  0  0  0  0
   -0.5748   -0.5163    0.2988 H   0  0  0  0  0  0  0  0  0  0  0  0
    0.3847   -4.5554   -3.1987 H   0  0  0  0  0  0  0  0  0  0  0  0
    4.3215   -2.5247   -1.9509 H   0  0  0  0  0  0  0  0  0  0  0  0
    2.5064   -0.8186    0.9023 H   0  0  0  0  0  0  0  0  0  0  0  0
    3.4859    0.9376    2.1809 H   0  0  0  0  0  0  0  0  0  0  0  0
    5.6765    1.8810    1.6093 H   0  0  0  0  0  0  0  0  0  0  0  0
    7.6788    1.7066    0.4639 H   0  0  0  0  0  0  0  0  0  0  0  0
    9.6947    1.7071   -2.7092 H   0  0  0  0  0  0  0  0  0  0  0  0
    9.4089    2.5208    0.1778 H   0  0  0  0  0  0  0  0  0  0  0  0
   10.7861    2.8640   -0.9662 H   0  0  0  0  0  0  0  0  0  0  0  0
    5.8903   -0.8171   -1.6882 H   0  0  0  0  0  0  0  0  0  0  0  0
   -2.6336    0.5014    0.6206 H   0  0  0  0  0  0  0  0  0  0  0  0
  1  2  1  0
  2  3  1  0
  2  4  1  0
  2  5  1  0
  5  6  1  0
  6  7  1  0
  7  8  2  0
  8  9  1  0
  9 10  2  0
 10 11  1  0
 11 12  1  0
 12 13  1  0
 13 14  2  0
 14 15  1  0
 15 16  2  0
 16 17  1  0
 16 18  1  0
 18 19  1  0
 19 20  1  0
 20 21  2  0
 21 22  1  0
 22 23  2  0
 23 24  1  0
 24 25  1  0
 25 26  1  0
 26 27  2  0
 26 28  1  0
 28 29  2  3
 24 30  2  0
 18 31  2  0
 11 32  2  0
 32  7  1  0
 31 13  1  0
 30 20  1  0
  1 33  1  0
  1 34  1  0
  1 35  1  0
  3 36  1  0
  3 37  1  0
  3 38  1  0
  4 39  1  0
  5 40  1  0
  5 41  1  0
  8 42  1  0
  9 43  1  0
 10 44  1  0
 12 45  1  0
 15 46  1  0
 19 47  1  0
 21 48  1  0
 22 49  1  0
 23 50  1  0
 25 51  1  0
 28 52  1  0
 29 53  1  0
 29 54  1  0
 30 55  1  0
 32 56  1  0
M  END
$$$$
[H]c1nc(N([H])c2c([H])c([H])c(F)c(Cl)c2[H])c2c([H])c(OC([H])([H])C([H])([H])C([H])([H])C([H])([H])n3c(C([H])([H])[H])nc([H])c3[N+](=O)[O-])c(OC([H])([H])[H])c([H])c2n1
     RDKit          3D

 57 60  0  0  0  0  0  0  0  0999 V2000
   -0.7357   -5.0288   -0.3173 C   0  0  0  0  0  0  0  0  0  0  0  0
   -0.7578   -3.6315   -0.4741 O   0  0  0  0  0  0  0  0  0  0  0  0
    0.4135   -2.9126   -0.3332 C   0  0  0  0  0  0  0  0  0  0  0  0
    1.6002   -3.5505   -0.0412 C   0  0  0  0  0  0  0  0  0  0  0  0
    2.7740   -2.8433    0.1014 C   0  0  0  0  0  0  0  0  0  0  0  0
    3.9271   -3.4985    0.3901 N   0  0  0  0  0  0  0  0  0  0  0  0
    5.0418   -2.7610    0.5194 C   0  0  0  0  0  0  0  0  0  0  0  0
    5.0191   -1.4517    0.3719 N   0  0  0  0  0  0  0  0  0  0  0  0
    3.9061   -0.7501    0.0856 C   0  0  0  0  0  0  0  0  0  0  0  0
    3.9466    0.6399   -0.0941 N   0  0  0  0  0  0  0  0  0  0  0  0
    5.1176    1.4387    0.0757 C   0  0  0  0  0  0  0  0  0  0  0  0
    6.0938    1.1393    0.9753 C   0  0  0  0  0  0  0  0  0  0  0  0
    7.2241    1.9423    1.0601 C   0  0  0  0  0  0  0  0  0  0  0  0
    7.3468    3.0326    0.2361 C   0  0  0  0  0  0  0  0  0  0  0  0
    8.4203    3.8424    0.2774 F   0  0  0  0  0  0  0  0  0  0  0  0
    6.3564    3.3344   -0.6734 C   0  0  0  0  0  0  0  0  0  0  0  0
    6.5002    4.7365   -1.7416 Cl  0  0  0  0  0  0  0  0  0  0  0  0
    5.2416    2.5520   -0.7658 C   0  0  0  0  0  0  0  0  0  0  0  0
    2.7326   -1.4679   -0.0568 C   0  0  0  0  0  0  0  0  0  0  0  0
    1.5479   -0.8443   -0.3468 C   0  0  0  0  0  0  0  0  0  0  0  0
    0.3417   -1.5452   -0.4961 C   0  0  0  0  0  0  0  0  0  0  0  0
   -0.8162   -0.8532   -0.7886 O   0  0  0  0  0  0  0  0  0  0  0  0
   -0.7866    0.5291   -0.9342 C   0  0  0  0  0  0  0  0  0  0  0  0
   -2.1146    1.1202   -1.2475 C   0  0  0  0  0  0  0  0  0  0  0  0
   -3.1556    0.8577   -0.1891 C   0  0  0  0  0  0  0  0  0  0  0  0
   -4.4890    1.4861   -0.5665 C   0  0  0  0  0  0  0  0  0  0  0  0
   -5.4936    1.2539    0.4169 N   0  0  0  0  0  0  0  0  0  0  0  0
   -6.3176    0.1673    0.3852 C   0  0  0  0  0  0  0  0  0  0  0  0
   -6.3294   -0.9231   -0.6219 C   0  0  0  0  0  0  0  0  0  0  0  0
   -7.1214    0.2833    1.4554 N   0  0  0  0  0  0  0  0  0  0  0  0
   -6.8060    1.4038    2.1275 C   0  0  0  0  0  0  0  0  0  0  0  0
   -5.7629    2.0305    1.4664 C   0  0  0  0  0  0  0  0  0  0  0  0
   -5.1603    3.2278    1.8707 N   0  0  0  0  0  0  0  0  0  0  0  0
   -4.1320    3.8581    1.2368 O   0  0  0  0  0  0  0  0  0  0  0  0
   -5.5673    3.8258    2.9154 O   0  0  0  0  0  0  0  0  0  0  0  0
   -1.7199   -5.4750   -0.5794 H   0  0  0  0  0  0  0  0  0  0  0  0
   -0.4815   -5.2913    0.7371 H   0  0  0  0  0  0  0  0  0  0  0  0
    0.0480   -5.5127   -0.9665 H   0  0  0  0  0  0  0  0  0  0  0  0
    1.6564   -4.6384    0.0882 H   0  0  0  0  0  0  0  0  0  0  0  0
    5.9844   -3.2653    0.7521 H   0  0  0  0  0  0  0  0  0  0  0  0
    3.0933    1.1948   -0.3696 H   0  0  0  0  0  0  0  0  0  0  0  0
    6.0380    0.3047    1.6635 H   0  0  0  0  0  0  0  0  0  0  0  0
    8.0011    1.7204    1.7612 H   0  0  0  0  0  0  0  0  0  0  0  0
    4.4525    2.7706   -1.4723 H   0  0  0  0  0  0  0  0  0  0  0  0
    1.4783    0.2330   -0.4760 H   0  0  0  0  0  0  0  0  0  0  0  0
   -0.1084    0.7606   -1.7932 H   0  0  0  0  0  0  0  0  0  0  0  0
   -0.3488    1.0607   -0.0645 H   0  0  0  0  0  0  0  0  0  0  0  0
   -2.0306    2.1960   -1.4007 H   0  0  0  0  0  0  0  0  0  0  0  0
   -2.4955    0.6580   -2.1962 H   0  0  0  0  0  0  0  0  0  0  0  0
   -2.7669    1.2438    0.7730 H   0  0  0  0  0  0  0  0  0  0  0  0
   -3.3503   -0.2241   -0.0423 H   0  0  0  0  0  0  0  0  0  0  0  0
   -4.2801    2.5296   -0.8151 H   0  0  0  0  0  0  0  0  0  0  0  0
   -4.7911    1.0017   -1.5243 H   0  0  0  0  0  0  0  0  0  0  0  0
   -5.3336   -1.3255   -0.8381 H   0  0  0  0  0  0  0  0  0  0  0  0
   -6.9537   -1.7449   -0.2388 H   0  0  0  0  0  0  0  0  0  0  0  0
   -6.7973   -0.5885   -1.5825 H   0  0  0  0  0  0  0  0  0  0  0  0
   -7.2996    1.7516    3.0437 H   0  0  0  0  0  0  0  0  0  0  0  0
  1  2  1  0
  2  3  1  0
  3  4  2  0
  4  5  1  0
  5  6  2  0
  6  7  1  0
  7  8  2  0
  8  9  1  0
  9 10  1  0
 10 11  1  0
 11 12  2  0
 12 13  1  0
 13 14  2  0
 14 15  1  0
 14 16  1  0
 16 17  1  0
 16 18  2  0
  9 19  2  0
 19 20  1  0
 20 21  2  0
 21 22  1  0
 22 23  1  0
 23 24  1  0
 24 25  1  0
 25 26  1  0
 26 27  1  0
 27 28  1  0
 28 29  1  0
 28 30  2  0
 30 31  1  0
 31 32  2  0
 32 33  1  0
 33 34  1  0
 33 35  2  0
 21  3  1  0
 32 27  1  0
 19  5  1  0
 18 11  1  0
  1 36  1  0
  1 37  1  0
  1 38  1  0
  4 39  1  0
  7 40  1  0
 10 41  1  0
 12 42  1  0
 13 43  1  0
 18 44  1  0
 20 45  1  0
 23 46  1  0
 23 47  1  0
 24 48  1  0
 24 49  1  0
 25 50  1  0
 25 51  1  0
 26 52  1  0
 26 53  1  0
 29 54  1  0
 29 55  1  0
 29 56  1  0
 31 57  1  0
M  CHG  2  33   1  34  -1
M  END
$$$$
[H]C([H])=C([H])C(=O)N([H])c1c([H])c([H])c([H])c(N2C(=O)N(c3c([H])c([H])c(OC([H])([H])c4c([H])c([H])c([H])c([H])c4[H])c([H])c3[H])C([H])([H])c3c([H])nc(N([H])c4c([H])c([H])c(N5C([H])([H])C([H])([H])N(C([H])([H])[H])C([H])([H])C5([H])[H])c([H])c4OC([H])([H])[H])nc32)c1[H]
     RDKit          3D

 92 98  0  0  0  0  0  0  0  0999 V2000
    5.9792    3.4370    0.3663 C   0  0  0  0  0  0  0  0  0  0  0  0
    4.9394    2.5133    0.2452 O   0  0  0  0  0  0  0  0  0  0  0  0
    5.1668    1.1621   -0.0642 C   0  0  0  0  0  0  0  0  0  0  0  0
    6.4366    0.6875   -0.2615 C   0  0  0  0  0  0  0  0  0  0  0  0
    6.6936   -0.6301   -0.5667 C   0  0  0  0  0  0  0  0  0  0  0  0
    5.6226   -1.4678   -0.6694 C   0  0  0  0  0  0  0  0  0  0  0  0
    4.3146   -0.9869   -0.4676 C   0  0  0  0  0  0  0  0  0  0  0  0
    4.0477    0.3180   -0.1640 C   0  0  0  0  0  0  0  0  0  0  0  0
    2.7740    0.8658    0.0647 N   0  0  0  0  0  0  0  0  0  0  0  0
    1.5134    0.2414   -0.0198 C   0  0  0  0  0  0  0  0  0  0  0  0
    1.2723   -1.0263   -0.3503 N   0  0  0  0  0  0  0  0  0  0  0  0
    0.0891   -1.6243   -0.4281 C   0  0  0  0  0  0  0  0  0  0  0  0
   -1.0512   -0.8572   -0.1338 C   0  0  0  0  0  0  0  0  0  0  0  0
   -2.3833   -1.4697   -0.2066 C   0  0  0  0  0  0  0  0  0  0  0  0
   -3.4628   -0.6005    0.1237 N   0  0  0  0  0  0  0  0  0  0  0  0
   -3.2527    0.7545    0.4821 C   0  0  0  0  0  0  0  0  0  0  0  0
   -4.2141    1.5253    0.7710 O   0  0  0  0  0  0  0  0  0  0  0  0
   -1.9483    1.3065    0.5326 N   0  0  0  0  0  0  0  0  0  0  0  0
   -1.7029    2.6540    0.8857 C   0  0  0  0  0  0  0  0  0  0  0  0
   -1.9502    3.1054    2.1497 C   0  0  0  0  0  0  0  0  0  0  0  0
   -1.6930    4.4454    2.4764 C   0  0  0  0  0  0  0  0  0  0  0  0
   -1.2004    5.3051    1.5554 C   0  0  0  0  0  0  0  0  0  0  0  0
   -0.9348    4.8680    0.2422 C   0  0  0  0  0  0  0  0  0  0  0  0
   -0.4401    5.8113   -0.6796 N   0  0  0  0  0  0  0  0  0  0  0  0
    0.1662    5.5648   -1.9074 C   0  0  0  0  0  0  0  0  0  0  0  0
    0.3426    4.3928   -2.3267 O   0  0  0  0  0  0  0  0  0  0  0  0
    0.6388    6.6368   -2.7921 C   0  0  0  0  0  0  0  0  0  0  0  0
    0.5334    7.9153   -2.5115 C   0  0  0  0  0  0  0  0  0  0  0  0
   -1.2026    3.5387   -0.0403 C   0  0  0  0  0  0  0  0  0  0  0  0
   -0.8428    0.4386    0.2071 C   0  0  0  0  0  0  0  0  0  0  0  0
    0.3891    0.9831    0.2663 N   0  0  0  0  0  0  0  0  0  0  0  0
   -4.8278   -1.0588    0.1069 C   0  0  0  0  0  0  0  0  0  0  0  0
   -5.1937   -2.2309    0.7478 C   0  0  0  0  0  0  0  0  0  0  0  0
   -6.5121   -2.6308    0.7007 C   0  0  0  0  0  0  0  0  0  0  0  0
   -7.4921   -1.9044    0.0351 C   0  0  0  0  0  0  0  0  0  0  0  0
   -8.8216   -2.3648    0.0218 O   0  0  0  0  0  0  0  0  0  0  0  0
   -9.1298   -3.5818    0.6999 C   0  0  0  0  0  0  0  0  0  0  0  0
  -10.5752   -3.8659    0.5566 C   0  0  0  0  0  0  0  0  0  0  0  0
  -11.4766   -3.4334    1.5266 C   0  0  0  0  0  0  0  0  0  0  0  0
  -12.8210   -3.6995    1.3885 C   0  0  0  0  0  0  0  0  0  0  0  0
  -13.2429   -4.3983    0.2738 C   0  0  0  0  0  0  0  0  0  0  0  0
  -12.3431   -4.8267   -0.6894 C   0  0  0  0  0  0  0  0  0  0  0  0
  -10.9980   -4.5580   -0.5465 C   0  0  0  0  0  0  0  0  0  0  0  0
   -7.1097   -0.7444   -0.5943 C   0  0  0  0  0  0  0  0  0  0  0  0
   -5.7919   -0.3328   -0.5549 C   0  0  0  0  0  0  0  0  0  0  0  0
    8.0361   -1.0572   -0.7451 N   0  0  0  0  0  0  0  0  0  0  0  0
    9.1659   -0.2200   -0.3974 C   0  0  0  0  0  0  0  0  0  0  0  0
   10.3844   -0.9536    0.0283 C   0  0  0  0  0  0  0  0  0  0  0  0
   10.3544   -2.3548    0.0718 N   0  0  0  0  0  0  0  0  0  0  0  0
   11.5658   -3.0352   -0.2445 C   0  0  0  0  0  0  0  0  0  0  0  0
    9.1551   -3.0471   -0.1770 C   0  0  0  0  0  0  0  0  0  0  0  0
    8.3649   -2.3578   -1.2952 C   0  0  0  0  0  0  0  0  0  0  0  0
    6.6375    3.3470   -0.5259 H   0  0  0  0  0  0  0  0  0  0  0  0
    5.5004    4.4578    0.4222 H   0  0  0  0  0  0  0  0  0  0  0  0
    6.5324    3.2501    1.3237 H   0  0  0  0  0  0  0  0  0  0  0  0
    7.2293    1.4287   -0.1623 H   0  0  0  0  0  0  0  0  0  0  0  0
    5.7331   -2.5066   -0.9005 H   0  0  0  0  0  0  0  0  0  0  0  0
    3.5022   -1.6987   -0.5586 H   0  0  0  0  0  0  0  0  0  0  0  0
    2.7136    1.9111    0.3498 H   0  0  0  0  0  0  0  0  0  0  0  0
   -0.0577   -2.6587   -0.7007 H   0  0  0  0  0  0  0  0  0  0  0  0
   -2.3648   -2.3910    0.4399 H   0  0  0  0  0  0  0  0  0  0  0  0
   -2.5200   -1.8201   -1.2746 H   0  0  0  0  0  0  0  0  0  0  0  0
   -2.3369    2.4719    2.9107 H   0  0  0  0  0  0  0  0  0  0  0  0
   -1.8900    4.7946    3.4678 H   0  0  0  0  0  0  0  0  0  0  0  0
   -0.9883    6.3649    1.7898 H   0  0  0  0  0  0  0  0  0  0  0  0
   -0.5451    6.8360   -0.4111 H   0  0  0  0  0  0  0  0  0  0  0  0
    1.1014    6.3564   -3.7281 H   0  0  0  0  0  0  0  0  0  0  0  0
    0.0901    8.2975   -1.6064 H   0  0  0  0  0  0  0  0  0  0  0  0
    0.9130    8.6489   -3.2293 H   0  0  0  0  0  0  0  0  0  0  0  0
   -1.0307    3.1524   -1.0298 H   0  0  0  0  0  0  0  0  0  0  0  0
   -4.4493   -2.8049    1.2674 H   0  0  0  0  0  0  0  0  0  0  0  0
   -6.8386   -3.5561    1.1973 H   0  0  0  0  0  0  0  0  0  0  0  0
   -8.8009   -3.5741    1.7461 H   0  0  0  0  0  0  0  0  0  0  0  0
   -8.5597   -4.4134    0.1989 H   0  0  0  0  0  0  0  0  0  0  0  0
  -11.1300   -2.8833    2.4004 H   0  0  0  0  0  0  0  0  0  0  0  0
  -13.5373   -3.3725    2.1334 H   0  0  0  0  0  0  0  0  0  0  0  0
  -14.2937   -4.6407    0.1101 H   0  0  0  0  0  0  0  0  0  0  0  0
  -12.6819   -5.3727   -1.5600 H   0  0  0  0  0  0  0  0  0  0  0  0
  -10.2675   -4.8753   -1.2749 H   0  0  0  0  0  0  0  0  0  0  0  0
   -7.8433   -0.1581   -1.1167 H   0  0  0  0  0  0  0  0  0  0  0  0
   -5.5327    0.5917   -1.0715 H   0  0  0  0  0  0  0  0  0  0  0  0
    8.8381    0.4010    0.4795 H   0  0  0  0  0  0  0  0  0  0  0  0
    9.3296    0.5046   -1.2292 H   0  0  0  0  0  0  0  0  0  0  0  0
   10.7748   -0.5916    1.0265 H   0  0  0  0  0  0  0  0  0  0  0  0
   11.2127   -0.6486   -0.6802 H   0  0  0  0  0  0  0  0  0  0  0  0
   11.4753   -4.1071    0.0940 H   0  0  0  0  0  0  0  0  0  0  0  0
   11.8187   -3.0670   -1.3209 H   0  0  0  0  0  0  0  0  0  0  0  0
   12.3985   -2.6108    0.3687 H   0  0  0  0  0  0  0  0  0  0  0  0
    8.5031   -3.0597    0.7324 H   0  0  0  0  0  0  0  0  0  0  0  0
    9.3916   -4.0660   -0.5503 H   0  0  0  0  0  0  0  0  0  0  0  0
    9.1156   -2.1479   -2.1126 H   0  0  0  0  0  0  0  0  0  0  0  0
    7.5264   -2.9415   -1.6480 H   0  0  0  0  0  0  0  0  0  0  0  0
  1  2  1  0
  2  3  1  0
  3  4  2  0
  4  5  1  0
  5  6  2  0
  6  7  1  0
  7  8  2  0
  8  9  1  0
  9 10  1  0
 10 11  2  0
 11 12  1  0
 12 13  2  0
 13 14  1  0
 14 15  1  0
 15 16  1  0
 16 17  2  0
 16 18  1  0
 18 19  1  0
 19 20  2  0
 20 21  1  0
 21 22  2  0
 22 23  1  0
 23 24  1  0
 24 25  1  0
 25 26  2  0
 25 27  1  0
 27 28  2  3
 23 29  2  0
 18 30  1  0
 30 31  2  0
 15 32  1  0
 32 33  2  0
 33 34  1  0
 34 35  2  0
 35 36  1  0
 36 37  1  0
 37 38  1  0
 38 39  2  0
 39 40  1  0
 40 41  2  0
 41 42  1  0
 42 43  2  0
 35 44  1  0
 44 45  2  0
  5 46  1  0
 46 47  1  0
 47 48  1  0
 48 49  1  0
 49 50  1  0
 49 51  1  0
 51 52  1  0
  8  3  1  0
 31 10  1  0
 45 32  1  0
 52 46  1  0
 30 13  1  0
 43 38  1  0
 29 19  1  0
  1 53  1  0
  1 54  1  0
  1 55  1  0
  4 56  1  0
  6 57  1  0
  7 58  1  0
  9 59  1  0
 12 60  1  0
 14 61  1  0
 14 62  1  0
 20 63  1  0
 21 64  1  0
 22 65  1  0
 24 66  1  0
 27 67  1  0
 28 68  1  0
 28 69  1  0
 29 70  1  0
 33 71  1  0
 34 72  1  0
 37 73  1  0
 37 74  1  0
 39 75  1  0
 40 76  1  0
 41 77  1  0
 42 78  1  0
 43 79  1  0
 44 80  1  0
 45 81  1  0
 47 82  1  0
 47 83  1  0
 48 84  1  0
 48 85  1  0
 50 86  1  0
 50 87  1  0
 50 88  1  0
 51 89  1  0
 51 90  1  0
 52 91  1  0
 52 92  1  0
M  END
$$$$
[H]Oc1c([H])c([H])c(N([H])C(=S)N([H])c2c([H])c([H])c3nc([H])nc(N([H])c4c([H])c([H])c([H])c(Br)c4[H])c3c2[H])c([H])c1[H]
     RDKit          3D

 45 48  0  0  0  0  0  0  0  0999 V2000
   -8.2230    1.8497   -0.6671 O   0  0  0  0  0  0  0  0  0  0  0  0
   -6.9339    1.6846   -0.1248 C   0  0  0  0  0  0  0  0  0  0  0  0
   -6.1998    2.7642    0.3125 C   0  0  0  0  0  0  0  0  0  0  0  0
   -4.9455    2.5592    0.8347 C   0  0  0  0  0  0  0  0  0  0  0  0
   -4.3654    1.3063    0.9490 C   0  0  0  0  0  0  0  0  0  0  0  0
   -3.0861    1.2082    1.5414 N   0  0  0  0  0  0  0  0  0  0  0  0
   -2.0077    0.4014    1.1484 C   0  0  0  0  0  0  0  0  0  0  0  0
   -0.6703    0.4695    2.1425 S   0  0  0  0  0  0  0  0  0  0  0  0
   -1.9853   -0.4616    0.0432 N   0  0  0  0  0  0  0  0  0  0  0  0
   -0.8964   -1.2682   -0.3575 C   0  0  0  0  0  0  0  0  0  0  0  0
   -1.1360   -2.5503   -0.8863 C   0  0  0  0  0  0  0  0  0  0  0  0
   -0.1126   -3.3479   -1.3209 C   0  0  0  0  0  0  0  0  0  0  0  0
    1.1866   -2.9421   -1.2636 C   0  0  0  0  0  0  0  0  0  0  0  0
    2.2114   -3.7135   -1.6887 N   0  0  0  0  0  0  0  0  0  0  0  0
    3.4846   -3.2896   -1.6234 C   0  0  0  0  0  0  0  0  0  0  0  0
    3.7910   -2.0874   -1.1351 N   0  0  0  0  0  0  0  0  0  0  0  0
    2.8019   -1.2562   -0.6874 C   0  0  0  0  0  0  0  0  0  0  0  0
    3.1157   -0.0017   -0.1279 N   0  0  0  0  0  0  0  0  0  0  0  0
    4.4513    0.4697   -0.0994 C   0  0  0  0  0  0  0  0  0  0  0  0
    5.3981    0.2363   -1.0488 C   0  0  0  0  0  0  0  0  0  0  0  0
    6.6995    0.7004   -0.9424 C   0  0  0  0  0  0  0  0  0  0  0  0
    7.0892    1.4285    0.1463 C   0  0  0  0  0  0  0  0  0  0  0  0
    6.1572    1.6902    1.1357 C   0  0  0  0  0  0  0  0  0  0  0  0
    6.7341    2.7086    2.6389 Br  0  0  0  0  0  0  0  0  0  0  0  0
    4.8735    1.2201    1.0099 C   0  0  0  0  0  0  0  0  0  0  0  0
    1.4852   -1.6769   -0.7478 C   0  0  0  0  0  0  0  0  0  0  0  0
    0.4235   -0.8842   -0.3128 C   0  0  0  0  0  0  0  0  0  0  0  0
   -5.1216    0.2535    0.5063 C   0  0  0  0  0  0  0  0  0  0  0  0
   -6.4007    0.4261   -0.0309 C   0  0  0  0  0  0  0  0  0  0  0  0
   -9.0186    1.8150   -0.0236 H   0  0  0  0  0  0  0  0  0  0  0  0
   -6.6388    3.7628    0.2316 H   0  0  0  0  0  0  0  0  0  0  0  0
   -4.3794    3.4354    1.1768 H   0  0  0  0  0  0  0  0  0  0  0  0
   -2.9329    1.8366    2.3989 H   0  0  0  0  0  0  0  0  0  0  0  0
   -2.8319   -0.5256   -0.5793 H   0  0  0  0  0  0  0  0  0  0  0  0
   -2.1676   -2.8547   -0.9241 H   0  0  0  0  0  0  0  0  0  0  0  0
   -0.2980   -4.3351   -1.7280 H   0  0  0  0  0  0  0  0  0  0  0  0
    4.2674   -3.9626   -1.9843 H   0  0  0  0  0  0  0  0  0  0  0  0
    2.4071    0.6467    0.2955 H   0  0  0  0  0  0  0  0  0  0  0  0
    5.1709   -0.3120   -1.9633 H   0  0  0  0  0  0  0  0  0  0  0  0
    7.3878    0.4770   -1.7272 H   0  0  0  0  0  0  0  0  0  0  0  0
    8.1088    1.7989    0.2419 H   0  0  0  0  0  0  0  0  0  0  0  0
    4.1445    1.4281    1.7897 H   0  0  0  0  0  0  0  0  0  0  0  0
    0.6899    0.0834    0.0441 H   0  0  0  0  0  0  0  0  0  0  0  0
   -4.7475   -0.7695    0.5852 H   0  0  0  0  0  0  0  0  0  0  0  0
   -6.9803   -0.4215   -0.3756 H   0  0  0  0  0  0  0  0  0  0  0  0
  1  2  1  0
  2  3  2  0
  3  4  1  0
  4  5  2  0
  5  6  1  0
  6  7  1  0
  7  8  2  0
  7  9  1  0
  9 10  1  0
 10 11  2  0
 11 12  1  0
 12 13  2  0
 13 14  1  0
 14 15  2  0
 15 16  1  0
 16 17  2  0
 17 18  1  0
 18 19  1  0
 19 20  2  0
 20 21  1  0
 21 22  2  0
 22 23  1  0
 23 24  1  0
 23 25  2  0
 17 26  1  0
 26 27  2  0
  5 28  1  0
 28 29  2  0
 29  2  1  0
 27 10  1  0
 26 13  1  0
 25 19  1  0
  1 30  1  0
  3 31  1  0
  4 32  1  0
  6 33  1  0
  9 34  1  0
 11 35  1  0
 12 36  1  0
 15 37  1  0
 18 38  1  0
 20 39  1  0
 21 40  1  0
 22 41  1  0
 25 42  1  0
 27 43  1  0
 28 44  1  0
 29 45  1  0
M  END
$$$$
[H]OC(C([H])([H])[H])(C([H])([H])[H])C([H])([H])Oc1c([H])c([H])c(N([H])c2nc([H])c(F)c(N([H])c3c([H])c([H])c([H])c(N([H])C(=O)C([H])=C([H])[H])c3[H])n2)c([H])c1F
     RDKit          3D

 56 58  0  0  0  0  0  0  0  0999 V2000
   -6.8838   -2.2900   -2.2289 C   0  0  0  0  0  0  0  0  0  0  0  0
   -5.5628   -1.6219   -2.5469 C   0  0  0  0  0  0  0  0  0  0  0  0
   -4.5998   -2.7077   -2.9983 C   0  0  0  0  0  0  0  0  0  0  0  0
   -5.7339   -0.7508   -3.6207 O   0  0  0  0  0  0  0  0  0  0  0  0
   -5.0829   -0.9304   -1.3105 C   0  0  0  0  0  0  0  0  0  0  0  0
   -3.8334   -0.2909   -1.4938 O   0  0  0  0  0  0  0  0  0  0  0  0
   -3.2572    0.3968   -0.4261 C   0  0  0  0  0  0  0  0  0  0  0  0
   -3.8707    0.4734    0.8061 C   0  0  0  0  0  0  0  0  0  0  0  0
   -3.2865    1.1553    1.8456 C   0  0  0  0  0  0  0  0  0  0  0  0
   -2.0465    1.8082    1.7231 C   0  0  0  0  0  0  0  0  0  0  0  0
   -1.5008    2.5165    2.8078 N   0  0  0  0  0  0  0  0  0  0  0  0
   -0.1420    2.7813    3.0984 C   0  0  0  0  0  0  0  0  0  0  0  0
    0.1152    3.5232    4.2292 N   0  0  0  0  0  0  0  0  0  0  0  0
    1.3503    3.8019    4.6376 C   0  0  0  0  0  0  0  0  0  0  0  0
    2.4522    3.3614    3.9489 C   0  0  0  0  0  0  0  0  0  0  0  0
    3.7188    3.6546    4.3785 F   0  0  0  0  0  0  0  0  0  0  0  0
    2.2169    2.6061    2.7971 C   0  0  0  0  0  0  0  0  0  0  0  0
    3.3468    2.1139    2.1322 N   0  0  0  0  0  0  0  0  0  0  0  0
    3.4306    1.3650    0.9381 C   0  0  0  0  0  0  0  0  0  0  0  0
    2.5129    1.4856   -0.0789 C   0  0  0  0  0  0  0  0  0  0  0  0
    2.5971    0.7226   -1.2191 C   0  0  0  0  0  0  0  0  0  0  0  0
    3.6435   -0.1965   -1.3450 C   0  0  0  0  0  0  0  0  0  0  0  0
    4.5930   -0.3626   -0.3630 C   0  0  0  0  0  0  0  0  0  0  0  0
    5.6733   -1.2708   -0.4086 N   0  0  0  0  0  0  0  0  0  0  0  0
    5.9696   -2.2365   -1.3519 C   0  0  0  0  0  0  0  0  0  0  0  0
    5.2697   -2.4490   -2.3591 O   0  0  0  0  0  0  0  0  0  0  0  0
    7.1608   -3.0857   -1.2086 C   0  0  0  0  0  0  0  0  0  0  0  0
    7.4174   -3.9922   -2.1158 C   0  0  0  0  0  0  0  0  0  0  0  0
    4.4388    0.4418    0.7537 C   0  0  0  0  0  0  0  0  0  0  0  0
    0.9262    2.3571    2.4326 N   0  0  0  0  0  0  0  0  0  0  0  0
   -1.4514    1.7234    0.4934 C   0  0  0  0  0  0  0  0  0  0  0  0
   -2.0435    1.0277   -0.5719 C   0  0  0  0  0  0  0  0  0  0  0  0
   -1.4198    0.9735   -1.7561 F   0  0  0  0  0  0  0  0  0  0  0  0
   -7.5309   -2.3643   -3.1205 H   0  0  0  0  0  0  0  0  0  0  0  0
   -6.6402   -3.3060   -1.8442 H   0  0  0  0  0  0  0  0  0  0  0  0
   -7.4332   -1.7275   -1.4502 H   0  0  0  0  0  0  0  0  0  0  0  0
   -4.8430   -2.9475   -4.0381 H   0  0  0  0  0  0  0  0  0  0  0  0
   -3.5431   -2.3604   -2.9609 H   0  0  0  0  0  0  0  0  0  0  0  0
   -4.7463   -3.5583   -2.3128 H   0  0  0  0  0  0  0  0  0  0  0  0
   -6.6849   -0.7262   -3.8786 H   0  0  0  0  0  0  0  0  0  0  0  0
   -5.0384   -1.6963   -0.5001 H   0  0  0  0  0  0  0  0  0  0  0  0
   -5.8157   -0.1592   -1.0325 H   0  0  0  0  0  0  0  0  0  0  0  0
   -4.8243   -0.0317    0.8922 H   0  0  0  0  0  0  0  0  0  0  0  0
   -3.7792    1.2082    2.8095 H   0  0  0  0  0  0  0  0  0  0  0  0
   -2.2544    2.8982    3.4949 H   0  0  0  0  0  0  0  0  0  0  0  0
    1.5395    4.3953    5.5419 H   0  0  0  0  0  0  0  0  0  0  0  0
    4.3016    2.3271    2.5832 H   0  0  0  0  0  0  0  0  0  0  0  0
    1.7183    2.2121    0.0083 H   0  0  0  0  0  0  0  0  0  0  0  0
    1.8993    0.7875   -2.0345 H   0  0  0  0  0  0  0  0  0  0  0  0
    3.6977   -0.7879   -2.2524 H   0  0  0  0  0  0  0  0  0  0  0  0
    6.3627   -1.1943    0.4090 H   0  0  0  0  0  0  0  0  0  0  0  0
    7.7966   -2.9226   -0.3339 H   0  0  0  0  0  0  0  0  0  0  0  0
    6.7753   -4.1290   -2.9634 H   0  0  0  0  0  0  0  0  0  0  0  0
    8.2846   -4.6165   -2.0194 H   0  0  0  0  0  0  0  0  0  0  0  0
    5.1512    0.3724    1.5813 H   0  0  0  0  0  0  0  0  0  0  0  0
   -0.5111    2.2228    0.3431 H   0  0  0  0  0  0  0  0  0  0  0  0
  1  2  1  0
  2  3  1  0
  2  4  1  0
  2  5  1  0
  5  6  1  0
  6  7  1  0
  7  8  2  0
  8  9  1  0
  9 10  2  0
 10 11  1  0
 11 12  1  0
 12 13  2  0
 13 14  1  0
 14 15  2  0
 15 16  1  0
 15 17  1  0
 17 18  1  0
 18 19  1  0
 19 20  2  0
 20 21  1  0
 21 22  2  0
 22 23  1  0
 23 24  1  0
 24 25  1  0
 25 26  2  0
 25 27  1  0
 27 28  2  3
 23 29  2  0
 17 30  2  0
 10 31  1  0
 31 32  2  0
 32 33  1  0
 32  7  1  0
 30 12  1  0
 29 19  1  0
  1 34  1  0
  1 35  1  0
  1 36  1  0
  3 37  1  0
  3 38  1  0
  3 39  1  0
  4 40  1  0
  5 41  1  0
  5 42  1  0
  8 43  1  0
  9 44  1  0
 11 45  1  0
 14 46  1  0
 18 47  1  0
 20 48  1  0
 21 49  1  0
 22 50  1  0
 24 51  1  0
 27 52  1  0
 28 53  1  0
 28 54  1  0
 29 55  1  0
 31 56  1  0
M  END
$$$$
[H]OC(=O)c1oc2c([H])c(O[H])c([H])c(O[H])c2c(=O)c1-c1c([H])c([H])c(O[H])c([H])c1[H]
     RDKit          3D

 33 35  0  0  0  0  0  0  0  0999 V2000
   -0.0934   -2.3890   -3.0805 O   0  0  0  0  0  0  0  0  0  0  0  0
   -0.2936   -1.1780   -2.4492 C   0  0  0  0  0  0  0  0  0  0  0  0
   -0.8045   -0.2462   -3.0788 O   0  0  0  0  0  0  0  0  0  0  0  0
    0.1063   -1.0466   -1.0624 C   0  0  0  0  0  0  0  0  0  0  0  0
    0.6665   -2.0787   -0.4247 O   0  0  0  0  0  0  0  0  0  0  0  0
    1.0487   -2.0279    0.8171 C   0  0  0  0  0  0  0  0  0  0  0  0
    1.6272   -3.1184    1.4489 C   0  0  0  0  0  0  0  0  0  0  0  0
    2.0318   -3.0762    2.7501 C   0  0  0  0  0  0  0  0  0  0  0  0
    2.6141   -4.1949    3.3638 O   0  0  0  0  0  0  0  0  0  0  0  0
    1.8811   -1.9440    3.4913 C   0  0  0  0  0  0  0  0  0  0  0  0
    1.3012   -0.7977    2.9148 C   0  0  0  0  0  0  0  0  0  0  0  0
    1.1585    0.3209    3.6662 O   0  0  0  0  0  0  0  0  0  0  0  0
    0.8968   -0.8714    1.5804 C   0  0  0  0  0  0  0  0  0  0  0  0
    0.3224    0.1926    0.9333 C   0  0  0  0  0  0  0  0  0  0  0  0
    0.1530    1.2640    1.5520 O   0  0  0  0  0  0  0  0  0  0  0  0
   -0.0907    0.1390   -0.4065 C   0  0  0  0  0  0  0  0  0  0  0  0
   -0.6997    1.3210   -0.9949 C   0  0  0  0  0  0  0  0  0  0  0  0
   -2.0705    1.4775   -0.9378 C   0  0  0  0  0  0  0  0  0  0  0  0
   -2.6962    2.5894   -1.4777 C   0  0  0  0  0  0  0  0  0  0  0  0
   -1.9367    3.5718   -2.0907 C   0  0  0  0  0  0  0  0  0  0  0  0
   -2.5210    4.7162   -2.6526 O   0  0  0  0  0  0  0  0  0  0  0  0
   -0.5531    3.4378   -2.1614 C   0  0  0  0  0  0  0  0  0  0  0  0
    0.0489    2.3227   -1.6172 C   0  0  0  0  0  0  0  0  0  0  0  0
   -0.8764   -2.9946   -3.1944 H   0  0  0  0  0  0  0  0  0  0  0  0
    1.7508   -4.0196    0.8707 H   0  0  0  0  0  0  0  0  0  0  0  0
    2.7289   -5.0270    2.8313 H   0  0  0  0  0  0  0  0  0  0  0  0
    2.1923   -1.8771    4.5283 H   0  0  0  0  0  0  0  0  0  0  0  0
    0.8622    1.2041    3.6896 H   0  0  0  0  0  0  0  0  0  0  0  0
   -2.6783    0.7205   -0.4630 H   0  0  0  0  0  0  0  0  0  0  0  0
   -3.7622    2.6989   -1.4271 H   0  0  0  0  0  0  0  0  0  0  0  0
   -3.5163    4.8327   -2.6128 H   0  0  0  0  0  0  0  0  0  0  0  0
    0.0787    4.1740   -2.6270 H   0  0  0  0  0  0  0  0  0  0  0  0
    1.1234    2.2314   -1.6791 H   0  0  0  0  0  0  0  0  0  0  0  0
  1  2  1  0
  2  3  2  0
  2  4  1  0
  4  5  1  0
  5  6  1  0
  6  7  2  0
  7  8  1  0
  8  9  1  0
  8 10  2  0
 10 11  1  0
 11 12  1  0
 11 13  2  0
 13 14  1  0
 14 15  2  0
 14 16  1  0
 16 17  1  0
 17 18  2  0
 18 19  1  0
 19 20  2  0
 20 21  1  0
 20 22  1  0
 22 23  2  0
 16  4  2  0
 23 17  1  0
 13  6  1  0
  1 24  1  0
  7 25  1  0
  9 26  1  0
 10 27  1  0
 12 28  1  0
 18 29  1  0
 19 30  1  0
 21 31  1  0
 22 32  1  0
 23 33  1  0
M  END
$$$$
[H]C([H])=C([H])C(=O)N([H])c1c([H])c([H])c([H])c(N([H])c2nc(N([H])c3c([H])nc(OC([H])([H])C([H])([H])OC([H])([H])[H])c([H])c3[H])nc([H])c2F)c1[H]
     RDKit          3D

 52 54  0  0  0  0  0  0  0  0999 V2000
    9.3329   -0.9120    0.7266 C   0  0  0  0  0  0  0  0  0  0  0  0
    8.2977   -0.0317    0.5046 O   0  0  0  0  0  0  0  0  0  0  0  0
    7.0504   -0.5604    0.8055 C   0  0  0  0  0  0  0  0  0  0  0  0
    6.7015   -1.7666    0.0179 C   0  0  0  0  0  0  0  0  0  0  0  0
    5.4486   -2.3175    0.3066 O   0  0  0  0  0  0  0  0  0  0  0  0
    4.2254   -1.7082    0.1701 C   0  0  0  0  0  0  0  0  0  0  0  0
    3.0433   -2.3731    0.4985 C   0  0  0  0  0  0  0  0  0  0  0  0
    1.8338   -1.7596    0.3590 C   0  0  0  0  0  0  0  0  0  0  0  0
    1.6897   -0.4357   -0.1172 C   0  0  0  0  0  0  0  0  0  0  0  0
    0.4094    0.1146   -0.2458 N   0  0  0  0  0  0  0  0  0  0  0  0
    0.0734    1.4654   -0.4382 C   0  0  0  0  0  0  0  0  0  0  0  0
    0.9107    2.4895   -0.5275 N   0  0  0  0  0  0  0  0  0  0  0  0
    0.5160    3.7404   -0.7101 C   0  0  0  0  0  0  0  0  0  0  0  0
   -0.8165    4.0310   -0.8169 C   0  0  0  0  0  0  0  0  0  0  0  0
   -1.2333    5.3053   -1.0033 F   0  0  0  0  0  0  0  0  0  0  0  0
   -1.7519    3.0007   -0.7319 C   0  0  0  0  0  0  0  0  0  0  0  0
   -3.1150    3.3063   -0.8624 N   0  0  0  0  0  0  0  0  0  0  0  0
   -4.2092    2.4326   -0.7877 C   0  0  0  0  0  0  0  0  0  0  0  0
   -5.4284    2.8627   -1.3461 C   0  0  0  0  0  0  0  0  0  0  0  0
   -6.5511    2.0974   -1.3053 C   0  0  0  0  0  0  0  0  0  0  0  0
   -6.4924    0.8407   -0.6878 C   0  0  0  0  0  0  0  0  0  0  0  0
   -5.3435    0.3711   -0.1312 C   0  0  0  0  0  0  0  0  0  0  0  0
   -5.1601   -0.8736    0.4925 N   0  0  0  0  0  0  0  0  0  0  0  0
   -6.0401   -1.9769    0.3724 C   0  0  0  0  0  0  0  0  0  0  0  0
   -7.0903   -1.9893   -0.3076 O   0  0  0  0  0  0  0  0  0  0  0  0
   -5.7381   -3.2304    1.0850 C   0  0  0  0  0  0  0  0  0  0  0  0
   -6.5268   -4.2804    1.0024 C   0  0  0  0  0  0  0  0  0  0  0  0
   -4.1974    1.2061   -0.1978 C   0  0  0  0  0  0  0  0  0  0  0  0
   -1.2482    1.7881   -0.5486 N   0  0  0  0  0  0  0  0  0  0  0  0
    2.8853    0.1698   -0.4251 C   0  0  0  0  0  0  0  0  0  0  0  0
    4.0791   -0.4566   -0.2796 N   0  0  0  0  0  0  0  0  0  0  0  0
    9.4115   -1.2543    1.7795 H   0  0  0  0  0  0  0  0  0  0  0  0
    9.3420   -1.7800    0.0278 H   0  0  0  0  0  0  0  0  0  0  0  0
   10.2797   -0.3587    0.5168 H   0  0  0  0  0  0  0  0  0  0  0  0
    6.3300    0.2669    0.6728 H   0  0  0  0  0  0  0  0  0  0  0  0
    7.0017   -0.8216    1.9002 H   0  0  0  0  0  0  0  0  0  0  0  0
    6.6666   -1.4777   -1.0732 H   0  0  0  0  0  0  0  0  0  0  0  0
    7.4623   -2.5708    0.0565 H   0  0  0  0  0  0  0  0  0  0  0  0
    3.1351   -3.3809    0.8622 H   0  0  0  0  0  0  0  0  0  0  0  0
    0.9120   -2.2868    0.6192 H   0  0  0  0  0  0  0  0  0  0  0  0
   -0.4011   -0.5770   -0.1949 H   0  0  0  0  0  0  0  0  0  0  0  0
    1.2308    4.5662   -0.7801 H   0  0  0  0  0  0  0  0  0  0  0  0
   -3.3346    4.3502   -1.0392 H   0  0  0  0  0  0  0  0  0  0  0  0
   -5.4598    3.8494   -1.8277 H   0  0  0  0  0  0  0  0  0  0  0  0
   -7.4662    2.4341   -1.7310 H   0  0  0  0  0  0  0  0  0  0  0  0
   -7.3862    0.2345   -0.6419 H   0  0  0  0  0  0  0  0  0  0  0  0
   -4.2967   -1.0334    1.1217 H   0  0  0  0  0  0  0  0  0  0  0  0
   -4.8555   -3.2990    1.6889 H   0  0  0  0  0  0  0  0  0  0  0  0
   -7.4172   -4.2247    0.3986 H   0  0  0  0  0  0  0  0  0  0  0  0
   -6.3209   -5.2029    1.5161 H   0  0  0  0  0  0  0  0  0  0  0  0
   -3.2835    0.8379    0.2596 H   0  0  0  0  0  0  0  0  0  0  0  0
    2.8952    1.1786   -0.8081 H   0  0  0  0  0  0  0  0  0  0  0  0
  1  2  1  0
  2  3  1  0
  3  4  1  0
  4  5  1  0
  5  6  1  0
  6  7  2  0
  7  8  1  0
  8  9  2  0
  9 10  1  0
 10 11  1  0
 11 12  2  0
 12 13  1  0
 13 14  2  0
 14 15  1  0
 14 16  1  0
 16 17  1  0
 17 18  1  0
 18 19  2  0
 19 20  1  0
 20 21  2  0
 21 22  1  0
 22 23  1  0
 23 24  1  0
 24 25  2  0
 24 26  1  0
 26 27  2  3
 22 28  2  0
 16 29  2  0
  9 30  1  0
 30 31  2  0
 31  6  1  0
 29 11  1  0
 28 18  1  0
  1 32  1  0
  1 33  1  0
  1 34  1  0
  3 35  1  0
  3 36  1  0
  4 37  1  0
  4 38  1  0
  7 39  1  0
  8 40  1  0
 10 41  1  0
 13 42  1  0
 17 43  1  0
 19 44  1  0
 20 45  1  0
 21 46  1  0
 23 47  1  0
 26 48  1  0
 27 49  1  0
 27 50  1  0
 28 51  1  0
 30 52  1  0
M  END
$$$$
[H]c1nc(N([H])[C@@]([H])(c2c([H])c([H])c([H])c([H])c2[H])C([H])([H])[H])c2c([H])c(-c3c([H])c([H])c(F)c([H])c3OC([H])([H])[H])sc2n1
     RDKit          3D

 45 48  0  0  0  0  0  0  0  0999 V2000
   -3.5584   -0.6487    2.8974 C   0  0  0  0  0  0  0  0  0  0  0  0
   -3.2534   -0.1961    1.6241 O   0  0  0  0  0  0  0  0  0  0  0  0
   -4.1073    0.4780    0.7846 C   0  0  0  0  0  0  0  0  0  0  0  0
   -5.4105    0.7415    1.2396 C   0  0  0  0  0  0  0  0  0  0  0  0
   -6.3326    1.4000    0.4908 C   0  0  0  0  0  0  0  0  0  0  0  0
   -7.5964    1.6695    0.9003 F   0  0  0  0  0  0  0  0  0  0  0  0
   -5.9838    1.8313   -0.7694 C   0  0  0  0  0  0  0  0  0  0  0  0
   -4.7084    1.5742   -1.2166 C   0  0  0  0  0  0  0  0  0  0  0  0
   -3.7749    0.9082   -0.4597 C   0  0  0  0  0  0  0  0  0  0  0  0
   -2.4531    0.6963   -1.0470 C   0  0  0  0  0  0  0  0  0  0  0  0
   -1.3178    0.0915   -0.5923 C   0  0  0  0  0  0  0  0  0  0  0  0
   -0.2396    0.0621   -1.3968 C   0  0  0  0  0  0  0  0  0  0  0  0
    1.0200   -0.5053   -1.1274 C   0  0  0  0  0  0  0  0  0  0  0  0
    1.3074   -1.1551    0.1144 N   0  0  0  0  0  0  0  0  0  0  0  0
    2.6127   -1.7321    0.3685 C   0  0  2  0  0  0  0  0  0  0  0  0
    2.7113   -2.3625    1.7191 C   0  0  0  0  0  0  0  0  0  0  0  0
    3.6916   -0.7242    0.1698 C   0  0  0  0  0  0  0  0  0  0  0  0
    3.5812    0.5632    0.6791 C   0  0  0  0  0  0  0  0  0  0  0  0
    4.5944    1.4769    0.4811 C   0  0  0  0  0  0  0  0  0  0  0  0
    5.7376    1.1530   -0.2189 C   0  0  0  0  0  0  0  0  0  0  0  0
    5.8459   -0.1185   -0.7216 C   0  0  0  0  0  0  0  0  0  0  0  0
    4.8375   -1.0355   -0.5271 C   0  0  0  0  0  0  0  0  0  0  0  0
    1.9879   -0.4422   -2.0525 N   0  0  0  0  0  0  0  0  0  0  0  0
    1.8652    0.1311   -3.2538 C   0  0  0  0  0  0  0  0  0  0  0  0
    0.6676    0.6792   -3.5293 N   0  0  0  0  0  0  0  0  0  0  0  0
   -0.3535    0.6431   -2.6225 C   0  0  0  0  0  0  0  0  0  0  0  0
   -1.9538    1.2162   -2.6295 S   0  0  0  0  0  0  0  0  0  0  0  0
   -2.7703   -1.3484    3.2464 H   0  0  0  0  0  0  0  0  0  0  0  0
   -3.6167    0.1644    3.6589 H   0  0  0  0  0  0  0  0  0  0  0  0
   -4.5657   -1.1401    2.9149 H   0  0  0  0  0  0  0  0  0  0  0  0
   -5.7057    0.4101    2.2300 H   0  0  0  0  0  0  0  0  0  0  0  0
   -6.6986    2.3603   -1.3923 H   0  0  0  0  0  0  0  0  0  0  0  0
   -4.4790    1.9395   -2.2305 H   0  0  0  0  0  0  0  0  0  0  0  0
   -1.3266   -0.3557    0.4290 H   0  0  0  0  0  0  0  0  0  0  0  0
    0.5919   -1.2316    0.8661 H   0  0  0  0  0  0  0  0  0  0  0  0
    2.7925   -2.5524   -0.3859 H   0  0  0  0  0  0  0  0  0  0  0  0
    3.0286   -3.4247    1.6815 H   0  0  0  0  0  0  0  0  0  0  0  0
    3.5090   -1.8310    2.3064 H   0  0  0  0  0  0  0  0  0  0  0  0
    1.7384   -2.3393    2.2674 H   0  0  0  0  0  0  0  0  0  0  0  0
    2.6937    0.8318    1.2285 H   0  0  0  0  0  0  0  0  0  0  0  0
    4.5018    2.4958    0.8868 H   0  0  0  0  0  0  0  0  0  0  0  0
    6.5344    1.8846   -0.3701 H   0  0  0  0  0  0  0  0  0  0  0  0
    6.7323   -0.4143   -1.2800 H   0  0  0  0  0  0  0  0  0  0  0  0
    4.9873   -2.0300   -0.9536 H   0  0  0  0  0  0  0  0  0  0  0  0
    2.6357    0.1860   -4.0008 H   0  0  0  0  0  0  0  0  0  0  0  0
  1  2  1  0
  2  3  1  0
  3  4  2  0
  4  5  1  0
  5  6  1  0
  5  7  2  0
  7  8  1  0
  8  9  2  0
  9 10  1  0
 10 11  2  0
 11 12  1  0
 12 13  2  0
 13 14  1  0
 14 15  1  0
 15 16  1  0
 15 17  1  0
 17 18  2  0
 18 19  1  0
 19 20  2  0
 20 21  1  0
 21 22  2  0
 13 23  1  0
 23 24  2  0
 24 25  1  0
 25 26  2  0
 26 27  1  0
  9  3  1  0
 27 10  1  0
 26 12  1  0
 22 17  1  0
  1 28  1  0
  1 29  1  0
  1 30  1  0
  4 31  1  0
  7 32  1  0
  8 33  1  0
 11 34  1  0
 14 35  1  0
 15 36  1  6
 16 37  1  0
 16 38  1  0
 16 39  1  0
 18 40  1  0
 19 41  1  0
 20 42  1  0
 21 43  1  0
 22 44  1  0
 24 45  1  0
M  END
$$$$
[H]/C(C(=O)N1C([H])([H])C([H])([H])[C@@]([H])(n2nc(C(=O)N([H])c3nc4c([H])c(-c5c([H])c([H])c([H])c([H])c5[H])c([H])c([H])c4o3)c3c(N([H])[H])nc([H])nc32)C1([H])[H])=C(/[H])C([H])([H])N(C([H])([H])[H])C([H])([H])[H]
     RDKit          3D

 70 75  0  0  0  0  0  0  0  0999 V2000
   11.2939    0.7609   -0.3400 C   0  0  0  0  0  0  0  0  0  0  0  0
   10.7391   -0.3801    0.3774 N   0  0  0  0  0  0  0  0  0  0  0  0
    9.8786   -1.0754   -0.5822 C   0  0  0  0  0  0  0  0  0  0  0  0
    9.9084    0.1202    1.4812 C   0  0  0  0  0  0  0  0  0  0  0  0
    8.7308    0.7658    0.8105 C   0  0  0  0  0  0  0  0  0  0  0  0
    7.5423    0.2910    1.0839 C   0  0  0  0  0  0  0  0  0  0  0  0
    6.3577    0.8592    0.4769 C   0  0  0  0  0  0  0  0  0  0  0  0
    6.5313    1.8367   -0.3308 O   0  0  0  0  0  0  0  0  0  0  0  0
    5.0498    0.3861    0.7361 N   0  0  0  0  0  0  0  0  0  0  0  0
    4.6892   -0.6945    1.6212 C   0  0  0  0  0  0  0  0  0  0  0  0
    3.2503   -1.0687    1.2344 C   0  0  0  0  0  0  0  0  0  0  0  0
    3.0894   -0.3957   -0.0926 C   0  0  2  0  0  0  0  0  0  0  0  0
    3.8421    0.9090    0.1445 C   0  0  0  0  0  0  0  0  0  0  0  0
    1.7328   -0.2166   -0.4938 N   0  0  0  0  0  0  0  0  0  0  0  0
    0.6150   -0.6496    0.0308 N   0  0  0  0  0  0  0  0  0  0  0  0
   -0.4711   -0.2388   -0.6852 C   0  0  0  0  0  0  0  0  0  0  0  0
   -1.8484   -0.5680   -0.4112 C   0  0  0  0  0  0  0  0  0  0  0  0
   -2.2174   -1.7944   -0.3045 O   0  0  0  0  0  0  0  0  0  0  0  0
   -2.8700    0.3819   -0.2325 N   0  0  0  0  0  0  0  0  0  0  0  0
   -4.2353   -0.0039    0.0364 C   0  0  0  0  0  0  0  0  0  0  0  0
   -5.2947    0.7985    0.2209 N   0  0  0  0  0  0  0  0  0  0  0  0
   -6.3885    0.0618    0.4452 C   0  0  0  0  0  0  0  0  0  0  0  0
   -7.7169    0.3406    0.6914 C   0  0  0  0  0  0  0  0  0  0  0  0
   -8.6476   -0.6500    0.8896 C   0  0  0  0  0  0  0  0  0  0  0  0
   -8.2148   -1.9583    0.8359 C   0  0  0  0  0  0  0  0  0  0  0  0
   -6.8979   -2.2494    0.5920 C   0  0  0  0  0  0  0  0  0  0  0  0
   -5.9753   -1.2415    0.3948 C   0  0  0  0  0  0  0  0  0  0  0  0
   -4.6886   -1.2338    0.1496 O   0  0  0  0  0  0  0  0  0  0  0  0
  -10.0462   -0.3325    1.1448 C   0  0  0  0  0  0  0  0  0  0  0  0
  -11.0356   -1.2147    0.7114 C   0  0  0  0  0  0  0  0  0  0  0  0
  -12.3652   -0.9578    0.9280 C   0  0  0  0  0  0  0  0  0  0  0  0
  -12.7835    0.1894    1.5867 C   0  0  0  0  0  0  0  0  0  0  0  0
  -11.8053    1.0610    2.0148 C   0  0  0  0  0  0  0  0  0  0  0  0
  -10.4688    0.8022    1.7968 C   0  0  0  0  0  0  0  0  0  0  0  0
    0.0049    0.5044   -1.7384 C   0  0  0  0  0  0  0  0  0  0  0  0
   -0.5869    1.1635   -2.8138 C   0  0  0  0  0  0  0  0  0  0  0  0
   -1.9814    1.1536   -3.0441 N   0  0  0  0  0  0  0  0  0  0  0  0
    0.1968    1.7999   -3.7013 N   0  0  0  0  0  0  0  0  0  0  0  0
    1.5285    1.7888   -3.5393 C   0  0  0  0  0  0  0  0  0  0  0  0
    2.1187    1.1580   -2.5131 N   0  0  0  0  0  0  0  0  0  0  0  0
    1.3881    0.5019   -1.5908 C   0  0  0  0  0  0  0  0  0  0  0  0
   11.2398    1.6900    0.2389 H   0  0  0  0  0  0  0  0  0  0  0  0
   12.3576    0.4799   -0.5620 H   0  0  0  0  0  0  0  0  0  0  0  0
   10.8132    0.9283   -1.3133 H   0  0  0  0  0  0  0  0  0  0  0  0
   10.5434   -1.5756   -1.3014 H   0  0  0  0  0  0  0  0  0  0  0  0
    9.2561   -0.3301   -1.1199 H   0  0  0  0  0  0  0  0  0  0  0  0
    9.2379   -1.8305   -0.1078 H   0  0  0  0  0  0  0  0  0  0  0  0
    9.6141   -0.6969    2.1417 H   0  0  0  0  0  0  0  0  0  0  0  0
   10.5043    0.8799    2.0353 H   0  0  0  0  0  0  0  0  0  0  0  0
    8.9274    1.5816    0.1430 H   0  0  0  0  0  0  0  0  0  0  0  0
    7.4488   -0.5320    1.7688 H   0  0  0  0  0  0  0  0  0  0  0  0
    5.3285   -1.5730    1.5372 H   0  0  0  0  0  0  0  0  0  0  0  0
    4.7244   -0.3708    2.7001 H   0  0  0  0  0  0  0  0  0  0  0  0
    2.5738   -0.6530    2.0195 H   0  0  0  0  0  0  0  0  0  0  0  0
    3.1501   -2.1722    1.2021 H   0  0  0  0  0  0  0  0  0  0  0  0
    3.6801   -0.9658   -0.8336 H   0  0  0  0  0  0  0  0  0  0  0  0
    3.2961    1.5437    0.8930 H   0  0  0  0  0  0  0  0  0  0  0  0
    3.9953    1.4936   -0.7603 H   0  0  0  0  0  0  0  0  0  0  0  0
   -2.7012    1.4029   -0.2864 H   0  0  0  0  0  0  0  0  0  0  0  0
   -8.0488    1.3726    0.7318 H   0  0  0  0  0  0  0  0  0  0  0  0
   -8.9448   -2.7503    0.9922 H   0  0  0  0  0  0  0  0  0  0  0  0
   -6.5440   -3.2683    0.5469 H   0  0  0  0  0  0  0  0  0  0  0  0
  -10.7336   -2.1068    0.2007 H   0  0  0  0  0  0  0  0  0  0  0  0
  -13.1285   -1.6472    0.5889 H   0  0  0  0  0  0  0  0  0  0  0  0
  -13.8450    0.3782    1.7504 H   0  0  0  0  0  0  0  0  0  0  0  0
  -12.1086    1.9573    2.5280 H   0  0  0  0  0  0  0  0  0  0  0  0
   -9.7163    1.4998    2.1412 H   0  0  0  0  0  0  0  0  0  0  0  0
   -2.4219    0.2761   -3.3819 H   0  0  0  0  0  0  0  0  0  0  0  0
   -2.5927    1.9786   -2.8935 H   0  0  0  0  0  0  0  0  0  0  0  0
    2.1461    2.2992   -4.2505 H   0  0  0  0  0  0  0  0  0  0  0  0
  1  2  1  0
  2  3  1  0
  2  4  1  0
  4  5  1  0
  5  6  2  0
  6  7  1  0
  7  8  2  0
  7  9  1  0
  9 10  1  0
 10 11  1  0
 11 12  1  0
 12 13  1  0
 12 14  1  0
 14 15  1  0
 15 16  2  0
 16 17  1  0
 17 18  2  0
 17 19  1  0
 19 20  1  0
 20 21  2  0
 21 22  1  0
 22 23  2  0
 23 24  1  0
 24 25  2  0
 25 26  1  0
 26 27  2  0
 27 28  1  0
 24 29  1  0
 29 30  2  0
 30 31  1  0
 31 32  2  0
 32 33  1  0
 33 34  2  0
 16 35  1  0
 35 36  2  0
 36 37  1  0
 36 38  1  0
 38 39  2  0
 39 40  1  0
 40 41  2  0
 13  9  1  0
 41 14  1  0
 28 20  1  0
 34 29  1  0
 41 35  1  0
 27 22  1  0
  1 42  1  0
  1 43  1  0
  1 44  1  0
  3 45  1  0
  3 46  1  0
  3 47  1  0
  4 48  1  0
  4 49  1  0
  5 50  1  0
  6 51  1  0
 10 52  1  0
 10 53  1  0
 11 54  1  0
 11 55  1  0
 12 56  1  6
 13 57  1  0
 13 58  1  0
 19 59  1  0
 23 60  1  0
 25 61  1  0
 26 62  1  0
 30 63  1  0
 31 64  1  0
 32 65  1  0
 33 66  1  0
 34 67  1  0
 37 68  1  0
 37 69  1  0
 39 70  1  0
M  END
$$$$
[H]OC([H])([H])C(=O)N1C([H])([H])C([H])([H])[C@]([H])(N2C(=O)N(c3c([H])c([H])c([H])c([H])c3Cl)C([H])([H])c3c([H])nc(N([H])c4c([H])c([H])c(N5C([H])([H])C([H])([H])N(C([H])([H])[H])C([H])([H])C5([H])[H])c(C([H])([H])[H])c4[H])nc32)C1([H])[H]
     RDKit          3D

 77 82  0  0  0  0  0  0  0  0999 V2000
   10.3499    0.3000   -0.0670 C   0  0  0  0  0  0  0  0  0  0  0  0
    9.1497    0.5704   -0.7886 N   0  0  0  0  0  0  0  0  0  0  0  0
    8.3718   -0.5707   -1.1184 C   0  0  0  0  0  0  0  0  0  0  0  0
    7.2965   -0.8890   -0.1051 C   0  0  0  0  0  0  0  0  0  0  0  0
    6.5439    0.3367    0.2026 N   0  0  0  0  0  0  0  0  0  0  0  0
    7.3632    1.4636    0.6449 C   0  0  0  0  0  0  0  0  0  0  0  0
    8.4288    1.7228   -0.3781 C   0  0  0  0  0  0  0  0  0  0  0  0
    5.1387    0.4154    0.0796 C   0  0  0  0  0  0  0  0  0  0  0  0
    4.5714    1.3195   -0.7771 C   0  0  0  0  0  0  0  0  0  0  0  0
    3.2241    1.4367   -0.9349 C   0  0  0  0  0  0  0  0  0  0  0  0
    2.3375    0.6187   -0.2110 C   0  0  0  0  0  0  0  0  0  0  0  0
    0.9456    0.8049   -0.4021 N   0  0  0  0  0  0  0  0  0  0  0  0
   -0.0873   -0.1098   -0.0951 C   0  0  0  0  0  0  0  0  0  0  0  0
    0.1279   -1.3172    0.4217 N   0  0  0  0  0  0  0  0  0  0  0  0
   -0.8324   -2.2054    0.7233 C   0  0  0  0  0  0  0  0  0  0  0  0
   -2.1695   -1.8705    0.4902 C   0  0  0  0  0  0  0  0  0  0  0  0
   -3.1974   -2.8459    0.8223 C   0  0  0  0  0  0  0  0  0  0  0  0
   -4.5172   -2.3821    0.5399 N   0  0  0  0  0  0  0  0  0  0  0  0
   -4.7651   -1.0889   -0.0154 C   0  0  0  0  0  0  0  0  0  0  0  0
   -5.9479   -0.7111   -0.2554 O   0  0  0  0  0  0  0  0  0  0  0  0
   -3.7259   -0.1796   -0.3211 N   0  0  0  0  0  0  0  0  0  0  0  0
   -3.9572    1.1132   -0.8749 C   0  0  1  0  0  0  0  0  0  0  0  0
   -4.6314    1.1107   -2.2013 C   0  0  0  0  0  0  0  0  0  0  0  0
   -5.4681    2.3657   -2.2039 C   0  0  0  0  0  0  0  0  0  0  0  0
   -5.2150    3.0369   -0.9556 N   0  0  0  0  0  0  0  0  0  0  0  0
   -4.7556    2.0464   -0.0173 C   0  0  0  0  0  0  0  0  0  0  0  0
   -5.3806    4.4119   -0.6799 C   0  0  0  0  0  0  0  0  0  0  0  0
   -5.7938    5.2309   -1.5652 O   0  0  0  0  0  0  0  0  0  0  0  0
   -5.0777    4.9561    0.6589 C   0  0  0  0  0  0  0  0  0  0  0  0
   -5.3201    6.3236    0.6850 O   0  0  0  0  0  0  0  0  0  0  0  0
   -2.3810   -0.6346   -0.0382 C   0  0  0  0  0  0  0  0  0  0  0  0
   -1.3815    0.2141   -0.3206 N   0  0  0  0  0  0  0  0  0  0  0  0
   -5.6849   -3.1730    0.7910 C   0  0  0  0  0  0  0  0  0  0  0  0
   -6.3776   -3.1575    1.9803 C   0  0  0  0  0  0  0  0  0  0  0  0
   -7.4923   -3.9211    2.2036 C   0  0  0  0  0  0  0  0  0  0  0  0
   -7.9648   -4.7465    1.2224 C   0  0  0  0  0  0  0  0  0  0  0  0
   -7.2976   -4.7933    0.0084 C   0  0  0  0  0  0  0  0  0  0  0  0
   -6.1604   -4.0028   -0.1946 C   0  0  0  0  0  0  0  0  0  0  0  0
   -5.3339   -4.0737   -1.7263 Cl  0  0  0  0  0  0  0  0  0  0  0  0
    2.9034   -0.2830    0.6445 C   0  0  0  0  0  0  0  0  0  0  0  0
    4.2978   -0.3892    0.7933 C   0  0  0  0  0  0  0  0  0  0  0  0
    4.8714   -1.3802    1.7305 C   0  0  0  0  0  0  0  0  0  0  0  0
   10.3603   -0.7550    0.3349 H   0  0  0  0  0  0  0  0  0  0  0  0
   11.1953    0.3289   -0.8048 H   0  0  0  0  0  0  0  0  0  0  0  0
   10.5550    1.0029    0.7506 H   0  0  0  0  0  0  0  0  0  0  0  0
    9.0348   -1.4569   -1.1863 H   0  0  0  0  0  0  0  0  0  0  0  0
    7.8764   -0.4916   -2.1267 H   0  0  0  0  0  0  0  0  0  0  0  0
    6.6128   -1.6128   -0.5561 H   0  0  0  0  0  0  0  0  0  0  0  0
    7.6910   -1.2934    0.8275 H   0  0  0  0  0  0  0  0  0  0  0  0
    6.7076    2.3517    0.6833 H   0  0  0  0  0  0  0  0  0  0  0  0
    7.7672    1.2791    1.6488 H   0  0  0  0  0  0  0  0  0  0  0  0
    7.9641    2.2309   -1.2607 H   0  0  0  0  0  0  0  0  0  0  0  0
    9.1495    2.4403    0.0748 H   0  0  0  0  0  0  0  0  0  0  0  0
    5.2155    1.9793   -1.3634 H   0  0  0  0  0  0  0  0  0  0  0  0
    2.7947    2.1515   -1.6119 H   0  0  0  0  0  0  0  0  0  0  0  0
    0.6321    1.7348   -0.8203 H   0  0  0  0  0  0  0  0  0  0  0  0
   -0.5410   -3.1584    1.1397 H   0  0  0  0  0  0  0  0  0  0  0  0
   -3.0292   -3.7176    0.1118 H   0  0  0  0  0  0  0  0  0  0  0  0
   -3.0903   -3.2034    1.8758 H   0  0  0  0  0  0  0  0  0  0  0  0
   -2.9566    1.6217   -1.0180 H   0  0  0  0  0  0  0  0  0  0  0  0
   -5.2888    0.2691   -2.4110 H   0  0  0  0  0  0  0  0  0  0  0  0
   -3.8652    1.1220   -3.0156 H   0  0  0  0  0  0  0  0  0  0  0  0
   -5.1800    2.9568   -3.0909 H   0  0  0  0  0  0  0  0  0  0  0  0
   -6.5584    2.1277   -2.2560 H   0  0  0  0  0  0  0  0  0  0  0  0
   -5.6430    1.6137    0.4583 H   0  0  0  0  0  0  0  0  0  0  0  0
   -4.1507    2.4916    0.8022 H   0  0  0  0  0  0  0  0  0  0  0  0
   -3.9991    4.8187    0.8772 H   0  0  0  0  0  0  0  0  0  0  0  0
   -5.6719    4.4198    1.4312 H   0  0  0  0  0  0  0  0  0  0  0  0
   -5.4873    6.6932   -0.1973 H   0  0  0  0  0  0  0  0  0  0  0  0
   -5.9989   -2.4994    2.7592 H   0  0  0  0  0  0  0  0  0  0  0  0
   -7.9914   -3.8715    3.1436 H   0  0  0  0  0  0  0  0  0  0  0  0
   -8.8428   -5.3735    1.3432 H   0  0  0  0  0  0  0  0  0  0  0  0
   -7.6220   -5.4271   -0.8094 H   0  0  0  0  0  0  0  0  0  0  0  0
    2.3203   -0.9471    1.2591 H   0  0  0  0  0  0  0  0  0  0  0  0
    5.1192   -2.3103    1.2010 H   0  0  0  0  0  0  0  0  0  0  0  0
    5.7730   -0.9707    2.2342 H   0  0  0  0  0  0  0  0  0  0  0  0
    4.1420   -1.6180    2.5364 H   0  0  0  0  0  0  0  0  0  0  0  0
  1  2  1  0
  2  3  1  0
  3  4  1  0
  4  5  1  0
  5  6  1  0
  6  7  1  0
  5  8  1  0
  8  9  2  0
  9 10  1  0
 10 11  2  0
 11 12  1  0
 12 13  1  0
 13 14  2  0
 14 15  1  0
 15 16  2  0
 16 17  1  0
 17 18  1  0
 18 19  1  0
 19 20  2  0
 19 21  1  0
 21 22  1  0
 22 23  1  0
 23 24  1  0
 24 25  1  0
 25 26  1  0
 25 27  1  0
 27 28  2  0
 27 29  1  0
 29 30  1  0
 21 31  1  0
 31 32  2  0
 18 33  1  0
 33 34  2  0
 34 35  1  0
 35 36  2  0
 36 37  1  0
 37 38  2  0
 38 39  1  0
 11 40  1  0
 40 41  2  0
 41 42  1  0
  7  2  1  0
 41  8  1  0
 32 13  1  0
 38 33  1  0
 31 16  1  0
 26 22  1  0
  1 43  1  0
  1 44  1  0
  1 45  1  0
  3 46  1  0
  3 47  1  0
  4 48  1  0
  4 49  1  0
  6 50  1  0
  6 51  1  0
  7 52  1  0
  7 53  1  0
  9 54  1  0
 10 55  1  0
 12 56  1  0
 15 57  1  0
 17 58  1  0
 17 59  1  0
 22 60  1  6
 23 61  1  0
 23 62  1  0
 24 63  1  0
 24 64  1  0
 26 65  1  0
 26 66  1  0
 29 67  1  0
 29 68  1  0
 30 69  1  0
 34 70  1  0
 35 71  1  0
 36 72  1  0
 37 73  1  0
 40 74  1  0
 42 75  1  0
 42 76  1  0
 42 77  1  0
M  END
$$$$
[H]C1=C([H])C(=O)C(=C([H])N([H])c2c([H])c([H])c(C(=O)O[C@]([H])(C([H])([H])Oc3c([H])c([H])c(C(C([H])([H])[H])(C([H])([H])[H])C([H])([H])[H])c([H])c3[H])C([H])([H])n3c([N+](=O)[O-])nc([H])c3[H])c([H])c2[H])C1=O
     RDKit          3D

 68 71  0  0  0  0  0  0  0  0999 V2000
   -8.5409    1.6783   -0.8407 C   0  0  0  0  0  0  0  0  0  0  0  0
   -7.4980    2.2989    0.0742 C   0  0  0  0  0  0  0  0  0  0  0  0
   -7.2291    3.7216   -0.3177 C   0  0  0  0  0  0  0  0  0  0  0  0
   -8.0194    2.2666    1.4822 C   0  0  0  0  0  0  0  0  0  0  0  0
   -6.2351    1.5169   -0.0291 C   0  0  0  0  0  0  0  0  0  0  0  0
   -6.2579    0.2672   -0.5564 C   0  0  0  0  0  0  0  0  0  0  0  0
   -5.1386   -0.5233   -0.6884 C   0  0  0  0  0  0  0  0  0  0  0  0
   -3.9146   -0.0041   -0.2537 C   0  0  0  0  0  0  0  0  0  0  0  0
   -2.8318   -0.8369   -0.4094 O   0  0  0  0  0  0  0  0  0  0  0  0
   -1.5329   -0.4441   -0.0266 C   0  0  0  0  0  0  0  0  0  0  0  0
   -0.5503   -1.5923   -0.3192 C   0  0  2  0  0  0  0  0  0  0  0  0
   -0.8990   -2.7405    0.5951 C   0  0  0  0  0  0  0  0  0  0  0  0
    0.0028   -3.8382    0.3279 N   0  0  0  0  0  0  0  0  0  0  0  0
    1.2021   -4.0669    0.9376 C   0  0  0  0  0  0  0  0  0  0  0  0
    1.7721   -5.1950    0.4390 C   0  0  0  0  0  0  0  0  0  0  0  0
    0.9299   -5.6657   -0.4769 N   0  0  0  0  0  0  0  0  0  0  0  0
   -0.1456   -4.8463   -0.5485 C   0  0  0  0  0  0  0  0  0  0  0  0
   -1.2309   -5.0725   -1.4380 N   0  0  0  0  0  0  0  0  0  0  0  0
   -2.2985   -4.2488   -1.5109 O   0  0  0  0  0  0  0  0  0  0  0  0
   -1.2134   -6.0831   -2.1976 O   0  0  0  0  0  0  0  0  0  0  0  0
    0.7831   -1.2001    0.0215 O   0  0  0  0  0  0  0  0  0  0  0  0
    1.7414   -1.1445   -0.9926 C   0  0  0  0  0  0  0  0  0  0  0  0
    1.2902   -1.4619   -2.1559 O   0  0  0  0  0  0  0  0  0  0  0  0
    3.1259   -0.7730   -0.8231 C   0  0  0  0  0  0  0  0  0  0  0  0
    3.9469   -0.7449   -1.9339 C   0  0  0  0  0  0  0  0  0  0  0  0
    5.2639   -0.3986   -1.7784 C   0  0  0  0  0  0  0  0  0  0  0  0
    5.8297   -0.0676   -0.5425 C   0  0  0  0  0  0  0  0  0  0  0  0
    7.2104    0.2839   -0.4646 N   0  0  0  0  0  0  0  0  0  0  0  0
    7.7811    0.5909    0.7798 C   0  0  0  0  0  0  0  0  0  0  0  0
    8.5055    1.7001    0.8868 C   0  0  0  0  0  0  0  0  0  0  0  0
    9.1915    2.2199    2.0641 C   0  0  0  0  0  0  0  0  0  0  0  0
    9.1857    1.6543    3.1814 O   0  0  0  0  0  0  0  0  0  0  0  0
    9.8416    3.4652    1.6666 C   0  0  0  0  0  0  0  0  0  0  0  0
    9.6100    3.7251    0.3976 C   0  0  0  0  0  0  0  0  0  0  0  0
    8.7803    2.6649   -0.1619 C   0  0  0  0  0  0  0  0  0  0  0  0
    8.3999    2.6565   -1.3720 O   0  0  0  0  0  0  0  0  0  0  0  0
    5.0020   -0.0985    0.5577 C   0  0  0  0  0  0  0  0  0  0  0  0
    3.6630   -0.4537    0.3815 C   0  0  0  0  0  0  0  0  0  0  0  0
   -3.8862    1.2591    0.2794 C   0  0  0  0  0  0  0  0  0  0  0  0
   -5.0183    2.0425    0.4069 C   0  0  0  0  0  0  0  0  0  0  0  0
   -9.4046    2.3409   -1.0111 H   0  0  0  0  0  0  0  0  0  0  0  0
   -8.0670    1.4039   -1.8235 H   0  0  0  0  0  0  0  0  0  0  0  0
   -8.9170    0.7451   -0.3609 H   0  0  0  0  0  0  0  0  0  0  0  0
   -6.4270    3.8039   -1.0903 H   0  0  0  0  0  0  0  0  0  0  0  0
   -8.1941    4.1515   -0.6644 H   0  0  0  0  0  0  0  0  0  0  0  0
   -6.9524    4.2813    0.6122 H   0  0  0  0  0  0  0  0  0  0  0  0
   -7.8990    3.2485    1.9742 H   0  0  0  0  0  0  0  0  0  0  0  0
   -9.0972    2.0393    1.4810 H   0  0  0  0  0  0  0  0  0  0  0  0
   -7.4510    1.4880    2.0525 H   0  0  0  0  0  0  0  0  0  0  0  0
   -7.1873   -0.2001   -0.9205 H   0  0  0  0  0  0  0  0  0  0  0  0
   -5.1771   -1.5348   -1.1169 H   0  0  0  0  0  0  0  0  0  0  0  0
   -1.1821    0.4538   -0.5546 H   0  0  0  0  0  0  0  0  0  0  0  0
   -1.5573   -0.2541    1.0671 H   0  0  0  0  0  0  0  0  0  0  0  0
   -0.6614   -1.8581   -1.3833 H   0  0  0  0  0  0  0  0  0  0  0  0
   -0.6391   -2.3703    1.6256 H   0  0  0  0  0  0  0  0  0  0  0  0
   -1.9592   -3.0444    0.5415 H   0  0  0  0  0  0  0  0  0  0  0  0
    1.6135   -3.4388    1.6932 H   0  0  0  0  0  0  0  0  0  0  0  0
    2.7296   -5.6746    0.6978 H   0  0  0  0  0  0  0  0  0  0  0  0
    3.5579   -0.9930   -2.9349 H   0  0  0  0  0  0  0  0  0  0  0  0
    5.9273   -0.3708   -2.6361 H   0  0  0  0  0  0  0  0  0  0  0  0
    7.7554    0.2994   -1.3660 H   0  0  0  0  0  0  0  0  0  0  0  0
    7.6322   -0.0656    1.6342 H   0  0  0  0  0  0  0  0  0  0  0  0
   10.4225    4.0531    2.3669 H   0  0  0  0  0  0  0  0  0  0  0  0
    9.9790    4.5867   -0.1355 H   0  0  0  0  0  0  0  0  0  0  0  0
    5.3811    0.1462    1.5328 H   0  0  0  0  0  0  0  0  0  0  0  0
    3.0689   -0.4504    1.3118 H   0  0  0  0  0  0  0  0  0  0  0  0
   -2.9292    1.6640    0.6203 H   0  0  0  0  0  0  0  0  0  0  0  0
   -4.9839    3.0378    0.8308 H   0  0  0  0  0  0  0  0  0  0  0  0
  1  2  1  0
  2  3  1  0
  2  4  1  0
  2  5  1  0
  5  6  2  0
  6  7  1  0
  7  8  2  0
  8  9  1  0
  9 10  1  0
 10 11  1  0
 11 12  1  0
 12 13  1  0
 13 14  1  0
 14 15  2  0
 15 16  1  0
 16 17  2  0
 17 18  1  0
 18 19  1  0
 18 20  2  0
 11 21  1  0
 21 22  1  0
 22 23  2  0
 22 24  1  0
 24 25  2  0
 25 26  1  0
 26 27  2  0
 27 28  1  0
 28 29  1  0
 29 30  2  3
 30 31  1  0
 31 32  2  0
 31 33  1  0
 33 34  2  0
 34 35  1  0
 35 36  2  0
 27 37  1  0
 37 38  2  0
  8 39  1  0
 39 40  2  0
 40  5  1  0
 17 13  1  0
 38 24  1  0
 35 30  1  0
  1 41  1  0
  1 42  1  0
  1 43  1  0
  3 44  1  0
  3 45  1  0
  3 46  1  0
  4 47  1  0
  4 48  1  0
  4 49  1  0
  6 50  1  0
  7 51  1  0
 10 52  1  0
 10 53  1  0
 11 54  1  6
 12 55  1  0
 12 56  1  0
 14 57  1  0
 15 58  1  0
 25 59  1  0
 26 60  1  0
 28 61  1  0
 29 62  1  0
 33 63  1  0
 34 64  1  0
 37 65  1  0
 38 66  1  0
 39 67  1  0
 40 68  1  0
M  CHG  2  18   1  19  -1
M  END
$$$$
[H]c1nc(N([H])c2c([H])c([H])c3c(c([H])nn3C([H])([H])c3c([H])c([H])c([H])c(F)c3[H])c2[H])c2c(C([H])([H])N3C([H])([H])C([H])([H])[C@]([H])(N([H])[H])C3([H])[H])c([H])c([H])n2n1
     RDKit          3D

 59 64  0  0  0  0  0  0  0  0999 V2000
   -5.0334   -4.3522   -0.2310 N   0  0  0  0  0  0  0  0  0  0  0  0
   -4.6228   -2.9541   -0.3969 C   0  0  1  0  0  0  0  0  0  0  0  0
   -5.7766   -2.1714   -1.0190 C   0  0  0  0  0  0  0  0  0  0  0  0
   -5.7341   -0.8784   -0.2752 C   0  0  0  0  0  0  0  0  0  0  0  0
   -4.7535   -0.9332    0.7260 N   0  0  0  0  0  0  0  0  0  0  0  0
   -3.5440   -0.1649    0.5013 C   0  0  0  0  0  0  0  0  0  0  0  0
   -3.7635    1.2974    0.5041 C   0  0  0  0  0  0  0  0  0  0  0  0
   -4.9873    1.9481    0.7027 C   0  0  0  0  0  0  0  0  0  0  0  0
   -4.7428    3.2953    0.6286 C   0  0  0  0  0  0  0  0  0  0  0  0
   -3.4441    3.4820    0.3983 N   0  0  0  0  0  0  0  0  0  0  0  0
   -2.7782    4.6261    0.2630 N   0  0  0  0  0  0  0  0  0  0  0  0
   -1.4487    4.6368    0.0401 C   0  0  0  0  0  0  0  0  0  0  0  0
   -0.8303    3.4791   -0.0393 N   0  0  0  0  0  0  0  0  0  0  0  0
   -1.4624    2.2989    0.0909 C   0  0  0  0  0  0  0  0  0  0  0  0
   -0.7028    1.1298   -0.0378 N   0  0  0  0  0  0  0  0  0  0  0  0
    0.7265    1.1590   -0.2232 C   0  0  0  0  0  0  0  0  0  0  0  0
    1.3067    0.1933   -1.0597 C   0  0  0  0  0  0  0  0  0  0  0  0
    2.6610    0.1079   -1.2740 C   0  0  0  0  0  0  0  0  0  0  0  0
    3.5146    0.9993   -0.6515 C   0  0  0  0  0  0  0  0  0  0  0  0
    4.8535    1.1408   -0.6836 N   0  0  0  0  0  0  0  0  0  0  0  0
    5.8268    0.3322   -1.4357 C   0  0  0  0  0  0  0  0  0  0  0  0
    6.2635   -0.7848   -0.5984 C   0  0  0  0  0  0  0  0  0  0  0  0
    5.6292   -1.9860   -0.6425 C   0  0  0  0  0  0  0  0  0  0  0  0
    6.1027   -2.9917    0.1829 C   0  0  0  0  0  0  0  0  0  0  0  0
    7.1737   -2.7899    1.0181 C   0  0  0  0  0  0  0  0  0  0  0  0
    7.8012   -1.5815    1.0534 C   0  0  0  0  0  0  0  0  0  0  0  0
    8.8588   -1.4076    1.8887 F   0  0  0  0  0  0  0  0  0  0  0  0
    7.3502   -0.5720    0.2457 C   0  0  0  0  0  0  0  0  0  0  0  0
    5.1302    2.1679    0.1095 N   0  0  0  0  0  0  0  0  0  0  0  0
    4.0160    2.6856    0.6457 C   0  0  0  0  0  0  0  0  0  0  0  0
    2.9511    1.9455    0.1683 C   0  0  0  0  0  0  0  0  0  0  0  0
    1.5686    2.0379    0.3918 C   0  0  0  0  0  0  0  0  0  0  0  0
   -2.8407    2.2805    0.3213 C   0  0  0  0  0  0  0  0  0  0  0  0
   -4.4107   -2.2986    0.9426 C   0  0  0  0  0  0  0  0  0  0  0  0
   -6.0188   -4.4903   -0.5559 H   0  0  0  0  0  0  0  0  0  0  0  0
   -4.9977   -4.5690    0.7867 H   0  0  0  0  0  0  0  0  0  0  0  0
   -3.6982   -2.8757   -0.9944 H   0  0  0  0  0  0  0  0  0  0  0  0
   -6.7336   -2.7332   -0.8905 H   0  0  0  0  0  0  0  0  0  0  0  0
   -5.6228   -2.0471   -2.1135 H   0  0  0  0  0  0  0  0  0  0  0  0
   -5.6431   -0.0017   -0.9667 H   0  0  0  0  0  0  0  0  0  0  0  0
   -6.7328   -0.7844    0.2434 H   0  0  0  0  0  0  0  0  0  0  0  0
   -2.8541   -0.4692    1.3034 H   0  0  0  0  0  0  0  0  0  0  0  0
   -3.1266   -0.4318   -0.5067 H   0  0  0  0  0  0  0  0  0  0  0  0
   -5.9322    1.4524    0.8871 H   0  0  0  0  0  0  0  0  0  0  0  0
   -5.5182    4.0739    0.7453 H   0  0  0  0  0  0  0  0  0  0  0  0
   -0.9609    5.6056   -0.0619 H   0  0  0  0  0  0  0  0  0  0  0  0
   -1.1001    0.1992   -0.0068 H   0  0  0  0  0  0  0  0  0  0  0  0
    0.6192   -0.5027   -1.5436 H   0  0  0  0  0  0  0  0  0  0  0  0
    3.0820   -0.6420   -1.9204 H   0  0  0  0  0  0  0  0  0  0  0  0
    5.3095    0.0302   -2.3593 H   0  0  0  0  0  0  0  0  0  0  0  0
    6.6921    1.0138   -1.6645 H   0  0  0  0  0  0  0  0  0  0  0  0
    4.7942   -2.1946   -1.2742 H   0  0  0  0  0  0  0  0  0  0  0  0
    5.6035   -3.9456    0.1517 H   0  0  0  0  0  0  0  0  0  0  0  0
    7.5332   -3.5790    1.6554 H   0  0  0  0  0  0  0  0  0  0  0  0
    7.8421    0.3719    0.2748 H   0  0  0  0  0  0  0  0  0  0  0  0
    3.9144    3.5195    1.3251 H   0  0  0  0  0  0  0  0  0  0  0  0
    1.1930    2.7938    1.0680 H   0  0  0  0  0  0  0  0  0  0  0  0
   -5.1356   -2.7580    1.6463 H   0  0  0  0  0  0  0  0  0  0  0  0
   -3.3666   -2.4131    1.3052 H   0  0  0  0  0  0  0  0  0  0  0  0
  1  2  1  0
  2  3  1  0
  3  4  1  0
  4  5  1  0
  5  6  1  0
  6  7  1  0
  7  8  1  0
  8  9  2  0
  9 10  1  0
 10 11  1  0
 11 12  2  0
 12 13  1  0
 13 14  2  0
 14 15  1  0
 15 16  1  0
 16 17  2  0
 17 18  1  0
 18 19  2  0
 19 20  1  0
 20 21  1  0
 21 22  1  0
 22 23  2  0
 23 24  1  0
 24 25  2  0
 25 26  1  0
 26 27  1  0
 26 28  2  0
 20 29  1  0
 29 30  2  0
 30 31  1  0
 31 32  2  0
 14 33  1  0
  5 34  1  0
 34  2  1  0
 33  7  2  0
 33 10  1  0
 32 16  1  0
 31 19  1  0
 28 22  1  0
  1 35  1  0
  1 36  1  0
  2 37  1  6
  3 38  1  0
  3 39  1  0
  4 40  1  0
  4 41  1  0
  6 42  1  0
  6 43  1  0
  8 44  1  0
  9 45  1  0
 12 46  1  0
 15 47  1  0
 17 48  1  0
 18 49  1  0
 21 50  1  0
 21 51  1  0
 23 52  1  0
 24 53  1  0
 25 54  1  0
 28 55  1  0
 30 56  1  0
 32 57  1  0
 34 58  1  0
 34 59  1  0
M  END
$$$$
[H]C([H])=C([H])C(=O)N([H])c1c(OC([H])([H])C([H])([H])N([H])C(=O)C([H])([H])[H])c([H])c2nc([H])nc(N([H])c3c([H])c(OC([H])([H])[H])c(Cl)c([H])c3F)c2c1[H]
     RDKit          3D

 54 56  0  0  0  0  0  0  0  0999 V2000
   -8.3861    0.2269    2.4127 C   0  0  0  0  0  0  0  0  0  0  0  0
   -7.5546   -0.3128    1.5456 O   0  0  0  0  0  0  0  0  0  0  0  0
   -6.7627   -0.8131    0.7355 C   0  0  0  0  0  0  0  0  0  0  0  0
   -5.3820   -0.4758    0.6930 C   0  0  0  0  0  0  0  0  0  0  0  0
   -4.4932   -0.9980   -0.1709 C   0  0  0  0  0  0  0  0  0  0  0  0
   -3.1040   -0.7235   -0.2408 N   0  0  0  0  0  0  0  0  0  0  0  0
   -2.3919    0.1941    0.5370 C   0  0  0  0  0  0  0  0  0  0  0  0
   -2.9334    0.9993    1.4451 N   0  0  0  0  0  0  0  0  0  0  0  0
   -2.2721    1.8808    2.1783 C   0  0  0  0  0  0  0  0  0  0  0  0
   -0.9504    2.0695    2.0908 N   0  0  0  0  0  0  0  0  0  0  0  0
   -0.3211    1.2759    1.1740 C   0  0  0  0  0  0  0  0  0  0  0  0
    1.0474    1.3862    1.0092 C   0  0  0  0  0  0  0  0  0  0  0  0
    1.7467    0.6220    0.1183 C   0  0  0  0  0  0  0  0  0  0  0  0
    3.0913    0.6850   -0.0906 O   0  0  0  0  0  0  0  0  0  0  0  0
    4.0746    1.4672    0.4998 C   0  0  0  0  0  0  0  0  0  0  0  0
    5.4483    1.1534   -0.1568 C   0  0  0  0  0  0  0  0  0  0  0  0
    6.4917    1.8364    0.3334 N   0  0  0  0  0  0  0  0  0  0  0  0
    7.5542    2.5322    0.8326 C   0  0  0  0  0  0  0  0  0  0  0  0
    8.6887    1.6617    1.3834 C   0  0  0  0  0  0  0  0  0  0  0  0
    7.7684    3.7424    0.9224 O   0  0  0  0  0  0  0  0  0  0  0  0
    1.0493   -0.3240   -0.6719 C   0  0  0  0  0  0  0  0  0  0  0  0
    1.7575   -1.0958   -1.6111 N   0  0  0  0  0  0  0  0  0  0  0  0
    1.2731   -2.1693   -2.3474 C   0  0  0  0  0  0  0  0  0  0  0  0
    0.1107   -2.6633   -2.3051 O   0  0  0  0  0  0  0  0  0  0  0  0
    2.1739   -2.8547   -3.3160 C   0  0  0  0  0  0  0  0  0  0  0  0
    3.4162   -2.4911   -3.5198 C   0  0  0  0  0  0  0  0  0  0  0  0
   -0.2951   -0.4297   -0.5060 C   0  0  0  0  0  0  0  0  0  0  0  0
   -0.9900    0.3540    0.4029 C   0  0  0  0  0  0  0  0  0  0  0  0
   -5.0206   -1.9538   -1.0921 C   0  0  0  0  0  0  0  0  0  0  0  0
   -4.1591   -2.5002   -1.9770 F   0  0  0  0  0  0  0  0  0  0  0  0
   -6.3241   -2.3189   -1.1033 C   0  0  0  0  0  0  0  0  0  0  0  0
   -7.1915   -1.7788   -0.2258 C   0  0  0  0  0  0  0  0  0  0  0  0
   -8.8574   -2.2715   -0.2705 Cl  0  0  0  0  0  0  0  0  0  0  0  0
   -9.0911   -0.5313    2.8670 H   0  0  0  0  0  0  0  0  0  0  0  0
   -9.0785    1.0333    2.0054 H   0  0  0  0  0  0  0  0  0  0  0  0
   -7.8205    0.7308    3.2651 H   0  0  0  0  0  0  0  0  0  0  0  0
   -5.1195    0.2479    1.4362 H   0  0  0  0  0  0  0  0  0  0  0  0
   -2.5788   -1.2717   -0.9581 H   0  0  0  0  0  0  0  0  0  0  0  0
   -2.7777    2.5218    2.9206 H   0  0  0  0  0  0  0  0  0  0  0  0
    1.5794    2.1262    1.6243 H   0  0  0  0  0  0  0  0  0  0  0  0
    3.8583    2.5417    0.3834 H   0  0  0  0  0  0  0  0  0  0  0  0
    4.1782    1.2896    1.6010 H   0  0  0  0  0  0  0  0  0  0  0  0
    5.5616    0.0037   -0.0995 H   0  0  0  0  0  0  0  0  0  0  0  0
    5.2659    1.3407   -1.2641 H   0  0  0  0  0  0  0  0  0  0  0  0
    5.8969    3.0554    0.0417 H   0  0  0  0  0  0  0  0  0  0  0  0
    9.5807    2.2877    1.5550 H   0  0  0  0  0  0  0  0  0  0  0  0
    8.8863    0.8859    0.6107 H   0  0  0  0  0  0  0  0  0  0  0  0
    8.3633    1.2713    2.3560 H   0  0  0  0  0  0  0  0  0  0  0  0
    2.7717   -0.8016   -1.7642 H   0  0  0  0  0  0  0  0  0  0  0  0
    1.7953   -3.7120   -3.8994 H   0  0  0  0  0  0  0  0  0  0  0  0
    3.9994   -3.0489   -4.2480 H   0  0  0  0  0  0  0  0  0  0  0  0
    3.9287   -1.6874   -3.0386 H   0  0  0  0  0  0  0  0  0  0  0  0
   -0.8862   -1.1352   -1.0883 H   0  0  0  0  0  0  0  0  0  0  0  0
   -6.6168   -3.0605   -1.8539 H   0  0  0  0  0  0  0  0  0  0  0  0
  1  2  1  0
  2  3  1  0
  3  4  2  0
  4  5  1  0
  5  6  1  0
  6  7  1  0
  7  8  2  0
  8  9  1  0
  9 10  2  0
 10 11  1  0
 11 12  2  0
 12 13  1  0
 13 14  1  0
 14 15  1  0
 15 16  1  0
 16 17  1  0
 17 18  1  0
 18 19  1  0
 18 20  2  0
 13 21  2  0
 21 22  1  0
 22 23  1  0
 23 24  2  0
 23 25  1  0
 25 26  2  3
 21 27  1  0
 27 28  2  0
  5 29  2  0
 29 30  1  0
 29 31  1  0
 31 32  2  0
 32 33  1  0
 32  3  1  0
 28  7  1  0
 28 11  1  0
  1 34  1  0
  1 35  1  0
  1 36  1  0
  4 37  1  0
  6 38  1  0
  9 39  1  0
 12 40  1  0
 15 41  1  0
 15 42  1  0
 16 43  1  0
 16 44  1  0
 17 45  1  0
 19 46  1  0
 19 47  1  0
 19 48  1  0
 22 49  1  0
 25 50  1  0
 26 51  1  0
 26 52  1  0
 27 53  1  0
 31 54  1  0
M  END
$$$$
[H]c1nc(N([H])c2c([H])c([H])c(Br)c([H])c2[H])c2c([H])c(OC([H])([H])[H])c(OC([H])([H])[H])c([H])c2n1
     RDKit          3D

 36 38  0  0  0  0  0  0  0  0999 V2000
   -4.9817   -1.4439    2.6993 C   0  0  0  0  0  0  0  0  0  0  0  0
   -3.6096   -1.3254    2.9038 O   0  0  0  0  0  0  0  0  0  0  0  0
   -2.6614   -0.9280    1.9848 C   0  0  0  0  0  0  0  0  0  0  0  0
   -3.0311   -0.5924    0.7062 C   0  0  0  0  0  0  0  0  0  0  0  0
   -2.1167   -0.1888   -0.2511 C   0  0  0  0  0  0  0  0  0  0  0  0
   -2.4948    0.1339   -1.5031 N   0  0  0  0  0  0  0  0  0  0  0  0
   -1.6153    0.5226   -2.4386 C   0  0  0  0  0  0  0  0  0  0  0  0
   -0.3312    0.5833   -2.0918 N   0  0  0  0  0  0  0  0  0  0  0  0
    0.1153    0.2758   -0.8612 C   0  0  0  0  0  0  0  0  0  0  0  0
    1.4652    0.3980   -0.5581 N   0  0  0  0  0  0  0  0  0  0  0  0
    2.4276    0.7687   -1.5632 C   0  0  0  0  0  0  0  0  0  0  0  0
    2.3447    0.3013   -2.8468 C   0  0  0  0  0  0  0  0  0  0  0  0
    3.2878    0.7339   -3.7665 C   0  0  0  0  0  0  0  0  0  0  0  0
    4.2952    1.6052   -3.4443 C   0  0  0  0  0  0  0  0  0  0  0  0
    5.5951    2.2078   -4.6893 Br  0  0  0  0  0  0  0  0  0  0  0  0
    4.3503    2.0549   -2.1444 C   0  0  0  0  0  0  0  0  0  0  0  0
    3.4467    1.6620   -1.1968 C   0  0  0  0  0  0  0  0  0  0  0  0
   -0.7875   -0.1325    0.1295 C   0  0  0  0  0  0  0  0  0  0  0  0
   -0.3819   -0.4607    1.3995 C   0  0  0  0  0  0  0  0  0  0  0  0
   -1.3332   -0.8679    2.3521 C   0  0  0  0  0  0  0  0  0  0  0  0
   -0.9073   -1.1957    3.6284 O   0  0  0  0  0  0  0  0  0  0  0  0
    0.4658   -1.1150    3.9390 C   0  0  0  0  0  0  0  0  0  0  0  0
   -5.4554   -2.1827    3.3838 H   0  0  0  0  0  0  0  0  0  0  0  0
   -5.1593   -1.7199    1.6398 H   0  0  0  0  0  0  0  0  0  0  0  0
   -5.4516   -0.4539    2.9221 H   0  0  0  0  0  0  0  0  0  0  0  0
   -4.0682   -0.6162    0.3454 H   0  0  0  0  0  0  0  0  0  0  0  0
   -1.9251    0.7834   -3.4544 H   0  0  0  0  0  0  0  0  0  0  0  0
    1.9141    0.2455    0.3728 H   0  0  0  0  0  0  0  0  0  0  0  0
    1.5781   -0.4188   -3.1739 H   0  0  0  0  0  0  0  0  0  0  0  0
    3.2137    0.3599   -4.7780 H   0  0  0  0  0  0  0  0  0  0  0  0
    5.1499    2.7610   -1.8432 H   0  0  0  0  0  0  0  0  0  0  0  0
    3.4880    2.0144   -0.1727 H   0  0  0  0  0  0  0  0  0  0  0  0
    0.6637   -0.4115    1.6778 H   0  0  0  0  0  0  0  0  0  0  0  0
    0.6024   -1.5493    4.9594 H   0  0  0  0  0  0  0  0  0  0  0  0
    0.8503   -0.0945    3.9347 H   0  0  0  0  0  0  0  0  0  0  0  0
    1.0574   -1.7146    3.1986 H   0  0  0  0  0  0  0  0  0  0  0  0
  1  2  1  0
  2  3  1  0
  3  4  2  0
  4  5  1  0
  5  6  2  0
  6  7  1  0
  7  8  2  0
  8  9  1  0
  9 10  1  0
 10 11  1  0
 11 12  2  0
 12 13  1  0
 13 14  2  0
 14 15  1  0
 14 16  1  0
 16 17  2  0
  9 18  2  0
 18 19  1  0
 19 20  2  0
 20 21  1  0
 21 22  1  0
 20  3  1  0
 18  5  1  0
 17 11  1  0
  1 23  1  0
  1 24  1  0
  1 25  1  0
  4 26  1  0
  7 27  1  0
 10 28  1  0
 12 29  1  0
 13 30  1  0
 16 31  1  0
 17 32  1  0
 19 33  1  0
 22 34  1  0
 22 35  1  0
 22 36  1  0
M  END
$$$$
[H]Oc1c([H])c([H])c(C([H])([H])C([H])([H])Oc2c([H])c([H])c3c(c2[H])c(C([H])([H])C([H])([H])N([H])[H])c([H])n3C([H])([H])C([H])([H])C([H])([H])C([H])([H])C([H])([H])c2c([H])c([H])c(SC([H])([H])[H])c([H])c2[H])c([H])c1[H]
     RDKit          3D

 71 74  0  0  0  0  0  0  0  0999 V2000
   10.4936   -0.1115    3.1475 C   0  0  0  0  0  0  0  0  0  0  0  0
    9.9310    1.2191    2.0536 S   0  0  0  0  0  0  0  0  0  0  0  0
    8.5443    0.5861    1.0946 C   0  0  0  0  0  0  0  0  0  0  0  0
    8.7399   -0.0352   -0.1209 C   0  0  0  0  0  0  0  0  0  0  0  0
    7.6862   -0.5236   -0.8650 C   0  0  0  0  0  0  0  0  0  0  0  0
    6.3845   -0.4074   -0.4167 C   0  0  0  0  0  0  0  0  0  0  0  0
    5.2548   -0.9446   -1.2451 C   0  0  0  0  0  0  0  0  0  0  0  0
    4.8016    0.1621   -2.1566 C   0  0  0  0  0  0  0  0  0  0  0  0
    3.6753   -0.2016   -3.0598 C   0  0  0  0  0  0  0  0  0  0  0  0
    2.4161   -0.6250   -2.3817 C   0  0  0  0  0  0  0  0  0  0  0  0
    1.9120    0.4806   -1.5106 C   0  0  0  0  0  0  0  0  0  0  0  0
    0.6723    0.1185   -0.8261 N   0  0  0  0  0  0  0  0  0  0  0  0
    0.5427   -0.4749    0.3714 C   0  0  0  0  0  0  0  0  0  0  0  0
   -0.7925   -0.6540    0.6772 C   0  0  0  0  0  0  0  0  0  0  0  0
   -1.4067   -1.2625    1.8828 C   0  0  0  0  0  0  0  0  0  0  0  0
   -1.9434   -0.1346    2.7476 C   0  0  0  0  0  0  0  0  0  0  0  0
   -0.8926    0.7785    3.1555 N   0  0  0  0  0  0  0  0  0  0  0  0
   -1.5224   -0.1468   -0.3822 C   0  0  0  0  0  0  0  0  0  0  0  0
   -2.9008   -0.0638   -0.6082 C   0  0  0  0  0  0  0  0  0  0  0  0
   -3.3650    0.4987   -1.7661 C   0  0  0  0  0  0  0  0  0  0  0  0
   -4.6827    0.6084   -2.0378 O   0  0  0  0  0  0  0  0  0  0  0  0
   -5.8374    0.2885   -1.3954 C   0  0  0  0  0  0  0  0  0  0  0  0
   -6.1295    0.9678   -0.0880 C   0  0  0  0  0  0  0  0  0  0  0  0
   -7.4579    0.4228    0.3742 C   0  0  0  0  0  0  0  0  0  0  0  0
   -7.4388   -0.7070    1.1545 C   0  0  0  0  0  0  0  0  0  0  0  0
   -8.6495   -1.2381    1.6004 C   0  0  0  0  0  0  0  0  0  0  0  0
   -9.8434   -0.6381    1.2626 C   0  0  0  0  0  0  0  0  0  0  0  0
  -11.0512   -1.1952    1.7262 O   0  0  0  0  0  0  0  0  0  0  0  0
   -9.8331    0.4936    0.4792 C   0  0  0  0  0  0  0  0  0  0  0  0
   -8.6394    1.0226    0.0358 C   0  0  0  0  0  0  0  0  0  0  0  0
   -2.3992    0.9693   -2.6798 C   0  0  0  0  0  0  0  0  0  0  0  0
   -1.0524    0.8837   -2.4503 C   0  0  0  0  0  0  0  0  0  0  0  0
   -0.5895    0.3170   -1.2826 C   0  0  0  0  0  0  0  0  0  0  0  0
    6.1849    0.2130    0.7978 C   0  0  0  0  0  0  0  0  0  0  0  0
    7.2473    0.7057    1.5489 C   0  0  0  0  0  0  0  0  0  0  0  0
   11.5672    0.0505    3.4512 H   0  0  0  0  0  0  0  0  0  0  0  0
   10.4978   -1.1064    2.6314 H   0  0  0  0  0  0  0  0  0  0  0  0
    9.9012   -0.1615    4.0807 H   0  0  0  0  0  0  0  0  0  0  0  0
    9.7662   -0.1200   -0.4616 H   0  0  0  0  0  0  0  0  0  0  0  0
    7.8454   -1.0126   -1.8225 H   0  0  0  0  0  0  0  0  0  0  0  0
    5.5705   -1.8396   -1.8150 H   0  0  0  0  0  0  0  0  0  0  0  0
    4.4094   -1.2167   -0.5873 H   0  0  0  0  0  0  0  0  0  0  0  0
    4.6176    1.0751   -1.5564 H   0  0  0  0  0  0  0  0  0  0  0  0
    5.6770    0.4117   -2.8108 H   0  0  0  0  0  0  0  0  0  0  0  0
    3.4357    0.6857   -3.6847 H   0  0  0  0  0  0  0  0  0  0  0  0
    4.0525   -0.9970   -3.7561 H   0  0  0  0  0  0  0  0  0  0  0  0
    1.6537   -0.7925   -3.1778 H   0  0  0  0  0  0  0  0  0  0  0  0
    2.5050   -1.5955   -1.8504 H   0  0  0  0  0  0  0  0  0  0  0  0
    1.7665    1.3751   -2.1465 H   0  0  0  0  0  0  0  0  0  0  0  0
    2.6915    0.7451   -0.7605 H   0  0  0  0  0  0  0  0  0  0  0  0
    1.3411   -0.7905    1.0447 H   0  0  0  0  0  0  0  0  0  0  0  0
   -2.3031   -1.8429    1.5485 H   0  0  0  0  0  0  0  0  0  0  0  0
   -0.7506   -1.9363    2.4300 H   0  0  0  0  0  0  0  0  0  0  0  0
   -2.4588   -0.5271    3.6558 H   0  0  0  0  0  0  0  0  0  0  0  0
   -2.6974    0.4658    2.1996 H   0  0  0  0  0  0  0  0  0  0  0  0
   -0.7345    1.4185    2.3325 H   0  0  0  0  0  0  0  0  0  0  0  0
   -1.2771    1.3675    3.9267 H   0  0  0  0  0  0  0  0  0  0  0  0
   -3.5568   -0.4716    0.1622 H   0  0  0  0  0  0  0  0  0  0  0  0
   -5.8238   -0.8182   -1.1546 H   0  0  0  0  0  0  0  0  0  0  0  0
   -6.7124    0.5086   -2.0630 H   0  0  0  0  0  0  0  0  0  0  0  0
   -6.2494    2.0746   -0.2415 H   0  0  0  0  0  0  0  0  0  0  0  0
   -5.4224    0.7496    0.7199 H   0  0  0  0  0  0  0  0  0  0  0  0
   -6.5507   -1.2258    1.4558 H   0  0  0  0  0  0  0  0  0  0  0  0
   -8.6680   -2.1282    2.2174 H   0  0  0  0  0  0  0  0  0  0  0  0
  -11.9391   -0.7935    1.5054 H   0  0  0  0  0  0  0  0  0  0  0  0
  -10.7628    0.9731    0.2077 H   0  0  0  0  0  0  0  0  0  0  0  0
   -8.6109    1.9218   -0.5885 H   0  0  0  0  0  0  0  0  0  0  0  0
   -2.8004    1.4095   -3.5883 H   0  0  0  0  0  0  0  0  0  0  0  0
   -0.3259    1.2518   -3.1667 H   0  0  0  0  0  0  0  0  0  0  0  0
    5.1824    0.3245    1.1857 H   0  0  0  0  0  0  0  0  0  0  0  0
    7.1043    1.1953    2.5062 H   0  0  0  0  0  0  0  0  0  0  0  0
  1  2  1  0
  2  3  1  0
  3  4  2  0
  4  5  1  0
  5  6  2  0
  6  7  1  0
  7  8  1  0
  8  9  1  0
  9 10  1  0
 10 11  1  0
 11 12  1  0
 12 13  1  0
 13 14  2  0
 14 15  1  0
 15 16  1  0
 16 17  1  0
 14 18  1  0
 18 19  2  0
 19 20  1  0
 20 21  1  0
 21 22  1  0
 22 23  1  0
 23 24  1  0
 24 25  2  0
 25 26  1  0
 26 27  2  0
 27 28  1  0
 27 29  1  0
 29 30  2  0
 20 31  2  0
 31 32  1  0
 32 33  2  0
  6 34  1  0
 34 35  2  0
 35  3  1  0
 33 12  1  0
 33 18  1  0
 30 24  1  0
  1 36  1  0
  1 37  1  0
  1 38  1  0
  4 39  1  0
  5 40  1  0
  7 41  1  0
  7 42  1  0
  8 43  1  0
  8 44  1  0
  9 45  1  0
  9 46  1  0
 10 47  1  0
 10 48  1  0
 11 49  1  0
 11 50  1  0
 13 51  1  0
 15 52  1  0
 15 53  1  0
 16 54  1  0
 16 55  1  0
 17 56  1  0
 17 57  1  0
 19 58  1  0
 22 59  1  0
 22 60  1  0
 23 61  1  0
 23 62  1  0
 25 63  1  0
 26 64  1  0
 28 65  1  0
 29 66  1  0
 30 67  1  0
 31 68  1  0
 32 69  1  0
 34 70  1  0
 35 71  1  0
M  END
$$$$
[H]C([H])=C([H])C(=O)N([H])c1c(OC([H])([H])C([H])([H])N([H])C(=O)C([H])([H])N(C([H])([H])[H])C([H])([H])[H])c([H])c2nc([H])nc(N([H])c3c([H])c(Cl)c(Cl)c([H])c3F)c2c1[H]
     RDKit          3D

 58 60  0  0  0  0  0  0  0  0999 V2000
   -6.8241   -0.4105   -0.5488 C   0  0  0  0  0  0  0  0  0  0  0  0
   -6.2309   -1.7254   -0.5252 N   0  0  0  0  0  0  0  0  0  0  0  0
   -7.3671   -2.6668   -0.8447 C   0  0  0  0  0  0  0  0  0  0  0  0
   -5.7616   -2.1970    0.7129 C   0  0  0  0  0  0  0  0  0  0  0  0
   -4.6726   -1.5171    1.3855 C   0  0  0  0  0  0  0  0  0  0  0  0
   -4.2577   -2.1652    2.4822 O   0  0  0  0  0  0  0  0  0  0  0  0
   -3.9697   -0.3726    1.1662 N   0  0  0  0  0  0  0  0  0  0  0  0
   -2.8125    0.1171    1.9773 C   0  0  0  0  0  0  0  0  0  0  0  0
   -1.6303   -0.5273    1.9069 C   0  0  0  0  0  0  0  0  0  0  0  0
   -0.4081   -1.1737    1.7280 O   0  0  0  0  0  0  0  0  0  0  0  0
    0.5215   -0.3438    1.0118 C   0  0  0  0  0  0  0  0  0  0  0  0
    0.1246    0.8814    0.5663 C   0  0  0  0  0  0  0  0  0  0  0  0
    0.9768    1.7143   -0.1866 C   0  0  0  0  0  0  0  0  0  0  0  0
    0.6151    2.8751   -0.6105 N   0  0  0  0  0  0  0  0  0  0  0  0
    1.3591    3.7549   -1.3554 C   0  0  0  0  0  0  0  0  0  0  0  0
    2.6070    3.2160   -1.6231 N   0  0  0  0  0  0  0  0  0  0  0  0
    3.0291    2.0190   -1.2077 C   0  0  0  0  0  0  0  0  0  0  0  0
    4.2379    1.4842   -1.7758 N   0  0  0  0  0  0  0  0  0  0  0  0
    4.9875    2.3458   -2.6274 C   0  0  0  0  0  0  0  0  0  0  0  0
    5.1366    3.6691   -2.5973 C   0  0  0  0  0  0  0  0  0  0  0  0
    5.7984    4.4658   -3.5051 C   0  0  0  0  0  0  0  0  0  0  0  0
    5.9290    6.2041   -3.3715 Cl  0  0  0  0  0  0  0  0  0  0  0  0
    6.3846    3.7704   -4.5869 C   0  0  0  0  0  0  0  0  0  0  0  0
    7.1807    4.7097   -5.8019 Cl  0  0  0  0  0  0  0  0  0  0  0  0
    6.2970    2.4293   -4.6967 C   0  0  0  0  0  0  0  0  0  0  0  0
    5.6167    1.6854   -3.7540 C   0  0  0  0  0  0  0  0  0  0  0  0
    5.4914    0.3593   -3.8411 F   0  0  0  0  0  0  0  0  0  0  0  0
    2.2537    1.1668   -0.4394 C   0  0  0  0  0  0  0  0  0  0  0  0
    2.6218   -0.0505    0.0226 C   0  0  0  0  0  0  0  0  0  0  0  0
    1.7865   -0.8729    0.7898 C   0  0  0  0  0  0  0  0  0  0  0  0
    2.1906   -1.8793    1.6459 N   0  0  0  0  0  0  0  0  0  0  0  0
    2.6311   -2.8368    2.4160 C   0  0  0  0  0  0  0  0  0  0  0  0
    3.7270   -3.4815    2.3789 O   0  0  0  0  0  0  0  0  0  0  0  0
    1.7554   -3.3026    3.5439 C   0  0  0  0  0  0  0  0  0  0  0  0
    2.2586   -4.1705    4.4177 C   0  0  0  0  0  0  0  0  0  0  0  0
   -7.9370   -0.4755   -0.5844 H   0  0  0  0  0  0  0  0  0  0  0  0
   -6.4328    0.0454   -1.5148 H   0  0  0  0  0  0  0  0  0  0  0  0
   -6.5812    0.2163    0.3387 H   0  0  0  0  0  0  0  0  0  0  0  0
   -7.9680   -2.1982   -1.6248 H   0  0  0  0  0  0  0  0  0  0  0  0
   -8.0222   -2.6285    0.0882 H   0  0  0  0  0  0  0  0  0  0  0  0
   -7.0267   -3.6675   -1.0739 H   0  0  0  0  0  0  0  0  0  0  0  0
   -6.6600   -2.3664    1.3790 H   0  0  0  0  0  0  0  0  0  0  0  0
   -5.4240   -3.2580    0.5406 H   0  0  0  0  0  0  0  0  0  0  0  0
   -4.1987    0.2718    0.3745 H   0  0  0  0  0  0  0  0  0  0  0  0
   -2.8333    1.2456    2.0172 H   0  0  0  0  0  0  0  0  0  0  0  0
   -3.2808   -0.1458    3.0791 H   0  0  0  0  0  0  0  0  0  0  0  0
   -1.7045   -0.4544    0.5133 H   0  0  0  0  0  0  0  0  0  0  0  0
   -2.2131   -1.7664    1.6247 H   0  0  0  0  0  0  0  0  0  0  0  0
   -0.8519    1.2850    0.7787 H   0  0  0  0  0  0  0  0  0  0  0  0
    1.0776    4.6898   -1.6815 H   0  0  0  0  0  0  0  0  0  0  0  0
    4.5459    0.5415   -1.6084 H   0  0  0  0  0  0  0  0  0  0  0  0
    4.7116    4.2238   -1.7246 H   0  0  0  0  0  0  0  0  0  0  0  0
    6.7690    1.9124   -5.5460 H   0  0  0  0  0  0  0  0  0  0  0  0
    3.6433   -0.4093   -0.2013 H   0  0  0  0  0  0  0  0  0  0  0  0
    3.1329   -2.2736    0.7036 H   0  0  0  0  0  0  0  0  0  0  0  0
    0.7851   -2.9339    3.6143 H   0  0  0  0  0  0  0  0  0  0  0  0
    1.6273   -4.5119    5.2537 H   0  0  0  0  0  0  0  0  0  0  0  0
    3.2581   -4.5161    4.3604 H   0  0  0  0  0  0  0  0  0  0  0  0
  1  2  1  0
  2  3  1  0
  2  4  1  0
  4  5  1  0
  5  6  2  0
  5  7  1  0
  7  8  1  0
  8  9  1  0
  9 10  1  0
 10 11  1  0
 11 12  2  0
 12 13  1  0
 13 14  2  0
 14 15  1  0
 15 16  2  0
 16 17  1  0
 17 18  1  0
 18 19  1  0
 19 20  2  0
 20 21  1  0
 21 22  1  0
 21 23  2  0
 23 24  1  0
 23 25  1  0
 25 26  2  0
 26 27  1  0
 17 28  2  0
 28 29  1  0
 29 30  2  0
 30 31  1  0
 31 32  1  0
 32 33  2  0
 32 34  1  0
 34 35  2  3
 30 11  1  0
 28 13  1  0
 26 19  1  0
  1 36  1  0
  1 37  1  0
  1 38  1  0
  3 39  1  0
  3 40  1  0
  3 41  1  0
  4 42  1  0
  4 43  1  0
  7 44  1  0
  8 45  1  0
  8 46  1  0
  9 47  1  0
  9 48  1  0
 12 49  1  0
 15 50  1  0
 18 51  1  0
 20 52  1  0
 25 53  1  0
 29 54  1  0
 31 55  1  0
 34 56  1  0
 35 57  1  0
 35 58  1  0
M  END
$$$$
[H]c1nc(N([H])c2c([H])c([H])c(OC([H])([H])c3c([H])c([H])c([H])c(F)c3[H])c(C(F)(F)F)c2[H])c2c([H])c(-c3oc(C([H])([H])N([H])C([H])([H])C([H])([H])S(=O)(=O)c4nc([H])c([H])n4C([H])([H])[H])c([H])c3[H])c([H])c([H])c2n1
     RDKit          3D

 76 81  0  0  0  0  0  0  0  0999 V2000
  -11.0522    0.3270    1.7292 C   0  0  0  0  0  0  0  0  0  0  0  0
  -10.9816   -1.0575    1.3139 N   0  0  0  0  0  0  0  0  0  0  0  0
  -11.3001   -2.0922    2.0923 C   0  0  0  0  0  0  0  0  0  0  0  0
  -11.1123   -3.2380    1.3600 C   0  0  0  0  0  0  0  0  0  0  0  0
  -10.6807   -2.8711    0.1446 N   0  0  0  0  0  0  0  0  0  0  0  0
  -10.6026   -1.5245    0.1237 C   0  0  0  0  0  0  0  0  0  0  0  0
  -10.0752   -0.6383   -1.2809 S   0  0  0  0  0  0  0  0  0  0  0  0
  -10.7440    0.6955   -1.4145 O   0  0  0  0  0  0  0  0  0  0  0  0
  -10.4621   -1.4219   -2.5221 O   0  0  0  0  0  0  0  0  0  0  0  0
   -8.3302   -0.3948   -1.3301 C   0  0  0  0  0  0  0  0  0  0  0  0
   -7.8215    0.3731   -0.1474 C   0  0  0  0  0  0  0  0  0  0  0  0
   -6.4000    0.5676   -0.2007 N   0  0  0  0  0  0  0  0  0  0  0  0
   -5.6501   -0.6626   -0.0307 C   0  0  0  0  0  0  0  0  0  0  0  0
   -4.1863   -0.3843   -0.0884 C   0  0  0  0  0  0  0  0  0  0  0  0
   -3.1853   -1.3032    0.1415 C   0  0  0  0  0  0  0  0  0  0  0  0
   -2.0059   -0.6077   -0.0189 C   0  0  0  0  0  0  0  0  0  0  0  0
   -2.3314    0.6950   -0.3372 C   0  0  0  0  0  0  0  0  0  0  0  0
   -3.6261    0.7671   -0.3640 O   0  0  0  0  0  0  0  0  0  0  0  0
   -1.3471    1.7475   -0.5854 C   0  0  0  0  0  0  0  0  0  0  0  0
   -1.7329    3.0217   -0.9211 C   0  0  0  0  0  0  0  0  0  0  0  0
   -0.8166    4.0186   -1.1483 C   0  0  0  0  0  0  0  0  0  0  0  0
    0.5290    3.7517   -1.0409 C   0  0  0  0  0  0  0  0  0  0  0  0
    1.4388    4.7288   -1.2554 N   0  0  0  0  0  0  0  0  0  0  0  0
    2.7543    4.5054   -1.1521 C   0  0  0  0  0  0  0  0  0  0  0  0
    3.1438    3.2703   -0.8271 N   0  0  0  0  0  0  0  0  0  0  0  0
    2.3387    2.2376   -0.5953 C   0  0  0  0  0  0  0  0  0  0  0  0
    2.7808    0.9349   -0.2864 N   0  0  0  0  0  0  0  0  0  0  0  0
    4.1427    0.5627   -0.1014 C   0  0  0  0  0  0  0  0  0  0  0  0
    5.1612    1.3817    0.2933 C   0  0  0  0  0  0  0  0  0  0  0  0
    6.4818    0.9207    0.4241 C   0  0  0  0  0  0  0  0  0  0  0  0
    6.8047   -0.3874    0.1580 C   0  0  0  0  0  0  0  0  0  0  0  0
    8.1162   -0.8651    0.2838 O   0  0  0  0  0  0  0  0  0  0  0  0
    9.1497    0.0382    0.7015 C   0  0  0  0  0  0  0  0  0  0  0  0
   10.4277   -0.6763    0.7675 C   0  0  0  0  0  0  0  0  0  0  0  0
   11.5769   -0.0155    1.1283 C   0  0  0  0  0  0  0  0  0  0  0  0
   12.8044   -0.6802    1.1981 C   0  0  0  0  0  0  0  0  0  0  0  0
   12.8736   -2.0235    0.9014 C   0  0  0  0  0  0  0  0  0  0  0  0
   11.7230   -2.6934    0.5384 C   0  0  0  0  0  0  0  0  0  0  0  0
   11.8152   -4.0031    0.2550 F   0  0  0  0  0  0  0  0  0  0  0  0
   10.4960   -2.0219    0.4702 C   0  0  0  0  0  0  0  0  0  0  0  0
    5.7871   -1.2224   -0.2401 C   0  0  0  0  0  0  0  0  0  0  0  0
    4.4909   -0.7713   -0.3692 C   0  0  0  0  0  0  0  0  0  0  0  0
    6.1473   -2.6401   -0.5306 C   0  0  0  0  0  0  0  0  0  0  0  0
    7.0816   -2.7015   -1.5496 F   0  0  0  0  0  0  0  0  0  0  0  0
    6.5822   -3.2661    0.6208 F   0  0  0  0  0  0  0  0  0  0  0  0
    5.0042   -3.3037   -0.9470 F   0  0  0  0  0  0  0  0  0  0  0  0
    0.9792    2.4859   -0.7059 C   0  0  0  0  0  0  0  0  0  0  0  0
    0.0175    1.5052   -0.4842 C   0  0  0  0  0  0  0  0  0  0  0  0
  -10.0542    0.6389    2.1573 H   0  0  0  0  0  0  0  0  0  0  0  0
  -11.7933    0.4320    2.5548 H   0  0  0  0  0  0  0  0  0  0  0  0
  -11.3383    1.0291    0.9466 H   0  0  0  0  0  0  0  0  0  0  0  0
  -11.6444   -2.0749    3.1100 H   0  0  0  0  0  0  0  0  0  0  0  0
  -11.2900   -4.2459    1.7263 H   0  0  0  0  0  0  0  0  0  0  0  0
   -7.8745   -1.4235   -1.3958 H   0  0  0  0  0  0  0  0  0  0  0  0
   -8.0897    0.2001   -2.2363 H   0  0  0  0  0  0  0  0  0  0  0  0
   -8.2991    1.3626   -0.1473 H   0  0  0  0  0  0  0  0  0  0  0  0
   -8.0826   -0.1228    0.8162 H   0  0  0  0  0  0  0  0  0  0  0  0
   -6.0727    1.1257   -0.9951 H   0  0  0  0  0  0  0  0  0  0  0  0
   -5.9212   -1.3411   -0.8468 H   0  0  0  0  0  0  0  0  0  0  0  0
   -5.8722   -1.1533    0.9252 H   0  0  0  0  0  0  0  0  0  0  0  0
   -3.3232   -2.3559    0.3961 H   0  0  0  0  0  0  0  0  0  0  0  0
   -1.0159   -1.0192    0.0880 H   0  0  0  0  0  0  0  0  0  0  0  0
   -2.7947    3.2527   -1.0105 H   0  0  0  0  0  0  0  0  0  0  0  0
   -1.1433    5.0376   -1.4179 H   0  0  0  0  0  0  0  0  0  0  0  0
    3.4779    5.2957   -1.3246 H   0  0  0  0  0  0  0  0  0  0  0  0
    2.0792    0.1428   -0.1745 H   0  0  0  0  0  0  0  0  0  0  0  0
    4.9444    2.4145    0.5299 H   0  0  0  0  0  0  0  0  0  0  0  0
    7.2526    1.6094    0.7398 H   0  0  0  0  0  0  0  0  0  0  0  0
    9.1927    0.9324    0.0505 H   0  0  0  0  0  0  0  0  0  0  0  0
    8.8349    0.3912    1.7029 H   0  0  0  0  0  0  0  0  0  0  0  0
   11.5008    1.0405    1.3585 H   0  0  0  0  0  0  0  0  0  0  0  0
   13.7138   -0.1668    1.4809 H   0  0  0  0  0  0  0  0  0  0  0  0
   13.8060   -2.5684    0.9457 H   0  0  0  0  0  0  0  0  0  0  0  0
    9.6190   -2.5641    0.1859 H   0  0  0  0  0  0  0  0  0  0  0  0
    3.6955   -1.4422   -0.6860 H   0  0  0  0  0  0  0  0  0  0  0  0
    0.2881    0.5046   -0.2195 H   0  0  0  0  0  0  0  0  0  0  0  0
  1  2  1  0
  2  3  1  0
  3  4  2  0
  4  5  1  0
  5  6  2  0
  6  7  1  0
  7  8  2  0
  7  9  2  0
  7 10  1  0
 10 11  1  0
 11 12  1  0
 12 13  1  0
 13 14  1  0
 14 15  2  0
 15 16  1  0
 16 17  2  0
 17 18  1  0
 17 19  1  0
 19 20  2  0
 20 21  1  0
 21 22  2  0
 22 23  1  0
 23 24  2  0
 24 25  1  0
 25 26  2  0
 26 27  1  0
 27 28  1  0
 28 29  2  0
 29 30  1  0
 30 31  2  0
 31 32  1  0
 32 33  1  0
 33 34  1  0
 34 35  2  0
 35 36  1  0
 36 37  2  0
 37 38  1  0
 38 39  1  0
 38 40  2  0
 31 41  1  0
 41 42  2  0
 41 43  1  0
 43 44  1  0
 43 45  1  0
 43 46  1  0
 26 47  1  0
 47 48  2  0
  6  2  1  0
 18 14  1  0
 48 19  1  0
 47 22  1  0
 42 28  1  0
 40 34  1  0
  1 49  1  0
  1 50  1  0
  1 51  1  0
  3 52  1  0
  4 53  1  0
 10 54  1  0
 10 55  1  0
 11 56  1  0
 11 57  1  0
 12 58  1  0
 13 59  1  0
 13 60  1  0
 15 61  1  0
 16 62  1  0
 20 63  1  0
 21 64  1  0
 24 65  1  0
 27 66  1  0
 29 67  1  0
 30 68  1  0
 33 69  1  0
 33 70  1  0
 35 71  1  0
 36 72  1  0
 37 73  1  0
 40 74  1  0
 42 75  1  0
 48 76  1  0
M  END
$$$$
[H]C([H])=C([H])C(=O)N([H])c1c([H])c([H])c([H])c(Oc2nc(N([H])c3c([H])nn(C([H])([H])[H])c3[H])nc3c2c([H])c([H])n3[H])c1[H]
     RDKit          3D

 45 48  0  0  0  0  0  0  0  0999 V2000
   -8.6393    1.1445    1.8314 C   0  0  0  0  0  0  0  0  0  0  0  0
   -7.2931    0.9297    1.3179 N   0  0  0  0  0  0  0  0  0  0  0  0
   -6.2579    0.3948    1.9692 C   0  0  0  0  0  0  0  0  0  0  0  0
   -5.1359    0.3695    1.1065 C   0  0  0  0  0  0  0  0  0  0  0  0
   -3.8715   -0.1258    1.4554 N   0  0  0  0  0  0  0  0  0  0  0  0
   -2.7642   -0.1493    0.5885 C   0  0  0  0  0  0  0  0  0  0  0  0
   -1.5752   -0.6568    1.0366 N   0  0  0  0  0  0  0  0  0  0  0  0
   -0.4722   -0.6989    0.2258 C   0  0  0  0  0  0  0  0  0  0  0  0
    0.6745   -1.1974    0.6839 O   0  0  0  0  0  0  0  0  0  0  0  0
    1.9312   -1.4256    0.2750 C   0  0  0  0  0  0  0  0  0  0  0  0
    2.2536   -2.6338   -0.3143 C   0  0  0  0  0  0  0  0  0  0  0  0
    3.5170   -2.8812   -0.7299 C   0  0  0  0  0  0  0  0  0  0  0  0
    4.5309   -1.9218   -0.5747 C   0  0  0  0  0  0  0  0  0  0  0  0
    4.2630   -0.7048    0.0047 C   0  0  0  0  0  0  0  0  0  0  0  0
    5.2198    0.3134    0.1945 N   0  0  0  0  0  0  0  0  0  0  0  0
    6.5539    0.3261   -0.1902 C   0  0  0  0  0  0  0  0  0  0  0  0
    7.1674   -0.5892   -0.7931 O   0  0  0  0  0  0  0  0  0  0  0  0
    7.4186    1.5086    0.1037 C   0  0  0  0  0  0  0  0  0  0  0  0
    8.6789    1.5241   -0.2581 C   0  0  0  0  0  0  0  0  0  0  0  0
    2.9421   -0.5024    0.4155 C   0  0  0  0  0  0  0  0  0  0  0  0
   -0.6224   -0.2080   -1.0520 C   0  0  0  0  0  0  0  0  0  0  0  0
    0.2562   -0.0985   -2.1070 C   0  0  0  0  0  0  0  0  0  0  0  0
   -0.4385    0.4709   -3.1492 C   0  0  0  0  0  0  0  0  0  0  0  0
   -1.6975    0.7123   -2.7770 N   0  0  0  0  0  0  0  0  0  0  0  0
   -1.8480    0.3055   -1.4864 C   0  0  0  0  0  0  0  0  0  0  0  0
   -2.8770    0.3162   -0.6481 N   0  0  0  0  0  0  0  0  0  0  0  0
   -5.5911    0.9117   -0.0481 C   0  0  0  0  0  0  0  0  0  0  0  0
   -6.9110    1.2483    0.0986 N   0  0  0  0  0  0  0  0  0  0  0  0
   -8.6806    0.7761    2.8853 H   0  0  0  0  0  0  0  0  0  0  0  0
   -8.8845    2.2133    1.8140 H   0  0  0  0  0  0  0  0  0  0  0  0
   -9.4036    0.5983    1.2672 H   0  0  0  0  0  0  0  0  0  0  0  0
   -6.2176    0.0267    2.9766 H   0  0  0  0  0  0  0  0  0  0  0  0
   -3.6936   -0.5217    2.4373 H   0  0  0  0  0  0  0  0  0  0  0  0
    1.4803   -3.3752   -0.4367 H   0  0  0  0  0  0  0  0  0  0  0  0
    3.8272   -3.8240   -1.2041 H   0  0  0  0  0  0  0  0  0  0  0  0
    5.5301   -2.1568   -0.9175 H   0  0  0  0  0  0  0  0  0  0  0  0
    4.8778    1.1932    0.7016 H   0  0  0  0  0  0  0  0  0  0  0  0
    6.9801    2.3505    0.6214 H   0  0  0  0  0  0  0  0  0  0  0  0
    9.0805    0.6677   -0.7717 H   0  0  0  0  0  0  0  0  0  0  0  0
    9.3196    2.3626   -0.0578 H   0  0  0  0  0  0  0  0  0  0  0  0
    2.7064    0.4701    0.8837 H   0  0  0  0  0  0  0  0  0  0  0  0
    1.2770   -0.3833   -2.1537 H   0  0  0  0  0  0  0  0  0  0  0  0
   -0.0122    0.6844   -4.1199 H   0  0  0  0  0  0  0  0  0  0  0  0
   -2.4926    1.1376   -3.3227 H   0  0  0  0  0  0  0  0  0  0  0  0
   -5.1065    1.0985   -0.9796 H   0  0  0  0  0  0  0  0  0  0  0  0
  1  2  1  0
  2  3  1  0
  3  4  2  0
  4  5  1  0
  5  6  1  0
  6  7  2  0
  7  8  1  0
  8  9  1  0
  9 10  1  0
 10 11  2  0
 11 12  1  0
 12 13  2  0
 13 14  1  0
 14 15  1  0
 15 16  1  0
 16 17  2  0
 16 18  1  0
 18 19  2  3
 14 20  2  0
  8 21  2  0
 21 22  1  0
 22 23  2  0
 23 24  1  0
 24 25  1  0
 25 26  2  0
  4 27  1  0
 27 28  2  0
 28  2  1  0
 26  6  1  0
 20 10  1  0
 25 21  1  0
  1 29  1  0
  1 30  1  0
  1 31  1  0
  3 32  1  0
  5 33  1  0
 11 34  1  0
 12 35  1  0
 13 36  1  0
 15 37  1  0
 18 38  1  0
 19 39  1  0
 19 40  1  0
 20 41  1  0
 22 42  1  0
 23 43  1  0
 24 44  1  0
 27 45  1  0
M  END
$$$$
[H]c1c([H])c([H])c(C([H])([H])C([H])([H])N([H])c2c([H])c([H])n([H])c(=O)c2C(=O)N([H])c2c([H])c([H])c(N3C([H])([H])C([H])([H])N(C([H])([H])[H])C([H])([H])C3([H])[H])c([H])c2[H])c([H])c1[H]
     RDKit          3D

 61 64  0  0  0  0  0  0  0  0999 V2000
   -6.8909   -0.6467    2.9613 C   0  0  0  0  0  0  0  0  0  0  0  0
   -7.3142   -0.9999    1.6264 N   0  0  0  0  0  0  0  0  0  0  0  0
   -6.6692   -2.1900    1.1327 C   0  0  0  0  0  0  0  0  0  0  0  0
   -5.2224   -1.9512    0.7621 C   0  0  0  0  0  0  0  0  0  0  0  0
   -5.1206   -0.7155   -0.0332 N   0  0  0  0  0  0  0  0  0  0  0  0
   -6.3947   -0.2197   -0.5092 C   0  0  0  0  0  0  0  0  0  0  0  0
   -7.2355    0.1069    0.7074 C   0  0  0  0  0  0  0  0  0  0  0  0
   -3.8652   -0.1151   -0.2839 C   0  0  0  0  0  0  0  0  0  0  0  0
   -3.7255    1.1011   -0.9132 C   0  0  0  0  0  0  0  0  0  0  0  0
   -2.4625    1.6267   -1.1323 C   0  0  0  0  0  0  0  0  0  0  0  0
   -1.2988    0.9545   -0.7296 C   0  0  0  0  0  0  0  0  0  0  0  0
   -0.0319    1.5726   -0.9633 N   0  0  0  0  0  0  0  0  0  0  0  0
    1.1960    0.9289   -1.1058 C   0  0  0  0  0  0  0  0  0  0  0  0
    1.1506   -0.3470   -1.0341 O   0  0  0  0  0  0  0  0  0  0  0  0
    2.4805    1.5342   -1.3232 C   0  0  0  0  0  0  0  0  0  0  0  0
    3.6285    0.7810   -1.5724 C   0  0  0  0  0  0  0  0  0  0  0  0
    3.6002   -0.5803   -1.8805 N   0  0  0  0  0  0  0  0  0  0  0  0
    4.6884   -1.5210   -1.8279 C   0  0  0  0  0  0  0  0  0  0  0  0
    5.0220   -2.0958   -0.5085 C   0  0  0  0  0  0  0  0  0  0  0  0
    5.4166   -1.2042    0.5696 C   0  0  0  0  0  0  0  0  0  0  0  0
    6.7486   -0.8728    0.7211 C   0  0  0  0  0  0  0  0  0  0  0  0
    7.1202   -0.0516    1.7575 C   0  0  0  0  0  0  0  0  0  0  0  0
    6.2095    0.4585    2.6589 C   0  0  0  0  0  0  0  0  0  0  0  0
    4.8797    0.1340    2.5164 C   0  0  0  0  0  0  0  0  0  0  0  0
    4.4964   -0.6833    1.4878 C   0  0  0  0  0  0  0  0  0  0  0  0
    4.8301    1.4352   -1.6525 C   0  0  0  0  0  0  0  0  0  0  0  0
    4.9678    2.7914   -1.5047 C   0  0  0  0  0  0  0  0  0  0  0  0
    3.8598    3.5009   -1.2696 N   0  0  0  0  0  0  0  0  0  0  0  0
    2.6427    2.8965   -1.1793 C   0  0  0  0  0  0  0  0  0  0  0  0
    1.6960    3.7158   -0.9509 O   0  0  0  0  0  0  0  0  0  0  0  0
   -1.4592   -0.2382   -0.1124 C   0  0  0  0  0  0  0  0  0  0  0  0
   -2.7334   -0.7918    0.1202 C   0  0  0  0  0  0  0  0  0  0  0  0
   -7.7653   -0.7070    3.6565 H   0  0  0  0  0  0  0  0  0  0  0  0
   -6.1177   -1.3245    3.3621 H   0  0  0  0  0  0  0  0  0  0  0  0
   -6.5583    0.4050    2.9591 H   0  0  0  0  0  0  0  0  0  0  0  0
   -7.2538   -2.6134    0.2915 H   0  0  0  0  0  0  0  0  0  0  0  0
   -6.6813   -2.9395    1.9464 H   0  0  0  0  0  0  0  0  0  0  0  0
   -4.9198   -2.7701    0.0789 H   0  0  0  0  0  0  0  0  0  0  0  0
   -4.5570   -1.9556    1.6259 H   0  0  0  0  0  0  0  0  0  0  0  0
   -6.3457    0.6423   -1.1695 H   0  0  0  0  0  0  0  0  0  0  0  0
   -6.8732   -1.1048   -1.0312 H   0  0  0  0  0  0  0  0  0  0  0  0
   -8.2500    0.4383    0.3974 H   0  0  0  0  0  0  0  0  0  0  0  0
   -6.7546    0.9666    1.2164 H   0  0  0  0  0  0  0  0  0  0  0  0
   -4.6173    1.6425   -1.2342 H   0  0  0  0  0  0  0  0  0  0  0  0
   -2.3489    2.5658   -1.6188 H   0  0  0  0  0  0  0  0  0  0  0  0
   -0.0792    2.6351   -1.0429 H   0  0  0  0  0  0  0  0  0  0  0  0
    2.6960   -1.0319   -2.2516 H   0  0  0  0  0  0  0  0  0  0  0  0
    4.4724   -2.3719   -2.5264 H   0  0  0  0  0  0  0  0  0  0  0  0
    5.6210   -1.0256   -2.2261 H   0  0  0  0  0  0  0  0  0  0  0  0
    4.2331   -2.8143   -0.1427 H   0  0  0  0  0  0  0  0  0  0  0  0
    5.9063   -2.7914   -0.6827 H   0  0  0  0  0  0  0  0  0  0  0  0
    7.4869   -1.2723    0.0101 H   0  0  0  0  0  0  0  0  0  0  0  0
    8.1671    0.2098    1.8785 H   0  0  0  0  0  0  0  0  0  0  0  0
    6.5612    1.1098    3.4680 H   0  0  0  0  0  0  0  0  0  0  0  0
    4.1936    0.5543    3.2443 H   0  0  0  0  0  0  0  0  0  0  0  0
    3.4493   -0.9340    1.3816 H   0  0  0  0  0  0  0  0  0  0  0  0
    5.7285    0.8798   -1.8381 H   0  0  0  0  0  0  0  0  0  0  0  0
    5.9138    3.3081   -1.5677 H   0  0  0  0  0  0  0  0  0  0  0  0
    3.9446    4.5587   -1.1536 H   0  0  0  0  0  0  0  0  0  0  0  0
   -0.6398   -0.8237    0.2519 H   0  0  0  0  0  0  0  0  0  0  0  0
   -2.8216   -1.7501    0.6148 H   0  0  0  0  0  0  0  0  0  0  0  0
  1  2  1  0
  2  3  1  0
  3  4  1  0
  4  5  1  0
  5  6  1  0
  6  7  1  0
  5  8  1  0
  8  9  2  0
  9 10  1  0
 10 11  2  0
 11 12  1  0
 12 13  1  0
 13 14  2  0
 13 15  1  0
 15 16  2  0
 16 17  1  0
 17 18  1  0
 18 19  1  0
 19 20  1  0
 20 21  2  0
 21 22  1  0
 22 23  2  0
 23 24  1  0
 24 25  2  0
 16 26  1  0
 26 27  2  0
 27 28  1  0
 28 29  1  0
 29 30  2  0
 11 31  1  0
 31 32  2  0
  7  2  1  0
 32  8  1  0
 29 15  1  0
 25 20  1  0
  1 33  1  0
  1 34  1  0
  1 35  1  0
  3 36  1  0
  3 37  1  0
  4 38  1  0
  4 39  1  0
  6 40  1  0
  6 41  1  0
  7 42  1  0
  7 43  1  0
  9 44  1  0
 10 45  1  0
 12 46  1  0
 17 47  1  0
 18 48  1  0
 18 49  1  0
 19 50  1  0
 19 51  1  0
 21 52  1  0
 22 53  1  0
 23 54  1  0
 24 55  1  0
 25 56  1  0
 26 57  1  0
 27 58  1  0
 28 59  1  0
 31 60  1  0
 32 61  1  0
M  END
$$$$
[H]OC([H])([H])N(c1c(Br)c([H])c([H])c([H])c1N([H])c1nc([H])nc2c([H])c([H])nc([H])c12)C([H])([H])O[H]
     RDKit          3D

 37 39  0  0  0  0  0  0  0  0999 V2000
   -1.8380   -2.0982    1.7606 O   0  0  0  0  0  0  0  0  0  0  0  0
   -2.5491   -0.9764    1.4825 C   0  0  0  0  0  0  0  0  0  0  0  0
   -2.4413   -0.4141    0.1705 N   0  0  0  0  0  0  0  0  0  0  0  0
   -2.7561   -1.1917   -0.9853 C   0  0  0  0  0  0  0  0  0  0  0  0
   -2.0795   -2.3531   -1.1819 O   0  0  0  0  0  0  0  0  0  0  0  0
   -2.0727    0.9452    0.0231 C   0  0  0  0  0  0  0  0  0  0  0  0
   -3.0454    1.9278   -0.0063 C   0  0  0  0  0  0  0  0  0  0  0  0
   -4.8631    1.3436    0.1595 Br  0  0  0  0  0  0  0  0  0  0  0  0
   -2.7625    3.2672   -0.1461 C   0  0  0  0  0  0  0  0  0  0  0  0
   -1.4540    3.6471   -0.2617 C   0  0  0  0  0  0  0  0  0  0  0  0
   -0.4367    2.6909   -0.2375 C   0  0  0  0  0  0  0  0  0  0  0  0
   -0.7305    1.3449   -0.0965 C   0  0  0  0  0  0  0  0  0  0  0  0
    0.2198    0.3038   -0.0639 N   0  0  0  0  0  0  0  0  0  0  0  0
    1.6175    0.4362   -0.1458 C   0  0  0  0  0  0  0  0  0  0  0  0
    2.2745    1.5904   -0.2687 N   0  0  0  0  0  0  0  0  0  0  0  0
    3.5836    1.7642   -0.3488 C   0  0  0  0  0  0  0  0  0  0  0  0
    4.4040    0.7212   -0.3097 N   0  0  0  0  0  0  0  0  0  0  0  0
    3.8184   -0.5020   -0.1851 C   0  0  0  0  0  0  0  0  0  0  0  0
    4.6770   -1.5980   -0.1435 C   0  0  0  0  0  0  0  0  0  0  0  0
    4.1241   -2.8396   -0.0188 C   0  0  0  0  0  0  0  0  0  0  0  0
    2.7965   -3.0032    0.0615 N   0  0  0  0  0  0  0  0  0  0  0  0
    1.9353   -1.9342    0.0221 C   0  0  0  0  0  0  0  0  0  0  0  0
    2.4611   -0.6940   -0.1011 C   0  0  0  0  0  0  0  0  0  0  0  0
   -2.3434   -2.9411    1.7731 H   0  0  0  0  0  0  0  0  0  0  0  0
   -2.2594   -0.2287    2.2850 H   0  0  0  0  0  0  0  0  0  0  0  0
   -3.6280   -1.1716    1.7163 H   0  0  0  0  0  0  0  0  0  0  0  0
   -2.6243   -0.5979   -1.9441 H   0  0  0  0  0  0  0  0  0  0  0  0
   -3.8656   -1.4372   -1.0246 H   0  0  0  0  0  0  0  0  0  0  0  0
   -1.3756   -2.6066   -0.5799 H   0  0  0  0  0  0  0  0  0  0  0  0
   -3.5303    4.0237   -0.1676 H   0  0  0  0  0  0  0  0  0  0  0  0
   -1.1420    4.6874   -0.3760 H   0  0  0  0  0  0  0  0  0  0  0  0
    0.5818    3.0447   -0.3342 H   0  0  0  0  0  0  0  0  0  0  0  0
   -0.1291   -0.6703    0.0275 H   0  0  0  0  0  0  0  0  0  0  0  0
    4.0101    2.7664   -0.4481 H   0  0  0  0  0  0  0  0  0  0  0  0
    5.7423   -1.4193   -0.2116 H   0  0  0  0  0  0  0  0  0  0  0  0
    4.8086   -3.6927    0.0128 H   0  0  0  0  0  0  0  0  0  0  0  0
    0.8721   -2.1344    0.0923 H   0  0  0  0  0  0  0  0  0  0  0  0
  1  2  1  0
  2  3  1  0
  3  4  1  0
  4  5  1  0
  3  6  1  0
  6  7  2  0
  7  8  1  0
  7  9  1  0
  9 10  2  0
 10 11  1  0
 11 12  2  0
 12 13  1  0
 13 14  1  0
 14 15  2  0
 15 16  1  0
 16 17  2  0
 17 18  1  0
 18 19  2  0
 19 20  1  0
 20 21  2  0
 21 22  1  0
 22 23  2  0
 12  6  1  0
 23 14  1  0
 23 18  1  0
  1 24  1  0
  2 25  1  0
  2 26  1  0
  4 27  1  0
  4 28  1  0
  5 29  1  0
  9 30  1  0
 10 31  1  0
 11 32  1  0
 13 33  1  0
 16 34  1  0
 19 35  1  0
 20 36  1  0
 22 37  1  0
M  END
$$$$
[H]c1nc(N([H])c2c([H])c([H])c([H])c(Cl)c2[H])c2c([H])c(N([H])C(=O)N(C([H])([H])[H])C([H])([H])C([H])([H])Cl)c([H])c([H])c2n1
     RDKit          3D

 43 45  0  0  0  0  0  0  0  0999 V2000
   -4.0971   -1.4900    1.3441 C   0  0  0  0  0  0  0  0  0  0  0  0
   -4.5218   -0.2038    0.8217 N   0  0  0  0  0  0  0  0  0  0  0  0
   -5.8410    0.3145    0.9667 C   0  0  0  0  0  0  0  0  0  0  0  0
   -6.8271   -0.0775   -0.0752 C   0  0  0  0  0  0  0  0  0  0  0  0
   -6.3191    0.4450   -1.6788 Cl  0  0  0  0  0  0  0  0  0  0  0  0
   -3.5400    0.5841    0.0990 C   0  0  0  0  0  0  0  0  0  0  0  0
   -3.8772    1.7054   -0.3449 O   0  0  0  0  0  0  0  0  0  0  0  0
   -2.2380    0.0993   -0.0990 N   0  0  0  0  0  0  0  0  0  0  0  0
   -1.2021    0.7603   -0.7874 C   0  0  0  0  0  0  0  0  0  0  0  0
   -1.3629    1.7671   -1.6919 C   0  0  0  0  0  0  0  0  0  0  0  0
   -0.2932    2.4030   -2.3261 C   0  0  0  0  0  0  0  0  0  0  0  0
    0.9728    1.9877   -2.0185 C   0  0  0  0  0  0  0  0  0  0  0  0
    2.0602    2.5493   -2.5896 N   0  0  0  0  0  0  0  0  0  0  0  0
    3.3023    2.1574   -2.3047 C   0  0  0  0  0  0  0  0  0  0  0  0
    3.4922    1.1746   -1.4241 N   0  0  0  0  0  0  0  0  0  0  0  0
    2.4940    0.5364   -0.7885 C   0  0  0  0  0  0  0  0  0  0  0  0
    2.7085   -0.4713    0.1670 N   0  0  0  0  0  0  0  0  0  0  0  0
    4.0323   -0.9193    0.4370 C   0  0  0  0  0  0  0  0  0  0  0  0
    4.3082   -1.3321    1.7509 C   0  0  0  0  0  0  0  0  0  0  0  0
    5.5350   -1.8153    2.1310 C   0  0  0  0  0  0  0  0  0  0  0  0
    6.5674   -1.9187    1.2261 C   0  0  0  0  0  0  0  0  0  0  0  0
    6.3201   -1.5232   -0.0575 C   0  0  0  0  0  0  0  0  0  0  0  0
    7.5819   -1.6290   -1.2473 Cl  0  0  0  0  0  0  0  0  0  0  0  0
    5.0667   -1.0309   -0.4423 C   0  0  0  0  0  0  0  0  0  0  0  0
    1.1986    0.9559   -1.0958 C   0  0  0  0  0  0  0  0  0  0  0  0
    0.1338    0.3676   -0.5047 C   0  0  0  0  0  0  0  0  0  0  0  0
   -3.3055   -1.3881    2.1092 H   0  0  0  0  0  0  0  0  0  0  0  0
   -3.6527   -2.0767    0.4952 H   0  0  0  0  0  0  0  0  0  0  0  0
   -4.9223   -2.0781    1.7428 H   0  0  0  0  0  0  0  0  0  0  0  0
   -5.7960    1.4456    0.9446 H   0  0  0  0  0  0  0  0  0  0  0  0
   -6.1953    0.0943    2.0044 H   0  0  0  0  0  0  0  0  0  0  0  0
   -7.7771    0.4863    0.1550 H   0  0  0  0  0  0  0  0  0  0  0  0
   -7.1093   -1.1509   -0.0416 H   0  0  0  0  0  0  0  0  0  0  0  0
   -2.0280   -0.8587    0.3110 H   0  0  0  0  0  0  0  0  0  0  0  0
   -2.3550    2.0967   -1.9605 H   0  0  0  0  0  0  0  0  0  0  0  0
   -0.4772    3.1969   -3.0355 H   0  0  0  0  0  0  0  0  0  0  0  0
    4.1334    2.6265   -2.7774 H   0  0  0  0  0  0  0  0  0  0  0  0
    1.9239   -0.9239    0.7115 H   0  0  0  0  0  0  0  0  0  0  0  0
    3.5129   -1.2581    2.4713 H   0  0  0  0  0  0  0  0  0  0  0  0
    5.7175   -2.1252    3.1490 H   0  0  0  0  0  0  0  0  0  0  0  0
    7.5290   -2.3052    1.5572 H   0  0  0  0  0  0  0  0  0  0  0  0
    4.9089   -0.7509   -1.4831 H   0  0  0  0  0  0  0  0  0  0  0  0
    0.2385   -0.4269    0.2073 H   0  0  0  0  0  0  0  0  0  0  0  0
  1  2  1  0
  2  3  1  0
  3  4  1  0
  4  5  1  0
  2  6  1  0
  6  7  2  0
  6  8  1  0
  8  9  1  0
  9 10  2  0
 10 11  1  0
 11 12  2  0
 12 13  1  0
 13 14  2  0
 14 15  1  0
 15 16  2  0
 16 17  1  0
 17 18  1  0
 18 19  2  0
 19 20  1  0
 20 21  2  0
 21 22  1  0
 22 23  1  0
 22 24  2  0
 16 25  1  0
 25 26  2  0
 26  9  1  0
 25 12  1  0
 24 18  1  0
  1 27  1  0
  1 28  1  0
  1 29  1  0
  3 30  1  0
  3 31  1  0
  4 32  1  0
  4 33  1  0
  8 34  1  0
 10 35  1  0
 11 36  1  0
 14 37  1  0
 17 38  1  0
 19 39  1  0
 20 40  1  0
 21 41  1  0
 24 42  1  0
 26 43  1  0
M  END
$$$$
[H]c1nc(N([H])c2c([H])c([H])c(N([H])C(=O)C34C([H])([H])C5([H])C([H])([H])C([H])(C([H])([H])C([H])(C5([H])[H])C3([H])[H])C4([H])[H])c(OC([H])([H])[H])c2[H])c2c([H])c(OC([H])([H])C([H])([H])OC([H])([H])[H])c(OC([H])([H])C([H])([H])OC([H])([H])[H])c([H])c2n1
     RDKit          3D

 82 87  0  0  0  0  0  0  0  0999 V2000
   11.1983   -2.2691   -1.1860 C   0  0  0  0  0  0  0  0  0  0  0  0
    9.9604   -2.5614   -1.6881 O   0  0  0  0  0  0  0  0  0  0  0  0
    8.9956   -1.7269   -1.1742 C   0  0  0  0  0  0  0  0  0  0  0  0
    8.8315   -1.7823    0.3059 C   0  0  0  0  0  0  0  0  0  0  0  0
    7.8357   -0.9342    0.7568 O   0  0  0  0  0  0  0  0  0  0  0  0
    6.5006   -1.0065    0.5312 C   0  0  0  0  0  0  0  0  0  0  0  0
    5.9148   -2.0059   -0.1656 C   0  0  0  0  0  0  0  0  0  0  0  0
    4.5503   -2.0130   -0.3617 C   0  0  0  0  0  0  0  0  0  0  0  0
    3.9496   -3.0018   -1.0522 N   0  0  0  0  0  0  0  0  0  0  0  0
    2.6203   -3.0008   -1.2349 C   0  0  0  0  0  0  0  0  0  0  0  0
    1.8250   -2.0519   -0.7616 N   0  0  0  0  0  0  0  0  0  0  0  0
    2.3859   -1.0225   -0.0518 C   0  0  0  0  0  0  0  0  0  0  0  0
    1.5985    0.0258    0.4277 N   0  0  0  0  0  0  0  0  0  0  0  0
    0.1631   -0.0013    0.2757 C   0  0  0  0  0  0  0  0  0  0  0  0
   -0.5085    1.1891    0.0499 C   0  0  0  0  0  0  0  0  0  0  0  0
   -1.8929    1.2464   -0.0695 C   0  0  0  0  0  0  0  0  0  0  0  0
   -2.6832    0.1290    0.0285 C   0  0  0  0  0  0  0  0  0  0  0  0
   -4.0922    0.0914   -0.0791 N   0  0  0  0  0  0  0  0  0  0  0  0
   -4.9463    1.1851   -0.3085 C   0  0  0  0  0  0  0  0  0  0  0  0
   -4.5714    2.3530   -0.4512 O   0  0  0  0  0  0  0  0  0  0  0  0
   -6.4168    0.8601   -0.3771 C   0  0  0  0  0  0  0  0  0  0  0  0
   -7.2231    2.0982   -0.6670 C   0  0  0  0  0  0  0  0  0  0  0  0
   -8.6857    1.6600   -0.6953 C   0  0  0  0  0  0  0  0  0  0  0  0
   -8.9227    0.6135   -1.7475 C   0  0  0  0  0  0  0  0  0  0  0  0
   -8.0277   -0.5915   -1.5105 C   0  0  0  0  0  0  0  0  0  0  0  0
   -8.3985   -1.1848   -0.1803 C   0  0  0  0  0  0  0  0  0  0  0  0
   -8.2492   -0.1628    0.9145 C   0  0  0  0  0  0  0  0  0  0  0  0
   -9.0708    1.0704    0.6450 C   0  0  0  0  0  0  0  0  0  0  0  0
   -6.7943    0.2559    0.9463 C   0  0  0  0  0  0  0  0  0  0  0  0
   -6.5987   -0.0896   -1.5386 C   0  0  0  0  0  0  0  0  0  0  0  0
   -1.9864   -1.0663    0.2577 C   0  0  0  0  0  0  0  0  0  0  0  0
   -2.7389   -2.2318    0.3656 O   0  0  0  0  0  0  0  0  0  0  0  0
   -2.0685   -3.4512    0.5962 C   0  0  0  0  0  0  0  0  0  0  0  0
   -0.6055   -1.1197    0.3768 C   0  0  0  0  0  0  0  0  0  0  0  0
    3.7648   -1.0019    0.1515 C   0  0  0  0  0  0  0  0  0  0  0  0
    4.3663    0.0325    0.8744 C   0  0  0  0  0  0  0  0  0  0  0  0
    5.7356    0.0494    1.0751 C   0  0  0  0  0  0  0  0  0  0  0  0
    6.4014    1.0108    1.7559 O   0  0  0  0  0  0  0  0  0  0  0  0
    5.9087    2.1437    2.3342 C   0  0  0  0  0  0  0  0  0  0  0  0
    5.3063    3.1845    1.4420 C   0  0  0  0  0  0  0  0  0  0  0  0
    4.8792    4.2310    2.2797 O   0  0  0  0  0  0  0  0  0  0  0  0
    4.2991    5.2548    1.5323 C   0  0  0  0  0  0  0  0  0  0  0  0
   11.9956   -2.9454   -1.6414 H   0  0  0  0  0  0  0  0  0  0  0  0
   11.2245   -2.5277   -0.0881 H   0  0  0  0  0  0  0  0  0  0  0  0
   11.5470   -1.2437   -1.3092 H   0  0  0  0  0  0  0  0  0  0  0  0
    9.3512   -0.6546   -1.4022 H   0  0  0  0  0  0  0  0  0  0  0  0
    8.0465   -1.7836   -1.6959 H   0  0  0  0  0  0  0  0  0  0  0  0
    8.6357   -2.8589    0.5734 H   0  0  0  0  0  0  0  0  0  0  0  0
    9.7954   -1.5603    0.8432 H   0  0  0  0  0  0  0  0  0  0  0  0
    6.4331   -2.8596   -0.5886 H   0  0  0  0  0  0  0  0  0  0  0  0
    2.1713   -3.8099   -1.7938 H   0  0  0  0  0  0  0  0  0  0  0  0
    2.0252    0.8579    0.9025 H   0  0  0  0  0  0  0  0  0  0  0  0
    0.0286    2.1093   -0.0399 H   0  0  0  0  0  0  0  0  0  0  0  0
   -2.3630    2.2248   -0.2483 H   0  0  0  0  0  0  0  0  0  0  0  0
   -4.5205   -0.8883    0.0291 H   0  0  0  0  0  0  0  0  0  0  0  0
   -6.9886    2.3947   -1.7245 H   0  0  0  0  0  0  0  0  0  0  0  0
   -7.0940    2.9046    0.0512 H   0  0  0  0  0  0  0  0  0  0  0  0
   -9.3353    2.5271   -0.8780 H   0  0  0  0  0  0  0  0  0  0  0  0
   -8.7846    0.9790   -2.7785 H   0  0  0  0  0  0  0  0  0  0  0  0
   -9.9675    0.2461   -1.6047 H   0  0  0  0  0  0  0  0  0  0  0  0
   -8.1535   -1.3272   -2.3145 H   0  0  0  0  0  0  0  0  0  0  0  0
   -9.4413   -1.5352   -0.2508 H   0  0  0  0  0  0  0  0  0  0  0  0
   -7.7084   -2.0263    0.0241 H   0  0  0  0  0  0  0  0  0  0  0  0
   -8.5007   -0.5773    1.8947 H   0  0  0  0  0  0  0  0  0  0  0  0
   -8.7953    1.8328    1.4122 H   0  0  0  0  0  0  0  0  0  0  0  0
  -10.1380    0.8319    0.6209 H   0  0  0  0  0  0  0  0  0  0  0  0
   -6.1209   -0.5485    1.2288 H   0  0  0  0  0  0  0  0  0  0  0  0
   -6.7251    1.0750    1.7000 H   0  0  0  0  0  0  0  0  0  0  0  0
   -6.5031    0.5212   -2.4667 H   0  0  0  0  0  0  0  0  0  0  0  0
   -5.8551   -0.9069   -1.5528 H   0  0  0  0  0  0  0  0  0  0  0  0
   -1.4517   -3.3957    1.5258 H   0  0  0  0  0  0  0  0  0  0  0  0
   -1.3480   -3.6763   -0.2381 H   0  0  0  0  0  0  0  0  0  0  0  0
   -2.7494   -4.3123    0.6408 H   0  0  0  0  0  0  0  0  0  0  0  0
   -0.1582   -2.1094    0.5830 H   0  0  0  0  0  0  0  0  0  0  0  0
    3.7780    0.8144    1.3062 H   0  0  0  0  0  0  0  0  0  0  0  0
    6.7769    2.6673    2.8535 H   0  0  0  0  0  0  0  0  0  0  0  0
    5.1877    1.9422    3.1715 H   0  0  0  0  0  0  0  0  0  0  0  0
    4.4866    2.8852    0.8013 H   0  0  0  0  0  0  0  0  0  0  0  0
    6.1339    3.6506    0.8204 H   0  0  0  0  0  0  0  0  0  0  0  0
    3.4249    4.9425    0.9560 H   0  0  0  0  0  0  0  0  0  0  0  0
    5.0589    5.6039    0.7890 H   0  0  0  0  0  0  0  0  0  0  0  0
    4.0909    6.1296    2.1767 H   0  0  0  0  0  0  0  0  0  0  0  0
  1  2  1  0
  2  3  1  0
  3  4  1  0
  4  5  1  0
  5  6  1  0
  6  7  2  0
  7  8  1  0
  8  9  2  0
  9 10  1  0
 10 11  2  0
 11 12  1  0
 12 13  1  0
 13 14  1  0
 14 15  2  0
 15 16  1  0
 16 17  2  0
 17 18  1  0
 18 19  1  0
 19 20  2  0
 19 21  1  0
 21 22  1  0
 22 23  1  0
 23 24  1  0
 24 25  1  0
 25 26  1  0
 26 27  1  0
 27 28  1  0
 27 29  1  0
 25 30  1  0
 17 31  1  0
 31 32  1  0
 32 33  1  0
 31 34  2  0
 12 35  2  0
 35 36  1  0
 36 37  2  0
 37 38  1  0
 38 39  1  0
 39 40  1  0
 40 41  1  0
 41 42  1  0
 37  6  1  0
 35  8  1  0
 34 14  1  0
 29 21  1  0
 30 21  1  0
 28 23  1  0
  1 43  1  0
  1 44  1  0
  1 45  1  0
  3 46  1  0
  3 47  1  0
  4 48  1  0
  4 49  1  0
  7 50  1  0
 10 51  1  0
 13 52  1  0
 15 53  1  0
 16 54  1  0
 18 55  1  0
 22 56  1  0
 22 57  1  0
 23 58  1  0
 24 59  1  0
 24 60  1  0
 25 61  1  0
 26 62  1  0
 26 63  1  0
 27 64  1  0
 28 65  1  0
 28 66  1  0
 29 67  1  0
 29 68  1  0
 30 69  1  0
 30 70  1  0
 33 71  1  0
 33 72  1  0
 33 73  1  0
 34 74  1  0
 36 75  1  0
 39 76  1  0
 39 77  1  0
 40 78  1  0
 40 79  1  0
 42 80  1  0
 42 81  1  0
 42 82  1  0
M  END
$$$$
[H]c1nc(N([H])c2c([H])c([H])c([H])c(Cl)c2[H])c2c(N([H])c3c([H])c([H])c(N([H])[H])c([H])c3[H])n([H])nc2n1
     RDKit          3D

 39 42  0  0  0  0  0  0  0  0999 V2000
    6.6023    0.7580    1.6062 N   0  0  0  0  0  0  0  0  0  0  0  0
    5.2581    0.4892    1.2710 C   0  0  0  0  0  0  0  0  0  0  0  0
    4.3766   -0.1237    2.1477 C   0  0  0  0  0  0  0  0  0  0  0  0
    3.0726   -0.3642    1.7706 C   0  0  0  0  0  0  0  0  0  0  0  0
    2.5962   -0.0076    0.5161 C   0  0  0  0  0  0  0  0  0  0  0  0
    1.2018   -0.2332    0.2082 N   0  0  0  0  0  0  0  0  0  0  0  0
    0.8615   -0.7576   -1.0607 C   0  0  0  0  0  0  0  0  0  0  0  0
    1.7355   -1.3351   -1.9462 N   0  0  0  0  0  0  0  0  0  0  0  0
    1.0803   -1.8505   -2.9644 N   0  0  0  0  0  0  0  0  0  0  0  0
   -0.2356   -1.6441   -2.8080 C   0  0  0  0  0  0  0  0  0  0  0  0
   -1.3189   -1.9606   -3.5210 N   0  0  0  0  0  0  0  0  0  0  0  0
   -2.5537   -1.6333   -3.1258 C   0  0  0  0  0  0  0  0  0  0  0  0
   -2.7121   -0.9673   -1.9838 N   0  0  0  0  0  0  0  0  0  0  0  0
   -1.6645   -0.5979   -1.1855 C   0  0  0  0  0  0  0  0  0  0  0  0
   -1.8885    0.2310   -0.0766 N   0  0  0  0  0  0  0  0  0  0  0  0
   -3.2618    0.4339    0.3470 C   0  0  0  0  0  0  0  0  0  0  0  0
   -4.2397   -0.5130    0.3005 C   0  0  0  0  0  0  0  0  0  0  0  0
   -5.5469   -0.2127    0.6983 C   0  0  0  0  0  0  0  0  0  0  0  0
   -5.8777    1.0262    1.1420 C   0  0  0  0  0  0  0  0  0  0  0  0
   -4.9141    2.0046    1.2026 C   0  0  0  0  0  0  0  0  0  0  0  0
   -5.3534    3.6136    1.7819 Cl  0  0  0  0  0  0  0  0  0  0  0  0
   -3.6322    1.7037    0.8099 C   0  0  0  0  0  0  0  0  0  0  0  0
   -0.4056   -0.9455   -1.6018 C   0  0  0  0  0  0  0  0  0  0  0  0
    3.4635    0.5936   -0.3401 C   0  0  0  0  0  0  0  0  0  0  0  0
    4.7885    0.8470    0.0194 C   0  0  0  0  0  0  0  0  0  0  0  0
    6.8424    1.5932    2.1595 H   0  0  0  0  0  0  0  0  0  0  0  0
    7.3433    0.1141    1.2945 H   0  0  0  0  0  0  0  0  0  0  0  0
    4.7697   -0.3908    3.1143 H   0  0  0  0  0  0  0  0  0  0  0  0
    2.4137   -0.8449    2.4827 H   0  0  0  0  0  0  0  0  0  0  0  0
    0.5230   -0.0337    0.9616 H   0  0  0  0  0  0  0  0  0  0  0  0
    2.7619   -1.3511   -1.7760 H   0  0  0  0  0  0  0  0  0  0  0  0
   -3.4406   -1.8885   -3.6994 H   0  0  0  0  0  0  0  0  0  0  0  0
   -1.1911    0.7643    0.4719 H   0  0  0  0  0  0  0  0  0  0  0  0
   -4.0030   -1.5315   -0.0271 H   0  0  0  0  0  0  0  0  0  0  0  0
   -6.2828   -0.9876    0.6440 H   0  0  0  0  0  0  0  0  0  0  0  0
   -6.8929    1.3051    1.4645 H   0  0  0  0  0  0  0  0  0  0  0  0
   -2.8578    2.4624    0.8504 H   0  0  0  0  0  0  0  0  0  0  0  0
    3.1508    0.9064   -1.3264 H   0  0  0  0  0  0  0  0  0  0  0  0
    5.4312    1.3280   -0.7055 H   0  0  0  0  0  0  0  0  0  0  0  0
  1  2  1  0
  2  3  2  0
  3  4  1  0
  4  5  2  0
  5  6  1  0
  6  7  1  0
  7  8  1  0
  8  9  1  0
  9 10  2  0
 10 11  1  0
 11 12  2  0
 12 13  1  0
 13 14  2  0
 14 15  1  0
 15 16  1  0
 16 17  2  0
 17 18  1  0
 18 19  2  0
 19 20  1  0
 20 21  1  0
 20 22  2  0
 14 23  1  0
  5 24  1  0
 24 25  2  0
 25  2  1  0
 23  7  2  0
 23 10  1  0
 22 16  1  0
  1 26  1  0
  1 27  1  0
  3 28  1  0
  4 29  1  0
  6 30  1  0
  8 31  1  0
 12 32  1  0
 15 33  1  0
 17 34  1  0
 18 35  1  0
 19 36  1  0
 22 37  1  0
 24 38  1  0
 25 39  1  0
M  END
$$$$
[H]C#Cc1c([H])c([H])c([H])c(N([H])c2nc([H])nc3c([H])c(OC([H])([H])C([H])([H])OC([H])([H])C([H])([H])n4c([N+](=O)[O-])nc([H])c4[H])c(OC([H])([H])[H])c([H])c23)c1[H]
     RDKit          3D

 57 60  0  0  0  0  0  0  0  0999 V2000
    1.0099    3.6701   -0.4056 C   0  0  0  0  0  0  0  0  0  0  0  0
    0.1312    2.6990    0.0722 O   0  0  0  0  0  0  0  0  0  0  0  0
    0.4866    1.4175    0.4339 C   0  0  0  0  0  0  0  0  0  0  0  0
    1.8237    0.9818    0.3412 C   0  0  0  0  0  0  0  0  0  0  0  0
    2.2087   -0.2910    0.6947 C   0  0  0  0  0  0  0  0  0  0  0  0
    3.5168   -0.7176    0.6058 C   0  0  0  0  0  0  0  0  0  0  0  0
    4.5100    0.1364    0.1032 N   0  0  0  0  0  0  0  0  0  0  0  0
    5.8739   -0.2727    0.0465 C   0  0  0  0  0  0  0  0  0  0  0  0
    6.4693   -1.1082    0.9305 C   0  0  0  0  0  0  0  0  0  0  0  0
    7.8139   -1.4985    0.8004 C   0  0  0  0  0  0  0  0  0  0  0  0
    8.5528   -1.0229   -0.2499 C   0  0  0  0  0  0  0  0  0  0  0  0
    7.9864   -0.1708   -1.1703 C   0  0  0  0  0  0  0  0  0  0  0  0
    6.6840    0.1814   -1.0084 C   0  0  0  0  0  0  0  0  0  0  0  0
    8.7622    0.3402   -2.2883 C   0  0  0  0  0  0  0  0  0  0  0  0
    9.4001    0.7628   -3.2196 C   0  0  0  0  0  0  0  0  0  0  0  0
    3.7699   -1.9939    0.9861 N   0  0  0  0  0  0  0  0  0  0  0  0
    2.8605   -2.8574    1.4340 C   0  0  0  0  0  0  0  0  0  0  0  0
    1.5918   -2.4257    1.5140 N   0  0  0  0  0  0  0  0  0  0  0  0
    1.2271   -1.1801    1.1637 C   0  0  0  0  0  0  0  0  0  0  0  0
   -0.0553   -0.7260    1.2406 C   0  0  0  0  0  0  0  0  0  0  0  0
   -0.4684    0.5430    0.8932 C   0  0  0  0  0  0  0  0  0  0  0  0
   -1.8110    0.9450    0.9980 O   0  0  0  0  0  0  0  0  0  0  0  0
   -2.7364   -0.0064    1.4775 C   0  0  0  0  0  0  0  0  0  0  0  0
   -4.1218    0.6048    1.5206 C   0  0  0  0  0  0  0  0  0  0  0  0
   -4.5610    1.0244    0.2953 O   0  0  0  0  0  0  0  0  0  0  0  0
   -4.6686    0.0743   -0.6811 C   0  0  0  0  0  0  0  0  0  0  0  0
   -5.6542   -1.0202   -0.4504 C   0  0  0  0  0  0  0  0  0  0  0  0
   -6.9861   -0.4796   -0.3650 N   0  0  0  0  0  0  0  0  0  0  0  0
   -7.6280   -0.0570    0.7528 C   0  0  0  0  0  0  0  0  0  0  0  0
   -8.8722    0.3832    0.4060 C   0  0  0  0  0  0  0  0  0  0  0  0
   -8.9730    0.2237   -0.9134 N   0  0  0  0  0  0  0  0  0  0  0  0
   -7.8146   -0.3072   -1.3916 C   0  0  0  0  0  0  0  0  0  0  0  0
   -7.6384   -0.5953   -2.7688 N   0  0  0  0  0  0  0  0  0  0  0  0
   -6.4748   -1.1490   -3.2719 O   0  0  0  0  0  0  0  0  0  0  0  0
   -8.5778   -0.3379   -3.5713 O   0  0  0  0  0  0  0  0  0  0  0  0
    1.1691    3.4645   -1.4994 H   0  0  0  0  0  0  0  0  0  0  0  0
    0.5275    4.6684   -0.3622 H   0  0  0  0  0  0  0  0  0  0  0  0
    1.9702    3.6867    0.1455 H   0  0  0  0  0  0  0  0  0  0  0  0
    2.5428    1.6897   -0.0183 H   0  0  0  0  0  0  0  0  0  0  0  0
    4.2663    1.0996   -0.2471 H   0  0  0  0  0  0  0  0  0  0  0  0
    5.9638   -1.5010    1.7911 H   0  0  0  0  0  0  0  0  0  0  0  0
    8.2132   -2.1713    1.5513 H   0  0  0  0  0  0  0  0  0  0  0  0
    9.5868   -1.3109   -0.3672 H   0  0  0  0  0  0  0  0  0  0  0  0
    6.2190    0.8507   -1.7212 H   0  0  0  0  0  0  0  0  0  0  0  0
    9.9606    1.1323   -4.0518 H   0  0  0  0  0  0  0  0  0  0  0  0
    3.1673   -3.8627    1.7146 H   0  0  0  0  0  0  0  0  0  0  0  0
   -0.8152   -1.4152    1.6039 H   0  0  0  0  0  0  0  0  0  0  0  0
   -2.6846   -0.8999    0.8438 H   0  0  0  0  0  0  0  0  0  0  0  0
   -2.5049   -0.3318    2.5198 H   0  0  0  0  0  0  0  0  0  0  0  0
   -4.8101   -0.0458    2.0812 H   0  0  0  0  0  0  0  0  0  0  0  0
   -4.0151    1.5345    2.1537 H   0  0  0  0  0  0  0  0  0  0  0  0
   -4.9794    0.6333   -1.6142 H   0  0  0  0  0  0  0  0  0  0  0  0
   -3.6528   -0.3285   -0.9710 H   0  0  0  0  0  0  0  0  0  0  0  0
   -5.5198   -1.8337   -1.1717 H   0  0  0  0  0  0  0  0  0  0  0  0
   -5.4759   -1.5118    0.5596 H   0  0  0  0  0  0  0  0  0  0  0  0
   -7.1633   -0.0950    1.7432 H   0  0  0  0  0  0  0  0  0  0  0  0
   -9.6027    0.7773    1.1005 H   0  0  0  0  0  0  0  0  0  0  0  0
  1  2  1  0
  2  3  1  0
  3  4  2  0
  4  5  1  0
  5  6  2  0
  6  7  1  0
  7  8  1  0
  8  9  2  0
  9 10  1  0
 10 11  2  0
 11 12  1  0
 12 13  2  0
 12 14  1  0
 14 15  3  0
  6 16  1  0
 16 17  2  0
 17 18  1  0
 18 19  2  0
 19 20  1  0
 20 21  2  0
 21 22  1  0
 22 23  1  0
 23 24  1  0
 24 25  1  0
 25 26  1  0
 26 27  1  0
 27 28  1  0
 28 29  1  0
 29 30  2  0
 30 31  1  0
 31 32  2  0
 32 33  1  0
 33 34  1  0
 33 35  2  0
 21  3  1  0
 32 28  1  0
 19  5  1  0
 13  8  1  0
  1 36  1  0
  1 37  1  0
  1 38  1  0
  4 39  1  0
  7 40  1  0
  9 41  1  0
 10 42  1  0
 11 43  1  0
 13 44  1  0
 15 45  1  0
 17 46  1  0
 20 47  1  0
 23 48  1  0
 23 49  1  0
 24 50  1  0
 24 51  1  0
 26 52  1  0
 26 53  1  0
 27 54  1  0
 27 55  1  0
 29 56  1  0
 30 57  1  0
M  CHG  2  33   1  34  -1
M  END
$$$$
[H]c1nc(N([H])c2c([H])c([H])c(F)c(Cl)c2[H])c2c([H])c(OC([H])([H])C([H])([H])C([H])([H])N(C([H])([H])C([H])([H])[H])C([H])([H])C([H])([H])[H])c(OC([H])([H])[H])c([H])c2n1
     RDKit          3D

 56 58  0  0  0  0  0  0  0  0999 V2000
   -5.4746    0.4211   -1.5461 C   0  0  0  0  0  0  0  0  0  0  0  0
   -4.5610   -0.1079   -0.4232 C   0  0  0  0  0  0  0  0  0  0  0  0
   -3.9495    0.9590    0.2072 N   0  0  0  0  0  0  0  0  0  0  0  0
   -4.8308    1.8146    0.9828 C   0  0  0  0  0  0  0  0  0  0  0  0
   -5.3672    1.1190    2.2043 C   0  0  0  0  0  0  0  0  0  0  0  0
   -2.6026    1.1030    0.4770 C   0  0  0  0  0  0  0  0  0  0  0  0
   -1.6822    1.3540   -0.6705 C   0  0  0  0  0  0  0  0  0  0  0  0
   -1.5818    0.2635   -1.6763 C   0  0  0  0  0  0  0  0  0  0  0  0
   -1.1526   -0.9618   -1.2736 O   0  0  0  0  0  0  0  0  0  0  0  0
   -0.0595   -1.5088   -0.7367 C   0  0  0  0  0  0  0  0  0  0  0  0
    1.0656   -0.7655   -0.4503 C   0  0  0  0  0  0  0  0  0  0  0  0
    2.2238   -1.2906    0.1089 C   0  0  0  0  0  0  0  0  0  0  0  0
    3.3336   -0.5322    0.3827 C   0  0  0  0  0  0  0  0  0  0  0  0
    3.3470    0.8555    0.1671 N   0  0  0  0  0  0  0  0  0  0  0  0
    4.5171    1.6332    0.3973 C   0  0  0  0  0  0  0  0  0  0  0  0
    4.3573    2.9316    0.8884 C   0  0  0  0  0  0  0  0  0  0  0  0
    5.4428    3.7215    1.0867 C   0  0  0  0  0  0  0  0  0  0  0  0
    6.7287    3.2756    0.8131 C   0  0  0  0  0  0  0  0  0  0  0  0
    7.7614    4.1327    1.0420 F   0  0  0  0  0  0  0  0  0  0  0  0
    6.9068    2.0090    0.3317 C   0  0  0  0  0  0  0  0  0  0  0  0
    8.5133    1.4338   -0.0204 Cl  0  0  0  0  0  0  0  0  0  0  0  0
    5.7802    1.2078    0.1326 C   0  0  0  0  0  0  0  0  0  0  0  0
    4.4123   -1.1628    0.9257 N   0  0  0  0  0  0  0  0  0  0  0  0
    4.4347   -2.4635    1.1985 C   0  0  0  0  0  0  0  0  0  0  0  0
    3.3550   -3.2057    0.9342 N   0  0  0  0  0  0  0  0  0  0  0  0
    2.2446   -2.6495    0.3940 C   0  0  0  0  0  0  0  0  0  0  0  0
    1.1396   -3.4247    0.1215 C   0  0  0  0  0  0  0  0  0  0  0  0
    0.0140   -2.8794   -0.4282 C   0  0  0  0  0  0  0  0  0  0  0  0
   -1.1044   -3.6535   -0.7047 O   0  0  0  0  0  0  0  0  0  0  0  0
   -1.1512   -5.0214   -0.4418 C   0  0  0  0  0  0  0  0  0  0  0  0
   -5.0914    0.0505   -2.5219 H   0  0  0  0  0  0  0  0  0  0  0  0
   -6.5338    0.1735   -1.3794 H   0  0  0  0  0  0  0  0  0  0  0  0
   -5.4055    1.5246   -1.6036 H   0  0  0  0  0  0  0  0  0  0  0  0
   -3.8809   -0.8451   -0.8323 H   0  0  0  0  0  0  0  0  0  0  0  0
   -5.2890   -0.6802    0.2351 H   0  0  0  0  0  0  0  0  0  0  0  0
   -5.6423    2.1848    0.3351 H   0  0  0  0  0  0  0  0  0  0  0  0
   -4.2402    2.6862    1.3039 H   0  0  0  0  0  0  0  0  0  0  0  0
   -6.1707    1.7557    2.6265 H   0  0  0  0  0  0  0  0  0  0  0  0
   -5.7948    0.1341    2.0292 H   0  0  0  0  0  0  0  0  0  0  0  0
   -4.5910    1.0508    3.0118 H   0  0  0  0  0  0  0  0  0  0  0  0
   -2.2651    0.1702    1.0546 H   0  0  0  0  0  0  0  0  0  0  0  0
   -2.3838    1.9406    1.2331 H   0  0  0  0  0  0  0  0  0  0  0  0
   -0.6724    1.7230   -0.3057 H   0  0  0  0  0  0  0  0  0  0  0  0
   -2.0619    2.3076   -1.1972 H   0  0  0  0  0  0  0  0  0  0  0  0
   -2.4817    0.2609   -2.3322 H   0  0  0  0  0  0  0  0  0  0  0  0
   -0.7774    0.6460   -2.4235 H   0  0  0  0  0  0  0  0  0  0  0  0
    1.0920    0.2889   -0.6721 H   0  0  0  0  0  0  0  0  0  0  0  0
    2.4979    1.3980   -0.1701 H   0  0  0  0  0  0  0  0  0  0  0  0
    3.3475    3.2444    1.0909 H   0  0  0  0  0  0  0  0  0  0  0  0
    5.3105    4.7260    1.4686 H   0  0  0  0  0  0  0  0  0  0  0  0
    6.0109    0.2287   -0.2702 H   0  0  0  0  0  0  0  0  0  0  0  0
    5.3273   -2.8994    1.6295 H   0  0  0  0  0  0  0  0  0  0  0  0
    1.1839   -4.4864    0.3554 H   0  0  0  0  0  0  0  0  0  0  0  0
   -0.3144   -5.5430   -0.9745 H   0  0  0  0  0  0  0  0  0  0  0  0
   -2.1293   -5.4197   -0.8066 H   0  0  0  0  0  0  0  0  0  0  0  0
   -1.1053   -5.2284    0.6533 H   0  0  0  0  0  0  0  0  0  0  0  0
  1  2  1  0
  2  3  1  0
  3  4  1  0
  4  5  1  0
  3  6  1  0
  6  7  1  0
  7  8  1  0
  8  9  1  0
  9 10  1  0
 10 11  2  0
 11 12  1  0
 12 13  2  0
 13 14  1  0
 14 15  1  0
 15 16  2  0
 16 17  1  0
 17 18  2  0
 18 19  1  0
 18 20  1  0
 20 21  1  0
 20 22  2  0
 13 23  1  0
 23 24  2  0
 24 25  1  0
 25 26  2  0
 26 27  1  0
 27 28  2  0
 28 29  1  0
 29 30  1  0
 28 10  1  0
 26 12  1  0
 22 15  1  0
  1 31  1  0
  1 32  1  0
  1 33  1  0
  2 34  1  0
  2 35  1  0
  4 36  1  0
  4 37  1  0
  5 38  1  0
  5 39  1  0
  5 40  1  0
  6 41  1  0
  6 42  1  0
  7 43  1  0
  7 44  1  0
  8 45  1  0
  8 46  1  0
 11 47  1  0
 14 48  1  0
 16 49  1  0
 17 50  1  0
 22 51  1  0
 24 52  1  0
 27 53  1  0
 30 54  1  0
 30 55  1  0
 30 56  1  0
M  END
$$$$
[H]c1nc(N([H])c2c([H])c([H])c([H])c(Br)c2[H])c2c([H])c3c([H])nn([H])c3c([H])c2n1
     RDKit          3D

 31 34  0  0  0  0  0  0  0  0999 V2000
   -5.6272    1.8819    0.3285 Br  0  0  0  0  0  0  0  0  0  0  0  0
   -4.5207    0.3312    0.3535 C   0  0  0  0  0  0  0  0  0  0  0  0
   -5.1297   -0.8973    0.3652 C   0  0  0  0  0  0  0  0  0  0  0  0
   -4.3331   -2.0198    0.3833 C   0  0  0  0  0  0  0  0  0  0  0  0
   -2.9699   -1.8829    0.3885 C   0  0  0  0  0  0  0  0  0  0  0  0
   -2.3089   -0.6497    0.3764 C   0  0  0  0  0  0  0  0  0  0  0  0
   -0.8881   -0.5994    0.4207 N   0  0  0  0  0  0  0  0  0  0  0  0
   -0.1702    0.3756   -0.2495 C   0  0  0  0  0  0  0  0  0  0  0  0
   -0.7619    1.2790   -1.0379 N   0  0  0  0  0  0  0  0  0  0  0  0
   -0.0820    2.2100   -1.7248 C   0  0  0  0  0  0  0  0  0  0  0  0
    1.2582    2.2466   -1.6237 N   0  0  0  0  0  0  0  0  0  0  0  0
    1.9413    1.3891   -0.8633 C   0  0  0  0  0  0  0  0  0  0  0  0
    3.3115    1.4112   -0.7462 C   0  0  0  0  0  0  0  0  0  0  0  0
    3.9813    0.5110    0.0491 C   0  0  0  0  0  0  0  0  0  0  0  0
    5.2890    0.3070    0.3433 N   0  0  0  0  0  0  0  0  0  0  0  0
    5.4120   -0.7098    1.1792 N   0  0  0  0  0  0  0  0  0  0  0  0
    4.1975   -1.2221    1.4744 C   0  0  0  0  0  0  0  0  0  0  0  0
    3.3044   -0.4495    0.7605 C   0  0  0  0  0  0  0  0  0  0  0  0
    1.9071   -0.4559    0.6278 C   0  0  0  0  0  0  0  0  0  0  0  0
    1.2137    0.4273   -0.1562 C   0  0  0  0  0  0  0  0  0  0  0  0
   -3.1204    0.4473    0.3596 C   0  0  0  0  0  0  0  0  0  0  0  0
   -6.2206   -1.0053    0.3606 H   0  0  0  0  0  0  0  0  0  0  0  0
   -4.8291   -2.9802    0.3928 H   0  0  0  0  0  0  0  0  0  0  0  0
   -2.3172   -2.7553    0.4027 H   0  0  0  0  0  0  0  0  0  0  0  0
   -0.4829   -1.3708    1.0059 H   0  0  0  0  0  0  0  0  0  0  0  0
   -0.5873    2.9403   -2.3649 H   0  0  0  0  0  0  0  0  0  0  0  0
    3.8424    2.1654   -1.3047 H   0  0  0  0  0  0  0  0  0  0  0  0
    6.0518    0.8883   -0.0523 H   0  0  0  0  0  0  0  0  0  0  0  0
    3.9346   -2.0499    2.1191 H   0  0  0  0  0  0  0  0  0  0  0  0
    1.3964   -1.2133    1.1931 H   0  0  0  0  0  0  0  0  0  0  0  0
   -2.6920    1.4502    0.3746 H   0  0  0  0  0  0  0  0  0  0  0  0
  1  2  1  0
  2  3  2  0
  3  4  1  0
  4  5  2  0
  5  6  1  0
  6  7  1  0
  7  8  1  0
  8  9  2  0
  9 10  1  0
 10 11  2  0
 11 12  1  0
 12 13  2  0
 13 14  1  0
 14 15  1  0
 15 16  1  0
 16 17  2  0
 17 18  1  0
 18 19  1  0
 19 20  2  0
  6 21  2  0
 21  2  1  0
 20  8  1  0
 20 12  1  0
 18 14  2  0
  3 22  1  0
  4 23  1  0
  5 24  1  0
  7 25  1  0
 10 26  1  0
 13 27  1  0
 15 28  1  0
 17 29  1  0
 19 30  1  0
 21 31  1  0
M  END
$$$$
[H]c1nc(N([H])c2c([H])c([H])c([H])c(Br)c2[H])c2nc(N(C([H])([H])[H])C([H])([H])[H])nc([H])c2n1
     RDKit          3D

 34 36  0  0  0  0  0  0  0  0999 V2000
   -5.0430    1.2023    0.2084 C   0  0  0  0  0  0  0  0  0  0  0  0
   -3.6002    1.2061    0.1953 N   0  0  0  0  0  0  0  0  0  0  0  0
   -2.9148    2.4649    0.3661 C   0  0  0  0  0  0  0  0  0  0  0  0
   -2.8494    0.0149    0.0203 C   0  0  0  0  0  0  0  0  0  0  0  0
   -3.4766   -1.1789   -0.1421 N   0  0  0  0  0  0  0  0  0  0  0  0
   -2.8043   -2.3305   -0.3107 C   0  0  0  0  0  0  0  0  0  0  0  0
   -1.4187   -2.2812   -0.3167 C   0  0  0  0  0  0  0  0  0  0  0  0
   -0.7825   -3.4506   -0.4876 N   0  0  0  0  0  0  0  0  0  0  0  0
    0.5648   -3.4441   -0.4993 C   0  0  0  0  0  0  0  0  0  0  0  0
    1.1827   -2.2878   -0.3421 N   0  0  0  0  0  0  0  0  0  0  0  0
    0.6318   -1.0818   -0.1669 C   0  0  0  0  0  0  0  0  0  0  0  0
    1.2763    0.1383    0.0197 N   0  0  0  0  0  0  0  0  0  0  0  0
    2.6524    0.3516    0.0176 C   0  0  0  0  0  0  0  0  0  0  0  0
    3.1491    1.5146    0.6323 C   0  0  0  0  0  0  0  0  0  0  0  0
    4.4935    1.7774    0.6324 C   0  0  0  0  0  0  0  0  0  0  0  0
    5.3663    0.9031    0.0300 C   0  0  0  0  0  0  0  0  0  0  0  0
    4.9174   -0.2396   -0.5787 C   0  0  0  0  0  0  0  0  0  0  0  0
    6.1318   -1.4708   -1.4253 Br  0  0  0  0  0  0  0  0  0  0  0  0
    3.5374   -0.4966   -0.5719 C   0  0  0  0  0  0  0  0  0  0  0  0
   -0.7728   -1.0863   -0.1544 C   0  0  0  0  0  0  0  0  0  0  0  0
   -1.4989    0.0120    0.0073 N   0  0  0  0  0  0  0  0  0  0  0  0
   -5.3879    0.4756   -0.5751 H   0  0  0  0  0  0  0  0  0  0  0  0
   -5.4462    0.8036    1.1844 H   0  0  0  0  0  0  0  0  0  0  0  0
   -5.4345    2.2172    0.0295 H   0  0  0  0  0  0  0  0  0  0  0  0
   -3.5633    3.2701    0.7201 H   0  0  0  0  0  0  0  0  0  0  0  0
   -2.3226    2.7352   -0.5412 H   0  0  0  0  0  0  0  0  0  0  0  0
   -2.1490    2.2891    1.1758 H   0  0  0  0  0  0  0  0  0  0  0  0
   -3.3283   -3.2781   -0.4394 H   0  0  0  0  0  0  0  0  0  0  0  0
    1.1319   -4.3659   -0.6346 H   0  0  0  0  0  0  0  0  0  0  0  0
    0.6531    1.0035    0.1788 H   0  0  0  0  0  0  0  0  0  0  0  0
    2.4863    2.2167    1.1118 H   0  0  0  0  0  0  0  0  0  0  0  0
    4.9102    2.6781    1.1048 H   0  0  0  0  0  0  0  0  0  0  0  0
    6.4321    1.1279    0.0399 H   0  0  0  0  0  0  0  0  0  0  0  0
    3.2759   -1.4098   -1.0881 H   0  0  0  0  0  0  0  0  0  0  0  0
  1  2  1  0
  2  3  1  0
  2  4  1  0
  4  5  2  0
  5  6  1  0
  6  7  2  0
  7  8  1  0
  8  9  2  0
  9 10  1  0
 10 11  2  0
 11 12  1  0
 12 13  1  0
 13 14  2  0
 14 15  1  0
 15 16  2  0
 16 17  1  0
 17 18  1  0
 17 19  2  0
 11 20  1  0
 20 21  2  0
 21  4  1  0
 20  7  1  0
 19 13  1  0
  1 22  1  0
  1 23  1  0
  1 24  1  0
  3 25  1  0
  3 26  1  0
  3 27  1  0
  6 28  1  0
  9 29  1  0
 12 30  1  0
 14 31  1  0
 15 32  1  0
 16 33  1  0
 19 34  1  0
M  END
$$$$
[H]/C(C(=O)N([H])c1c(OC([H])([H])C([H])([H])[H])c([H])c2nc([H])nc(N([H])c3c([H])c([H])c(F)c(Cl)c3[H])c2c1[H])=C(/[H])[C@]1([H])N(C([H])([H])[H])C([H])([H])C([H])([H])C1([H])[H]
     RDKit          3D

 58 61  0  0  0  0  0  0  0  0999 V2000
    0.7320    5.8413    1.4630 C   0  0  0  0  0  0  0  0  0  0  0  0
    0.1042    4.8779    2.4449 C   0  0  0  0  0  0  0  0  0  0  0  0
   -0.0741    3.6053    1.9132 O   0  0  0  0  0  0  0  0  0  0  0  0
    0.8927    2.7515    1.4528 C   0  0  0  0  0  0  0  0  0  0  0  0
    2.2122    3.1016    1.4887 C   0  0  0  0  0  0  0  0  0  0  0  0
    3.2041    2.2524    1.0291 C   0  0  0  0  0  0  0  0  0  0  0  0
    4.5026    2.6153    1.0699 N   0  0  0  0  0  0  0  0  0  0  0  0
    5.4417    1.7606    0.6106 C   0  0  0  0  0  0  0  0  0  0  0  0
    5.1226    0.5619    0.1152 N   0  0  0  0  0  0  0  0  0  0  0  0
    3.8304    0.1387    0.0476 C   0  0  0  0  0  0  0  0  0  0  0  0
    3.5075   -1.1391   -0.4376 N   0  0  0  0  0  0  0  0  0  0  0  0
    4.4855   -2.0392   -0.9688 C   0  0  0  0  0  0  0  0  0  0  0  0
    4.3015   -3.4176   -0.8073 C   0  0  0  0  0  0  0  0  0  0  0  0
    5.1916   -4.3171   -1.3280 C   0  0  0  0  0  0  0  0  0  0  0  0
    6.3041   -3.8690   -2.0330 C   0  0  0  0  0  0  0  0  0  0  0  0
    7.1815   -4.7734   -2.5451 F   0  0  0  0  0  0  0  0  0  0  0  0
    6.5214   -2.5240   -2.2146 C   0  0  0  0  0  0  0  0  0  0  0  0
    7.9080   -1.9372   -3.0942 Cl  0  0  0  0  0  0  0  0  0  0  0  0
    5.5820   -1.6455   -1.6632 C   0  0  0  0  0  0  0  0  0  0  0  0
    2.8743    1.0222    0.5208 C   0  0  0  0  0  0  0  0  0  0  0  0
    1.5274    0.6789    0.4905 C   0  0  0  0  0  0  0  0  0  0  0  0
    0.5107    1.4912    0.9360 C   0  0  0  0  0  0  0  0  0  0  0  0
   -0.8580    1.2014    0.9311 N   0  0  0  0  0  0  0  0  0  0  0  0
   -1.4417    0.0178    0.4669 C   0  0  0  0  0  0  0  0  0  0  0  0
   -0.8151   -0.9242    0.0006 O   0  0  0  0  0  0  0  0  0  0  0  0
   -2.9287   -0.1024    0.5463 C   0  0  0  0  0  0  0  0  0  0  0  0
   -3.5626   -1.1731    0.1357 C   0  0  0  0  0  0  0  0  0  0  0  0
   -5.0407   -1.3200    0.2028 C   0  0  1  0  0  0  0  0  0  0  0  0
   -5.6301   -0.1336   -0.5491 C   0  0  0  0  0  0  0  0  0  0  0  0
   -5.7401   -0.6679   -1.9492 C   0  0  0  0  0  0  0  0  0  0  0  0
   -6.1362   -2.1215   -1.6874 C   0  0  0  0  0  0  0  0  0  0  0  0
   -5.4281   -2.4977   -0.5035 N   0  0  0  0  0  0  0  0  0  0  0  0
   -6.0894   -3.4874    0.2976 C   0  0  0  0  0  0  0  0  0  0  0  0
    1.0522    5.3173    0.5333 H   0  0  0  0  0  0  0  0  0  0  0  0
   -0.0095    6.6125    1.1729 H   0  0  0  0  0  0  0  0  0  0  0  0
    1.5925    6.3679    1.9003 H   0  0  0  0  0  0  0  0  0  0  0  0
   -0.8536    5.3131    2.8033 H   0  0  0  0  0  0  0  0  0  0  0  0
    0.7967    4.7850    3.3140 H   0  0  0  0  0  0  0  0  0  0  0  0
    2.5849    4.0536    1.8794 H   0  0  0  0  0  0  0  0  0  0  0  0
    6.4905    2.0675    0.6495 H   0  0  0  0  0  0  0  0  0  0  0  0
    2.5155   -1.5241   -0.4401 H   0  0  0  0  0  0  0  0  0  0  0  0
    3.4173   -3.7434   -0.2481 H   0  0  0  0  0  0  0  0  0  0  0  0
    5.0131   -5.3898   -1.1804 H   0  0  0  0  0  0  0  0  0  0  0  0
    5.8027   -0.5986   -1.8662 H   0  0  0  0  0  0  0  0  0  0  0  0
    1.2773   -0.2727    0.0937 H   0  0  0  0  0  0  0  0  0  0  0  0
   -1.5260    1.9623    1.3220 H   0  0  0  0  0  0  0  0  0  0  0  0
   -3.4991    0.7107    0.9516 H   0  0  0  0  0  0  0  0  0  0  0  0
   -2.9538   -1.9745   -0.2676 H   0  0  0  0  0  0  0  0  0  0  0  0
   -5.3684   -1.3178    1.2627 H   0  0  0  0  0  0  0  0  0  0  0  0
   -6.6130    0.1115   -0.0987 H   0  0  0  0  0  0  0  0  0  0  0  0
   -4.9396    0.7136   -0.4922 H   0  0  0  0  0  0  0  0  0  0  0  0
   -6.5351   -0.1468   -2.5208 H   0  0  0  0  0  0  0  0  0  0  0  0
   -4.7595   -0.6100   -2.4329 H   0  0  0  0  0  0  0  0  0  0  0  0
   -7.2229   -2.2069   -1.6119 H   0  0  0  0  0  0  0  0  0  0  0  0
   -5.7031   -2.7130   -2.5368 H   0  0  0  0  0  0  0  0  0  0  0  0
   -5.4163   -4.3906    0.3163 H   0  0  0  0  0  0  0  0  0  0  0  0
   -6.3171   -3.1490    1.3271 H   0  0  0  0  0  0  0  0  0  0  0  0
   -7.0187   -3.8059   -0.2130 H   0  0  0  0  0  0  0  0  0  0  0  0
  1  2  1  0
  2  3  1  0
  3  4  1  0
  4  5  2  0
  5  6  1  0
  6  7  2  0
  7  8  1  0
  8  9  2  0
  9 10  1  0
 10 11  1  0
 11 12  1  0
 12 13  2  0
 13 14  1  0
 14 15  2  0
 15 16  1  0
 15 17  1  0
 17 18  1  0
 17 19  2  0
 10 20  2  0
 20 21  1  0
 21 22  2  0
 22 23  1  0
 23 24  1  0
 24 25  2  0
 24 26  1  0
 26 27  2  0
 27 28  1  0
 28 29  1  0
 29 30  1  0
 30 31  1  0
 31 32  1  0
 32 33  1  0
 22  4  1  0
 32 28  1  0
 20  6  1  0
 19 12  1  0
  1 34  1  0
  1 35  1  0
  1 36  1  0
  2 37  1  0
  2 38  1  0
  5 39  1  0
  8 40  1  0
 11 41  1  0
 13 42  1  0
 14 43  1  0
 19 44  1  0
 21 45  1  0
 23 46  1  0
 26 47  1  0
 27 48  1  0
 28 49  1  1
 29 50  1  0
 29 51  1  0
 30 52  1  0
 30 53  1  0
 31 54  1  0
 31 55  1  0
 33 56  1  0
 33 57  1  0
 33 58  1  0
M  END
$$$$
[H]/C(C(=O)N([H])c1nc([H])c2nc([H])nc(N([H])c3c([H])c([H])c([H])c(Br)c3[H])c2c1[H])=C(/[H])C(=O)N([H])C([H])([H])C([H])([H])C([H])([H])N(C([H])([H])C([H])([H])[H])C([H])([H])C([H])([H])[H]
     RDKit          3D

 62 64  0  0  0  0  0  0  0  0999 V2000
    7.6291    0.3078    0.7145 C   0  0  0  0  0  0  0  0  0  0  0  0
    7.0973   -0.8262    1.5000 C   0  0  0  0  0  0  0  0  0  0  0  0
    6.6277   -1.9639    0.6501 N   0  0  0  0  0  0  0  0  0  0  0  0
    7.7607   -2.5334    0.0094 C   0  0  0  0  0  0  0  0  0  0  0  0
    7.4890   -3.9251   -0.4767 C   0  0  0  0  0  0  0  0  0  0  0  0
    5.6645   -1.2687   -0.2306 C   0  0  0  0  0  0  0  0  0  0  0  0
    4.9748   -2.1767   -1.1484 C   0  0  0  0  0  0  0  0  0  0  0  0
    3.9793   -1.6766   -2.1144 C   0  0  0  0  0  0  0  0  0  0  0  0
    2.8361   -0.9947   -1.6578 N   0  0  0  0  0  0  0  0  0  0  0  0
    2.7616    0.2635   -1.0634 C   0  0  0  0  0  0  0  0  0  0  0  0
    3.7160    1.0031   -0.8569 O   0  0  0  0  0  0  0  0  0  0  0  0
    1.4279    0.7682   -0.6454 C   0  0  0  0  0  0  0  0  0  0  0  0
    1.2733    1.9374   -0.0739 C   0  0  0  0  0  0  0  0  0  0  0  0
    0.0088    2.4898    0.3557 C   0  0  0  0  0  0  0  0  0  0  0  0
    0.0410    3.6462    0.9008 O   0  0  0  0  0  0  0  0  0  0  0  0
   -1.2032    1.8312    0.2021 N   0  0  0  0  0  0  0  0  0  0  0  0
   -2.4332    2.4578    0.6205 C   0  0  0  0  0  0  0  0  0  0  0  0
   -3.6589    1.7951    0.4873 C   0  0  0  0  0  0  0  0  0  0  0  0
   -4.8508    2.3854    0.8526 C   0  0  0  0  0  0  0  0  0  0  0  0
   -6.0822    1.7641    0.7286 C   0  0  0  0  0  0  0  0  0  0  0  0
   -6.1615    0.4781    0.1608 N   0  0  0  0  0  0  0  0  0  0  0  0
   -7.3778   -0.2423    0.0413 C   0  0  0  0  0  0  0  0  0  0  0  0
   -7.5393   -1.1146   -1.0475 C   0  0  0  0  0  0  0  0  0  0  0  0
   -8.7138   -1.8472   -1.1527 C   0  0  0  0  0  0  0  0  0  0  0  0
   -9.7202   -1.7543   -0.2372 C   0  0  0  0  0  0  0  0  0  0  0  0
   -9.5616   -0.9003    0.8288 C   0  0  0  0  0  0  0  0  0  0  0  0
  -10.9740   -0.7615    2.1013 Br  0  0  0  0  0  0  0  0  0  0  0  0
   -8.3823   -0.1618    0.9388 C   0  0  0  0  0  0  0  0  0  0  0  0
   -7.1601    2.4638    1.1204 N   0  0  0  0  0  0  0  0  0  0  0  0
   -7.1089    3.7239    1.6214 C   0  0  0  0  0  0  0  0  0  0  0  0
   -5.8972    4.2851    1.7224 N   0  0  0  0  0  0  0  0  0  0  0  0
   -4.7462    3.6700    1.3577 C   0  0  0  0  0  0  0  0  0  0  0  0
   -3.5271    4.2980    1.4795 C   0  0  0  0  0  0  0  0  0  0  0  0
   -2.3862    3.6967    1.1133 N   0  0  0  0  0  0  0  0  0  0  0  0
    7.9932    0.0904   -0.2953 H   0  0  0  0  0  0  0  0  0  0  0  0
    6.9525    1.2051    0.6676 H   0  0  0  0  0  0  0  0  0  0  0  0
    8.5477    0.7155    1.2498 H   0  0  0  0  0  0  0  0  0  0  0  0
    6.1769   -0.5079    2.0506 H   0  0  0  0  0  0  0  0  0  0  0  0
    7.7808   -1.2222    2.2765 H   0  0  0  0  0  0  0  0  0  0  0  0
    8.6742   -2.4772    0.6583 H   0  0  0  0  0  0  0  0  0  0  0  0
    8.0779   -1.9404   -0.9042 H   0  0  0  0  0  0  0  0  0  0  0  0
    6.4748   -4.3085   -0.2383 H   0  0  0  0  0  0  0  0  0  0  0  0
    7.6462   -4.0582   -1.5675 H   0  0  0  0  0  0  0  0  0  0  0  0
    8.2060   -4.6599   -0.0107 H   0  0  0  0  0  0  0  0  0  0  0  0
    4.9031   -0.9129    0.5483 H   0  0  0  0  0  0  0  0  0  0  0  0
    6.1397   -0.4008   -0.6925 H   0  0  0  0  0  0  0  0  0  0  0  0
    5.7342   -2.7348   -1.8248 H   0  0  0  0  0  0  0  0  0  0  0  0
    4.4887   -3.0506   -0.5990 H   0  0  0  0  0  0  0  0  0  0  0  0
    4.4862   -1.0749   -2.9461 H   0  0  0  0  0  0  0  0  0  0  0  0
    3.6252   -2.5896   -2.7052 H   0  0  0  0  0  0  0  0  0  0  0  0
    1.8632   -1.5129   -1.7773 H   0  0  0  0  0  0  0  0  0  0  0  0
    0.5281    0.1621   -0.8116 H   0  0  0  0  0  0  0  0  0  0  0  0
    2.2010    2.5121    0.0732 H   0  0  0  0  0  0  0  0  0  0  0  0
   -1.2972    0.8992   -0.2276 H   0  0  0  0  0  0  0  0  0  0  0  0
   -3.6221    0.7904    0.0880 H   0  0  0  0  0  0  0  0  0  0  0  0
   -5.2824    0.0165   -0.2040 H   0  0  0  0  0  0  0  0  0  0  0  0
   -6.7397   -1.1781   -1.7660 H   0  0  0  0  0  0  0  0  0  0  0  0
   -8.8615   -2.5372   -1.9992 H   0  0  0  0  0  0  0  0  0  0  0  0
  -10.6225   -2.3622   -0.3827 H   0  0  0  0  0  0  0  0  0  0  0  0
   -8.3226    0.4622    1.8115 H   0  0  0  0  0  0  0  0  0  0  0  0
   -7.9999    4.2502    1.9208 H   0  0  0  0  0  0  0  0  0  0  0  0
   -3.5543    5.3067    1.8815 H   0  0  0  0  0  0  0  0  0  0  0  0
  1  2  1  0
  2  3  1  0
  3  4  1  0
  4  5  1  0
  3  6  1  0
  6  7  1  0
  7  8  1  0
  8  9  1  0
  9 10  1  0
 10 11  2  0
 10 12  1  0
 12 13  2  0
 13 14  1  0
 14 15  2  0
 14 16  1  0
 16 17  1  0
 17 18  2  0
 18 19  1  0
 19 20  2  0
 20 21  1  0
 21 22  1  0
 22 23  2  0
 23 24  1  0
 24 25  2  0
 25 26  1  0
 26 27  1  0
 26 28  2  0
 20 29  1  0
 29 30  2  0
 30 31  1  0
 31 32  2  0
 32 33  1  0
 33 34  2  0
 34 17  1  0
 32 19  1  0
 28 22  1  0
  1 35  1  0
  1 36  1  0
  1 37  1  0
  2 38  1  0
  2 39  1  0
  4 40  1  0
  4 41  1  0
  5 42  1  0
  5 43  1  0
  5 44  1  0
  6 45  1  0
  6 46  1  0
  7 47  1  0
  7 48  1  0
  8 49  1  0
  8 50  1  0
  9 51  1  0
 12 52  1  0
 13 53  1  0
 16 54  1  0
 18 55  1  0
 21 56  1  0
 23 57  1  0
 24 58  1  0
 25 59  1  0
 28 60  1  0
 30 61  1  0
 33 62  1  0
M  END
$$$$
[H]C([H])=C([H])C(=O)N([H])c1c([H])c([H])c([H])c(N([H])c2nc(N([H])c3c([H])c([H])c(N4C([H])([H])C([H])([H])N(C(=O)N([H])C([H])([H])[H])C([H])([H])C4([H])[H])c([H])c3OC([H])([H])[H])nc([H])c2C(F)(F)F)c1[H]
     RDKit          3D

 70 73  0  0  0  0  0  0  0  0999 V2000
  -10.5234    1.9296   -0.8478 C   0  0  0  0  0  0  0  0  0  0  0  0
   -9.1932    1.4275   -0.5767 N   0  0  0  0  0  0  0  0  0  0  0  0
   -8.0516    2.2454   -0.7384 C   0  0  0  0  0  0  0  0  0  0  0  0
   -8.1989    3.4280   -1.1236 O   0  0  0  0  0  0  0  0  0  0  0  0
   -6.7471    1.7770   -0.4816 N   0  0  0  0  0  0  0  0  0  0  0  0
   -6.5798    0.4074   -0.0332 C   0  0  0  0  0  0  0  0  0  0  0  0
   -5.2006    0.1654    0.5441 C   0  0  0  0  0  0  0  0  0  0  0  0
   -4.1747    0.7832   -0.2784 N   0  0  0  0  0  0  0  0  0  0  0  0
   -4.4962    1.7682   -1.2894 C   0  0  0  0  0  0  0  0  0  0  0  0
   -5.6003    2.6362   -0.6595 C   0  0  0  0  0  0  0  0  0  0  0  0
   -2.8277    0.4032   -0.0560 C   0  0  0  0  0  0  0  0  0  0  0  0
   -2.4770   -0.2496    1.0818 C   0  0  0  0  0  0  0  0  0  0  0  0
   -1.1505   -0.6480    1.3323 C   0  0  0  0  0  0  0  0  0  0  0  0
   -0.1634   -0.3925    0.4381 C   0  0  0  0  0  0  0  0  0  0  0  0
    1.1715   -0.7486    0.5794 N   0  0  0  0  0  0  0  0  0  0  0  0
    1.8297   -1.3607    1.6786 C   0  0  0  0  0  0  0  0  0  0  0  0
    1.2405   -1.7111    2.8311 N   0  0  0  0  0  0  0  0  0  0  0  0
    1.9138   -2.2790    3.8339 C   0  0  0  0  0  0  0  0  0  0  0  0
    3.2693   -2.5453    3.7514 C   0  0  0  0  0  0  0  0  0  0  0  0
    3.9073   -2.1886    2.5559 C   0  0  0  0  0  0  0  0  0  0  0  0
    5.2678   -2.4786    2.4213 N   0  0  0  0  0  0  0  0  0  0  0  0
    6.1168   -2.1905    1.3168 C   0  0  0  0  0  0  0  0  0  0  0  0
    7.3069   -2.9155    1.1643 C   0  0  0  0  0  0  0  0  0  0  0  0
    8.1540   -2.6641    0.1277 C   0  0  0  0  0  0  0  0  0  0  0  0
    7.8832   -1.7069   -0.7936 C   0  0  0  0  0  0  0  0  0  0  0  0
    6.7020   -0.9499   -0.6858 C   0  0  0  0  0  0  0  0  0  0  0  0
    6.4954   -0.0064   -1.7009 N   0  0  0  0  0  0  0  0  0  0  0  0
    5.6868    1.1393   -1.6229 C   0  0  0  0  0  0  0  0  0  0  0  0
    5.0696    1.4069   -0.5665 O   0  0  0  0  0  0  0  0  0  0  0  0
    5.5624    2.0295   -2.7797 C   0  0  0  0  0  0  0  0  0  0  0  0
    4.8169    3.0946   -2.7206 C   0  0  0  0  0  0  0  0  0  0  0  0
    5.8564   -1.2160    0.3663 C   0  0  0  0  0  0  0  0  0  0  0  0
    3.1516   -1.6293    1.6185 N   0  0  0  0  0  0  0  0  0  0  0  0
    4.0010   -3.1612    4.8863 C   0  0  0  0  0  0  0  0  0  0  0  0
    4.9989   -2.3525    5.3995 F   0  0  0  0  0  0  0  0  0  0  0  0
    3.0904   -3.2923    5.9545 F   0  0  0  0  0  0  0  0  0  0  0  0
    4.4154   -4.4521    4.6363 F   0  0  0  0  0  0  0  0  0  0  0  0
   -0.5478    0.2808   -0.7277 C   0  0  0  0  0  0  0  0  0  0  0  0
    0.4124    0.5638   -1.6655 O   0  0  0  0  0  0  0  0  0  0  0  0
    0.0682    1.2358   -2.8512 C   0  0  0  0  0  0  0  0  0  0  0  0
   -1.8428    0.6676   -0.9676 C   0  0  0  0  0  0  0  0  0  0  0  0
  -11.1446    1.2334   -1.4372 H   0  0  0  0  0  0  0  0  0  0  0  0
  -10.4132    2.9110   -1.3544 H   0  0  0  0  0  0  0  0  0  0  0  0
  -10.9830    2.1177    0.1485 H   0  0  0  0  0  0  0  0  0  0  0  0
   -9.1140    0.4285   -0.2530 H   0  0  0  0  0  0  0  0  0  0  0  0
   -6.7955   -0.3171   -0.8464 H   0  0  0  0  0  0  0  0  0  0  0  0
   -7.3157    0.2338    0.7747 H   0  0  0  0  0  0  0  0  0  0  0  0
   -5.1313    0.5452    1.5602 H   0  0  0  0  0  0  0  0  0  0  0  0
   -5.0543   -0.9470    0.5359 H   0  0  0  0  0  0  0  0  0  0  0  0
   -3.6443    2.4303   -1.5513 H   0  0  0  0  0  0  0  0  0  0  0  0
   -4.9208    1.3504   -2.2084 H   0  0  0  0  0  0  0  0  0  0  0  0
   -5.1944    2.9667    0.3206 H   0  0  0  0  0  0  0  0  0  0  0  0
   -5.8310    3.4850   -1.3338 H   0  0  0  0  0  0  0  0  0  0  0  0
   -3.2462   -0.4678    1.8135 H   0  0  0  0  0  0  0  0  0  0  0  0
   -0.9804   -1.1628    2.2621 H   0  0  0  0  0  0  0  0  0  0  0  0
    1.8542   -0.5550   -0.2437 H   0  0  0  0  0  0  0  0  0  0  0  0
    1.4223   -2.5643    4.7776 H   0  0  0  0  0  0  0  0  0  0  0  0
    5.7658   -2.9777    3.2203 H   0  0  0  0  0  0  0  0  0  0  0  0
    7.5257   -3.6696    1.8855 H   0  0  0  0  0  0  0  0  0  0  0  0
    9.0896   -3.2163   -0.0165 H   0  0  0  0  0  0  0  0  0  0  0  0
    8.5809   -1.5231   -1.6196 H   0  0  0  0  0  0  0  0  0  0  0  0
    6.9885   -0.1653   -2.6327 H   0  0  0  0  0  0  0  0  0  0  0  0
    6.0992    1.7796   -3.6732 H   0  0  0  0  0  0  0  0  0  0  0  0
    4.7420    3.7385   -3.5950 H   0  0  0  0  0  0  0  0  0  0  0  0
    4.2524    3.4113   -1.8622 H   0  0  0  0  0  0  0  0  0  0  0  0
    4.9627   -0.6357    0.4431 H   0  0  0  0  0  0  0  0  0  0  0  0
    0.9234    1.1141   -3.5771 H   0  0  0  0  0  0  0  0  0  0  0  0
   -0.1455    2.3061   -2.7325 H   0  0  0  0  0  0  0  0  0  0  0  0
   -0.7854    0.7113   -3.3728 H   0  0  0  0  0  0  0  0  0  0  0  0
   -2.1200    1.1877   -1.8843 H   0  0  0  0  0  0  0  0  0  0  0  0
  1  2  1  0
  2  3  1  0
  3  4  2  0
  3  5  1  0
  5  6  1  0
  6  7  1  0
  7  8  1  0
  8  9  1  0
  9 10  1  0
  8 11  1  0
 11 12  2  0
 12 13  1  0
 13 14  2  0
 14 15  1  0
 15 16  1  0
 16 17  2  0
 17 18  1  0
 18 19  2  0
 19 20  1  0
 20 21  1  0
 21 22  1  0
 22 23  2  0
 23 24  1  0
 24 25  2  0
 25 26  1  0
 26 27  1  0
 27 28  1  0
 28 29  2  0
 28 30  1  0
 30 31  2  3
 26 32  2  0
 20 33  2  0
 19 34  1  0
 34 35  1  0
 34 36  1  0
 34 37  1  0
 14 38  1  0
 38 39  1  0
 39 40  1  0
 38 41  2  0
 10  5  1  0
 41 11  1  0
 33 16  1  0
 32 22  1  0
  1 42  1  0
  1 43  1  0
  1 44  1  0
  2 45  1  0
  6 46  1  0
  6 47  1  0
  7 48  1  0
  7 49  1  0
  9 50  1  0
  9 51  1  0
 10 52  1  0
 10 53  1  0
 12 54  1  0
 13 55  1  0
 15 56  1  0
 18 57  1  0
 21 58  1  0
 23 59  1  0
 24 60  1  0
 25 61  1  0
 27 62  1  0
 30 63  1  0
 31 64  1  0
 31 65  1  0
 32 66  1  0
 40 67  1  0
 40 68  1  0
 40 69  1  0
 41 70  1  0
M  END
$$$$
[H]c1nc(N([H])c2c([H])c([H])c(OC([H])([H])c3c([H])c([H])c([H])c(F)c3[H])c(Cl)c2[H])c2c([H])c(-c3oc([C@@]([H])(N([H])[H])C([H])([H])S(=O)(=O)C([H])([H])[H])c([H])c3[H])c([H])c([H])c2n1
     RDKit          3D

 63 67  0  0  0  0  0  0  0  0999 V2000
   -8.6086    1.7845    2.6351 C   0  0  0  0  0  0  0  0  0  0  0  0
   -7.5904    2.0724    1.1805 S   0  0  0  0  0  0  0  0  0  0  0  0
   -6.1733    1.8735    1.6422 O   0  0  0  0  0  0  0  0  0  0  0  0
   -7.8266    3.4325    0.6162 O   0  0  0  0  0  0  0  0  0  0  0  0
   -8.0840    0.8722   -0.0270 C   0  0  0  0  0  0  0  0  0  0  0  0
   -7.3242    0.9791   -1.3202 C   0  0  2  0  0  0  0  0  0  0  0  0
   -7.8436   -0.0720   -2.2135 N   0  0  0  0  0  0  0  0  0  0  0  0
   -5.9106    0.6070   -1.0711 C   0  0  0  0  0  0  0  0  0  0  0  0
   -4.8666    1.5371   -1.1414 C   0  0  0  0  0  0  0  0  0  0  0  0
   -3.7427    0.7944   -0.8493 C   0  0  0  0  0  0  0  0  0  0  0  0
   -4.1146   -0.5115   -0.6188 C   0  0  0  0  0  0  0  0  0  0  0  0
   -5.3971   -0.5511   -0.7650 O   0  0  0  0  0  0  0  0  0  0  0  0
   -3.2501   -1.6355   -0.2776 C   0  0  0  0  0  0  0  0  0  0  0  0
   -3.7573   -2.8958   -0.0718 C   0  0  0  0  0  0  0  0  0  0  0  0
   -2.9553   -3.9719    0.2517 C   0  0  0  0  0  0  0  0  0  0  0  0
   -1.5936   -3.7737    0.3726 C   0  0  0  0  0  0  0  0  0  0  0  0
   -0.7719   -4.7860    0.6860 N   0  0  0  0  0  0  0  0  0  0  0  0
    0.5603   -4.6548    0.8186 C   0  0  0  0  0  0  0  0  0  0  0  0
    1.0759   -3.4281    0.6207 N   0  0  0  0  0  0  0  0  0  0  0  0
    0.3498   -2.3503    0.3049 C   0  0  0  0  0  0  0  0  0  0  0  0
    0.9568   -1.1000    0.0820 N   0  0  0  0  0  0  0  0  0  0  0  0
    2.3292   -0.7772    0.2070 C   0  0  0  0  0  0  0  0  0  0  0  0
    2.8328    0.2635   -0.5549 C   0  0  0  0  0  0  0  0  0  0  0  0
    4.1305    0.6347   -0.4584 C   0  0  0  0  0  0  0  0  0  0  0  0
    5.0035    0.0017    0.3936 C   0  0  0  0  0  0  0  0  0  0  0  0
    6.3364    0.3612    0.5117 O   0  0  0  0  0  0  0  0  0  0  0  0
    6.8177    1.4151   -0.2703 C   0  0  0  0  0  0  0  0  0  0  0  0
    8.2535    1.6917   -0.0440 C   0  0  0  0  0  0  0  0  0  0  0  0
    8.8582    2.6923   -0.7739 C   0  0  0  0  0  0  0  0  0  0  0  0
   10.1947    3.0011   -0.6109 C   0  0  0  0  0  0  0  0  0  0  0  0
   10.9568    2.3089    0.2926 C   0  0  0  0  0  0  0  0  0  0  0  0
   10.3571    1.2951    1.0365 C   0  0  0  0  0  0  0  0  0  0  0  0
   11.0882    0.5950    1.9373 F   0  0  0  0  0  0  0  0  0  0  0  0
    9.0279    1.0000    0.8632 C   0  0  0  0  0  0  0  0  0  0  0  0
    4.4945   -1.0258    1.1427 C   0  0  0  0  0  0  0  0  0  0  0  0
    5.5426   -1.8874    2.2561 Cl  0  0  0  0  0  0  0  0  0  0  0  0
    3.1541   -1.4368    1.0680 C   0  0  0  0  0  0  0  0  0  0  0  0
   -1.0174   -2.5152    0.1754 C   0  0  0  0  0  0  0  0  0  0  0  0
   -1.8698   -1.4798   -0.1454 C   0  0  0  0  0  0  0  0  0  0  0  0
   -8.4868    2.6882    3.2632 H   0  0  0  0  0  0  0  0  0  0  0  0
   -8.1654    0.9084    3.1514 H   0  0  0  0  0  0  0  0  0  0  0  0
   -9.6519    1.6136    2.3290 H   0  0  0  0  0  0  0  0  0  0  0  0
   -7.9158   -0.1391    0.4021 H   0  0  0  0  0  0  0  0  0  0  0  0
   -9.1777    1.0414   -0.2011 H   0  0  0  0  0  0  0  0  0  0  0  0
   -7.4138    1.9628   -1.7955 H   0  0  0  0  0  0  0  0  0  0  0  0
   -7.8370   -0.9443   -1.6105 H   0  0  0  0  0  0  0  0  0  0  0  0
   -7.0678   -0.2315   -2.9157 H   0  0  0  0  0  0  0  0  0  0  0  0
   -4.9482    2.6020   -1.3756 H   0  0  0  0  0  0  0  0  0  0  0  0
   -2.7377    1.1773   -0.8089 H   0  0  0  0  0  0  0  0  0  0  0  0
   -4.8216   -3.0746   -0.1614 H   0  0  0  0  0  0  0  0  0  0  0  0
   -3.3215   -4.9742    0.4200 H   0  0  0  0  0  0  0  0  0  0  0  0
    1.1420   -5.5210    1.0722 H   0  0  0  0  0  0  0  0  0  0  0  0
    0.3471   -0.2682   -0.2135 H   0  0  0  0  0  0  0  0  0  0  0  0
    2.1640    0.7698   -1.2278 H   0  0  0  0  0  0  0  0  0  0  0  0
    4.4977    1.4658   -1.0782 H   0  0  0  0  0  0  0  0  0  0  0  0
    6.1973    2.3367   -0.1257 H   0  0  0  0  0  0  0  0  0  0  0  0
    6.7005    1.1491   -1.3411 H   0  0  0  0  0  0  0  0  0  0  0  0
    8.2774    3.2494   -1.4901 H   0  0  0  0  0  0  0  0  0  0  0  0
   10.6312    3.8060   -1.2149 H   0  0  0  0  0  0  0  0  0  0  0  0
   12.0168    2.5212    0.4522 H   0  0  0  0  0  0  0  0  0  0  0  0
    8.5867    0.2110    1.4507 H   0  0  0  0  0  0  0  0  0  0  0  0
    2.8617   -2.2412    1.7123 H   0  0  0  0  0  0  0  0  0  0  0  0
   -1.5003   -0.4692   -0.3134 H   0  0  0  0  0  0  0  0  0  0  0  0
  1  2  1  0
  2  3  2  0
  2  4  2  0
  2  5  1  0
  5  6  1  0
  6  7  1  0
  6  8  1  0
  8  9  2  0
  9 10  1  0
 10 11  2  0
 11 12  1  0
 11 13  1  0
 13 14  2  0
 14 15  1  0
 15 16  2  0
 16 17  1  0
 17 18  2  0
 18 19  1  0
 19 20  2  0
 20 21  1  0
 21 22  1  0
 22 23  2  0
 23 24  1  0
 24 25  2  0
 25 26  1  0
 26 27  1  0
 27 28  1  0
 28 29  2  0
 29 30  1  0
 30 31  2  0
 31 32  1  0
 32 33  1  0
 32 34  2  0
 25 35  1  0
 35 36  1  0
 35 37  2  0
 20 38  1  0
 38 39  2  0
 12  8  1  0
 39 13  1  0
 38 16  1  0
 37 22  1  0
 34 28  1  0
  1 40  1  0
  1 41  1  0
  1 42  1  0
  5 43  1  0
  5 44  1  0
  6 45  1  6
  7 46  1  0
  7 47  1  0
  9 48  1  0
 10 49  1  0
 14 50  1  0
 15 51  1  0
 18 52  1  0
 21 53  1  0
 23 54  1  0
 24 55  1  0
 27 56  1  0
 27 57  1  0
 29 58  1  0
 30 59  1  0
 31 60  1  0
 34 61  1  0
 37 62  1  0
 39 63  1  0
M  END
$$$$
[H]c1nc(N([H])c2c([H])c([H])c(F)c(Cl)c2[H])c2c([H])c(OC([H])([H])C([H])([H])N(C([H])([H])C([H])([H])OC([H])([H])[H])C([H])([H])C([H])([H])OC([H])([H])[H])c(OC([H])([H])[H])c([H])c2n1
     RDKit          3D

 61 63  0  0  0  0  0  0  0  0999 V2000
   -2.3373    3.4697    2.2840 C   0  0  0  0  0  0  0  0  0  0  0  0
   -3.3037    2.6285    1.7585 O   0  0  0  0  0  0  0  0  0  0  0  0
   -2.7332    1.4453    1.2085 C   0  0  0  0  0  0  0  0  0  0  0  0
   -3.8257    0.5855    0.6466 C   0  0  0  0  0  0  0  0  0  0  0  0
   -3.4442   -0.6168    0.0659 N   0  0  0  0  0  0  0  0  0  0  0  0
   -4.5453   -1.3923   -0.4784 C   0  0  0  0  0  0  0  0  0  0  0  0
   -5.4402   -1.9476    0.5731 C   0  0  0  0  0  0  0  0  0  0  0  0
   -6.5011   -2.6771    0.0734 O   0  0  0  0  0  0  0  0  0  0  0  0
   -6.1578   -3.7538   -0.7019 C   0  0  0  0  0  0  0  0  0  0  0  0
   -2.3468   -1.3734    0.4722 C   0  0  0  0  0  0  0  0  0  0  0  0
   -0.9599   -0.8952    0.1707 C   0  0  0  0  0  0  0  0  0  0  0  0
   -0.7475   -0.7571   -1.2405 O   0  0  0  0  0  0  0  0  0  0  0  0
    0.4753   -0.3581   -1.7172 C   0  0  0  0  0  0  0  0  0  0  0  0
    1.5185   -0.0857   -0.8248 C   0  0  0  0  0  0  0  0  0  0  0  0
    2.7358    0.3107   -1.3127 C   0  0  0  0  0  0  0  0  0  0  0  0
    3.8183    0.5878   -0.4618 C   0  0  0  0  0  0  0  0  0  0  0  0
    3.6687    0.4703    0.9234 N   0  0  0  0  0  0  0  0  0  0  0  0
    4.6048    0.6955    1.9346 C   0  0  0  0  0  0  0  0  0  0  0  0
    4.3026    0.3051    3.2624 C   0  0  0  0  0  0  0  0  0  0  0  0
    5.1659    0.4963    4.3052 C   0  0  0  0  0  0  0  0  0  0  0  0
    6.3885    1.0875    4.1033 C   0  0  0  0  0  0  0  0  0  0  0  0
    7.2059    1.2522    5.1651 F   0  0  0  0  0  0  0  0  0  0  0  0
    6.6909    1.4689    2.8278 C   0  0  0  0  0  0  0  0  0  0  0  0
    8.2394    2.2300    2.5085 Cl  0  0  0  0  0  0  0  0  0  0  0  0
    5.8207    1.2842    1.7381 C   0  0  0  0  0  0  0  0  0  0  0  0
    4.9333    0.9507   -1.0881 N   0  0  0  0  0  0  0  0  0  0  0  0
    5.0925    1.0652   -2.3901 C   0  0  0  0  0  0  0  0  0  0  0  0
    4.0765    0.8081   -3.2295 N   0  0  0  0  0  0  0  0  0  0  0  0
    2.9142    0.4355   -2.6847 C   0  0  0  0  0  0  0  0  0  0  0  0
    1.8599    0.1592   -3.5640 C   0  0  0  0  0  0  0  0  0  0  0  0
    0.6338   -0.2392   -3.0862 C   0  0  0  0  0  0  0  0  0  0  0  0
   -0.4556   -0.5285   -3.9225 O   0  0  0  0  0  0  0  0  0  0  0  0
   -0.2441   -0.3951   -5.3136 C   0  0  0  0  0  0  0  0  0  0  0  0
   -2.7818    4.3965    2.7153 H   0  0  0  0  0  0  0  0  0  0  0  0
   -1.7073    3.0095    3.0576 H   0  0  0  0  0  0  0  0  0  0  0  0
   -1.6619    3.8337    1.4624 H   0  0  0  0  0  0  0  0  0  0  0  0
   -2.2171    0.9863    2.0736 H   0  0  0  0  0  0  0  0  0  0  0  0
   -2.0096    1.8058    0.4826 H   0  0  0  0  0  0  0  0  0  0  0  0
   -4.5662    0.4761    1.4942 H   0  0  0  0  0  0  0  0  0  0  0  0
   -4.3127    1.2127   -0.1623 H   0  0  0  0  0  0  0  0  0  0  0  0
   -4.0693   -2.2368   -1.0269 H   0  0  0  0  0  0  0  0  0  0  0  0
   -5.0894   -0.7786   -1.2046 H   0  0  0  0  0  0  0  0  0  0  0  0
   -5.8903   -1.0784    1.1217 H   0  0  0  0  0  0  0  0  0  0  0  0
   -4.9176   -2.5829    1.3150 H   0  0  0  0  0  0  0  0  0  0  0  0
   -5.5817   -3.4352   -1.6024 H   0  0  0  0  0  0  0  0  0  0  0  0
   -5.5643   -4.4592   -0.0825 H   0  0  0  0  0  0  0  0  0  0  0  0
   -7.0665   -4.2606   -1.0521 H   0  0  0  0  0  0  0  0  0  0  0  0
   -2.3367   -1.5718    1.5987 H   0  0  0  0  0  0  0  0  0  0  0  0
   -2.3877   -2.4429    0.0704 H   0  0  0  0  0  0  0  0  0  0  0  0
   -0.2841   -1.7554    0.5134 H   0  0  0  0  0  0  0  0  0  0  0  0
   -0.6048   -0.0407    0.7483 H   0  0  0  0  0  0  0  0  0  0  0  0
    1.3094   -0.2056    0.2207 H   0  0  0  0  0  0  0  0  0  0  0  0
    2.7065    0.1742    1.2743 H   0  0  0  0  0  0  0  0  0  0  0  0
    3.3415   -0.1659    3.4458 H   0  0  0  0  0  0  0  0  0  0  0  0
    4.8569    0.1658    5.3074 H   0  0  0  0  0  0  0  0  0  0  0  0
    6.1447    1.6278    0.7671 H   0  0  0  0  0  0  0  0  0  0  0  0
    6.0677    1.3760   -2.8226 H   0  0  0  0  0  0  0  0  0  0  0  0
    1.9954    0.2555   -4.6417 H   0  0  0  0  0  0  0  0  0  0  0  0
    0.5333   -1.0995   -5.6937 H   0  0  0  0  0  0  0  0  0  0  0  0
   -1.1803   -0.5554   -5.8913 H   0  0  0  0  0  0  0  0  0  0  0  0
    0.1710    0.6326   -5.4941 H   0  0  0  0  0  0  0  0  0  0  0  0
  1  2  1  0
  2  3  1  0
  3  4  1  0
  4  5  1  0
  5  6  1  0
  6  7  1  0
  7  8  1  0
  8  9  1  0
  5 10  1  0
 10 11  1  0
 11 12  1  0
 12 13  1  0
 13 14  2  0
 14 15  1  0
 15 16  2  0
 16 17  1  0
 17 18  1  0
 18 19  2  0
 19 20  1  0
 20 21  2  0
 21 22  1  0
 21 23  1  0
 23 24  1  0
 23 25  2  0
 16 26  1  0
 26 27  2  0
 27 28  1  0
 28 29  2  0
 29 30  1  0
 30 31  2  0
 31 32  1  0
 32 33  1  0
 31 13  1  0
 29 15  1  0
 25 18  1  0
  1 34  1  0
  1 35  1  0
  1 36  1  0
  3 37  1  0
  3 38  1  0
  4 39  1  0
  4 40  1  0
  6 41  1  0
  6 42  1  0
  7 43  1  0
  7 44  1  0
  9 45  1  0
  9 46  1  0
  9 47  1  0
 10 48  1  0
 10 49  1  0
 11 50  1  0
 11 51  1  0
 14 52  1  0
 17 53  1  0
 19 54  1  0
 20 55  1  0
 25 56  1  0
 27 57  1  0
 30 58  1  0
 33 59  1  0
 33 60  1  0
 33 61  1  0
M  END
$$$$
[H]/C(=N\N1C([H])([H])C([H])([H])C([H])([H])[C@@]1([H])C([H])([H])OC([H])([H])[H])c1c(N([H])[H])nc([H])nc1N([H])c1c([H])c([H])c2c(c([H])nn2C([H])([H])c2c([H])c([H])c([H])c(F)c2[H])c1[H]
     RDKit          3D

 62 66  0  0  0  0  0  0  0  0999 V2000
   -6.2473    2.4586   -2.0099 C   0  0  0  0  0  0  0  0  0  0  0  0
   -4.9175    2.4000   -1.6627 O   0  0  0  0  0  0  0  0  0  0  0  0
   -4.5829    1.2463   -1.0131 C   0  0  0  0  0  0  0  0  0  0  0  0
   -5.3416    1.0700    0.2559 C   0  0  2  0  0  0  0  0  0  0  0  0
   -5.0251    2.1191    1.2927 C   0  0  0  0  0  0  0  0  0  0  0  0
   -5.4016    1.4245    2.5834 C   0  0  0  0  0  0  0  0  0  0  0  0
   -5.6287   -0.0202    2.2653 C   0  0  0  0  0  0  0  0  0  0  0  0
   -4.9857   -0.1522    0.9571 N   0  0  0  0  0  0  0  0  0  0  0  0
   -4.2296   -1.2344    0.5686 N   0  0  0  0  0  0  0  0  0  0  0  0
   -2.9063   -1.1947    0.5080 C   0  0  0  0  0  0  0  0  0  0  0  0
   -2.1574   -2.3544    0.0951 C   0  0  0  0  0  0  0  0  0  0  0  0
   -2.8339   -3.5304   -0.2449 C   0  0  0  0  0  0  0  0  0  0  0  0
   -4.2507   -3.5075   -0.1568 N   0  0  0  0  0  0  0  0  0  0  0  0
   -2.1412   -4.6080   -0.6311 N   0  0  0  0  0  0  0  0  0  0  0  0
   -0.7998   -4.6175   -0.7105 C   0  0  0  0  0  0  0  0  0  0  0  0
   -0.1552   -3.4918   -0.3849 N   0  0  0  0  0  0  0  0  0  0  0  0
   -0.7884   -2.3502    0.0186 C   0  0  0  0  0  0  0  0  0  0  0  0
   -0.0800   -1.1928    0.3921 N   0  0  0  0  0  0  0  0  0  0  0  0
    1.3398   -1.1409    0.2825 C   0  0  0  0  0  0  0  0  0  0  0  0
    2.0603   -0.3908    1.2368 C   0  0  0  0  0  0  0  0  0  0  0  0
    3.4192   -0.2507    1.1993 C   0  0  0  0  0  0  0  0  0  0  0  0
    4.1639   -0.8467    0.2086 C   0  0  0  0  0  0  0  0  0  0  0  0
    5.4744   -0.8866   -0.0786 N   0  0  0  0  0  0  0  0  0  0  0  0
    6.5250   -0.2354    0.6737 C   0  0  0  0  0  0  0  0  0  0  0  0
    6.8055    1.1372    0.1893 C   0  0  0  0  0  0  0  0  0  0  0  0
    7.7446    1.2981   -0.8012 C   0  0  0  0  0  0  0  0  0  0  0  0
    8.0404    2.5456   -1.2827 C   0  0  0  0  0  0  0  0  0  0  0  0
    7.4112    3.6687   -0.7934 C   0  0  0  0  0  0  0  0  0  0  0  0
    6.4698    3.5104    0.1991 C   0  0  0  0  0  0  0  0  0  0  0  0
    5.8290    4.5972    0.7055 F   0  0  0  0  0  0  0  0  0  0  0  0
    6.1757    2.2544    0.6801 C   0  0  0  0  0  0  0  0  0  0  0  0
    5.6757   -1.6236   -1.1765 N   0  0  0  0  0  0  0  0  0  0  0  0
    4.4478   -2.0591   -1.5893 C   0  0  0  0  0  0  0  0  0  0  0  0
    3.4870   -1.5839   -0.7359 C   0  0  0  0  0  0  0  0  0  0  0  0
    2.1003   -1.7255   -0.6965 C   0  0  0  0  0  0  0  0  0  0  0  0
   -6.5523    1.6164   -2.6841 H   0  0  0  0  0  0  0  0  0  0  0  0
   -6.9105    2.5737   -1.1455 H   0  0  0  0  0  0  0  0  0  0  0  0
   -6.4220    3.3724   -2.6471 H   0  0  0  0  0  0  0  0  0  0  0  0
   -3.4891    1.1802   -0.8680 H   0  0  0  0  0  0  0  0  0  0  0  0
   -4.8702    0.3805   -1.6784 H   0  0  0  0  0  0  0  0  0  0  0  0
   -6.4279    1.0673    0.0959 H   0  0  0  0  0  0  0  0  0  0  0  0
   -3.9224    2.2610    1.3141 H   0  0  0  0  0  0  0  0  0  0  0  0
   -5.5827    3.0500    1.1496 H   0  0  0  0  0  0  0  0  0  0  0  0
   -6.3104    1.8480    3.0350 H   0  0  0  0  0  0  0  0  0  0  0  0
   -4.5967    1.5181    3.3429 H   0  0  0  0  0  0  0  0  0  0  0  0
   -6.7146   -0.2811    2.1898 H   0  0  0  0  0  0  0  0  0  0  0  0
   -5.1592   -0.6875    3.0170 H   0  0  0  0  0  0  0  0  0  0  0  0
   -2.5089   -0.2573    0.7851 H   0  0  0  0  0  0  0  0  0  0  0  0
   -4.7790   -3.2181   -1.0039 H   0  0  0  0  0  0  0  0  0  0  0  0
   -4.8020   -3.7576    0.6878 H   0  0  0  0  0  0  0  0  0  0  0  0
   -0.2725   -5.5071   -1.0268 H   0  0  0  0  0  0  0  0  0  0  0  0
   -0.5915   -0.3291    0.7682 H   0  0  0  0  0  0  0  0  0  0  0  0
    1.4908    0.0738    2.0071 H   0  0  0  0  0  0  0  0  0  0  0  0
    3.9502    0.3398    1.9579 H   0  0  0  0  0  0  0  0  0  0  0  0
    7.4774   -0.8013    0.6200 H   0  0  0  0  0  0  0  0  0  0  0  0
    6.2190   -0.1279    1.7447 H   0  0  0  0  0  0  0  0  0  0  0  0
    8.2787    0.4478   -1.2311 H   0  0  0  0  0  0  0  0  0  0  0  0
    8.7943    2.6532   -2.0747 H   0  0  0  0  0  0  0  0  0  0  0  0
    7.6503    4.6695   -1.1815 H   0  0  0  0  0  0  0  0  0  0  0  0
    5.4300    2.1583    1.4628 H   0  0  0  0  0  0  0  0  0  0  0  0
    4.3196   -2.6795   -2.4615 H   0  0  0  0  0  0  0  0  0  0  0  0
    1.6046   -2.2963   -1.4780 H   0  0  0  0  0  0  0  0  0  0  0  0
  1  2  1  0
  2  3  1  0
  3  4  1  0
  4  5  1  0
  5  6  1  0
  6  7  1  0
  7  8  1  0
  8  9  1  0
  9 10  2  0
 10 11  1  0
 11 12  2  0
 12 13  1  0
 12 14  1  0
 14 15  2  0
 15 16  1  0
 16 17  2  0
 17 18  1  0
 18 19  1  0
 19 20  2  0
 20 21  1  0
 21 22  2  0
 22 23  1  0
 23 24  1  0
 24 25  1  0
 25 26  2  0
 26 27  1  0
 27 28  2  0
 28 29  1  0
 29 30  1  0
 29 31  2  0
 23 32  1  0
 32 33  2  0
 33 34  1  0
 34 35  2  0
  8  4  1  0
 17 11  1  0
 35 19  1  0
 34 22  1  0
 31 25  1  0
  1 36  1  0
  1 37  1  0
  1 38  1  0
  3 39  1  0
  3 40  1  0
  4 41  1  6
  5 42  1  0
  5 43  1  0
  6 44  1  0
  6 45  1  0
  7 46  1  0
  7 47  1  0
 10 48  1  0
 13 49  1  0
 13 50  1  0
 15 51  1  0
 18 52  1  0
 20 53  1  0
 21 54  1  0
 24 55  1  0
 24 56  1  0
 26 57  1  0
 27 58  1  0
 28 59  1  0
 31 60  1  0
 33 61  1  0
 35 62  1  0
M  END
$$$$
[H]C([H])=C([H])C(=O)N([H])c1c([H])c([H])c([H])c(N2C(=O)N(C([H])([H])[H])C([H])([H])c3c([H])nc(N([H])c4c([H])c([H])c(N5C([H])([H])C([H])([H])C([H])([H])C([H])([H])C5([H])[H])c([H])c4OC([H])([H])[H])nc32)c1[H]
     RDKit          3D

 69 73  0  0  0  0  0  0  0  0999 V2000
   -2.3472    3.5996   -0.5498 C   0  0  0  0  0  0  0  0  0  0  0  0
   -1.7837    2.3638   -0.2135 O   0  0  0  0  0  0  0  0  0  0  0  0
   -2.5112    1.2087   -0.0142 C   0  0  0  0  0  0  0  0  0  0  0  0
   -3.8734    1.2366   -0.1444 C   0  0  0  0  0  0  0  0  0  0  0  0
   -4.7003    0.1259    0.0357 C   0  0  0  0  0  0  0  0  0  0  0  0
   -4.0643   -1.0408    0.3611 C   0  0  0  0  0  0  0  0  0  0  0  0
   -2.6647   -1.0962    0.5014 C   0  0  0  0  0  0  0  0  0  0  0  0
   -1.8680    0.0033    0.3214 C   0  0  0  0  0  0  0  0  0  0  0  0
   -0.4751    0.0734    0.4235 N   0  0  0  0  0  0  0  0  0  0  0  0
    0.3797   -0.9976    0.7968 C   0  0  0  0  0  0  0  0  0  0  0  0
    0.0141   -2.2268    1.1129 N   0  0  0  0  0  0  0  0  0  0  0  0
    0.7865   -3.2510    1.4680 C   0  0  0  0  0  0  0  0  0  0  0  0
    2.1660   -2.9852    1.5096 C   0  0  0  0  0  0  0  0  0  0  0  0
    3.0837   -4.0528    1.8837 C   0  0  0  0  0  0  0  0  0  0  0  0
    4.4726   -3.6843    1.9227 N   0  0  0  0  0  0  0  0  0  0  0  0
    5.4362   -4.6837    2.3202 C   0  0  0  0  0  0  0  0  0  0  0  0
    4.9180   -2.3564    1.5823 C   0  0  0  0  0  0  0  0  0  0  0  0
    6.1586   -2.1584    1.6387 O   0  0  0  0  0  0  0  0  0  0  0  0
    3.9820   -1.3640    1.2128 N   0  0  0  0  0  0  0  0  0  0  0  0
    4.4768   -0.0698    0.8816 C   0  0  0  0  0  0  0  0  0  0  0  0
    4.3918    0.9065    1.8674 C   0  0  0  0  0  0  0  0  0  0  0  0
    4.8473    2.1730    1.6265 C   0  0  0  0  0  0  0  0  0  0  0  0
    5.4054    2.5165    0.3932 C   0  0  0  0  0  0  0  0  0  0  0  0
    5.4807    1.5455   -0.5642 C   0  0  0  0  0  0  0  0  0  0  0  0
    6.0126    1.7991   -1.8585 N   0  0  0  0  0  0  0  0  0  0  0  0
    6.2437    3.0356   -2.4692 C   0  0  0  0  0  0  0  0  0  0  0  0
    5.9804    4.1148   -1.8948 O   0  0  0  0  0  0  0  0  0  0  0  0
    6.8116    3.1470   -3.8256 C   0  0  0  0  0  0  0  0  0  0  0  0
    7.1320    2.1085   -4.5416 C   0  0  0  0  0  0  0  0  0  0  0  0
    5.0129    0.2430   -0.3178 C   0  0  0  0  0  0  0  0  0  0  0  0
    2.5970   -1.7201    1.1886 C   0  0  0  0  0  0  0  0  0  0  0  0
    1.7386   -0.7499    0.8419 N   0  0  0  0  0  0  0  0  0  0  0  0
   -6.1035    0.2143   -0.0952 N   0  0  0  0  0  0  0  0  0  0  0  0
   -6.8942   -0.9670   -0.3103 C   0  0  0  0  0  0  0  0  0  0  0  0
   -8.2968   -0.8252    0.2501 C   0  0  0  0  0  0  0  0  0  0  0  0
   -9.0482    0.3523   -0.2662 C   0  0  0  0  0  0  0  0  0  0  0  0
   -8.1444    1.4237   -0.7754 C   0  0  0  0  0  0  0  0  0  0  0  0
   -6.8126    1.4652   -0.0059 C   0  0  0  0  0  0  0  0  0  0  0  0
   -2.8468    4.1102    0.3251 H   0  0  0  0  0  0  0  0  0  0  0  0
   -3.1267    3.5116   -1.3614 H   0  0  0  0  0  0  0  0  0  0  0  0
   -1.5675    4.3182   -0.8787 H   0  0  0  0  0  0  0  0  0  0  0  0
   -4.3575    2.1812   -0.4078 H   0  0  0  0  0  0  0  0  0  0  0  0
   -4.6206   -1.9674    0.5271 H   0  0  0  0  0  0  0  0  0  0  0  0
   -2.2258   -2.0435    0.7564 H   0  0  0  0  0  0  0  0  0  0  0  0
    0.0257    1.0205    0.2017 H   0  0  0  0  0  0  0  0  0  0  0  0
    0.4333   -4.2332    1.7144 H   0  0  0  0  0  0  0  0  0  0  0  0
    2.7362   -4.4563    2.8793 H   0  0  0  0  0  0  0  0  0  0  0  0
    3.0040   -4.9005    1.1497 H   0  0  0  0  0  0  0  0  0  0  0  0
    5.0079   -5.3502    3.0803 H   0  0  0  0  0  0  0  0  0  0  0  0
    5.6749   -5.2785    1.4033 H   0  0  0  0  0  0  0  0  0  0  0  0
    6.3456   -4.2282    2.7720 H   0  0  0  0  0  0  0  0  0  0  0  0
    3.9617    0.6781    2.8461 H   0  0  0  0  0  0  0  0  0  0  0  0
    4.7896    2.9602    2.3929 H   0  0  0  0  0  0  0  0  0  0  0  0
    5.7605    3.5393    0.2738 H   0  0  0  0  0  0  0  0  0  0  0  0
    6.2746    0.9473   -2.4409 H   0  0  0  0  0  0  0  0  0  0  0  0
    6.9660    4.1526   -4.2369 H   0  0  0  0  0  0  0  0  0  0  0  0
    7.0150    1.1081   -4.2190 H   0  0  0  0  0  0  0  0  0  0  0  0
    7.5436    2.2569   -5.5295 H   0  0  0  0  0  0  0  0  0  0  0  0
    5.0719   -0.5321   -1.0777 H   0  0  0  0  0  0  0  0  0  0  0  0
   -6.4974   -1.8953    0.1042 H   0  0  0  0  0  0  0  0  0  0  0  0
   -6.9977   -1.1629   -1.4190 H   0  0  0  0  0  0  0  0  0  0  0  0
   -8.8399   -1.7599   -0.0725 H   0  0  0  0  0  0  0  0  0  0  0  0
   -8.2829   -0.8647    1.3573 H   0  0  0  0  0  0  0  0  0  0  0  0
   -9.7294    0.7320    0.5503 H   0  0  0  0  0  0  0  0  0  0  0  0
   -9.7377    0.0859   -1.1069 H   0  0  0  0  0  0  0  0  0  0  0  0
   -7.8606    1.1757   -1.8372 H   0  0  0  0  0  0  0  0  0  0  0  0
   -8.5533    2.4455   -0.7292 H   0  0  0  0  0  0  0  0  0  0  0  0
   -6.2971    2.3435   -0.4046 H   0  0  0  0  0  0  0  0  0  0  0  0
   -7.0101    1.6791    1.0744 H   0  0  0  0  0  0  0  0  0  0  0  0
  1  2  1  0
  2  3  1  0
  3  4  2  0
  4  5  1  0
  5  6  2  0
  6  7  1  0
  7  8  2  0
  8  9  1  0
  9 10  1  0
 10 11  2  0
 11 12  1  0
 12 13  2  0
 13 14  1  0
 14 15  1  0
 15 16  1  0
 15 17  1  0
 17 18  2  0
 17 19  1  0
 19 20  1  0
 20 21  2  0
 21 22  1  0
 22 23  2  0
 23 24  1  0
 24 25  1  0
 25 26  1  0
 26 27  2  0
 26 28  1  0
 28 29  2  3
 24 30  2  0
 19 31  1  0
 31 32  2  0
  5 33  1  0
 33 34  1  0
 34 35  1  0
 35 36  1  0
 36 37  1  0
 37 38  1  0
  8  3  1  0
 32 10  1  0
 38 33  1  0
 31 13  1  0
 30 20  1  0
  1 39  1  0
  1 40  1  0
  1 41  1  0
  4 42  1  0
  6 43  1  0
  7 44  1  0
  9 45  1  0
 12 46  1  0
 14 47  1  0
 14 48  1  0
 16 49  1  0
 16 50  1  0
 16 51  1  0
 21 52  1  0
 22 53  1  0
 23 54  1  0
 25 55  1  0
 28 56  1  0
 29 57  1  0
 29 58  1  0
 30 59  1  0
 34 60  1  0
 34 61  1  0
 35 62  1  0
 35 63  1  0
 36 64  1  0
 36 65  1  0
 37 66  1  0
 37 67  1  0
 38 68  1  0
 38 69  1  0
M  END
$$$$
[H]c1nc(N([H])c2c([H])c([H])c(OC([H])([H])c3nc([H])c([H])c([H])c3[H])c(Cl)c2[H])c2sc(C#C[C@@]3([H])N([H])C([H])([H])[C@]([H])(OC(=O)N4C([H])([H])C([H])([H])OC([H])([H])C4([H])[H])C3([H])[H])c([H])c2n1
     RDKit          3D

 68 73  0  0  0  0  0  0  0  0999 V2000
    8.5765    2.1897   -2.9342 Cl  0  0  0  0  0  0  0  0  0  0  0  0
    7.5549    1.0724   -2.0578 C   0  0  0  0  0  0  0  0  0  0  0  0
    6.1722    1.3070   -2.0086 C   0  0  0  0  0  0  0  0  0  0  0  0
    5.3392    0.4780   -1.3459 C   0  0  0  0  0  0  0  0  0  0  0  0
    3.9664    0.6703   -1.2358 N   0  0  0  0  0  0  0  0  0  0  0  0
    3.2126    1.8532   -1.3862 C   0  0  0  0  0  0  0  0  0  0  0  0
    3.7687    3.0502   -1.6394 N   0  0  0  0  0  0  0  0  0  0  0  0
    2.9464    4.1050   -1.7414 C   0  0  0  0  0  0  0  0  0  0  0  0
    1.6371    4.0077   -1.6041 N   0  0  0  0  0  0  0  0  0  0  0  0
    0.9948    2.8246   -1.3453 C   0  0  0  0  0  0  0  0  0  0  0  0
   -0.3183    2.6182   -1.1888 C   0  0  0  0  0  0  0  0  0  0  0  0
   -0.7360    1.3403   -0.9344 C   0  0  0  0  0  0  0  0  0  0  0  0
    0.7285    0.4646   -0.9221 S   0  0  0  0  0  0  0  0  0  0  0  0
    1.8186    1.7410   -1.2385 C   0  0  0  0  0  0  0  0  0  0  0  0
   -2.1026    0.8724   -0.7286 C   0  0  0  0  0  0  0  0  0  0  0  0
   -3.2229    0.4745   -0.5418 C   0  0  0  0  0  0  0  0  0  0  0  0
   -4.5851    0.0018   -0.2918 C   0  0  2  0  0  0  0  0  0  0  0  0
   -4.6370   -0.4194    1.1613 C   0  0  0  0  0  0  0  0  0  0  0  0
   -5.6457   -1.5745    1.0619 C   0  0  2  0  0  0  0  0  0  0  0  0
   -5.0784   -2.2819   -0.1579 C   0  0  0  0  0  0  0  0  0  0  0  0
   -4.9242   -1.1651   -1.0718 N   0  0  0  0  0  0  0  0  0  0  0  0
   -6.9146   -1.0916    0.6727 O   0  0  0  0  0  0  0  0  0  0  0  0
   -8.0746   -1.3697    1.3798 C   0  0  0  0  0  0  0  0  0  0  0  0
   -7.9361   -2.0865    2.4032 O   0  0  0  0  0  0  0  0  0  0  0  0
   -9.3297   -0.8647    0.9546 N   0  0  0  0  0  0  0  0  0  0  0  0
   -9.3960   -0.0485   -0.2352 C   0  0  0  0  0  0  0  0  0  0  0  0
  -10.1861    1.2247    0.0164 C   0  0  0  0  0  0  0  0  0  0  0  0
  -11.4172    0.8203    0.5464 O   0  0  0  0  0  0  0  0  0  0  0  0
  -11.2752    0.2252    1.7787 C   0  0  0  0  0  0  0  0  0  0  0  0
  -10.5650   -1.1296    1.6641 C   0  0  0  0  0  0  0  0  0  0  0  0
    5.8938   -0.6429   -0.6974 C   0  0  0  0  0  0  0  0  0  0  0  0
    7.2522   -0.8941   -0.7330 C   0  0  0  0  0  0  0  0  0  0  0  0
    8.0873   -0.0359   -1.4137 C   0  0  0  0  0  0  0  0  0  0  0  0
    9.4435   -0.2337   -1.4844 O   0  0  0  0  0  0  0  0  0  0  0  0
   10.1870   -1.2606   -0.9131 C   0  0  0  0  0  0  0  0  0  0  0  0
   10.1133   -1.2962    0.5749 C   0  0  0  0  0  0  0  0  0  0  0  0
    9.7990   -0.1909    1.3245 C   0  0  0  0  0  0  0  0  0  0  0  0
    9.7436   -0.2698    2.6819 C   0  0  0  0  0  0  0  0  0  0  0  0
   10.0010   -1.4555    3.3260 C   0  0  0  0  0  0  0  0  0  0  0  0
   10.3121   -2.5337    2.5147 C   0  0  0  0  0  0  0  0  0  0  0  0
   10.3683   -2.4631    1.1791 N   0  0  0  0  0  0  0  0  0  0  0  0
    5.8191    2.1722   -2.5394 H   0  0  0  0  0  0  0  0  0  0  0  0
    3.3871   -0.2116   -1.0088 H   0  0  0  0  0  0  0  0  0  0  0  0
    3.3887    5.0928   -1.9489 H   0  0  0  0  0  0  0  0  0  0  0  0
   -1.0898    3.4186   -1.2525 H   0  0  0  0  0  0  0  0  0  0  0  0
   -5.3237    0.8221   -0.4117 H   0  0  0  0  0  0  0  0  0  0  0  0
   -3.6804   -0.9023    1.4598 H   0  0  0  0  0  0  0  0  0  0  0  0
   -4.9706    0.3707    1.8293 H   0  0  0  0  0  0  0  0  0  0  0  0
   -5.6512   -2.1831    1.9600 H   0  0  0  0  0  0  0  0  0  0  0  0
   -4.0993   -2.7453    0.0817 H   0  0  0  0  0  0  0  0  0  0  0  0
   -5.8024   -2.9906   -0.5903 H   0  0  0  0  0  0  0  0  0  0  0  0
   -4.2054   -1.3427   -1.8019 H   0  0  0  0  0  0  0  0  0  0  0  0
   -9.8917   -0.6249   -1.0446 H   0  0  0  0  0  0  0  0  0  0  0  0
   -8.3727    0.1897   -0.6082 H   0  0  0  0  0  0  0  0  0  0  0  0
  -10.3449    1.7113   -0.9502 H   0  0  0  0  0  0  0  0  0  0  0  0
   -9.6056    1.8440    0.7296 H   0  0  0  0  0  0  0  0  0  0  0  0
  -10.6622    0.8964    2.4284 H   0  0  0  0  0  0  0  0  0  0  0  0
  -12.3037    0.1018    2.2031 H   0  0  0  0  0  0  0  0  0  0  0  0
  -10.4070   -1.5383    2.6702 H   0  0  0  0  0  0  0  0  0  0  0  0
  -11.1863   -1.7672    1.0072 H   0  0  0  0  0  0  0  0  0  0  0  0
    5.2222   -1.3008   -0.1691 H   0  0  0  0  0  0  0  0  0  0  0  0
    7.6204   -1.7841   -0.2174 H   0  0  0  0  0  0  0  0  0  0  0  0
    9.7463   -2.2320   -1.2583 H   0  0  0  0  0  0  0  0  0  0  0  0
   11.2418   -1.2532   -1.2241 H   0  0  0  0  0  0  0  0  0  0  0  0
    9.5979    0.7326    0.8312 H   0  0  0  0  0  0  0  0  0  0  0  0
    9.4980    0.5889    3.2908 H   0  0  0  0  0  0  0  0  0  0  0  0
    9.9783   -1.6006    4.3902 H   0  0  0  0  0  0  0  0  0  0  0  0
   10.5245   -3.4974    2.9790 H   0  0  0  0  0  0  0  0  0  0  0  0
  1  2  1  0
  2  3  2  0
  3  4  1  0
  4  5  1  0
  5  6  1  0
  6  7  2  0
  7  8  1  0
  8  9  2  0
  9 10  1  0
 10 11  1  0
 11 12  2  0
 12 13  1  0
 13 14  1  0
 12 15  1  0
 15 16  3  0
 16 17  1  0
 17 18  1  0
 18 19  1  0
 19 20  1  0
 20 21  1  0
 19 22  1  0
 22 23  1  0
 23 24  2  0
 23 25  1  0
 25 26  1  0
 26 27  1  0
 27 28  1  0
 28 29  1  0
 29 30  1  0
  4 31  2  0
 31 32  1  0
 32 33  2  0
 33 34  1  0
 34 35  1  0
 35 36  1  0
 36 37  2  0
 37 38  1  0
 38 39  2  0
 39 40  1  0
 40 41  2  0
 33  2  1  0
 41 36  1  0
 14  6  1  0
 21 17  1  0
 30 25  1  0
 14 10  2  0
  3 42  1  0
  5 43  1  0
  8 44  1  0
 11 45  1  0
 17 46  1  1
 18 47  1  0
 18 48  1  0
 19 49  1  1
 20 50  1  0
 20 51  1  0
 21 52  1  0
 26 53  1  0
 26 54  1  0
 27 55  1  0
 27 56  1  0
 29 57  1  0
 29 58  1  0
 30 59  1  0
 30 60  1  0
 31 61  1  0
 32 62  1  0
 35 63  1  0
 35 64  1  0
 37 65  1  0
 38 66  1  0
 39 67  1  0
 40 68  1  0
M  END
$$$$
[H]C([H])=C([H])C(=O)N([H])c1c(OC([H])([H])C([H])([H])N([H])C(=O)C([H])([H])N(C([H])([H])[H])C([H])([H])[H])c([H])c2nc([H])nc(N([H])c3c([H])c([H])c(Br)c(Cl)c3F)c2c1[H]
     RDKit          3D

 58 60  0  0  0  0  0  0  0  0999 V2000
   -7.6853    1.2923   -0.9488 C   0  0  0  0  0  0  0  0  0  0  0  0
   -6.4383    2.0327   -0.9592 N   0  0  0  0  0  0  0  0  0  0  0  0
   -6.6435    3.4272   -0.6080 C   0  0  0  0  0  0  0  0  0  0  0  0
   -5.4175    1.4092   -0.1786 C   0  0  0  0  0  0  0  0  0  0  0  0
   -5.0071    0.1389   -0.8305 C   0  0  0  0  0  0  0  0  0  0  0  0
   -5.5792   -0.1861   -1.9057 O   0  0  0  0  0  0  0  0  0  0  0  0
   -4.0109   -0.7041   -0.2906 N   0  0  0  0  0  0  0  0  0  0  0  0
   -3.6538   -1.9146   -0.9576 C   0  0  0  0  0  0  0  0  0  0  0  0
   -2.5457   -2.6133   -0.1531 C   0  0  0  0  0  0  0  0  0  0  0  0
   -1.4311   -1.9840    0.0215 O   0  0  0  0  0  0  0  0  0  0  0  0
   -0.4144   -1.2338    0.2751 C   0  0  0  0  0  0  0  0  0  0  0  0
   -0.4656   -0.0189    0.9297 C   0  0  0  0  0  0  0  0  0  0  0  0
    0.5979    0.7845    1.2034 C   0  0  0  0  0  0  0  0  0  0  0  0
    0.4345    1.9724    1.8573 N   0  0  0  0  0  0  0  0  0  0  0  0
    1.4905    2.7573    2.1201 C   0  0  0  0  0  0  0  0  0  0  0  0
    2.6995    2.3589    1.7330 N   0  0  0  0  0  0  0  0  0  0  0  0
    2.9290    1.1963    1.0829 C   0  0  0  0  0  0  0  0  0  0  0  0
    4.2157    0.7952    0.6870 N   0  0  0  0  0  0  0  0  0  0  0  0
    5.4511    1.4538    0.8532 C   0  0  0  0  0  0  0  0  0  0  0  0
    5.5842    2.6573    1.4551 C   0  0  0  0  0  0  0  0  0  0  0  0
    6.8553    3.2514    1.5806 C   0  0  0  0  0  0  0  0  0  0  0  0
    7.9801    2.6391    1.1047 C   0  0  0  0  0  0  0  0  0  0  0  0
    9.7167    3.4002    1.2500 Br  0  0  0  0  0  0  0  0  0  0  0  0
    7.8555    1.4253    0.4961 C   0  0  0  0  0  0  0  0  0  0  0  0
    9.2874    0.6035   -0.1334 Cl  0  0  0  0  0  0  0  0  0  0  0  0
    6.6174    0.8474    0.3744 C   0  0  0  0  0  0  0  0  0  0  0  0
    6.5575   -0.3728   -0.2457 F   0  0  0  0  0  0  0  0  0  0  0  0
    1.8407    0.3634    0.7993 C   0  0  0  0  0  0  0  0  0  0  0  0
    1.9798   -0.8428    0.1371 C   0  0  0  0  0  0  0  0  0  0  0  0
    0.8807   -1.6477   -0.1326 C   0  0  0  0  0  0  0  0  0  0  0  0
    0.9563   -2.8869   -0.7976 N   0  0  0  0  0  0  0  0  0  0  0  0
    2.0695   -3.5326   -1.3001 C   0  0  0  0  0  0  0  0  0  0  0  0
    3.2224   -3.1073   -1.2443 O   0  0  0  0  0  0  0  0  0  0  0  0
    1.9044   -4.8438   -1.9663 C   0  0  0  0  0  0  0  0  0  0  0  0
    2.9269   -5.4976   -2.4598 C   0  0  0  0  0  0  0  0  0  0  0  0
   -7.6067    0.3421   -0.3671 H   0  0  0  0  0  0  0  0  0  0  0  0
   -7.9077    1.0005   -1.9957 H   0  0  0  0  0  0  0  0  0  0  0  0
   -8.5391    1.8808   -0.5746 H   0  0  0  0  0  0  0  0  0  0  0  0
   -7.6168    3.5808   -0.1034 H   0  0  0  0  0  0  0  0  0  0  0  0
   -5.8437    3.8193    0.0382 H   0  0  0  0  0  0  0  0  0  0  0  0
   -6.6491    4.0144   -1.5473 H   0  0  0  0  0  0  0  0  0  0  0  0
   -4.5434    2.1020   -0.0552 H   0  0  0  0  0  0  0  0  0  0  0  0
   -5.7279    1.1474    0.8556 H   0  0  0  0  0  0  0  0  0  0  0  0
   -3.5593   -0.4221    0.5960 H   0  0  0  0  0  0  0  0  0  0  0  0
   -3.3063   -1.6980   -2.0013 H   0  0  0  0  0  0  0  0  0  0  0  0
   -4.5175   -2.6188   -1.0702 H   0  0  0  0  0  0  0  0  0  0  0  0
   -3.0687   -2.9262    0.8018 H   0  0  0  0  0  0  0  0  0  0  0  0
   -2.3810   -3.5841   -0.7411 H   0  0  0  0  0  0  0  0  0  0  0  0
   -1.4404    0.3341    1.2630 H   0  0  0  0  0  0  0  0  0  0  0  0
    1.3258    3.6922    2.6414 H   0  0  0  0  0  0  0  0  0  0  0  0
    4.3117   -0.1409    0.1839 H   0  0  0  0  0  0  0  0  0  0  0  0
    4.7816    3.2461    1.8717 H   0  0  0  0  0  0  0  0  0  0  0  0
    6.9606    4.2237    2.0679 H   0  0  0  0  0  0  0  0  0  0  0  0
    2.9414   -1.1730   -0.1777 H   0  0  0  0  0  0  0  0  0  0  0  0
    0.0338   -3.4300   -0.9502 H   0  0  0  0  0  0  0  0  0  0  0  0
    0.9003   -5.2786   -2.0473 H   0  0  0  0  0  0  0  0  0  0  0  0
    3.9132   -5.0897   -2.3890 H   0  0  0  0  0  0  0  0  0  0  0  0
    2.7786   -6.4421   -2.9349 H   0  0  0  0  0  0  0  0  0  0  0  0
  1  2  1  0
  2  3  1  0
  2  4  1  0
  4  5  1  0
  5  6  2  0
  5  7  1  0
  7  8  1  0
  8  9  1  0
  9 10  1  0
 10 11  1  0
 11 12  2  0
 12 13  1  0
 13 14  2  0
 14 15  1  0
 15 16  2  0
 16 17  1  0
 17 18  1  0
 18 19  1  0
 19 20  2  0
 20 21  1  0
 21 22  2  0
 22 23  1  0
 22 24  1  0
 24 25  1  0
 24 26  2  0
 26 27  1  0
 17 28  2  0
 28 29  1  0
 29 30  2  0
 30 31  1  0
 31 32  1  0
 32 33  2  0
 32 34  1  0
 34 35  2  3
 30 11  1  0
 28 13  1  0
 26 19  1  0
  1 36  1  0
  1 37  1  0
  1 38  1  0
  3 39  1  0
  3 40  1  0
  3 41  1  0
  4 42  1  0
  4 43  1  0
  7 44  1  0
  8 45  1  0
  8 46  1  0
  9 47  1  0
  9 48  1  0
 12 49  1  0
 15 50  1  0
 18 51  1  0
 20 52  1  0
 21 53  1  0
 29 54  1  0
 31 55  1  0
 34 56  1  0
 35 57  1  0
 35 58  1  0
M  END
$$$$
[H]c1nc(N([H])c2c([H])c([H])c([H])c([H])c2[H])c([H])c(-c2c(-c3c([H])c([H])c(F)c([H])c3[H])nc(SC([H])([H])C([H])([H])C([H])([H])N([H])[H])n2[H])c1[H]
     RDKit          3D

 52 55  0  0  0  0  0  0  0  0999 V2000
   -5.3740    2.7043    0.6175 N   0  0  0  0  0  0  0  0  0  0  0  0
   -6.4849    1.8951    0.1998 C   0  0  0  0  0  0  0  0  0  0  0  0
   -6.1078    0.7822   -0.7106 C   0  0  0  0  0  0  0  0  0  0  0  0
   -5.4909    1.3198   -1.9715 C   0  0  0  0  0  0  0  0  0  0  0  0
   -3.9963    2.2404   -1.5562 S   0  0  0  0  0  0  0  0  0  0  0  0
   -2.7813    1.1048   -0.9203 C   0  0  0  0  0  0  0  0  0  0  0  0
   -2.8238   -0.2009   -0.7228 N   0  0  0  0  0  0  0  0  0  0  0  0
   -1.6613   -0.6637   -0.2199 C   0  0  0  0  0  0  0  0  0  0  0  0
   -0.8586    0.4258   -0.1023 C   0  0  0  0  0  0  0  0  0  0  0  0
   -1.5428    1.5330   -0.5346 N   0  0  0  0  0  0  0  0  0  0  0  0
    0.5014    0.4363    0.3949 C   0  0  0  0  0  0  0  0  0  0  0  0
    0.8201    0.3440    1.7326 C   0  0  0  0  0  0  0  0  0  0  0  0
    2.1245    0.3560    2.1840 C   0  0  0  0  0  0  0  0  0  0  0  0
    3.0895    0.4604    1.2833 N   0  0  0  0  0  0  0  0  0  0  0  0
    2.9042    0.5561   -0.0365 C   0  0  0  0  0  0  0  0  0  0  0  0
    3.9440    0.6649   -0.9572 N   0  0  0  0  0  0  0  0  0  0  0  0
    5.3150    0.6643   -0.7303 C   0  0  0  0  0  0  0  0  0  0  0  0
    5.9337    0.2037    0.4000 C   0  0  0  0  0  0  0  0  0  0  0  0
    7.3290    0.2566    0.5814 C   0  0  0  0  0  0  0  0  0  0  0  0
    8.0993    0.7849   -0.4036 C   0  0  0  0  0  0  0  0  0  0  0  0
    7.5353    1.2649   -1.5678 C   0  0  0  0  0  0  0  0  0  0  0  0
    6.1809    1.2008   -1.7147 C   0  0  0  0  0  0  0  0  0  0  0  0
    1.5626    0.5417   -0.4754 C   0  0  0  0  0  0  0  0  0  0  0  0
   -1.3754   -2.0446    0.1038 C   0  0  0  0  0  0  0  0  0  0  0  0
   -1.2339   -2.9880   -0.9379 C   0  0  0  0  0  0  0  0  0  0  0  0
   -0.9679   -4.3032   -0.6745 C   0  0  0  0  0  0  0  0  0  0  0  0
   -0.8332   -4.7264    0.6251 C   0  0  0  0  0  0  0  0  0  0  0  0
   -0.5692   -6.0316    0.8902 F   0  0  0  0  0  0  0  0  0  0  0  0
   -0.9674   -3.8194    1.6793 C   0  0  0  0  0  0  0  0  0  0  0  0
   -1.2358   -2.4986    1.3918 C   0  0  0  0  0  0  0  0  0  0  0  0
   -5.3392    2.7462    1.6565 H   0  0  0  0  0  0  0  0  0  0  0  0
   -5.5038    3.6759    0.2035 H   0  0  0  0  0  0  0  0  0  0  0  0
   -6.9769    1.4415    1.1096 H   0  0  0  0  0  0  0  0  0  0  0  0
   -7.3031    2.5391   -0.2366 H   0  0  0  0  0  0  0  0  0  0  0  0
   -6.9858    0.1166   -0.9448 H   0  0  0  0  0  0  0  0  0  0  0  0
   -5.3458    0.0930   -0.2560 H   0  0  0  0  0  0  0  0  0  0  0  0
   -5.2573    0.4470   -2.6570 H   0  0  0  0  0  0  0  0  0  0  0  0
   -6.2351    1.9663   -2.5130 H   0  0  0  0  0  0  0  0  0  0  0  0
   -1.1682    2.5039   -0.5543 H   0  0  0  0  0  0  0  0  0  0  0  0
   -0.0018    0.2605    2.4309 H   0  0  0  0  0  0  0  0  0  0  0  0
    2.2651    0.2791    3.2501 H   0  0  0  0  0  0  0  0  0  0  0  0
    3.6403    0.7600   -1.9868 H   0  0  0  0  0  0  0  0  0  0  0  0
    5.3585   -0.2358    1.1937 H   0  0  0  0  0  0  0  0  0  0  0  0
    7.7565   -0.1211    1.4948 H   0  0  0  0  0  0  0  0  0  0  0  0
    9.1779    0.8302   -0.2752 H   0  0  0  0  0  0  0  0  0  0  0  0
    8.1918    1.6811   -2.3332 H   0  0  0  0  0  0  0  0  0  0  0  0
    5.7307    1.5771   -2.6287 H   0  0  0  0  0  0  0  0  0  0  0  0
    1.3698    0.6171   -1.5418 H   0  0  0  0  0  0  0  0  0  0  0  0
   -1.3364   -2.6730   -1.9784 H   0  0  0  0  0  0  0  0  0  0  0  0
   -0.8721   -4.9831   -1.5260 H   0  0  0  0  0  0  0  0  0  0  0  0
   -0.8570   -4.1656    2.7175 H   0  0  0  0  0  0  0  0  0  0  0  0
   -1.3430   -1.8195    2.2322 H   0  0  0  0  0  0  0  0  0  0  0  0
  1  2  1  0
  2  3  1  0
  3  4  1  0
  4  5  1  0
  5  6  1  0
  6  7  2  0
  7  8  1  0
  8  9  2  0
  9 10  1  0
  9 11  1  0
 11 12  2  0
 12 13  1  0
 13 14  2  0
 14 15  1  0
 15 16  1  0
 16 17  1  0
 17 18  2  0
 18 19  1  0
 19 20  2  0
 20 21  1  0
 21 22  2  0
 15 23  2  0
  8 24  1  0
 24 25  2  0
 25 26  1  0
 26 27  2  0
 27 28  1  0
 27 29  1  0
 29 30  2  0
 10  6  1  0
 23 11  1  0
 30 24  1  0
 22 17  1  0
  1 31  1  0
  1 32  1  0
  2 33  1  0
  2 34  1  0
  3 35  1  0
  3 36  1  0
  4 37  1  0
  4 38  1  0
 10 39  1  0
 12 40  1  0
 13 41  1  0
 16 42  1  0
 18 43  1  0
 19 44  1  0
 20 45  1  0
 21 46  1  0
 22 47  1  0
 23 48  1  0
 25 49  1  0
 26 50  1  0
 29 51  1  0
 30 52  1  0
M  END
$$$$
[H]/C(C(=O)N([H])c1sc2nc([H])nc(N([H])c3c([H])c([H])c(F)c(Cl)c3[H])c2c1[H])=C(/[H])C([H])([H])N1C([H])([H])C2([H])C([H])([H])C(=O)C1([H])C([H])([H])C2([H])[H]
     RDKit          3D

 54 58  0  0  0  0  0  0  0  0999 V2000
   10.4500    2.2408   -0.6241 F   0  0  0  0  0  0  0  0  0  0  0  0
    9.2627    1.6397   -0.4071 C   0  0  0  0  0  0  0  0  0  0  0  0
    9.1392    0.4315    0.2432 C   0  0  0  0  0  0  0  0  0  0  0  0
    7.9082   -0.1452    0.4423 C   0  0  0  0  0  0  0  0  0  0  0  0
    6.7702    0.4734   -0.0054 C   0  0  0  0  0  0  0  0  0  0  0  0
    5.4641   -0.0263    0.1126 N   0  0  0  0  0  0  0  0  0  0  0  0
    5.0303   -1.3486    0.3173 C   0  0  0  0  0  0  0  0  0  0  0  0
    5.9147   -2.3361    0.3827 N   0  0  0  0  0  0  0  0  0  0  0  0
    5.6863   -3.6267    0.5498 C   0  0  0  0  0  0  0  0  0  0  0  0
    4.3690   -3.9736    0.6687 N   0  0  0  0  0  0  0  0  0  0  0  0
    3.3962   -3.0108    0.6115 C   0  0  0  0  0  0  0  0  0  0  0  0
    1.6954   -3.0545    0.7174 S   0  0  0  0  0  0  0  0  0  0  0  0
    1.3637   -1.3902    0.5391 C   0  0  0  0  0  0  0  0  0  0  0  0
    0.0860   -0.7154    0.5343 N   0  0  0  0  0  0  0  0  0  0  0  0
   -1.0524   -1.5435    0.6990 C   0  0  0  0  0  0  0  0  0  0  0  0
   -1.0062   -2.7702    0.8413 O   0  0  0  0  0  0  0  0  0  0  0  0
   -2.3831   -0.8893    0.6998 C   0  0  0  0  0  0  0  0  0  0  0  0
   -3.4754   -1.5932    0.8468 C   0  0  0  0  0  0  0  0  0  0  0  0
   -4.8123   -0.9904    0.8519 C   0  0  0  0  0  0  0  0  0  0  0  0
   -4.8301    0.4126    0.6287 N   0  0  0  0  0  0  0  0  0  0  0  0
   -4.5076    0.8166   -0.7016 C   0  0  0  0  0  0  0  0  0  0  0  0
   -5.7332    1.3758   -1.4168 C   0  0  0  0  0  0  0  0  0  0  0  0
   -6.9129    0.5171   -1.0998 C   0  0  0  0  0  0  0  0  0  0  0  0
   -7.1877    0.4132    0.3660 C   0  0  0  0  0  0  0  0  0  0  0  0
   -6.0364    1.0550    1.1307 C   0  0  0  0  0  0  0  0  0  0  0  0
   -5.9669    2.4750    0.6982 C   0  0  0  0  0  0  0  0  0  0  0  0
   -5.8834    3.4000    1.4616 O   0  0  0  0  0  0  0  0  0  0  0  0
   -6.0046    2.7403   -0.7659 C   0  0  0  0  0  0  0  0  0  0  0  0
    2.6088   -0.8444    0.4005 C   0  0  0  0  0  0  0  0  0  0  0  0
    3.6662   -1.6899    0.4384 C   0  0  0  0  0  0  0  0  0  0  0  0
    6.9266    1.6968   -0.6606 C   0  0  0  0  0  0  0  0  0  0  0  0
    8.1319    2.2836   -0.8674 C   0  0  0  0  0  0  0  0  0  0  0  0
    8.2222    3.8366   -1.7092 Cl  0  0  0  0  0  0  0  0  0  0  0  0
   10.0663   -0.0480    0.5946 H   0  0  0  0  0  0  0  0  0  0  0  0
    7.8844   -1.0722    0.9645 H   0  0  0  0  0  0  0  0  0  0  0  0
    4.6620    0.6910    0.0475 H   0  0  0  0  0  0  0  0  0  0  0  0
    6.4657   -4.3701    0.5924 H   0  0  0  0  0  0  0  0  0  0  0  0
    0.0756    0.2926    0.4156 H   0  0  0  0  0  0  0  0  0  0  0  0
   -2.3849    0.1636    0.5906 H   0  0  0  0  0  0  0  0  0  0  0  0
   -3.3368   -2.6778    0.9681 H   0  0  0  0  0  0  0  0  0  0  0  0
   -5.4403   -1.4471    0.0246 H   0  0  0  0  0  0  0  0  0  0  0  0
   -5.3128   -1.2214    1.8432 H   0  0  0  0  0  0  0  0  0  0  0  0
   -3.7472    1.6538   -0.6264 H   0  0  0  0  0  0  0  0  0  0  0  0
   -4.0281    0.0153   -1.2982 H   0  0  0  0  0  0  0  0  0  0  0  0
   -5.5798    1.4707   -2.4896 H   0  0  0  0  0  0  0  0  0  0  0  0
   -6.8799   -0.4785   -1.6139 H   0  0  0  0  0  0  0  0  0  0  0  0
   -7.8124    1.0188   -1.5675 H   0  0  0  0  0  0  0  0  0  0  0  0
   -7.2070   -0.6557    0.6570 H   0  0  0  0  0  0  0  0  0  0  0  0
   -8.1524    0.9202    0.6567 H   0  0  0  0  0  0  0  0  0  0  0  0
   -6.1008    0.9157    2.2079 H   0  0  0  0  0  0  0  0  0  0  0  0
   -6.9980    3.1004   -1.0342 H   0  0  0  0  0  0  0  0  0  0  0  0
   -5.1708    3.4007   -1.0809 H   0  0  0  0  0  0  0  0  0  0  0  0
    2.6807    0.2659    0.2645 H   0  0  0  0  0  0  0  0  0  0  0  0
    6.0170    2.2026   -1.0257 H   0  0  0  0  0  0  0  0  0  0  0  0
  1  2  1  0
  2  3  2  0
  3  4  1  0
  4  5  2  0
  5  6  1  0
  6  7  1  0
  7  8  1  0
  8  9  2  0
  9 10  1  0
 10 11  2  0
 11 12  1  0
 12 13  1  0
 13 14  1  0
 14 15  1  0
 15 16  2  0
 15 17  1  0
 17 18  2  0
 18 19  1  0
 19 20  1  0
 20 21  1  0
 21 22  1  0
 22 23  1  0
 23 24  1  0
 24 25  1  0
 25 26  1  0
 26 27  2  0
 26 28  1  0
 13 29  2  0
 29 30  1  0
  5 31  1  0
 31 32  2  0
 32 33  1  0
 32  2  1  0
 30  7  2  0
 30 11  1  0
 25 20  1  0
 28 22  1  0
  3 34  1  0
  4 35  1  0
  6 36  1  0
  9 37  1  0
 14 38  1  0
 17 39  1  0
 18 40  1  0
 19 41  1  0
 19 42  1  0
 21 43  1  0
 21 44  1  0
 22 45  1  0
 23 46  1  0
 23 47  1  0
 24 48  1  0
 24 49  1  0
 25 50  1  0
 28 51  1  0
 28 52  1  0
 29 53  1  0
 31 54  1  0
M  END
$$$$
[H]C#Cc1c([H])c([H])c([H])c(N([H])c2nc([H])nc3c([H])c4c(c([H])c23)N(C(=O)/C([H])=C(\[H])C([H])([H])N2C([H])([H])C([H])([H])OC([H])([H])C2([H])[H])C([H])([H])C([H])([H])O4)c1[H]
     RDKit          3D

 59 63  0  0  0  0  0  0  0  0999 V2000
   -0.1132    0.7336   -0.3373 O   0  0  0  0  0  0  0  0  0  0  0  0
   -1.0644   -0.1112   -0.0399 C   0  0  0  0  0  0  0  0  0  0  0  0
   -2.3323    0.5880    0.1276 C   0  0  0  0  0  0  0  0  0  0  0  0
   -3.4564    0.0566    0.5050 C   0  0  0  0  0  0  0  0  0  0  0  0
   -4.6435    0.9731    0.6027 C   0  0  0  0  0  0  0  0  0  0  0  0
   -5.7110    0.5878   -0.2473 N   0  0  0  0  0  0  0  0  0  0  0  0
   -5.5104    0.7146   -1.6483 C   0  0  0  0  0  0  0  0  0  0  0  0
   -6.7252    1.3013   -2.3494 C   0  0  0  0  0  0  0  0  0  0  0  0
   -7.0826    2.4498   -1.6488 O   0  0  0  0  0  0  0  0  0  0  0  0
   -7.6971    2.0493   -0.4717 C   0  0  0  0  0  0  0  0  0  0  0  0
   -6.9852    0.9641    0.2577 C   0  0  0  0  0  0  0  0  0  0  0  0
   -0.7646   -1.4531    0.0728 N   0  0  0  0  0  0  0  0  0  0  0  0
   -1.7026   -2.5113   -0.3213 C   0  0  0  0  0  0  0  0  0  0  0  0
   -1.8593   -3.4980    0.7941 C   0  0  0  0  0  0  0  0  0  0  0  0
   -0.5685   -3.8750    1.2490 O   0  0  0  0  0  0  0  0  0  0  0  0
    0.5785   -3.1538    1.0780 C   0  0  0  0  0  0  0  0  0  0  0  0
    1.8068   -3.6012    1.4746 C   0  0  0  0  0  0  0  0  0  0  0  0
    2.9541   -2.8615    1.2970 C   0  0  0  0  0  0  0  0  0  0  0  0
    4.1539   -3.2981    1.6871 N   0  0  0  0  0  0  0  0  0  0  0  0
    5.2786   -2.5941    1.5261 C   0  0  0  0  0  0  0  0  0  0  0  0
    5.1860   -1.3961    0.9448 N   0  0  0  0  0  0  0  0  0  0  0  0
    4.0256   -0.8408    0.5046 C   0  0  0  0  0  0  0  0  0  0  0  0
    3.9853    0.4091   -0.1292 N   0  0  0  0  0  0  0  0  0  0  0  0
    5.0978    1.2650   -0.3261 C   0  0  0  0  0  0  0  0  0  0  0  0
    5.0710    2.1431   -1.4216 C   0  0  0  0  0  0  0  0  0  0  0  0
    6.0828    3.0335   -1.6878 C   0  0  0  0  0  0  0  0  0  0  0  0
    7.1713    3.0622   -0.8376 C   0  0  0  0  0  0  0  0  0  0  0  0
    7.2388    2.2199    0.2482 C   0  0  0  0  0  0  0  0  0  0  0  0
    6.1888    1.3121    0.5052 C   0  0  0  0  0  0  0  0  0  0  0  0
    8.3740    2.2574    1.1257 C   0  0  0  0  0  0  0  0  0  0  0  0
    9.3540    2.2841    1.8580 C   0  0  0  0  0  0  0  0  0  0  0  0
    2.8974   -1.5980    0.6904 C   0  0  0  0  0  0  0  0  0  0  0  0
    1.6525   -1.1467    0.2890 C   0  0  0  0  0  0  0  0  0  0  0  0
    0.5258   -1.9099    0.4807 C   0  0  0  0  0  0  0  0  0  0  0  0
   -2.3107    1.6953   -0.1008 H   0  0  0  0  0  0  0  0  0  0  0  0
   -3.5257   -0.9692    0.7709 H   0  0  0  0  0  0  0  0  0  0  0  0
   -5.0113    0.8290    1.6607 H   0  0  0  0  0  0  0  0  0  0  0  0
   -4.3464    2.0133    0.4932 H   0  0  0  0  0  0  0  0  0  0  0  0
   -4.6479    1.3243   -1.9563 H   0  0  0  0  0  0  0  0  0  0  0  0
   -5.3357   -0.3049   -2.0739 H   0  0  0  0  0  0  0  0  0  0  0  0
   -6.5564    1.4913   -3.4069 H   0  0  0  0  0  0  0  0  0  0  0  0
   -7.5439    0.5458   -2.1850 H   0  0  0  0  0  0  0  0  0  0  0  0
   -8.7375    1.7055   -0.7497 H   0  0  0  0  0  0  0  0  0  0  0  0
   -7.8563    2.9655    0.1380 H   0  0  0  0  0  0  0  0  0  0  0  0
   -6.8424    1.3039    1.3239 H   0  0  0  0  0  0  0  0  0  0  0  0
   -7.6123    0.0300    0.3324 H   0  0  0  0  0  0  0  0  0  0  0  0
   -2.5903   -2.1252   -0.7654 H   0  0  0  0  0  0  0  0  0  0  0  0
   -1.1728   -3.1217   -1.1463 H   0  0  0  0  0  0  0  0  0  0  0  0
   -2.3811   -4.4077    0.4453 H   0  0  0  0  0  0  0  0  0  0  0  0
   -2.4572   -3.0597    1.6164 H   0  0  0  0  0  0  0  0  0  0  0  0
    1.8934   -4.5715    1.9471 H   0  0  0  0  0  0  0  0  0  0  0  0
    6.2511   -2.9903    1.8623 H   0  0  0  0  0  0  0  0  0  0  0  0
    3.0796    0.7676   -0.4955 H   0  0  0  0  0  0  0  0  0  0  0  0
    4.1899    2.0746   -2.0562 H   0  0  0  0  0  0  0  0  0  0  0  0
    6.0285    3.6974   -2.5441 H   0  0  0  0  0  0  0  0  0  0  0  0
    7.9783    3.7553   -1.0293 H   0  0  0  0  0  0  0  0  0  0  0  0
    6.2886    0.6955    1.3747 H   0  0  0  0  0  0  0  0  0  0  0  0
   10.2082    2.3013    2.4737 H   0  0  0  0  0  0  0  0  0  0  0  0
    1.6038   -0.2011   -0.1694 H   0  0  0  0  0  0  0  0  0  0  0  0
  1  2  2  0
  2  3  1  0
  3  4  2  0
  4  5  1  0
  5  6  1  0
  6  7  1  0
  7  8  1  0
  8  9  1  0
  9 10  1  0
 10 11  1  0
  2 12  1  0
 12 13  1  0
 13 14  1  0
 14 15  1  0
 15 16  1  0
 16 17  2  0
 17 18  1  0
 18 19  2  0
 19 20  1  0
 20 21  2  0
 21 22  1  0
 22 23  1  0
 23 24  1  0
 24 25  2  0
 25 26  1  0
 26 27  2  0
 27 28  1  0
 28 29  2  0
 28 30  1  0
 30 31  3  0
 22 32  2  0
 32 33  1  0
 33 34  2  0
 11  6  1  0
 34 12  1  0
 34 16  1  0
 32 18  1  0
 29 24  1  0
  3 35  1  0
  4 36  1  0
  5 37  1  0
  5 38  1  0
  7 39  1  0
  7 40  1  0
  8 41  1  0
  8 42  1  0
 10 43  1  0
 10 44  1  0
 11 45  1  0
 11 46  1  0
 13 47  1  0
 13 48  1  0
 14 49  1  0
 14 50  1  0
 17 51  1  0
 20 52  1  0
 23 53  1  0
 25 54  1  0
 26 55  1  0
 27 56  1  0
 29 57  1  0
 31 58  1  0
 33 59  1  0
M  END
$$$$
[H]C([H])=C([H])C(=O)N([H])c1c([H])c([H])c([H])c(N([H])c2nc(N([H])c3c([H])c([H])c4c(c3[H])N(C(=O)C(F)(F)F)C([H])([H])C([H])([H])O4)nc([H])c2F)c1[H]
     RDKit          3D

 54 57  0  0  0  0  0  0  0  0999 V2000
    2.0582   -4.6499    2.2065 F   0  0  0  0  0  0  0  0  0  0  0  0
    1.1666   -3.6711    1.8644 C   0  0  0  0  0  0  0  0  0  0  0  0
   -0.1800   -3.8947    1.8144 C   0  0  0  0  0  0  0  0  0  0  0  0
   -0.9769   -2.8859    1.4720 N   0  0  0  0  0  0  0  0  0  0  0  0
   -0.5916   -1.6426    1.1631 C   0  0  0  0  0  0  0  0  0  0  0  0
   -1.4423   -0.5790    0.8015 N   0  0  0  0  0  0  0  0  0  0  0  0
   -2.8344   -0.6533    0.7232 C   0  0  0  0  0  0  0  0  0  0  0  0
   -3.6592   -1.5558    1.3375 C   0  0  0  0  0  0  0  0  0  0  0  0
   -5.0511   -1.5826    1.1867 C   0  0  0  0  0  0  0  0  0  0  0  0
   -5.5977   -0.6342    0.3682 C   0  0  0  0  0  0  0  0  0  0  0  0
   -6.9380   -0.5479    0.1329 O   0  0  0  0  0  0  0  0  0  0  0  0
   -7.5341    0.0400   -1.0069 C   0  0  0  0  0  0  0  0  0  0  0  0
   -6.5677    0.7972   -1.8803 C   0  0  0  0  0  0  0  0  0  0  0  0
   -5.4320    1.2941   -1.1304 N   0  0  0  0  0  0  0  0  0  0  0  0
   -4.9370    2.6078   -1.1526 C   0  0  0  0  0  0  0  0  0  0  0  0
   -4.0067    2.9587   -0.4027 O   0  0  0  0  0  0  0  0  0  0  0  0
   -5.4825    3.6618   -2.0614 C   0  0  0  0  0  0  0  0  0  0  0  0
   -5.4922    3.2777   -3.3732 F   0  0  0  0  0  0  0  0  0  0  0  0
   -4.7090    4.8196   -1.8916 F   0  0  0  0  0  0  0  0  0  0  0  0
   -6.7616    3.9565   -1.6469 F   0  0  0  0  0  0  0  0  0  0  0  0
   -4.7995    0.3125   -0.2825 C   0  0  0  0  0  0  0  0  0  0  0  0
   -3.4463    0.3118   -0.1164 C   0  0  0  0  0  0  0  0  0  0  0  0
    0.7595   -1.4352    1.2179 N   0  0  0  0  0  0  0  0  0  0  0  0
    1.6233   -2.3733    1.5464 C   0  0  0  0  0  0  0  0  0  0  0  0
    3.0065   -2.1733    1.5747 N   0  0  0  0  0  0  0  0  0  0  0  0
    3.6235   -0.9227    1.3151 C   0  0  0  0  0  0  0  0  0  0  0  0
    3.0708    0.3092    1.5632 C   0  0  0  0  0  0  0  0  0  0  0  0
    3.7400    1.4759    1.2448 C   0  0  0  0  0  0  0  0  0  0  0  0
    4.9995    1.4612    0.6616 C   0  0  0  0  0  0  0  0  0  0  0  0
    5.5525    0.2313    0.4137 C   0  0  0  0  0  0  0  0  0  0  0  0
    6.8237    0.0846   -0.2041 N   0  0  0  0  0  0  0  0  0  0  0  0
    7.4139    1.0524   -1.0046 C   0  0  0  0  0  0  0  0  0  0  0  0
    6.9332    2.1595   -1.3023 O   0  0  0  0  0  0  0  0  0  0  0  0
    8.7458    0.7469   -1.5636 C   0  0  0  0  0  0  0  0  0  0  0  0
    9.3289    1.6466   -2.3262 C   0  0  0  0  0  0  0  0  0  0  0  0
    4.8856   -0.9358    0.7309 C   0  0  0  0  0  0  0  0  0  0  0  0
   -0.5890   -4.8802    2.0507 H   0  0  0  0  0  0  0  0  0  0  0  0
   -0.9558    0.3463    0.5783 H   0  0  0  0  0  0  0  0  0  0  0  0
   -3.2238   -2.2990    2.0056 H   0  0  0  0  0  0  0  0  0  0  0  0
   -5.6338   -2.3276    1.7047 H   0  0  0  0  0  0  0  0  0  0  0  0
   -8.0481   -0.7324   -1.6044 H   0  0  0  0  0  0  0  0  0  0  0  0
   -8.2910    0.7646   -0.6301 H   0  0  0  0  0  0  0  0  0  0  0  0
   -6.2630    0.1015   -2.6984 H   0  0  0  0  0  0  0  0  0  0  0  0
   -7.0668    1.6496   -2.3608 H   0  0  0  0  0  0  0  0  0  0  0  0
   -2.8268    1.0504   -0.6423 H   0  0  0  0  0  0  0  0  0  0  0  0
    3.6456   -2.9790    1.7995 H   0  0  0  0  0  0  0  0  0  0  0  0
    2.0874    0.3651    2.0453 H   0  0  0  0  0  0  0  0  0  0  0  0
    3.2929    2.4248    1.4449 H   0  0  0  0  0  0  0  0  0  0  0  0
    5.5080    2.3904    0.4380 H   0  0  0  0  0  0  0  0  0  0  0  0
    7.3424   -0.8325   -0.0265 H   0  0  0  0  0  0  0  0  0  0  0  0
    9.2318   -0.1978   -1.3502 H   0  0  0  0  0  0  0  0  0  0  0  0
   10.3037    1.4136   -2.7307 H   0  0  0  0  0  0  0  0  0  0  0  0
    8.8489    2.5880   -2.5412 H   0  0  0  0  0  0  0  0  0  0  0  0
    5.3459   -1.9139    0.5246 H   0  0  0  0  0  0  0  0  0  0  0  0
  1  2  1  0
  2  3  2  0
  3  4  1  0
  4  5  2  0
  5  6  1  0
  6  7  1  0
  7  8  2  0
  8  9  1  0
  9 10  2  0
 10 11  1  0
 11 12  1  0
 12 13  1  0
 13 14  1  0
 14 15  1  0
 15 16  2  0
 15 17  1  0
 17 18  1  0
 17 19  1  0
 17 20  1  0
 14 21  1  0
 21 22  2  0
  5 23  1  0
 23 24  2  0
 24 25  1  0
 25 26  1  0
 26 27  2  0
 27 28  1  0
 28 29  2  0
 29 30  1  0
 30 31  1  0
 31 32  1  0
 32 33  2  0
 32 34  1  0
 34 35  2  3
 30 36  2  0
 24  2  1  0
 36 26  1  0
 22  7  1  0
 21 10  1  0
  3 37  1  0
  6 38  1  0
  8 39  1  0
  9 40  1  0
 12 41  1  0
 12 42  1  0
 13 43  1  0
 13 44  1  0
 22 45  1  0
 25 46  1  0
 27 47  1  0
 28 48  1  0
 29 49  1  0
 31 50  1  0
 34 51  1  0
 35 52  1  0
 35 53  1  0
 36 54  1  0
M  END
$$$$
[H]C([H])=C([H])C(=O)N([H])c1c(OC([H])([H])C([H])([H])N([H])C(=O)C([H])([H])C([H])([H])C([H])([H])N(C([H])([H])[H])C([H])([H])[H])c([H])c2nc([H])nc(N([H])c3c([H])c([H])c(Br)c(Cl)c3F)c2c1[H]
     RDKit          3D

 64 66  0  0  0  0  0  0  0  0999 V2000
    9.1422    0.0332   -0.0538 C   0  0  0  0  0  0  0  0  0  0  0  0
    8.6587   -1.3112   -0.4138 N   0  0  0  0  0  0  0  0  0  0  0  0
    8.7619   -2.1093    0.8027 C   0  0  0  0  0  0  0  0  0  0  0  0
    7.3016   -1.1267   -0.8979 C   0  0  0  0  0  0  0  0  0  0  0  0
    6.4272   -0.7336    0.2542 C   0  0  0  0  0  0  0  0  0  0  0  0
    5.0718   -0.4112   -0.1314 C   0  0  0  0  0  0  0  0  0  0  0  0
    4.9586    1.0417   -0.8141 C   0  0  0  0  0  0  0  0  0  0  0  0
    5.8670    1.4838   -1.2646 O   0  0  0  0  0  0  0  0  0  0  0  0
    3.5799    1.3455   -0.5977 N   0  0  0  0  0  0  0  0  0  0  0  0
    2.2829    1.6408   -0.3977 C   0  0  0  0  0  0  0  0  0  0  0  0
    1.7434    0.0157   -0.2759 C   0  0  0  0  0  0  0  0  0  0  0  0
    0.4807    0.1255   -0.1392 O   0  0  0  0  0  0  0  0  0  0  0  0
   -0.5893    0.5164    0.4687 C   0  0  0  0  0  0  0  0  0  0  0  0
   -0.7886    1.2059    1.6113 C   0  0  0  0  0  0  0  0  0  0  0  0
   -2.0912    1.5114    2.0876 C   0  0  0  0  0  0  0  0  0  0  0  0
   -2.3963    2.1916    3.1547 N   0  0  0  0  0  0  0  0  0  0  0  0
   -3.7158    2.4620    3.4508 C   0  0  0  0  0  0  0  0  0  0  0  0
   -4.6798    2.0374    2.6471 N   0  0  0  0  0  0  0  0  0  0  0  0
   -4.4732    1.3197    1.5672 C   0  0  0  0  0  0  0  0  0  0  0  0
   -5.4120    0.6457    0.7791 N   0  0  0  0  0  0  0  0  0  0  0  0
   -6.7748    0.7119    0.6177 C   0  0  0  0  0  0  0  0  0  0  0  0
   -7.5799    0.9725    1.6892 C   0  0  0  0  0  0  0  0  0  0  0  0
   -8.9782    0.6870    1.5486 C   0  0  0  0  0  0  0  0  0  0  0  0
   -9.4426    0.2116    0.4389 C   0  0  0  0  0  0  0  0  0  0  0  0
  -11.2701   -0.5605    0.4476 Br  0  0  0  0  0  0  0  0  0  0  0  0
   -8.6771   -0.0347   -0.6472 C   0  0  0  0  0  0  0  0  0  0  0  0
   -9.3467   -0.5430   -2.1675 Cl  0  0  0  0  0  0  0  0  0  0  0  0
   -7.3037    0.2121   -0.5525 C   0  0  0  0  0  0  0  0  0  0  0  0
   -6.5088    0.1765   -1.6099 F   0  0  0  0  0  0  0  0  0  0  0  0
   -3.1492    1.0408    1.2676 C   0  0  0  0  0  0  0  0  0  0  0  0
   -2.8762    0.3401    0.1133 C   0  0  0  0  0  0  0  0  0  0  0  0
   -1.5690    0.0606   -0.3020 C   0  0  0  0  0  0  0  0  0  0  0  0
   -1.6300   -0.6176   -1.6393 N   0  0  0  0  0  0  0  0  0  0  0  0
   -2.7036   -1.5745   -1.6799 C   0  0  0  0  0  0  0  0  0  0  0  0
   -3.0058   -2.2256   -0.5863 O   0  0  0  0  0  0  0  0  0  0  0  0
   -3.5021   -1.8499   -2.8859 C   0  0  0  0  0  0  0  0  0  0  0  0
   -4.6808   -2.4549   -2.6149 C   0  0  0  0  0  0  0  0  0  0  0  0
    8.8636    0.2392    0.9662 H   0  0  0  0  0  0  0  0  0  0  0  0
   10.2027    0.1048   -0.2827 H   0  0  0  0  0  0  0  0  0  0  0  0
    8.5607    0.7780   -0.6829 H   0  0  0  0  0  0  0  0  0  0  0  0
    9.7029   -2.6915    0.7670 H   0  0  0  0  0  0  0  0  0  0  0  0
    8.8134   -1.4727    1.6934 H   0  0  0  0  0  0  0  0  0  0  0  0
    7.9117   -2.7594    0.8762 H   0  0  0  0  0  0  0  0  0  0  0  0
    7.2322   -0.5689   -1.8007 H   0  0  0  0  0  0  0  0  0  0  0  0
    7.0027   -2.2207   -1.2061 H   0  0  0  0  0  0  0  0  0  0  0  0
    6.9758    0.0843    0.8174 H   0  0  0  0  0  0  0  0  0  0  0  0
    6.3129   -1.6049    0.9662 H   0  0  0  0  0  0  0  0  0  0  0  0
    4.3707   -0.5322    0.7069 H   0  0  0  0  0  0  0  0  0  0  0  0
    4.7947   -1.1362   -1.0287 H   0  0  0  0  0  0  0  0  0  0  0  0
    3.6344    2.5775   -1.2262 H   0  0  0  0  0  0  0  0  0  0  0  0
    1.5353    2.0492   -0.9110 H   0  0  0  0  0  0  0  0  0  0  0  0
    2.2599    1.9302    0.7638 H   0  0  0  0  0  0  0  0  0  0  0  0
    1.9059   -0.0060   -1.5830 H   0  0  0  0  0  0  0  0  0  0  0  0
    2.5433   -0.6268   -0.1200 H   0  0  0  0  0  0  0  0  0  0  0  0
   -0.0299    1.4325    2.3541 H   0  0  0  0  0  0  0  0  0  0  0  0
   -3.9445    3.0862    4.3735 H   0  0  0  0  0  0  0  0  0  0  0  0
   -5.0382   -0.4246    0.4024 H   0  0  0  0  0  0  0  0  0  0  0  0
   -7.1778    1.3541    2.5943 H   0  0  0  0  0  0  0  0  0  0  0  0
   -9.5551    0.8689    2.4224 H   0  0  0  0  0  0  0  0  0  0  0  0
   -3.5934    0.1467   -0.6158 H   0  0  0  0  0  0  0  0  0  0  0  0
   -0.9482   -0.4998   -2.3827 H   0  0  0  0  0  0  0  0  0  0  0  0
   -3.2119   -1.5522   -3.8637 H   0  0  0  0  0  0  0  0  0  0  0  0
   -5.4543   -2.8140   -2.9177 H   0  0  0  0  0  0  0  0  0  0  0  0
   -4.8005   -2.1786   -1.4048 H   0  0  0  0  0  0  0  0  0  0  0  0
  1  2  1  0
  2  3  1  0
  2  4  1  0
  4  5  1  0
  5  6  1  0
  6  7  1  0
  7  8  2  0
  7  9  1  0
  9 10  1  0
 10 11  1  0
 11 12  1  0
 12 13  1  0
 13 14  2  0
 14 15  1  0
 15 16  2  0
 16 17  1  0
 17 18  2  0
 18 19  1  0
 19 20  1  0
 20 21  1  0
 21 22  2  0
 22 23  1  0
 23 24  2  0
 24 25  1  0
 24 26  1  0
 26 27  1  0
 26 28  2  0
 28 29  1  0
 19 30  2  0
 30 31  1  0
 31 32  2  0
 32 33  1  0
 33 34  1  0
 34 35  2  0
 34 36  1  0
 36 37  2  3
 32 13  1  0
 30 15  1  0
 28 21  1  0
  1 38  1  0
  1 39  1  0
  1 40  1  0
  3 41  1  0
  3 42  1  0
  3 43  1  0
  4 44  1  0
  4 45  1  0
  5 46  1  0
  5 47  1  0
  6 48  1  0
  6 49  1  0
  9 50  1  0
 10 51  1  0
 10 52  1  0
 11 53  1  0
 11 54  1  0
 14 55  1  0
 17 56  1  0
 20 57  1  0
 22 58  1  0
 23 59  1  0
 31 60  1  0
 33 61  1  0
 36 62  1  0
 37 63  1  0
 37 64  1  0
M  END
$$$$
[H]/C(C(=O)N([H])c1c(OC([H])([H])[H])c([H])c2nc([H])nc(N([H])c3c([H])c([H])c(F)c(Cl)c3[H])c2c1[H])=C(/[H])C([H])([H])N([H])C1([H])C([H])([H])C1([H])[H]
     RDKit          3D

 52 55  0  0  0  0  0  0  0  0999 V2000
    0.9707   -1.4114   -5.6116 C   0  0  0  0  0  0  0  0  0  0  0  0
    0.8397   -1.1058   -4.2749 O   0  0  0  0  0  0  0  0  0  0  0  0
    0.1435   -0.1058   -3.6561 C   0  0  0  0  0  0  0  0  0  0  0  0
   -0.5768    0.7963   -4.3826 C   0  0  0  0  0  0  0  0  0  0  0  0
   -1.2741    1.7981   -3.7567 C   0  0  0  0  0  0  0  0  0  0  0  0
   -1.9957    2.7051   -4.4115 N   0  0  0  0  0  0  0  0  0  0  0  0
   -2.6667    3.6701   -3.7617 C   0  0  0  0  0  0  0  0  0  0  0  0
   -2.6417    3.7653   -2.4304 N   0  0  0  0  0  0  0  0  0  0  0  0
   -1.9224    2.8695   -1.6955 C   0  0  0  0  0  0  0  0  0  0  0  0
   -1.8571    2.9920   -0.3105 N   0  0  0  0  0  0  0  0  0  0  0  0
   -2.6184    3.9976    0.3772 C   0  0  0  0  0  0  0  0  0  0  0  0
   -3.8701    4.4093    0.0248 C   0  0  0  0  0  0  0  0  0  0  0  0
   -4.5406    5.4188    0.7162 C   0  0  0  0  0  0  0  0  0  0  0  0
   -3.9557    6.0381    1.7882 C   0  0  0  0  0  0  0  0  0  0  0  0
   -4.5811    7.0284    2.4875 F   0  0  0  0  0  0  0  0  0  0  0  0
   -2.6938    5.6407    2.1648 C   0  0  0  0  0  0  0  0  0  0  0  0
   -1.9499    6.4429    3.5444 Cl  0  0  0  0  0  0  0  0  0  0  0  0
   -2.0374    4.6457    1.4797 C   0  0  0  0  0  0  0  0  0  0  0  0
   -1.2304    1.8737   -2.3642 C   0  0  0  0  0  0  0  0  0  0  0  0
   -0.4966    0.9525   -1.6425 C   0  0  0  0  0  0  0  0  0  0  0  0
    0.2117   -0.0617   -2.2435 C   0  0  0  0  0  0  0  0  0  0  0  0
    0.9822   -1.0361   -1.5734 N   0  0  0  0  0  0  0  0  0  0  0  0
    1.1537   -1.1485   -0.2087 C   0  0  0  0  0  0  0  0  0  0  0  0
    0.6607   -0.4153    0.6608 O   0  0  0  0  0  0  0  0  0  0  0  0
    2.0122   -2.2500    0.3245 C   0  0  0  0  0  0  0  0  0  0  0  0
    2.2120   -2.4082    1.6197 C   0  0  0  0  0  0  0  0  0  0  0  0
    3.0553   -3.4901    2.1300 C   0  0  0  0  0  0  0  0  0  0  0  0
    2.3167   -4.3943    3.0100 N   0  0  0  0  0  0  0  0  0  0  0  0
    3.1804   -5.4427    3.5163 C   0  0  0  0  0  0  0  0  0  0  0  0
    2.5132   -6.4856    4.3590 C   0  0  0  0  0  0  0  0  0  0  0  0
    3.4343   -5.5171    4.9980 C   0  0  0  0  0  0  0  0  0  0  0  0
    0.4185   -0.7156   -6.2477 H   0  0  0  0  0  0  0  0  0  0  0  0
    2.0532   -1.4233   -5.8681 H   0  0  0  0  0  0  0  0  0  0  0  0
    0.5273   -2.4409   -5.7621 H   0  0  0  0  0  0  0  0  0  0  0  0
   -0.6420    0.7789   -5.4665 H   0  0  0  0  0  0  0  0  0  0  0  0
   -3.2535    4.4020   -4.3398 H   0  0  0  0  0  0  0  0  0  0  0  0
   -1.2822    2.4058    0.3433 H   0  0  0  0  0  0  0  0  0  0  0  0
   -4.4051    3.9391   -0.8039 H   0  0  0  0  0  0  0  0  0  0  0  0
   -5.5220    5.7215    0.4166 H   0  0  0  0  0  0  0  0  0  0  0  0
   -1.0293    4.3259    1.7782 H   0  0  0  0  0  0  0  0  0  0  0  0
   -0.4845    1.0334   -0.5823 H   0  0  0  0  0  0  0  0  0  0  0  0
    1.4804   -1.7568   -2.1853 H   0  0  0  0  0  0  0  0  0  0  0  0
    2.4933   -2.9496   -0.3445 H   0  0  0  0  0  0  0  0  0  0  0  0
    1.7427   -1.7227    2.3282 H   0  0  0  0  0  0  0  0  0  0  0  0
    3.8922   -3.0754    2.7629 H   0  0  0  0  0  0  0  0  0  0  0  0
    3.5251   -4.1050    1.3640 H   0  0  0  0  0  0  0  0  0  0  0  0
    1.9482   -3.8713    3.8404 H   0  0  0  0  0  0  0  0  0  0  0  0
    4.0413   -5.6936    2.8612 H   0  0  0  0  0  0  0  0  0  0  0  0
    1.4228   -6.4162    4.5387 H   0  0  0  0  0  0  0  0  0  0  0  0
    2.8487   -7.5448    4.2030 H   0  0  0  0  0  0  0  0  0  0  0  0
    3.0348   -4.7441    5.6750 H   0  0  0  0  0  0  0  0  0  0  0  0
    4.4121   -5.9187    5.3164 H   0  0  0  0  0  0  0  0  0  0  0  0
  1  2  1  0
  2  3  1  0
  3  4  2  0
  4  5  1  0
  5  6  2  0
  6  7  1  0
  7  8  2  0
  8  9  1  0
  9 10  1  0
 10 11  1  0
 11 12  2  0
 12 13  1  0
 13 14  2  0
 14 15  1  0
 14 16  1  0
 16 17  1  0
 16 18  2  0
  9 19  2  0
 19 20  1  0
 20 21  2  0
 21 22  1  0
 22 23  1  0
 23 24  2  0
 23 25  1  0
 25 26  2  0
 26 27  1  0
 27 28  1  0
 28 29  1  0
 29 30  1  0
 30 31  1  0
 21  3  1  0
 31 29  1  0
 19  5  1  0
 18 11  1  0
  1 32  1  0
  1 33  1  0
  1 34  1  0
  4 35  1  0
  7 36  1  0
 10 37  1  0
 12 38  1  0
 13 39  1  0
 18 40  1  0
 20 41  1  0
 22 42  1  0
 25 43  1  0
 26 44  1  0
 27 45  1  0
 27 46  1  0
 28 47  1  0
 29 48  1  0
 30 49  1  0
 30 50  1  0
 31 51  1  0
 31 52  1  0
M  END
$$$$
[H]C([H])=C([H])C(=O)N1C([H])([H])C([H])([H])C([H])([H])[C@@]1([H])C(=O)N([H])c1c(OC([H])([H])C([H])([H])OC([H])([H])[H])c([H])c2nc([H])nc(N([H])c3c([H])c([H])c(F)c(Cl)c3F)c2c1[H]
     RDKit          3D

 61 64  0  0  0  0  0  0  0  0999 V2000
   -3.3677    4.2549    0.9909 C   0  0  0  0  0  0  0  0  0  0  0  0
   -2.0697    4.4509    0.6118 O   0  0  0  0  0  0  0  0  0  0  0  0
   -1.1470    4.5616    1.6327 C   0  0  0  0  0  0  0  0  0  0  0  0
   -1.0849    3.3323    2.5044 C   0  0  0  0  0  0  0  0  0  0  0  0
   -0.7519    2.1560    1.9018 O   0  0  0  0  0  0  0  0  0  0  0  0
    0.3525    1.6745    1.2741 C   0  0  0  0  0  0  0  0  0  0  0  0
    1.4900    2.4365    1.1690 C   0  0  0  0  0  0  0  0  0  0  0  0
    2.5993    1.9272    0.5309 C   0  0  0  0  0  0  0  0  0  0  0  0
    3.6831    2.7267    0.4589 N   0  0  0  0  0  0  0  0  0  0  0  0
    4.7894    2.2722   -0.1564 C   0  0  0  0  0  0  0  0  0  0  0  0
    4.7795    1.0510   -0.6733 N   0  0  0  0  0  0  0  0  0  0  0  0
    3.7705    0.1760   -0.6621 C   0  0  0  0  0  0  0  0  0  0  0  0
    3.8184   -1.0887   -1.2094 N   0  0  0  0  0  0  0  0  0  0  0  0
    4.9021   -1.7079   -1.8960 C   0  0  0  0  0  0  0  0  0  0  0  0
    6.0994   -1.1183   -2.1660 C   0  0  0  0  0  0  0  0  0  0  0  0
    7.0820   -1.8240   -2.8502 C   0  0  0  0  0  0  0  0  0  0  0  0
    6.9147   -3.1008   -3.2769 C   0  0  0  0  0  0  0  0  0  0  0  0
    7.8758   -3.7880   -3.9449 F   0  0  0  0  0  0  0  0  0  0  0  0
    5.7156   -3.7179   -3.0170 C   0  0  0  0  0  0  0  0  0  0  0  0
    5.4550   -5.3707   -3.5499 Cl  0  0  0  0  0  0  0  0  0  0  0  0
    4.7402   -3.0330   -2.3439 C   0  0  0  0  0  0  0  0  0  0  0  0
    3.5487   -3.6578   -2.0893 F   0  0  0  0  0  0  0  0  0  0  0  0
    2.6236    0.6646   -0.0169 C   0  0  0  0  0  0  0  0  0  0  0  0
    1.4679   -0.0757    0.1055 C   0  0  0  0  0  0  0  0  0  0  0  0
    0.3278    0.3605    0.7235 C   0  0  0  0  0  0  0  0  0  0  0  0
   -0.8587   -0.3570    0.8647 N   0  0  0  0  0  0  0  0  0  0  0  0
   -1.1786   -1.6647    0.4200 C   0  0  0  0  0  0  0  0  0  0  0  0
   -0.3117   -2.3448   -0.1977 O   0  0  0  0  0  0  0  0  0  0  0  0
   -2.4845   -2.2084    0.6822 C   0  0  2  0  0  0  0  0  0  0  0  0
   -2.8972   -3.4802    0.0324 C   0  0  0  0  0  0  0  0  0  0  0  0
   -4.3118   -3.6057    0.6511 C   0  0  0  0  0  0  0  0  0  0  0  0
   -4.6806   -2.1583    1.0857 C   0  0  0  0  0  0  0  0  0  0  0  0
   -3.6635   -1.3994    0.3962 N   0  0  0  0  0  0  0  0  0  0  0  0
   -3.7807   -0.3079   -0.4311 C   0  0  0  0  0  0  0  0  0  0  0  0
   -2.7510   -0.0655   -1.2250 O   0  0  0  0  0  0  0  0  0  0  0  0
   -4.8308    0.6537   -0.6085 C   0  0  0  0  0  0  0  0  0  0  0  0
   -5.9542    0.7461    0.0375 C   0  0  0  0  0  0  0  0  0  0  0  0
   -3.5171    3.3325    1.5637 H   0  0  0  0  0  0  0  0  0  0  0  0
   -4.0349    4.1751    0.1062 H   0  0  0  0  0  0  0  0  0  0  0  0
   -3.7593    5.0836    1.6211 H   0  0  0  0  0  0  0  0  0  0  0  0
   -1.3386    5.4778    2.2588 H   0  0  0  0  0  0  0  0  0  0  0  0
   -0.1748    4.7460    1.1621 H   0  0  0  0  0  0  0  0  0  0  0  0
   -0.4140    3.5549    3.4072 H   0  0  0  0  0  0  0  0  0  0  0  0
   -2.1027    3.2118    2.9661 H   0  0  0  0  0  0  0  0  0  0  0  0
    1.5735    3.4258    1.5846 H   0  0  0  0  0  0  0  0  0  0  0  0
    5.6403    2.9270   -0.2011 H   0  0  0  0  0  0  0  0  0  0  0  0
    2.9326   -1.6928   -1.1124 H   0  0  0  0  0  0  0  0  0  0  0  0
    6.3290   -0.0856   -1.8636 H   0  0  0  0  0  0  0  0  0  0  0  0
    8.0231   -1.3060   -3.0412 H   0  0  0  0  0  0  0  0  0  0  0  0
    1.4749   -1.0543   -0.3154 H   0  0  0  0  0  0  0  0  0  0  0  0
   -1.6617    0.1459    1.4010 H   0  0  0  0  0  0  0  0  0  0  0  0
   -2.5322   -2.4488    1.8105 H   0  0  0  0  0  0  0  0  0  0  0  0
   -2.2727   -4.3398    0.3397 H   0  0  0  0  0  0  0  0  0  0  0  0
   -2.9840   -3.4426   -1.0655 H   0  0  0  0  0  0  0  0  0  0  0  0
   -4.2179   -4.2228    1.5385 H   0  0  0  0  0  0  0  0  0  0  0  0
   -5.0579   -3.9084   -0.0754 H   0  0  0  0  0  0  0  0  0  0  0  0
   -5.7107   -1.9704    0.7931 H   0  0  0  0  0  0  0  0  0  0  0  0
   -4.5217   -2.0584    2.1832 H   0  0  0  0  0  0  0  0  0  0  0  0
   -4.7161    1.4540   -1.3987 H   0  0  0  0  0  0  0  0  0  0  0  0
   -6.2172    0.0678    0.8177 H   0  0  0  0  0  0  0  0  0  0  0  0
   -6.6507    1.5578   -0.2392 H   0  0  0  0  0  0  0  0  0  0  0  0
  1  2  1  0
  2  3  1  0
  3  4  1  0
  4  5  1  0
  5  6  1  0
  6  7  2  0
  7  8  1  0
  8  9  2  0
  9 10  1  0
 10 11  2  0
 11 12  1  0
 12 13  1  0
 13 14  1  0
 14 15  2  0
 15 16  1  0
 16 17  2  0
 17 18  1  0
 17 19  1  0
 19 20  1  0
 19 21  2  0
 21 22  1  0
 12 23  2  0
 23 24  1  0
 24 25  2  0
 25 26  1  0
 26 27  1  0
 27 28  2  0
 27 29  1  0
 29 30  1  0
 30 31  1  0
 31 32  1  0
 32 33  1  0
 33 34  1  0
 34 35  2  0
 34 36  1  0
 36 37  2  3
 25  6  1  0
 33 29  1  0
 23  8  1  0
 21 14  1  0
  1 38  1  0
  1 39  1  0
  1 40  1  0
  3 41  1  0
  3 42  1  0
  4 43  1  0
  4 44  1  0
  7 45  1  0
 10 46  1  0
 13 47  1  0
 15 48  1  0
 16 49  1  0
 24 50  1  0
 26 51  1  0
 29 52  1  1
 30 53  1  0
 30 54  1  0
 31 55  1  0
 31 56  1  0
 32 57  1  0
 32 58  1  0
 36 59  1  0
 37 60  1  0
 37 61  1  0
M  END
$$$$
[H]/C(C(=O)N([H])c1c(OC([H])([H])C([H])([H])[H])c([H])c2nc([H])c(C#N)c(N([H])c3c([H])c([H])c(OC([H])([H])c4c([H])c([H])c([H])c([H])c4[H])c(Cl)c3[H])c2c1[H])=C(/[H])C([H])([H])N(C([H])([H])[H])C([H])([H])[H]
     RDKit          3D

 70 73  0  0  0  0  0  0  0  0999 V2000
   -3.4377   -5.3668   -0.9909 C   0  0  0  0  0  0  0  0  0  0  0  0
   -4.3601   -4.4163   -0.2632 C   0  0  0  0  0  0  0  0  0  0  0  0
   -3.8381   -3.1740    0.0187 O   0  0  0  0  0  0  0  0  0  0  0  0
   -2.7519   -2.9469    0.8116 C   0  0  0  0  0  0  0  0  0  0  0  0
   -2.0558   -3.9647    1.4361 C   0  0  0  0  0  0  0  0  0  0  0  0
   -0.9602   -3.7216    2.2363 C   0  0  0  0  0  0  0  0  0  0  0  0
   -0.2828   -4.7234    2.8459 N   0  0  0  0  0  0  0  0  0  0  0  0
    0.7942   -4.4683    3.6325 C   0  0  0  0  0  0  0  0  0  0  0  0
    1.2428   -3.1721    3.8424 C   0  0  0  0  0  0  0  0  0  0  0  0
    2.3842   -2.8946    4.6753 C   0  0  0  0  0  0  0  0  0  0  0  0
    3.2942   -2.6529    5.3494 N   0  0  0  0  0  0  0  0  0  0  0  0
    0.5339   -2.1716    3.2089 C   0  0  0  0  0  0  0  0  0  0  0  0
    0.9167   -0.8169    3.3646 N   0  0  0  0  0  0  0  0  0  0  0  0
    1.8483   -0.2555    2.4585 C   0  0  0  0  0  0  0  0  0  0  0  0
    2.4218   -0.9818    1.4570 C   0  0  0  0  0  0  0  0  0  0  0  0
    3.3373   -0.4187    0.5652 C   0  0  0  0  0  0  0  0  0  0  0  0
    3.6712    0.9048    0.6993 C   0  0  0  0  0  0  0  0  0  0  0  0
    4.5700    1.5247   -0.1495 O   0  0  0  0  0  0  0  0  0  0  0  0
    5.1702    0.7817   -1.1870 C   0  0  0  0  0  0  0  0  0  0  0  0
    6.0874    1.6279   -1.9767 C   0  0  0  0  0  0  0  0  0  0  0  0
    6.8727    1.0696   -2.9338 C   0  0  0  0  0  0  0  0  0  0  0  0
    7.7248    1.8769   -3.6663 C   0  0  0  0  0  0  0  0  0  0  0  0
    7.7567    3.2453   -3.4041 C   0  0  0  0  0  0  0  0  0  0  0  0
    6.9747    3.8275   -2.4455 C   0  0  0  0  0  0  0  0  0  0  0  0
    6.1318    2.9768   -1.7321 C   0  0  0  0  0  0  0  0  0  0  0  0
    3.0835    1.6337    1.7196 C   0  0  0  0  0  0  0  0  0  0  0  0
    3.4896    3.3347    1.9212 Cl  0  0  0  0  0  0  0  0  0  0  0  0
    2.1873    1.0767    2.5900 C   0  0  0  0  0  0  0  0  0  0  0  0
   -0.5599   -2.4240    2.4095 C   0  0  0  0  0  0  0  0  0  0  0  0
   -1.2603   -1.3990    1.7813 C   0  0  0  0  0  0  0  0  0  0  0  0
   -2.3504   -1.5990    0.9807 C   0  0  0  0  0  0  0  0  0  0  0  0
   -3.1008   -0.6036    0.3125 N   0  0  0  0  0  0  0  0  0  0  0  0
   -2.9091    0.7738    0.3455 C   0  0  0  0  0  0  0  0  0  0  0  0
   -1.9926    1.2925    1.0177 O   0  0  0  0  0  0  0  0  0  0  0  0
   -3.7543    1.7058   -0.3945 C   0  0  0  0  0  0  0  0  0  0  0  0
   -4.7669    1.3799   -1.1626 C   0  0  0  0  0  0  0  0  0  0  0  0
   -5.6186    2.3148   -1.9088 C   0  0  0  0  0  0  0  0  0  0  0  0
   -5.3396    3.6863   -1.8274 N   0  0  0  0  0  0  0  0  0  0  0  0
   -4.1516    4.1320   -2.4553 C   0  0  0  0  0  0  0  0  0  0  0  0
   -5.8190    4.4240   -0.7213 C   0  0  0  0  0  0  0  0  0  0  0  0
   -3.3670   -6.3649   -0.5059 H   0  0  0  0  0  0  0  0  0  0  0  0
   -2.4549   -4.9019   -1.1426 H   0  0  0  0  0  0  0  0  0  0  0  0
   -3.8486   -5.5779   -2.0209 H   0  0  0  0  0  0  0  0  0  0  0  0
   -5.3145   -4.3436   -0.8383 H   0  0  0  0  0  0  0  0  0  0  0  0
   -4.6572   -4.9499    0.6854 H   0  0  0  0  0  0  0  0  0  0  0  0
   -2.3454   -5.0025    1.3318 H   0  0  0  0  0  0  0  0  0  0  0  0
    1.3015   -5.3053    4.0983 H   0  0  0  0  0  0  0  0  0  0  0  0
    0.5086   -0.2737    4.1325 H   0  0  0  0  0  0  0  0  0  0  0  0
    2.1860   -2.0160    1.3213 H   0  0  0  0  0  0  0  0  0  0  0  0
    3.7872   -0.9964   -0.2232 H   0  0  0  0  0  0  0  0  0  0  0  0
    4.3881    0.3328   -1.8600 H   0  0  0  0  0  0  0  0  0  0  0  0
    5.7917   -0.0544   -0.7554 H   0  0  0  0  0  0  0  0  0  0  0  0
    6.8678    0.0125   -3.1572 H   0  0  0  0  0  0  0  0  0  0  0  0
    8.3790    1.5053   -4.4422 H   0  0  0  0  0  0  0  0  0  0  0  0
    8.4237    3.8617   -3.9813 H   0  0  0  0  0  0  0  0  0  0  0  0
    7.0104    4.8790   -2.2567 H   0  0  0  0  0  0  0  0  0  0  0  0
    5.5153    3.4262   -0.9783 H   0  0  0  0  0  0  0  0  0  0  0  0
    1.7374    1.6423    3.3744 H   0  0  0  0  0  0  0  0  0  0  0  0
   -0.8992   -0.4157    1.9553 H   0  0  0  0  0  0  0  0  0  0  0  0
   -3.9251   -0.9211   -0.3032 H   0  0  0  0  0  0  0  0  0  0  0  0
   -3.5710    2.7938   -0.3301 H   0  0  0  0  0  0  0  0  0  0  0  0
   -5.0308    0.3159   -1.2820 H   0  0  0  0  0  0  0  0  0  0  0  0
   -5.5583    2.0009   -3.0037 H   0  0  0  0  0  0  0  0  0  0  0  0
   -6.7114    2.0990   -1.6781 H   0  0  0  0  0  0  0  0  0  0  0  0
   -3.5805    4.7503   -1.7143 H   0  0  0  0  0  0  0  0  0  0  0  0
   -3.5565    3.2526   -2.7921 H   0  0  0  0  0  0  0  0  0  0  0  0
   -4.3178    4.7691   -3.3507 H   0  0  0  0  0  0  0  0  0  0  0  0
   -6.9371    4.3150   -0.6403 H   0  0  0  0  0  0  0  0  0  0  0  0
   -5.6308    5.5150   -0.9266 H   0  0  0  0  0  0  0  0  0  0  0  0
   -5.3739    4.2342    0.2537 H   0  0  0  0  0  0  0  0  0  0  0  0
  1  2  1  0
  2  3  1  0
  3  4  1  0
  4  5  2  0
  5  6  1  0
  6  7  2  0
  7  8  1  0
  8  9  2  0
  9 10  1  0
 10 11  3  0
  9 12  1  0
 12 13  1  0
 13 14  1  0
 14 15  2  0
 15 16  1  0
 16 17  2  0
 17 18  1  0
 18 19  1  0
 19 20  1  0
 20 21  2  0
 21 22  1  0
 22 23  2  0
 23 24  1  0
 24 25  2  0
 17 26  1  0
 26 27  1  0
 26 28  2  0
 12 29  2  0
 29 30  1  0
 30 31  2  0
 31 32  1  0
 32 33  1  0
 33 34  2  0
 33 35  1  0
 35 36  2  0
 36 37  1  0
 37 38  1  0
 38 39  1  0
 38 40  1  0
 31  4  1  0
 29  6  1  0
 28 14  1  0
 25 20  1  0
  1 41  1  0
  1 42  1  0
  1 43  1  0
  2 44  1  0
  2 45  1  0
  5 46  1  0
  8 47  1  0
 13 48  1  0
 15 49  1  0
 16 50  1  0
 19 51  1  0
 19 52  1  0
 21 53  1  0
 22 54  1  0
 23 55  1  0
 24 56  1  0
 25 57  1  0
 28 58  1  0
 30 59  1  0
 32 60  1  0
 35 61  1  0
 36 62  1  0
 37 63  1  0
 37 64  1  0
 39 65  1  0
 39 66  1  0
 39 67  1  0
 40 68  1  0
 40 69  1  0
 40 70  1  0
M  END
$$$$
[H]Oc1c([H])c([H])c(-c2c([H])c3c(N([H])[C@@]([H])(c4c([H])c([H])c(F)c([H])c4[H])C([H])([H])[H])nc([H])nc3n2[H])c([H])c1[H]
     RDKit          3D

 43 46  0  0  0  0  0  0  0  0999 V2000
    3.1783    0.7048   -2.6658 C   0  0  0  0  0  0  0  0  0  0  0  0
    2.7613    1.2937   -1.3373 C   0  0  1  0  0  0  0  0  0  0  0  0
    1.4025    0.9082   -0.9844 N   0  0  0  0  0  0  0  0  0  0  0  0
    1.0058   -0.4311   -0.8204 C   0  0  0  0  0  0  0  0  0  0  0  0
    1.8529   -1.4641   -0.9771 N   0  0  0  0  0  0  0  0  0  0  0  0
    1.4473   -2.7455   -0.8138 C   0  0  0  0  0  0  0  0  0  0  0  0
    0.1632   -2.9847   -0.4866 N   0  0  0  0  0  0  0  0  0  0  0  0
   -0.7498   -2.0143   -0.3106 C   0  0  0  0  0  0  0  0  0  0  0  0
   -2.0546   -1.9831    0.0083 N   0  0  0  0  0  0  0  0  0  0  0  0
   -2.4801   -0.7152    0.0497 C   0  0  0  0  0  0  0  0  0  0  0  0
   -1.4182    0.0803   -0.2506 C   0  0  0  0  0  0  0  0  0  0  0  0
   -0.3045   -0.6997   -0.4853 C   0  0  0  0  0  0  0  0  0  0  0  0
   -3.8460   -0.2451    0.3618 C   0  0  0  0  0  0  0  0  0  0  0  0
   -4.8444   -1.1343    0.6513 C   0  0  0  0  0  0  0  0  0  0  0  0
   -6.1408   -0.7032    0.9482 C   0  0  0  0  0  0  0  0  0  0  0  0
   -6.4357    0.6434    0.9536 C   0  0  0  0  0  0  0  0  0  0  0  0
   -7.7292    1.0875    1.2491 O   0  0  0  0  0  0  0  0  0  0  0  0
   -5.4186    1.5273    0.6598 C   0  0  0  0  0  0  0  0  0  0  0  0
   -4.1245    1.1018    0.3632 C   0  0  0  0  0  0  0  0  0  0  0  0
    3.6515    0.8912   -0.2352 C   0  0  0  0  0  0  0  0  0  0  0  0
    3.2449    1.1645    1.0541 C   0  0  0  0  0  0  0  0  0  0  0  0
    4.0579    0.7995    2.1110 C   0  0  0  0  0  0  0  0  0  0  0  0
    5.2699    0.1673    1.9224 C   0  0  0  0  0  0  0  0  0  0  0  0
    6.0717   -0.1924    2.9721 F   0  0  0  0  0  0  0  0  0  0  0  0
    5.6486   -0.0922    0.6229 C   0  0  0  0  0  0  0  0  0  0  0  0
    4.8509    0.2650   -0.4343 C   0  0  0  0  0  0  0  0  0  0  0  0
    2.3277    0.7598   -3.3479 H   0  0  0  0  0  0  0  0  0  0  0  0
    3.9758    1.3598   -3.0867 H   0  0  0  0  0  0  0  0  0  0  0  0
    3.5208   -0.3294   -2.6052 H   0  0  0  0  0  0  0  0  0  0  0  0
    2.8321    2.3935   -1.4415 H   0  0  0  0  0  0  0  0  0  0  0  0
    0.7163    1.6725   -0.8536 H   0  0  0  0  0  0  0  0  0  0  0  0
    2.1667   -3.5657   -0.9497 H   0  0  0  0  0  0  0  0  0  0  0  0
   -2.6417   -2.8301    0.1946 H   0  0  0  0  0  0  0  0  0  0  0  0
   -1.4019    1.1605   -0.3083 H   0  0  0  0  0  0  0  0  0  0  0  0
   -4.6163   -2.1805    0.6473 H   0  0  0  0  0  0  0  0  0  0  0  0
   -6.9225   -1.4152    1.1756 H   0  0  0  0  0  0  0  0  0  0  0  0
   -7.9385    1.2781    2.2319 H   0  0  0  0  0  0  0  0  0  0  0  0
   -5.6331    2.5755    0.6603 H   0  0  0  0  0  0  0  0  0  0  0  0
   -3.3297    1.7936    0.1336 H   0  0  0  0  0  0  0  0  0  0  0  0
    2.3103    1.6557    1.2755 H   0  0  0  0  0  0  0  0  0  0  0  0
    3.7675    1.0003    3.1460 H   0  0  0  0  0  0  0  0  0  0  0  0
    6.6074   -0.5939    0.4399 H   0  0  0  0  0  0  0  0  0  0  0  0
    5.1991    0.0360   -1.4382 H   0  0  0  0  0  0  0  0  0  0  0  0
  1  2  1  0
  2  3  1  0
  3  4  1  0
  4  5  2  0
  5  6  1  0
  6  7  2  0
  7  8  1  0
  8  9  1  0
  9 10  1  0
 10 11  2  0
 11 12  1  0
 10 13  1  0
 13 14  2  0
 14 15  1  0
 15 16  2  0
 16 17  1  0
 16 18  1  0
 18 19  2  0
  2 20  1  0
 20 21  2  0
 21 22  1  0
 22 23  2  0
 23 24  1  0
 23 25  1  0
 25 26  2  0
 12  4  1  0
 19 13  1  0
 26 20  1  0
 12  8  2  0
  1 27  1  0
  1 28  1  0
  1 29  1  0
  2 30  1  6
  3 31  1  0
  6 32  1  0
  9 33  1  0
 11 34  1  0
 14 35  1  0
 15 36  1  0
 17 37  1  0
 18 38  1  0
 19 39  1  0
 21 40  1  0
 22 41  1  0
 25 42  1  0
 26 43  1  0
M  END
$$$$
[H]c1nc(N([H])c2c([H])c([H])c([H])c(I)c2[H])c2c([H])c([H])c([H])c([H])c2n1
     RDKit          3D

 28 30  0  0  0  0  0  0  0  0999 V2000
    5.5691    2.4989   -0.7406 I   0  0  0  0  0  0  0  0  0  0  0  0
    4.2248    0.9301   -0.3426 C   0  0  0  0  0  0  0  0  0  0  0  0
    4.7234   -0.3431   -0.1863 C   0  0  0  0  0  0  0  0  0  0  0  0
    3.8403   -1.3567    0.0728 C   0  0  0  0  0  0  0  0  0  0  0  0
    2.4745   -1.0975    0.1739 C   0  0  0  0  0  0  0  0  0  0  0  0
    1.9468    0.1509    0.0240 C   0  0  0  0  0  0  0  0  0  0  0  0
    0.5853    0.4778    0.0885 N   0  0  0  0  0  0  0  0  0  0  0  0
   -0.5298   -0.3673   -0.0294 C   0  0  0  0  0  0  0  0  0  0  0  0
   -0.4468   -1.6738   -0.2790 N   0  0  0  0  0  0  0  0  0  0  0  0
   -1.4691   -2.5130   -0.4209 C   0  0  0  0  0  0  0  0  0  0  0  0
   -2.7041   -2.0237   -0.3067 N   0  0  0  0  0  0  0  0  0  0  0  0
   -2.9194   -0.7234   -0.0559 C   0  0  0  0  0  0  0  0  0  0  0  0
   -4.2250   -0.3104    0.0463 C   0  0  0  0  0  0  0  0  0  0  0  0
   -4.4948    1.0134    0.3042 C   0  0  0  0  0  0  0  0  0  0  0  0
   -3.4446    1.8794    0.4510 C   0  0  0  0  0  0  0  0  0  0  0  0
   -2.1257    1.4374    0.3430 C   0  0  0  0  0  0  0  0  0  0  0  0
   -1.8260    0.1246    0.0865 C   0  0  0  0  0  0  0  0  0  0  0  0
    2.8740    1.1740   -0.2409 C   0  0  0  0  0  0  0  0  0  0  0  0
    5.8028   -0.5233   -0.2705 H   0  0  0  0  0  0  0  0  0  0  0  0
    4.2229   -2.3565    0.1965 H   0  0  0  0  0  0  0  0  0  0  0  0
    1.8470   -1.9296    0.3906 H   0  0  0  0  0  0  0  0  0  0  0  0
    0.3602    1.5152    0.2528 H   0  0  0  0  0  0  0  0  0  0  0  0
   -1.2815   -3.5825   -0.6273 H   0  0  0  0  0  0  0  0  0  0  0  0
   -5.0587   -1.0121   -0.0729 H   0  0  0  0  0  0  0  0  0  0  0  0
   -5.5285    1.3709    0.3909 H   0  0  0  0  0  0  0  0  0  0  0  0
   -3.5733    2.9217    0.6526 H   0  0  0  0  0  0  0  0  0  0  0  0
   -1.3125    2.1359    0.4642 H   0  0  0  0  0  0  0  0  0  0  0  0
    2.4685    2.1828   -0.3649 H   0  0  0  0  0  0  0  0  0  0  0  0
  1  2  1  0
  2  3  2  0
  3  4  1  0
  4  5  2  0
  5  6  1  0
  6  7  1  0
  7  8  1  0
  8  9  2  0
  9 10  1  0
 10 11  2  0
 11 12  1  0
 12 13  2  0
 13 14  1  0
 14 15  2  0
 15 16  1  0
 16 17  2  0
  6 18  2  0
 18  2  1  0
 17  8  1  0
 17 12  1  0
  3 19  1  0
  4 20  1  0
  5 21  1  0
  7 22  1  0
 10 23  1  0
 13 24  1  0
 14 25  1  0
 15 26  1  0
 16 27  1  0
 18 28  1  0
M  END
$$$$
[H]C([H])=C([H])C(=O)N([H])c1c([H])c([H])c([H])c(N([H])c2nc(N([H])c3c([H])c([H])c([H])c(OC([H])([H])C([H])([H])C([H])([H])N([H])C(=O)C([H])([H])C([H])([H])C([H])([H])C([H])([H])[C@]4([H])SC([H])([H])[C@]5([H])N([H])C(=O)N([H])[C@]45[H])c3[H])nc([H])c2C([H])([H])[H])c1[H]
     RDKit          3D

 86 90  0  0  0  0  0  0  0  0999 V2000
   -5.6311    0.5416    3.7978 C   0  0  0  0  0  0  0  0  0  0  0  0
   -5.1989    0.4460    2.3848 C   0  0  0  0  0  0  0  0  0  0  0  0
   -3.9088    0.7589    2.0167 C   0  0  0  0  0  0  0  0  0  0  0  0
   -3.5230    0.6607    0.7267 N   0  0  0  0  0  0  0  0  0  0  0  0
   -4.3307    0.2671   -0.2640 C   0  0  0  0  0  0  0  0  0  0  0  0
   -3.9560    0.1772   -1.6169 N   0  0  0  0  0  0  0  0  0  0  0  0
   -2.6942    0.4662   -2.1734 C   0  0  0  0  0  0  0  0  0  0  0  0
   -2.7030    0.8604   -3.5288 C   0  0  0  0  0  0  0  0  0  0  0  0
   -1.4982    1.1210   -4.1069 C   0  0  0  0  0  0  0  0  0  0  0  0
   -0.2940    1.0051   -3.3945 C   0  0  0  0  0  0  0  0  0  0  0  0
   -0.2882    0.6190   -2.0755 C   0  0  0  0  0  0  0  0  0  0  0  0
    0.8549    0.4805   -1.3362 O   0  0  0  0  0  0  0  0  0  0  0  0
    2.1403    0.6412   -1.7618 C   0  0  0  0  0  0  0  0  0  0  0  0
    2.6509   -0.3526   -2.7752 C   0  0  0  0  0  0  0  0  0  0  0  0
    2.5918   -1.7371   -2.1301 C   0  0  0  0  0  0  0  0  0  0  0  0
    3.3950   -1.8654   -0.9563 N   0  0  0  0  0  0  0  0  0  0  0  0
    4.8131   -1.7087   -0.9181 C   0  0  0  0  0  0  0  0  0  0  0  0
    5.3613   -1.4412   -2.0163 O   0  0  0  0  0  0  0  0  0  0  0  0
    5.5641   -1.8561    0.3269 C   0  0  0  0  0  0  0  0  0  0  0  0
    7.0301   -1.6319    0.2456 C   0  0  0  0  0  0  0  0  0  0  0  0
    7.4146   -0.2535   -0.1569 C   0  0  0  0  0  0  0  0  0  0  0  0
    8.9363   -0.1279   -0.2405 C   0  0  0  0  0  0  0  0  0  0  0  0
    9.6111   -0.4204    1.0775 C   0  0  2  0  0  0  0  0  0  0  0  0
    8.9962    0.7812    2.2949 S   0  0  0  0  0  0  0  0  0  0  0  0
   10.5874    1.6344    2.6526 C   0  0  0  0  0  0  0  0  0  0  0  0
   11.5535    0.5550    2.2239 C   0  0  2  0  0  0  0  0  0  0  0  0
   12.7456    1.2495    1.7724 N   0  0  0  0  0  0  0  0  0  0  0  0
   12.4644    1.6111    0.4255 C   0  0  0  0  0  0  0  0  0  0  0  0
   13.0557    2.5569   -0.1976 O   0  0  0  0  0  0  0  0  0  0  0  0
   11.4450    0.7664   -0.0867 N   0  0  0  0  0  0  0  0  0  0  0  0
   11.0603   -0.0909    0.9803 C   0  0  2  0  0  0  0  0  0  0  0  0
   -1.5406    0.3503   -1.4774 C   0  0  0  0  0  0  0  0  0  0  0  0
   -5.6089   -0.0390    0.1260 N   0  0  0  0  0  0  0  0  0  0  0  0
   -6.0508    0.0373    1.3794 C   0  0  0  0  0  0  0  0  0  0  0  0
   -7.4110   -0.2507    1.6689 N   0  0  0  0  0  0  0  0  0  0  0  0
   -8.3447   -0.7166    0.7036 C   0  0  0  0  0  0  0  0  0  0  0  0
   -7.9642   -1.5960   -0.2573 C   0  0  0  0  0  0  0  0  0  0  0  0
   -8.8864   -2.0112   -1.2274 C   0  0  0  0  0  0  0  0  0  0  0  0
  -10.1615   -1.5247   -1.1942 C   0  0  0  0  0  0  0  0  0  0  0  0
  -10.6015   -0.6213   -0.2295 C   0  0  0  0  0  0  0  0  0  0  0  0
  -11.9298   -0.1734   -0.2986 N   0  0  0  0  0  0  0  0  0  0  0  0
  -12.5915    0.7190    0.5610 C   0  0  0  0  0  0  0  0  0  0  0  0
  -12.0417    1.2557    1.5594 O   0  0  0  0  0  0  0  0  0  0  0  0
  -14.0011    1.0643    0.3041 C   0  0  0  0  0  0  0  0  0  0  0  0
  -14.6482    1.9003    1.0894 C   0  0  0  0  0  0  0  0  0  0  0  0
   -9.6584   -0.2499    0.6939 C   0  0  0  0  0  0  0  0  0  0  0  0
   -6.3504    1.3550    4.0002 H   0  0  0  0  0  0  0  0  0  0  0  0
   -6.0682   -0.4410    4.0970 H   0  0  0  0  0  0  0  0  0  0  0  0
   -4.7677    0.7163    4.4669 H   0  0  0  0  0  0  0  0  0  0  0  0
   -3.2196    1.0844    2.7992 H   0  0  0  0  0  0  0  0  0  0  0  0
   -4.7355   -0.1531   -2.2675 H   0  0  0  0  0  0  0  0  0  0  0  0
   -3.6475    0.9395   -4.0509 H   0  0  0  0  0  0  0  0  0  0  0  0
   -1.4724    1.4298   -5.1627 H   0  0  0  0  0  0  0  0  0  0  0  0
    0.6098    1.2649   -3.9207 H   0  0  0  0  0  0  0  0  0  0  0  0
    2.3478    1.6584   -2.1769 H   0  0  0  0  0  0  0  0  0  0  0  0
    2.8557    0.5309   -0.8823 H   0  0  0  0  0  0  0  0  0  0  0  0
    2.0004   -0.3689   -3.6539 H   0  0  0  0  0  0  0  0  0  0  0  0
    3.6781   -0.0516   -3.0421 H   0  0  0  0  0  0  0  0  0  0  0  0
    1.5620   -2.0319   -1.9224 H   0  0  0  0  0  0  0  0  0  0  0  0
    2.9796   -2.4369   -2.8978 H   0  0  0  0  0  0  0  0  0  0  0  0
    2.9394   -2.0986   -0.0210 H   0  0  0  0  0  0  0  0  0  0  0  0
    5.1578   -1.1340    1.0843 H   0  0  0  0  0  0  0  0  0  0  0  0
    5.3970   -2.8560    0.7955 H   0  0  0  0  0  0  0  0  0  0  0  0
    7.5528   -2.4051   -0.3737 H   0  0  0  0  0  0  0  0  0  0  0  0
    7.4447   -1.8005    1.2807 H   0  0  0  0  0  0  0  0  0  0  0  0
    7.0587    0.5150    0.5627 H   0  0  0  0  0  0  0  0  0  0  0  0
    7.0468   -0.0193   -1.1568 H   0  0  0  0  0  0  0  0  0  0  0  0
    9.1224    0.9351   -0.5095 H   0  0  0  0  0  0  0  0  0  0  0  0
    9.3175   -0.7401   -1.0684 H   0  0  0  0  0  0  0  0  0  0  0  0
    9.4421   -1.4693    1.3961 H   0  0  0  0  0  0  0  0  0  0  0  0
   10.6058    1.7826    3.7498 H   0  0  0  0  0  0  0  0  0  0  0  0
   10.6943    2.5505    2.0729 H   0  0  0  0  0  0  0  0  0  0  0  0
   11.8150   -0.1480    3.0376 H   0  0  0  0  0  0  0  0  0  0  0  0
   13.6163    1.4518    2.2821 H   0  0  0  0  0  0  0  0  0  0  0  0
   11.0724    0.7832   -1.0441 H   0  0  0  0  0  0  0  0  0  0  0  0
   11.6059   -1.0546    0.8763 H   0  0  0  0  0  0  0  0  0  0  0  0
   -1.4710    0.0351   -0.4354 H   0  0  0  0  0  0  0  0  0  0  0  0
   -7.7589   -0.1142    2.6661 H   0  0  0  0  0  0  0  0  0  0  0  0
   -6.9978   -2.0406   -0.3550 H   0  0  0  0  0  0  0  0  0  0  0  0
   -8.6081   -2.7054   -1.9921 H   0  0  0  0  0  0  0  0  0  0  0  0
  -10.8594   -1.8522   -1.9427 H   0  0  0  0  0  0  0  0  0  0  0  0
  -12.5243   -0.5460   -1.0978 H   0  0  0  0  0  0  0  0  0  0  0  0
  -14.5167    0.6340   -0.5316 H   0  0  0  0  0  0  0  0  0  0  0  0
  -15.6831    2.1459    0.8891 H   0  0  0  0  0  0  0  0  0  0  0  0
  -14.1460    2.3601    1.9606 H   0  0  0  0  0  0  0  0  0  0  0  0
   -9.9010    0.4370    1.4737 H   0  0  0  0  0  0  0  0  0  0  0  0
  1  2  1  0
  2  3  2  0
  3  4  1  0
  4  5  2  0
  5  6  1  0
  6  7  1  0
  7  8  2  0
  8  9  1  0
  9 10  2  0
 10 11  1  0
 11 12  1  0
 12 13  1  0
 13 14  1  0
 14 15  1  0
 15 16  1  0
 16 17  1  0
 17 18  2  0
 17 19  1  0
 19 20  1  0
 20 21  1  0
 21 22  1  0
 22 23  1  0
 23 24  1  0
 24 25  1  0
 25 26  1  0
 26 27  1  0
 27 28  1  0
 28 29  2  0
 28 30  1  0
 30 31  1  0
 11 32  2  0
  5 33  1  0
 33 34  2  0
 34 35  1  0
 35 36  1  0
 36 37  2  0
 37 38  1  0
 38 39  2  0
 39 40  1  0
 40 41  1  0
 41 42  1  0
 42 43  2  0
 42 44  1  0
 44 45  2  3
 40 46  2  0
 34  2  1  0
 46 36  1  0
 32  7  1  0
 31 23  1  0
 31 26  1  0
  1 47  1  0
  1 48  1  0
  1 49  1  0
  3 50  1  0
  6 51  1  0
  8 52  1  0
  9 53  1  0
 10 54  1  0
 13 55  1  0
 13 56  1  0
 14 57  1  0
 14 58  1  0
 15 59  1  0
 15 60  1  0
 16 61  1  0
 19 62  1  0
 19 63  1  0
 20 64  1  0
 20 65  1  0
 21 66  1  0
 21 67  1  0
 22 68  1  0
 22 69  1  0
 23 70  1  1
 25 71  1  0
 25 72  1  0
 26 73  1  1
 27 74  1  0
 30 75  1  0
 31 76  1  6
 32 77  1  0
 35 78  1  0
 37 79  1  0
 38 80  1  0
 39 81  1  0
 41 82  1  0
 44 83  1  0
 45 84  1  0
 45 85  1  0
 46 86  1  0
M  END
$$$$
[H]C([H])=C([H])C(=O)N1C([H])([H])C([H])([H])C([H])(C([H])([H])n2nc(C(=O)N([H])c3nc4c([H])c(Cl)c([H])c([H])c4o3)c3c(N([H])[H])nc([H])nc32)C([H])([H])C1([H])[H]
     RDKit          3D

 55 59  0  0  0  0  0  0  0  0999 V2000
    2.2139   -3.3479   -0.6666 N   0  0  0  0  0  0  0  0  0  0  0  0
    0.8651   -2.9964   -0.6034 C   0  0  0  0  0  0  0  0  0  0  0  0
   -0.0276   -3.8940   -1.0904 N   0  0  0  0  0  0  0  0  0  0  0  0
   -1.3231   -3.6546   -1.0909 C   0  0  0  0  0  0  0  0  0  0  0  0
   -1.7605   -2.5046   -0.6021 N   0  0  0  0  0  0  0  0  0  0  0  0
   -0.9209   -1.5605   -0.0987 C   0  0  0  0  0  0  0  0  0  0  0  0
   -1.1174   -0.3532    0.4481 N   0  0  0  0  0  0  0  0  0  0  0  0
   -2.3477    0.3571    0.6331 C   0  0  0  0  0  0  0  0  0  0  0  0
   -2.7042    1.4003   -0.3748 C   0  0  0  0  0  0  0  0  0  0  0  0
   -2.8350    0.9003   -1.7356 C   0  0  0  0  0  0  0  0  0  0  0  0
   -4.2600    0.8569   -2.2596 C   0  0  0  0  0  0  0  0  0  0  0  0
   -5.1677    0.7325   -1.1643 N   0  0  0  0  0  0  0  0  0  0  0  0
   -5.1768    2.0527   -0.4195 C   0  0  0  0  0  0  0  0  0  0  0  0
   -3.8383    2.1990    0.1831 C   0  0  0  0  0  0  0  0  0  0  0  0
   -5.9341   -0.3106   -0.6851 C   0  0  0  0  0  0  0  0  0  0  0  0
   -6.7505   -0.0041    0.3264 O   0  0  0  0  0  0  0  0  0  0  0  0
   -6.0028   -1.6701   -1.0863 C   0  0  0  0  0  0  0  0  0  0  0  0
   -5.3360   -2.2894   -1.9906 C   0  0  0  0  0  0  0  0  0  0  0  0
    0.0685    0.1451    0.7868 N   0  0  0  0  0  0  0  0  0  0  0  0
    1.0715   -0.7201    0.4708 C   0  0  0  0  0  0  0  0  0  0  0  0
    2.4911   -0.4561    0.7041 C   0  0  0  0  0  0  0  0  0  0  0  0
    3.4216   -1.2606    0.5814 O   0  0  0  0  0  0  0  0  0  0  0  0
    2.8863    0.8693    1.1197 N   0  0  0  0  0  0  0  0  0  0  0  0
    4.2382    1.1846    1.3547 C   0  0  0  0  0  0  0  0  0  0  0  0
    5.2489    0.2823    1.2138 N   0  0  0  0  0  0  0  0  0  0  0  0
    6.4038    0.8599    1.5000 C   0  0  0  0  0  0  0  0  0  0  0  0
    7.7145    0.3770    1.5084 C   0  0  0  0  0  0  0  0  0  0  0  0
    8.7352    1.2182    1.8532 C   0  0  0  0  0  0  0  0  0  0  0  0
   10.3692    0.5990    1.8589 Cl  0  0  0  0  0  0  0  0  0  0  0  0
    8.4263    2.5213    2.1819 C   0  0  0  0  0  0  0  0  0  0  0  0
    7.1361    3.0072    2.1765 C   0  0  0  0  0  0  0  0  0  0  0  0
    6.1066    2.1658    1.8307 C   0  0  0  0  0  0  0  0  0  0  0  0
    4.7988    2.2859    1.7218 O   0  0  0  0  0  0  0  0  0  0  0  0
    0.4645   -1.7984   -0.0883 C   0  0  0  0  0  0  0  0  0  0  0  0
    2.7936   -3.0560   -1.4820 H   0  0  0  0  0  0  0  0  0  0  0  0
    2.6743   -3.9150    0.0730 H   0  0  0  0  0  0  0  0  0  0  0  0
   -1.9891   -4.4261   -1.5003 H   0  0  0  0  0  0  0  0  0  0  0  0
   -3.1459   -0.4453    0.7045 H   0  0  0  0  0  0  0  0  0  0  0  0
   -2.3572    0.7831    1.6869 H   0  0  0  0  0  0  0  0  0  0  0  0
   -1.8114    2.1157   -0.3678 H   0  0  0  0  0  0  0  0  0  0  0  0
   -2.3135    1.5993   -2.4768 H   0  0  0  0  0  0  0  0  0  0  0  0
   -2.3872   -0.0656   -1.9655 H   0  0  0  0  0  0  0  0  0  0  0  0
   -4.4990    1.8828   -2.7359 H   0  0  0  0  0  0  0  0  0  0  0  0
   -4.4314    0.1767   -3.0770 H   0  0  0  0  0  0  0  0  0  0  0  0
   -5.4649    2.8181   -1.1552 H   0  0  0  0  0  0  0  0  0  0  0  0
   -5.9825    1.9340    0.3227 H   0  0  0  0  0  0  0  0  0  0  0  0
   -3.9451    2.0193    1.2903 H   0  0  0  0  0  0  0  0  0  0  0  0
   -3.6013    3.3057    0.1392 H   0  0  0  0  0  0  0  0  0  0  0  0
   -6.7496   -2.3484   -0.5509 H   0  0  0  0  0  0  0  0  0  0  0  0
   -4.5917   -1.8589   -2.6077 H   0  0  0  0  0  0  0  0  0  0  0  0
   -5.5406   -3.3750   -2.1594 H   0  0  0  0  0  0  0  0  0  0  0  0
    2.1536    1.5760    1.2371 H   0  0  0  0  0  0  0  0  0  0  0  0
    7.8705   -0.6582    1.2376 H   0  0  0  0  0  0  0  0  0  0  0  0
    9.2469    3.1704    2.4515 H   0  0  0  0  0  0  0  0  0  0  0  0
    6.9140    4.0369    2.4386 H   0  0  0  0  0  0  0  0  0  0  0  0
  1  2  1  0
  2  3  2  0
  3  4  1  0
  4  5  2  0
  5  6  1  0
  6  7  1  0
  7  8  1  0
  8  9  1  0
  9 10  1  0
 10 11  1  0
 11 12  1  0
 12 13  1  0
 13 14  1  0
 12 15  1  0
 15 16  2  0
 15 17  1  0
 17 18  2  3
  7 19  1  0
 19 20  2  0
 20 21  1  0
 21 22  2  0
 21 23  1  0
 23 24  1  0
 24 25  2  0
 25 26  1  0
 26 27  2  0
 27 28  1  0
 28 29  1  0
 28 30  2  0
 30 31  1  0
 31 32  2  0
 32 33  1  0
 20 34  1  0
 34  2  1  0
 34  6  2  0
 14  9  1  0
 33 24  1  0
 32 26  1  0
  1 35  1  0
  1 36  1  0
  4 37  1  0
  8 38  1  0
  8 39  1  0
  9 40  1  0
 10 41  1  0
 10 42  1  0
 11 43  1  0
 11 44  1  0
 13 45  1  0
 13 46  1  0
 14 47  1  0
 14 48  1  0
 17 49  1  0
 18 50  1  0
 18 51  1  0
 23 52  1  0
 27 53  1  0
 30 54  1  0
 31 55  1  0
M  END
$$$$
[H]c1nc(N([H])c2c([H])c([H])c(OC([H])([H])c3c([H])c([H])c([H])c(F)c3[H])c(Cl)c2[H])c(C#CC([H])([H])C([H])([H])C([H])([H])N2C([H])([H])C([H])([H])OC([H])([H])C2([H])[H])c(C([H])([H])[H])n1
     RDKit          3D

 63 66  0  0  0  0  0  0  0  0999 V2000
   -2.7959   -0.8499    3.2355 C   0  0  0  0  0  0  0  0  0  0  0  0
   -1.3986   -0.3530    3.0364 C   0  0  0  0  0  0  0  0  0  0  0  0
   -0.6293    0.0785    4.0430 N   0  0  0  0  0  0  0  0  0  0  0  0
    0.6364    0.5239    3.8294 C   0  0  0  0  0  0  0  0  0  0  0  0
    1.1243    0.5305    2.5807 N   0  0  0  0  0  0  0  0  0  0  0  0
    0.4414    0.1215    1.5032 C   0  0  0  0  0  0  0  0  0  0  0  0
    0.8813    0.1233    0.1878 N   0  0  0  0  0  0  0  0  0  0  0  0
    2.1560    0.5192   -0.2449 C   0  0  0  0  0  0  0  0  0  0  0  0
    3.2750    0.6192    0.5277 C   0  0  0  0  0  0  0  0  0  0  0  0
    4.5133    1.0420    0.0407 C   0  0  0  0  0  0  0  0  0  0  0  0
    4.6756    1.3857   -1.2686 C   0  0  0  0  0  0  0  0  0  0  0  0
    5.8798    1.8137   -1.8092 O   0  0  0  0  0  0  0  0  0  0  0  0
    7.0862    1.9415   -1.1114 C   0  0  0  0  0  0  0  0  0  0  0  0
    7.6024    0.6857   -0.5554 C   0  0  0  0  0  0  0  0  0  0  0  0
    7.2267   -0.5069   -1.1549 C   0  0  0  0  0  0  0  0  0  0  0  0
    7.6909   -1.6997   -0.6599 C   0  0  0  0  0  0  0  0  0  0  0  0
    8.5292   -1.7001    0.4326 C   0  0  0  0  0  0  0  0  0  0  0  0
    8.9149   -0.5370    1.0425 C   0  0  0  0  0  0  0  0  0  0  0  0
    9.7331   -0.5779    2.1050 F   0  0  0  0  0  0  0  0  0  0  0  0
    8.4511    0.6574    0.5482 C   0  0  0  0  0  0  0  0  0  0  0  0
    3.5469    1.2946   -2.0930 C   0  0  0  0  0  0  0  0  0  0  0  0
    3.7583    1.7402   -3.7895 Cl  0  0  0  0  0  0  0  0  0  0  0  0
    2.3481    0.8810   -1.6001 C   0  0  0  0  0  0  0  0  0  0  0  0
   -0.8710   -0.3342    1.7686 C   0  0  0  0  0  0  0  0  0  0  0  0
   -1.6751   -0.7905    0.6819 C   0  0  0  0  0  0  0  0  0  0  0  0
   -2.3666   -1.1589   -0.2339 C   0  0  0  0  0  0  0  0  0  0  0  0
   -3.2053   -1.5772   -1.3316 C   0  0  0  0  0  0  0  0  0  0  0  0
   -3.9461   -0.4178   -1.9695 C   0  0  0  0  0  0  0  0  0  0  0  0
   -4.8412    0.2887   -1.0029 C   0  0  0  0  0  0  0  0  0  0  0  0
   -5.8571   -0.5311   -0.4263 N   0  0  0  0  0  0  0  0  0  0  0  0
   -6.6478    0.2442    0.4761 C   0  0  0  0  0  0  0  0  0  0  0  0
   -7.8566    0.8735   -0.1344 C   0  0  0  0  0  0  0  0  0  0  0  0
   -8.6121   -0.0545   -0.8608 O   0  0  0  0  0  0  0  0  0  0  0  0
   -7.7889   -0.4373   -1.9454 C   0  0  0  0  0  0  0  0  0  0  0  0
   -6.6640   -1.2502   -1.3466 C   0  0  0  0  0  0  0  0  0  0  0  0
   -3.0595   -0.8617    4.3003 H   0  0  0  0  0  0  0  0  0  0  0  0
   -3.4707   -0.1461    2.6783 H   0  0  0  0  0  0  0  0  0  0  0  0
   -2.9127   -1.8288    2.7314 H   0  0  0  0  0  0  0  0  0  0  0  0
    1.2386    0.8682    4.6635 H   0  0  0  0  0  0  0  0  0  0  0  0
    0.2029   -0.2015   -0.5606 H   0  0  0  0  0  0  0  0  0  0  0  0
    3.2666    0.3564    1.5704 H   0  0  0  0  0  0  0  0  0  0  0  0
    5.3378    1.1001    0.7257 H   0  0  0  0  0  0  0  0  0  0  0  0
    6.9208    2.7206   -0.3299 H   0  0  0  0  0  0  0  0  0  0  0  0
    7.8703    2.3819   -1.7736 H   0  0  0  0  0  0  0  0  0  0  0  0
    6.5716   -0.4856   -2.0068 H   0  0  0  0  0  0  0  0  0  0  0  0
    7.3881   -2.6223   -1.1397 H   0  0  0  0  0  0  0  0  0  0  0  0
    8.8775   -2.6511    0.7988 H   0  0  0  0  0  0  0  0  0  0  0  0
    8.7260    1.5939    0.9927 H   0  0  0  0  0  0  0  0  0  0  0  0
    1.5002    0.8224   -2.2621 H   0  0  0  0  0  0  0  0  0  0  0  0
   -2.5511   -2.0357   -2.1003 H   0  0  0  0  0  0  0  0  0  0  0  0
   -3.9634   -2.3347   -1.0648 H   0  0  0  0  0  0  0  0  0  0  0  0
   -4.4324   -0.7087   -2.9163 H   0  0  0  0  0  0  0  0  0  0  0  0
   -3.1458    0.3200   -2.2638 H   0  0  0  0  0  0  0  0  0  0  0  0
   -4.1903    0.6505   -0.1641 H   0  0  0  0  0  0  0  0  0  0  0  0
   -5.2470    1.1901   -1.4792 H   0  0  0  0  0  0  0  0  0  0  0  0
   -6.0131    1.0818    0.8817 H   0  0  0  0  0  0  0  0  0  0  0  0
   -6.9807   -0.3264    1.3756 H   0  0  0  0  0  0  0  0  0  0  0  0
   -8.5286    1.2026    0.7073 H   0  0  0  0  0  0  0  0  0  0  0  0
   -7.6282    1.7084   -0.8193 H   0  0  0  0  0  0  0  0  0  0  0  0
   -8.3747   -1.0781   -2.6021 H   0  0  0  0  0  0  0  0  0  0  0  0
   -7.4375    0.5029   -2.3975 H   0  0  0  0  0  0  0  0  0  0  0  0
   -6.1203   -1.7197   -2.1708 H   0  0  0  0  0  0  0  0  0  0  0  0
   -7.1598   -2.0876   -0.7811 H   0  0  0  0  0  0  0  0  0  0  0  0
  1  2  1  0
  2  3  2  0
  3  4  1  0
  4  5  2  0
  5  6  1  0
  6  7  1  0
  7  8  1  0
  8  9  2  0
  9 10  1  0
 10 11  2  0
 11 12  1  0
 12 13  1  0
 13 14  1  0
 14 15  2  0
 15 16  1  0
 16 17  2  0
 17 18  1  0
 18 19  1  0
 18 20  2  0
 11 21  1  0
 21 22  1  0
 21 23  2  0
  6 24  2  0
 24 25  1  0
 25 26  3  0
 26 27  1  0
 27 28  1  0
 28 29  1  0
 29 30  1  0
 30 31  1  0
 31 32  1  0
 32 33  1  0
 33 34  1  0
 34 35  1  0
 24  2  1  0
 35 30  1  0
 23  8  1  0
 20 14  1  0
  1 36  1  0
  1 37  1  0
  1 38  1  0
  4 39  1  0
  7 40  1  0
  9 41  1  0
 10 42  1  0
 13 43  1  0
 13 44  1  0
 15 45  1  0
 16 46  1  0
 17 47  1  0
 20 48  1  0
 23 49  1  0
 27 50  1  0
 27 51  1  0
 28 52  1  0
 28 53  1  0
 29 54  1  0
 29 55  1  0
 31 56  1  0
 31 57  1  0
 32 58  1  0
 32 59  1  0
 34 60  1  0
 34 61  1  0
 35 62  1  0
 35 63  1  0
M  END
$$$$
[H]c1nc(N([H])c2c([H])c([H])c(OC([H])([H])c3c([H])c([H])c([H])c(F)c3[H])c(Cl)c2[H])c(C#CC([H])([H])C([H])([H])C([H])([H])N2C([H])([H])C([H])([H])N(C([H])([H])C([H])([H])[H])C([H])([H])C2([H])[H])c(C([H])([H])[H])n1
     RDKit          3D

 70 73  0  0  0  0  0  0  0  0999 V2000
    9.8476    0.1533    1.6758 C   0  0  0  0  0  0  0  0  0  0  0  0
    8.9036    0.8812    0.7697 C   0  0  0  0  0  0  0  0  0  0  0  0
    7.5323    0.4676    0.9289 N   0  0  0  0  0  0  0  0  0  0  0  0
    7.2855   -0.8681    0.4849 C   0  0  0  0  0  0  0  0  0  0  0  0
    5.8564   -1.1646    0.1474 C   0  0  0  0  0  0  0  0  0  0  0  0
    5.2760   -0.2133   -0.7598 N   0  0  0  0  0  0  0  0  0  0  0  0
    4.0135    0.2064   -0.2620 C   0  0  0  0  0  0  0  0  0  0  0  0
    3.3719    1.2121   -1.1619 C   0  0  0  0  0  0  0  0  0  0  0  0
    2.0326    1.6764   -0.6724 C   0  0  0  0  0  0  0  0  0  0  0  0
    1.1662    0.4789   -0.6033 C   0  0  0  0  0  0  0  0  0  0  0  0
    0.4464   -0.4947   -0.5677 C   0  0  0  0  0  0  0  0  0  0  0  0
   -0.4184   -1.6306   -0.5473 C   0  0  0  0  0  0  0  0  0  0  0  0
    0.0675   -2.8435   -0.9608 C   0  0  0  0  0  0  0  0  0  0  0  0
    1.4794   -2.9116   -1.4026 C   0  0  0  0  0  0  0  0  0  0  0  0
   -0.7474   -3.9077   -0.9485 N   0  0  0  0  0  0  0  0  0  0  0  0
   -2.0286   -3.8430   -0.5470 C   0  0  0  0  0  0  0  0  0  0  0  0
   -2.5180   -2.6685   -0.1406 N   0  0  0  0  0  0  0  0  0  0  0  0
   -1.7602   -1.5649   -0.1268 C   0  0  0  0  0  0  0  0  0  0  0  0
   -2.1934   -0.2932    0.3166 N   0  0  0  0  0  0  0  0  0  0  0  0
   -3.4818    0.0725    0.7588 C   0  0  0  0  0  0  0  0  0  0  0  0
   -4.6036   -0.6009    0.3688 C   0  0  0  0  0  0  0  0  0  0  0  0
   -5.8797   -0.2481    0.8345 C   0  0  0  0  0  0  0  0  0  0  0  0
   -5.9914    0.8153    1.7134 C   0  0  0  0  0  0  0  0  0  0  0  0
   -7.2058    1.2097    2.2076 O   0  0  0  0  0  0  0  0  0  0  0  0
   -8.4513    0.6621    1.9157 C   0  0  0  0  0  0  0  0  0  0  0  0
   -8.7899    0.8034    0.4831 C   0  0  0  0  0  0  0  0  0  0  0  0
   -8.1979    1.8031   -0.2880 C   0  0  0  0  0  0  0  0  0  0  0  0
   -8.5032    1.9520   -1.6263 C   0  0  0  0  0  0  0  0  0  0  0  0
   -9.4043    1.1148   -2.2413 C   0  0  0  0  0  0  0  0  0  0  0  0
   -9.9810    0.1308   -1.4637 C   0  0  0  0  0  0  0  0  0  0  0  0
  -10.8708   -0.7042   -2.0501 F   0  0  0  0  0  0  0  0  0  0  0  0
   -9.6914   -0.0359   -0.1274 C   0  0  0  0  0  0  0  0  0  0  0  0
   -4.8805    1.5234    2.1325 C   0  0  0  0  0  0  0  0  0  0  0  0
   -5.1103    2.8494    3.2421 Cl  0  0  0  0  0  0  0  0  0  0  0  0
   -3.6553    1.1412    1.6506 C   0  0  0  0  0  0  0  0  0  0  0  0
    6.2246    0.8106   -1.0429 C   0  0  0  0  0  0  0  0  0  0  0  0
    6.7055    1.4278    0.2244 C   0  0  0  0  0  0  0  0  0  0  0  0
    9.3650   -0.0681    2.6462 H   0  0  0  0  0  0  0  0  0  0  0  0
   10.3113   -0.7287    1.1972 H   0  0  0  0  0  0  0  0  0  0  0  0
   10.6897    0.8545    1.9058 H   0  0  0  0  0  0  0  0  0  0  0  0
    9.2405    0.7699   -0.2815 H   0  0  0  0  0  0  0  0  0  0  0  0
    8.9444    1.9655    1.0142 H   0  0  0  0  0  0  0  0  0  0  0  0
    7.5607   -1.5554    1.3378 H   0  0  0  0  0  0  0  0  0  0  0  0
    7.9796   -1.1710   -0.3471 H   0  0  0  0  0  0  0  0  0  0  0  0
    5.2865   -1.2568    1.1026 H   0  0  0  0  0  0  0  0  0  0  0  0
    5.8292   -2.1608   -0.3489 H   0  0  0  0  0  0  0  0  0  0  0  0
    4.0970    0.6745    0.7473 H   0  0  0  0  0  0  0  0  0  0  0  0
    3.3518   -0.6832   -0.2143 H   0  0  0  0  0  0  0  0  0  0  0  0
    4.0243    2.1099   -1.1975 H   0  0  0  0  0  0  0  0  0  0  0  0
    3.3236    0.8416   -2.2238 H   0  0  0  0  0  0  0  0  0  0  0  0
    1.6345    2.3944   -1.4418 H   0  0  0  0  0  0  0  0  0  0  0  0
    2.1707    2.1469    0.3102 H   0  0  0  0  0  0  0  0  0  0  0  0
    2.1170   -2.9710   -0.4732 H   0  0  0  0  0  0  0  0  0  0  0  0
    1.6568   -3.8798   -1.9247 H   0  0  0  0  0  0  0  0  0  0  0  0
    1.8052   -2.0694   -2.0100 H   0  0  0  0  0  0  0  0  0  0  0  0
   -2.6630   -4.7534   -0.5555 H   0  0  0  0  0  0  0  0  0  0  0  0
   -1.4909    0.5142    0.3324 H   0  0  0  0  0  0  0  0  0  0  0  0
   -4.5994   -1.4277   -0.3241 H   0  0  0  0  0  0  0  0  0  0  0  0
   -6.7140   -0.8277    0.4924 H   0  0  0  0  0  0  0  0  0  0  0  0
   -8.4978   -0.4203    2.1740 H   0  0  0  0  0  0  0  0  0  0  0  0
   -9.2812    1.1542    2.4767 H   0  0  0  0  0  0  0  0  0  0  0  0
   -7.4927    2.4505    0.2145 H   0  0  0  0  0  0  0  0  0  0  0  0
   -8.0319    2.7325   -2.2002 H   0  0  0  0  0  0  0  0  0  0  0  0
   -9.6505    1.2242   -3.2923 H   0  0  0  0  0  0  0  0  0  0  0  0
  -10.1661   -0.8150    0.4323 H   0  0  0  0  0  0  0  0  0  0  0  0
   -2.7723    1.6745    1.9600 H   0  0  0  0  0  0  0  0  0  0  0  0
    7.1132    0.3023   -1.5222 H   0  0  0  0  0  0  0  0  0  0  0  0
    5.8856    1.5449   -1.8003 H   0  0  0  0  0  0  0  0  0  0  0  0
    5.8621    1.6748    0.9225 H   0  0  0  0  0  0  0  0  0  0  0  0
    7.2666    2.3601    0.0070 H   0  0  0  0  0  0  0  0  0  0  0  0
  1  2  1  0
  2  3  1  0
  3  4  1  0
  4  5  1  0
  5  6  1  0
  6  7  1  0
  7  8  1  0
  8  9  1  0
  9 10  1  0
 10 11  3  0
 11 12  1  0
 12 13  2  0
 13 14  1  0
 13 15  1  0
 15 16  2  0
 16 17  1  0
 17 18  2  0
 18 19  1  0
 19 20  1  0
 20 21  2  0
 21 22  1  0
 22 23  2  0
 23 24  1  0
 24 25  1  0
 25 26  1  0
 26 27  2  0
 27 28  1  0
 28 29  2  0
 29 30  1  0
 30 31  1  0
 30 32  2  0
 23 33  1  0
 33 34  1  0
 33 35  2  0
  6 36  1  0
 36 37  1  0
 37  3  1  0
 18 12  1  0
 35 20  1  0
 32 26  1  0
  1 38  1  0
  1 39  1  0
  1 40  1  0
  2 41  1  0
  2 42  1  0
  4 43  1  0
  4 44  1  0
  5 45  1  0
  5 46  1  0
  7 47  1  0
  7 48  1  0
  8 49  1  0
  8 50  1  0
  9 51  1  0
  9 52  1  0
 14 53  1  0
 14 54  1  0
 14 55  1  0
 16 56  1  0
 19 57  1  0
 21 58  1  0
 22 59  1  0
 25 60  1  0
 25 61  1  0
 27 62  1  0
 28 63  1  0
 29 64  1  0
 32 65  1  0
 35 66  1  0
 36 67  1  0
 36 68  1  0
 37 69  1  0
 37 70  1  0
M  END
$$$$
[H]c1nc(N([H])c2c([H])c([H])c([H])c(Br)c2[H])c2c([H])c(N([H])C(=O)N(N=O)C([H])([H])C([H])([H])Cl)c([H])c([H])c2n1
     RDKit          3D

 41 43  0  0  0  0  0  0  0  0999 V2000
   -5.8478    2.7767    1.4012 Cl  0  0  0  0  0  0  0  0  0  0  0  0
   -4.4227    2.5548    0.3350 C   0  0  0  0  0  0  0  0  0  0  0  0
   -4.7955    1.5082   -0.6968 C   0  0  0  0  0  0  0  0  0  0  0  0
   -5.1377    0.2557   -0.0962 N   0  0  0  0  0  0  0  0  0  0  0  0
   -6.4489   -0.0105    0.2556 N   0  0  0  0  0  0  0  0  0  0  0  0
   -6.7792   -0.6022    1.3068 O   0  0  0  0  0  0  0  0  0  0  0  0
   -4.1028   -0.7180    0.1376 C   0  0  0  0  0  0  0  0  0  0  0  0
   -4.4825   -1.8026    0.6576 O   0  0  0  0  0  0  0  0  0  0  0  0
   -2.7630   -0.4663   -0.1944 N   0  0  0  0  0  0  0  0  0  0  0  0
   -1.6637   -1.3273   -0.0270 C   0  0  0  0  0  0  0  0  0  0  0  0
   -1.7787   -2.6542    0.2423 C   0  0  0  0  0  0  0  0  0  0  0  0
   -0.6374   -3.4567    0.4159 C   0  0  0  0  0  0  0  0  0  0  0  0
    0.6180   -2.9375    0.3205 C   0  0  0  0  0  0  0  0  0  0  0  0
    1.7297   -3.6749    0.4822 N   0  0  0  0  0  0  0  0  0  0  0  0
    2.9649   -3.1534    0.3879 C   0  0  0  0  0  0  0  0  0  0  0  0
    3.0864   -1.8461    0.1217 N   0  0  0  0  0  0  0  0  0  0  0  0
    2.0247   -1.0162   -0.0586 C   0  0  0  0  0  0  0  0  0  0  0  0
    2.2038    0.3490   -0.3758 N   0  0  0  0  0  0  0  0  0  0  0  0
    3.4643    0.9667   -0.4492 C   0  0  0  0  0  0  0  0  0  0  0  0
    3.6521    2.0000   -1.3427 C   0  0  0  0  0  0  0  0  0  0  0  0
    4.8634    2.6710   -1.4345 C   0  0  0  0  0  0  0  0  0  0  0  0
    5.9090    2.3107   -0.6248 C   0  0  0  0  0  0  0  0  0  0  0  0
    5.7371    1.2846    0.2697 C   0  0  0  0  0  0  0  0  0  0  0  0
    7.1989    0.8024    1.3813 Br  0  0  0  0  0  0  0  0  0  0  0  0
    4.5031    0.6151    0.3505 C   0  0  0  0  0  0  0  0  0  0  0  0
    0.7660   -1.5646    0.0414 C   0  0  0  0  0  0  0  0  0  0  0  0
   -0.3507   -0.7940   -0.1250 C   0  0  0  0  0  0  0  0  0  0  0  0
   -4.2363    3.5311   -0.1361 H   0  0  0  0  0  0  0  0  0  0  0  0
   -3.5951    2.2161    0.9915 H   0  0  0  0  0  0  0  0  0  0  0  0
   -5.7461    1.8974   -1.1843 H   0  0  0  0  0  0  0  0  0  0  0  0
   -4.0895    1.4330   -1.5365 H   0  0  0  0  0  0  0  0  0  0  0  0
   -2.5806    0.5107   -0.6261 H   0  0  0  0  0  0  0  0  0  0  0  0
   -2.7176   -3.1691    0.3272 H   0  0  0  0  0  0  0  0  0  0  0  0
   -0.7374   -4.5076    0.6296 H   0  0  0  0  0  0  0  0  0  0  0  0
    3.8657   -3.7386    0.5165 H   0  0  0  0  0  0  0  0  0  0  0  0
    1.3855    0.9882   -0.5791 H   0  0  0  0  0  0  0  0  0  0  0  0
    2.8723    2.3475   -2.0211 H   0  0  0  0  0  0  0  0  0  0  0  0
    4.9976    3.4937   -2.1527 H   0  0  0  0  0  0  0  0  0  0  0  0
    6.8666    2.8463   -0.7028 H   0  0  0  0  0  0  0  0  0  0  0  0
    4.4833   -0.1591    1.1067 H   0  0  0  0  0  0  0  0  0  0  0  0
   -0.2794    0.2403   -0.3330 H   0  0  0  0  0  0  0  0  0  0  0  0
  1  2  1  0
  2  3  1  0
  3  4  1  0
  4  5  1  0
  5  6  2  0
  4  7  1  0
  7  8  2  0
  7  9  1  0
  9 10  1  0
 10 11  2  0
 11 12  1  0
 12 13  2  0
 13 14  1  0
 14 15  2  0
 15 16  1  0
 16 17  2  0
 17 18  1  0
 18 19  1  0
 19 20  2  0
 20 21  1  0
 21 22  2  0
 22 23  1  0
 23 24  1  0
 23 25  2  0
 17 26  1  0
 26 27  2  0
 27 10  1  0
 26 13  1  0
 25 19  1  0
  2 28  1  0
  2 29  1  0
  3 30  1  0
  3 31  1  0
  9 32  1  0
 11 33  1  0
 12 34  1  0
 15 35  1  0
 18 36  1  0
 20 37  1  0
 21 38  1  0
 22 39  1  0
 25 40  1  0
 27 41  1  0
M  END
$$$$
[H]/C(=C(/F)C(=O)N([H])c1c(OC([H])([H])C([H])([H])[H])c([H])c2nc([H])nc(N([H])c3c([H])c([H])c(OC([H])([H])C4([H])C([H])([H])C4([H])[H])c(Cl)c3[H])c2c1[H])C([H])([H])N(C([H])([H])[H])C([H])([H])[H]
     RDKit          3D

 65 68  0  0  0  0  0  0  0  0999 V2000
   -3.5758   -4.7153   -2.8873 C   0  0  0  0  0  0  0  0  0  0  0  0
   -3.9839   -4.4481   -1.4685 C   0  0  0  0  0  0  0  0  0  0  0  0
   -3.5484   -3.2197   -1.0271 O   0  0  0  0  0  0  0  0  0  0  0  0
   -2.2540   -2.7793   -0.9108 C   0  0  0  0  0  0  0  0  0  0  0  0
   -1.1911   -3.5793   -1.2360 C   0  0  0  0  0  0  0  0  0  0  0  0
    0.1106   -3.1237   -1.1134 C   0  0  0  0  0  0  0  0  0  0  0  0
    1.1527   -3.9350   -1.4442 N   0  0  0  0  0  0  0  0  0  0  0  0
    2.4143   -3.4739   -1.3205 C   0  0  0  0  0  0  0  0  0  0  0  0
    2.6899   -2.2476   -0.8848 N   0  0  0  0  0  0  0  0  0  0  0  0
    1.7122   -1.4008   -0.5433 C   0  0  0  0  0  0  0  0  0  0  0  0
    1.9750   -0.0786   -0.1018 N   0  0  0  0  0  0  0  0  0  0  0  0
    3.2459    0.5070    0.0848 C   0  0  0  0  0  0  0  0  0  0  0  0
    4.4065   -0.1800    0.3199 C   0  0  0  0  0  0  0  0  0  0  0  0
    5.6030    0.5075    0.4517 C   0  0  0  0  0  0  0  0  0  0  0  0
    5.7055    1.8885    0.3598 C   0  0  0  0  0  0  0  0  0  0  0  0
    6.8449    2.4924    0.4874 O   0  0  0  0  0  0  0  0  0  0  0  0
    8.1328    2.6403    0.6821 C   0  0  0  0  0  0  0  0  0  0  0  0
    8.7571    2.2538    1.9954 C   0  0  0  0  0  0  0  0  0  0  0  0
    8.7318    0.8685    2.5464 C   0  0  0  0  0  0  0  0  0  0  0  0
    7.8616    1.9667    3.1668 C   0  0  0  0  0  0  0  0  0  0  0  0
    4.4970    2.5954    0.1163 C   0  0  0  0  0  0  0  0  0  0  0  0
    4.5724    4.3422   -0.0088 Cl  0  0  0  0  0  0  0  0  0  0  0  0
    3.3409    1.8921   -0.0088 C   0  0  0  0  0  0  0  0  0  0  0  0
    0.4123   -1.8593   -0.6644 C   0  0  0  0  0  0  0  0  0  0  0  0
   -0.6965   -1.0715   -0.3414 C   0  0  0  0  0  0  0  0  0  0  0  0
   -1.9993   -1.4734   -0.4445 C   0  0  0  0  0  0  0  0  0  0  0  0
   -3.1146   -0.6655   -0.1271 N   0  0  0  0  0  0  0  0  0  0  0  0
   -3.1129    0.6147    0.3851 C   0  0  0  0  0  0  0  0  0  0  0  0
   -2.0574    1.2365    0.6447 O   0  0  0  0  0  0  0  0  0  0  0  0
   -4.3602    1.3345    0.6593 C   0  0  0  0  0  0  0  0  0  0  0  0
   -4.3120    2.6154    1.1783 F   0  0  0  0  0  0  0  0  0  0  0  0
   -5.5585    0.8374    0.4431 C   0  0  0  0  0  0  0  0  0  0  0  0
   -6.7610    1.6874    0.7700 C   0  0  0  0  0  0  0  0  0  0  0  0
   -7.4754    1.8464   -0.4861 N   0  0  0  0  0  0  0  0  0  0  0  0
   -8.6730    2.6581   -0.3260 C   0  0  0  0  0  0  0  0  0  0  0  0
   -6.5540    2.4741   -1.4386 C   0  0  0  0  0  0  0  0  0  0  0  0
   -3.0284   -5.6729   -3.0147 H   0  0  0  0  0  0  0  0  0  0  0  0
   -4.5043   -4.7114   -3.5226 H   0  0  0  0  0  0  0  0  0  0  0  0
   -2.9155   -3.9072   -3.2684 H   0  0  0  0  0  0  0  0  0  0  0  0
   -5.0864   -4.5392   -1.3373 H   0  0  0  0  0  0  0  0  0  0  0  0
   -3.4575   -5.2326   -0.8470 H   0  0  0  0  0  0  0  0  0  0  0  0
   -1.3188   -4.5980   -1.5940 H   0  0  0  0  0  0  0  0  0  0  0  0
    3.1901   -4.1992   -1.6107 H   0  0  0  0  0  0  0  0  0  0  0  0
    1.1688    0.5611    0.1249 H   0  0  0  0  0  0  0  0  0  0  0  0
    4.4464   -1.2534    0.4274 H   0  0  0  0  0  0  0  0  0  0  0  0
    6.4716   -0.0820    0.6179 H   0  0  0  0  0  0  0  0  0  0  0  0
    8.5331    3.6975    0.4971 H   0  0  0  0  0  0  0  0  0  0  0  0
    8.6940    1.9830   -0.0927 H   0  0  0  0  0  0  0  0  0  0  0  0
    9.6842    2.8289    2.3198 H   0  0  0  0  0  0  0  0  0  0  0  0
    8.2421    0.0251    2.0703 H   0  0  0  0  0  0  0  0  0  0  0  0
    9.6096    0.5371    3.1870 H   0  0  0  0  0  0  0  0  0  0  0  0
    6.7651    1.8684    3.0351 H   0  0  0  0  0  0  0  0  0  0  0  0
    8.1434    2.3114    4.1755 H   0  0  0  0  0  0  0  0  0  0  0  0
    2.4367    2.4654   -0.1950 H   0  0  0  0  0  0  0  0  0  0  0  0
   -0.4391   -0.0863    0.0077 H   0  0  0  0  0  0  0  0  0  0  0  0
   -4.0883   -1.0914   -0.3040 H   0  0  0  0  0  0  0  0  0  0  0  0
   -5.7082   -0.1516    0.0416 H   0  0  0  0  0  0  0  0  0  0  0  0
   -7.4257    1.1821    1.4857 H   0  0  0  0  0  0  0  0  0  0  0  0
   -6.4626    2.6678    1.1574 H   0  0  0  0  0  0  0  0  0  0  0  0
   -9.5678    2.0525   -0.6203 H   0  0  0  0  0  0  0  0  0  0  0  0
   -8.6113    3.4933   -1.0550 H   0  0  0  0  0  0  0  0  0  0  0  0
   -8.7618    2.9864    0.7187 H   0  0  0  0  0  0  0  0  0  0  0  0
   -5.7205    1.7669   -1.6048 H   0  0  0  0  0  0  0  0  0  0  0  0
   -6.1183    3.4014   -1.0496 H   0  0  0  0  0  0  0  0  0  0  0  0
   -7.1092    2.6891   -2.3820 H   0  0  0  0  0  0  0  0  0  0  0  0
  1  2  1  0
  2  3  1  0
  3  4  1  0
  4  5  2  0
  5  6  1  0
  6  7  2  0
  7  8  1  0
  8  9  2  0
  9 10  1  0
 10 11  1  0
 11 12  1  0
 12 13  2  0
 13 14  1  0
 14 15  2  0
 15 16  1  0
 16 17  1  0
 17 18  1  0
 18 19  1  0
 19 20  1  0
 15 21  1  0
 21 22  1  0
 21 23  2  0
 10 24  2  0
 24 25  1  0
 25 26  2  0
 26 27  1  0
 27 28  1  0
 28 29  2  0
 28 30  1  0
 30 31  1  0
 30 32  2  0
 32 33  1  0
 33 34  1  0
 34 35  1  0
 34 36  1  0
 26  4  1  0
 24  6  1  0
 23 12  1  0
 20 18  1  0
  1 37  1  0
  1 38  1  0
  1 39  1  0
  2 40  1  0
  2 41  1  0
  5 42  1  0
  8 43  1  0
 11 44  1  0
 13 45  1  0
 14 46  1  0
 17 47  1  0
 17 48  1  0
 18 49  1  0
 19 50  1  0
 19 51  1  0
 20 52  1  0
 20 53  1  0
 23 54  1  0
 25 55  1  0
 27 56  1  0
 32 57  1  0
 33 58  1  0
 33 59  1  0
 35 60  1  0
 35 61  1  0
 35 62  1  0
 36 63  1  0
 36 64  1  0
 36 65  1  0
M  END
$$$$
[H]c1nc(N([H])c2c([H])c([H])c(F)c(Cl)c2[H])c2sc(N([H])c3c([H])c([H])c(C([H])([H])n4c(C([H])([H])C([H])([H])[H])nc([H])c4[H])c([H])c3[H])nc2n1
     RDKit          3D

 52 56  0  0  0  0  0  0  0  0999 V2000
   -7.4158    1.6966   -1.1944 C   0  0  0  0  0  0  0  0  0  0  0  0
   -6.3574    0.5868   -1.1807 C   0  0  0  0  0  0  0  0  0  0  0  0
   -6.6130   -0.3703   -0.0848 C   0  0  0  0  0  0  0  0  0  0  0  0
   -7.4034   -1.4666   -0.2920 N   0  0  0  0  0  0  0  0  0  0  0  0
   -7.4660   -2.1433    0.8643 C   0  0  0  0  0  0  0  0  0  0  0  0
   -6.7126   -1.4542    1.7685 C   0  0  0  0  0  0  0  0  0  0  0  0
   -6.1899   -0.3654    1.1812 N   0  0  0  0  0  0  0  0  0  0  0  0
   -5.3459    0.5710    1.8362 C   0  0  0  0  0  0  0  0  0  0  0  0
   -3.9006    0.2565    1.8074 C   0  0  0  0  0  0  0  0  0  0  0  0
   -3.0385    0.7721    0.8783 C   0  0  0  0  0  0  0  0  0  0  0  0
   -1.6873    0.4767    0.8453 C   0  0  0  0  0  0  0  0  0  0  0  0
   -1.1338   -0.3587    1.7535 C   0  0  0  0  0  0  0  0  0  0  0  0
    0.2309   -0.7017    1.7775 N   0  0  0  0  0  0  0  0  0  0  0  0
    1.2519   -0.2572    0.8881 C   0  0  0  0  0  0  0  0  0  0  0  0
    1.2401    0.5447   -0.1464 N   0  0  0  0  0  0  0  0  0  0  0  0
    2.3191    0.8097   -0.8215 C   0  0  0  0  0  0  0  0  0  0  0  0
    2.4216    1.6334   -1.9191 N   0  0  0  0  0  0  0  0  0  0  0  0
    3.6021    1.8107   -2.5118 C   0  0  0  0  0  0  0  0  0  0  0  0
    4.7564    1.2409   -2.1292 N   0  0  0  0  0  0  0  0  0  0  0  0
    4.7145    0.4188   -1.0522 C   0  0  0  0  0  0  0  0  0  0  0  0
    5.8014   -0.2745   -0.5130 N   0  0  0  0  0  0  0  0  0  0  0  0
    7.1449   -0.2406   -0.9488 C   0  0  0  0  0  0  0  0  0  0  0  0
    8.0218   -1.2296   -0.4854 C   0  0  0  0  0  0  0  0  0  0  0  0
    9.3451   -1.2651   -0.8410 C   0  0  0  0  0  0  0  0  0  0  0  0
    9.8694   -0.3251   -1.6727 C   0  0  0  0  0  0  0  0  0  0  0  0
   11.1723   -0.3324   -2.0431 F   0  0  0  0  0  0  0  0  0  0  0  0
    9.0518    0.6562   -2.1472 C   0  0  0  0  0  0  0  0  0  0  0  0
    9.6894    1.8805   -3.2174 Cl  0  0  0  0  0  0  0  0  0  0  0  0
    7.6996    0.6838   -1.7772 C   0  0  0  0  0  0  0  0  0  0  0  0
    3.4758    0.2167   -0.4097 C   0  0  0  0  0  0  0  0  0  0  0  0
    2.9359   -0.6937    0.9350 S   0  0  0  0  0  0  0  0  0  0  0  0
   -1.9983   -0.9061    2.7247 C   0  0  0  0  0  0  0  0  0  0  0  0
   -3.3349   -0.5980    2.7367 C   0  0  0  0  0  0  0  0  0  0  0  0
   -8.3612    1.3583   -1.6346 H   0  0  0  0  0  0  0  0  0  0  0  0
   -7.5891    2.0690   -0.1600 H   0  0  0  0  0  0  0  0  0  0  0  0
   -7.0463    2.5572   -1.7860 H   0  0  0  0  0  0  0  0  0  0  0  0
   -5.3972    1.0886   -1.1619 H   0  0  0  0  0  0  0  0  0  0  0  0
   -6.4556    0.0975   -2.1880 H   0  0  0  0  0  0  0  0  0  0  0  0
   -8.0049   -3.0719    1.0836 H   0  0  0  0  0  0  0  0  0  0  0  0
   -6.5765   -1.7743    2.8160 H   0  0  0  0  0  0  0  0  0  0  0  0
   -5.6436    0.7595    2.9039 H   0  0  0  0  0  0  0  0  0  0  0  0
   -5.4926    1.5740    1.3455 H   0  0  0  0  0  0  0  0  0  0  0  0
   -3.4452    1.4533    0.1307 H   0  0  0  0  0  0  0  0  0  0  0  0
   -1.1238    0.9478    0.0649 H   0  0  0  0  0  0  0  0  0  0  0  0
    0.5508   -1.3634    2.5356 H   0  0  0  0  0  0  0  0  0  0  0  0
    3.5783    2.4920   -3.3863 H   0  0  0  0  0  0  0  0  0  0  0  0
    5.5864   -0.9057    0.3392 H   0  0  0  0  0  0  0  0  0  0  0  0
    7.6263   -1.9763    0.1680 H   0  0  0  0  0  0  0  0  0  0  0  0
   10.0168   -2.0476   -0.4681 H   0  0  0  0  0  0  0  0  0  0  0  0
    7.1437    1.4823   -2.1805 H   0  0  0  0  0  0  0  0  0  0  0  0
   -1.5557   -1.5807    3.4596 H   0  0  0  0  0  0  0  0  0  0  0  0
   -3.9573   -1.0489    3.5091 H   0  0  0  0  0  0  0  0  0  0  0  0
  1  2  1  0
  2  3  1  0
  3  4  2  0
  4  5  1  0
  5  6  2  0
  6  7  1  0
  7  8  1  0
  8  9  1  0
  9 10  2  0
 10 11  1  0
 11 12  2  0
 12 13  1  0
 13 14  1  0
 14 15  2  0
 15 16  1  0
 16 17  2  0
 17 18  1  0
 18 19  2  0
 19 20  1  0
 20 21  1  0
 21 22  1  0
 22 23  2  0
 23 24  1  0
 24 25  2  0
 25 26  1  0
 25 27  1  0
 27 28  1  0
 27 29  2  0
 20 30  2  0
 30 31  1  0
 12 32  1  0
 32 33  2  0
  7  3  1  0
 33  9  1  0
 31 14  1  0
 30 16  1  0
 29 22  1  0
  1 34  1  0
  1 35  1  0
  1 36  1  0
  2 37  1  0
  2 38  1  0
  5 39  1  0
  6 40  1  0
  8 41  1  0
  8 42  1  0
 10 43  1  0
 11 44  1  0
 13 45  1  0
 18 46  1  0
 21 47  1  0
 23 48  1  0
 24 49  1  0
 29 50  1  0
 32 51  1  0
 33 52  1  0
M  END
$$$$
[H]c1nc(N([H])c2c([H])c([H])c([H])c(C(=O)C([H])([H])[H])c2[H])c2c([H])c3c(oc(=O)n3C([H])([H])C([H])([H])OC([H])([H])[H])c([H])c2n1
     RDKit          3D

 46 49  0  0  0  0  0  0  0  0999 V2000
   -4.5671    2.3135   -2.8646 C   0  0  0  0  0  0  0  0  0  0  0  0
   -3.6478    1.2940   -2.8596 O   0  0  0  0  0  0  0  0  0  0  0  0
   -3.8529    0.3944   -1.8368 C   0  0  0  0  0  0  0  0  0  0  0  0
   -3.7485    1.0533   -0.5169 C   0  0  0  0  0  0  0  0  0  0  0  0
   -3.9401    0.1474    0.6014 N   0  0  0  0  0  0  0  0  0  0  0  0
   -2.9299   -0.5195    1.1815 C   0  0  0  0  0  0  0  0  0  0  0  0
   -1.5507   -0.5755    0.9570 C   0  0  0  0  0  0  0  0  0  0  0  0
   -0.6809   -1.3480    1.6927 C   0  0  0  0  0  0  0  0  0  0  0  0
    0.6952   -1.3823    1.4415 C   0  0  0  0  0  0  0  0  0  0  0  0
    1.2569   -0.5810    0.4118 N   0  0  0  0  0  0  0  0  0  0  0  0
    2.6273   -0.5659    0.0622 C   0  0  0  0  0  0  0  0  0  0  0  0
    3.5319   -1.5568    0.2410 C   0  0  0  0  0  0  0  0  0  0  0  0
    4.8521   -1.3506   -0.1306 C   0  0  0  0  0  0  0  0  0  0  0  0
    5.3263   -0.1848   -0.6828 C   0  0  0  0  0  0  0  0  0  0  0  0
    4.4007    0.8160   -0.8618 C   0  0  0  0  0  0  0  0  0  0  0  0
    3.0909    0.6356   -0.5020 C   0  0  0  0  0  0  0  0  0  0  0  0
    4.8327    2.0825   -1.4440 C   0  0  0  0  0  0  0  0  0  0  0  0
    6.2342    2.3037   -1.8405 C   0  0  0  0  0  0  0  0  0  0  0  0
    4.0029    3.0147   -1.6173 O   0  0  0  0  0  0  0  0  0  0  0  0
    1.4174   -2.1723    2.2272 N   0  0  0  0  0  0  0  0  0  0  0  0
    0.8811   -2.9030    3.2095 C   0  0  0  0  0  0  0  0  0  0  0  0
   -0.4456   -2.8706    3.4525 N   0  0  0  0  0  0  0  0  0  0  0  0
   -1.2692   -2.0964    2.7071 C   0  0  0  0  0  0  0  0  0  0  0  0
   -2.6261   -2.0674    2.9589 C   0  0  0  0  0  0  0  0  0  0  0  0
   -3.4537   -1.2766    2.1929 C   0  0  0  0  0  0  0  0  0  0  0  0
   -4.7653   -1.0455    2.1948 O   0  0  0  0  0  0  0  0  0  0  0  0
   -5.0715   -0.1910    1.2428 C   0  0  0  0  0  0  0  0  0  0  0  0
   -6.2416    0.2186    1.0025 O   0  0  0  0  0  0  0  0  0  0  0  0
   -4.6085    2.9558   -1.9918 H   0  0  0  0  0  0  0  0  0  0  0  0
   -4.3960    2.9561   -3.7667 H   0  0  0  0  0  0  0  0  0  0  0  0
   -5.5784    1.8125   -2.9506 H   0  0  0  0  0  0  0  0  0  0  0  0
   -4.7719   -0.2083   -1.9774 H   0  0  0  0  0  0  0  0  0  0  0  0
   -3.0082   -0.3500   -1.9144 H   0  0  0  0  0  0  0  0  0  0  0  0
   -2.7944    1.5970   -0.3946 H   0  0  0  0  0  0  0  0  0  0  0  0
   -4.5490    1.8375   -0.3616 H   0  0  0  0  0  0  0  0  0  0  0  0
   -1.1635    0.0291    0.1535 H   0  0  0  0  0  0  0  0  0  0  0  0
    0.6482    0.0481   -0.1508 H   0  0  0  0  0  0  0  0  0  0  0  0
    3.2146   -2.5060    0.6557 H   0  0  0  0  0  0  0  0  0  0  0  0
    5.5510   -2.1770    0.0316 H   0  0  0  0  0  0  0  0  0  0  0  0
    6.3739   -0.0767   -0.9561 H   0  0  0  0  0  0  0  0  0  0  0  0
    2.4120    1.4765   -0.6737 H   0  0  0  0  0  0  0  0  0  0  0  0
    6.3194    3.1103   -2.6271 H   0  0  0  0  0  0  0  0  0  0  0  0
    6.7100    1.4142   -2.3054 H   0  0  0  0  0  0  0  0  0  0  0  0
    6.7992    2.6853   -0.9615 H   0  0  0  0  0  0  0  0  0  0  0  0
    1.5412   -3.5332    3.8183 H   0  0  0  0  0  0  0  0  0  0  0  0
   -3.0583   -2.6576    3.7524 H   0  0  0  0  0  0  0  0  0  0  0  0
  1  2  1  0
  2  3  1  0
  3  4  1  0
  4  5  1  0
  5  6  1  0
  6  7  2  0
  7  8  1  0
  8  9  2  0
  9 10  1  0
 10 11  1  0
 11 12  2  0
 12 13  1  0
 13 14  2  0
 14 15  1  0
 15 16  2  0
 15 17  1  0
 17 18  1  0
 17 19  2  0
  9 20  1  0
 20 21  2  0
 21 22  1  0
 22 23  2  0
 23 24  1  0
 24 25  2  0
 25 26  1  0
 26 27  1  0
 27 28  2  0
 27  5  1  0
 25  6  1  0
 23  8  1  0
 16 11  1  0
  1 29  1  0
  1 30  1  0
  1 31  1  0
  3 32  1  0
  3 33  1  0
  4 34  1  0
  4 35  1  0
  7 36  1  0
 10 37  1  0
 12 38  1  0
 13 39  1  0
 14 40  1  0
 16 41  1  0
 18 42  1  0
 18 43  1  0
 18 44  1  0
 21 45  1  0
 24 46  1  0
M  END
$$$$
[H]c1nc(N([H])c2c([H])c([H])c(F)c(Cl)c2[H])c2sc(N([H])c3c([H])c([H])c(C([H])([H])N4C([H])([H])C([H])([H])C([H])([H])C4([H])[H])c([H])c3[H])nc2n1
     RDKit          3D

 51 55  0  0  0  0  0  0  0  0999 V2000
   11.0528   -0.3155    0.9613 F   0  0  0  0  0  0  0  0  0  0  0  0
    9.7065   -0.2885    0.7915 C   0  0  0  0  0  0  0  0  0  0  0  0
    9.1628    0.8571    0.2233 C   0  0  0  0  0  0  0  0  0  0  0  0
    7.7992    0.8609    0.0614 C   0  0  0  0  0  0  0  0  0  0  0  0
    6.9610   -0.1818    0.4220 C   0  0  0  0  0  0  0  0  0  0  0  0
    5.5771   -0.0026    0.2021 N   0  0  0  0  0  0  0  0  0  0  0  0
    4.5761   -0.9916    0.1810 C   0  0  0  0  0  0  0  0  0  0  0  0
    4.7671   -2.3160    0.3402 N   0  0  0  0  0  0  0  0  0  0  0  0
    3.6832   -3.1085    0.2725 C   0  0  0  0  0  0  0  0  0  0  0  0
    2.4496   -2.6974    0.0634 N   0  0  0  0  0  0  0  0  0  0  0  0
    2.1781   -1.3589   -0.1081 C   0  0  0  0  0  0  0  0  0  0  0  0
    1.0243   -0.8198   -0.3192 N   0  0  0  0  0  0  0  0  0  0  0  0
    0.8780    0.4762   -0.4693 C   0  0  0  0  0  0  0  0  0  0  0  0
   -0.2458    1.3018   -0.7049 N   0  0  0  0  0  0  0  0  0  0  0  0
   -1.5499    0.8799   -0.8261 C   0  0  0  0  0  0  0  0  0  0  0  0
   -2.0056   -0.3913   -0.5771 C   0  0  0  0  0  0  0  0  0  0  0  0
   -3.3516   -0.7624   -0.7305 C   0  0  0  0  0  0  0  0  0  0  0  0
   -4.2684    0.1714   -1.1464 C   0  0  0  0  0  0  0  0  0  0  0  0
   -5.6895   -0.1738   -1.3270 C   0  0  0  0  0  0  0  0  0  0  0  0
   -6.5500    0.1394   -0.2533 N   0  0  0  0  0  0  0  0  0  0  0  0
   -6.2360   -0.5270    0.9532 C   0  0  0  0  0  0  0  0  0  0  0  0
   -6.5877    0.4308    2.0943 C   0  0  0  0  0  0  0  0  0  0  0  0
   -7.4917    1.4171    1.3854 C   0  0  0  0  0  0  0  0  0  0  0  0
   -6.7842    1.5187    0.0212 C   0  0  0  0  0  0  0  0  0  0  0  0
   -3.8575    1.4728   -1.4115 C   0  0  0  0  0  0  0  0  0  0  0  0
   -2.5335    1.7832   -1.2463 C   0  0  0  0  0  0  0  0  0  0  0  0
    2.5378    0.9950   -0.2958 S   0  0  0  0  0  0  0  0  0  0  0  0
    3.2644   -0.5281   -0.0440 C   0  0  0  0  0  0  0  0  0  0  0  0
    7.5196   -1.2838    0.9733 C   0  0  0  0  0  0  0  0  0  0  0  0
    8.9077   -1.3435    1.1623 C   0  0  0  0  0  0  0  0  0  0  0  0
    9.6718   -2.7459    1.8695 Cl  0  0  0  0  0  0  0  0  0  0  0  0
    9.7967    1.6839   -0.0662 H   0  0  0  0  0  0  0  0  0  0  0  0
    7.3810    1.7547   -0.3825 H   0  0  0  0  0  0  0  0  0  0  0  0
    5.2382    1.0090    0.0353 H   0  0  0  0  0  0  0  0  0  0  0  0
    3.8250   -4.1965    0.4012 H   0  0  0  0  0  0  0  0  0  0  0  0
   -0.0284    2.3418   -0.7888 H   0  0  0  0  0  0  0  0  0  0  0  0
   -1.3443   -1.1638   -0.2434 H   0  0  0  0  0  0  0  0  0  0  0  0
   -3.6863   -1.7674   -0.5292 H   0  0  0  0  0  0  0  0  0  0  0  0
   -5.7272   -1.2877   -1.5016 H   0  0  0  0  0  0  0  0  0  0  0  0
   -6.0540    0.2689   -2.3050 H   0  0  0  0  0  0  0  0  0  0  0  0
   -5.2270   -0.8941    1.0926 H   0  0  0  0  0  0  0  0  0  0  0  0
   -6.9163   -1.4188    1.0466 H   0  0  0  0  0  0  0  0  0  0  0  0
   -5.6561    0.9324    2.3934 H   0  0  0  0  0  0  0  0  0  0  0  0
   -7.0983   -0.0980    2.9182 H   0  0  0  0  0  0  0  0  0  0  0  0
   -8.4949    0.9362    1.2484 H   0  0  0  0  0  0  0  0  0  0  0  0
   -7.5591    2.3876    1.8816 H   0  0  0  0  0  0  0  0  0  0  0  0
   -5.8452    2.0995    0.2612 H   0  0  0  0  0  0  0  0  0  0  0  0
   -7.3985    2.0328   -0.7194 H   0  0  0  0  0  0  0  0  0  0  0  0
   -4.5690    2.2409   -1.7484 H   0  0  0  0  0  0  0  0  0  0  0  0
   -2.1701    2.8051   -1.4476 H   0  0  0  0  0  0  0  0  0  0  0  0
    6.9683   -2.1342    1.2956 H   0  0  0  0  0  0  0  0  0  0  0  0
  1  2  1  0
  2  3  2  0
  3  4  1  0
  4  5  2  0
  5  6  1  0
  6  7  1  0
  7  8  2  0
  8  9  1  0
  9 10  2  0
 10 11  1  0
 11 12  1  0
 12 13  2  0
 13 14  1  0
 14 15  1  0
 15 16  2  0
 16 17  1  0
 17 18  2  0
 18 19  1  0
 19 20  1  0
 20 21  1  0
 21 22  1  0
 22 23  1  0
 23 24  1  0
 18 25  1  0
 25 26  2  0
 13 27  1  0
 27 28  1  0
  5 29  1  0
 29 30  2  0
 30 31  1  0
 30  2  1  0
 28  7  1  0
 28 11  2  0
 26 15  1  0
 24 20  1  0
  3 32  1  0
  4 33  1  0
  6 34  1  0
  9 35  1  0
 14 36  1  0
 16 37  1  0
 17 38  1  0
 19 39  1  0
 19 40  1  0
 21 41  1  0
 21 42  1  0
 22 43  1  0
 22 44  1  0
 23 45  1  0
 23 46  1  0
 24 47  1  0
 24 48  1  0
 25 49  1  0
 26 50  1  0
 29 51  1  0
M  END
$$$$
[H]c1nc(N([H])c2c([H])c([H])c(N3C([H])([H])C([H])([H])N(C([H])([H])[H])C([H])([H])C3([H])[H])c(C([H])([H])[H])c2[H])nc2c1C([H])([H])N(c1c([H])c([H])c([H])c(F)c1[H])C(=O)N2[C@]1([H])C([H])([H])N(C(=O)C([H])([H])C([H])([H])[H])C([H])([H])C1([H])[H]
     RDKit          3D

 79 84  0  0  0  0  0  0  0  0999 V2000
   -6.3562   -5.3026   -1.6277 C   0  0  0  0  0  0  0  0  0  0  0  0
   -4.8542   -5.1382   -1.4193 C   0  0  0  0  0  0  0  0  0  0  0  0
   -4.5888   -4.0845   -0.3988 C   0  0  0  0  0  0  0  0  0  0  0  0
   -4.6211   -4.4259    0.8198 O   0  0  0  0  0  0  0  0  0  0  0  0
   -4.3146   -2.7614   -0.8218 N   0  0  0  0  0  0  0  0  0  0  0  0
   -4.2685   -2.3096   -2.1744 C   0  0  0  0  0  0  0  0  0  0  0  0
   -3.6328   -0.9099   -2.0442 C   0  0  0  0  0  0  0  0  0  0  0  0
   -4.2316   -0.4438   -0.7881 C   0  0  1  0  0  0  0  0  0  0  0  0
   -4.0399   -1.6732    0.1147 C   0  0  0  0  0  0  0  0  0  0  0  0
   -3.7311    0.6945   -0.1255 N   0  0  0  0  0  0  0  0  0  0  0  0
   -4.7134    1.6705    0.2827 C   0  0  0  0  0  0  0  0  0  0  0  0
   -5.9526    1.4867    0.0574 O   0  0  0  0  0  0  0  0  0  0  0  0
   -4.3423    2.8638    0.9453 N   0  0  0  0  0  0  0  0  0  0  0  0
   -2.9659    3.1431    1.2912 C   0  0  0  0  0  0  0  0  0  0  0  0
   -2.0088    2.1470    0.8195 C   0  0  0  0  0  0  0  0  0  0  0  0
   -0.6641    2.3710    1.0406 C   0  0  0  0  0  0  0  0  0  0  0  0
    0.2151    1.4613    0.6187 N   0  0  0  0  0  0  0  0  0  0  0  0
   -0.1096    0.3378   -0.0078 C   0  0  0  0  0  0  0  0  0  0  0  0
    0.8045   -0.6436   -0.4818 N   0  0  0  0  0  0  0  0  0  0  0  0
    2.1829   -0.5822   -0.3556 C   0  0  0  0  0  0  0  0  0  0  0  0
    2.9256   -1.3096   -1.3086 C   0  0  0  0  0  0  0  0  0  0  0  0
    4.2843   -1.3154   -1.2413 C   0  0  0  0  0  0  0  0  0  0  0  0
    4.9698   -0.6002   -0.2261 C   0  0  0  0  0  0  0  0  0  0  0  0
    6.3687   -0.6884   -0.2019 N   0  0  0  0  0  0  0  0  0  0  0  0
    7.0532   -0.9951   -1.4867 C   0  0  0  0  0  0  0  0  0  0  0  0
    8.4721   -0.4788   -1.3966 C   0  0  0  0  0  0  0  0  0  0  0  0
    9.1948   -1.2492   -0.3950 N   0  0  0  0  0  0  0  0  0  0  0  0
   10.2608   -0.4123    0.1106 C   0  0  0  0  0  0  0  0  0  0  0  0
    8.3462   -1.6431    0.6928 C   0  0  0  0  0  0  0  0  0  0  0  0
    7.2429   -0.5692    0.9181 C   0  0  0  0  0  0  0  0  0  0  0  0
    4.2668    0.1095    0.7033 C   0  0  0  0  0  0  0  0  0  0  0  0
    4.8727    0.9301    1.7915 C   0  0  0  0  0  0  0  0  0  0  0  0
    2.8642    0.1055    0.6222 C   0  0  0  0  0  0  0  0  0  0  0  0
   -1.4502    0.1555   -0.2061 N   0  0  0  0  0  0  0  0  0  0  0  0
   -2.3795    1.0027    0.1778 C   0  0  0  0  0  0  0  0  0  0  0  0
   -5.2908    3.8480    1.3003 C   0  0  0  0  0  0  0  0  0  0  0  0
   -5.6935    3.9955    2.6033 C   0  0  0  0  0  0  0  0  0  0  0  0
   -6.6229    4.9499    2.9761 C   0  0  0  0  0  0  0  0  0  0  0  0
   -7.1680    5.7808    2.0287 C   0  0  0  0  0  0  0  0  0  0  0  0
   -6.7763    5.6499    0.7075 C   0  0  0  0  0  0  0  0  0  0  0  0
   -7.2887    6.4486   -0.2625 F   0  0  0  0  0  0  0  0  0  0  0  0
   -5.8330    4.6761    0.3528 C   0  0  0  0  0  0  0  0  0  0  0  0
   -6.9419   -4.5642   -1.0776 H   0  0  0  0  0  0  0  0  0  0  0  0
   -6.7026   -6.3083   -1.2540 H   0  0  0  0  0  0  0  0  0  0  0  0
   -6.6099   -5.2388   -2.7221 H   0  0  0  0  0  0  0  0  0  0  0  0
   -4.4648   -6.1134   -1.0056 H   0  0  0  0  0  0  0  0  0  0  0  0
   -4.4053   -4.9270   -2.3934 H   0  0  0  0  0  0  0  0  0  0  0  0
   -3.6108   -2.9349   -2.7993 H   0  0  0  0  0  0  0  0  0  0  0  0
   -5.2897   -2.1977   -2.6249 H   0  0  0  0  0  0  0  0  0  0  0  0
   -2.5645   -1.0951   -2.0841 H   0  0  0  0  0  0  0  0  0  0  0  0
   -4.0135   -0.3709   -2.9603 H   0  0  0  0  0  0  0  0  0  0  0  0
   -5.3451   -0.4138   -0.9323 H   0  0  0  0  0  0  0  0  0  0  0  0
   -2.9821   -1.7499    0.3618 H   0  0  0  0  0  0  0  0  0  0  0  0
   -4.7448   -1.6852    0.9466 H   0  0  0  0  0  0  0  0  0  0  0  0
   -2.8773    3.1861    2.4126 H   0  0  0  0  0  0  0  0  0  0  0  0
   -2.6837    4.1414    0.9072 H   0  0  0  0  0  0  0  0  0  0  0  0
   -0.3872    3.2843    1.5514 H   0  0  0  0  0  0  0  0  0  0  0  0
    0.3900   -1.4942   -0.9654 H   0  0  0  0  0  0  0  0  0  0  0  0
    2.3872   -1.8458   -2.0732 H   0  0  0  0  0  0  0  0  0  0  0  0
    4.8704   -1.8664   -1.9614 H   0  0  0  0  0  0  0  0  0  0  0  0
    7.1045   -2.0919   -1.6215 H   0  0  0  0  0  0  0  0  0  0  0  0
    6.5569   -0.4550   -2.3134 H   0  0  0  0  0  0  0  0  0  0  0  0
    8.5320    0.6027   -1.2397 H   0  0  0  0  0  0  0  0  0  0  0  0
    8.9530   -0.7143   -2.3789 H   0  0  0  0  0  0  0  0  0  0  0  0
    9.7708    0.5335    0.4846 H   0  0  0  0  0  0  0  0  0  0  0  0
   10.7794   -0.9495    0.9483 H   0  0  0  0  0  0  0  0  0  0  0  0
   10.9725   -0.1216   -0.6900 H   0  0  0  0  0  0  0  0  0  0  0  0
    8.8853   -1.7284    1.6581 H   0  0  0  0  0  0  0  0  0  0  0  0
    7.8035   -2.5811    0.5031 H   0  0  0  0  0  0  0  0  0  0  0  0
    6.8381   -0.8263    1.8947 H   0  0  0  0  0  0  0  0  0  0  0  0
    7.7458    0.4397    0.8727 H   0  0  0  0  0  0  0  0  0  0  0  0
    4.1026    1.7250    2.0992 H   0  0  0  0  0  0  0  0  0  0  0  0
    5.7351    1.5056    1.4076 H   0  0  0  0  0  0  0  0  0  0  0  0
    5.0513    0.3774    2.7248 H   0  0  0  0  0  0  0  0  0  0  0  0
    2.3484    0.6626    1.3869 H   0  0  0  0  0  0  0  0  0  0  0  0
   -5.2467    3.3230    3.3363 H   0  0  0  0  0  0  0  0  0  0  0  0
   -6.9310    5.0568    3.9987 H   0  0  0  0  0  0  0  0  0  0  0  0
   -7.9062    6.5471    2.2866 H   0  0  0  0  0  0  0  0  0  0  0  0
   -5.5458    4.5967   -0.6896 H   0  0  0  0  0  0  0  0  0  0  0  0
  1  2  1  0
  2  3  1  0
  3  4  2  0
  3  5  1  0
  5  6  1  0
  6  7  1  0
  7  8  1  0
  8  9  1  0
  8 10  1  0
 10 11  1  0
 11 12  2  0
 11 13  1  0
 13 14  1  0
 14 15  1  0
 15 16  2  0
 16 17  1  0
 17 18  2  0
 18 19  1  0
 19 20  1  0
 20 21  2  0
 21 22  1  0
 22 23  2  0
 23 24  1  0
 24 25  1  0
 25 26  1  0
 26 27  1  0
 27 28  1  0
 27 29  1  0
 29 30  1  0
 23 31  1  0
 31 32  1  0
 31 33  2  0
 18 34  1  0
 34 35  2  0
 13 36  1  0
 36 37  2  0
 37 38  1  0
 38 39  2  0
 39 40  1  0
 40 41  1  0
 40 42  2  0
  9  5  1  0
 35 10  1  0
 42 36  1  0
 35 15  1  0
 33 20  1  0
 30 24  1  0
  1 43  1  0
  1 44  1  0
  1 45  1  0
  2 46  1  0
  2 47  1  0
  6 48  1  0
  6 49  1  0
  7 50  1  0
  7 51  1  0
  8 52  1  6
  9 53  1  0
  9 54  1  0
 14 55  1  0
 14 56  1  0
 16 57  1  0
 19 58  1  0
 21 59  1  0
 22 60  1  0
 25 61  1  0
 25 62  1  0
 26 63  1  0
 26 64  1  0
 28 65  1  0
 28 66  1  0
 28 67  1  0
 29 68  1  0
 29 69  1  0
 30 70  1  0
 30 71  1  0
 32 72  1  0
 32 73  1  0
 32 74  1  0
 33 75  1  0
 37 76  1  0
 38 77  1  0
 39 78  1  0
 42 79  1  0
M  END
$$$$
[H]Oc1c([H])c([H])c(C(=O)OC([H])([H])[H])c([H])c1-c1nc(N([H])C([H])([H])c2c([H])nc([H])c([H])c2[H])c2c([H])c([H])c([H])c([H])c2n1
     RDKit          3D

 47 50  0  0  0  0  0  0  0  0999 V2000
    3.4985    4.2260    0.7528 C   0  0  0  0  0  0  0  0  0  0  0  0
    3.2699    2.8481    0.7047 O   0  0  0  0  0  0  0  0  0  0  0  0
    4.2472    1.8938    0.9375 C   0  0  0  0  0  0  0  0  0  0  0  0
    5.4049    2.2973    1.2071 O   0  0  0  0  0  0  0  0  0  0  0  0
    3.9430    0.4628    0.8718 C   0  0  0  0  0  0  0  0  0  0  0  0
    4.9505   -0.4558    1.1115 C   0  0  0  0  0  0  0  0  0  0  0  0
    4.7403   -1.8005    1.0676 C   0  0  0  0  0  0  0  0  0  0  0  0
    3.4321   -2.2522    0.7628 C   0  0  0  0  0  0  0  0  0  0  0  0
    3.2505   -3.6004    0.7256 O   0  0  0  0  0  0  0  0  0  0  0  0
    2.4056   -1.3738    0.5189 C   0  0  0  0  0  0  0  0  0  0  0  0
    2.6930   -0.0114    0.5808 C   0  0  0  0  0  0  0  0  0  0  0  0
    1.0458   -1.7956    0.2019 C   0  0  0  0  0  0  0  0  0  0  0  0
    0.1164   -0.8197   -0.0196 N   0  0  0  0  0  0  0  0  0  0  0  0
   -1.1732   -1.0778   -0.3208 C   0  0  0  0  0  0  0  0  0  0  0  0
   -2.0590   -0.0009   -0.5326 N   0  0  0  0  0  0  0  0  0  0  0  0
   -1.5440    1.3547   -0.4171 C   0  0  0  0  0  0  0  0  0  0  0  0
   -2.6008    2.3444   -0.6475 C   0  0  0  0  0  0  0  0  0  0  0  0
   -3.9009    2.1262   -0.3195 C   0  0  0  0  0  0  0  0  0  0  0  0
   -4.8486    3.1094   -0.5713 C   0  0  0  0  0  0  0  0  0  0  0  0
   -4.4541    4.2949   -1.1517 C   0  0  0  0  0  0  0  0  0  0  0  0
   -3.1549    4.4798   -1.4650 N   0  0  0  0  0  0  0  0  0  0  0  0
   -2.2201    3.5528   -1.2351 C   0  0  0  0  0  0  0  0  0  0  0  0
   -1.5812   -2.3851   -0.4113 C   0  0  0  0  0  0  0  0  0  0  0  0
   -2.8696   -2.7092   -0.7118 C   0  0  0  0  0  0  0  0  0  0  0  0
   -3.2889   -4.0441   -0.8048 C   0  0  0  0  0  0  0  0  0  0  0  0
   -2.3693   -5.0421   -0.5854 C   0  0  0  0  0  0  0  0  0  0  0  0
   -1.0863   -4.6914   -0.2862 C   0  0  0  0  0  0  0  0  0  0  0  0
   -0.6390   -3.3974   -0.1865 C   0  0  0  0  0  0  0  0  0  0  0  0
    0.6026   -3.0351    0.1030 N   0  0  0  0  0  0  0  0  0  0  0  0
    4.3467    4.4077    1.4368 H   0  0  0  0  0  0  0  0  0  0  0  0
    2.6342    4.8059    1.1477 H   0  0  0  0  0  0  0  0  0  0  0  0
    3.6903    4.6090   -0.2715 H   0  0  0  0  0  0  0  0  0  0  0  0
    5.9635   -0.1166    1.3475 H   0  0  0  0  0  0  0  0  0  0  0  0
    5.5273   -2.5380    1.2549 H   0  0  0  0  0  0  0  0  0  0  0  0
    2.5687   -4.2345    0.5684 H   0  0  0  0  0  0  0  0  0  0  0  0
    1.8786    0.6748    0.3873 H   0  0  0  0  0  0  0  0  0  0  0  0
   -3.0477   -0.1401   -0.7667 H   0  0  0  0  0  0  0  0  0  0  0  0
   -1.1285    1.4381    0.6094 H   0  0  0  0  0  0  0  0  0  0  0  0
   -0.7003    1.4618   -1.1369 H   0  0  0  0  0  0  0  0  0  0  0  0
   -4.2427    1.2014    0.1428 H   0  0  0  0  0  0  0  0  0  0  0  0
   -5.8760    2.9253   -0.3072 H   0  0  0  0  0  0  0  0  0  0  0  0
   -5.1885    5.0567   -1.3467 H   0  0  0  0  0  0  0  0  0  0  0  0
   -1.1921    3.7427   -1.5018 H   0  0  0  0  0  0  0  0  0  0  0  0
   -3.6434   -1.9627   -0.8960 H   0  0  0  0  0  0  0  0  0  0  0  0
   -4.3194   -4.2594   -1.0454 H   0  0  0  0  0  0  0  0  0  0  0  0
   -2.7130   -6.0729   -0.6619 H   0  0  0  0  0  0  0  0  0  0  0  0
   -0.3680   -5.4966   -0.1148 H   0  0  0  0  0  0  0  0  0  0  0  0
  1  2  1  0
  2  3  1  0
  3  4  2  0
  3  5  1  0
  5  6  2  0
  6  7  1  0
  7  8  2  0
  8  9  1  0
  8 10  1  0
 10 11  2  0
 10 12  1  0
 12 13  2  0
 13 14  1  0
 14 15  1  0
 15 16  1  0
 16 17  1  0
 17 18  2  0
 18 19  1  0
 19 20  2  0
 20 21  1  0
 21 22  2  0
 14 23  2  0
 23 24  1  0
 24 25  2  0
 25 26  1  0
 26 27  2  0
 27 28  1  0
 28 29  2  0
 11  5  1  0
 29 12  1  0
 22 17  1  0
 28 23  1  0
  1 30  1  0
  1 31  1  0
  1 32  1  0
  6 33  1  0
  7 34  1  0
  9 35  1  0
 11 36  1  0
 15 37  1  0
 16 38  1  0
 16 39  1  0
 18 40  1  0
 19 41  1  0
 20 42  1  0
 22 43  1  0
 24 44  1  0
 25 45  1  0
 26 46  1  0
 27 47  1  0
M  END
$$$$
[H]C([H])=C([H])C(=O)N([H])c1c([H])c(N([H])c2nc([H])c([H])c(-c3c([H])n(C([H])([H])[H])c4c([H])c([H])c([H])c([H])c34)n2)c(OC([H])([H])[H])c([H])c1N1C([H])([H])C([H])([H])N(C([H])([H])[H])C([H])([H])C1([H])[H]
     RDKit          3D

 68 72  0  0  0  0  0  0  0  0999 V2000
   -1.2691   -3.3171   -2.1191 C   0  0  0  0  0  0  0  0  0  0  0  0
   -0.5084   -2.3410   -1.4647 O   0  0  0  0  0  0  0  0  0  0  0  0
   -1.1195   -1.2737   -0.8416 C   0  0  0  0  0  0  0  0  0  0  0  0
   -2.4601   -1.1293   -0.8369 C   0  0  0  0  0  0  0  0  0  0  0  0
   -3.1287   -0.0680   -0.2217 C   0  0  0  0  0  0  0  0  0  0  0  0
   -4.5154    0.0398   -0.2886 N   0  0  0  0  0  0  0  0  0  0  0  0
   -5.3747   -1.0428    0.1427 C   0  0  0  0  0  0  0  0  0  0  0  0
   -6.8027   -0.5566    0.2828 C   0  0  0  0  0  0  0  0  0  0  0  0
   -7.3178   -0.0146   -0.9075 N   0  0  0  0  0  0  0  0  0  0  0  0
   -8.0273   -0.9673   -1.7329 C   0  0  0  0  0  0  0  0  0  0  0  0
   -6.3577    0.6752   -1.7002 C   0  0  0  0  0  0  0  0  0  0  0  0
   -5.2034    1.1819   -0.8295 C   0  0  0  0  0  0  0  0  0  0  0  0
   -2.3389    0.8757    0.4146 C   0  0  0  0  0  0  0  0  0  0  0  0
   -2.9516    1.9152    1.1278 N   0  0  0  0  0  0  0  0  0  0  0  0
   -2.3966    3.1251    1.5447 C   0  0  0  0  0  0  0  0  0  0  0  0
   -1.1985    3.4645    1.3032 O   0  0  0  0  0  0  0  0  0  0  0  0
   -3.1682    4.1241    2.3111 C   0  0  0  0  0  0  0  0  0  0  0  0
   -4.4085    3.8742    2.6208 C   0  0  0  0  0  0  0  0  0  0  0  0
   -0.9324    0.7159    0.4042 C   0  0  0  0  0  0  0  0  0  0  0  0
   -0.3055   -0.3156   -0.1956 C   0  0  0  0  0  0  0  0  0  0  0  0
    1.0825   -0.4996   -0.2144 N   0  0  0  0  0  0  0  0  0  0  0  0
    2.0769    0.2882    0.3957 C   0  0  0  0  0  0  0  0  0  0  0  0
    1.9015    1.3811    1.1209 N   0  0  0  0  0  0  0  0  0  0  0  0
    2.8458    2.1102    1.7005 C   0  0  0  0  0  0  0  0  0  0  0  0
    4.1611    1.6821    1.5293 C   0  0  0  0  0  0  0  0  0  0  0  0
    4.4143    0.5438    0.7796 C   0  0  0  0  0  0  0  0  0  0  0  0
    3.3956   -0.0871    0.2601 N   0  0  0  0  0  0  0  0  0  0  0  0
    5.8151    0.1048    0.6075 C   0  0  0  0  0  0  0  0  0  0  0  0
    6.9128    0.7374    1.1390 C   0  0  0  0  0  0  0  0  0  0  0  0
    8.0396    0.0911    0.7945 N   0  0  0  0  0  0  0  0  0  0  0  0
    9.4148    0.4576    1.1661 C   0  0  0  0  0  0  0  0  0  0  0  0
    7.6837   -0.9618    0.0404 C   0  0  0  0  0  0  0  0  0  0  0  0
    8.4471   -1.9426   -0.5712 C   0  0  0  0  0  0  0  0  0  0  0  0
    7.8452   -2.9332   -1.3100 C   0  0  0  0  0  0  0  0  0  0  0  0
    6.4634   -2.9197   -1.4221 C   0  0  0  0  0  0  0  0  0  0  0  0
    5.7008   -1.9510   -0.8184 C   0  0  0  0  0  0  0  0  0  0  0  0
    6.2976   -0.9713   -0.0880 C   0  0  0  0  0  0  0  0  0  0  0  0
   -0.6239   -4.2090   -2.3697 H   0  0  0  0  0  0  0  0  0  0  0  0
   -1.6812   -2.8508   -3.0486 H   0  0  0  0  0  0  0  0  0  0  0  0
   -2.1371   -3.6700   -1.5284 H   0  0  0  0  0  0  0  0  0  0  0  0
   -3.1224   -1.8580   -1.3283 H   0  0  0  0  0  0  0  0  0  0  0  0
   -5.3010   -1.8225   -0.6762 H   0  0  0  0  0  0  0  0  0  0  0  0
   -5.0146   -1.5382    1.0619 H   0  0  0  0  0  0  0  0  0  0  0  0
   -7.3939   -1.4606    0.6191 H   0  0  0  0  0  0  0  0  0  0  0  0
   -6.8225    0.1147    1.1760 H   0  0  0  0  0  0  0  0  0  0  0  0
   -8.7842   -0.4585   -2.3986 H   0  0  0  0  0  0  0  0  0  0  0  0
   -7.3398   -1.5135   -2.4200 H   0  0  0  0  0  0  0  0  0  0  0  0
   -8.6029   -1.7046   -1.1502 H   0  0  0  0  0  0  0  0  0  0  0  0
   -5.8992    0.0144   -2.4781 H   0  0  0  0  0  0  0  0  0  0  0  0
   -6.7987    1.5451   -2.2327 H   0  0  0  0  0  0  0  0  0  0  0  0
   -5.6992    1.8315   -0.0811 H   0  0  0  0  0  0  0  0  0  0  0  0
   -4.4915    1.7352   -1.4654 H   0  0  0  0  0  0  0  0  0  0  0  0
   -3.9679    1.7200    1.4067 H   0  0  0  0  0  0  0  0  0  0  0  0
   -2.6744    5.0589    2.6015 H   0  0  0  0  0  0  0  0  0  0  0  0
   -4.9258    4.6707    3.1968 H   0  0  0  0  0  0  0  0  0  0  0  0
   -4.9924    3.0146    2.4011 H   0  0  0  0  0  0  0  0  0  0  0  0
   -0.3468    1.4513    0.9116 H   0  0  0  0  0  0  0  0  0  0  0  0
    1.4762   -1.3541   -0.7677 H   0  0  0  0  0  0  0  0  0  0  0  0
    2.6093    3.0080    2.2876 H   0  0  0  0  0  0  0  0  0  0  0  0
    4.9780    2.2213    1.9688 H   0  0  0  0  0  0  0  0  0  0  0  0
    6.9148    1.6301    1.7528 H   0  0  0  0  0  0  0  0  0  0  0  0
    9.9944    0.3452    0.2173 H   0  0  0  0  0  0  0  0  0  0  0  0
    9.4763    1.5017    1.4734 H   0  0  0  0  0  0  0  0  0  0  0  0
    9.7995   -0.2736    1.8906 H   0  0  0  0  0  0  0  0  0  0  0  0
    9.5201   -1.8837   -0.4355 H   0  0  0  0  0  0  0  0  0  0  0  0
    8.4762   -3.6754   -1.7679 H   0  0  0  0  0  0  0  0  0  0  0  0
    6.0105   -3.7079   -2.0119 H   0  0  0  0  0  0  0  0  0  0  0  0
    4.6514   -1.9780   -0.9284 H   0  0  0  0  0  0  0  0  0  0  0  0
  1  2  1  0
  2  3  1  0
  3  4  2  0
  4  5  1  0
  5  6  1  0
  6  7  1  0
  7  8  1  0
  8  9  1  0
  9 10  1  0
  9 11  1  0
 11 12  1  0
  5 13  2  0
 13 14  1  0
 14 15  1  0
 15 16  2  0
 15 17  1  0
 17 18  2  3
 13 19  1  0
 19 20  2  0
 20 21  1  0
 21 22  1  0
 22 23  2  0
 23 24  1  0
 24 25  2  0
 25 26  1  0
 26 27  2  0
 26 28  1  0
 28 29  2  0
 29 30  1  0
 30 31  1  0
 30 32  1  0
 32 33  2  0
 33 34  1  0
 34 35  2  0
 35 36  1  0
 36 37  2  0
 20  3  1  0
 27 22  1  0
 37 28  1  0
 12  6  1  0
 37 32  1  0
  1 38  1  0
  1 39  1  0
  1 40  1  0
  4 41  1  0
  7 42  1  0
  7 43  1  0
  8 44  1  0
  8 45  1  0
 10 46  1  0
 10 47  1  0
 10 48  1  0
 11 49  1  0
 11 50  1  0
 12 51  1  0
 12 52  1  0
 14 53  1  0
 17 54  1  0
 18 55  1  0
 18 56  1  0
 19 57  1  0
 21 58  1  0
 24 59  1  0
 25 60  1  0
 29 61  1  0
 31 62  1  0
 31 63  1  0
 31 64  1  0
 33 65  1  0
 34 66  1  0
 35 67  1  0
 36 68  1  0
M  END
$$$$
[H]c1nc(N([H])c2c([H])c([H])c(OC([H])([H])c3c([H])c([H])c([H])c(F)c3[H])c(Cl)c2[H])c2c([H])c(-c3oc(C([H])(N([H])C([H])([H])[H])C([H])([H])S(=O)(=O)C([H])([H])[H])c([H])c3[H])c([H])c([H])c2n1
     RDKit          3D

 66 70  0  0  0  0  0  0  0  0999 V2000
    7.1890    2.3907    0.9371 C   0  0  0  0  0  0  0  0  0  0  0  0
    7.6106    1.1028    0.4530 N   0  0  0  0  0  0  0  0  0  0  0  0
    7.0444    0.7660   -0.8362 C   0  0  0  0  0  0  0  0  0  0  0  0
    7.5869   -0.6132   -1.1983 C   0  0  0  0  0  0  0  0  0  0  0  0
    9.3496   -0.6084   -1.2933 S   0  0  0  0  0  0  0  0  0  0  0  0
    9.8347    0.5562   -2.5453 C   0  0  0  0  0  0  0  0  0  0  0  0
    9.7986   -1.9940   -1.6295 O   0  0  0  0  0  0  0  0  0  0  0  0
    9.8936   -0.1440    0.0267 O   0  0  0  0  0  0  0  0  0  0  0  0
    5.5694    0.5633   -0.6036 C   0  0  0  0  0  0  0  0  0  0  0  0
    4.5598    1.0654   -1.3973 C   0  0  0  0  0  0  0  0  0  0  0  0
    3.3946    0.6263   -0.7990 C   0  0  0  0  0  0  0  0  0  0  0  0
    3.7281   -0.1177    0.3229 C   0  0  0  0  0  0  0  0  0  0  0  0
    5.0315   -0.1130    0.3768 O   0  0  0  0  0  0  0  0  0  0  0  0
    2.7694   -0.7501    1.2184 C   0  0  0  0  0  0  0  0  0  0  0  0
    3.1722   -1.4748    2.3148 C   0  0  0  0  0  0  0  0  0  0  0  0
    2.2470   -2.0704    3.1573 C   0  0  0  0  0  0  0  0  0  0  0  0
    0.8873   -1.9652    2.9374 C   0  0  0  0  0  0  0  0  0  0  0  0
    0.0039   -2.5593    3.7822 N   0  0  0  0  0  0  0  0  0  0  0  0
   -1.3023   -2.4607    3.5770 C   0  0  0  0  0  0  0  0  0  0  0  0
   -1.7223   -1.7618    2.5180 N   0  0  0  0  0  0  0  0  0  0  0  0
   -0.9153   -1.1442    1.6347 C   0  0  0  0  0  0  0  0  0  0  0  0
   -1.3930   -0.4434    0.5115 N   0  0  0  0  0  0  0  0  0  0  0  0
   -2.7664   -0.2395    0.2029 C   0  0  0  0  0  0  0  0  0  0  0  0
   -3.7675   -0.2277    1.1286 C   0  0  0  0  0  0  0  0  0  0  0  0
   -5.0975   -0.0476    0.7278 C   0  0  0  0  0  0  0  0  0  0  0  0
   -5.4273    0.1207   -0.5888 C   0  0  0  0  0  0  0  0  0  0  0  0
   -6.7718    0.3007   -0.9736 O   0  0  0  0  0  0  0  0  0  0  0  0
   -7.7831    0.3056    0.0204 C   0  0  0  0  0  0  0  0  0  0  0  0
   -9.1233    0.5057   -0.5671 C   0  0  0  0  0  0  0  0  0  0  0  0
   -9.6967    1.7499   -0.7557 C   0  0  0  0  0  0  0  0  0  0  0  0
  -10.9577    1.8843   -1.3114 C   0  0  0  0  0  0  0  0  0  0  0  0
  -11.6858    0.7753   -1.6965 C   0  0  0  0  0  0  0  0  0  0  0  0
  -11.1248   -0.4753   -1.5138 C   0  0  0  0  0  0  0  0  0  0  0  0
  -11.8406   -1.5676   -1.8924 F   0  0  0  0  0  0  0  0  0  0  0  0
   -9.8686   -0.5923   -0.9593 C   0  0  0  0  0  0  0  0  0  0  0  0
   -4.4426    0.1124   -1.5226 C   0  0  0  0  0  0  0  0  0  0  0  0
   -4.8506    0.3275   -3.2124 Cl  0  0  0  0  0  0  0  0  0  0  0  0
   -3.1391   -0.0637   -1.1376 C   0  0  0  0  0  0  0  0  0  0  0  0
    0.4634   -1.2340    1.8303 C   0  0  0  0  0  0  0  0  0  0  0  0
    1.3965   -0.6499    1.0055 C   0  0  0  0  0  0  0  0  0  0  0  0
    7.4069    2.4220    2.0313 H   0  0  0  0  0  0  0  0  0  0  0  0
    6.1035    2.5759    0.8247 H   0  0  0  0  0  0  0  0  0  0  0  0
    7.7004    3.2244    0.4080 H   0  0  0  0  0  0  0  0  0  0  0  0
    7.2113    0.3880    1.1329 H   0  0  0  0  0  0  0  0  0  0  0  0
    7.2129    1.5103   -1.6102 H   0  0  0  0  0  0  0  0  0  0  0  0
    7.1222   -0.8819   -2.1662 H   0  0  0  0  0  0  0  0  0  0  0  0
    7.2073   -1.3051   -0.4141 H   0  0  0  0  0  0  0  0  0  0  0  0
    9.4985    0.1600   -3.5371 H   0  0  0  0  0  0  0  0  0  0  0  0
    9.3524    1.5250   -2.2946 H   0  0  0  0  0  0  0  0  0  0  0  0
   10.9566    0.6498   -2.5417 H   0  0  0  0  0  0  0  0  0  0  0  0
    4.7149    1.6655   -2.2825 H   0  0  0  0  0  0  0  0  0  0  0  0
    2.4004    0.8454   -1.1712 H   0  0  0  0  0  0  0  0  0  0  0  0
    4.2356   -1.5707    2.5069 H   0  0  0  0  0  0  0  0  0  0  0  0
    2.5597   -2.6416    4.0212 H   0  0  0  0  0  0  0  0  0  0  0  0
   -1.9813   -2.9493    4.2740 H   0  0  0  0  0  0  0  0  0  0  0  0
   -0.7177   -0.0215   -0.1810 H   0  0  0  0  0  0  0  0  0  0  0  0
   -3.6094   -0.3324    2.2031 H   0  0  0  0  0  0  0  0  0  0  0  0
   -5.8781   -0.0414    1.4712 H   0  0  0  0  0  0  0  0  0  0  0  0
   -7.5789    1.0412    0.8228 H   0  0  0  0  0  0  0  0  0  0  0  0
   -7.7928   -0.6950    0.5325 H   0  0  0  0  0  0  0  0  0  0  0  0
   -9.1456    2.6338   -0.4618 H   0  0  0  0  0  0  0  0  0  0  0  0
  -11.4126    2.8744   -1.4609 H   0  0  0  0  0  0  0  0  0  0  0  0
  -12.6805    0.8586   -2.1361 H   0  0  0  0  0  0  0  0  0  0  0  0
   -9.4861   -1.6127   -0.8437 H   0  0  0  0  0  0  0  0  0  0  0  0
   -2.3473   -0.0722   -1.8712 H   0  0  0  0  0  0  0  0  0  0  0  0
    1.0934   -0.0852    0.1550 H   0  0  0  0  0  0  0  0  0  0  0  0
  1  2  1  0
  2  3  1  0
  3  4  1  0
  4  5  1  0
  5  6  1  0
  5  7  2  0
  5  8  2  0
  3  9  1  0
  9 10  2  0
 10 11  1  0
 11 12  2  0
 12 13  1  0
 12 14  1  0
 14 15  2  0
 15 16  1  0
 16 17  2  0
 17 18  1  0
 18 19  2  0
 19 20  1  0
 20 21  2  0
 21 22  1  0
 22 23  1  0
 23 24  2  0
 24 25  1  0
 25 26  2  0
 26 27  1  0
 27 28  1  0
 28 29  1  0
 29 30  2  0
 30 31  1  0
 31 32  2  0
 32 33  1  0
 33 34  1  0
 33 35  2  0
 26 36  1  0
 36 37  1  0
 36 38  2  0
 21 39  1  0
 39 40  2  0
 13  9  1  0
 40 14  1  0
 39 17  1  0
 38 23  1  0
 35 29  1  0
  1 41  1  0
  1 42  1  0
  1 43  1  0
  2 44  1  0
  3 45  1  0
  4 46  1  0
  4 47  1  0
  6 48  1  0
  6 49  1  0
  6 50  1  0
 10 51  1  0
 11 52  1  0
 15 53  1  0
 16 54  1  0
 19 55  1  0
 22 56  1  0
 24 57  1  0
 25 58  1  0
 28 59  1  0
 28 60  1  0
 30 61  1  0
 31 62  1  0
 32 63  1  0
 35 64  1  0
 38 65  1  0
 40 66  1  0
M  END
$$$$
[H]c1nc2c(c(Oc3c([H])c([H])c4c(c3[H])[C@]3([H])[C@]([H])(O4)[C@@]3([H])N([H])C(=O)c3c([H])c([H])c(C([H])([H])N4C([H])([H])C([H])([H])C([H])([H])[C@@]([H])(N(C([H])([H])[H])C([H])([H])[H])C4([H])[H])c(C(F)(F)F)c3[H])c1[H])C([H])([H])C([H])([H])C(=O)N2[H]
     RDKit          3D

 79 85  0  0  0  0  0  0  0  0999 V2000
   -9.7213    1.7450   -0.4770 C   0  0  0  0  0  0  0  0  0  0  0  0
   -8.2958    1.6167   -0.6330 N   0  0  0  0  0  0  0  0  0  0  0  0
   -7.6235    2.5656    0.2012 C   0  0  0  0  0  0  0  0  0  0  0  0
   -7.8712    0.2383   -0.3935 C   0  0  2  0  0  0  0  0  0  0  0  0
   -8.1716   -0.1767    1.0259 C   0  0  0  0  0  0  0  0  0  0  0  0
   -7.8812   -1.6531    1.1502 C   0  0  0  0  0  0  0  0  0  0  0  0
   -7.2108   -2.1458   -0.0952 C   0  0  0  0  0  0  0  0  0  0  0  0
   -6.0599   -1.3491   -0.4732 N   0  0  0  0  0  0  0  0  0  0  0  0
   -5.0950   -1.4150    0.5932 C   0  0  0  0  0  0  0  0  0  0  0  0
   -3.7727   -0.8718    0.3295 C   0  0  0  0  0  0  0  0  0  0  0  0
   -3.3667   -0.3847   -0.8920 C   0  0  0  0  0  0  0  0  0  0  0  0
   -2.0840    0.0927   -1.1518 C   0  0  0  0  0  0  0  0  0  0  0  0
   -1.1592    0.0863   -0.1519 C   0  0  0  0  0  0  0  0  0  0  0  0
   -1.5410   -0.3937    1.0698 C   0  0  0  0  0  0  0  0  0  0  0  0
   -2.8158   -0.8757    1.3562 C   0  0  0  0  0  0  0  0  0  0  0  0
   -3.1431   -1.3602    2.6998 C   0  0  0  0  0  0  0  0  0  0  0  0
   -4.1244   -0.6583    3.3577 F   0  0  0  0  0  0  0  0  0  0  0  0
   -3.3961   -2.7274    2.7245 F   0  0  0  0  0  0  0  0  0  0  0  0
   -2.0075   -1.2095    3.4995 F   0  0  0  0  0  0  0  0  0  0  0  0
    0.2145    0.5454   -0.3211 C   0  0  0  0  0  0  0  0  0  0  0  0
    0.8734    0.8864    0.6916 O   0  0  0  0  0  0  0  0  0  0  0  0
    0.7859    0.5989   -1.6193 N   0  0  0  0  0  0  0  0  0  0  0  0
    2.1318    1.0475   -1.7833 C   0  0  2  0  0  0  0  0  0  0  0  0
    2.5184    1.5389   -3.1406 C   0  0  1  0  0  0  0  0  0  0  0  0
    3.5643    2.4584   -3.1947 O   0  0  0  0  0  0  0  0  0  0  0  0
    4.7140    1.8017   -2.7933 C   0  0  0  0  0  0  0  0  0  0  0  0
    6.0190    2.2756   -2.6800 C   0  0  0  0  0  0  0  0  0  0  0  0
    7.0068    1.4237   -2.2534 C   0  0  0  0  0  0  0  0  0  0  0  0
    6.7986    0.1059   -1.9216 C   0  0  0  0  0  0  0  0  0  0  0  0
    7.8055   -0.6884   -1.5064 O   0  0  0  0  0  0  0  0  0  0  0  0
    8.1681   -1.2889   -0.3747 C   0  0  0  0  0  0  0  0  0  0  0  0
    8.1991   -2.7032   -0.3926 C   0  0  0  0  0  0  0  0  0  0  0  0
    8.5605   -3.3952    0.7379 C   0  0  0  0  0  0  0  0  0  0  0  0
    8.8881   -2.7713    1.8727 N   0  0  0  0  0  0  0  0  0  0  0  0
    8.8712   -1.3961    1.9330 C   0  0  0  0  0  0  0  0  0  0  0  0
    9.2007   -0.7826    3.1685 N   0  0  0  0  0  0  0  0  0  0  0  0
    9.1493    0.6310    3.2165 C   0  0  0  0  0  0  0  0  0  0  0  0
    9.0845    1.2665    4.3153 O   0  0  0  0  0  0  0  0  0  0  0  0
    9.1696    1.4360    1.9784 C   0  0  0  0  0  0  0  0  0  0  0  0
    8.5306    0.7781    0.8181 C   0  0  0  0  0  0  0  0  0  0  0  0
    8.5142   -0.6833    0.8098 C   0  0  0  0  0  0  0  0  0  0  0  0
    5.4799   -0.3645   -2.0384 C   0  0  0  0  0  0  0  0  0  0  0  0
    4.4974    0.4968   -2.4667 C   0  0  0  0  0  0  0  0  0  0  0  0
    3.0392    0.2506   -2.6716 C   0  0  1  0  0  0  0  0  0  0  0  0
   -6.4552    0.0124   -0.7798 C   0  0  0  0  0  0  0  0  0  0  0  0
  -10.0149    1.7776    0.5764 H   0  0  0  0  0  0  0  0  0  0  0  0
  -10.2666    0.9817   -1.0706 H   0  0  0  0  0  0  0  0  0  0  0  0
  -10.0181    2.7397   -0.9217 H   0  0  0  0  0  0  0  0  0  0  0  0
   -8.3696    3.0277    0.8896 H   0  0  0  0  0  0  0  0  0  0  0  0
   -6.8453    2.1093    0.8648 H   0  0  0  0  0  0  0  0  0  0  0  0
   -7.1804    3.4201   -0.3761 H   0  0  0  0  0  0  0  0  0  0  0  0
   -8.5409   -0.3735   -1.0586 H   0  0  0  0  0  0  0  0  0  0  0  0
   -9.2232    0.0612    1.3047 H   0  0  0  0  0  0  0  0  0  0  0  0
   -7.4641    0.3573    1.7076 H   0  0  0  0  0  0  0  0  0  0  0  0
   -7.2996   -1.9078    2.0771 H   0  0  0  0  0  0  0  0  0  0  0  0
   -8.8886   -2.1479    1.1924 H   0  0  0  0  0  0  0  0  0  0  0  0
   -7.9085   -2.2707   -0.9474 H   0  0  0  0  0  0  0  0  0  0  0  0
   -6.7883   -3.1732    0.1184 H   0  0  0  0  0  0  0  0  0  0  0  0
   -5.5853   -1.0515    1.4950 H   0  0  0  0  0  0  0  0  0  0  0  0
   -4.9532   -2.5248    0.7829 H   0  0  0  0  0  0  0  0  0  0  0  0
   -4.0622   -0.3755   -1.7172 H   0  0  0  0  0  0  0  0  0  0  0  0
   -1.8372    0.4600   -2.1293 H   0  0  0  0  0  0  0  0  0  0  0  0
   -0.8232   -0.4096    1.8771 H   0  0  0  0  0  0  0  0  0  0  0  0
    0.2206    0.3115   -2.4475 H   0  0  0  0  0  0  0  0  0  0  0  0
    2.6035    1.4713   -0.8535 H   0  0  0  0  0  0  0  0  0  0  0  0
    1.7389    1.6133   -3.9287 H   0  0  0  0  0  0  0  0  0  0  0  0
    6.2275    3.3113   -2.9331 H   0  0  0  0  0  0  0  0  0  0  0  0
    8.0118    1.8702   -2.1888 H   0  0  0  0  0  0  0  0  0  0  0  0
    7.9415   -3.2532   -1.2876 H   0  0  0  0  0  0  0  0  0  0  0  0
    8.5943   -4.4853    0.7498 H   0  0  0  0  0  0  0  0  0  0  0  0
    9.4666   -1.3283    3.9989 H   0  0  0  0  0  0  0  0  0  0  0  0
   10.2093    1.7274    1.6931 H   0  0  0  0  0  0  0  0  0  0  0  0
    8.6299    2.4108    2.1730 H   0  0  0  0  0  0  0  0  0  0  0  0
    9.0167    1.1865   -0.1165 H   0  0  0  0  0  0  0  0  0  0  0  0
    7.4706    1.1126    0.7855 H   0  0  0  0  0  0  0  0  0  0  0  0
    5.3328   -1.3979   -1.7738 H   0  0  0  0  0  0  0  0  0  0  0  0
    2.6861   -0.7055   -3.0500 H   0  0  0  0  0  0  0  0  0  0  0  0
   -6.3328    0.1552   -1.9002 H   0  0  0  0  0  0  0  0  0  0  0  0
   -5.7368    0.6961   -0.3143 H   0  0  0  0  0  0  0  0  0  0  0  0
  1  2  1  0
  2  3  1  0
  2  4  1  0
  4  5  1  0
  5  6  1  0
  6  7  1  0
  7  8  1  0
  8  9  1  0
  9 10  1  0
 10 11  2  0
 11 12  1  0
 12 13  2  0
 13 14  1  0
 14 15  2  0
 15 16  1  0
 16 17  1  0
 16 18  1  0
 16 19  1  0
 13 20  1  0
 20 21  2  0
 20 22  1  0
 22 23  1  0
 23 24  1  0
 24 25  1  0
 25 26  1  0
 26 27  2  0
 27 28  1  0
 28 29  2  0
 29 30  1  0
 30 31  1  0
 31 32  2  0
 32 33  1  0
 33 34  2  0
 34 35  1  0
 35 36  1  0
 36 37  1  0
 37 38  2  0
 37 39  1  0
 39 40  1  0
 40 41  1  0
 29 42  1  0
 42 43  2  0
 43 44  1  0
  8 45  1  0
 45  4  1  0
 15 10  1  0
 44 23  1  0
 44 24  1  0
 43 26  1  0
 41 31  1  0
 41 35  2  0
  1 46  1  0
  1 47  1  0
  1 48  1  0
  3 49  1  0
  3 50  1  0
  3 51  1  0
  4 52  1  6
  5 53  1  0
  5 54  1  0
  6 55  1  0
  6 56  1  0
  7 57  1  0
  7 58  1  0
  9 59  1  0
  9 60  1  0
 11 61  1  0
 12 62  1  0
 14 63  1  0
 22 64  1  0
 23 65  1  1
 24 66  1  6
 27 67  1  0
 28 68  1  0
 32 69  1  0
 33 70  1  0
 36 71  1  0
 39 72  1  0
 39 73  1  0
 40 74  1  0
 40 75  1  0
 42 76  1  0
 44 77  1  6
 45 78  1  0
 45 79  1  0
M  END
$$$$
[H]Oc1c([H])c([H])c(O[H])c(/C([H])=C(\[H])N([H])C([H])=O)c1[H]
     RDKit          3D

 22 22  0  0  0  0  0  0  0  0999 V2000
   -2.6240    2.6477    0.6209 O   0  0  0  0  0  0  0  0  0  0  0  0
   -2.2019    1.3238    0.4383 C   0  0  0  0  0  0  0  0  0  0  0  0
   -3.1377    0.3205    0.5581 C   0  0  0  0  0  0  0  0  0  0  0  0
   -2.6963   -0.9718    0.3739 C   0  0  0  0  0  0  0  0  0  0  0  0
   -1.3721   -1.2288    0.0832 C   0  0  0  0  0  0  0  0  0  0  0  0
   -0.9299   -2.5530   -0.1035 O   0  0  0  0  0  0  0  0  0  0  0  0
   -0.4163   -0.2180   -0.0402 C   0  0  0  0  0  0  0  0  0  0  0  0
    0.9527   -0.5908   -0.3485 C   0  0  0  0  0  0  0  0  0  0  0  0
    1.9460    0.2665   -0.4906 C   0  0  0  0  0  0  0  0  0  0  0  0
    3.2747   -0.1547   -0.7942 N   0  0  0  0  0  0  0  0  0  0  0  0
    4.3804    0.1100    0.0494 C   0  0  0  0  0  0  0  0  0  0  0  0
    4.1836    0.7535    1.1297 O   0  0  0  0  0  0  0  0  0  0  0  0
   -0.8575    1.0569    0.1427 C   0  0  0  0  0  0  0  0  0  0  0  0
   -2.9420    3.1568   -0.1707 H   0  0  0  0  0  0  0  0  0  0  0  0
   -4.1719    0.5375    0.7864 H   0  0  0  0  0  0  0  0  0  0  0  0
   -3.4000   -1.7897    0.4594 H   0  0  0  0  0  0  0  0  0  0  0  0
   -1.5565   -3.3353   -0.0313 H   0  0  0  0  0  0  0  0  0  0  0  0
    1.2292   -1.6348   -0.4808 H   0  0  0  0  0  0  0  0  0  0  0  0
    1.7008    1.3219   -0.3639 H   0  0  0  0  0  0  0  0  0  0  0  0
    3.4333   -0.6767   -1.6708 H   0  0  0  0  0  0  0  0  0  0  0  0
    5.3734   -0.2219   -0.2079 H   0  0  0  0  0  0  0  0  0  0  0  0
   -0.1680    1.8804    0.0606 H   0  0  0  0  0  0  0  0  0  0  0  0
  1  2  1  0
  2  3  2  0
  3  4  1  0
  4  5  2  0
  5  6  1  0
  5  7  1  0
  7  8  1  0
  8  9  2  0
  9 10  1  0
 10 11  1  0
 11 12  2  0
  7 13  2  0
 13  2  1  0
  1 14  1  0
  3 15  1  0
  4 16  1  0
  6 17  1  0
  8 18  1  0
  9 19  1  0
 10 20  1  0
 11 21  1  0
 13 22  1  0
M  END
$$$$
[H]/C(C(=O)N1C([H])([H])c2sc3nc([H])nc(N([H])c4c([H])c([H])c(Cl)c(Cl)c4[H])c3c2C([H])([H])C([H])([H])C1([H])[H])=C(/[H])C([H])([H])N1C([H])([H])C([H])([H])OC([H])([H])C([H])([H])C1([H])[H]
     RDKit          3D

 62 66  0  0  0  0  0  0  0  0999 V2000
    9.9553   -2.6683   -1.8930 Cl  0  0  0  0  0  0  0  0  0  0  0  0
    8.4962   -1.8769   -1.3383 C   0  0  0  0  0  0  0  0  0  0  0  0
    7.4868   -2.5735   -0.7239 C   0  0  0  0  0  0  0  0  0  0  0  0
    6.3102   -1.9519   -0.2732 C   0  0  0  0  0  0  0  0  0  0  0  0
    6.1657   -0.6136   -0.4504 C   0  0  0  0  0  0  0  0  0  0  0  0
    5.0287    0.1621   -0.0046 N   0  0  0  0  0  0  0  0  0  0  0  0
    4.3106   -0.1613    1.1501 C   0  0  0  0  0  0  0  0  0  0  0  0
    4.9399   -1.0569    1.9704 N   0  0  0  0  0  0  0  0  0  0  0  0
    4.5435   -1.4155    3.1679 C   0  0  0  0  0  0  0  0  0  0  0  0
    3.4205   -0.8474    3.6179 N   0  0  0  0  0  0  0  0  0  0  0  0
    2.7311    0.0576    2.8545 C   0  0  0  0  0  0  0  0  0  0  0  0
    1.2965    0.9225    3.1404 S   0  0  0  0  0  0  0  0  0  0  0  0
    1.2011    1.7620    1.6726 C   0  0  0  0  0  0  0  0  0  0  0  0
    0.0868    2.7376    1.3135 C   0  0  0  0  0  0  0  0  0  0  0  0
   -0.6204    2.1151    0.2049 N   0  0  0  0  0  0  0  0  0  0  0  0
    0.0481    1.6470   -0.9933 C   0  0  0  0  0  0  0  0  0  0  0  0
    1.3631    2.3578   -1.1550 C   0  0  0  0  0  0  0  0  0  0  0  0
    2.5374    1.8150   -0.4417 C   0  0  0  0  0  0  0  0  0  0  0  0
    2.3036    1.3472    0.9777 C   0  0  0  0  0  0  0  0  0  0  0  0
    3.1282    0.4463    1.5940 C   0  0  0  0  0  0  0  0  0  0  0  0
   -1.9889    1.9811    0.3295 C   0  0  0  0  0  0  0  0  0  0  0  0
   -2.5607    2.4191    1.3820 O   0  0  0  0  0  0  0  0  0  0  0  0
   -2.7968    1.3578   -0.6974 C   0  0  0  0  0  0  0  0  0  0  0  0
   -4.1116    1.2295   -0.5913 C   0  0  0  0  0  0  0  0  0  0  0  0
   -4.8438    0.5775   -1.6947 C   0  0  0  0  0  0  0  0  0  0  0  0
   -5.5709   -0.6154   -1.2701 N   0  0  0  0  0  0  0  0  0  0  0  0
   -6.6392   -0.1474   -0.4154 C   0  0  0  0  0  0  0  0  0  0  0  0
   -7.5621   -1.2410    0.0537 C   0  0  0  0  0  0  0  0  0  0  0  0
   -7.1239   -2.6106   -0.3597 C   0  0  0  0  0  0  0  0  0  0  0  0
   -6.1416   -3.0514    0.4925 O   0  0  0  0  0  0  0  0  0  0  0  0
   -5.2266   -2.0444    0.6953 C   0  0  0  0  0  0  0  0  0  0  0  0
   -4.7153   -1.5700   -0.6463 C   0  0  0  0  0  0  0  0  0  0  0  0
    7.1879    0.0736   -1.0697 C   0  0  0  0  0  0  0  0  0  0  0  0
    8.3493   -0.5168   -1.5195 C   0  0  0  0  0  0  0  0  0  0  0  0
    9.6090    0.4150   -2.2984 Cl  0  0  0  0  0  0  0  0  0  0  0  0
    7.5799   -3.6324   -0.5727 H   0  0  0  0  0  0  0  0  0  0  0  0
    5.5650   -2.5626    0.1746 H   0  0  0  0  0  0  0  0  0  0  0  0
    4.8411    0.9773   -0.5802 H   0  0  0  0  0  0  0  0  0  0  0  0
    5.0689   -2.1300    3.7892 H   0  0  0  0  0  0  0  0  0  0  0  0
    0.5419    3.6865    0.9863 H   0  0  0  0  0  0  0  0  0  0  0  0
   -0.5256    2.8685    2.2019 H   0  0  0  0  0  0  0  0  0  0  0  0
   -0.5343    1.7968   -1.9020 H   0  0  0  0  0  0  0  0  0  0  0  0
    0.2473    0.5656   -0.8780 H   0  0  0  0  0  0  0  0  0  0  0  0
    1.2018    3.4221   -0.8928 H   0  0  0  0  0  0  0  0  0  0  0  0
    1.5673    2.3712   -2.2544 H   0  0  0  0  0  0  0  0  0  0  0  0
    3.3508    2.5518   -0.4271 H   0  0  0  0  0  0  0  0  0  0  0  0
    2.8014    0.8993   -1.0572 H   0  0  0  0  0  0  0  0  0  0  0  0
   -2.3191    0.9781   -1.5836 H   0  0  0  0  0  0  0  0  0  0  0  0
   -4.5565    1.6123    0.2959 H   0  0  0  0  0  0  0  0  0  0  0  0
   -5.6200    1.3200   -2.0448 H   0  0  0  0  0  0  0  0  0  0  0  0
   -4.1706    0.3535   -2.5392 H   0  0  0  0  0  0  0  0  0  0  0  0
   -6.2163    0.4434    0.4041 H   0  0  0  0  0  0  0  0  0  0  0  0
   -7.2531    0.5483   -1.0406 H   0  0  0  0  0  0  0  0  0  0  0  0
   -8.6221   -1.0804   -0.2869 H   0  0  0  0  0  0  0  0  0  0  0  0
   -7.6064   -1.2090    1.1692 H   0  0  0  0  0  0  0  0  0  0  0  0
   -8.0181   -3.2855   -0.2357 H   0  0  0  0  0  0  0  0  0  0  0  0
   -6.8486   -2.6791   -1.4309 H   0  0  0  0  0  0  0  0  0  0  0  0
   -5.5606   -1.2365    1.3535 H   0  0  0  0  0  0  0  0  0  0  0  0
   -4.3383   -2.5283    1.1989 H   0  0  0  0  0  0  0  0  0  0  0  0
   -4.5529   -2.5033   -1.2551 H   0  0  0  0  0  0  0  0  0  0  0  0
   -3.7034   -1.1456   -0.4900 H   0  0  0  0  0  0  0  0  0  0  0  0
    7.0824    1.1365   -1.2155 H   0  0  0  0  0  0  0  0  0  0  0  0
  1  2  1  0
  2  3  2  0
  3  4  1  0
  4  5  2  0
  5  6  1  0
  6  7  1  0
  7  8  2  0
  8  9  1  0
  9 10  2  0
 10 11  1  0
 11 12  1  0
 12 13  1  0
 13 14  1  0
 14 15  1  0
 15 16  1  0
 16 17  1  0
 17 18  1  0
 18 19  1  0
 19 20  1  0
 15 21  1  0
 21 22  2  0
 21 23  1  0
 23 24  2  0
 24 25  1  0
 25 26  1  0
 26 27  1  0
 27 28  1  0
 28 29  1  0
 29 30  1  0
 30 31  1  0
 31 32  1  0
  5 33  1  0
 33 34  2  0
 34 35  1  0
 34  2  1  0
 20  7  1  0
 32 26  1  0
 20 11  2  0
 19 13  2  0
  3 36  1  0
  4 37  1  0
  6 38  1  0
  9 39  1  0
 14 40  1  0
 14 41  1  0
 16 42  1  0
 16 43  1  0
 17 44  1  0
 17 45  1  0
 18 46  1  0
 18 47  1  0
 23 48  1  0
 24 49  1  0
 25 50  1  0
 25 51  1  0
 27 52  1  0
 27 53  1  0
 28 54  1  0
 28 55  1  0
 29 56  1  0
 29 57  1  0
 31 58  1  0
 31 59  1  0
 32 60  1  0
 32 61  1  0
 33 62  1  0
M  END
$$$$
[H]OC(=O)/C([H])=C([H])/C([H])=C(\[H])c1c([H])nc(C([H])([H])C([H])([H])C([H])([H])C([H])([H])[H])n1C([H])([H])c1c([H])c([H])c([H])c([H])c1Cl
     RDKit          3D

 45 46  0  0  0  0  0  0  0  0999 V2000
   -0.1242    4.8847    1.1504 C   0  0  0  0  0  0  0  0  0  0  0  0
   -0.3468    4.1776   -0.1405 C   0  0  0  0  0  0  0  0  0  0  0  0
   -1.5497    3.3109   -0.0646 C   0  0  0  0  0  0  0  0  0  0  0  0
   -1.4268    2.2204    0.9770 C   0  0  0  0  0  0  0  0  0  0  0  0
   -0.3143    1.2913    0.7174 C   0  0  0  0  0  0  0  0  0  0  0  0
    0.9070    1.5181    1.2952 N   0  0  0  0  0  0  0  0  0  0  0  0
    1.7390    0.5879    0.9090 C   0  0  0  0  0  0  0  0  0  0  0  0
    1.0192   -0.2496    0.0602 C   0  0  0  0  0  0  0  0  0  0  0  0
    1.7260   -1.3480   -0.5970 C   0  0  0  0  0  0  0  0  0  0  0  0
    2.9875   -1.6417   -0.4387 C   0  0  0  0  0  0  0  0  0  0  0  0
    3.6470   -2.7558   -1.1229 C   0  0  0  0  0  0  0  0  0  0  0  0
    4.9283   -3.0221   -0.9367 C   0  0  0  0  0  0  0  0  0  0  0  0
    5.6198   -4.1130   -1.5922 C   0  0  0  0  0  0  0  0  0  0  0  0
    6.9584   -4.3153   -1.3388 O   0  0  0  0  0  0  0  0  0  0  0  0
    5.0172   -4.8602   -2.3744 O   0  0  0  0  0  0  0  0  0  0  0  0
   -0.2498    0.1796   -0.0586 N   0  0  0  0  0  0  0  0  0  0  0  0
   -1.2567   -0.3154   -0.9010 C   0  0  0  0  0  0  0  0  0  0  0  0
   -2.4507   -0.9950   -0.3771 C   0  0  0  0  0  0  0  0  0  0  0  0
   -3.6861   -0.3008   -0.3969 C   0  0  0  0  0  0  0  0  0  0  0  0
   -4.8731   -0.7846    0.0244 C   0  0  0  0  0  0  0  0  0  0  0  0
   -4.9025   -2.0777    0.5253 C   0  0  0  0  0  0  0  0  0  0  0  0
   -3.7304   -2.7986    0.5676 C   0  0  0  0  0  0  0  0  0  0  0  0
   -2.5111   -2.2536    0.1159 C   0  0  0  0  0  0  0  0  0  0  0  0
   -1.1587   -3.3542    0.2428 Cl  0  0  0  0  0  0  0  0  0  0  0  0
    0.8116    4.5028    1.6163 H   0  0  0  0  0  0  0  0  0  0  0  0
   -0.0281    5.9994    0.9611 H   0  0  0  0  0  0  0  0  0  0  0  0
   -0.9385    4.8151    1.8888 H   0  0  0  0  0  0  0  0  0  0  0  0
    0.5584    3.6548   -0.5205 H   0  0  0  0  0  0  0  0  0  0  0  0
   -0.5471    4.9581   -0.9340 H   0  0  0  0  0  0  0  0  0  0  0  0
   -1.8782    2.9108   -1.0478 H   0  0  0  0  0  0  0  0  0  0  0  0
   -2.4065    3.9842    0.2406 H   0  0  0  0  0  0  0  0  0  0  0  0
   -2.3775    1.7740    1.2682 H   0  0  0  0  0  0  0  0  0  0  0  0
   -1.1895    2.8278    1.9298 H   0  0  0  0  0  0  0  0  0  0  0  0
    2.7699    0.5139    1.2073 H   0  0  0  0  0  0  0  0  0  0  0  0
    1.1448   -1.9578   -1.2824 H   0  0  0  0  0  0  0  0  0  0  0  0
    3.5857   -1.0418    0.2256 H   0  0  0  0  0  0  0  0  0  0  0  0
    3.1150   -3.4046   -1.8066 H   0  0  0  0  0  0  0  0  0  0  0  0
    5.4692   -2.3644   -0.2433 H   0  0  0  0  0  0  0  0  0  0  0  0
    7.5171   -3.8122   -0.6783 H   0  0  0  0  0  0  0  0  0  0  0  0
   -0.7893   -1.0318   -1.6897 H   0  0  0  0  0  0  0  0  0  0  0  0
   -1.6603    0.4741   -1.6185 H   0  0  0  0  0  0  0  0  0  0  0  0
   -3.6823    0.7291   -0.7909 H   0  0  0  0  0  0  0  0  0  0  0  0
   -5.8092   -0.2435    0.0033 H   0  0  0  0  0  0  0  0  0  0  0  0
   -5.8495   -2.4795    0.8683 H   0  0  0  0  0  0  0  0  0  0  0  0
   -3.7844   -3.7932    0.9591 H   0  0  0  0  0  0  0  0  0  0  0  0
  1  2  1  0
  2  3  1  0
  3  4  1  0
  4  5  1  0
  5  6  2  0
  6  7  1  0
  7  8  2  0
  8  9  1  0
  9 10  2  0
 10 11  1  0
 11 12  2  0
 12 13  1  0
 13 14  1  0
 13 15  2  0
  8 16  1  0
 16 17  1  0
 17 18  1  0
 18 19  2  0
 19 20  1  0
 20 21  2  0
 21 22  1  0
 22 23  2  0
 23 24  1  0
 16  5  1  0
 23 18  1  0
  1 25  1  0
  1 26  1  0
  1 27  1  0
  2 28  1  0
  2 29  1  0
  3 30  1  0
  3 31  1  0
  4 32  1  0
  4 33  1  0
  7 34  1  0
  9 35  1  0
 10 36  1  0
 11 37  1  0
 12 38  1  0
 14 39  1  0
 17 40  1  0
 17 41  1  0
 19 42  1  0
 20 43  1  0
 21 44  1  0
 22 45  1  0
M  END
$$$$
[H]C([H])=C([H])C(=O)N1C([H])([H])C([H])([H])[C@@]([H])(Oc2nc(N([H])c3c([H])c([H])c(N4C([H])([H])C([H])([H])C([H])(N5C([H])([H])C([H])([H])N(C([H])([H])[H])C([H])([H])C5([H])[H])C([H])([H])C4([H])[H])c([H])c3[H])c(C(=O)N([H])[H])nc2C([H])([H])C([H])([H])[H])C1([H])[H]
     RDKit          3D

 83 87  0  0  0  0  0  0  0  0999 V2000
   -6.9094   -3.0279    0.6840 C   0  0  0  0  0  0  0  0  0  0  0  0
   -6.8023   -2.5637   -0.7707 C   0  0  0  0  0  0  0  0  0  0  0  0
   -5.3651   -2.6720   -1.1450 C   0  0  0  0  0  0  0  0  0  0  0  0
   -4.9202   -3.6251   -1.9445 N   0  0  0  0  0  0  0  0  0  0  0  0
   -3.6127   -3.7585   -2.3381 C   0  0  0  0  0  0  0  0  0  0  0  0
   -3.2492   -4.8409   -3.2115 C   0  0  0  0  0  0  0  0  0  0  0  0
   -4.3303   -5.7140   -3.6267 N   0  0  0  0  0  0  0  0  0  0  0  0
   -2.1601   -5.1766   -3.6894 O   0  0  0  0  0  0  0  0  0  0  0  0
   -2.7440   -2.8049   -1.8335 C   0  0  0  0  0  0  0  0  0  0  0  0
   -1.3840   -2.8477   -2.1860 N   0  0  0  0  0  0  0  0  0  0  0  0
   -0.3445   -1.9919   -1.7442 C   0  0  0  0  0  0  0  0  0  0  0  0
   -0.4782   -1.0342   -0.7698 C   0  0  0  0  0  0  0  0  0  0  0  0
    0.6156   -0.2292   -0.3981 C   0  0  0  0  0  0  0  0  0  0  0  0
    1.8505   -0.3418   -0.9647 C   0  0  0  0  0  0  0  0  0  0  0  0
    1.9753   -1.3097   -1.9458 C   0  0  0  0  0  0  0  0  0  0  0  0
    0.9315   -2.1001   -2.3229 C   0  0  0  0  0  0  0  0  0  0  0  0
    2.9184    0.4695   -0.6034 N   0  0  0  0  0  0  0  0  0  0  0  0
    4.1776   -0.0911   -0.1939 C   0  0  0  0  0  0  0  0  0  0  0  0
    4.9248    0.9220    0.6879 C   0  0  0  0  0  0  0  0  0  0  0  0
    5.1741    2.1881   -0.0237 C   0  0  0  0  0  0  0  0  0  0  0  0
    4.1798    2.3930   -1.1576 C   0  0  0  0  0  0  0  0  0  0  0  0
    2.8202    1.9046   -0.6313 C   0  0  0  0  0  0  0  0  0  0  0  0
    6.5146    2.4241   -0.4106 N   0  0  0  0  0  0  0  0  0  0  0  0
    7.0900    3.6608    0.0779 C   0  0  0  0  0  0  0  0  0  0  0  0
    8.2154    3.4656    1.0449 C   0  0  0  0  0  0  0  0  0  0  0  0
    9.3219    2.8132    0.3352 N   0  0  0  0  0  0  0  0  0  0  0  0
   10.2993    2.3768    1.3010 C   0  0  0  0  0  0  0  0  0  0  0  0
    8.8401    1.6931   -0.4554 C   0  0  0  0  0  0  0  0  0  0  0  0
    7.3975    1.3645   -0.0344 C   0  0  0  0  0  0  0  0  0  0  0  0
   -3.2319   -1.8356   -1.0128 N   0  0  0  0  0  0  0  0  0  0  0  0
   -4.4727   -1.7009   -0.6335 C   0  0  0  0  0  0  0  0  0  0  0  0
   -5.0047   -0.7484    0.1776 O   0  0  0  0  0  0  0  0  0  0  0  0
   -4.4254    0.3860    0.7225 C   0  0  2  0  0  0  0  0  0  0  0  0
   -4.2360    0.1901    2.2163 C   0  0  0  0  0  0  0  0  0  0  0  0
   -5.3670    1.0024    2.8762 C   0  0  0  0  0  0  0  0  0  0  0  0
   -6.3380    1.0875    1.7740 N   0  0  0  0  0  0  0  0  0  0  0  0
   -5.5117    1.4689    0.6450 C   0  0  0  0  0  0  0  0  0  0  0  0
   -7.7324    0.8266    1.8396 C   0  0  0  0  0  0  0  0  0  0  0  0
   -8.4670    0.9424    0.8120 O   0  0  0  0  0  0  0  0  0  0  0  0
   -8.3700    0.4169    3.0750 C   0  0  0  0  0  0  0  0  0  0  0  0
   -9.6508    0.1601    3.1369 C   0  0  0  0  0  0  0  0  0  0  0  0
   -6.0184   -2.7062    1.2136 H   0  0  0  0  0  0  0  0  0  0  0  0
   -6.9013   -4.1465    0.6366 H   0  0  0  0  0  0  0  0  0  0  0  0
   -7.8649   -2.6517    1.0971 H   0  0  0  0  0  0  0  0  0  0  0  0
   -7.1752   -1.5405   -0.8945 H   0  0  0  0  0  0  0  0  0  0  0  0
   -7.4087   -3.2602   -1.3749 H   0  0  0  0  0  0  0  0  0  0  0  0
   -4.3748   -6.6762   -3.2958 H   0  0  0  0  0  0  0  0  0  0  0  0
   -5.0303   -5.3173   -4.2600 H   0  0  0  0  0  0  0  0  0  0  0  0
   -1.0665   -3.5840   -2.8636 H   0  0  0  0  0  0  0  0  0  0  0  0
   -1.4047   -0.8758   -0.2581 H   0  0  0  0  0  0  0  0  0  0  0  0
    0.4397    0.5162    0.3910 H   0  0  0  0  0  0  0  0  0  0  0  0
    2.9741   -1.3916   -2.3950 H   0  0  0  0  0  0  0  0  0  0  0  0
    1.0968   -2.8351   -3.0911 H   0  0  0  0  0  0  0  0  0  0  0  0
    4.8628   -0.3631   -0.9900 H   0  0  0  0  0  0  0  0  0  0  0  0
    3.9818   -0.9540    0.4633 H   0  0  0  0  0  0  0  0  0  0  0  0
    5.7941    0.3873    1.0602 H   0  0  0  0  0  0  0  0  0  0  0  0
    4.2584    1.0561    1.6006 H   0  0  0  0  0  0  0  0  0  0  0  0
    4.8576    3.0141    0.7296 H   0  0  0  0  0  0  0  0  0  0  0  0
    4.4176    1.7866   -2.0405 H   0  0  0  0  0  0  0  0  0  0  0  0
    4.0525    3.4740   -1.3659 H   0  0  0  0  0  0  0  0  0  0  0  0
    2.0199    2.2732   -1.3029 H   0  0  0  0  0  0  0  0  0  0  0  0
    2.7135    2.3729    0.3653 H   0  0  0  0  0  0  0  0  0  0  0  0
    7.5725    4.1186   -0.8483 H   0  0  0  0  0  0  0  0  0  0  0  0
    6.3352    4.4029    0.3791 H   0  0  0  0  0  0  0  0  0  0  0  0
    8.5692    4.4731    1.4007 H   0  0  0  0  0  0  0  0  0  0  0  0
    7.9758    2.9084    1.9476 H   0  0  0  0  0  0  0  0  0  0  0  0
   11.3091    2.3102    0.8399 H   0  0  0  0  0  0  0  0  0  0  0  0
   10.3059    3.1203    2.1286 H   0  0  0  0  0  0  0  0  0  0  0  0
    9.9560    1.4075    1.7063 H   0  0  0  0  0  0  0  0  0  0  0  0
    8.9268    1.8430   -1.5434 H   0  0  0  0  0  0  0  0  0  0  0  0
    9.4454    0.8072   -0.1830 H   0  0  0  0  0  0  0  0  0  0  0  0
    7.4681    1.1883    1.0648 H   0  0  0  0  0  0  0  0  0  0  0  0
    7.1198    0.4415   -0.5599 H   0  0  0  0  0  0  0  0  0  0  0  0
   -3.4854    0.6965    0.2398 H   0  0  0  0  0  0  0  0  0  0  0  0
   -4.3975   -0.8809    2.4888 H   0  0  0  0  0  0  0  0  0  0  0  0
   -3.2555    0.5414    2.5631 H   0  0  0  0  0  0  0  0  0  0  0  0
   -4.9964    2.0283    3.0333 H   0  0  0  0  0  0  0  0  0  0  0  0
   -5.7705    0.5130    3.7640 H   0  0  0  0  0  0  0  0  0  0  0  0
   -5.1296    2.4802    0.6862 H   0  0  0  0  0  0  0  0  0  0  0  0
   -6.1319    1.3005   -0.2798 H   0  0  0  0  0  0  0  0  0  0  0  0
   -7.7881    0.3110    4.0010 H   0  0  0  0  0  0  0  0  0  0  0  0
  -10.0887   -0.1463    4.0957 H   0  0  0  0  0  0  0  0  0  0  0  0
  -10.3033    0.2277    2.2918 H   0  0  0  0  0  0  0  0  0  0  0  0
  1  2  1  0
  2  3  1  0
  3  4  2  0
  4  5  1  0
  5  6  1  0
  6  7  1  0
  6  8  2  0
  5  9  2  0
  9 10  1  0
 10 11  1  0
 11 12  2  0
 12 13  1  0
 13 14  2  0
 14 15  1  0
 15 16  2  0
 14 17  1  0
 17 18  1  0
 18 19  1  0
 19 20  1  0
 20 21  1  0
 21 22  1  0
 20 23  1  0
 23 24  1  0
 24 25  1  0
 25 26  1  0
 26 27  1  0
 26 28  1  0
 28 29  1  0
  9 30  1  0
 30 31  2  0
 31 32  1  0
 32 33  1  0
 33 34  1  0
 34 35  1  0
 35 36  1  0
 36 37  1  0
 36 38  1  0
 38 39  2  0
 38 40  1  0
 40 41  2  3
 31  3  1  0
 37 33  1  0
 16 11  1  0
 22 17  1  0
 29 23  1  0
  1 42  1  0
  1 43  1  0
  1 44  1  0
  2 45  1  0
  2 46  1  0
  7 47  1  0
  7 48  1  0
 10 49  1  0
 12 50  1  0
 13 51  1  0
 15 52  1  0
 16 53  1  0
 18 54  1  0
 18 55  1  0
 19 56  1  0
 19 57  1  0
 20 58  1  0
 21 59  1  0
 21 60  1  0
 22 61  1  0
 22 62  1  0
 24 63  1  0
 24 64  1  0
 25 65  1  0
 25 66  1  0
 27 67  1  0
 27 68  1  0
 27 69  1  0
 28 70  1  0
 28 71  1  0
 29 72  1  0
 29 73  1  0
 33 74  1  6
 34 75  1  0
 34 76  1  0
 35 77  1  0
 35 78  1  0
 37 79  1  0
 37 80  1  0
 40 81  1  0
 41 82  1  0
 41 83  1  0
M  END
$$$$
[H]c1nc(N([H])c2c([H])c([H])c(F)c(Cl)c2[H])c2c3c(c(OC4([H])C([H])([H])C([H])([H])OC([H])([H])C4([H])[H])c([H])c2n1)OC([H])([H])C([H])([H])O3
     RDKit          3D

 49 53  0  0  0  0  0  0  0  0999 V2000
    8.8234    0.0888    0.0631 F   0  0  0  0  0  0  0  0  0  0  0  0
    7.4770    0.1629    0.0652 C   0  0  0  0  0  0  0  0  0  0  0  0
    6.8865    1.2965    0.6107 C   0  0  0  0  0  0  0  0  0  0  0  0
    5.5232    1.3314    0.5924 C   0  0  0  0  0  0  0  0  0  0  0  0
    4.7501    0.2922    0.0580 C   0  0  0  0  0  0  0  0  0  0  0  0
    3.3095    0.3858    0.1112 N   0  0  0  0  0  0  0  0  0  0  0  0
    2.4758   -0.1301   -0.8975 C   0  0  0  0  0  0  0  0  0  0  0  0
    3.0373   -0.5807   -2.0559 N   0  0  0  0  0  0  0  0  0  0  0  0
    2.3553   -1.0096   -3.1041 C   0  0  0  0  0  0  0  0  0  0  0  0
    1.0192   -1.0103   -3.0457 N   0  0  0  0  0  0  0  0  0  0  0  0
    0.3910   -0.5762   -1.9226 C   0  0  0  0  0  0  0  0  0  0  0  0
   -0.9667   -0.5779   -1.8348 C   0  0  0  0  0  0  0  0  0  0  0  0
   -1.6813   -0.1498   -0.6870 C   0  0  0  0  0  0  0  0  0  0  0  0
   -3.0197   -0.1957   -0.7158 O   0  0  0  0  0  0  0  0  0  0  0  0
   -4.0044    0.1167    0.1517 C   0  0  0  0  0  0  0  0  0  0  0  0
   -4.8823    1.2523   -0.3933 C   0  0  0  0  0  0  0  0  0  0  0  0
   -6.2626    1.0233    0.1869 C   0  0  0  0  0  0  0  0  0  0  0  0
   -6.8036   -0.0475   -0.5220 O   0  0  0  0  0  0  0  0  0  0  0  0
   -6.0789   -1.2132   -0.3555 C   0  0  0  0  0  0  0  0  0  0  0  0
   -4.8800   -1.0776    0.5170 C   0  0  0  0  0  0  0  0  0  0  0  0
   -0.9307    0.2768    0.3592 C   0  0  0  0  0  0  0  0  0  0  0  0
   -1.4624    0.7307    1.5633 O   0  0  0  0  0  0  0  0  0  0  0  0
   -0.8881    0.3791    2.8112 C   0  0  0  0  0  0  0  0  0  0  0  0
    0.6021    0.3129    2.7511 C   0  0  0  0  0  0  0  0  0  0  0  0
    1.0853    0.7563    1.4684 O   0  0  0  0  0  0  0  0  0  0  0  0
    0.4606    0.2939    0.3078 C   0  0  0  0  0  0  0  0  0  0  0  0
    1.1213   -0.1236   -0.8148 C   0  0  0  0  0  0  0  0  0  0  0  0
    5.3449   -0.8068   -0.4691 C   0  0  0  0  0  0  0  0  0  0  0  0
    6.7505   -0.8655   -0.4621 C   0  0  0  0  0  0  0  0  0  0  0  0
    7.5602   -2.2689   -1.1355 Cl  0  0  0  0  0  0  0  0  0  0  0  0
    7.4372    2.1096    1.0275 H   0  0  0  0  0  0  0  0  0  0  0  0
    4.9762    2.1680    0.9921 H   0  0  0  0  0  0  0  0  0  0  0  0
    2.9749    0.8803    0.9261 H   0  0  0  0  0  0  0  0  0  0  0  0
    2.8217   -1.3687   -4.0283 H   0  0  0  0  0  0  0  0  0  0  0  0
   -1.5658   -0.9221   -2.6779 H   0  0  0  0  0  0  0  0  0  0  0  0
   -3.6415    0.5017    1.1142 H   0  0  0  0  0  0  0  0  0  0  0  0
   -4.9641    1.1697   -1.4848 H   0  0  0  0  0  0  0  0  0  0  0  0
   -4.5072    2.2321   -0.0536 H   0  0  0  0  0  0  0  0  0  0  0  0
   -6.9197    1.8988    0.0044 H   0  0  0  0  0  0  0  0  0  0  0  0
   -6.2187    0.7687    1.2626 H   0  0  0  0  0  0  0  0  0  0  0  0
   -5.8213   -1.5957   -1.3687 H   0  0  0  0  0  0  0  0  0  0  0  0
   -6.7682   -1.9589    0.0922 H   0  0  0  0  0  0  0  0  0  0  0  0
   -5.1728   -1.0628    1.5848 H   0  0  0  0  0  0  0  0  0  0  0  0
   -4.2440   -1.9749    0.3745 H   0  0  0  0  0  0  0  0  0  0  0  0
   -1.1799    1.0931    3.6090 H   0  0  0  0  0  0  0  0  0  0  0  0
   -1.2683   -0.6409    3.0539 H   0  0  0  0  0  0  0  0  0  0  0  0
    1.0746    1.0017    3.5098 H   0  0  0  0  0  0  0  0  0  0  0  0
    1.0341   -0.6885    2.9150 H   0  0  0  0  0  0  0  0  0  0  0  0
    4.8400   -1.6775   -0.8881 H   0  0  0  0  0  0  0  0  0  0  0  0
  1  2  1  0
  2  3  2  0
  3  4  1  0
  4  5  2  0
  5  6  1  0
  6  7  1  0
  7  8  2  0
  8  9  1  0
  9 10  2  0
 10 11  1  0
 11 12  2  0
 12 13  1  0
 13 14  1  0
 14 15  1  0
 15 16  1  0
 16 17  1  0
 17 18  1  0
 18 19  1  0
 19 20  1  0
 13 21  2  0
 21 22  1  0
 22 23  1  0
 23 24  1  0
 24 25  1  0
 25 26  1  0
 26 27  2  0
  5 28  1  0
 28 29  2  0
 29 30  1  0
 29  2  1  0
 27  7  1  0
 27 11  1  0
 20 15  1  0
 26 21  1  0
  3 31  1  0
  4 32  1  0
  6 33  1  0
  9 34  1  0
 12 35  1  0
 15 36  1  0
 16 37  1  0
 16 38  1  0
 17 39  1  0
 17 40  1  0
 19 41  1  0
 19 42  1  0
 20 43  1  0
 20 44  1  0
 23 45  1  0
 23 46  1  0
 24 47  1  0
 24 48  1  0
 28 49  1  0
M  END
$$$$
[H]/C(C(=O)N([H])c1c(OC([H])([H])C([H])([H])[H])c([H])c2nc([H])c(C#N)c(N([H])c3c([H])c([H])c(F)c(Cl)c3[H])c2c1[H])=C(/[H])C([H])([H])N(C([H])([H])[H])C([H])([H])[H]
     RDKit          3D

 56 58  0  0  0  0  0  0  0  0999 V2000
    1.9519    3.4750   -4.6493 C   0  0  0  0  0  0  0  0  0  0  0  0
    0.6883    2.7548   -4.2907 C   0  0  0  0  0  0  0  0  0  0  0  0
    0.8105    1.9797   -3.1134 O   0  0  0  0  0  0  0  0  0  0  0  0
   -0.3050    1.2750   -2.6915 C   0  0  0  0  0  0  0  0  0  0  0  0
   -1.4977    1.3166   -3.3824 C   0  0  0  0  0  0  0  0  0  0  0  0
   -2.5657    0.5873   -2.8999 C   0  0  0  0  0  0  0  0  0  0  0  0
   -3.7532    0.5988   -3.5386 N   0  0  0  0  0  0  0  0  0  0  0  0
   -4.7931   -0.1083   -3.0674 C   0  0  0  0  0  0  0  0  0  0  0  0
   -4.7107   -0.8732   -1.9250 C   0  0  0  0  0  0  0  0  0  0  0  0
   -5.8717   -1.6159   -1.4641 C   0  0  0  0  0  0  0  0  0  0  0  0
   -6.7895   -2.2200   -1.0944 N   0  0  0  0  0  0  0  0  0  0  0  0
   -3.5140   -0.9077   -1.2484 C   0  0  0  0  0  0  0  0  0  0  0  0
   -3.3702   -1.6752   -0.0576 N   0  0  0  0  0  0  0  0  0  0  0  0
   -3.6014   -1.1739    1.2284 C   0  0  0  0  0  0  0  0  0  0  0  0
   -3.4799   -2.0031    2.3156 C   0  0  0  0  0  0  0  0  0  0  0  0
   -3.7110   -1.4716    3.5727 C   0  0  0  0  0  0  0  0  0  0  0  0
   -4.0547   -0.1590    3.7813 C   0  0  0  0  0  0  0  0  0  0  0  0
   -4.2764    0.3475    5.0272 F   0  0  0  0  0  0  0  0  0  0  0  0
   -4.1757    0.6694    2.6870 C   0  0  0  0  0  0  0  0  0  0  0  0
   -4.6155    2.3737    2.8864 Cl  0  0  0  0  0  0  0  0  0  0  0  0
   -3.9463    0.1427    1.4344 C   0  0  0  0  0  0  0  0  0  0  0  0
   -2.4584   -0.1751   -1.7485 C   0  0  0  0  0  0  0  0  0  0  0  0
   -1.2341   -0.2029   -1.0611 C   0  0  0  0  0  0  0  0  0  0  0  0
   -0.1573    0.5130   -1.5193 C   0  0  0  0  0  0  0  0  0  0  0  0
    1.0623    0.5075   -0.8563 N   0  0  0  0  0  0  0  0  0  0  0  0
    1.4921   -0.1566    0.2915 C   0  0  0  0  0  0  0  0  0  0  0  0
    0.7391   -0.9189    0.9350 O   0  0  0  0  0  0  0  0  0  0  0  0
    2.8709    0.0235    0.7902 C   0  0  0  0  0  0  0  0  0  0  0  0
    3.2754   -0.6031    1.8676 C   0  0  0  0  0  0  0  0  0  0  0  0
    4.6737   -0.4400    2.4013 C   0  0  0  0  0  0  0  0  0  0  0  0
    5.3999   -1.6709    2.4439 N   0  0  0  0  0  0  0  0  0  0  0  0
    4.9211   -2.6242    3.3983 C   0  0  0  0  0  0  0  0  0  0  0  0
    6.8125   -1.4208    2.5940 C   0  0  0  0  0  0  0  0  0  0  0  0
    2.8388    2.9215   -4.2368 H   0  0  0  0  0  0  0  0  0  0  0  0
    2.0856    3.6058   -5.7412 H   0  0  0  0  0  0  0  0  0  0  0  0
    1.9339    4.4490   -4.1148 H   0  0  0  0  0  0  0  0  0  0  0  0
    0.4848    2.0325   -5.1345 H   0  0  0  0  0  0  0  0  0  0  0  0
   -0.2009    3.4107   -4.2657 H   0  0  0  0  0  0  0  0  0  0  0  0
   -1.6304    1.8852   -4.2686 H   0  0  0  0  0  0  0  0  0  0  0  0
   -5.7630   -0.1018   -3.5855 H   0  0  0  0  0  0  0  0  0  0  0  0
   -3.0749   -2.6624   -0.1924 H   0  0  0  0  0  0  0  0  0  0  0  0
   -3.2114   -3.0495    2.2216 H   0  0  0  0  0  0  0  0  0  0  0  0
   -3.6210   -2.1092    4.4469 H   0  0  0  0  0  0  0  0  0  0  0  0
   -4.0579    0.8475    0.6039 H   0  0  0  0  0  0  0  0  0  0  0  0
   -1.2257   -0.8106   -0.1832 H   0  0  0  0  0  0  0  0  0  0  0  0
    1.8336    1.1305   -1.3000 H   0  0  0  0  0  0  0  0  0  0  0  0
    3.5147    0.6778    0.2415 H   0  0  0  0  0  0  0  0  0  0  0  0
    2.5620   -1.2528    2.3708 H   0  0  0  0  0  0  0  0  0  0  0  0
    4.5709   -0.0078    3.4243 H   0  0  0  0  0  0  0  0  0  0  0  0
    5.2074    0.2478    1.7108 H   0  0  0  0  0  0  0  0  0  0  0  0
    5.2487   -2.3991    4.4452 H   0  0  0  0  0  0  0  0  0  0  0  0
    5.3671   -3.6215    3.1492 H   0  0  0  0  0  0  0  0  0  0  0  0
    3.8177   -2.7033    3.3448 H   0  0  0  0  0  0  0  0  0  0  0  0
    7.1304   -1.8689    3.5597 H   0  0  0  0  0  0  0  0  0  0  0  0
    7.3909   -1.8908    1.7839 H   0  0  0  0  0  0  0  0  0  0  0  0
    6.9828   -0.3278    2.6731 H   0  0  0  0  0  0  0  0  0  0  0  0
  1  2  1  0
  2  3  1  0
  3  4  1  0
  4  5  2  0
  5  6  1  0
  6  7  2  0
  7  8  1  0
  8  9  2  0
  9 10  1  0
 10 11  3  0
  9 12  1  0
 12 13  1  0
 13 14  1  0
 14 15  2  0
 15 16  1  0
 16 17  2  0
 17 18  1  0
 17 19  1  0
 19 20  1  0
 19 21  2  0
 12 22  2  0
 22 23  1  0
 23 24  2  0
 24 25  1  0
 25 26  1  0
 26 27  2  0
 26 28  1  0
 28 29  2  0
 29 30  1  0
 30 31  1  0
 31 32  1  0
 31 33  1  0
 24  4  1  0
 22  6  1  0
 21 14  1  0
  1 34  1  0
  1 35  1  0
  1 36  1  0
  2 37  1  0
  2 38  1  0
  5 39  1  0
  8 40  1  0
 13 41  1  0
 15 42  1  0
 16 43  1  0
 21 44  1  0
 23 45  1  0
 25 46  1  0
 28 47  1  0
 29 48  1  0
 30 49  1  0
 30 50  1  0
 32 51  1  0
 32 52  1  0
 32 53  1  0
 33 54  1  0
 33 55  1  0
 33 56  1  0
M  END
$$$$
[H]C([H])=C([H])C(=O)N([H])c1c([H])c([H])c([H])c(Oc2nc(N([H])c3c([H])c([H])c(N4C([H])([H])C([H])([H])N(C(=O)C(F)(F)F)C([H])([H])C4([H])[H])c([H])c3OC([H])([H])[H])nc([H])c2Cl)c1[H]
     RDKit          3D

 64 67  0  0  0  0  0  0  0  0999 V2000
   -1.7846   -1.9655   -2.8887 C   0  0  0  0  0  0  0  0  0  0  0  0
   -1.0940   -1.2086   -1.9074 O   0  0  0  0  0  0  0  0  0  0  0  0
   -1.8100   -0.6785   -0.8407 C   0  0  0  0  0  0  0  0  0  0  0  0
   -3.1698   -0.8711   -0.7155 C   0  0  0  0  0  0  0  0  0  0  0  0
   -3.8922   -0.3535    0.3337 C   0  0  0  0  0  0  0  0  0  0  0  0
   -3.1837    0.3702    1.2565 C   0  0  0  0  0  0  0  0  0  0  0  0
   -1.7910    0.5758    1.1412 C   0  0  0  0  0  0  0  0  0  0  0  0
   -1.0781    0.0616    0.1008 C   0  0  0  0  0  0  0  0  0  0  0  0
    0.3066    0.2143   -0.0933 N   0  0  0  0  0  0  0  0  0  0  0  0
    1.2213    0.8924    0.6987 C   0  0  0  0  0  0  0  0  0  0  0  0
    0.9693    1.5487    1.8232 N   0  0  0  0  0  0  0  0  0  0  0  0
    1.8757    2.1918    2.5646 C   0  0  0  0  0  0  0  0  0  0  0  0
    3.1855    2.1822    2.1399 C   0  0  0  0  0  0  0  0  0  0  0  0
    4.4164    3.0046    3.0640 Cl  0  0  0  0  0  0  0  0  0  0  0  0
    3.5119    1.5173    0.9785 C   0  0  0  0  0  0  0  0  0  0  0  0
    4.8438    1.4888    0.5172 O   0  0  0  0  0  0  0  0  0  0  0  0
    5.6860    0.4427    0.8022 C   0  0  0  0  0  0  0  0  0  0  0  0
    5.3087   -0.6494    1.5394 C   0  0  0  0  0  0  0  0  0  0  0  0
    6.2337   -1.6523    1.7716 C   0  0  0  0  0  0  0  0  0  0  0  0
    7.5058   -1.5928    1.2933 C   0  0  0  0  0  0  0  0  0  0  0  0
    7.9115   -0.4734    0.5304 C   0  0  0  0  0  0  0  0  0  0  0  0
    9.2427   -0.4176    0.0689 N   0  0  0  0  0  0  0  0  0  0  0  0
    9.6505    0.3242   -1.0448 C   0  0  0  0  0  0  0  0  0  0  0  0
    8.8749    0.9938   -1.7340 O   0  0  0  0  0  0  0  0  0  0  0  0
   11.0753    0.3452   -1.4671 C   0  0  0  0  0  0  0  0  0  0  0  0
   11.4847    1.0350   -2.5102 C   0  0  0  0  0  0  0  0  0  0  0  0
    6.9990    0.5108    0.3051 C   0  0  0  0  0  0  0  0  0  0  0  0
    2.5334    0.9021    0.3040 N   0  0  0  0  0  0  0  0  0  0  0  0
   -5.2904   -0.5868    0.4355 N   0  0  0  0  0  0  0  0  0  0  0  0
   -5.9953   -1.6177   -0.3086 C   0  0  0  0  0  0  0  0  0  0  0  0
   -6.9609   -0.9025   -1.2274 C   0  0  0  0  0  0  0  0  0  0  0  0
   -7.8771   -0.0605   -0.4570 N   0  0  0  0  0  0  0  0  0  0  0  0
   -7.3112    0.8378    0.4959 C   0  0  0  0  0  0  0  0  0  0  0  0
   -6.1662    0.2129    1.3067 C   0  0  0  0  0  0  0  0  0  0  0  0
   -9.2525   -0.1683   -0.6837 C   0  0  0  0  0  0  0  0  0  0  0  0
   -9.7183   -0.9850   -1.5531 O   0  0  0  0  0  0  0  0  0  0  0  0
  -10.2353    0.6564    0.0706 C   0  0  0  0  0  0  0  0  0  0  0  0
  -10.0025    2.0186   -0.1032 F   0  0  0  0  0  0  0  0  0  0  0  0
  -10.3163    0.3012    1.4041 F   0  0  0  0  0  0  0  0  0  0  0  0
  -11.5245    0.4594   -0.4322 F   0  0  0  0  0  0  0  0  0  0  0  0
   -2.5614   -1.2884   -3.3117 H   0  0  0  0  0  0  0  0  0  0  0  0
   -1.0738   -2.3064   -3.6413 H   0  0  0  0  0  0  0  0  0  0  0  0
   -2.2543   -2.8249   -2.3433 H   0  0  0  0  0  0  0  0  0  0  0  0
   -3.6714   -1.4611   -1.5001 H   0  0  0  0  0  0  0  0  0  0  0  0
   -3.7066    0.7949    2.1037 H   0  0  0  0  0  0  0  0  0  0  0  0
   -1.3226    1.1607    1.9191 H   0  0  0  0  0  0  0  0  0  0  0  0
    0.7502   -0.2510   -0.9755 H   0  0  0  0  0  0  0  0  0  0  0  0
    1.6519    2.7245    3.4837 H   0  0  0  0  0  0  0  0  0  0  0  0
    4.2986   -0.6899    1.9150 H   0  0  0  0  0  0  0  0  0  0  0  0
    5.9118   -2.5019    2.3552 H   0  0  0  0  0  0  0  0  0  0  0  0
    8.2595   -2.3472    1.4476 H   0  0  0  0  0  0  0  0  0  0  0  0
    9.9734   -0.9898    0.6270 H   0  0  0  0  0  0  0  0  0  0  0  0
   11.7851   -0.2348   -0.8817 H   0  0  0  0  0  0  0  0  0  0  0  0
   12.5292    1.0182   -2.7763 H   0  0  0  0  0  0  0  0  0  0  0  0
   10.7967    1.6119   -3.0980 H   0  0  0  0  0  0  0  0  0  0  0  0
    7.2306    1.4161   -0.2541 H   0  0  0  0  0  0  0  0  0  0  0  0
   -5.3778   -2.2792   -0.8977 H   0  0  0  0  0  0  0  0  0  0  0  0
   -6.5912   -2.1836    0.4671 H   0  0  0  0  0  0  0  0  0  0  0  0
   -7.5199   -1.6339   -1.8411 H   0  0  0  0  0  0  0  0  0  0  0  0
   -6.3543   -0.2223   -1.8657 H   0  0  0  0  0  0  0  0  0  0  0  0
   -8.0193    1.2207    1.2583 H   0  0  0  0  0  0  0  0  0  0  0  0
   -6.8727    1.7477   -0.0116 H   0  0  0  0  0  0  0  0  0  0  0  0
   -5.6368    1.0796    1.7423 H   0  0  0  0  0  0  0  0  0  0  0  0
   -6.6078   -0.4645    2.0530 H   0  0  0  0  0  0  0  0  0  0  0  0
  1  2  1  0
  2  3  1  0
  3  4  2  0
  4  5  1  0
  5  6  2  0
  6  7  1  0
  7  8  2  0
  8  9  1  0
  9 10  1  0
 10 11  2  0
 11 12  1  0
 12 13  2  0
 13 14  1  0
 13 15  1  0
 15 16  1  0
 16 17  1  0
 17 18  2  0
 18 19  1  0
 19 20  2  0
 20 21  1  0
 21 22  1  0
 22 23  1  0
 23 24  2  0
 23 25  1  0
 25 26  2  3
 21 27  2  0
 15 28  2  0
  5 29  1  0
 29 30  1  0
 30 31  1  0
 31 32  1  0
 32 33  1  0
 33 34  1  0
 32 35  1  0
 35 36  2  0
 35 37  1  0
 37 38  1  0
 37 39  1  0
 37 40  1  0
  8  3  1  0
 28 10  1  0
 34 29  1  0
 27 17  1  0
  1 41  1  0
  1 42  1  0
  1 43  1  0
  4 44  1  0
  6 45  1  0
  7 46  1  0
  9 47  1  0
 12 48  1  0
 18 49  1  0
 19 50  1  0
 20 51  1  0
 22 52  1  0
 25 53  1  0
 26 54  1  0
 26 55  1  0
 27 56  1  0
 30 57  1  0
 30 58  1  0
 31 59  1  0
 31 60  1  0
 33 61  1  0
 33 62  1  0
 34 63  1  0
 34 64  1  0
M  END
$$$$
[H]C([H])=C([H])C(=O)N([H])c1c([H])c([H])c([H])c(Oc2nc([H])nc(N([H])c3c([H])c([H])c(OC([H])([H])c4c([H])c([H])c([H])c(F)c4[H])c(Cl)c3[H])c2[H])c1[H]
     RDKit          3D

 55 58  0  0  0  0  0  0  0  0999 V2000
   -9.6774   -0.4100    1.9747 F   0  0  0  0  0  0  0  0  0  0  0  0
   -9.1410   -0.5603    0.7430 C   0  0  0  0  0  0  0  0  0  0  0  0
   -9.2854   -1.7438    0.0749 C   0  0  0  0  0  0  0  0  0  0  0  0
   -8.7441   -1.8995   -1.1767 C   0  0  0  0  0  0  0  0  0  0  0  0
   -8.0447   -0.8304   -1.7559 C   0  0  0  0  0  0  0  0  0  0  0  0
   -7.8940    0.3597   -1.0972 C   0  0  0  0  0  0  0  0  0  0  0  0
   -7.1456    1.4506   -1.8131 C   0  0  0  0  0  0  0  0  0  0  0  0
   -5.8589    1.2869   -1.9750 O   0  0  0  0  0  0  0  0  0  0  0  0
   -4.6658    1.1188   -1.3878 C   0  0  0  0  0  0  0  0  0  0  0  0
   -4.5031    1.0712   -0.0036 C   0  0  0  0  0  0  0  0  0  0  0  0
   -3.2884    0.9046    0.5943 C   0  0  0  0  0  0  0  0  0  0  0  0
   -2.1167    0.7707   -0.1853 C   0  0  0  0  0  0  0  0  0  0  0  0
   -0.8789    0.5993    0.4773 N   0  0  0  0  0  0  0  0  0  0  0  0
    0.3349    1.1105   -0.0611 C   0  0  0  0  0  0  0  0  0  0  0  0
    1.5184    0.8989    0.6563 C   0  0  0  0  0  0  0  0  0  0  0  0
    2.6875    1.3954    0.1889 C   0  0  0  0  0  0  0  0  0  0  0  0
    3.9012    1.2507    0.8116 O   0  0  0  0  0  0  0  0  0  0  0  0
    4.7000    0.1411    0.6660 C   0  0  0  0  0  0  0  0  0  0  0  0
    4.2317   -0.9739   -0.0137 C   0  0  0  0  0  0  0  0  0  0  0  0
    5.0232   -2.0918   -0.1671 C   0  0  0  0  0  0  0  0  0  0  0  0
    6.3104   -2.1261    0.3565 C   0  0  0  0  0  0  0  0  0  0  0  0
    6.8102   -1.0528    1.0311 C   0  0  0  0  0  0  0  0  0  0  0  0
    8.1228   -0.9771    1.5689 N   0  0  0  0  0  0  0  0  0  0  0  0
    9.2544   -1.7001    1.2128 C   0  0  0  0  0  0  0  0  0  0  0  0
    9.1694   -2.5659    0.2754 O   0  0  0  0  0  0  0  0  0  0  0  0
   10.5378   -1.5156    1.8626 C   0  0  0  0  0  0  0  0  0  0  0  0
   10.7256   -0.6632    2.8284 C   0  0  0  0  0  0  0  0  0  0  0  0
    5.9691    0.0640    1.1640 C   0  0  0  0  0  0  0  0  0  0  0  0
    2.6809    2.0997   -0.9895 N   0  0  0  0  0  0  0  0  0  0  0  0
    1.5623    2.2997   -1.6678 C   0  0  0  0  0  0  0  0  0  0  0  0
    0.4280    1.8047   -1.1899 N   0  0  0  0  0  0  0  0  0  0  0  0
   -2.2584    0.8122   -1.5360 C   0  0  0  0  0  0  0  0  0  0  0  0
   -3.4917    0.9814   -2.1311 C   0  0  0  0  0  0  0  0  0  0  0  0
   -3.5924    1.0249   -3.8791 Cl  0  0  0  0  0  0  0  0  0  0  0  0
   -8.4401    0.4904    0.1446 C   0  0  0  0  0  0  0  0  0  0  0  0
   -9.8429   -2.5805    0.5400 H   0  0  0  0  0  0  0  0  0  0  0  0
   -8.8529   -2.8290   -1.7082 H   0  0  0  0  0  0  0  0  0  0  0  0
   -7.6449   -1.0268   -2.7406 H   0  0  0  0  0  0  0  0  0  0  0  0
   -7.3885    2.3701   -1.1811 H   0  0  0  0  0  0  0  0  0  0  0  0
   -7.7234    1.5487   -2.7866 H   0  0  0  0  0  0  0  0  0  0  0  0
   -5.3796    1.1736    0.6023 H   0  0  0  0  0  0  0  0  0  0  0  0
   -3.1408    0.8646    1.6650 H   0  0  0  0  0  0  0  0  0  0  0  0
   -0.8209    0.0842    1.3982 H   0  0  0  0  0  0  0  0  0  0  0  0
    1.4920    0.3357    1.5830 H   0  0  0  0  0  0  0  0  0  0  0  0
    3.2478   -0.9711   -0.4242 H   0  0  0  0  0  0  0  0  0  0  0  0
    4.6505   -2.9757   -0.7059 H   0  0  0  0  0  0  0  0  0  0  0  0
    6.9127   -3.0263    0.2348 H   0  0  0  0  0  0  0  0  0  0  0  0
    8.2210   -0.2584    2.3564 H   0  0  0  0  0  0  0  0  0  0  0  0
   11.3842   -2.1333    1.5086 H   0  0  0  0  0  0  0  0  0  0  0  0
    9.9748   -0.0045    3.2585 H   0  0  0  0  0  0  0  0  0  0  0  0
   11.7362   -0.5883    3.2623 H   0  0  0  0  0  0  0  0  0  0  0  0
    6.3436    0.9479    1.6978 H   0  0  0  0  0  0  0  0  0  0  0  0
    1.6109    2.8693   -2.6076 H   0  0  0  0  0  0  0  0  0  0  0  0
   -1.4075    0.6878   -2.2153 H   0  0  0  0  0  0  0  0  0  0  0  0
   -8.3136    1.4424    0.6611 H   0  0  0  0  0  0  0  0  0  0  0  0
  1  2  1  0
  2  3  2  0
  3  4  1  0
  4  5  2  0
  5  6  1  0
  6  7  1  0
  7  8  1  0
  8  9  1  0
  9 10  2  0
 10 11  1  0
 11 12  2  0
 12 13  1  0
 13 14  1  0
 14 15  2  0
 15 16  1  0
 16 17  1  0
 17 18  1  0
 18 19  2  0
 19 20  1  0
 20 21  2  0
 21 22  1  0
 22 23  1  0
 23 24  1  0
 24 25  2  0
 24 26  1  0
 26 27  2  3
 22 28  2  0
 16 29  2  0
 29 30  1  0
 30 31  2  0
 12 32  1  0
 32 33  2  0
 33 34  1  0
  6 35  2  0
 35  2  1  0
 33  9  1  0
 31 14  1  0
 28 18  1  0
  3 36  1  0
  4 37  1  0
  5 38  1  0
  7 39  1  0
  7 40  1  0
 10 41  1  0
 11 42  1  0
 13 43  1  0
 15 44  1  0
 19 45  1  0
 20 46  1  0
 21 47  1  0
 23 48  1  0
 26 49  1  0
 27 50  1  0
 27 51  1  0
 28 52  1  0
 30 53  1  0
 32 54  1  0
 35 55  1  0
M  END
$$$$
[H]/C(=N\OC([H])([H])c1c([H])c([H])c([H])c([H])c1OC([H])([H])[H])c1c(N([H])[H])nc([H])nc1N([H])c1c([H])c([H])c2c(c([H])nn2C([H])([H])c2c([H])c([H])c([H])c(F)c2[H])c1[H]
     RDKit          3D

 61 65  0  0  0  0  0  0  0  0999 V2000
   -9.0413    3.0064    0.9440 C   0  0  0  0  0  0  0  0  0  0  0  0
   -7.8948    2.1855    0.8441 O   0  0  0  0  0  0  0  0  0  0  0  0
   -7.6827    1.5314   -0.3663 C   0  0  0  0  0  0  0  0  0  0  0  0
   -8.5486    1.6648   -1.4454 C   0  0  0  0  0  0  0  0  0  0  0  0
   -8.3100    1.0032   -2.6309 C   0  0  0  0  0  0  0  0  0  0  0  0
   -7.1818    0.2103   -2.6938 C   0  0  0  0  0  0  0  0  0  0  0  0
   -6.3117    0.0607   -1.6463 C   0  0  0  0  0  0  0  0  0  0  0  0
   -6.5709    0.7324   -0.4700 C   0  0  0  0  0  0  0  0  0  0  0  0
   -5.6336    0.5868    0.6953 C   0  0  0  0  0  0  0  0  0  0  0  0
   -4.5706   -0.2811    0.3492 O   0  0  0  0  0  0  0  0  0  0  0  0
   -3.6192   -0.5219    1.3113 N   0  0  0  0  0  0  0  0  0  0  0  0
   -2.3481   -0.6320    1.0205 C   0  0  0  0  0  0  0  0  0  0  0  0
   -1.3501   -0.8844    2.0278 C   0  0  0  0  0  0  0  0  0  0  0  0
   -1.7012   -1.0252    3.3786 C   0  0  0  0  0  0  0  0  0  0  0  0
   -3.0943   -0.8982    3.6644 N   0  0  0  0  0  0  0  0  0  0  0  0
   -0.7830   -1.2632    4.3321 N   0  0  0  0  0  0  0  0  0  0  0  0
    0.5234   -1.3758    4.0160 C   0  0  0  0  0  0  0  0  0  0  0  0
    0.8739   -1.2446    2.7371 N   0  0  0  0  0  0  0  0  0  0  0  0
   -0.0148   -1.0024    1.7273 C   0  0  0  0  0  0  0  0  0  0  0  0
    0.4209   -0.8327    0.3947 N   0  0  0  0  0  0  0  0  0  0  0  0
    1.7915   -0.9963    0.0589 C   0  0  0  0  0  0  0  0  0  0  0  0
    2.3784   -0.1850   -0.9037 C   0  0  0  0  0  0  0  0  0  0  0  0
    3.6855   -0.3373   -1.2828 C   0  0  0  0  0  0  0  0  0  0  0  0
    4.4878   -1.3094   -0.7240 C   0  0  0  0  0  0  0  0  0  0  0  0
    5.7677   -1.6938   -0.8829 N   0  0  0  0  0  0  0  0  0  0  0  0
    6.7357   -1.1284   -1.7724 C   0  0  0  0  0  0  0  0  0  0  0  0
    7.5251   -0.0285   -1.1876 C   0  0  0  0  0  0  0  0  0  0  0  0
    7.1104    1.2679   -1.2883 C   0  0  0  0  0  0  0  0  0  0  0  0
    7.8592    2.3090   -0.7335 C   0  0  0  0  0  0  0  0  0  0  0  0
    9.0378    2.0339   -0.0712 C   0  0  0  0  0  0  0  0  0  0  0  0
    9.4538    0.7385    0.0304 C   0  0  0  0  0  0  0  0  0  0  0  0
   10.6142    0.4891    0.6847 F   0  0  0  0  0  0  0  0  0  0  0  0
    8.7128   -0.2817   -0.5176 C   0  0  0  0  0  0  0  0  0  0  0  0
    5.9854   -2.7070   -0.0568 N   0  0  0  0  0  0  0  0  0  0  0  0
    4.8771   -2.9981    0.6426 C   0  0  0  0  0  0  0  0  0  0  0  0
    3.9126   -2.1166    0.2295 C   0  0  0  0  0  0  0  0  0  0  0  0
    2.5689   -1.9573    0.6161 C   0  0  0  0  0  0  0  0  0  0  0  0
   -8.9392    3.6533    1.8623 H   0  0  0  0  0  0  0  0  0  0  0  0
   -9.1636    3.7002    0.1053 H   0  0  0  0  0  0  0  0  0  0  0  0
   -9.9675    2.4245    1.1052 H   0  0  0  0  0  0  0  0  0  0  0  0
   -9.4196    2.2957   -1.3523 H   0  0  0  0  0  0  0  0  0  0  0  0
   -8.9909    1.1055   -3.4857 H   0  0  0  0  0  0  0  0  0  0  0  0
   -6.9643   -0.3210   -3.6043 H   0  0  0  0  0  0  0  0  0  0  0  0
   -5.4260   -0.5797   -1.7384 H   0  0  0  0  0  0  0  0  0  0  0  0
   -6.1745    0.2508    1.6022 H   0  0  0  0  0  0  0  0  0  0  0  0
   -5.2696    1.6237    0.9103 H   0  0  0  0  0  0  0  0  0  0  0  0
   -2.1096   -0.5231   -0.0091 H   0  0  0  0  0  0  0  0  0  0  0  0
   -3.5166    0.0179    3.8970 H   0  0  0  0  0  0  0  0  0  0  0  0
   -3.7378   -1.7371    3.6470 H   0  0  0  0  0  0  0  0  0  0  0  0
    1.2329   -1.5684    4.8171 H   0  0  0  0  0  0  0  0  0  0  0  0
   -0.2261   -0.5826   -0.3900 H   0  0  0  0  0  0  0  0  0  0  0  0
    1.7703    0.5884   -1.3602 H   0  0  0  0  0  0  0  0  0  0  0  0
    4.1300    0.3115   -2.0433 H   0  0  0  0  0  0  0  0  0  0  0  0
    6.2409   -0.7609   -2.7117 H   0  0  0  0  0  0  0  0  0  0  0  0
    7.4551   -1.9220   -2.1204 H   0  0  0  0  0  0  0  0  0  0  0  0
    6.1978    1.4996   -1.7993 H   0  0  0  0  0  0  0  0  0  0  0  0
    7.5055    3.3331   -0.8284 H   0  0  0  0  0  0  0  0  0  0  0  0
    9.6264    2.8280    0.3622 H   0  0  0  0  0  0  0  0  0  0  0  0
    9.0282   -1.3113   -0.4458 H   0  0  0  0  0  0  0  0  0  0  0  0
    4.8261   -3.7868    1.3726 H   0  0  0  0  0  0  0  0  0  0  0  0
    2.2264   -2.6583    1.3477 H   0  0  0  0  0  0  0  0  0  0  0  0
  1  2  1  0
  2  3  1  0
  3  4  2  0
  4  5  1  0
  5  6  2  0
  6  7  1  0
  7  8  2  0
  8  9  1  0
  9 10  1  0
 10 11  1  0
 11 12  2  0
 12 13  1  0
 13 14  2  0
 14 15  1  0
 14 16  1  0
 16 17  2  0
 17 18  1  0
 18 19  2  0
 19 20  1  0
 20 21  1  0
 21 22  2  0
 22 23  1  0
 23 24  2  0
 24 25  1  0
 25 26  1  0
 26 27  1  0
 27 28  2  0
 28 29  1  0
 29 30  2  0
 30 31  1  0
 31 32  1  0
 31 33  2  0
 25 34  1  0
 34 35  2  0
 35 36  1  0
 36 37  2  0
  8  3  1  0
 19 13  1  0
 37 21  1  0
 36 24  1  0
 33 27  1  0
  1 38  1  0
  1 39  1  0
  1 40  1  0
  4 41  1  0
  5 42  1  0
  6 43  1  0
  7 44  1  0
  9 45  1  0
  9 46  1  0
 12 47  1  0
 15 48  1  0
 15 49  1  0
 17 50  1  0
 20 51  1  0
 22 52  1  0
 23 53  1  0
 26 54  1  0
 26 55  1  0
 28 56  1  0
 29 57  1  0
 30 58  1  0
 33 59  1  0
 35 60  1  0
 37 61  1  0
M  END
$$$$
[H]C([H])=C([H])C(=O)N([H])c1c([H])c(-n2c(=O)c([H])c(C([H])([H])[H])c3c([H])nc(N([H])c4c([H])c([H])c(N5C([H])([H])C([H])([H])N(C([H])([H])[H])C([H])(C([H])([H])[H])C5([H])[H])c([H])c4OC([H])([H])[H])nc32)c([H])c(C(F)(F)F)c1[H]
     RDKit          3D

 76 80  0  0  0  0  0  0  0  0999 V2000
   -1.5653    0.8028   -3.0534 C   0  0  0  0  0  0  0  0  0  0  0  0
   -1.0694    0.3627   -1.8285 O   0  0  0  0  0  0  0  0  0  0  0  0
   -1.8322    0.1294   -0.7118 C   0  0  0  0  0  0  0  0  0  0  0  0
   -3.1806    0.2990   -0.6443 C   0  0  0  0  0  0  0  0  0  0  0  0
   -3.9597    0.0666    0.4756 C   0  0  0  0  0  0  0  0  0  0  0  0
   -3.2966   -0.3681    1.5912 C   0  0  0  0  0  0  0  0  0  0  0  0
   -1.9063   -0.5547    1.5609 C   0  0  0  0  0  0  0  0  0  0  0  0
   -1.1460   -0.3199    0.4425 C   0  0  0  0  0  0  0  0  0  0  0  0
    0.2519   -0.4878    0.3735 N   0  0  0  0  0  0  0  0  0  0  0  0
    1.1541   -0.9536    1.3430 C   0  0  0  0  0  0  0  0  0  0  0  0
    0.8447   -1.3523    2.5778 N   0  0  0  0  0  0  0  0  0  0  0  0
    1.7223   -1.7882    3.4674 C   0  0  0  0  0  0  0  0  0  0  0  0
    3.0499   -1.8324    3.0896 C   0  0  0  0  0  0  0  0  0  0  0  0
    4.0110   -2.2776    3.9713 C   0  0  0  0  0  0  0  0  0  0  0  0
    3.6261   -2.7208    5.3447 C   0  0  0  0  0  0  0  0  0  0  0  0
    5.3237   -2.2961    3.5253 C   0  0  0  0  0  0  0  0  0  0  0  0
    5.6084   -1.8771    2.2445 C   0  0  0  0  0  0  0  0  0  0  0  0
    6.8125   -1.8960    1.8417 O   0  0  0  0  0  0  0  0  0  0  0  0
    4.6770   -1.4432    1.3827 N   0  0  0  0  0  0  0  0  0  0  0  0
    5.0354   -1.0118    0.0523 C   0  0  0  0  0  0  0  0  0  0  0  0
    5.2918    0.2682   -0.2651 C   0  0  0  0  0  0  0  0  0  0  0  0
    5.6416    0.7012   -1.5593 C   0  0  0  0  0  0  0  0  0  0  0  0
    5.8696    2.0782   -1.7788 N   0  0  0  0  0  0  0  0  0  0  0  0
    6.4960    2.6414   -2.8861 C   0  0  0  0  0  0  0  0  0  0  0  0
    6.9539    1.9310   -3.8575 O   0  0  0  0  0  0  0  0  0  0  0  0
    6.6786    4.0870   -3.0220 C   0  0  0  0  0  0  0  0  0  0  0  0
    6.2733    4.9307   -2.1309 C   0  0  0  0  0  0  0  0  0  0  0  0
    5.7070   -0.2890   -2.5069 C   0  0  0  0  0  0  0  0  0  0  0  0
    5.4529   -1.6296   -2.2388 C   0  0  0  0  0  0  0  0  0  0  0  0
    5.1187   -1.9621   -0.9478 C   0  0  0  0  0  0  0  0  0  0  0  0
    5.5394   -2.6601   -3.3062 C   0  0  0  0  0  0  0  0  0  0  0  0
    6.8175   -3.1867   -3.2749 F   0  0  0  0  0  0  0  0  0  0  0  0
    4.6449   -3.6705   -3.0119 F   0  0  0  0  0  0  0  0  0  0  0  0
    5.2184   -2.1452   -4.5403 F   0  0  0  0  0  0  0  0  0  0  0  0
    3.3964   -1.4218    1.8080 C   0  0  0  0  0  0  0  0  0  0  0  0
    2.4705   -0.9939    0.9586 N   0  0  0  0  0  0  0  0  0  0  0  0
   -5.3676    0.2821    0.4409 N   0  0  0  0  0  0  0  0  0  0  0  0
   -6.1666   -0.0379    1.5785 C   0  0  0  0  0  0  0  0  0  0  0  0
   -7.6110   -0.2831    1.3183 C   0  0  0  0  0  0  0  0  0  0  0  0
   -8.2013    0.4447    0.2495 N   0  0  0  0  0  0  0  0  0  0  0  0
   -9.3518    1.1697    0.7626 C   0  0  0  0  0  0  0  0  0  0  0  0
   -7.3589    1.3643   -0.4410 C   0  0  0  0  0  0  0  0  0  0  0  0
   -8.0013    1.6057   -1.8146 C   0  0  0  0  0  0  0  0  0  0  0  0
   -5.9716    0.8247   -0.7368 C   0  0  0  0  0  0  0  0  0  0  0  0
   -1.0841    1.7566   -3.3773 H   0  0  0  0  0  0  0  0  0  0  0  0
   -1.1731    0.0468   -3.8139 H   0  0  0  0  0  0  0  0  0  0  0  0
   -2.6415    0.7972   -3.1906 H   0  0  0  0  0  0  0  0  0  0  0  0
   -3.6946    0.6493   -1.5492 H   0  0  0  0  0  0  0  0  0  0  0  0
   -3.8331   -0.5710    2.5035 H   0  0  0  0  0  0  0  0  0  0  0  0
   -1.4610   -0.8985    2.4834 H   0  0  0  0  0  0  0  0  0  0  0  0
    0.6910   -0.2147   -0.5636 H   0  0  0  0  0  0  0  0  0  0  0  0
    1.3779   -2.0884    4.4398 H   0  0  0  0  0  0  0  0  0  0  0  0
    2.9297   -2.0335    5.8468 H   0  0  0  0  0  0  0  0  0  0  0  0
    4.5496   -2.8258    5.9560 H   0  0  0  0  0  0  0  0  0  0  0  0
    3.2106   -3.7661    5.2569 H   0  0  0  0  0  0  0  0  0  0  0  0
    6.0864   -2.6447    4.2101 H   0  0  0  0  0  0  0  0  0  0  0  0
    5.2251    1.0176    0.5309 H   0  0  0  0  0  0  0  0  0  0  0  0
    5.5241    2.7288   -1.0254 H   0  0  0  0  0  0  0  0  0  0  0  0
    7.1824    4.4470   -3.9239 H   0  0  0  0  0  0  0  0  0  0  0  0
    5.7785    4.6344   -1.2349 H   0  0  0  0  0  0  0  0  0  0  0  0
    6.4414    6.0010   -2.2938 H   0  0  0  0  0  0  0  0  0  0  0  0
    5.9531   -0.0737   -3.5330 H   0  0  0  0  0  0  0  0  0  0  0  0
    4.9091   -3.0062   -0.6897 H   0  0  0  0  0  0  0  0  0  0  0  0
   -5.7758   -0.9639    2.0939 H   0  0  0  0  0  0  0  0  0  0  0  0
   -6.0667    0.7750    2.3387 H   0  0  0  0  0  0  0  0  0  0  0  0
   -7.7667   -1.3704    1.1139 H   0  0  0  0  0  0  0  0  0  0  0  0
   -8.1433   -0.1132    2.3025 H   0  0  0  0  0  0  0  0  0  0  0  0
   -9.6855    0.7194    1.7229 H   0  0  0  0  0  0  0  0  0  0  0  0
  -10.1905    1.1924    0.0425 H   0  0  0  0  0  0  0  0  0  0  0  0
   -8.9891    2.2112    0.9827 H   0  0  0  0  0  0  0  0  0  0  0  0
   -7.3234    2.3409    0.0872 H   0  0  0  0  0  0  0  0  0  0  0  0
   -7.5115    2.4253   -2.3559 H   0  0  0  0  0  0  0  0  0  0  0  0
   -7.8107    0.6806   -2.4115 H   0  0  0  0  0  0  0  0  0  0  0  0
   -9.0819    1.7783   -1.7432 H   0  0  0  0  0  0  0  0  0  0  0  0
   -5.9831    0.1263   -1.5726 H   0  0  0  0  0  0  0  0  0  0  0  0
   -5.3450    1.7120   -1.0457 H   0  0  0  0  0  0  0  0  0  0  0  0
  1  2  1  0
  2  3  1  0
  3  4  2  0
  4  5  1  0
  5  6  2  0
  6  7  1  0
  7  8  2  0
  8  9  1  0
  9 10  1  0
 10 11  2  0
 11 12  1  0
 12 13  2  0
 13 14  1  0
 14 15  1  0
 14 16  2  0
 16 17  1  0
 17 18  2  0
 17 19  1  0
 19 20  1  0
 20 21  2  0
 21 22  1  0
 22 23  1  0
 23 24  1  0
 24 25  2  0
 24 26  1  0
 26 27  2  3
 22 28  2  0
 28 29  1  0
 29 30  2  0
 29 31  1  0
 31 32  1  0
 31 33  1  0
 31 34  1  0
 19 35  1  0
 35 36  2  0
  5 37  1  0
 37 38  1  0
 38 39  1  0
 39 40  1  0
 40 41  1  0
 40 42  1  0
 42 43  1  0
 42 44  1  0
  8  3  1  0
 36 10  1  0
 44 37  1  0
 35 13  1  0
 30 20  1  0
  1 45  1  0
  1 46  1  0
  1 47  1  0
  4 48  1  0
  6 49  1  0
  7 50  1  0
  9 51  1  0
 12 52  1  0
 15 53  1  0
 15 54  1  0
 15 55  1  0
 16 56  1  0
 21 57  1  0
 23 58  1  0
 26 59  1  0
 27 60  1  0
 27 61  1  0
 28 62  1  0
 30 63  1  0
 38 64  1  0
 38 65  1  0
 39 66  1  0
 39 67  1  0
 41 68  1  0
 41 69  1  0
 41 70  1  0
 42 71  1  0
 43 72  1  0
 43 73  1  0
 43 74  1  0
 44 75  1  0
 44 76  1  0
M  END
$$$$
[H]/C(C(=O)N([H])c1sc2nc([H])nc(N([H])c3c([H])c([H])c(F)c(Cl)c3[H])c2c1[H])=C(/[H])C([H])([H])N1C([H])([H])C([H])([H])C([H])(SC([H])([H])[H])C([H])([H])C1([H])[H]
     RDKit          3D

 55 58  0  0  0  0  0  0  0  0999 V2000
   -5.9860    3.4583    1.3244 C   0  0  0  0  0  0  0  0  0  0  0  0
   -7.2133    2.2502    0.7308 S   0  0  0  0  0  0  0  0  0  0  0  0
   -6.3423    0.8018    0.0801 C   0  0  0  0  0  0  0  0  0  0  0  0
   -5.5433    1.1423   -1.1598 C   0  0  0  0  0  0  0  0  0  0  0  0
   -4.8036   -0.0546   -1.6116 C   0  0  0  0  0  0  0  0  0  0  0  0
   -4.8454   -1.2155   -0.8009 N   0  0  0  0  0  0  0  0  0  0  0  0
   -3.9569   -2.2665   -1.2423 C   0  0  0  0  0  0  0  0  0  0  0  0
   -2.5315   -1.8951   -1.0464 C   0  0  0  0  0  0  0  0  0  0  0  0
   -1.7200   -2.5994   -0.2873 C   0  0  0  0  0  0  0  0  0  0  0  0
   -0.3003   -2.1664   -0.1351 C   0  0  0  0  0  0  0  0  0  0  0  0
    0.0349   -1.1390   -0.7507 O   0  0  0  0  0  0  0  0  0  0  0  0
    0.4946   -2.9640    0.6832 N   0  0  0  0  0  0  0  0  0  0  0  0
    1.8713   -2.6807    0.9285 C   0  0  0  0  0  0  0  0  0  0  0  0
    2.6939   -1.6790    0.5048 C   0  0  0  0  0  0  0  0  0  0  0  0
    3.9812   -1.6779    0.9094 C   0  0  0  0  0  0  0  0  0  0  0  0
    4.9877   -0.7312    0.5784 C   0  0  0  0  0  0  0  0  0  0  0  0
    4.6897    0.3584   -0.2808 N   0  0  0  0  0  0  0  0  0  0  0  0
    5.5267    1.3837   -0.6990 C   0  0  0  0  0  0  0  0  0  0  0  0
    5.1803    2.1199   -1.8359 C   0  0  0  0  0  0  0  0  0  0  0  0
    5.9389    3.1690   -2.3131 C   0  0  0  0  0  0  0  0  0  0  0  0
    7.0851    3.5134   -1.6502 C   0  0  0  0  0  0  0  0  0  0  0  0
    7.8484    4.5421   -2.1033 F   0  0  0  0  0  0  0  0  0  0  0  0
    7.4622    2.8176   -0.5295 C   0  0  0  0  0  0  0  0  0  0  0  0
    8.9312    3.2915    0.2843 Cl  0  0  0  0  0  0  0  0  0  0  0  0
    6.6696    1.7524   -0.0645 C   0  0  0  0  0  0  0  0  0  0  0  0
    6.1865   -0.9233    1.0850 N   0  0  0  0  0  0  0  0  0  0  0  0
    6.5917   -1.9131    1.8870 C   0  0  0  0  0  0  0  0  0  0  0  0
    5.6492   -2.8198    2.2110 N   0  0  0  0  0  0  0  0  0  0  0  0
    4.3730   -2.6956    1.7264 C   0  0  0  0  0  0  0  0  0  0  0  0
    2.9563   -3.6225    1.9123 S   0  0  0  0  0  0  0  0  0  0  0  0
   -4.8235   -1.0280    0.6176 C   0  0  0  0  0  0  0  0  0  0  0  0
   -5.3309    0.2828    1.0984 C   0  0  0  0  0  0  0  0  0  0  0  0
   -6.4855    4.3618    1.7261 H   0  0  0  0  0  0  0  0  0  0  0  0
   -5.3144    3.7221    0.4681 H   0  0  0  0  0  0  0  0  0  0  0  0
   -5.3957    2.9563    2.1203 H   0  0  0  0  0  0  0  0  0  0  0  0
   -7.0266   -0.0245   -0.1658 H   0  0  0  0  0  0  0  0  0  0  0  0
   -6.2558    1.4796   -1.9491 H   0  0  0  0  0  0  0  0  0  0  0  0
   -4.8602    1.9998   -0.9215 H   0  0  0  0  0  0  0  0  0  0  0  0
   -5.1612   -0.3295   -2.6394 H   0  0  0  0  0  0  0  0  0  0  0  0
   -3.7252    0.2384   -1.7793 H   0  0  0  0  0  0  0  0  0  0  0  0
   -4.2247   -3.2019   -0.7123 H   0  0  0  0  0  0  0  0  0  0  0  0
   -4.1554   -2.4500   -2.3185 H   0  0  0  0  0  0  0  0  0  0  0  0
   -2.1621   -1.0248   -1.5445 H   0  0  0  0  0  0  0  0  0  0  0  0
   -2.1069   -3.4657    0.2016 H   0  0  0  0  0  0  0  0  0  0  0  0
    0.0983   -3.8079    1.1502 H   0  0  0  0  0  0  0  0  0  0  0  0
    2.2521   -0.9015   -0.1640 H   0  0  0  0  0  0  0  0  0  0  0  0
    3.6793    0.4160   -0.6655 H   0  0  0  0  0  0  0  0  0  0  0  0
    4.2927    1.8667   -2.3670 H   0  0  0  0  0  0  0  0  0  0  0  0
    5.6602    3.7300   -3.1939 H   0  0  0  0  0  0  0  0  0  0  0  0
    7.0528    1.2944    0.8235 H   0  0  0  0  0  0  0  0  0  0  0  0
    7.6007   -1.9438    2.2237 H   0  0  0  0  0  0  0  0  0  0  0  0
   -3.7420   -1.1034    0.9385 H   0  0  0  0  0  0  0  0  0  0  0  0
   -5.3581   -1.8394    1.1549 H   0  0  0  0  0  0  0  0  0  0  0  0
   -4.5474    1.0489    1.2442 H   0  0  0  0  0  0  0  0  0  0  0  0
   -5.8704    0.1664    2.0510 H   0  0  0  0  0  0  0  0  0  0  0  0
  1  2  1  0
  2  3  1  0
  3  4  1  0
  4  5  1  0
  5  6  1  0
  6  7  1  0
  7  8  1  0
  8  9  2  0
  9 10  1  0
 10 11  2  0
 10 12  1  0
 12 13  1  0
 13 14  2  0
 14 15  1  0
 15 16  2  0
 16 17  1  0
 17 18  1  0
 18 19  2  0
 19 20  1  0
 20 21  2  0
 21 22  1  0
 21 23  1  0
 23 24  1  0
 23 25  2  0
 16 26  1  0
 26 27  2  0
 27 28  1  0
 28 29  2  0
 29 30  1  0
  6 31  1  0
 31 32  1  0
 32  3  1  0
 30 13  1  0
 29 15  1  0
 25 18  1  0
  1 33  1  0
  1 34  1  0
  1 35  1  0
  3 36  1  0
  4 37  1  0
  4 38  1  0
  5 39  1  0
  5 40  1  0
  7 41  1  0
  7 42  1  0
  8 43  1  0
  9 44  1  0
 12 45  1  0
 14 46  1  0
 17 47  1  0
 19 48  1  0
 20 49  1  0
 25 50  1  0
 27 51  1  0
 31 52  1  0
 31 53  1  0
 32 54  1  0
 32 55  1  0
M  END
$$$$
[H]OC(C#Cc1nc([H])nc2c([H])c(OC([H])([H])[H])c(OC([H])([H])[H])c([H])c12)(C([H])([H])[H])C([H])([H])c1c([H])c([H])c([H])c([H])c1[H]
     RDKit          3D

 46 48  0  0  0  0  0  0  0  0999 V2000
    6.7316    0.6715   -1.4483 C   0  0  0  0  0  0  0  0  0  0  0  0
    5.4620    1.0515   -0.9186 O   0  0  0  0  0  0  0  0  0  0  0  0
    4.3700    0.1752   -1.0771 C   0  0  0  0  0  0  0  0  0  0  0  0
    4.5207   -1.0299   -1.7319 C   0  0  0  0  0  0  0  0  0  0  0  0
    3.4119   -1.8431   -1.8539 C   0  0  0  0  0  0  0  0  0  0  0  0
    3.4658   -3.0156   -2.4667 N   0  0  0  0  0  0  0  0  0  0  0  0
    2.3813   -3.7855   -2.5732 C   0  0  0  0  0  0  0  0  0  0  0  0
    1.2110   -3.3931   -2.0637 N   0  0  0  0  0  0  0  0  0  0  0  0
    1.0541   -2.2105   -1.4184 C   0  0  0  0  0  0  0  0  0  0  0  0
   -0.1960   -1.7723   -0.8643 C   0  0  0  0  0  0  0  0  0  0  0  0
   -1.2350   -1.3909   -0.3864 C   0  0  0  0  0  0  0  0  0  0  0  0
   -2.5008   -0.9082    0.2204 C   0  0  0  0  0  0  0  0  0  0  0  0
   -2.8834   -1.7948    1.3851 C   0  0  0  0  0  0  0  0  0  0  0  0
   -3.5481   -0.9665   -0.6988 O   0  0  0  0  0  0  0  0  0  0  0  0
   -2.2270    0.5068    0.6677 C   0  0  0  0  0  0  0  0  0  0  0  0
   -3.4095    1.1423    1.3048 C   0  0  0  0  0  0  0  0  0  0  0  0
   -4.3221    1.8440    0.5578 C   0  0  0  0  0  0  0  0  0  0  0  0
   -5.4010    2.4159    1.1868 C   0  0  0  0  0  0  0  0  0  0  0  0
   -5.5884    2.3030    2.5415 C   0  0  0  0  0  0  0  0  0  0  0  0
   -4.6833    1.6046    3.2966 C   0  0  0  0  0  0  0  0  0  0  0  0
   -3.6070    1.0360    2.6582 C   0  0  0  0  0  0  0  0  0  0  0  0
    2.2080   -1.4279   -1.3237 C   0  0  0  0  0  0  0  0  0  0  0  0
    2.0783   -0.2182   -0.6721 C   0  0  0  0  0  0  0  0  0  0  0  0
    3.1749    0.6063   -0.5412 C   0  0  0  0  0  0  0  0  0  0  0  0
    3.0801    1.8475    0.1173 O   0  0  0  0  0  0  0  0  0  0  0  0
    1.8229    2.2285    0.6443 C   0  0  0  0  0  0  0  0  0  0  0  0
    6.5657    0.3640   -2.5221 H   0  0  0  0  0  0  0  0  0  0  0  0
    7.4152    1.5399   -1.4518 H   0  0  0  0  0  0  0  0  0  0  0  0
    7.1766   -0.1787   -0.8947 H   0  0  0  0  0  0  0  0  0  0  0  0
    5.4935   -1.3254   -2.1398 H   0  0  0  0  0  0  0  0  0  0  0  0
    2.4562   -4.7275   -3.0742 H   0  0  0  0  0  0  0  0  0  0  0  0
   -2.9986   -2.8246    0.9781 H   0  0  0  0  0  0  0  0  0  0  0  0
   -2.0934   -1.8500    2.1549 H   0  0  0  0  0  0  0  0  0  0  0  0
   -3.8635   -1.4737    1.7592 H   0  0  0  0  0  0  0  0  0  0  0  0
   -3.3083   -1.6514   -1.3783 H   0  0  0  0  0  0  0  0  0  0  0  0
   -1.8558    1.1514   -0.1244 H   0  0  0  0  0  0  0  0  0  0  0  0
   -1.4380    0.4395    1.4538 H   0  0  0  0  0  0  0  0  0  0  0  0
   -4.2055    1.9561   -0.5316 H   0  0  0  0  0  0  0  0  0  0  0  0
   -6.1308    2.9761    0.5949 H   0  0  0  0  0  0  0  0  0  0  0  0
   -6.4333    2.7479    3.0509 H   0  0  0  0  0  0  0  0  0  0  0  0
   -4.8233    1.5118    4.3578 H   0  0  0  0  0  0  0  0  0  0  0  0
   -2.8748    0.4750    3.2466 H   0  0  0  0  0  0  0  0  0  0  0  0
    1.1110    0.0910   -0.2584 H   0  0  0  0  0  0  0  0  0  0  0  0
    1.8557    3.3152    0.9101 H   0  0  0  0  0  0  0  0  0  0  0  0
    0.9968    2.1177   -0.0747 H   0  0  0  0  0  0  0  0  0  0  0  0
    1.5838    1.6692    1.5706 H   0  0  0  0  0  0  0  0  0  0  0  0
  1  2  1  0
  2  3  1  0
  3  4  2  0
  4  5  1  0
  5  6  2  0
  6  7  1  0
  7  8  2  0
  8  9  1  0
  9 10  1  0
 10 11  3  0
 11 12  1  0
 12 13  1  0
 12 14  1  0
 12 15  1  0
 15 16  1  0
 16 17  2  0
 17 18  1  0
 18 19  2  0
 19 20  1  0
 20 21  2  0
  9 22  2  0
 22 23  1  0
 23 24  2  0
 24 25  1  0
 25 26  1  0
 24  3  1  0
 22  5  1  0
 21 16  1  0
  1 27  1  0
  1 28  1  0
  1 29  1  0
  4 30  1  0
  7 31  1  0
 13 32  1  0
 13 33  1  0
 13 34  1  0
 14 35  1  0
 15 36  1  0
 15 37  1  0
 17 38  1  0
 18 39  1  0
 19 40  1  0
 20 41  1  0
 21 42  1  0
 23 43  1  0
 26 44  1  0
 26 45  1  0
 26 46  1  0
M  END
$$$$
[H]C([H])=C([H])C(=O)N([H])c1c(OC([H])([H])C([H])([H])N([H])C(=O)C([H])([H])S(=O)(=O)C([H])([H])[H])c([H])c2nc([H])nc(N([H])c3c([H])c(Cl)c(Cl)c([H])c3F)c2c1[H]
     RDKit          3D

 56 58  0  0  0  0  0  0  0  0999 V2000
    7.7040    1.7559    1.8580 C   0  0  0  0  0  0  0  0  0  0  0  0
    7.5339    2.3798    0.2073 S   0  0  0  0  0  0  0  0  0  0  0  0
    8.8720    2.8853   -0.2374 O   0  0  0  0  0  0  0  0  0  0  0  0
    6.4909    3.4683    0.1348 O   0  0  0  0  0  0  0  0  0  0  0  0
    7.0727    1.0508   -0.8578 C   0  0  0  0  0  0  0  0  0  0  0  0
    5.7904    0.4354   -0.4595 C   0  0  0  0  0  0  0  0  0  0  0  0
    5.1697    0.8789    0.5332 O   0  0  0  0  0  0  0  0  0  0  0  0
    5.2310   -0.6547   -1.1718 N   0  0  0  0  0  0  0  0  0  0  0  0
    3.9884   -1.2595   -0.7974 C   0  0  0  0  0  0  0  0  0  0  0  0
    2.8078   -0.3499   -0.8200 C   0  0  0  0  0  0  0  0  0  0  0  0
    1.6734   -1.1015   -0.4282 O   0  0  0  0  0  0  0  0  0  0  0  0
    0.4265   -0.4942   -0.3620 C   0  0  0  0  0  0  0  0  0  0  0  0
    0.2844    0.8198   -0.6709 C   0  0  0  0  0  0  0  0  0  0  0  0
   -0.9891    1.3935   -0.5914 C   0  0  0  0  0  0  0  0  0  0  0  0
   -1.1231    2.6961   -0.8987 N   0  0  0  0  0  0  0  0  0  0  0  0
   -2.3372    3.2595   -0.8270 C   0  0  0  0  0  0  0  0  0  0  0  0
   -3.3584    2.4986   -0.4529 N   0  0  0  0  0  0  0  0  0  0  0  0
   -3.3393    1.2175   -0.1307 C   0  0  0  0  0  0  0  0  0  0  0  0
   -4.4559    0.4552    0.2592 N   0  0  0  0  0  0  0  0  0  0  0  0
   -5.7777    0.9366    0.3721 C   0  0  0  0  0  0  0  0  0  0  0  0
   -6.1932    2.2257    0.1287 C   0  0  0  0  0  0  0  0  0  0  0  0
   -7.5448    2.5775    0.2797 C   0  0  0  0  0  0  0  0  0  0  0  0
   -8.0370    4.2303   -0.0395 Cl  0  0  0  0  0  0  0  0  0  0  0  0
   -8.4987    1.6697    0.6701 C   0  0  0  0  0  0  0  0  0  0  0  0
  -10.1761    2.0737    0.8656 Cl  0  0  0  0  0  0  0  0  0  0  0  0
   -8.0623    0.3906    0.9074 C   0  0  0  0  0  0  0  0  0  0  0  0
   -6.7543    0.0119    0.7706 C   0  0  0  0  0  0  0  0  0  0  0  0
   -6.3793   -1.2711    1.0195 F   0  0  0  0  0  0  0  0  0  0  0  0
   -2.0634    0.6192   -0.2045 C   0  0  0  0  0  0  0  0  0  0  0  0
   -1.8947   -0.7071    0.1029 C   0  0  0  0  0  0  0  0  0  0  0  0
   -0.6513   -1.2959    0.0326 C   0  0  0  0  0  0  0  0  0  0  0  0
   -0.4363   -2.6476    0.3382 N   0  0  0  0  0  0  0  0  0  0  0  0
   -1.3311   -3.6277    0.7459 C   0  0  0  0  0  0  0  0  0  0  0  0
   -2.5370   -3.4538    0.9154 O   0  0  0  0  0  0  0  0  0  0  0  0
   -0.8400   -4.9977    1.0072 C   0  0  0  0  0  0  0  0  0  0  0  0
   -1.6190   -5.9663    1.3915 C   0  0  0  0  0  0  0  0  0  0  0  0
    7.1775    2.4293    2.5645 H   0  0  0  0  0  0  0  0  0  0  0  0
    8.7776    1.6660    2.1537 H   0  0  0  0  0  0  0  0  0  0  0  0
    7.2012    0.7719    1.9130 H   0  0  0  0  0  0  0  0  0  0  0  0
    7.8777    0.2708   -0.8139 H   0  0  0  0  0  0  0  0  0  0  0  0
    7.0516    1.4110   -1.9219 H   0  0  0  0  0  0  0  0  0  0  0  0
    5.7604   -1.0280   -2.0113 H   0  0  0  0  0  0  0  0  0  0  0  0
    3.7941   -2.1421   -1.4534 H   0  0  0  0  0  0  0  0  0  0  0  0
    4.1038   -1.6372    0.2525 H   0  0  0  0  0  0  0  0  0  0  0  0
    2.8608    0.5347   -0.1934 H   0  0  0  0  0  0  0  0  0  0  0  0
    2.6169   -0.0175   -1.8619 H   0  0  0  0  0  0  0  0  0  0  0  0
    1.1132    1.4415   -0.9755 H   0  0  0  0  0  0  0  0  0  0  0  0
   -2.4697    4.3302   -1.0756 H   0  0  0  0  0  0  0  0  0  0  0  0
   -4.3361   -0.5659    0.4955 H   0  0  0  0  0  0  0  0  0  0  0  0
   -5.5219    2.9966   -0.1779 H   0  0  0  0  0  0  0  0  0  0  0  0
   -8.7693   -0.3810    1.2210 H   0  0  0  0  0  0  0  0  0  0  0  0
   -2.7422   -1.2662    0.3950 H   0  0  0  0  0  0  0  0  0  0  0  0
    0.5844   -2.9970    0.2462 H   0  0  0  0  0  0  0  0  0  0  0  0
    0.2128   -5.2161    0.8762 H   0  0  0  0  0  0  0  0  0  0  0  0
   -1.2608   -6.9656    1.5822 H   0  0  0  0  0  0  0  0  0  0  0  0
   -2.6779   -5.7386    1.5213 H   0  0  0  0  0  0  0  0  0  0  0  0
  1  2  1  0
  2  3  2  0
  2  4  2  0
  2  5  1  0
  5  6  1  0
  6  7  2  0
  6  8  1  0
  8  9  1  0
  9 10  1  0
 10 11  1  0
 11 12  1  0
 12 13  2  0
 13 14  1  0
 14 15  2  0
 15 16  1  0
 16 17  2  0
 17 18  1  0
 18 19  1  0
 19 20  1  0
 20 21  2  0
 21 22  1  0
 22 23  1  0
 22 24  2  0
 24 25  1  0
 24 26  1  0
 26 27  2  0
 27 28  1  0
 18 29  2  0
 29 30  1  0
 30 31  2  0
 31 32  1  0
 32 33  1  0
 33 34  2  0
 33 35  1  0
 35 36  2  3
 31 12  1  0
 29 14  1  0
 27 20  1  0
  1 37  1  0
  1 38  1  0
  1 39  1  0
  5 40  1  0
  5 41  1  0
  8 42  1  0
  9 43  1  0
  9 44  1  0
 10 45  1  0
 10 46  1  0
 13 47  1  0
 16 48  1  0
 19 49  1  0
 21 50  1  0
 26 51  1  0
 30 52  1  0
 32 53  1  0
 35 54  1  0
 36 55  1  0
 36 56  1  0
M  END
$$$$
[H]C#Cc1c([H])c([H])c([H])c(N([H])c2nc([H])nc3c2/C(=C(\[H])c2c(C([H])([H])[H])c([H])c(C(=O)N([H])C([H])([H])C([H])([H])N4C([H])([H])C([H])([H])OC([H])([H])C4([H])[H])n2[H])C(=O)N3[H])c1[H]
     RDKit          3D

 64 68  0  0  0  0  0  0  0  0999 V2000
    0.9851    1.1664    1.7276 C   0  0  0  0  0  0  0  0  0  0  0  0
    0.1781    0.1944    0.9013 C   0  0  0  0  0  0  0  0  0  0  0  0
   -1.1835    0.2394    0.7092 C   0  0  0  0  0  0  0  0  0  0  0  0
   -1.5246   -0.8189   -0.0957 C   0  0  0  0  0  0  0  0  0  0  0  0
   -0.3851   -1.4816   -0.3769 N   0  0  0  0  0  0  0  0  0  0  0  0
    0.6427   -0.8980    0.2047 C   0  0  0  0  0  0  0  0  0  0  0  0
    2.0998   -1.1542    0.1559 C   0  0  0  0  0  0  0  0  0  0  0  0
    2.6706   -2.2636    0.4956 C   0  0  0  0  0  0  0  0  0  0  0  0
    1.9903   -3.4561    0.9868 C   0  0  0  0  0  0  0  0  0  0  0  0
    0.7696   -3.5893    1.2051 O   0  0  0  0  0  0  0  0  0  0  0  0
    2.9834   -4.4477    1.1769 N   0  0  0  0  0  0  0  0  0  0  0  0
    4.2666   -3.8974    0.8179 C   0  0  0  0  0  0  0  0  0  0  0  0
    5.4965   -4.4492    0.8232 N   0  0  0  0  0  0  0  0  0  0  0  0
    6.5757   -3.7677    0.4449 C   0  0  0  0  0  0  0  0  0  0  0  0
    6.3943   -2.5038    0.0569 N   0  0  0  0  0  0  0  0  0  0  0  0
    5.2170   -1.8559    0.0138 C   0  0  0  0  0  0  0  0  0  0  0  0
    5.2350   -0.5021   -0.2961 N   0  0  0  0  0  0  0  0  0  0  0  0
    6.3781    0.1721   -0.8026 C   0  0  0  0  0  0  0  0  0  0  0  0
    7.3562   -0.3992   -1.5583 C   0  0  0  0  0  0  0  0  0  0  0  0
    8.4673    0.2972   -2.0075 C   0  0  0  0  0  0  0  0  0  0  0  0
    8.5994    1.6100   -1.6881 C   0  0  0  0  0  0  0  0  0  0  0  0
    7.6487    2.2489   -0.9294 C   0  0  0  0  0  0  0  0  0  0  0  0
    6.5598    1.5378   -0.4970 C   0  0  0  0  0  0  0  0  0  0  0  0
    7.8202    3.6316   -0.6168 C   0  0  0  0  0  0  0  0  0  0  0  0
    7.9390    4.7993   -0.3496 C   0  0  0  0  0  0  0  0  0  0  0  0
    4.1198   -2.5890    0.4074 C   0  0  0  0  0  0  0  0  0  0  0  0
   -2.8764   -1.0941   -0.5445 C   0  0  0  0  0  0  0  0  0  0  0  0
   -3.2227   -2.1546   -1.1303 O   0  0  0  0  0  0  0  0  0  0  0  0
   -3.8894   -0.1241   -0.3266 N   0  0  0  0  0  0  0  0  0  0  0  0
   -5.2725   -0.2921   -0.7294 C   0  0  0  0  0  0  0  0  0  0  0  0
   -6.0227    0.9567   -0.3763 C   0  0  0  0  0  0  0  0  0  0  0  0
   -7.4018    0.9715   -0.6817 N   0  0  0  0  0  0  0  0  0  0  0  0
   -8.2642    0.1379    0.0658 C   0  0  0  0  0  0  0  0  0  0  0  0
   -9.1806    0.8718    1.0213 C   0  0  0  0  0  0  0  0  0  0  0  0
   -9.6895    1.9835    0.3696 O   0  0  0  0  0  0  0  0  0  0  0  0
   -8.6394    2.8631    0.1033 C   0  0  0  0  0  0  0  0  0  0  0  0
   -7.8753    2.2467   -1.0588 C   0  0  0  0  0  0  0  0  0  0  0  0
    1.9362    1.4096    1.2204 H   0  0  0  0  0  0  0  0  0  0  0  0
    1.2236    0.7551    2.7158 H   0  0  0  0  0  0  0  0  0  0  0  0
    0.3945    2.0969    1.7821 H   0  0  0  0  0  0  0  0  0  0  0  0
   -1.8674    0.9667    1.1135 H   0  0  0  0  0  0  0  0  0  0  0  0
   -0.3769   -2.3345   -0.9950 H   0  0  0  0  0  0  0  0  0  0  0  0
    2.6906   -0.3149   -0.2338 H   0  0  0  0  0  0  0  0  0  0  0  0
    2.8130   -5.4180    1.5205 H   0  0  0  0  0  0  0  0  0  0  0  0
    7.5830   -4.2250    0.4480 H   0  0  0  0  0  0  0  0  0  0  0  0
    4.4322    0.1169   -0.1413 H   0  0  0  0  0  0  0  0  0  0  0  0
    7.3029   -1.4356   -1.8705 H   0  0  0  0  0  0  0  0  0  0  0  0
    9.2198   -0.1893   -2.5993 H   0  0  0  0  0  0  0  0  0  0  0  0
    9.4634    2.1682   -2.0326 H   0  0  0  0  0  0  0  0  0  0  0  0
    5.7784    2.0000    0.1090 H   0  0  0  0  0  0  0  0  0  0  0  0
    8.0298    5.8392   -0.1024 H   0  0  0  0  0  0  0  0  0  0  0  0
   -3.6279    0.7671    0.1520 H   0  0  0  0  0  0  0  0  0  0  0  0
   -5.2845   -0.4443   -1.8313 H   0  0  0  0  0  0  0  0  0  0  0  0
   -5.6529   -1.1821   -0.1896 H   0  0  0  0  0  0  0  0  0  0  0  0
   -5.7872    1.2274    0.6770 H   0  0  0  0  0  0  0  0  0  0  0  0
   -5.5442    1.7836   -0.9786 H   0  0  0  0  0  0  0  0  0  0  0  0
   -8.9202   -0.4299   -0.6264 H   0  0  0  0  0  0  0  0  0  0  0  0
   -7.6606   -0.6303    0.5950 H   0  0  0  0  0  0  0  0  0  0  0  0
   -8.6601    1.1660    1.9531 H   0  0  0  0  0  0  0  0  0  0  0  0
  -10.0370    0.1894    1.2333 H   0  0  0  0  0  0  0  0  0  0  0  0
   -7.9509    2.8751    0.9684 H   0  0  0  0  0  0  0  0  0  0  0  0
   -8.9540    3.8907   -0.0962 H   0  0  0  0  0  0  0  0  0  0  0  0
   -8.4966    2.2486   -1.9787 H   0  0  0  0  0  0  0  0  0  0  0  0
   -7.0126    2.9140   -1.2699 H   0  0  0  0  0  0  0  0  0  0  0  0
  1  2  1  0
  2  3  1  0
  3  4  2  0
  4  5  1  0
  5  6  1  0
  6  7  1  0
  7  8  2  0
  8  9  1  0
  9 10  2  0
  9 11  1  0
 11 12  1  0
 12 13  2  0
 13 14  1  0
 14 15  2  0
 15 16  1  0
 16 17  1  0
 17 18  1  0
 18 19  2  0
 19 20  1  0
 20 21  2  0
 21 22  1  0
 22 23  2  0
 22 24  1  0
 24 25  3  0
 16 26  2  0
  4 27  1  0
 27 28  2  0
 27 29  1  0
 29 30  1  0
 30 31  1  0
 31 32  1  0
 32 33  1  0
 33 34  1  0
 34 35  1  0
 35 36  1  0
 36 37  1  0
  6  2  2  0
 26  8  1  0
 37 32  1  0
 26 12  1  0
 23 18  1  0
  1 38  1  0
  1 39  1  0
  1 40  1  0
  3 41  1  0
  5 42  1  0
  7 43  1  0
 11 44  1  0
 14 45  1  0
 17 46  1  0
 19 47  1  0
 20 48  1  0
 21 49  1  0
 23 50  1  0
 25 51  1  0
 29 52  1  0
 30 53  1  0
 30 54  1  0
 31 55  1  0
 31 56  1  0
 33 57  1  0
 33 58  1  0
 34 59  1  0
 34 60  1  0
 36 61  1  0
 36 62  1  0
 37 63  1  0
 37 64  1  0
M  END
$$$$
[H]C([H])=C([H])C(=O)N(c1c([H])c([H])c2nc([H])nc(N([H])c3c([H])c([H])c([H])c(Br)c3[H])c2c1[H])C([H])([H])C([H])([H])C([H])([H])N1C([H])([H])C([H])([H])OC([H])([H])C1([H])[H]
     RDKit          3D

 58 61  0  0  0  0  0  0  0  0999 V2000
   -7.5876    3.8340   -1.1197 Br  0  0  0  0  0  0  0  0  0  0  0  0
   -6.6753    2.2541   -1.6345 C   0  0  0  0  0  0  0  0  0  0  0  0
   -7.1372    1.5430   -2.6941 C   0  0  0  0  0  0  0  0  0  0  0  0
   -6.4525    0.3959   -3.0481 C   0  0  0  0  0  0  0  0  0  0  0  0
   -5.3400    0.0149   -2.3258 C   0  0  0  0  0  0  0  0  0  0  0  0
   -4.8738    0.7512   -1.2390 C   0  0  0  0  0  0  0  0  0  0  0  0
   -3.7050    0.3117   -0.5738 N   0  0  0  0  0  0  0  0  0  0  0  0
   -3.6193    0.4205    0.8314 C   0  0  0  0  0  0  0  0  0  0  0  0
   -4.6669    0.8647    1.5752 N   0  0  0  0  0  0  0  0  0  0  0  0
   -4.6393    0.9451    2.9098 C   0  0  0  0  0  0  0  0  0  0  0  0
   -3.5281    0.5721    3.5678 N   0  0  0  0  0  0  0  0  0  0  0  0
   -2.4540    0.1223    2.8853 C   0  0  0  0  0  0  0  0  0  0  0  0
   -1.3045   -0.2645    3.5358 C   0  0  0  0  0  0  0  0  0  0  0  0
   -0.2086   -0.7223    2.8434 C   0  0  0  0  0  0  0  0  0  0  0  0
   -0.1908   -0.8221    1.4729 C   0  0  0  0  0  0  0  0  0  0  0  0
   -1.3697   -0.4244    0.8162 C   0  0  0  0  0  0  0  0  0  0  0  0
   -2.4747    0.0351    1.4870 C   0  0  0  0  0  0  0  0  0  0  0  0
    0.9070   -1.2884    0.7200 N   0  0  0  0  0  0  0  0  0  0  0  0
    1.9005   -0.4127    0.1137 C   0  0  0  0  0  0  0  0  0  0  0  0
    3.0421   -0.1359    1.0078 C   0  0  0  0  0  0  0  0  0  0  0  0
    4.0471    0.7965    0.4262 C   0  0  0  0  0  0  0  0  0  0  0  0
    4.7195    0.4676   -0.7546 N   0  0  0  0  0  0  0  0  0  0  0  0
    4.0895    0.4536   -1.9971 C   0  0  0  0  0  0  0  0  0  0  0  0
    4.8030    1.2455   -3.0809 C   0  0  0  0  0  0  0  0  0  0  0  0
    6.1741    1.1500   -3.0016 O   0  0  0  0  0  0  0  0  0  0  0  0
    6.6671    1.5806   -1.7680 C   0  0  0  0  0  0  0  0  0  0  0  0
    6.1378    0.5966   -0.7373 C   0  0  0  0  0  0  0  0  0  0  0  0
    1.0392   -2.6900    0.5502 C   0  0  0  0  0  0  0  0  0  0  0  0
    2.0296   -3.1272   -0.1098 O   0  0  0  0  0  0  0  0  0  0  0  0
    0.1062   -3.6513    1.0879 C   0  0  0  0  0  0  0  0  0  0  0  0
    0.2865   -4.9331    0.8996 C   0  0  0  0  0  0  0  0  0  0  0  0
   -5.5424    1.8759   -0.8917 C   0  0  0  0  0  0  0  0  0  0  0  0
   -8.0266    1.8911   -3.2319 H   0  0  0  0  0  0  0  0  0  0  0  0
   -6.8029   -0.1844   -3.8898 H   0  0  0  0  0  0  0  0  0  0  0  0
   -4.8498   -0.8962   -2.6579 H   0  0  0  0  0  0  0  0  0  0  0  0
   -2.9219   -0.0928   -1.1533 H   0  0  0  0  0  0  0  0  0  0  0  0
   -5.5362    1.3167    3.4175 H   0  0  0  0  0  0  0  0  0  0  0  0
   -1.3221   -0.1845    4.6220 H   0  0  0  0  0  0  0  0  0  0  0  0
    0.6843   -1.0205    3.3765 H   0  0  0  0  0  0  0  0  0  0  0  0
   -1.3642   -0.4972   -0.2608 H   0  0  0  0  0  0  0  0  0  0  0  0
    1.4133    0.4924   -0.2794 H   0  0  0  0  0  0  0  0  0  0  0  0
    2.2812   -0.9820   -0.7881 H   0  0  0  0  0  0  0  0  0  0  0  0
    2.6628    0.3727    1.9547 H   0  0  0  0  0  0  0  0  0  0  0  0
    3.5306   -1.0914    1.3200 H   0  0  0  0  0  0  0  0  0  0  0  0
    3.4868    1.7654    0.2590 H   0  0  0  0  0  0  0  0  0  0  0  0
    4.7724    1.0375    1.2660 H   0  0  0  0  0  0  0  0  0  0  0  0
    3.9644   -0.6011   -2.3514 H   0  0  0  0  0  0  0  0  0  0  0  0
    3.0754    0.8976   -1.9503 H   0  0  0  0  0  0  0  0  0  0  0  0
    4.4475    2.2930   -3.1359 H   0  0  0  0  0  0  0  0  0  0  0  0
    4.5102    0.7681   -4.0507 H   0  0  0  0  0  0  0  0  0  0  0  0
    6.2683    2.6035   -1.6110 H   0  0  0  0  0  0  0  0  0  0  0  0
    7.7552    1.5007   -1.7669 H   0  0  0  0  0  0  0  0  0  0  0  0
    6.5977   -0.3913   -0.9803 H   0  0  0  0  0  0  0  0  0  0  0  0
    6.4330    0.9132    0.2857 H   0  0  0  0  0  0  0  0  0  0  0  0
   -0.7395   -3.2850    1.6463 H   0  0  0  0  0  0  0  0  0  0  0  0
    1.1399   -5.2689    0.3377 H   0  0  0  0  0  0  0  0  0  0  0  0
   -0.4113   -5.6310    1.3025 H   0  0  0  0  0  0  0  0  0  0  0  0
   -5.2279    2.5156   -0.0758 H   0  0  0  0  0  0  0  0  0  0  0  0
  1  2  1  0
  2  3  2  0
  3  4  1  0
  4  5  2  0
  5  6  1  0
  6  7  1  0
  7  8  1  0
  8  9  2  0
  9 10  1  0
 10 11  2  0
 11 12  1  0
 12 13  2  0
 13 14  1  0
 14 15  2  0
 15 16  1  0
 16 17  2  0
 15 18  1  0
 18 19  1  0
 19 20  1  0
 20 21  1  0
 21 22  1  0
 22 23  1  0
 23 24  1  0
 24 25  1  0
 25 26  1  0
 26 27  1  0
 18 28  1  0
 28 29  2  0
 28 30  1  0
 30 31  2  3
  6 32  2  0
 32  2  1  0
 17  8  1  0
 27 22  1  0
 17 12  1  0
  3 33  1  0
  4 34  1  0
  5 35  1  0
  7 36  1  0
 10 37  1  0
 13 38  1  0
 14 39  1  0
 16 40  1  0
 19 41  1  0
 19 42  1  0
 20 43  1  0
 20 44  1  0
 21 45  1  0
 21 46  1  0
 23 47  1  0
 23 48  1  0
 24 49  1  0
 24 50  1  0
 26 51  1  0
 26 52  1  0
 27 53  1  0
 27 54  1  0
 30 55  1  0
 31 56  1  0
 31 57  1  0
 32 58  1  0
M  END
$$$$
[H]c1nc(N([H])c2c([H])c([H])c([H])c(Br)c2[H])c2c([H])c([H])c(N([H])C(=O)C([H])([H])[H])c([H])c2n1
     RDKit          3D

 35 37  0  0  0  0  0  0  0  0999 V2000
    6.8306   -0.3439    0.2910 C   0  0  0  0  0  0  0  0  0  0  0  0
    5.3488   -0.5905    0.4283 C   0  0  0  0  0  0  0  0  0  0  0  0
    5.0382   -1.6208    1.0402 O   0  0  0  0  0  0  0  0  0  0  0  0
    4.4421    0.3006   -0.1086 N   0  0  0  0  0  0  0  0  0  0  0  0
    3.0235    0.2595   -0.0911 C   0  0  0  0  0  0  0  0  0  0  0  0
    2.2823   -0.6739    0.6005 C   0  0  0  0  0  0  0  0  0  0  0  0
    0.8791   -0.6261    0.5398 C   0  0  0  0  0  0  0  0  0  0  0  0
    0.2377    0.3305   -0.1932 C   0  0  0  0  0  0  0  0  0  0  0  0
   -1.1438    0.3943   -0.2667 C   0  0  0  0  0  0  0  0  0  0  0  0
   -1.9212   -0.5134    0.4504 N   0  0  0  0  0  0  0  0  0  0  0  0
   -3.3339   -0.5144    0.3765 C   0  0  0  0  0  0  0  0  0  0  0  0
   -4.0484   -0.8747    1.5285 C   0  0  0  0  0  0  0  0  0  0  0  0
   -5.4107   -0.9475    1.5830 C   0  0  0  0  0  0  0  0  0  0  0  0
   -6.1152   -0.6484    0.4366 C   0  0  0  0  0  0  0  0  0  0  0  0
   -5.4487   -0.2878   -0.7254 C   0  0  0  0  0  0  0  0  0  0  0  0
   -6.4993    0.1092   -2.2642 Br  0  0  0  0  0  0  0  0  0  0  0  0
   -4.0465   -0.2217   -0.7523 C   0  0  0  0  0  0  0  0  0  0  0  0
   -1.7510    1.3562   -1.0048 N   0  0  0  0  0  0  0  0  0  0  0  0
   -1.0394    2.2644   -1.6778 C   0  0  0  0  0  0  0  0  0  0  0  0
    0.3084    2.2219   -1.6208 N   0  0  0  0  0  0  0  0  0  0  0  0
    0.9645    1.2936   -0.9073 C   0  0  0  0  0  0  0  0  0  0  0  0
    2.3280    1.2263   -0.8328 C   0  0  0  0  0  0  0  0  0  0  0  0
    7.2028   -1.1514   -0.3945 H   0  0  0  0  0  0  0  0  0  0  0  0
    7.0310    0.6034   -0.2118 H   0  0  0  0  0  0  0  0  0  0  0  0
    7.2731   -0.4321    1.2982 H   0  0  0  0  0  0  0  0  0  0  0  0
    4.8687    1.1482   -0.6084 H   0  0  0  0  0  0  0  0  0  0  0  0
    2.7551   -1.4430    1.1942 H   0  0  0  0  0  0  0  0  0  0  0  0
    0.3512   -1.3794    1.0972 H   0  0  0  0  0  0  0  0  0  0  0  0
   -1.5349   -1.2562    1.0879 H   0  0  0  0  0  0  0  0  0  0  0  0
   -3.4621   -1.1020    2.4086 H   0  0  0  0  0  0  0  0  0  0  0  0
   -5.9232   -1.2292    2.4907 H   0  0  0  0  0  0  0  0  0  0  0  0
   -7.2041   -0.7039    0.4721 H   0  0  0  0  0  0  0  0  0  0  0  0
   -3.6458    0.0481   -1.7119 H   0  0  0  0  0  0  0  0  0  0  0  0
   -1.5366    3.0292   -2.2648 H   0  0  0  0  0  0  0  0  0  0  0  0
    2.8996    1.9749   -1.3885 H   0  0  0  0  0  0  0  0  0  0  0  0
  1  2  1  0
  2  3  2  0
  2  4  1  0
  4  5  1  0
  5  6  2  0
  6  7  1  0
  7  8  2  0
  8  9  1  0
  9 10  1  0
 10 11  1  0
 11 12  2  0
 12 13  1  0
 13 14  2  0
 14 15  1  0
 15 16  1  0
 15 17  2  0
  9 18  2  0
 18 19  1  0
 19 20  2  0
 20 21  1  0
 21 22  2  0
 22  5  1  0
 21  8  1  0
 17 11  1  0
  1 23  1  0
  1 24  1  0
  1 25  1  0
  4 26  1  0
  6 27  1  0
  7 28  1  0
 10 29  1  0
 12 30  1  0
 13 31  1  0
 14 32  1  0
 17 33  1  0
 19 34  1  0
 22 35  1  0
M  END
$$$$
[H]c1c([H])c([H])c2c(N([H])/N=C3/SC([H])([H])C(=O)N3[H])nnc([H])c2c1[H]
     RDKit          3D

 27 29  0  0  0  0  0  0  0  0999 V2000
    4.7419   -2.1497   -0.3004 O   0  0  0  0  0  0  0  0  0  0  0  0
    4.3205   -0.9407   -0.2684 C   0  0  0  0  0  0  0  0  0  0  0  0
    5.2983    0.1869   -0.2903 C   0  0  0  0  0  0  0  0  0  0  0  0
    4.3823    1.3900    0.7558 S   0  0  0  0  0  0  0  0  0  0  0  0
    2.7661    0.5764    0.6603 C   0  0  0  0  0  0  0  0  0  0  0  0
    2.9921   -0.5185   -0.2130 N   0  0  0  0  0  0  0  0  0  0  0  0
    1.7064    0.9707    1.2773 N   0  0  0  0  0  0  0  0  0  0  0  0
    0.5412    0.1865    1.0637 N   0  0  0  0  0  0  0  0  0  0  0  0
   -0.6075    0.8519    0.5866 C   0  0  0  0  0  0  0  0  0  0  0  0
   -0.5715    2.1861    0.3505 N   0  0  0  0  0  0  0  0  0  0  0  0
   -1.6304    2.8376   -0.0964 N   0  0  0  0  0  0  0  0  0  0  0  0
   -2.7705    2.1671   -0.3233 C   0  0  0  0  0  0  0  0  0  0  0  0
   -2.8870    0.8056   -0.1070 C   0  0  0  0  0  0  0  0  0  0  0  0
   -4.0604    0.1246   -0.3423 C   0  0  0  0  0  0  0  0  0  0  0  0
   -4.1629   -1.2311   -0.1227 C   0  0  0  0  0  0  0  0  0  0  0  0
   -3.0587   -1.9133    0.3439 C   0  0  0  0  0  0  0  0  0  0  0  0
   -1.8816   -1.2215    0.5783 C   0  0  0  0  0  0  0  0  0  0  0  0
   -1.7584    0.1342    0.3651 C   0  0  0  0  0  0  0  0  0  0  0  0
    6.2173   -0.0531    0.2803 H   0  0  0  0  0  0  0  0  0  0  0  0
    5.4910    0.5778   -1.2863 H   0  0  0  0  0  0  0  0  0  0  0  0
    2.1987   -0.9641   -0.7682 H   0  0  0  0  0  0  0  0  0  0  0  0
    0.6216   -0.8302    1.2769 H   0  0  0  0  0  0  0  0  0  0  0  0
   -3.6709    2.6598   -0.6920 H   0  0  0  0  0  0  0  0  0  0  0  0
   -4.9208    0.6799   -0.7102 H   0  0  0  0  0  0  0  0  0  0  0  0
   -5.0953   -1.7564   -0.3126 H   0  0  0  0  0  0  0  0  0  0  0  0
   -3.1556   -2.9764    0.5110 H   0  0  0  0  0  0  0  0  0  0  0  0
   -1.0460   -1.7800    0.9392 H   0  0  0  0  0  0  0  0  0  0  0  0
  1  2  2  0
  2  3  1  0
  3  4  1  0
  4  5  1  0
  5  6  1  0
  5  7  2  0
  7  8  1  0
  8  9  1  0
  9 10  2  0
 10 11  1  0
 11 12  2  0
 12 13  1  0
 13 14  2  0
 14 15  1  0
 15 16  2  0
 16 17  1  0
 17 18  2  0
  6  2  1  0
 18  9  1  0
 18 13  1  0
  3 19  1  0
  3 20  1  0
  6 21  1  0
  8 22  1  0
 12 23  1  0
 14 24  1  0
 15 25  1  0
 16 26  1  0
 17 27  1  0
M  END
$$$$
[H]c1nc(N([H])c2c([H])c([H])c(OC([H])([H])c3nc([H])c([H])c([H])c3[H])c(Cl)c2[H])c2c([H])c(N([H])C(=O)C([H])([H])[H])c([H])c([H])c2n1
     RDKit          3D

 48 51  0  0  0  0  0  0  0  0999 V2000
   -6.5226    2.4803    1.8663 C   0  0  0  0  0  0  0  0  0  0  0  0
   -5.5410    1.4389    1.3935 C   0  0  0  0  0  0  0  0  0  0  0  0
   -4.3538    1.7005    1.6026 O   0  0  0  0  0  0  0  0  0  0  0  0
   -6.0508    0.3002    0.7768 N   0  0  0  0  0  0  0  0  0  0  0  0
   -5.2914   -0.7771    0.2658 C   0  0  0  0  0  0  0  0  0  0  0  0
   -5.9604   -1.9692   -0.0718 C   0  0  0  0  0  0  0  0  0  0  0  0
   -5.2669   -3.0254   -0.5813 C   0  0  0  0  0  0  0  0  0  0  0  0
   -3.9020   -2.9829   -0.7888 C   0  0  0  0  0  0  0  0  0  0  0  0
   -3.2419   -4.0386   -1.2891 N   0  0  0  0  0  0  0  0  0  0  0  0
   -1.8982   -3.9761   -1.4824 C   0  0  0  0  0  0  0  0  0  0  0  0
   -1.2072   -2.8823   -1.1858 N   0  0  0  0  0  0  0  0  0  0  0  0
   -1.8556   -1.8033   -0.6789 C   0  0  0  0  0  0  0  0  0  0  0  0
   -1.1434   -0.6195   -0.4025 N   0  0  0  0  0  0  0  0  0  0  0  0
    0.2764   -0.5515   -0.5503 C   0  0  0  0  0  0  0  0  0  0  0  0
    0.8162    0.6626   -1.0050 C   0  0  0  0  0  0  0  0  0  0  0  0
    2.1604    0.7905   -1.1276 C   0  0  0  0  0  0  0  0  0  0  0  0
    3.0684   -0.2334   -0.8231 C   0  0  0  0  0  0  0  0  0  0  0  0
    4.3347   -0.0559   -0.9594 O   0  0  0  0  0  0  0  0  0  0  0  0
    5.5945    0.1368   -1.1006 C   0  0  0  0  0  0  0  0  0  0  0  0
    6.2018    1.2575   -0.2675 C   0  0  0  0  0  0  0  0  0  0  0  0
    5.4527    1.8707    0.7055 C   0  0  0  0  0  0  0  0  0  0  0  0
    5.9964    2.8992    1.4722 C   0  0  0  0  0  0  0  0  0  0  0  0
    7.2954    3.2902    1.2390 C   0  0  0  0  0  0  0  0  0  0  0  0
    8.0012    2.6459    0.2560 C   0  0  0  0  0  0  0  0  0  0  0  0
    7.4574    1.6540   -0.4742 N   0  0  0  0  0  0  0  0  0  0  0  0
    2.5157   -1.4280   -0.3739 C   0  0  0  0  0  0  0  0  0  0  0  0
    3.5794   -2.7868    0.0381 Cl  0  0  0  0  0  0  0  0  0  0  0  0
    1.1505   -1.5572   -0.2491 C   0  0  0  0  0  0  0  0  0  0  0  0
   -3.2240   -1.8312   -0.4683 C   0  0  0  0  0  0  0  0  0  0  0  0
   -3.9365   -0.7518    0.0530 C   0  0  0  0  0  0  0  0  0  0  0  0
   -6.0588    3.4602    1.9603 H   0  0  0  0  0  0  0  0  0  0  0  0
   -6.9509    2.1837    2.8283 H   0  0  0  0  0  0  0  0  0  0  0  0
   -7.3383    2.5006    1.1051 H   0  0  0  0  0  0  0  0  0  0  0  0
   -7.1108    0.2135    0.6664 H   0  0  0  0  0  0  0  0  0  0  0  0
   -7.0220   -2.0206    0.0835 H   0  0  0  0  0  0  0  0  0  0  0  0
   -5.7972   -3.9306   -0.8339 H   0  0  0  0  0  0  0  0  0  0  0  0
   -1.3958   -4.8388   -1.8851 H   0  0  0  0  0  0  0  0  0  0  0  0
   -1.6426    0.2374   -0.0873 H   0  0  0  0  0  0  0  0  0  0  0  0
    0.1056    1.4520   -1.2392 H   0  0  0  0  0  0  0  0  0  0  0  0
    2.5407    1.7588   -1.4873 H   0  0  0  0  0  0  0  0  0  0  0  0
    6.2089   -0.7712   -0.7593 H   0  0  0  0  0  0  0  0  0  0  0  0
    6.0062    0.3268   -2.1422 H   0  0  0  0  0  0  0  0  0  0  0  0
    4.4379    1.5514    0.8772 H   0  0  0  0  0  0  0  0  0  0  0  0
    5.3670    3.3629    2.2380 H   0  0  0  0  0  0  0  0  0  0  0  0
    7.7464    4.0772    1.8089 H   0  0  0  0  0  0  0  0  0  0  0  0
    9.0273    2.9494    0.0664 H   0  0  0  0  0  0  0  0  0  0  0  0
    0.7558   -2.5082    0.1346 H   0  0  0  0  0  0  0  0  0  0  0  0
   -3.3852    0.1383    0.2889 H   0  0  0  0  0  0  0  0  0  0  0  0
  1  2  1  0
  2  3  2  0
  2  4  1  0
  4  5  1  0
  5  6  2  0
  6  7  1  0
  7  8  2  0
  8  9  1  0
  9 10  2  0
 10 11  1  0
 11 12  2  0
 12 13  1  0
 13 14  1  0
 14 15  2  0
 15 16  1  0
 16 17  2  0
 17 18  1  0
 18 19  1  0
 19 20  1  0
 20 21  2  0
 21 22  1  0
 22 23  2  0
 23 24  1  0
 24 25  2  0
 17 26  1  0
 26 27  1  0
 26 28  2  0
 12 29  1  0
 29 30  2  0
 30  5  1  0
 29  8  1  0
 28 14  1  0
 25 20  1  0
  1 31  1  0
  1 32  1  0
  1 33  1  0
  4 34  1  0
  6 35  1  0
  7 36  1  0
 10 37  1  0
 13 38  1  0
 15 39  1  0
 16 40  1  0
 19 41  1  0
 19 42  1  0
 21 43  1  0
 22 44  1  0
 23 45  1  0
 24 46  1  0
 28 47  1  0
 30 48  1  0
M  END
$$$$
[H]C([H])=C([H])C(=O)N1c2c([H])c(N([H])c3nc(N([H])c4c([H])nc(OC([H])([H])[H])c([H])c4[H])nc([H])c3F)c([H])c([H])c2OC([H])([H])C1([H])[H]
     RDKit          3D

 50 53  0  0  0  0  0  0  0  0999 V2000
    9.6479   -0.9115    0.6975 C   0  0  0  0  0  0  0  0  0  0  0  0
    8.7004   -0.9679    1.7335 O   0  0  0  0  0  0  0  0  0  0  0  0
    7.3509   -0.7722    1.5437 C   0  0  0  0  0  0  0  0  0  0  0  0
    6.4644   -0.8378    2.5919 C   0  0  0  0  0  0  0  0  0  0  0  0
    5.0940   -0.6400    2.4060 C   0  0  0  0  0  0  0  0  0  0  0  0
    4.5817   -0.3730    1.1671 C   0  0  0  0  0  0  0  0  0  0  0  0
    3.2269   -0.1822    0.9031 N   0  0  0  0  0  0  0  0  0  0  0  0
    2.1003   -0.4383    1.7085 C   0  0  0  0  0  0  0  0  0  0  0  0
    2.1345   -0.9481    2.9438 N   0  0  0  0  0  0  0  0  0  0  0  0
    1.0816   -1.1996    3.7203 C   0  0  0  0  0  0  0  0  0  0  0  0
   -0.1664   -0.9134    3.2190 C   0  0  0  0  0  0  0  0  0  0  0  0
   -1.2965   -1.1361    3.9394 F   0  0  0  0  0  0  0  0  0  0  0  0
   -0.2710   -0.3733    1.9210 C   0  0  0  0  0  0  0  0  0  0  0  0
   -1.5648   -0.1236    1.4575 N   0  0  0  0  0  0  0  0  0  0  0  0
   -1.8897    0.4424    0.1980 C   0  0  0  0  0  0  0  0  0  0  0  0
   -1.0645    1.1962   -0.5863 C   0  0  0  0  0  0  0  0  0  0  0  0
   -1.4707    1.6981   -1.8323 C   0  0  0  0  0  0  0  0  0  0  0  0
   -2.7267    1.4594   -2.3350 C   0  0  0  0  0  0  0  0  0  0  0  0
   -3.2020    1.9151   -3.5494 O   0  0  0  0  0  0  0  0  0  0  0  0
   -4.3836    1.5018   -4.1743 C   0  0  0  0  0  0  0  0  0  0  0  0
   -5.0158    0.2960   -3.4932 C   0  0  0  0  0  0  0  0  0  0  0  0
   -4.8856    0.4444   -2.0602 N   0  0  0  0  0  0  0  0  0  0  0  0
   -5.9547    0.3948   -1.1348 C   0  0  0  0  0  0  0  0  0  0  0  0
   -5.8448    0.6587    0.1018 O   0  0  0  0  0  0  0  0  0  0  0  0
   -7.2785    0.0168   -1.6126 C   0  0  0  0  0  0  0  0  0  0  0  0
   -8.3210   -0.0436   -0.7722 C   0  0  0  0  0  0  0  0  0  0  0  0
   -3.5618    0.6982   -1.5411 C   0  0  0  0  0  0  0  0  0  0  0  0
   -3.1840    0.1992   -0.3254 C   0  0  0  0  0  0  0  0  0  0  0  0
    0.8472   -0.1663    1.2423 N   0  0  0  0  0  0  0  0  0  0  0  0
    5.5336   -0.3170    0.1315 C   0  0  0  0  0  0  0  0  0  0  0  0
    6.8290   -0.5077    0.3318 N   0  0  0  0  0  0  0  0  0  0  0  0
   10.6148   -0.4791    1.0469 H   0  0  0  0  0  0  0  0  0  0  0  0
    9.8637   -1.9037    0.2480 H   0  0  0  0  0  0  0  0  0  0  0  0
    9.2555   -0.2317   -0.0770 H   0  0  0  0  0  0  0  0  0  0  0  0
    6.8523   -1.0464    3.5604 H   0  0  0  0  0  0  0  0  0  0  0  0
    4.4910   -0.7020    3.2900 H   0  0  0  0  0  0  0  0  0  0  0  0
    3.0048    0.2253   -0.0614 H   0  0  0  0  0  0  0  0  0  0  0  0
    1.1632   -1.6176    4.7247 H   0  0  0  0  0  0  0  0  0  0  0  0
   -2.3854   -0.3641    2.0788 H   0  0  0  0  0  0  0  0  0  0  0  0
   -0.0703    1.4457   -0.2621 H   0  0  0  0  0  0  0  0  0  0  0  0
   -0.7958    2.2930   -2.4338 H   0  0  0  0  0  0  0  0  0  0  0  0
   -5.1557    2.3223   -4.0977 H   0  0  0  0  0  0  0  0  0  0  0  0
   -4.1939    1.2436   -5.2464 H   0  0  0  0  0  0  0  0  0  0  0  0
   -6.0371    0.2453   -3.8623 H   0  0  0  0  0  0  0  0  0  0  0  0
   -4.4514   -0.6100   -3.7923 H   0  0  0  0  0  0  0  0  0  0  0  0
   -7.4582   -0.2255   -2.6347 H   0  0  0  0  0  0  0  0  0  0  0  0
   -8.2331    0.1801    0.2774 H   0  0  0  0  0  0  0  0  0  0  0  0
   -9.3000   -0.3220   -1.1188 H   0  0  0  0  0  0  0  0  0  0  0  0
   -3.8371   -0.4126    0.2831 H   0  0  0  0  0  0  0  0  0  0  0  0
    5.1625   -0.1099   -0.8486 H   0  0  0  0  0  0  0  0  0  0  0  0
  1  2  1  0
  2  3  1  0
  3  4  2  0
  4  5  1  0
  5  6  2  0
  6  7  1  0
  7  8  1  0
  8  9  2  0
  9 10  1  0
 10 11  2  0
 11 12  1  0
 11 13  1  0
 13 14  1  0
 14 15  1  0
 15 16  2  0
 16 17  1  0
 17 18  2  0
 18 19  1  0
 19 20  1  0
 20 21  1  0
 21 22  1  0
 22 23  1  0
 23 24  2  0
 23 25  1  0
 25 26  2  3
 22 27  1  0
 27 28  2  0
 13 29  2  0
  6 30  1  0
 30 31  2  0
 31  3  1  0
 29  8  1  0
 28 15  1  0
 27 18  1  0
  1 32  1  0
  1 33  1  0
  1 34  1  0
  4 35  1  0
  5 36  1  0
  7 37  1  0
 10 38  1  0
 14 39  1  0
 16 40  1  0
 17 41  1  0
 20 42  1  0
 20 43  1  0
 21 44  1  0
 21 45  1  0
 25 46  1  0
 26 47  1  0
 26 48  1  0
 28 49  1  0
 30 50  1  0
M  END
$$$$
[H]c1c([H])c([N+](=O)[O-])c([H])c([N+](=O)[O-])c1N([H])C(=O)C([H])([H])Sc1nc2c([H])c3c([H])c([H])c([H])c([H])c3c([H])c2c(=O)n1-c1c([H])c([H])c(S(=O)(=O)N([H])[H])c([H])c1[H]
     RDKit          3D

 60 64  0  0  0  0  0  0  0  0999 V2000
   -2.0857    7.0207   -0.8335 N   0  0  0  0  0  0  0  0  0  0  0  0
   -3.5621    6.1229   -0.9562 S   0  0  0  0  0  0  0  0  0  0  0  0
   -4.1111    6.2413   -2.3759 O   0  0  0  0  0  0  0  0  0  0  0  0
   -4.5664    6.6683   -0.0083 O   0  0  0  0  0  0  0  0  0  0  0  0
   -3.2225    4.4401   -0.6130 C   0  0  0  0  0  0  0  0  0  0  0  0
   -2.9762    3.5297   -1.6209 C   0  0  0  0  0  0  0  0  0  0  0  0
   -2.6723    2.2254   -1.3147 C   0  0  0  0  0  0  0  0  0  0  0  0
   -2.5999    1.7736    0.0009 C   0  0  0  0  0  0  0  0  0  0  0  0
   -2.8527    2.7089    0.9846 C   0  0  0  0  0  0  0  0  0  0  0  0
   -3.1613    4.0255    0.7172 C   0  0  0  0  0  0  0  0  0  0  0  0
   -2.2678    0.4168    0.2240 N   0  0  0  0  0  0  0  0  0  0  0  0
   -1.0293    0.0747    0.6567 C   0  0  0  0  0  0  0  0  0  0  0  0
    0.0583    1.4166    1.0258 S   0  0  0  0  0  0  0  0  0  0  0  0
    1.0308    1.9814   -0.3385 C   0  0  0  0  0  0  0  0  0  0  0  0
    2.1217    1.0396   -0.7891 C   0  0  0  0  0  0  0  0  0  0  0  0
    2.0031    0.3454   -1.7938 O   0  0  0  0  0  0  0  0  0  0  0  0
    3.2744    1.0239    0.0136 N   0  0  0  0  0  0  0  0  0  0  0  0
    4.4530    0.2873   -0.1982 C   0  0  0  0  0  0  0  0  0  0  0  0
    4.8003   -0.1896   -1.4393 C   0  0  0  0  0  0  0  0  0  0  0  0
    6.0234   -0.8057   -1.7068 C   0  0  0  0  0  0  0  0  0  0  0  0
    6.9170   -0.9413   -0.6852 C   0  0  0  0  0  0  0  0  0  0  0  0
    6.5915   -0.4755    0.5613 C   0  0  0  0  0  0  0  0  0  0  0  0
    5.3611    0.1447    0.8355 C   0  0  0  0  0  0  0  0  0  0  0  0
    5.1266    0.5777    2.1670 N   0  0  0  0  0  0  0  0  0  0  0  0
    3.9107    0.6416    2.7672 O   0  0  0  0  0  0  0  0  0  0  0  0
    6.1210    0.9380    2.8440 O   0  0  0  0  0  0  0  0  0  0  0  0
    8.1887   -1.5553   -0.9115 N   0  0  0  0  0  0  0  0  0  0  0  0
    8.5058   -2.0114   -2.1407 O   0  0  0  0  0  0  0  0  0  0  0  0
    8.9734   -1.6481    0.0299 O   0  0  0  0  0  0  0  0  0  0  0  0
   -0.6989   -1.2272    0.8460 N   0  0  0  0  0  0  0  0  0  0  0  0
   -1.6345   -2.1980    0.5974 C   0  0  0  0  0  0  0  0  0  0  0  0
   -1.2975   -3.5352    0.8100 C   0  0  0  0  0  0  0  0  0  0  0  0
   -2.2213   -4.5322    0.5872 C   0  0  0  0  0  0  0  0  0  0  0  0
   -1.9277   -5.8666    0.7982 C   0  0  0  0  0  0  0  0  0  0  0  0
   -2.8523   -6.8615    0.5885 C   0  0  0  0  0  0  0  0  0  0  0  0
   -4.1255   -6.5008    0.1488 C   0  0  0  0  0  0  0  0  0  0  0  0
   -4.3923   -5.1672   -0.0541 C   0  0  0  0  0  0  0  0  0  0  0  0
   -3.4699   -4.1469    0.1528 C   0  0  0  0  0  0  0  0  0  0  0  0
   -3.8336   -2.8342   -0.0671 C   0  0  0  0  0  0  0  0  0  0  0  0
   -2.8875   -1.8458    0.1620 C   0  0  0  0  0  0  0  0  0  0  0  0
   -3.2049   -0.5129   -0.0268 C   0  0  0  0  0  0  0  0  0  0  0  0
   -4.3534   -0.2295   -0.4249 O   0  0  0  0  0  0  0  0  0  0  0  0
   -2.2784    7.9731   -0.4758 H   0  0  0  0  0  0  0  0  0  0  0  0
   -1.5183    6.5391   -0.0997 H   0  0  0  0  0  0  0  0  0  0  0  0
   -3.0220    3.8340   -2.6512 H   0  0  0  0  0  0  0  0  0  0  0  0
   -2.4738    1.4976   -2.0987 H   0  0  0  0  0  0  0  0  0  0  0  0
   -2.8066    2.3866    2.0363 H   0  0  0  0  0  0  0  0  0  0  0  0
   -3.3567    4.7411    1.5000 H   0  0  0  0  0  0  0  0  0  0  0  0
    0.4080    2.1182   -1.2616 H   0  0  0  0  0  0  0  0  0  0  0  0
    1.5401    2.9563   -0.1091 H   0  0  0  0  0  0  0  0  0  0  0  0
    3.2215    1.6784    0.8658 H   0  0  0  0  0  0  0  0  0  0  0  0
    4.1575   -0.1097   -2.2952 H   0  0  0  0  0  0  0  0  0  0  0  0
    6.2993   -1.1723   -2.6726 H   0  0  0  0  0  0  0  0  0  0  0  0
    7.3057   -0.5820    1.3765 H   0  0  0  0  0  0  0  0  0  0  0  0
   -0.3115   -3.7730    1.1496 H   0  0  0  0  0  0  0  0  0  0  0  0
   -0.9360   -6.1233    1.1391 H   0  0  0  0  0  0  0  0  0  0  0  0
   -2.6253   -7.8990    0.7476 H   0  0  0  0  0  0  0  0  0  0  0  0
   -4.8786   -7.2374   -0.0292 H   0  0  0  0  0  0  0  0  0  0  0  0
   -5.3841   -4.8371   -0.4012 H   0  0  0  0  0  0  0  0  0  0  0  0
   -4.7951   -2.5500   -0.4017 H   0  0  0  0  0  0  0  0  0  0  0  0
  1  2  1  0
  2  3  2  0
  2  4  2  0
  2  5  1  0
  5  6  2  0
  6  7  1  0
  7  8  2  0
  8  9  1  0
  9 10  2  0
  8 11  1  0
 11 12  1  0
 12 13  1  0
 13 14  1  0
 14 15  1  0
 15 16  2  0
 15 17  1  0
 17 18  1  0
 18 19  2  0
 19 20  1  0
 20 21  2  0
 21 22  1  0
 22 23  2  0
 23 24  1  0
 24 25  1  0
 24 26  2  0
 21 27  1  0
 27 28  1  0
 27 29  2  0
 12 30  2  0
 30 31  1  0
 31 32  2  0
 32 33  1  0
 33 34  2  0
 34 35  1  0
 35 36  2  0
 36 37  1  0
 37 38  2  0
 38 39  1  0
 39 40  2  0
 40 41  1  0
 41 42  2  0
 10  5  1  0
 41 11  1  0
 23 18  1  0
 40 31  1  0
 38 33  1  0
  1 43  1  0
  1 44  1  0
  6 45  1  0
  7 46  1  0
  9 47  1  0
 10 48  1  0
 14 49  1  0
 14 50  1  0
 17 51  1  0
 19 52  1  0
 20 53  1  0
 22 54  1  0
 32 55  1  0
 34 56  1  0
 35 57  1  0
 36 58  1  0
 37 59  1  0
 39 60  1  0
M  CHG  4  24   1  25  -1  27   1  28  -1
M  END
$$$$
[H]C([H])=C([H])C(=O)N([H])c1c([H])c([H])c([H])c(N([H])c2nc(N([H])c3c([H])c([H])c([H])c(OC([H])([H])[H])c3[H])nc([H])c2OC([H])([H])[H])c1[H]
     RDKit          3D

 50 52  0  0  0  0  0  0  0  0999 V2000
    2.4016   -3.8410   -0.7529 C   0  0  0  0  0  0  0  0  0  0  0  0
    2.0367   -2.4932   -0.6643 O   0  0  0  0  0  0  0  0  0  0  0  0
    1.6980   -1.7424   -1.7734 C   0  0  0  0  0  0  0  0  0  0  0  0
    1.6875   -2.2416   -3.0505 C   0  0  0  0  0  0  0  0  0  0  0  0
    1.3442   -1.4577   -4.1220 C   0  0  0  0  0  0  0  0  0  0  0  0
    1.0086   -0.1507   -3.8824 C   0  0  0  0  0  0  0  0  0  0  0  0
    0.9951    0.4302   -2.6139 C   0  0  0  0  0  0  0  0  0  0  0  0
    0.6547    1.7840   -2.5361 N   0  0  0  0  0  0  0  0  0  0  0  0
    0.2197    2.5161   -1.4019 C   0  0  0  0  0  0  0  0  0  0  0  0
   -0.0445    3.8580   -1.5316 N   0  0  0  0  0  0  0  0  0  0  0  0
   -0.4707    4.6259   -0.5316 C   0  0  0  0  0  0  0  0  0  0  0  0
   -0.6584    4.0505    0.6984 C   0  0  0  0  0  0  0  0  0  0  0  0
   -1.1005    4.7958    1.7815 O   0  0  0  0  0  0  0  0  0  0  0  0
   -1.3588    6.1603    1.6080 C   0  0  0  0  0  0  0  0  0  0  0  0
   -0.4038    2.6693    0.8971 C   0  0  0  0  0  0  0  0  0  0  0  0
   -0.5849    2.1453    2.1854 N   0  0  0  0  0  0  0  0  0  0  0  0
   -0.4254    0.7917    2.5346 C   0  0  0  0  0  0  0  0  0  0  0  0
    0.0522    0.4439    3.7933 C   0  0  0  0  0  0  0  0  0  0  0  0
    0.1708   -0.8629    4.1578 C   0  0  0  0  0  0  0  0  0  0  0  0
   -0.1794   -1.8577    3.2893 C   0  0  0  0  0  0  0  0  0  0  0  0
   -0.6618   -1.5494    2.0219 C   0  0  0  0  0  0  0  0  0  0  0  0
   -0.9936   -2.6183    1.1736 N   0  0  0  0  0  0  0  0  0  0  0  0
   -1.6873   -2.6052   -0.0450 C   0  0  0  0  0  0  0  0  0  0  0  0
   -2.1252   -1.5270   -0.5406 O   0  0  0  0  0  0  0  0  0  0  0  0
   -1.9596   -3.7966   -0.8288 C   0  0  0  0  0  0  0  0  0  0  0  0
   -1.5715   -4.9799   -0.4465 C   0  0  0  0  0  0  0  0  0  0  0  0
   -0.7735   -0.2466    1.6753 C   0  0  0  0  0  0  0  0  0  0  0  0
    0.0187    2.0137   -0.1841 N   0  0  0  0  0  0  0  0  0  0  0  0
    1.3474   -0.4012   -1.5815 C   0  0  0  0  0  0  0  0  0  0  0  0
    1.5151   -4.4981   -0.8414 H   0  0  0  0  0  0  0  0  0  0  0  0
    2.9361   -4.1575    0.1772 H   0  0  0  0  0  0  0  0  0  0  0  0
    3.0863   -4.0271   -1.6243 H   0  0  0  0  0  0  0  0  0  0  0  0
    1.9656   -3.2889   -3.1623 H   0  0  0  0  0  0  0  0  0  0  0  0
    1.3525   -1.8998   -5.1043 H   0  0  0  0  0  0  0  0  0  0  0  0
    0.7419    0.4460   -4.7384 H   0  0  0  0  0  0  0  0  0  0  0  0
    0.7260    2.3699   -3.4318 H   0  0  0  0  0  0  0  0  0  0  0  0
   -0.6804    5.6797   -0.6236 H   0  0  0  0  0  0  0  0  0  0  0  0
   -0.4337    6.7353    1.4036 H   0  0  0  0  0  0  0  0  0  0  0  0
   -1.9002    6.6113    2.4681 H   0  0  0  0  0  0  0  0  0  0  0  0
   -2.0820    6.2451    0.7455 H   0  0  0  0  0  0  0  0  0  0  0  0
   -0.8610    2.7892    2.9723 H   0  0  0  0  0  0  0  0  0  0  0  0
    0.3186    1.2647    4.4518 H   0  0  0  0  0  0  0  0  0  0  0  0
    0.5567   -1.1017    5.1727 H   0  0  0  0  0  0  0  0  0  0  0  0
   -0.0683   -2.9020    3.6223 H   0  0  0  0  0  0  0  0  0  0  0  0
   -0.6784   -3.6129    1.4764 H   0  0  0  0  0  0  0  0  0  0  0  0
   -2.5117   -3.6979   -1.7768 H   0  0  0  0  0  0  0  0  0  0  0  0
   -1.8018   -5.8569   -1.0763 H   0  0  0  0  0  0  0  0  0  0  0  0
   -1.0337   -5.2094    0.4430 H   0  0  0  0  0  0  0  0  0  0  0  0
   -1.1525    0.0759    0.7043 H   0  0  0  0  0  0  0  0  0  0  0  0
    1.3692   -0.0145   -0.5871 H   0  0  0  0  0  0  0  0  0  0  0  0
  1  2  1  0
  2  3  1  0
  3  4  2  0
  4  5  1  0
  5  6  2  0
  6  7  1  0
  7  8  1  0
  8  9  1  0
  9 10  2  0
 10 11  1  0
 11 12  2  0
 12 13  1  0
 13 14  1  0
 12 15  1  0
 15 16  1  0
 16 17  1  0
 17 18  2  0
 18 19  1  0
 19 20  2  0
 20 21  1  0
 21 22  1  0
 22 23  1  0
 23 24  2  0
 23 25  1  0
 25 26  2  3
 21 27  2  0
 15 28  2  0
  7 29  2  0
 29  3  1  0
 28  9  1  0
 27 17  1  0
  1 30  1  0
  1 31  1  0
  1 32  1  0
  4 33  1  0
  5 34  1  0
  6 35  1  0
  8 36  1  0
 11 37  1  0
 14 38  1  0
 14 39  1  0
 14 40  1  0
 16 41  1  0
 18 42  1  0
 19 43  1  0
 20 44  1  0
 22 45  1  0
 25 46  1  0
 26 47  1  0
 26 48  1  0
 27 49  1  0
 29 50  1  0
M  END
$$$$
[H]C([H])=C([H])C(=O)N1C([H])([H])C([H])([H])C([H])(N([H])c2c(OC([H])([H])[H])c([H])c3nc([H])nc(N([H])c4c([H])c([H])c(F)c(Cl)c4[H])c3c2[H])C([H])([H])C1([H])[H]
     RDKit          3D

 55 58  0  0  0  0  0  0  0  0999 V2000
    1.0399   -2.9951    5.0269 C   0  0  0  0  0  0  0  0  0  0  0  0
    0.7122   -2.3840    3.8818 O   0  0  0  0  0  0  0  0  0  0  0  0
   -0.2159   -2.0049    3.0358 C   0  0  0  0  0  0  0  0  0  0  0  0
   -1.5656   -2.2510    3.1939 C   0  0  0  0  0  0  0  0  0  0  0  0
   -2.4960   -1.8409    2.2865 C   0  0  0  0  0  0  0  0  0  0  0  0
   -3.8215   -2.1174    2.4783 N   0  0  0  0  0  0  0  0  0  0  0  0
   -4.7121   -1.7100    1.5599 C   0  0  0  0  0  0  0  0  0  0  0  0
   -4.3733   -1.0452    0.4627 N   0  0  0  0  0  0  0  0  0  0  0  0
   -3.0553   -0.7555    0.2461 C   0  0  0  0  0  0  0  0  0  0  0  0
   -2.6606   -0.0784   -0.9277 N   0  0  0  0  0  0  0  0  0  0  0  0
   -3.5410    0.4072   -1.9586 C   0  0  0  0  0  0  0  0  0  0  0  0
   -4.8524    0.7285   -1.8027 C   0  0  0  0  0  0  0  0  0  0  0  0
   -5.6345    1.1608   -2.8929 C   0  0  0  0  0  0  0  0  0  0  0  0
   -5.0856    1.2692   -4.1463 C   0  0  0  0  0  0  0  0  0  0  0  0
   -5.8085    1.6791   -5.2261 F   0  0  0  0  0  0  0  0  0  0  0  0
   -3.7611    0.9502   -4.3267 C   0  0  0  0  0  0  0  0  0  0  0  0
   -3.0368    1.0841   -5.9358 Cl  0  0  0  0  0  0  0  0  0  0  0  0
   -3.0132    0.5322   -3.2614 C   0  0  0  0  0  0  0  0  0  0  0  0
   -2.0890   -1.1496    1.1596 C   0  0  0  0  0  0  0  0  0  0  0  0
   -0.7348   -0.8887    0.9779 C   0  0  0  0  0  0  0  0  0  0  0  0
    0.1942   -1.3075    1.8981 C   0  0  0  0  0  0  0  0  0  0  0  0
    1.5650   -1.0494    1.6819 N   0  0  0  0  0  0  0  0  0  0  0  0
    2.0481   -0.2338    0.5889 C   0  0  0  0  0  0  0  0  0  0  0  0
    3.5464   -0.4242    0.4037 C   0  0  0  0  0  0  0  0  0  0  0  0
    3.8694    0.3089   -0.9145 C   0  0  0  0  0  0  0  0  0  0  0  0
    3.5534    1.7182   -0.7166 N   0  0  0  0  0  0  0  0  0  0  0  0
    2.9323    2.0711    0.5663 C   0  0  0  0  0  0  0  0  0  0  0  0
    1.7678    1.2145    0.9073 C   0  0  0  0  0  0  0  0  0  0  0  0
    3.8087    2.6929   -1.6592 C   0  0  0  0  0  0  0  0  0  0  0  0
    3.4833    3.9114   -1.2725 O   0  0  0  0  0  0  0  0  0  0  0  0
    4.3606    2.6378   -2.9821 C   0  0  0  0  0  0  0  0  0  0  0  0
    4.7698    1.6170   -3.6787 C   0  0  0  0  0  0  0  0  0  0  0  0
    0.7387   -4.0750    5.0002 H   0  0  0  0  0  0  0  0  0  0  0  0
    2.1770   -3.0294    5.1062 H   0  0  0  0  0  0  0  0  0  0  0  0
    0.6659   -2.5144    5.9651 H   0  0  0  0  0  0  0  0  0  0  0  0
   -1.9147   -2.7888    4.0625 H   0  0  0  0  0  0  0  0  0  0  0  0
   -5.7759   -1.9475    1.7372 H   0  0  0  0  0  0  0  0  0  0  0  0
   -1.6273    0.1103   -1.1016 H   0  0  0  0  0  0  0  0  0  0  0  0
   -5.3595    0.6901   -0.8491 H   0  0  0  0  0  0  0  0  0  0  0  0
   -6.6709    1.4148   -2.7639 H   0  0  0  0  0  0  0  0  0  0  0  0
   -1.9868    0.2851   -3.3972 H   0  0  0  0  0  0  0  0  0  0  0  0
   -0.4056   -0.3524    0.0964 H   0  0  0  0  0  0  0  0  0  0  0  0
    2.2577   -1.4573    2.3343 H   0  0  0  0  0  0  0  0  0  0  0  0
    1.5723   -0.5276   -0.3673 H   0  0  0  0  0  0  0  0  0  0  0  0
    4.1569   -0.0316    1.2145 H   0  0  0  0  0  0  0  0  0  0  0  0
    3.7170   -1.4975    0.1919 H   0  0  0  0  0  0  0  0  0  0  0  0
    4.9381    0.1376   -1.0651 H   0  0  0  0  0  0  0  0  0  0  0  0
    3.1873   -0.1132   -1.6583 H   0  0  0  0  0  0  0  0  0  0  0  0
    3.7099    1.9557    1.3415 H   0  0  0  0  0  0  0  0  0  0  0  0
    2.5771    3.1136    0.4653 H   0  0  0  0  0  0  0  0  0  0  0  0
    0.9076    1.5565    0.3191 H   0  0  0  0  0  0  0  0  0  0  0  0
    1.5657    1.3071    1.9980 H   0  0  0  0  0  0  0  0  0  0  0  0
    4.4747    3.6180   -3.5340 H   0  0  0  0  0  0  0  0  0  0  0  0
    5.1739    1.7823   -4.7058 H   0  0  0  0  0  0  0  0  0  0  0  0
    4.7268    0.6157   -3.3109 H   0  0  0  0  0  0  0  0  0  0  0  0
  1  2  1  0
  2  3  1  0
  3  4  2  0
  4  5  1  0
  5  6  2  0
  6  7  1  0
  7  8  2  0
  8  9  1  0
  9 10  1  0
 10 11  1  0
 11 12  2  0
 12 13  1  0
 13 14  2  0
 14 15  1  0
 14 16  1  0
 16 17  1  0
 16 18  2  0
  9 19  2  0
 19 20  1  0
 20 21  2  0
 21 22  1  0
 22 23  1  0
 23 24  1  0
 24 25  1  0
 25 26  1  0
 26 27  1  0
 27 28  1  0
 26 29  1  0
 29 30  2  0
 29 31  1  0
 31 32  2  3
 21  3  1  0
 28 23  1  0
 19  5  1  0
 18 11  1  0
  1 33  1  0
  1 34  1  0
  1 35  1  0
  4 36  1  0
  7 37  1  0
 10 38  1  0
 12 39  1  0
 13 40  1  0
 18 41  1  0
 20 42  1  0
 22 43  1  0
 23 44  1  0
 24 45  1  0
 24 46  1  0
 25 47  1  0
 25 48  1  0
 27 49  1  0
 27 50  1  0
 28 51  1  0
 28 52  1  0
 31 53  1  0
 32 54  1  0
 32 55  1  0
M  END
$$$$
[H]c1nc2c(c(Oc3c([H])c([H])c4c(c3[H])[C@]3([H])[C@]([H])(O4)[C@@]3([H])N([H])C(=O)c3c([H])c([H])c(F)c(F)c3[H])c1[H])C([H])([H])C([H])([H])C(=O)N2[H]
     RDKit          3D

 50 55  0  0  0  0  0  0  0  0999 V2000
    9.3969    2.1560   -1.7662 F   0  0  0  0  0  0  0  0  0  0  0  0
    8.1689    1.9173   -1.2738 C   0  0  0  0  0  0  0  0  0  0  0  0
    7.8216    0.6867   -0.7678 C   0  0  0  0  0  0  0  0  0  0  0  0
    6.5485    0.4931   -0.2742 C   0  0  0  0  0  0  0  0  0  0  0  0
    5.6169    1.4804   -0.2691 C   0  0  0  0  0  0  0  0  0  0  0  0
    5.9710    2.7281   -0.7828 C   0  0  0  0  0  0  0  0  0  0  0  0
    7.2360    2.9279   -1.2755 C   0  0  0  0  0  0  0  0  0  0  0  0
    7.5400    4.1571   -1.7663 F   0  0  0  0  0  0  0  0  0  0  0  0
    4.2705    1.3246    0.2375 C   0  0  0  0  0  0  0  0  0  0  0  0
    3.4414    2.2771    0.2183 O   0  0  0  0  0  0  0  0  0  0  0  0
    3.8231    0.1057    0.7744 N   0  0  0  0  0  0  0  0  0  0  0  0
    2.4856   -0.0959    1.2924 C   0  0  2  0  0  0  0  0  0  0  0  0
    2.3206   -1.0532    2.3852 C   0  0  1  0  0  0  0  0  0  0  0  0
    1.1669   -1.1574    3.1590 O   0  0  0  0  0  0  0  0  0  0  0  0
    0.0351   -1.2858    2.3466 C   0  0  0  0  0  0  0  0  0  0  0  0
   -1.3177   -1.2674    2.6185 C   0  0  0  0  0  0  0  0  0  0  0  0
   -2.2480   -1.4196    1.6129 C   0  0  0  0  0  0  0  0  0  0  0  0
   -1.9056   -1.5980    0.2879 C   0  0  0  0  0  0  0  0  0  0  0  0
   -2.7538   -1.7555   -0.7650 O   0  0  0  0  0  0  0  0  0  0  0  0
   -4.0735   -1.6387   -0.9028 C   0  0  0  0  0  0  0  0  0  0  0  0
   -4.8443   -2.7385   -1.2002 C   0  0  0  0  0  0  0  0  0  0  0  0
   -6.2280   -2.6412   -1.3486 C   0  0  0  0  0  0  0  0  0  0  0  0
   -6.8200   -1.4719   -1.2010 N   0  0  0  0  0  0  0  0  0  0  0  0
   -6.1128   -0.3646   -0.9096 C   0  0  0  0  0  0  0  0  0  0  0  0
   -6.8189    0.8559   -0.6893 N   0  0  0  0  0  0  0  0  0  0  0  0
   -6.0707    1.9942   -0.3073 C   0  0  0  0  0  0  0  0  0  0  0  0
   -6.4268    3.1484   -0.5395 O   0  0  0  0  0  0  0  0  0  0  0  0
   -4.8015    1.6991    0.4070 C   0  0  0  0  0  0  0  0  0  0  0  0
   -4.0057    0.8410   -0.5522 C   0  0  0  0  0  0  0  0  0  0  0  0
   -4.7253   -0.4303   -0.7587 C   0  0  0  0  0  0  0  0  0  0  0  0
   -0.5320   -1.6137    0.0347 C   0  0  0  0  0  0  0  0  0  0  0  0
    0.4075   -1.4625    1.0317 C   0  0  0  0  0  0  0  0  0  0  0  0
    1.8952   -1.4402    1.0394 C   0  0  1  0  0  0  0  0  0  0  0  0
    8.5274   -0.1243   -0.7518 H   0  0  0  0  0  0  0  0  0  0  0  0
    6.3157   -0.4795    0.1115 H   0  0  0  0  0  0  0  0  0  0  0  0
    5.2230    3.5193   -0.7781 H   0  0  0  0  0  0  0  0  0  0  0  0
    4.4570   -0.7091    0.8164 H   0  0  0  0  0  0  0  0  0  0  0  0
    1.8496    0.8234    1.2180 H   0  0  0  0  0  0  0  0  0  0  0  0
    3.2481   -1.4323    2.8596 H   0  0  0  0  0  0  0  0  0  0  0  0
   -1.5954   -1.1274    3.6586 H   0  0  0  0  0  0  0  0  0  0  0  0
   -3.3106   -1.4040    1.8344 H   0  0  0  0  0  0  0  0  0  0  0  0
   -4.4396   -3.7347   -1.3369 H   0  0  0  0  0  0  0  0  0  0  0  0
   -6.8368   -3.5148   -1.5855 H   0  0  0  0  0  0  0  0  0  0  0  0
   -7.8601    0.9055   -0.8111 H   0  0  0  0  0  0  0  0  0  0  0  0
   -5.0459    1.0728    1.2836 H   0  0  0  0  0  0  0  0  0  0  0  0
   -4.2570    2.6245    0.6852 H   0  0  0  0  0  0  0  0  0  0  0  0
   -2.9478    0.7775   -0.3356 H   0  0  0  0  0  0  0  0  0  0  0  0
   -4.0293    1.4010   -1.5611 H   0  0  0  0  0  0  0  0  0  0  0  0
   -0.2033   -1.7531   -1.0072 H   0  0  0  0  0  0  0  0  0  0  0  0
    2.4435   -2.2027    0.4524 H   0  0  0  0  0  0  0  0  0  0  0  0
  1  2  1  0
  2  3  2  0
  3  4  1  0
  4  5  2  0
  5  6  1  0
  6  7  2  0
  7  8  1  0
  5  9  1  0
  9 10  2  0
  9 11  1  0
 11 12  1  0
 12 13  1  0
 13 14  1  0
 14 15  1  0
 15 16  2  0
 16 17  1  0
 17 18  2  0
 18 19  1  0
 19 20  1  0
 20 21  2  0
 21 22  1  0
 22 23  2  0
 23 24  1  0
 24 25  1  0
 25 26  1  0
 26 27  2  0
 26 28  1  0
 28 29  1  0
 29 30  1  0
 18 31  1  0
 31 32  2  0
 32 33  1  0
  7  2  1  0
 33 12  1  0
 33 13  1  0
 32 15  1  0
 30 20  1  0
 30 24  2  0
  3 34  1  0
  4 35  1  0
  6 36  1  0
 11 37  1  0
 12 38  1  1
 13 39  1  1
 16 40  1  0
 17 41  1  0
 21 42  1  0
 22 43  1  0
 25 44  1  0
 28 45  1  0
 28 46  1  0
 29 47  1  0
 29 48  1  0
 31 49  1  0
 33 50  1  6
M  END
$$$$
[H]C([H])=C([H])C(=O)N([H])c1c([H])c([H])c([H])c(N([H])c2nc(N([H])c3c([H])c([H])c4c(c3[H])N(C([H])([H])[H])C([H])([H])C([H])([H])O4)nc([H])c2F)c1[H]
     RDKit          3D

 52 55  0  0  0  0  0  0  0  0999 V2000
   -5.9314    0.8076   -1.4088 C   0  0  0  0  0  0  0  0  0  0  0  0
   -6.2400    0.6848    0.0017 N   0  0  0  0  0  0  0  0  0  0  0  0
   -7.6100    0.5173    0.4152 C   0  0  0  0  0  0  0  0  0  0  0  0
   -7.8363    0.5804    1.8845 C   0  0  0  0  0  0  0  0  0  0  0  0
   -6.7440    1.0838    2.6197 O   0  0  0  0  0  0  0  0  0  0  0  0
   -5.4300    0.9425    2.2429 C   0  0  0  0  0  0  0  0  0  0  0  0
   -4.3577    0.9904    3.1038 C   0  0  0  0  0  0  0  0  0  0  0  0
   -3.0688    0.8409    2.6561 C   0  0  0  0  0  0  0  0  0  0  0  0
   -2.7555    0.6301    1.3003 C   0  0  0  0  0  0  0  0  0  0  0  0
   -1.4032    0.5137    0.9228 N   0  0  0  0  0  0  0  0  0  0  0  0
   -0.9301   -0.1083   -0.2374 C   0  0  0  0  0  0  0  0  0  0  0  0
   -1.6787   -0.7157   -1.1781 N   0  0  0  0  0  0  0  0  0  0  0  0
   -1.1531   -1.2849   -2.2664 C   0  0  0  0  0  0  0  0  0  0  0  0
    0.1970   -1.2686   -2.4648 C   0  0  0  0  0  0  0  0  0  0  0  0
    0.8012   -1.8228   -3.5391 F   0  0  0  0  0  0  0  0  0  0  0  0
    1.0154   -0.6364   -1.4923 C   0  0  0  0  0  0  0  0  0  0  0  0
    2.4042   -0.6265   -1.6742 N   0  0  0  0  0  0  0  0  0  0  0  0
    3.3495   -0.0221   -0.8173 C   0  0  0  0  0  0  0  0  0  0  0  0
    3.0817    0.9848    0.0754 C   0  0  0  0  0  0  0  0  0  0  0  0
    4.0571    1.5341    0.9137 C   0  0  0  0  0  0  0  0  0  0  0  0
    5.3135    1.0112    0.7979 C   0  0  0  0  0  0  0  0  0  0  0  0
    5.6598   -0.0142   -0.0903 C   0  0  0  0  0  0  0  0  0  0  0  0
    7.0043   -0.4703   -0.1013 N   0  0  0  0  0  0  0  0  0  0  0  0
    7.6187   -1.2033   -1.1149 C   0  0  0  0  0  0  0  0  0  0  0  0
    7.0400   -1.5473   -2.1599 O   0  0  0  0  0  0  0  0  0  0  0  0
    9.0281   -1.6234   -1.0024 C   0  0  0  0  0  0  0  0  0  0  0  0
    9.5575   -2.3181   -1.9812 C   0  0  0  0  0  0  0  0  0  0  0  0
    4.6713   -0.5183   -0.8865 C   0  0  0  0  0  0  0  0  0  0  0  0
    0.4184   -0.0921   -0.4357 N   0  0  0  0  0  0  0  0  0  0  0  0
   -3.8274    0.5833    0.4435 C   0  0  0  0  0  0  0  0  0  0  0  0
   -5.1473    0.7383    0.9164 C   0  0  0  0  0  0  0  0  0  0  0  0
   -6.8343    1.1829   -1.9185 H   0  0  0  0  0  0  0  0  0  0  0  0
   -5.1284    1.5664   -1.5576 H   0  0  0  0  0  0  0  0  0  0  0  0
   -5.6167   -0.1506   -1.8358 H   0  0  0  0  0  0  0  0  0  0  0  0
   -7.9672   -0.4733    0.0093 H   0  0  0  0  0  0  0  0  0  0  0  0
   -8.2191    1.2670   -0.1391 H   0  0  0  0  0  0  0  0  0  0  0  0
   -8.6855    1.2841    2.0724 H   0  0  0  0  0  0  0  0  0  0  0  0
   -8.1380   -0.4141    2.2442 H   0  0  0  0  0  0  0  0  0  0  0  0
   -4.5864    1.1541    4.1606 H   0  0  0  0  0  0  0  0  0  0  0  0
   -2.2298    0.8800    3.3434 H   0  0  0  0  0  0  0  0  0  0  0  0
   -0.6907    0.9422    1.5861 H   0  0  0  0  0  0  0  0  0  0  0  0
   -1.7984   -1.7583   -2.9885 H   0  0  0  0  0  0  0  0  0  0  0  0
    2.7672   -1.1166   -2.5443 H   0  0  0  0  0  0  0  0  0  0  0  0
    2.1061    1.4378    0.1787 H   0  0  0  0  0  0  0  0  0  0  0  0
    3.8124    2.3316    1.6107 H   0  0  0  0  0  0  0  0  0  0  0  0
    6.1302    1.3984    1.4279 H   0  0  0  0  0  0  0  0  0  0  0  0
    7.6067   -0.2356    0.7458 H   0  0  0  0  0  0  0  0  0  0  0  0
    9.6091   -1.3744   -0.1494 H   0  0  0  0  0  0  0  0  0  0  0  0
    8.9977   -2.5858   -2.8490 H   0  0  0  0  0  0  0  0  0  0  0  0
   10.6105   -2.6319   -1.9322 H   0  0  0  0  0  0  0  0  0  0  0  0
    4.8521   -1.3171   -1.5842 H   0  0  0  0  0  0  0  0  0  0  0  0
   -3.7017    0.4423   -0.6190 H   0  0  0  0  0  0  0  0  0  0  0  0
  1  2  1  0
  2  3  1  0
  3  4  1  0
  4  5  1  0
  5  6  1  0
  6  7  2  0
  7  8  1  0
  8  9  2  0
  9 10  1  0
 10 11  1  0
 11 12  2  0
 12 13  1  0
 13 14  2  0
 14 15  1  0
 14 16  1  0
 16 17  1  0
 17 18  1  0
 18 19  2  0
 19 20  1  0
 20 21  2  0
 21 22  1  0
 22 23  1  0
 23 24  1  0
 24 25  2  0
 24 26  1  0
 26 27  2  3
 22 28  2  0
 16 29  2  0
  9 30  1  0
 30 31  2  0
 31  2  1  0
 31  6  1  0
 29 11  1  0
 28 18  1  0
  1 32  1  0
  1 33  1  0
  1 34  1  0
  3 35  1  0
  3 36  1  0
  4 37  1  0
  4 38  1  0
  7 39  1  0
  8 40  1  0
 10 41  1  0
 13 42  1  0
 17 43  1  0
 19 44  1  0
 20 45  1  0
 21 46  1  0
 23 47  1  0
 26 48  1  0
 27 49  1  0
 27 50  1  0
 28 51  1  0
 30 52  1  0
M  END
$$$$
[H]c1nc(N([H])c2c([H])c([H])c([H])c(Br)c2[H])c2c([H])c(OC([H])([H])C([H])([H])C([H])([H])OP(=O)(N([H])[H])N(C([H])([H])C([H])([H])Cl)C([H])([H])C([H])([H])Cl)c(OC([H])([H])[H])c([H])c2n1
     RDKit          3D

 62 64  0  0  0  0  0  0  0  0999 V2000
   -1.0424    3.4159    3.7084 C   0  0  0  0  0  0  0  0  0  0  0  0
   -0.7381    3.1708    2.3484 O   0  0  0  0  0  0  0  0  0  0  0  0
    0.2959    2.2555    2.0936 C   0  0  0  0  0  0  0  0  0  0  0  0
    0.9828    1.6262    3.0754 C   0  0  0  0  0  0  0  0  0  0  0  0
    1.9908    0.7352    2.7570 C   0  0  0  0  0  0  0  0  0  0  0  0
    2.6808    0.1041    3.7046 N   0  0  0  0  0  0  0  0  0  0  0  0
    3.6553   -0.7560    3.3525 C   0  0  0  0  0  0  0  0  0  0  0  0
    3.9470   -0.9914    2.0655 N   0  0  0  0  0  0  0  0  0  0  0  0
    3.3065   -0.4026    1.0372 C   0  0  0  0  0  0  0  0  0  0  0  0
    3.6495   -0.6394   -0.3037 N   0  0  0  0  0  0  0  0  0  0  0  0
    4.6533   -1.5852   -0.6510 C   0  0  0  0  0  0  0  0  0  0  0  0
    4.9125   -2.7343    0.0433 C   0  0  0  0  0  0  0  0  0  0  0  0
    5.9491   -3.5882   -0.3630 C   0  0  0  0  0  0  0  0  0  0  0  0
    6.7308   -3.3034   -1.4621 C   0  0  0  0  0  0  0  0  0  0  0  0
    6.4719   -2.1461   -2.1659 C   0  0  0  0  0  0  0  0  0  0  0  0
    7.5807   -1.7924   -3.6829 Br  0  0  0  0  0  0  0  0  0  0  0  0
    5.4711   -1.3236   -1.7706 C   0  0  0  0  0  0  0  0  0  0  0  0
    2.2952    0.4899    1.4164 C   0  0  0  0  0  0  0  0  0  0  0  0
    1.6013    1.1266    0.4100 C   0  0  0  0  0  0  0  0  0  0  0  0
    0.5919    2.0176    0.7354 C   0  0  0  0  0  0  0  0  0  0  0  0
   -0.1101    2.6573   -0.2296 O   0  0  0  0  0  0  0  0  0  0  0  0
   -0.0518    2.5846   -1.5783 C   0  0  0  0  0  0  0  0  0  0  0  0
   -0.4057    1.3224   -2.2777 C   0  0  0  0  0  0  0  0  0  0  0  0
   -1.8356    0.8801   -2.0115 C   0  0  0  0  0  0  0  0  0  0  0  0
   -2.0895   -0.3021   -2.6998 O   0  0  0  0  0  0  0  0  0  0  0  0
   -3.6390   -0.8661   -2.4907 P   0  0  0  0  0  0  0  0  0  0  0  0
   -3.6890   -2.5839   -2.7951 N   0  0  0  0  0  0  0  0  0  0  0  0
   -4.5113   -0.2068   -3.5632 O   0  0  0  0  0  0  0  0  0  0  0  0
   -4.3020   -0.4865   -0.8833 N   0  0  0  0  0  0  0  0  0  0  0  0
   -4.3252   -1.6170   -0.1272 C   0  0  0  0  0  0  0  0  0  0  0  0
   -3.7789   -1.7062    1.2496 C   0  0  0  0  0  0  0  0  0  0  0  0
   -4.0213   -3.4214    1.8025 Cl  0  0  0  0  0  0  0  0  0  0  0  0
   -4.9442    0.6907   -0.9006 C   0  0  0  0  0  0  0  0  0  0  0  0
   -4.8579    1.7861    0.0875 C   0  0  0  0  0  0  0  0  0  0  0  0
   -5.4577    1.4760    1.7073 Cl  0  0  0  0  0  0  0  0  0  0  0  0
   -1.1686    2.4510    4.2542 H   0  0  0  0  0  0  0  0  0  0  0  0
   -0.1336    3.8972    4.1700 H   0  0  0  0  0  0  0  0  0  0  0  0
   -1.9440    4.0377    3.8335 H   0  0  0  0  0  0  0  0  0  0  0  0
    0.7654    1.8009    4.1214 H   0  0  0  0  0  0  0  0  0  0  0  0
    4.2065   -1.2600    4.1265 H   0  0  0  0  0  0  0  0  0  0  0  0
    3.2163   -0.1615   -1.1431 H   0  0  0  0  0  0  0  0  0  0  0  0
    4.3200   -3.0335    0.9023 H   0  0  0  0  0  0  0  0  0  0  0  0
    6.1098   -4.4817    0.2241 H   0  0  0  0  0  0  0  0  0  0  0  0
    7.5160   -4.0059   -1.7224 H   0  0  0  0  0  0  0  0  0  0  0  0
    5.2897   -0.4230   -2.3406 H   0  0  0  0  0  0  0  0  0  0  0  0
    1.8447    0.9574   -0.6267 H   0  0  0  0  0  0  0  0  0  0  0  0
    1.0355    2.7901   -1.8757 H   0  0  0  0  0  0  0  0  0  0  0  0
   -0.5709    3.4742   -2.0654 H   0  0  0  0  0  0  0  0  0  0  0  0
    0.3243    0.5461   -2.1903 H   0  0  0  0  0  0  0  0  0  0  0  0
   -0.4217    1.5935   -3.3884 H   0  0  0  0  0  0  0  0  0  0  0  0
   -2.5243    1.6570   -2.3929 H   0  0  0  0  0  0  0  0  0  0  0  0
   -2.0518    0.7067   -0.9525 H   0  0  0  0  0  0  0  0  0  0  0  0
   -3.6416   -2.7081   -3.8454 H   0  0  0  0  0  0  0  0  0  0  0  0
   -2.8247   -2.9969   -2.3766 H   0  0  0  0  0  0  0  0  0  0  0  0
   -3.8283   -2.5208   -0.6686 H   0  0  0  0  0  0  0  0  0  0  0  0
   -5.4074   -2.0587   -0.0854 H   0  0  0  0  0  0  0  0  0  0  0  0
   -2.6535   -1.5723    1.2397 H   0  0  0  0  0  0  0  0  0  0  0  0
   -4.1573   -1.0905    2.0310 H   0  0  0  0  0  0  0  0  0  0  0  0
   -4.8058    1.1642   -1.9590 H   0  0  0  0  0  0  0  0  0  0  0  0
   -6.0949    0.4496   -1.0267 H   0  0  0  0  0  0  0  0  0  0  0  0
   -5.5179    2.6225   -0.3189 H   0  0  0  0  0  0  0  0  0  0  0  0
   -3.8483    2.2784    0.1055 H   0  0  0  0  0  0  0  0  0  0  0  0
  1  2  1  0
  2  3  1  0
  3  4  2  0
  4  5  1  0
  5  6  2  0
  6  7  1  0
  7  8  2  0
  8  9  1  0
  9 10  1  0
 10 11  1  0
 11 12  2  0
 12 13  1  0
 13 14  2  0
 14 15  1  0
 15 16  1  0
 15 17  2  0
  9 18  2  0
 18 19  1  0
 19 20  2  0
 20 21  1  0
 21 22  1  0
 22 23  1  0
 23 24  1  0
 24 25  1  0
 25 26  1  0
 26 27  1  0
 26 28  2  0
 26 29  1  0
 29 30  1  0
 30 31  1  0
 31 32  1  0
 29 33  1  0
 33 34  1  0
 34 35  1  0
 20  3  1  0
 18  5  1  0
 17 11  1  0
  1 36  1  0
  1 37  1  0
  1 38  1  0
  4 39  1  0
  7 40  1  0
 10 41  1  0
 12 42  1  0
 13 43  1  0
 14 44  1  0
 17 45  1  0
 19 46  1  0
 22 47  1  0
 22 48  1  0
 23 49  1  0
 23 50  1  0
 24 51  1  0
 24 52  1  0
 27 53  1  0
 27 54  1  0
 30 55  1  0
 30 56  1  0
 31 57  1  0
 31 58  1  0
 33 59  1  0
 33 60  1  0
 34 61  1  0
 34 62  1  0
M  END
$$$$
[H]Oc1c([H])c([H])c(N([H])c2nc([H])nc3c([H])c4oc(=O)n(C([H])([H])C([H])([H])C([H])([H])C(=O)OC([H])([H])C([H])([H])[H])c4c([H])c23)c([H])c1[H]
     RDKit          3D

 50 53  0  0  0  0  0  0  0  0999 V2000
   -4.1567    2.7998   -0.0454 C   0  0  0  0  0  0  0  0  0  0  0  0
   -4.4390    2.2486    1.3373 C   0  0  0  0  0  0  0  0  0  0  0  0
   -4.6248    0.8655    1.2692 O   0  0  0  0  0  0  0  0  0  0  0  0
   -3.6435    0.0089    0.8016 C   0  0  0  0  0  0  0  0  0  0  0  0
   -2.5564    0.4693    0.4266 O   0  0  0  0  0  0  0  0  0  0  0  0
   -3.9201   -1.4335    0.7625 C   0  0  0  0  0  0  0  0  0  0  0  0
   -2.8343   -2.2784    0.2007 C   0  0  0  0  0  0  0  0  0  0  0  0
   -2.4617   -2.0039   -1.2225 C   0  0  0  0  0  0  0  0  0  0  0  0
   -1.3866   -2.9203   -1.6278 N   0  0  0  0  0  0  0  0  0  0  0  0
   -0.0676   -2.6889   -1.5123 C   0  0  0  0  0  0  0  0  0  0  0  0
    0.6233   -1.5946   -1.0129 C   0  0  0  0  0  0  0  0  0  0  0  0
    1.9983   -1.5749   -0.9925 C   0  0  0  0  0  0  0  0  0  0  0  0
    2.7265   -0.4934   -0.5000 C   0  0  0  0  0  0  0  0  0  0  0  0
    2.0417    0.6198    0.0292 N   0  0  0  0  0  0  0  0  0  0  0  0
    2.6495    1.7843    0.5277 C   0  0  0  0  0  0  0  0  0  0  0  0
    3.8773    2.2186    0.1552 C   0  0  0  0  0  0  0  0  0  0  0  0
    4.4524    3.3782    0.7105 C   0  0  0  0  0  0  0  0  0  0  0  0
    3.7457    4.0819    1.6516 C   0  0  0  0  0  0  0  0  0  0  0  0
    4.3271    5.2219    2.1885 O   0  0  0  0  0  0  0  0  0  0  0  0
    2.4805    3.6580    2.0522 C   0  0  0  0  0  0  0  0  0  0  0  0
    1.9747    2.5233    1.4770 C   0  0  0  0  0  0  0  0  0  0  0  0
    4.0580   -0.6055   -0.5413 N   0  0  0  0  0  0  0  0  0  0  0  0
    4.7251   -1.6714   -1.0169 C   0  0  0  0  0  0  0  0  0  0  0  0
    4.0182   -2.7117   -1.4904 N   0  0  0  0  0  0  0  0  0  0  0  0
    2.6760   -2.6945   -1.4921 C   0  0  0  0  0  0  0  0  0  0  0  0
    1.9759   -3.7691   -1.9828 C   0  0  0  0  0  0  0  0  0  0  0  0
    0.5998   -3.7886   -2.0030 C   0  0  0  0  0  0  0  0  0  0  0  0
   -0.3137   -4.6411   -2.3954 O   0  0  0  0  0  0  0  0  0  0  0  0
   -1.5137   -4.1370   -2.1780 C   0  0  0  0  0  0  0  0  0  0  0  0
   -2.5964   -4.7114   -2.4463 O   0  0  0  0  0  0  0  0  0  0  0  0
   -4.0359    2.0047   -0.8081 H   0  0  0  0  0  0  0  0  0  0  0  0
   -5.0180    3.4198   -0.4018 H   0  0  0  0  0  0  0  0  0  0  0  0
   -3.2414    3.4328    0.0106 H   0  0  0  0  0  0  0  0  0  0  0  0
   -5.4110    2.6796    1.7181 H   0  0  0  0  0  0  0  0  0  0  0  0
   -3.6799    2.5566    2.0849 H   0  0  0  0  0  0  0  0  0  0  0  0
   -4.1293   -1.7312    1.8337 H   0  0  0  0  0  0  0  0  0  0  0  0
   -4.8941   -1.5527    0.2296 H   0  0  0  0  0  0  0  0  0  0  0  0
   -1.9123   -2.0693    0.8220 H   0  0  0  0  0  0  0  0  0  0  0  0
   -3.0398   -3.3652    0.3440 H   0  0  0  0  0  0  0  0  0  0  0  0
   -3.3358   -2.1808   -1.9136 H   0  0  0  0  0  0  0  0  0  0  0  0
   -2.1131   -0.9971   -1.4301 H   0  0  0  0  0  0  0  0  0  0  0  0
    0.0302   -0.7626   -0.6443 H   0  0  0  0  0  0  0  0  0  0  0  0
    0.9713    0.6266    0.0747 H   0  0  0  0  0  0  0  0  0  0  0  0
    4.4988    1.7499   -0.5845 H   0  0  0  0  0  0  0  0  0  0  0  0
    5.4223    3.7314    0.4249 H   0  0  0  0  0  0  0  0  0  0  0  0
    4.1649    6.0953    1.7404 H   0  0  0  0  0  0  0  0  0  0  0  0
    1.9840    4.2579    2.7935 H   0  0  0  0  0  0  0  0  0  0  0  0
    0.9922    2.2083    1.7993 H   0  0  0  0  0  0  0  0  0  0  0  0
    5.7995   -1.6447   -0.9975 H   0  0  0  0  0  0  0  0  0  0  0  0
    2.5122   -4.6195   -2.3621 H   0  0  0  0  0  0  0  0  0  0  0  0
  1  2  1  0
  2  3  1  0
  3  4  1  0
  4  5  2  0
  4  6  1  0
  6  7  1  0
  7  8  1  0
  8  9  1  0
  9 10  1  0
 10 11  2  0
 11 12  1  0
 12 13  2  0
 13 14  1  0
 14 15  1  0
 15 16  2  0
 16 17  1  0
 17 18  2  0
 18 19  1  0
 18 20  1  0
 20 21  2  0
 13 22  1  0
 22 23  2  0
 23 24  1  0
 24 25  2  0
 25 26  1  0
 26 27  2  0
 27 28  1  0
 28 29  1  0
 29 30  2  0
 29  9  1  0
 27 10  1  0
 25 12  1  0
 21 15  1  0
  1 31  1  0
  1 32  1  0
  1 33  1  0
  2 34  1  0
  2 35  1  0
  6 36  1  0
  6 37  1  0
  7 38  1  0
  7 39  1  0
  8 40  1  0
  8 41  1  0
 11 42  1  0
 14 43  1  0
 16 44  1  0
 17 45  1  0
 19 46  1  0
 20 47  1  0
 21 48  1  0
 23 49  1  0
 26 50  1  0
M  END
$$$$
[H]c1nc(N([H])c2c([H])c([H])c(F)c(Cl)c2[H])c2c([H])c(OC([H])([H])[H])c(OC([H])([H])C([H])([H])C([H])([H])C([H])([H])n3c([N+](=O)[O-])nc([H])c3[H])c([H])c2n1
     RDKit          3D

 54 57  0  0  0  0  0  0  0  0999 V2000
   -0.8754   -3.3143   -1.3726 C   0  0  0  0  0  0  0  0  0  0  0  0
   -0.0021   -2.5539   -0.5557 O   0  0  0  0  0  0  0  0  0  0  0  0
   -0.4351   -1.4018    0.0617 C   0  0  0  0  0  0  0  0  0  0  0  0
   -1.7287   -0.9739   -0.1092 C   0  0  0  0  0  0  0  0  0  0  0  0
   -2.1956    0.1710    0.4913 C   0  0  0  0  0  0  0  0  0  0  0  0
   -3.5020    0.6047    0.3180 C   0  0  0  0  0  0  0  0  0  0  0  0
   -4.4564   -0.0942   -0.4511 N   0  0  0  0  0  0  0  0  0  0  0  0
   -5.7924    0.2855   -0.7054 C   0  0  0  0  0  0  0  0  0  0  0  0
   -6.2998    1.5558   -0.6426 C   0  0  0  0  0  0  0  0  0  0  0  0
   -7.6585    1.7939   -0.8899 C   0  0  0  0  0  0  0  0  0  0  0  0
   -8.5149    0.7616   -1.2018 C   0  0  0  0  0  0  0  0  0  0  0  0
   -9.8187    0.9707   -1.4416 F   0  0  0  0  0  0  0  0  0  0  0  0
   -8.0324   -0.5237   -1.2725 C   0  0  0  0  0  0  0  0  0  0  0  0
   -9.0901   -1.8833   -1.6694 Cl  0  0  0  0  0  0  0  0  0  0  0  0
   -6.7084   -0.7295   -1.0276 C   0  0  0  0  0  0  0  0  0  0  0  0
   -3.8130    1.7400    0.9655 N   0  0  0  0  0  0  0  0  0  0  0  0
   -2.9627    2.4387    1.7333 C   0  0  0  0  0  0  0  0  0  0  0  0
   -1.7049    1.9918    1.8809 N   0  0  0  0  0  0  0  0  0  0  0  0
   -1.2936    0.8584    1.2701 C   0  0  0  0  0  0  0  0  0  0  0  0
    0.0149    0.4321    1.4480 C   0  0  0  0  0  0  0  0  0  0  0  0
    0.4903   -0.7051    0.8542 C   0  0  0  0  0  0  0  0  0  0  0  0
    1.7719   -1.1967    0.9728 O   0  0  0  0  0  0  0  0  0  0  0  0
    2.8699   -0.7078    1.6303 C   0  0  0  0  0  0  0  0  0  0  0  0
    3.3267    0.5957    1.0165 C   0  0  0  0  0  0  0  0  0  0  0  0
    4.5252    1.1251    1.7103 C   0  0  0  0  0  0  0  0  0  0  0  0
    5.8251    0.3789    1.5747 C   0  0  0  0  0  0  0  0  0  0  0  0
    6.2844    0.3796    0.2041 N   0  0  0  0  0  0  0  0  0  0  0  0
    6.7438    1.5554   -0.3636 C   0  0  0  0  0  0  0  0  0  0  0  0
    6.9947    1.3213   -1.6890 C   0  0  0  0  0  0  0  0  0  0  0  0
    6.7097    0.0593   -1.9457 N   0  0  0  0  0  0  0  0  0  0  0  0
    6.2729   -0.5084   -0.7544 C   0  0  0  0  0  0  0  0  0  0  0  0
    6.0100   -1.9074   -0.6904 N   0  0  0  0  0  0  0  0  0  0  0  0
    5.7864   -2.5149    0.5021 O   0  0  0  0  0  0  0  0  0  0  0  0
    5.9784   -2.5948   -1.7434 O   0  0  0  0  0  0  0  0  0  0  0  0
   -1.6032   -3.8799   -0.7472 H   0  0  0  0  0  0  0  0  0  0  0  0
   -0.3218   -4.0587   -1.9752 H   0  0  0  0  0  0  0  0  0  0  0  0
   -1.4328   -2.6845   -2.1005 H   0  0  0  0  0  0  0  0  0  0  0  0
   -2.4220   -1.5381   -0.7339 H   0  0  0  0  0  0  0  0  0  0  0  0
   -4.1517   -1.0142   -0.9012 H   0  0  0  0  0  0  0  0  0  0  0  0
   -5.6569    2.4160   -0.4159 H   0  0  0  0  0  0  0  0  0  0  0  0
   -8.0250    2.8082   -0.8312 H   0  0  0  0  0  0  0  0  0  0  0  0
   -6.3456   -1.7680   -1.0896 H   0  0  0  0  0  0  0  0  0  0  0  0
   -3.2538    3.3578    2.2436 H   0  0  0  0  0  0  0  0  0  0  0  0
    0.6770    0.9944    2.0899 H   0  0  0  0  0  0  0  0  0  0  0  0
    3.6535   -1.4604    1.7175 H   0  0  0  0  0  0  0  0  0  0  0  0
    2.4911   -0.4713    2.6986 H   0  0  0  0  0  0  0  0  0  0  0  0
    3.5914    0.3272   -0.0604 H   0  0  0  0  0  0  0  0  0  0  0  0
    2.5445    1.3595    0.9104 H   0  0  0  0  0  0  0  0  0  0  0  0
    4.3350    1.2627    2.8094 H   0  0  0  0  0  0  0  0  0  0  0  0
    4.6944    2.1667    1.3301 H   0  0  0  0  0  0  0  0  0  0  0  0
    6.5814    0.8451    2.2543 H   0  0  0  0  0  0  0  0  0  0  0  0
    5.6676   -0.6335    1.9948 H   0  0  0  0  0  0  0  0  0  0  0  0
    6.8908    2.4997    0.1133 H   0  0  0  0  0  0  0  0  0  0  0  0
    7.3666    2.0614   -2.4001 H   0  0  0  0  0  0  0  0  0  0  0  0
  1  2  1  0
  2  3  1  0
  3  4  2  0
  4  5  1  0
  5  6  2  0
  6  7  1  0
  7  8  1  0
  8  9  2  0
  9 10  1  0
 10 11  2  0
 11 12  1  0
 11 13  1  0
 13 14  1  0
 13 15  2  0
  6 16  1  0
 16 17  2  0
 17 18  1  0
 18 19  2  0
 19 20  1  0
 20 21  2  0
 21 22  1  0
 22 23  1  0
 23 24  1  0
 24 25  1  0
 25 26  1  0
 26 27  1  0
 27 28  1  0
 28 29  2  0
 29 30  1  0
 30 31  2  0
 31 32  1  0
 32 33  1  0
 32 34  2  0
 21  3  1  0
 31 27  1  0
 19  5  1  0
 15  8  1  0
  1 35  1  0
  1 36  1  0
  1 37  1  0
  4 38  1  0
  7 39  1  0
  9 40  1  0
 10 41  1  0
 15 42  1  0
 17 43  1  0
 20 44  1  0
 23 45  1  0
 23 46  1  0
 24 47  1  0
 24 48  1  0
 25 49  1  0
 25 50  1  0
 26 51  1  0
 26 52  1  0
 28 53  1  0
 29 54  1  0
M  CHG  2  32   1  33  -1
M  END
$$$$
[H]C#CC([H])([H])Oc1c(N([H])C(=O)C([H])=C([H])[H])c([H])c2c(N([H])c3c([H])c([H])c(F)c(Cl)c3[H])nc([H])nc2c1[H]
     RDKit          3D

 42 44  0  0  0  0  0  0  0  0999 V2000
    7.7090    1.5107   -0.2529 F   0  0  0  0  0  0  0  0  0  0  0  0
    6.3725    1.1994   -0.1746 C   0  0  0  0  0  0  0  0  0  0  0  0
    5.4438    2.0707   -0.6554 C   0  0  0  0  0  0  0  0  0  0  0  0
    4.1077    1.7567   -0.5767 C   0  0  0  0  0  0  0  0  0  0  0  0
    3.6297    0.5638   -0.0175 C   0  0  0  0  0  0  0  0  0  0  0  0
    2.2272    0.3717    0.0261 N   0  0  0  0  0  0  0  0  0  0  0  0
    1.5493   -0.8692    0.0661 C   0  0  0  0  0  0  0  0  0  0  0  0
    2.2343   -2.0442   -0.0037 N   0  0  0  0  0  0  0  0  0  0  0  0
    1.6580   -3.2480   -0.0016 C   0  0  0  0  0  0  0  0  0  0  0  0
    0.3229   -3.3541    0.0725 N   0  0  0  0  0  0  0  0  0  0  0  0
   -0.4328   -2.2492    0.1448 C   0  0  0  0  0  0  0  0  0  0  0  0
   -1.8062   -2.3337    0.2234 C   0  0  0  0  0  0  0  0  0  0  0  0
   -2.5698   -1.1994    0.2984 C   0  0  0  0  0  0  0  0  0  0  0  0
   -3.9449   -1.2085    0.3800 O   0  0  0  0  0  0  0  0  0  0  0  0
   -4.7798   -2.3191    0.3893 C   0  0  0  0  0  0  0  0  0  0  0  0
   -4.6517   -3.0669   -0.8338 C   0  0  0  0  0  0  0  0  0  0  0  0
   -4.5652   -3.6961   -1.8763 C   0  0  0  0  0  0  0  0  0  0  0  0
   -1.9729    0.0823    0.2977 C   0  0  0  0  0  0  0  0  0  0  0  0
   -2.8020    1.2338    0.3775 N   0  0  0  0  0  0  0  0  0  0  0  0
   -2.4569    2.5758    0.3924 C   0  0  0  0  0  0  0  0  0  0  0  0
   -1.2998    3.0025    0.3349 O   0  0  0  0  0  0  0  0  0  0  0  0
   -3.5081    3.6044    0.4822 C   0  0  0  0  0  0  0  0  0  0  0  0
   -3.2163    4.9070    0.4993 C   0  0  0  0  0  0  0  0  0  0  0  0
   -0.5998    0.1328    0.2183 C   0  0  0  0  0  0  0  0  0  0  0  0
    0.1898   -0.9930    0.1414 C   0  0  0  0  0  0  0  0  0  0  0  0
    4.5943   -0.2804    0.4531 C   0  0  0  0  0  0  0  0  0  0  0  0
    5.9537    0.0257    0.3791 C   0  0  0  0  0  0  0  0  0  0  0  0
    7.1204   -1.1047    1.0009 Cl  0  0  0  0  0  0  0  0  0  0  0  0
    5.8044    2.9962   -1.0898 H   0  0  0  0  0  0  0  0  0  0  0  0
    3.3880    2.4597   -0.9639 H   0  0  0  0  0  0  0  0  0  0  0  0
    1.6515    1.2750    0.0291 H   0  0  0  0  0  0  0  0  0  0  0  0
    2.2427   -4.1762   -0.0593 H   0  0  0  0  0  0  0  0  0  0  0  0
   -2.2838   -3.2984    0.2348 H   0  0  0  0  0  0  0  0  0  0  0  0
   -5.8398   -2.0264    0.5395 H   0  0  0  0  0  0  0  0  0  0  0  0
   -4.5371   -3.0148    1.2342 H   0  0  0  0  0  0  0  0  0  0  0  0
   -4.4833   -4.2519   -2.7678 H   0  0  0  0  0  0  0  0  0  0  0  0
   -3.8693    1.0324    0.4356 H   0  0  0  0  0  0  0  0  0  0  0  0
   -4.5286    3.2542    0.5336 H   0  0  0  0  0  0  0  0  0  0  0  0
   -4.0234    5.5918    0.5654 H   0  0  0  0  0  0  0  0  0  0  0  0
   -2.1844    5.2043    0.4458 H   0  0  0  0  0  0  0  0  0  0  0  0
   -0.1302    1.0979    0.2193 H   0  0  0  0  0  0  0  0  0  0  0  0
    4.2871   -1.2147    0.9167 H   0  0  0  0  0  0  0  0  0  0  0  0
  1  2  1  0
  2  3  2  0
  3  4  1  0
  4  5  2  0
  5  6  1  0
  6  7  1  0
  7  8  2  0
  8  9  1  0
  9 10  2  0
 10 11  1  0
 11 12  2  0
 12 13  1  0
 13 14  1  0
 14 15  1  0
 15 16  1  0
 16 17  3  0
 13 18  2  0
 18 19  1  0
 19 20  1  0
 20 21  2  0
 20 22  1  0
 22 23  2  3
 18 24  1  0
 24 25  2  0
  5 26  1  0
 26 27  2  0
 27 28  1  0
 27  2  1  0
 25  7  1  0
 25 11  1  0
  3 29  1  0
  4 30  1  0
  6 31  1  0
  9 32  1  0
 12 33  1  0
 15 34  1  0
 15 35  1  0
 17 36  1  0
 19 37  1  0
 22 38  1  0
 23 39  1  0
 23 40  1  0
 24 41  1  0
 26 42  1  0
M  END
$$$$
[H]C([H])=C([H])C(=O)N([H])c1c(OC([H])([H])C([H])([H])N([H])C(=O)C([H])([H])C([H])([H])C([H])([H])[H])c([H])c2nc([H])nc(N([H])c3c([H])c([H])c(Br)c([H])c3F)c2c1[H]
     RDKit          3D

 56 58  0  0  0  0  0  0  0  0999 V2000
    8.6255   -0.6248   -0.3094 C   0  0  0  0  0  0  0  0  0  0  0  0
    7.8055   -0.0008   -1.4187 C   0  0  0  0  0  0  0  0  0  0  0  0
    6.3467   -0.4000   -1.3210 C   0  0  0  0  0  0  0  0  0  0  0  0
    5.7556    0.0272   -0.0433 C   0  0  0  0  0  0  0  0  0  0  0  0
    6.4836    0.6397    0.7783 O   0  0  0  0  0  0  0  0  0  0  0  0
    4.4058   -0.2125    0.3181 N   0  0  0  0  0  0  0  0  0  0  0  0
    3.8628    0.2154    1.5668 C   0  0  0  0  0  0  0  0  0  0  0  0
    2.4200   -0.1353    1.7535 C   0  0  0  0  0  0  0  0  0  0  0  0
    1.5747    0.4177    0.7932 O   0  0  0  0  0  0  0  0  0  0  0  0
    0.2148    0.1578    0.8692 C   0  0  0  0  0  0  0  0  0  0  0  0
   -0.2925   -0.6306    1.8723 C   0  0  0  0  0  0  0  0  0  0  0  0
   -1.6441   -0.9137    1.9826 C   0  0  0  0  0  0  0  0  0  0  0  0
   -2.1083   -1.6883    2.9745 N   0  0  0  0  0  0  0  0  0  0  0  0
   -3.4470   -1.9462    3.0512 C   0  0  0  0  0  0  0  0  0  0  0  0
   -4.2928   -1.4460    2.1657 N   0  0  0  0  0  0  0  0  0  0  0  0
   -3.8844   -0.6679    1.1570 C   0  0  0  0  0  0  0  0  0  0  0  0
   -4.7445   -0.1128    0.2010 N   0  0  0  0  0  0  0  0  0  0  0  0
   -6.1501   -0.2891    0.1396 C   0  0  0  0  0  0  0  0  0  0  0  0
   -6.8674   -1.0625    1.0036 C   0  0  0  0  0  0  0  0  0  0  0  0
   -8.2588   -1.1564    0.8293 C   0  0  0  0  0  0  0  0  0  0  0  0
   -8.9376   -0.5086   -0.1684 C   0  0  0  0  0  0  0  0  0  0  0  0
  -10.8371   -0.6826   -0.3459 Br  0  0  0  0  0  0  0  0  0  0  0  0
   -8.2239    0.2764   -1.0485 C   0  0  0  0  0  0  0  0  0  0  0  0
   -6.8704    0.3696   -0.8813 C   0  0  0  0  0  0  0  0  0  0  0  0
   -6.2027    1.1476   -1.7614 F   0  0  0  0  0  0  0  0  0  0  0  0
   -2.5096   -0.3880    1.0568 C   0  0  0  0  0  0  0  0  0  0  0  0
   -1.9836    0.4155    0.0364 C   0  0  0  0  0  0  0  0  0  0  0  0
   -0.6474    0.7078   -0.0903 C   0  0  0  0  0  0  0  0  0  0  0  0
   -0.0561    1.5077   -1.0920 N   0  0  0  0  0  0  0  0  0  0  0  0
   -0.6549    2.1791   -2.1656 C   0  0  0  0  0  0  0  0  0  0  0  0
   -1.8979    2.1141   -2.3378 O   0  0  0  0  0  0  0  0  0  0  0  0
    0.1407    2.9587   -3.0958 C   0  0  0  0  0  0  0  0  0  0  0  0
    1.4337    3.1424   -3.0803 C   0  0  0  0  0  0  0  0  0  0  0  0
    8.9269    0.1174    0.4424 H   0  0  0  0  0  0  0  0  0  0  0  0
    9.5560   -1.0985   -0.6852 H   0  0  0  0  0  0  0  0  0  0  0  0
    8.0464   -1.4375    0.1862 H   0  0  0  0  0  0  0  0  0  0  0  0
    7.8268    1.1146   -1.2559 H   0  0  0  0  0  0  0  0  0  0  0  0
    8.2303   -0.2138   -2.4091 H   0  0  0  0  0  0  0  0  0  0  0  0
    5.8356    0.0262   -2.2077 H   0  0  0  0  0  0  0  0  0  0  0  0
    6.3271   -1.5177   -1.4461 H   0  0  0  0  0  0  0  0  0  0  0  0
    3.8212   -0.7224   -0.3800 H   0  0  0  0  0  0  0  0  0  0  0  0
    4.0401    1.2897    1.7847 H   0  0  0  0  0  0  0  0  0  0  0  0
    4.4303   -0.3343    2.3742 H   0  0  0  0  0  0  0  0  0  0  0  0
    2.1025    0.2940    2.7478 H   0  0  0  0  0  0  0  0  0  0  0  0
    2.2592   -1.2233    1.8475 H   0  0  0  0  0  0  0  0  0  0  0  0
    0.3431   -1.0749    2.6343 H   0  0  0  0  0  0  0  0  0  0  0  0
   -3.8199   -2.5679    3.8472 H   0  0  0  0  0  0  0  0  0  0  0  0
   -4.3604    0.5080   -0.5759 H   0  0  0  0  0  0  0  0  0  0  0  0
   -6.4708   -1.6274    1.8279 H   0  0  0  0  0  0  0  0  0  0  0  0
   -8.8267   -1.7681    1.5126 H   0  0  0  0  0  0  0  0  0  0  0  0
   -8.7759    0.7760   -1.8240 H   0  0  0  0  0  0  0  0  0  0  0  0
   -2.6524    0.8251   -0.6849 H   0  0  0  0  0  0  0  0  0  0  0  0
    1.0157    1.6394   -1.0499 H   0  0  0  0  0  0  0  0  0  0  0  0
   -0.3949    3.4615   -3.9181 H   0  0  0  0  0  0  0  0  0  0  0  0
    1.9449    3.7597   -3.8421 H   0  0  0  0  0  0  0  0  0  0  0  0
    2.0366    2.6907   -2.3154 H   0  0  0  0  0  0  0  0  0  0  0  0
  1  2  1  0
  2  3  1  0
  3  4  1  0
  4  5  2  0
  4  6  1  0
  6  7  1  0
  7  8  1  0
  8  9  1  0
  9 10  1  0
 10 11  2  0
 11 12  1  0
 12 13  2  0
 13 14  1  0
 14 15  2  0
 15 16  1  0
 16 17  1  0
 17 18  1  0
 18 19  2  0
 19 20  1  0
 20 21  2  0
 21 22  1  0
 21 23  1  0
 23 24  2  0
 24 25  1  0
 16 26  2  0
 26 27  1  0
 27 28  2  0
 28 29  1  0
 29 30  1  0
 30 31  2  0
 30 32  1  0
 32 33  2  3
 28 10  1  0
 26 12  1  0
 24 18  1  0
  1 34  1  0
  1 35  1  0
  1 36  1  0
  2 37  1  0
  2 38  1  0
  3 39  1  0
  3 40  1  0
  6 41  1  0
  7 42  1  0
  7 43  1  0
  8 44  1  0
  8 45  1  0
 11 46  1  0
 14 47  1  0
 17 48  1  0
 19 49  1  0
 20 50  1  0
 23 51  1  0
 27 52  1  0
 29 53  1  0
 32 54  1  0
 33 55  1  0
 33 56  1  0
M  END
$$$$
