[H]c1nc([H])c(-c2nc(-c3c([H])c([H])c([H])c([H])c3F)nc3c([H])c(OC([H])([H])[H])c(OC([H])([H])[H])c([H])c23)c([H])c1[H]
     RDKit          3D

 43 46  0  0  0  0  0  0  0  0999 V2000
    3.4532   -4.2437    0.5688 C   0  0  0  0  0  0  0  0  0  0  0  0
    3.7222   -2.8617    0.5641 O   0  0  0  0  0  0  0  0  0  0  0  0
    2.7261   -1.9052    0.4307 C   0  0  0  0  0  0  0  0  0  0  0  0
    1.3987   -2.2355    0.2928 C   0  0  0  0  0  0  0  0  0  0  0  0
    0.4325   -1.2541    0.1626 C   0  0  0  0  0  0  0  0  0  0  0  0
   -0.8738   -1.6250    0.0116 N   0  0  0  0  0  0  0  0  0  0  0  0
   -1.8222   -0.6903   -0.1310 C   0  0  0  0  0  0  0  0  0  0  0  0
   -1.4758    0.5976   -0.1225 N   0  0  0  0  0  0  0  0  0  0  0  0
   -0.1959    1.0281    0.0246 C   0  0  0  0  0  0  0  0  0  0  0  0
    0.0934    2.4532    0.0145 C   0  0  0  0  0  0  0  0  0  0  0  0
   -0.3684    3.1543   -1.0779 C   0  0  0  0  0  0  0  0  0  0  0  0
   -0.1966    4.5180   -1.1557 C   0  0  0  0  0  0  0  0  0  0  0  0
    0.4423    5.1415   -0.1194 C   0  0  0  0  0  0  0  0  0  0  0  0
    0.8873    4.4497    0.9386 N   0  0  0  0  0  0  0  0  0  0  0  0
    0.7225    3.1292    1.0172 C   0  0  0  0  0  0  0  0  0  0  0  0
    0.7994    0.0825    0.1709 C   0  0  0  0  0  0  0  0  0  0  0  0
    2.1252    0.4257    0.3069 C   0  0  0  0  0  0  0  0  0  0  0  0
    3.0655   -0.5714    0.4348 C   0  0  0  0  0  0  0  0  0  0  0  0
    4.3901   -0.2102    0.5713 O   0  0  0  0  0  0  0  0  0  0  0  0
    4.7795    1.1308    0.5810 C   0  0  0  0  0  0  0  0  0  0  0  0
   -3.2404   -1.0553   -0.2972 C   0  0  0  0  0  0  0  0  0  0  0  0
   -4.1777   -0.0740   -0.4397 C   0  0  0  0  0  0  0  0  0  0  0  0
   -5.5185   -0.3845   -0.5977 C   0  0  0  0  0  0  0  0  0  0  0  0
   -5.9498   -1.6981   -0.6161 C   0  0  0  0  0  0  0  0  0  0  0  0
   -4.9928   -2.6788   -0.4712 C   0  0  0  0  0  0  0  0  0  0  0  0
   -3.6449   -2.3722   -0.3121 C   0  0  0  0  0  0  0  0  0  0  0  0
   -2.7530   -3.3569   -0.1751 F   0  0  0  0  0  0  0  0  0  0  0  0
    4.3867   -4.7599    0.2616 H   0  0  0  0  0  0  0  0  0  0  0  0
    2.6904   -4.4960   -0.1851 H   0  0  0  0  0  0  0  0  0  0  0  0
    3.1729   -4.6243    1.5730 H   0  0  0  0  0  0  0  0  0  0  0  0
    1.0825   -3.2949    0.2839 H   0  0  0  0  0  0  0  0  0  0  0  0
   -0.8830    2.6562   -1.9140 H   0  0  0  0  0  0  0  0  0  0  0  0
   -0.5616    5.0862   -2.0235 H   0  0  0  0  0  0  0  0  0  0  0  0
    0.5826    6.2321   -0.1764 H   0  0  0  0  0  0  0  0  0  0  0  0
    1.0956    2.6000    1.9033 H   0  0  0  0  0  0  0  0  0  0  0  0
    2.4028    1.4674    0.2904 H   0  0  0  0  0  0  0  0  0  0  0  0
    4.6203    1.5645   -0.4296 H   0  0  0  0  0  0  0  0  0  0  0  0
    4.1523    1.7157    1.3082 H   0  0  0  0  0  0  0  0  0  0  0  0
    5.8288    1.2812    0.8899 H   0  0  0  0  0  0  0  0  0  0  0  0
   -3.8439    0.9701   -0.4262 H   0  0  0  0  0  0  0  0  0  0  0  0
   -6.2378    0.3960   -0.7078 H   0  0  0  0  0  0  0  0  0  0  0  0
   -6.9863   -1.9722   -0.7374 H   0  0  0  0  0  0  0  0  0  0  0  0
   -5.3300   -3.7157   -0.4853 H   0  0  0  0  0  0  0  0  0  0  0  0
  1  2  1  0
  2  3  1  0
  3  4  2  0
  4  5  1  0
  5  6  2  0
  6  7  1  0
  7  8  2  0
  8  9  1  0
  9 10  1  0
 10 11  2  0
 11 12  1  0
 12 13  2  0
 13 14  1  0
 14 15  2  0
  9 16  2  0
 16 17  1  0
 17 18  2  0
 18 19  1  0
 19 20  1  0
  7 21  1  0
 21 22  2  0
 22 23  1  0
 23 24  2  0
 24 25  1  0
 25 26  2  0
 26 27  1  0
 18  3  1  0
 26 21  1  0
 16  5  1  0
 15 10  1  0
  1 28  1  0
  1 29  1  0
  1 30  1  0
  4 31  1  0
 11 32  1  0
 12 33  1  0
 13 34  1  0
 15 35  1  0
 17 36  1  0
 20 37  1  0
 20 38  1  0
 20 39  1  0
 22 40  1  0
 23 41  1  0
 24 42  1  0
 25 43  1  0
M  END
$$$$
[H]c1c(OC([H])([H])[H])c([H])c2c(C([H])([H])C([H])([H])n3c([H])c([H])c([H])c3C#N)c([H])n([H])c2c1[H]
     RDKit          3D

 35 37  0  0  0  0  0  0  0  0999 V2000
    4.4202    2.8683   -0.9019 C   0  0  0  0  0  0  0  0  0  0  0  0
    3.1823    2.4246   -0.4416 O   0  0  0  0  0  0  0  0  0  0  0  0
    2.8611    1.0775   -0.3980 C   0  0  0  0  0  0  0  0  0  0  0  0
    3.7652    0.1276   -0.8117 C   0  0  0  0  0  0  0  0  0  0  0  0
    3.5179   -1.2287   -0.7982 C   0  0  0  0  0  0  0  0  0  0  0  0
    2.2805   -1.6539   -0.3385 C   0  0  0  0  0  0  0  0  0  0  0  0
    1.7419   -2.8742   -0.2032 N   0  0  0  0  0  0  0  0  0  0  0  0
    0.5053   -2.7313    0.2908 C   0  0  0  0  0  0  0  0  0  0  0  0
    0.2400   -1.4005    0.4779 C   0  0  0  0  0  0  0  0  0  0  0  0
   -1.0389   -0.8391    1.0130 C   0  0  0  0  0  0  0  0  0  0  0  0
   -1.7988   -0.2786   -0.1537 C   0  0  0  0  0  0  0  0  0  0  0  0
   -3.0737    0.2995    0.2479 N   0  0  0  0  0  0  0  0  0  0  0  0
   -3.2255    1.5996    0.6145 C   0  0  0  0  0  0  0  0  0  0  0  0
   -4.5227    1.8401    0.9353 C   0  0  0  0  0  0  0  0  0  0  0  0
   -5.2259    0.6670    0.7722 C   0  0  0  0  0  0  0  0  0  0  0  0
   -4.2679   -0.2578    0.3419 C   0  0  0  0  0  0  0  0  0  0  0  0
   -4.5905   -1.6205    0.0536 C   0  0  0  0  0  0  0  0  0  0  0  0
   -4.8554   -2.7108   -0.1581 N   0  0  0  0  0  0  0  0  0  0  0  0
    1.3623   -0.7282    0.0795 C   0  0  0  0  0  0  0  0  0  0  0  0
    1.6394    0.6208    0.0539 C   0  0  0  0  0  0  0  0  0  0  0  0
    5.1780    2.7652   -0.0958 H   0  0  0  0  0  0  0  0  0  0  0  0
    4.4084    3.9541   -1.1891 H   0  0  0  0  0  0  0  0  0  0  0  0
    4.6951    2.3366   -1.8326 H   0  0  0  0  0  0  0  0  0  0  0  0
    4.7446    0.4149   -1.1786 H   0  0  0  0  0  0  0  0  0  0  0  0
    4.2442   -1.9389   -1.1272 H   0  0  0  0  0  0  0  0  0  0  0  0
    2.2231   -3.7928   -0.4493 H   0  0  0  0  0  0  0  0  0  0  0  0
   -0.2053   -3.5320    0.5194 H   0  0  0  0  0  0  0  0  0  0  0  0
   -1.5691   -1.6776    1.4999 H   0  0  0  0  0  0  0  0  0  0  0  0
   -0.8196   -0.0717    1.7840 H   0  0  0  0  0  0  0  0  0  0  0  0
   -1.9309   -1.0790   -0.9048 H   0  0  0  0  0  0  0  0  0  0  0  0
   -1.1781    0.5026   -0.6256 H   0  0  0  0  0  0  0  0  0  0  0  0
   -2.4127    2.3224    0.6392 H   0  0  0  0  0  0  0  0  0  0  0  0
   -4.9166    2.7924    1.2605 H   0  0  0  0  0  0  0  0  0  0  0  0
   -6.2820    0.4930    0.9379 H   0  0  0  0  0  0  0  0  0  0  0  0
    0.9043    1.3091    0.3854 H   0  0  0  0  0  0  0  0  0  0  0  0
  1  2  1  0
  2  3  1  0
  3  4  2  0
  4  5  1  0
  5  6  2  0
  6  7  1  0
  7  8  1  0
  8  9  2  0
  9 10  1  0
 10 11  1  0
 11 12  1  0
 12 13  1  0
 13 14  2  0
 14 15  1  0
 15 16  2  0
 16 17  1  0
 17 18  3  0
  9 19  1  0
 19 20  2  0
 20  3  1  0
 19  6  1  0
 16 12  1  0
  1 21  1  0
  1 22  1  0
  1 23  1  0
  4 24  1  0
  5 25  1  0
  7 26  1  0
  8 27  1  0
 10 28  1  0
 10 29  1  0
 11 30  1  0
 11 31  1  0
 13 32  1  0
 14 33  1  0
 15 34  1  0
 20 35  1  0
M  END
$$$$
[H]OC(=O)C1([H])Oc2c([H])c([H])c([H])c(-c3c([H])c(C(F)(F)F)c([H])c(C(O[H])(C([H])([H])[H])C([H])([H])C([H])([H])[H])c3[H])c2C([H])([H])C1([H])[H]
     RDKit          3D

 49 51  0  0  0  0  0  0  0  0999 V2000
   -4.0673   -1.6404   -1.6630 C   0  0  0  0  0  0  0  0  0  0  0  0
   -4.2058   -1.2815   -0.2041 C   0  0  0  0  0  0  0  0  0  0  0  0
   -3.9808    0.1279    0.1403 C   0  0  0  0  0  0  0  0  0  0  0  0
   -4.2506    0.2348    1.6721 C   0  0  0  0  0  0  0  0  0  0  0  0
   -4.8359    0.9547   -0.5357 O   0  0  0  0  0  0  0  0  0  0  0  0
   -2.5658    0.6383    0.0681 C   0  0  0  0  0  0  0  0  0  0  0  0
   -1.5167   -0.1573    0.3112 C   0  0  0  0  0  0  0  0  0  0  0  0
   -0.1870    0.3559    0.4538 C   0  0  0  0  0  0  0  0  0  0  0  0
    0.0051    1.6790    0.3321 C   0  0  0  0  0  0  0  0  0  0  0  0
   -1.0997    2.5228    0.0683 C   0  0  0  0  0  0  0  0  0  0  0  0
   -2.4011    1.9841   -0.0589 C   0  0  0  0  0  0  0  0  0  0  0  0
   -0.8185    3.9641   -0.1297 C   0  0  0  0  0  0  0  0  0  0  0  0
    0.5119    4.1759   -0.4278 F   0  0  0  0  0  0  0  0  0  0  0  0
   -1.1242    4.6532    1.0105 F   0  0  0  0  0  0  0  0  0  0  0  0
   -1.5121    4.4445   -1.2181 F   0  0  0  0  0  0  0  0  0  0  0  0
    0.8876   -0.6411    0.6284 C   0  0  0  0  0  0  0  0  0  0  0  0
    0.4498   -1.8067    1.3090 C   0  0  0  0  0  0  0  0  0  0  0  0
    1.2185   -2.9391    1.3675 C   0  0  0  0  0  0  0  0  0  0  0  0
    2.4514   -2.9354    0.7398 C   0  0  0  0  0  0  0  0  0  0  0  0
    2.8854   -1.8092    0.0790 C   0  0  0  0  0  0  0  0  0  0  0  0
    4.0916   -1.7540   -0.5676 O   0  0  0  0  0  0  0  0  0  0  0  0
    4.9187   -0.6553   -0.6179 C   0  0  0  0  0  0  0  0  0  0  0  0
    4.1021    0.6255   -0.8871 C   0  0  0  0  0  0  0  0  0  0  0  0
    2.6833    0.6096   -0.4859 C   0  0  0  0  0  0  0  0  0  0  0  0
    2.1134   -0.6410    0.0244 C   0  0  0  0  0  0  0  0  0  0  0  0
    5.7575   -0.7655   -1.8649 C   0  0  0  0  0  0  0  0  0  0  0  0
    7.2548   -0.5750   -1.3911 O   0  0  0  0  0  0  0  0  0  0  0  0
    5.7327   -0.9424   -2.9691 O   0  0  0  0  0  0  0  0  0  0  0  0
   -4.6585   -2.6049   -1.8174 H   0  0  0  0  0  0  0  0  0  0  0  0
   -4.6162   -0.9006   -2.2721 H   0  0  0  0  0  0  0  0  0  0  0  0
   -3.0528   -1.8344   -1.9865 H   0  0  0  0  0  0  0  0  0  0  0  0
   -3.6011   -1.9991    0.4131 H   0  0  0  0  0  0  0  0  0  0  0  0
   -5.2517   -1.5420    0.1047 H   0  0  0  0  0  0  0  0  0  0  0  0
   -4.4488    1.2683    1.9500 H   0  0  0  0  0  0  0  0  0  0  0  0
   -5.0824   -0.4478    1.9818 H   0  0  0  0  0  0  0  0  0  0  0  0
   -3.3386   -0.1275    2.1708 H   0  0  0  0  0  0  0  0  0  0  0  0
   -4.5093    1.3149   -1.3787 H   0  0  0  0  0  0  0  0  0  0  0  0
   -1.6456   -1.2103    0.3317 H   0  0  0  0  0  0  0  0  0  0  0  0
    0.9458    2.1994    0.5136 H   0  0  0  0  0  0  0  0  0  0  0  0
   -3.2091    2.6321   -0.2603 H   0  0  0  0  0  0  0  0  0  0  0  0
   -0.5092   -1.7729    1.7773 H   0  0  0  0  0  0  0  0  0  0  0  0
    0.9577   -3.8391    1.9177 H   0  0  0  0  0  0  0  0  0  0  0  0
    3.1034   -3.8217    0.7423 H   0  0  0  0  0  0  0  0  0  0  0  0
    5.5613   -0.5273    0.2394 H   0  0  0  0  0  0  0  0  0  0  0  0
    4.1913    0.8465   -1.9616 H   0  0  0  0  0  0  0  0  0  0  0  0
    4.7097    1.4445   -0.3951 H   0  0  0  0  0  0  0  0  0  0  0  0
    1.9966    0.9947   -1.2497 H   0  0  0  0  0  0  0  0  0  0  0  0
    2.6995    1.2751    0.4632 H   0  0  0  0  0  0  0  0  0  0  0  0
    7.2600    0.2254   -0.8096 H   0  0  0  0  0  0  0  0  0  0  0  0
  1  2  1  0
  2  3  1  0
  3  4  1  0
  3  5  1  0
  3  6  1  0
  6  7  2  0
  7  8  1  0
  8  9  2  0
  9 10  1  0
 10 11  2  0
 10 12  1  0
 12 13  1  0
 12 14  1  0
 12 15  1  0
  8 16  1  0
 16 17  2  0
 17 18  1  0
 18 19  2  0
 19 20  1  0
 20 21  1  0
 21 22  1  0
 22 23  1  0
 23 24  1  0
 24 25  1  0
 22 26  1  0
 26 27  1  0
 26 28  2  0
 11  6  1  0
 25 16  1  0
 25 20  2  0
  1 29  1  0
  1 30  1  0
  1 31  1  0
  2 32  1  0
  2 33  1  0
  4 34  1  0
  4 35  1  0
  4 36  1  0
  5 37  1  0
  7 38  1  0
  9 39  1  0
 11 40  1  0
 17 41  1  0
 18 42  1  0
 19 43  1  0
 22 44  1  0
 23 45  1  0
 23 46  1  0
 24 47  1  0
 24 48  1  0
 27 49  1  0
M  END
$$$$
[H]OC(=O)C(=O)O[H].[H]OC(=O)c1c([H])c([H])c([H])c([H])c1Cl
     RDKit          3D

 23 22  0  0  0  0  0  0  0  0999 V2000
    1.7147   -0.2267    0.5832 O   0  0  0  0  0  0  0  0  0  0  0  0
    0.6276    0.1221   -0.2323 C   0  0  0  0  0  0  0  0  0  0  0  0
    0.7874    0.9641   -1.1574 O   0  0  0  0  0  0  0  0  0  0  0  0
   -0.6869   -0.4479   -0.0585 C   0  0  0  0  0  0  0  0  0  0  0  0
   -1.7497   -0.1084   -0.8542 O   0  0  0  0  0  0  0  0  0  0  0  0
   -0.8534   -1.2815    0.8541 O   0  0  0  0  0  0  0  0  0  0  0  0
    2.8873   -0.7987   -0.1303 O   0  0  0  0  0  0  0  0  0  0  0  0
    2.0491    0.0174    0.6016 C   0  0  0  0  0  0  0  0  0  0  0  0
    2.5150    0.7089    1.5364 O   0  0  0  0  0  0  0  0  0  0  0  0
    0.6357    0.0549    0.2730 C   0  0  0  0  0  0  0  0  0  0  0  0
   -0.1812   -1.0164    0.5633 C   0  0  0  0  0  0  0  0  0  0  0  0
   -1.5300   -0.9885    0.2551 C   0  0  0  0  0  0  0  0  0  0  0  0
   -2.1075    0.1078   -0.3534 C   0  0  0  0  0  0  0  0  0  0  0  0
   -1.2822    1.1812   -0.6430 C   0  0  0  0  0  0  0  0  0  0  0  0
    0.0625    1.1490   -0.3332 C   0  0  0  0  0  0  0  0  0  0  0  0
    1.1321    2.4971   -0.7035 Cl  0  0  0  0  0  0  0  0  0  0  0  0
    2.5461    0.3420    0.5557 H   0  0  0  0  0  0  0  0  0  0  0  0
   -2.3859    0.6363   -0.7266 H   0  0  0  0  0  0  0  0  0  0  0  0
    2.5592   -1.4302   -0.8427 H   0  0  0  0  0  0  0  0  0  0  0  0
    0.2732   -1.8860    1.0311 H   0  0  0  0  0  0  0  0  0  0  0  0
   -2.1769   -1.8313    0.4843 H   0  0  0  0  0  0  0  0  0  0  0  0
   -3.1619    0.1569   -0.6134 H   0  0  0  0  0  0  0  0  0  0  0  0
   -1.6744    2.0780   -1.1251 H   0  0  0  0  0  0  0  0  0  0  0  0
  1  2  1  0
  2  3  2  0
  2  4  1  0
  4  5  1  0
  4  6  2  0
  7  8  1  0
  8  9  2  0
  8 10  1  0
 10 11  2  0
 11 12  1  0
 12 13  2  0
 13 14  1  0
 14 15  2  0
 15 16  1  0
 15 10  1  0
  1 17  1  0
  5 18  1  0
  7 19  1  0
 11 20  1  0
 12 21  1  0
 13 22  1  0
 14 23  1  0
M  END
$$$$
[H]OC(=O)C(=O)N([H])[C@@]([H])(C(=O)O[H])C([H])([H])[C@@]([H])(/C([H])=C(\[H])c1c([H])c([H])c([H])c([H])c1[H])C([H])([H])c1c([H])c([H])c([H])c([H])c1[H]
     RDKit          3D

 48 49  0  0  0  0  0  0  0  0999 V2000
    4.5050   -1.2172    1.2009 O   0  0  0  0  0  0  0  0  0  0  0  0
    3.7090   -1.7239    2.0470 C   0  0  0  0  0  0  0  0  0  0  0  0
    2.4025   -2.1293    1.7369 N   0  0  0  0  0  0  0  0  0  0  0  0
    1.9260   -1.9574    0.3488 C   0  0  2  0  0  0  0  0  0  0  0  0
    0.7321   -1.1018    0.4952 C   0  0  0  0  0  0  0  0  0  0  0  0
   -0.0434   -0.6777   -0.6741 C   0  0  2  0  0  0  0  0  0  0  0  0
    0.5669    0.1414   -1.7265 C   0  0  0  0  0  0  0  0  0  0  0  0
    1.1468    1.4320   -1.3888 C   0  0  0  0  0  0  0  0  0  0  0  0
    2.4663    1.5205   -0.9882 C   0  0  0  0  0  0  0  0  0  0  0  0
    3.0774    2.7288   -0.6676 C   0  0  0  0  0  0  0  0  0  0  0  0
    2.3697    3.8831   -0.7439 C   0  0  0  0  0  0  0  0  0  0  0  0
    1.0736    3.8432   -1.1328 C   0  0  0  0  0  0  0  0  0  0  0  0
    0.4739    2.6149   -1.4524 C   0  0  0  0  0  0  0  0  0  0  0  0
   -1.4607   -0.4646   -0.3045 C   0  0  0  0  0  0  0  0  0  0  0  0
   -2.3392    0.3203   -0.8560 C   0  0  0  0  0  0  0  0  0  0  0  0
   -3.7243    0.4958   -0.4486 C   0  0  0  0  0  0  0  0  0  0  0  0
   -4.5099    1.3794   -1.1579 C   0  0  0  0  0  0  0  0  0  0  0  0
   -5.8361    1.6257   -0.8620 C   0  0  0  0  0  0  0  0  0  0  0  0
   -6.4324    0.9687    0.1917 C   0  0  0  0  0  0  0  0  0  0  0  0
   -5.6699    0.0821    0.9151 C   0  0  0  0  0  0  0  0  0  0  0  0
   -4.3249   -0.1502    0.5940 C   0  0  0  0  0  0  0  0  0  0  0  0
    1.7175   -3.3161   -0.1693 C   0  0  0  0  0  0  0  0  0  0  0  0
    1.3133   -3.6580   -1.4490 O   0  0  0  0  0  0  0  0  0  0  0  0
    1.9160   -4.2956    0.5911 O   0  0  0  0  0  0  0  0  0  0  0  0
    4.2178   -1.8775    3.4099 C   0  0  0  0  0  0  0  0  0  0  0  0
    5.4978   -1.4971    3.7814 O   0  0  0  0  0  0  0  0  0  0  0  0
    3.4987   -2.3736    4.3267 O   0  0  0  0  0  0  0  0  0  0  0  0
    1.7900   -2.5355    2.4535 H   0  0  0  0  0  0  0  0  0  0  0  0
    2.7339   -1.5147   -0.2352 H   0  0  0  0  0  0  0  0  0  0  0  0
    1.0906   -0.1625    1.0173 H   0  0  0  0  0  0  0  0  0  0  0  0
    0.0293   -1.5479    1.2336 H   0  0  0  0  0  0  0  0  0  0  0  0
   -0.0977   -1.7467   -1.2684 H   0  0  0  0  0  0  0  0  0  0  0  0
    1.3248   -0.5145   -2.2801 H   0  0  0  0  0  0  0  0  0  0  0  0
   -0.2318    0.2564   -2.5357 H   0  0  0  0  0  0  0  0  0  0  0  0
    3.0811    0.6621   -0.9164 H   0  0  0  0  0  0  0  0  0  0  0  0
    4.1229    2.7503   -0.3554 H   0  0  0  0  0  0  0  0  0  0  0  0
    2.9001    4.8125   -0.4792 H   0  0  0  0  0  0  0  0  0  0  0  0
    0.5047    4.7511   -1.1966 H   0  0  0  0  0  0  0  0  0  0  0  0
   -0.5800    2.6847   -1.7712 H   0  0  0  0  0  0  0  0  0  0  0  0
   -1.8806   -1.0317    0.5599 H   0  0  0  0  0  0  0  0  0  0  0  0
   -1.9983    0.8729   -1.7285 H   0  0  0  0  0  0  0  0  0  0  0  0
   -4.0846    1.9179   -1.9930 H   0  0  0  0  0  0  0  0  0  0  0  0
   -6.4539    2.3203   -1.4195 H   0  0  0  0  0  0  0  0  0  0  0  0
   -7.4886    1.1565    0.4375 H   0  0  0  0  0  0  0  0  0  0  0  0
   -6.1340   -0.4354    1.7425 H   0  0  0  0  0  0  0  0  0  0  0  0
   -3.7533   -0.8441    1.1714 H   0  0  0  0  0  0  0  0  0  0  0  0
    0.5848   -4.3134   -1.6573 H   0  0  0  0  0  0  0  0  0  0  0  0
    6.2710   -2.1343    3.6037 H   0  0  0  0  0  0  0  0  0  0  0  0
  1  2  2  0
  2  3  1  0
  3  4  1  0
  4  5  1  0
  5  6  1  0
  6  7  1  0
  7  8  1  0
  8  9  2  0
  9 10  1  0
 10 11  2  0
 11 12  1  0
 12 13  2  0
  6 14  1  0
 14 15  2  0
 15 16  1  0
 16 17  2  0
 17 18  1  0
 18 19  2  0
 19 20  1  0
 20 21  2  0
  4 22  1  0
 22 23  1  0
 22 24  2  0
  2 25  1  0
 25 26  1  0
 25 27  2  0
 13  8  1  0
 21 16  1  0
  3 28  1  0
  4 29  1  6
  5 30  1  0
  5 31  1  0
  6 32  1  6
  7 33  1  0
  7 34  1  0
  9 35  1  0
 10 36  1  0
 11 37  1  0
 12 38  1  0
 13 39  1  0
 14 40  1  0
 15 41  1  0
 17 42  1  0
 18 43  1  0
 19 44  1  0
 20 45  1  0
 21 46  1  0
 23 47  1  0
 26 48  1  0
M  END
$$$$
[H]c1c([H])c([H])c(C([H])([H])[H])c(-c2c([H])c(N([H])C(=O)N([H])C3([H])c4c([H])c([H])c([H])c([H])c4C([H])([H])C([H])([H])C3([H])[H])c([H])c([H])c2Cl)c1[H]
     RDKit          3D

 51 54  0  0  0  0  0  0  0  0999 V2000
    4.0661    0.9767    2.3576 C   0  0  0  0  0  0  0  0  0  0  0  0
    5.1643    0.7092    1.3934 C   0  0  0  0  0  0  0  0  0  0  0  0
    6.3101    1.4728    1.5202 C   0  0  0  0  0  0  0  0  0  0  0  0
    7.3430    1.2341    0.6533 C   0  0  0  0  0  0  0  0  0  0  0  0
    7.2402    0.2728   -0.3033 C   0  0  0  0  0  0  0  0  0  0  0  0
    6.0928   -0.4790   -0.4172 C   0  0  0  0  0  0  0  0  0  0  0  0
    5.0223   -0.2675    0.4436 C   0  0  0  0  0  0  0  0  0  0  0  0
    3.8127   -1.0688    0.2666 C   0  0  0  0  0  0  0  0  0  0  0  0
    2.6065   -0.4467    0.1352 C   0  0  0  0  0  0  0  0  0  0  0  0
    1.3894   -1.1256   -0.0704 C   0  0  0  0  0  0  0  0  0  0  0  0
    0.2037   -0.4151   -0.1806 N   0  0  0  0  0  0  0  0  0  0  0  0
   -1.0561   -0.8872   -0.5760 C   0  0  0  0  0  0  0  0  0  0  0  0
   -1.3473   -2.0622   -0.9197 O   0  0  0  0  0  0  0  0  0  0  0  0
   -2.2017    0.0099   -0.6209 N   0  0  0  0  0  0  0  0  0  0  0  0
   -3.5114   -0.4052   -1.0143 C   0  0  0  0  0  0  0  0  0  0  0  0
   -4.0502    0.3800   -2.2195 C   0  0  0  0  0  0  0  0  0  0  0  0
   -3.9977    1.8511   -1.9925 C   0  0  0  0  0  0  0  0  0  0  0  0
   -4.5360    2.2251   -0.6649 C   0  0  0  0  0  0  0  0  0  0  0  0
   -5.0050    1.1023    0.1844 C   0  0  0  0  0  0  0  0  0  0  0  0
   -5.9674    1.3388    1.1744 C   0  0  0  0  0  0  0  0  0  0  0  0
   -6.4146    0.3219    1.9836 C   0  0  0  0  0  0  0  0  0  0  0  0
   -5.9245   -0.9533    1.8370 C   0  0  0  0  0  0  0  0  0  0  0  0
   -4.9596   -1.1934    0.8446 C   0  0  0  0  0  0  0  0  0  0  0  0
   -4.5213   -0.1735    0.0445 C   0  0  0  0  0  0  0  0  0  0  0  0
    1.4455   -2.4971   -0.1393 C   0  0  0  0  0  0  0  0  0  0  0  0
    2.6693   -3.1488   -0.0072 C   0  0  0  0  0  0  0  0  0  0  0  0
    3.8331   -2.4402    0.1930 C   0  0  0  0  0  0  0  0  0  0  0  0
    5.3781   -3.2519    0.3751 Cl  0  0  0  0  0  0  0  0  0  0  0  0
    3.4287    1.8289    2.0685 H   0  0  0  0  0  0  0  0  0  0  0  0
    3.5031    0.0499    2.5747 H   0  0  0  0  0  0  0  0  0  0  0  0
    4.4933    1.2833    3.3567 H   0  0  0  0  0  0  0  0  0  0  0  0
    6.3658    2.2338    2.2904 H   0  0  0  0  0  0  0  0  0  0  0  0
    8.2405    1.8273    0.7474 H   0  0  0  0  0  0  0  0  0  0  0  0
    8.1024    0.1311   -0.9641 H   0  0  0  0  0  0  0  0  0  0  0  0
    6.0619   -1.2281   -1.2009 H   0  0  0  0  0  0  0  0  0  0  0  0
    2.5658    0.6525    0.1851 H   0  0  0  0  0  0  0  0  0  0  0  0
    0.2436    0.6209    0.0653 H   0  0  0  0  0  0  0  0  0  0  0  0
   -2.0299    0.9978   -0.3479 H   0  0  0  0  0  0  0  0  0  0  0  0
   -3.4646   -1.4745   -1.3142 H   0  0  0  0  0  0  0  0  0  0  0  0
   -5.1385    0.0956   -2.2587 H   0  0  0  0  0  0  0  0  0  0  0  0
   -3.6211    0.0458   -3.1649 H   0  0  0  0  0  0  0  0  0  0  0  0
   -4.5882    2.3184   -2.8351 H   0  0  0  0  0  0  0  0  0  0  0  0
   -2.9652    2.2718   -2.1412 H   0  0  0  0  0  0  0  0  0  0  0  0
   -5.4429    2.8786   -0.8269 H   0  0  0  0  0  0  0  0  0  0  0  0
   -3.8407    2.8933   -0.0805 H   0  0  0  0  0  0  0  0  0  0  0  0
   -6.3577    2.3386    1.2945 H   0  0  0  0  0  0  0  0  0  0  0  0
   -7.1639    0.4811    2.7620 H   0  0  0  0  0  0  0  0  0  0  0  0
   -6.2496   -1.7750    2.4522 H   0  0  0  0  0  0  0  0  0  0  0  0
   -4.5436   -2.1782    0.6895 H   0  0  0  0  0  0  0  0  0  0  0  0
    0.5954   -3.1429   -0.2861 H   0  0  0  0  0  0  0  0  0  0  0  0
    2.7209   -4.2294   -0.0615 H   0  0  0  0  0  0  0  0  0  0  0  0
  1  2  1  0
  2  3  2  0
  3  4  1  0
  4  5  2  0
  5  6  1  0
  6  7  2  0
  7  8  1  0
  8  9  2  0
  9 10  1  0
 10 11  1  0
 11 12  1  0
 12 13  2  0
 12 14  1  0
 14 15  1  0
 15 16  1  0
 16 17  1  0
 17 18  1  0
 18 19  1  0
 19 20  2  0
 20 21  1  0
 21 22  2  0
 22 23  1  0
 23 24  2  0
 10 25  2  0
 25 26  1  0
 26 27  2  0
 27 28  1  0
  7  2  1  0
 27  8  1  0
 24 15  1  0
 24 19  1  0
  1 29  1  0
  1 30  1  0
  1 31  1  0
  3 32  1  0
  4 33  1  0
  5 34  1  0
  6 35  1  0
  9 36  1  0
 11 37  1  0
 14 38  1  0
 15 39  1  0
 16 40  1  0
 16 41  1  0
 17 42  1  0
 17 43  1  0
 18 44  1  0
 18 45  1  0
 20 46  1  0
 21 47  1  0
 22 48  1  0
 23 49  1  0
 25 50  1  0
 26 51  1  0
M  END
$$$$
[H]OC([H])([H])C1(N([H])C(=O)C(=O)c2c(C([H])([H])[H])c(C(=O)N([H])c3c([H])c([H])c(F)c(Br)c3[H])n3c2C([H])([H])C([H])([H])C3([H])[H])C([H])([H])C([H])([H])C(F)(F)C([H])([H])C1([H])[H]
     RDKit          3D

 60 63  0  0  0  0  0  0  0  0999 V2000
    0.5942   -0.1225    2.2853 C   0  0  0  0  0  0  0  0  0  0  0  0
    1.1855   -0.4219    0.9599 C   0  0  0  0  0  0  0  0  0  0  0  0
    0.5561   -1.1205   -0.0390 C   0  0  0  0  0  0  0  0  0  0  0  0
   -0.7828   -1.6762    0.0373 C   0  0  0  0  0  0  0  0  0  0  0  0
   -0.9168   -2.8475    0.4653 O   0  0  0  0  0  0  0  0  0  0  0  0
   -1.8963   -0.8430   -0.3873 C   0  0  0  0  0  0  0  0  0  0  0  0
   -1.7408    0.3248   -0.8091 O   0  0  0  0  0  0  0  0  0  0  0  0
   -3.2009   -1.3812   -0.3176 N   0  0  0  0  0  0  0  0  0  0  0  0
   -4.4112   -0.6902   -0.7015 C   0  0  0  0  0  0  0  0  0  0  0  0
   -4.4169   -0.2953   -2.1756 C   0  0  0  0  0  0  0  0  0  0  0  0
   -4.3038   -1.4137   -2.9900 O   0  0  0  0  0  0  0  0  0  0  0  0
   -4.4755    0.5603    0.1442 C   0  0  0  0  0  0  0  0  0  0  0  0
   -5.8717    1.0576    0.3776 C   0  0  0  0  0  0  0  0  0  0  0  0
   -6.8378    0.0188    0.8326 C   0  0  0  0  0  0  0  0  0  0  0  0
   -7.3062    0.2557    2.1212 F   0  0  0  0  0  0  0  0  0  0  0  0
   -7.9025   -0.0035   -0.0769 F   0  0  0  0  0  0  0  0  0  0  0  0
   -6.2630   -1.3785    0.8415 C   0  0  0  0  0  0  0  0  0  0  0  0
   -5.5814   -1.6014   -0.4684 C   0  0  0  0  0  0  0  0  0  0  0  0
    1.3859   -1.2144   -1.1231 C   0  0  0  0  0  0  0  0  0  0  0  0
    1.4560   -1.7731   -2.4938 C   0  0  0  0  0  0  0  0  0  0  0  0
    2.4632   -0.8434   -3.1192 C   0  0  0  0  0  0  0  0  0  0  0  0
    3.4448   -0.6436   -1.9669 C   0  0  0  0  0  0  0  0  0  0  0  0
    2.5527   -0.5701   -0.8138 N   0  0  0  0  0  0  0  0  0  0  0  0
    2.4440   -0.0850    0.4507 C   0  0  0  0  0  0  0  0  0  0  0  0
    3.4156    0.6795    1.2138 C   0  0  0  0  0  0  0  0  0  0  0  0
    2.9671    1.2351    2.2636 O   0  0  0  0  0  0  0  0  0  0  0  0
    4.7463    0.7793    0.8015 N   0  0  0  0  0  0  0  0  0  0  0  0
    5.7229    1.5051    1.5076 C   0  0  0  0  0  0  0  0  0  0  0  0
    5.6556    1.8083    2.8355 C   0  0  0  0  0  0  0  0  0  0  0  0
    6.6859    2.5693    3.4272 C   0  0  0  0  0  0  0  0  0  0  0  0
    7.7477    2.9992    2.6689 C   0  0  0  0  0  0  0  0  0  0  0  0
    8.7715    3.7419    3.2057 F   0  0  0  0  0  0  0  0  0  0  0  0
    7.8254    2.6954    1.3187 C   0  0  0  0  0  0  0  0  0  0  0  0
    9.3117    3.3049    0.2899 Br  0  0  0  0  0  0  0  0  0  0  0  0
    6.8161    1.9549    0.7566 C   0  0  0  0  0  0  0  0  0  0  0  0
    0.3676    0.9613    2.4045 H   0  0  0  0  0  0  0  0  0  0  0  0
   -0.3558   -0.6599    2.4169 H   0  0  0  0  0  0  0  0  0  0  0  0
    1.3067   -0.3696    3.1147 H   0  0  0  0  0  0  0  0  0  0  0  0
   -3.3325   -2.3784    0.0453 H   0  0  0  0  0  0  0  0  0  0  0  0
   -3.5867    0.4004   -2.3699 H   0  0  0  0  0  0  0  0  0  0  0  0
   -5.3455    0.2815   -2.3900 H   0  0  0  0  0  0  0  0  0  0  0  0
   -3.3800   -1.4730   -3.3465 H   0  0  0  0  0  0  0  0  0  0  0  0
   -3.9270    1.3690   -0.3830 H   0  0  0  0  0  0  0  0  0  0  0  0
   -3.9640    0.4075    1.1162 H   0  0  0  0  0  0  0  0  0  0  0  0
   -5.7941    1.8193    1.2087 H   0  0  0  0  0  0  0  0  0  0  0  0
   -6.2389    1.6612   -0.4981 H   0  0  0  0  0  0  0  0  0  0  0  0
   -5.5995   -1.5644    1.6933 H   0  0  0  0  0  0  0  0  0  0  0  0
   -7.1116   -2.0909    0.9052 H   0  0  0  0  0  0  0  0  0  0  0  0
   -5.2651   -2.6860   -0.4872 H   0  0  0  0  0  0  0  0  0  0  0  0
   -6.3385   -1.5241   -1.2890 H   0  0  0  0  0  0  0  0  0  0  0  0
    1.8888   -2.7917   -2.3918 H   0  0  0  0  0  0  0  0  0  0  0  0
    0.4745   -1.7708   -3.0054 H   0  0  0  0  0  0  0  0  0  0  0  0
    1.9422    0.1020   -3.3707 H   0  0  0  0  0  0  0  0  0  0  0  0
    2.9688   -1.2942   -3.9965 H   0  0  0  0  0  0  0  0  0  0  0  0
    4.0652   -1.5315   -1.8579 H   0  0  0  0  0  0  0  0  0  0  0  0
    4.0129    0.3041   -2.1297 H   0  0  0  0  0  0  0  0  0  0  0  0
    5.0145    0.2557   -0.0848 H   0  0  0  0  0  0  0  0  0  0  0  0
    4.8520    1.4778    3.4760 H   0  0  0  0  0  0  0  0  0  0  0  0
    6.6386    2.8138    4.4797 H   0  0  0  0  0  0  0  0  0  0  0  0
    6.8661    1.7158   -0.2817 H   0  0  0  0  0  0  0  0  0  0  0  0
  1  2  1  0
  2  3  1  0
  3  4  1  0
  4  5  2  0
  4  6  1  0
  6  7  2  0
  6  8  1  0
  8  9  1  0
  9 10  1  0
 10 11  1  0
  9 12  1  0
 12 13  1  0
 13 14  1  0
 14 15  1  0
 14 16  1  0
 14 17  1  0
 17 18  1  0
  3 19  2  0
 19 20  1  0
 20 21  1  0
 21 22  1  0
 22 23  1  0
 23 24  1  0
 24 25  1  0
 25 26  2  0
 25 27  1  0
 27 28  1  0
 28 29  2  0
 29 30  1  0
 30 31  2  0
 31 32  1  0
 31 33  1  0
 33 34  1  0
 33 35  2  0
 24  2  2  0
 35 28  1  0
 18  9  1  0
 23 19  1  0
  1 36  1  0
  1 37  1  0
  1 38  1  0
  8 39  1  0
 10 40  1  0
 10 41  1  0
 11 42  1  0
 12 43  1  0
 12 44  1  0
 13 45  1  0
 13 46  1  0
 17 47  1  0
 17 48  1  0
 18 49  1  0
 18 50  1  0
 20 51  1  0
 20 52  1  0
 21 53  1  0
 21 54  1  0
 22 55  1  0
 22 56  1  0
 27 57  1  0
 29 58  1  0
 30 59  1  0
 35 60  1  0
M  END
$$$$
[H]OC1(C(F)(F)F)c2c([H])c([H])c([H])c([H])c2-c2c(-c3c([H])c([H])c([C@@](C(=O)N4C([H])([H])C([H])([H])OC([H])([H])[C@@]4([H])C([H])([H])[H])(N(C([H])([H])[H])C([H])([H])[H])C([H])([H])[H])c([H])c3[H])c([H])c(Cl)c([H])c21
     RDKit          3D

 69 73  0  0  0  0  0  0  0  0999 V2000
   -6.4625    0.6227    0.3476 C   0  0  0  0  0  0  0  0  0  0  0  0
   -5.4141   -0.2908   -0.3051 C   0  0  2  0  0  0  0  0  0  0  0  0
   -6.1742   -1.5694   -0.6910 C   0  0  0  0  0  0  0  0  0  0  0  0
   -5.7320   -2.6714   -0.0064 O   0  0  0  0  0  0  0  0  0  0  0  0
   -5.7761   -2.5828    1.3616 C   0  0  0  0  0  0  0  0  0  0  0  0
   -5.1642   -1.3049    1.8920 C   0  0  0  0  0  0  0  0  0  0  0  0
   -4.5006   -0.6623    0.7424 N   0  0  0  0  0  0  0  0  0  0  0  0
   -3.1055   -0.4754    0.7629 C   0  0  0  0  0  0  0  0  0  0  0  0
   -2.5386   -0.9331    1.8233 O   0  0  0  0  0  0  0  0  0  0  0  0
   -2.2957    0.1758   -0.3006 C   0  0  1  0  0  0  0  0  0  0  0  0
   -2.2215   -0.8324   -1.5028 C   0  0  0  0  0  0  0  0  0  0  0  0
   -2.8343    1.3814   -0.7769 N   0  0  0  0  0  0  0  0  0  0  0  0
   -3.0335    2.4622    0.1041 C   0  0  0  0  0  0  0  0  0  0  0  0
   -2.4319    1.8215   -2.0660 C   0  0  0  0  0  0  0  0  0  0  0  0
   -0.8902    0.2787    0.1145 C   0  0  0  0  0  0  0  0  0  0  0  0
   -0.3185   -0.9263    0.5624 C   0  0  0  0  0  0  0  0  0  0  0  0
    0.9656   -1.0072    0.9943 C   0  0  0  0  0  0  0  0  0  0  0  0
    1.7201    0.1375    0.9858 C   0  0  0  0  0  0  0  0  0  0  0  0
    1.1839    1.3292    0.5505 C   0  0  0  0  0  0  0  0  0  0  0  0
   -0.1192    1.4071    0.1135 C   0  0  0  0  0  0  0  0  0  0  0  0
    3.0825    0.0974    1.4963 C   0  0  0  0  0  0  0  0  0  0  0  0
    3.2821    0.2392    2.8836 C   0  0  0  0  0  0  0  0  0  0  0  0
    4.5361    0.2547    3.4323 C   0  0  0  0  0  0  0  0  0  0  0  0
    4.7715    0.4324    5.1701 Cl  0  0  0  0  0  0  0  0  0  0  0  0
    5.5969    0.1265    2.5753 C   0  0  0  0  0  0  0  0  0  0  0  0
    5.4002   -0.0165    1.1837 C   0  0  0  0  0  0  0  0  0  0  0  0
    4.1425   -0.0335    0.6307 C   0  0  0  0  0  0  0  0  0  0  0  0
    4.2719   -0.2145   -0.8144 C   0  0  0  0  0  0  0  0  0  0  0  0
    3.3528   -0.3208   -1.8375 C   0  0  0  0  0  0  0  0  0  0  0  0
    3.7760   -0.5126   -3.1611 C   0  0  0  0  0  0  0  0  0  0  0  0
    5.1047   -0.6028   -3.4964 C   0  0  0  0  0  0  0  0  0  0  0  0
    6.0110   -0.4968   -2.4752 C   0  0  0  0  0  0  0  0  0  0  0  0
    5.6013   -0.3038   -1.1407 C   0  0  0  0  0  0  0  0  0  0  0  0
    6.3823   -0.1626    0.0975 C   0  0  0  0  0  0  0  0  0  0  0  0
    7.2465   -1.2376    0.3052 O   0  0  0  0  0  0  0  0  0  0  0  0
    7.1745    1.1458    0.0055 C   0  0  0  0  0  0  0  0  0  0  0  0
    6.3020    2.1813   -0.2656 F   0  0  0  0  0  0  0  0  0  0  0  0
    8.0695    1.0747   -1.0488 F   0  0  0  0  0  0  0  0  0  0  0  0
    7.8122    1.4313    1.1946 F   0  0  0  0  0  0  0  0  0  0  0  0
   -6.9341    1.1668   -0.5015 H   0  0  0  0  0  0  0  0  0  0  0  0
   -6.0112    1.3023    1.0797 H   0  0  0  0  0  0  0  0  0  0  0  0
   -7.2514   -0.0224    0.7756 H   0  0  0  0  0  0  0  0  0  0  0  0
   -4.9787    0.1854   -1.1769 H   0  0  0  0  0  0  0  0  0  0  0  0
   -7.2722   -1.4204   -0.6508 H   0  0  0  0  0  0  0  0  0  0  0  0
   -5.9435   -1.7456   -1.7717 H   0  0  0  0  0  0  0  0  0  0  0  0
   -6.7785   -2.7879    1.8002 H   0  0  0  0  0  0  0  0  0  0  0  0
   -5.1282   -3.4219    1.7537 H   0  0  0  0  0  0  0  0  0  0  0  0
   -5.9534   -0.6183    2.2207 H   0  0  0  0  0  0  0  0  0  0  0  0
   -4.4321   -1.5066    2.6969 H   0  0  0  0  0  0  0  0  0  0  0  0
   -2.9983   -0.6308   -2.2336 H   0  0  0  0  0  0  0  0  0  0  0  0
   -1.2390   -0.7490   -2.0052 H   0  0  0  0  0  0  0  0  0  0  0  0
   -2.3270   -1.8442   -1.1200 H   0  0  0  0  0  0  0  0  0  0  0  0
   -2.6610    3.4352   -0.3378 H   0  0  0  0  0  0  0  0  0  0  0  0
   -4.1050    2.6798    0.3246 H   0  0  0  0  0  0  0  0  0  0  0  0
   -2.5383    2.3764    1.0907 H   0  0  0  0  0  0  0  0  0  0  0  0
   -3.1477    1.5599   -2.8720 H   0  0  0  0  0  0  0  0  0  0  0  0
   -1.4072    1.4686   -2.3084 H   0  0  0  0  0  0  0  0  0  0  0  0
   -2.3716    2.9473   -2.0793 H   0  0  0  0  0  0  0  0  0  0  0  0
   -0.8893   -1.8619    0.5491 H   0  0  0  0  0  0  0  0  0  0  0  0
    1.3835   -1.9455    1.3355 H   0  0  0  0  0  0  0  0  0  0  0  0
    1.7608    2.2580    0.5316 H   0  0  0  0  0  0  0  0  0  0  0  0
   -0.5448    2.3350   -0.2437 H   0  0  0  0  0  0  0  0  0  0  0  0
    2.4135    0.3380    3.5269 H   0  0  0  0  0  0  0  0  0  0  0  0
    6.6058    0.1339    2.9644 H   0  0  0  0  0  0  0  0  0  0  0  0
    2.3152   -0.2718   -1.6542 H   0  0  0  0  0  0  0  0  0  0  0  0
    3.0328   -0.5928   -3.9488 H   0  0  0  0  0  0  0  0  0  0  0  0
    5.4365   -0.7512   -4.5192 H   0  0  0  0  0  0  0  0  0  0  0  0
    7.0755   -0.5607   -2.6801 H   0  0  0  0  0  0  0  0  0  0  0  0
    8.1153   -0.8975    0.6590 H   0  0  0  0  0  0  0  0  0  0  0  0
  1  2  1  0
  2  3  1  0
  3  4  1  0
  4  5  1  0
  5  6  1  0
  6  7  1  0
  7  8  1  0
  8  9  2  0
 10  8  1  1
 10 11  1  0
 10 12  1  0
 12 13  1  0
 12 14  1  0
 10 15  1  0
 15 16  2  0
 16 17  1  0
 17 18  2  0
 18 19  1  0
 19 20  2  0
 18 21  1  0
 21 22  2  0
 22 23  1  0
 23 24  1  0
 23 25  2  0
 25 26  1  0
 26 27  2  0
 27 28  1  0
 28 29  2  0
 29 30  1  0
 30 31  2  0
 31 32  1  0
 32 33  2  0
 33 34  1  0
 34 35  1  0
 34 36  1  0
 36 37  1  0
 36 38  1  0
 36 39  1  0
  7  2  1  0
 20 15  1  0
 27 21  1  0
 33 28  1  0
 34 26  1  0
  1 40  1  0
  1 41  1  0
  1 42  1  0
  2 43  1  6
  3 44  1  0
  3 45  1  0
  5 46  1  0
  5 47  1  0
  6 48  1  0
  6 49  1  0
 11 50  1  0
 11 51  1  0
 11 52  1  0
 13 53  1  0
 13 54  1  0
 13 55  1  0
 14 56  1  0
 14 57  1  0
 14 58  1  0
 16 59  1  0
 17 60  1  0
 19 61  1  0
 20 62  1  0
 22 63  1  0
 25 64  1  0
 29 65  1  0
 30 66  1  0
 31 67  1  0
 32 68  1  0
 35 69  1  0
M  END
$$$$
[H]c1c([H])c([H])c(C([H])([H])OC(=O)N([H])[C@]([H])(C(=O)N([H])[C@]([H])(C(=O)N(C([H])([H])[H])C([H])([H])C([H])([H])SC([H])([H])[H])C([H])([H])C([H])([H])SC([H])([H])[H])C([H])([H])C([H])(C([H])([H])[H])C([H])([H])[H])c([H])c1[H]
     RDKit          3D

 69 69  0  0  0  0  0  0  0  0999 V2000
    3.9285    4.2622   -1.4630 C   0  0  0  0  0  0  0  0  0  0  0  0
    3.7352    2.8463   -2.5720 S   0  0  0  0  0  0  0  0  0  0  0  0
    2.5718    1.6364   -1.9191 C   0  0  0  0  0  0  0  0  0  0  0  0
    3.2194    1.0237   -0.6643 C   0  0  0  0  0  0  0  0  0  0  0  0
    2.3151    0.0378   -0.0556 C   0  0  2  0  0  0  0  0  0  0  0  0
    1.0818    0.6601    0.3491 N   0  0  0  0  0  0  0  0  0  0  0  0
   -0.2225    0.1902    0.3442 C   0  0  0  0  0  0  0  0  0  0  0  0
   -0.4023   -1.0260   -0.0996 O   0  0  0  0  0  0  0  0  0  0  0  0
   -1.4351    0.8723    0.7601 C   0  0  2  0  0  0  0  0  0  0  0  0
   -1.5493    1.2549    2.1673 C   0  0  0  0  0  0  0  0  0  0  0  0
   -0.6653    2.1605    2.8951 C   0  0  0  0  0  0  0  0  0  0  0  0
   -0.4920    3.5640    2.3665 C   0  0  0  0  0  0  0  0  0  0  0  0
    0.5972    1.6660    3.5217 C   0  0  0  0  0  0  0  0  0  0  0  0
   -2.5963    0.0578    0.3605 N   0  0  0  0  0  0  0  0  0  0  0  0
   -3.3103    0.2040   -0.8256 C   0  0  0  0  0  0  0  0  0  0  0  0
   -3.0198    1.0541   -1.7173 O   0  0  0  0  0  0  0  0  0  0  0  0
   -4.4203   -0.5689   -1.1427 O   0  0  0  0  0  0  0  0  0  0  0  0
   -5.1337   -0.4434   -2.3284 C   0  0  0  0  0  0  0  0  0  0  0  0
   -6.3228   -1.3122   -2.3853 C   0  0  0  0  0  0  0  0  0  0  0  0
   -6.8959   -1.5793   -3.6083 C   0  0  0  0  0  0  0  0  0  0  0  0
   -8.0414   -2.3575   -3.6836 C   0  0  0  0  0  0  0  0  0  0  0  0
   -8.5748   -2.8431   -2.5125 C   0  0  0  0  0  0  0  0  0  0  0  0
   -8.0105   -2.5829   -1.2750 C   0  0  0  0  0  0  0  0  0  0  0  0
   -6.8708   -1.8090   -1.2347 C   0  0  0  0  0  0  0  0  0  0  0  0
    2.8586   -0.9497    0.8639 C   0  0  0  0  0  0  0  0  0  0  0  0
    1.9668   -1.8703    1.2491 O   0  0  0  0  0  0  0  0  0  0  0  0
    4.1017   -1.1585    1.4460 N   0  0  0  0  0  0  0  0  0  0  0  0
    5.2088   -0.2327    1.3605 C   0  0  0  0  0  0  0  0  0  0  0  0
    4.3390   -2.4202    2.1383 C   0  0  0  0  0  0  0  0  0  0  0  0
    5.0194   -3.4774    1.3741 C   0  0  0  0  0  0  0  0  0  0  0  0
    4.2770   -3.9946   -0.1731 S   0  0  0  0  0  0  0  0  0  0  0  0
    4.4025   -2.8176   -1.5063 C   0  0  0  0  0  0  0  0  0  0  0  0
    4.0833    4.0323   -0.4160 H   0  0  0  0  0  0  0  0  0  0  0  0
    3.0708    4.9780   -1.5772 H   0  0  0  0  0  0  0  0  0  0  0  0
    4.8356    4.8111   -1.8121 H   0  0  0  0  0  0  0  0  0  0  0  0
    2.4219    0.8524   -2.6986 H   0  0  0  0  0  0  0  0  0  0  0  0
    1.6196    2.1175   -1.6230 H   0  0  0  0  0  0  0  0  0  0  0  0
    4.2252    0.6625   -0.9122 H   0  0  0  0  0  0  0  0  0  0  0  0
    3.3420    1.8910    0.0507 H   0  0  0  0  0  0  0  0  0  0  0  0
    1.9844   -0.6727   -0.9439 H   0  0  0  0  0  0  0  0  0  0  0  0
    1.2116    1.6804    0.6651 H   0  0  0  0  0  0  0  0  0  0  0  0
   -1.4877    1.7849    0.0569 H   0  0  0  0  0  0  0  0  0  0  0  0
   -2.6619    1.5575    2.3958 H   0  0  0  0  0  0  0  0  0  0  0  0
   -1.5604    0.3031    2.8337 H   0  0  0  0  0  0  0  0  0  0  0  0
   -1.3107    2.3676    3.9227 H   0  0  0  0  0  0  0  0  0  0  0  0
   -1.3963    4.1552    2.6235 H   0  0  0  0  0  0  0  0  0  0  0  0
   -0.4366    3.5978    1.2394 H   0  0  0  0  0  0  0  0  0  0  0  0
    0.3747    4.0741    2.8327 H   0  0  0  0  0  0  0  0  0  0  0  0
    0.6949    0.5517    3.4311 H   0  0  0  0  0  0  0  0  0  0  0  0
    1.4774    2.1073    2.9657 H   0  0  0  0  0  0  0  0  0  0  0  0
    0.6905    1.9146    4.6185 H   0  0  0  0  0  0  0  0  0  0  0  0
   -2.8754   -0.6647    1.0454 H   0  0  0  0  0  0  0  0  0  0  0  0
   -5.4958    0.5920   -2.4337 H   0  0  0  0  0  0  0  0  0  0  0  0
   -4.4990   -0.6334   -3.2386 H   0  0  0  0  0  0  0  0  0  0  0  0
   -6.4836   -1.2060   -4.5301 H   0  0  0  0  0  0  0  0  0  0  0  0
   -8.5209   -2.5771   -4.6469 H   0  0  0  0  0  0  0  0  0  0  0  0
   -9.4830   -3.4449   -2.5916 H   0  0  0  0  0  0  0  0  0  0  0  0
   -8.4708   -2.9828   -0.3862 H   0  0  0  0  0  0  0  0  0  0  0  0
   -6.4240   -1.6014   -0.2481 H   0  0  0  0  0  0  0  0  0  0  0  0
    5.8831   -0.3558    2.2890 H   0  0  0  0  0  0  0  0  0  0  0  0
    4.8975    0.8169    1.4217 H   0  0  0  0  0  0  0  0  0  0  0  0
    5.8373   -0.3550    0.4493 H   0  0  0  0  0  0  0  0  0  0  0  0
    3.3296   -2.8099    2.4622 H   0  0  0  0  0  0  0  0  0  0  0  0
    4.9474   -2.2079    3.0518 H   0  0  0  0  0  0  0  0  0  0  0  0
    5.0161   -4.4024    2.0426 H   0  0  0  0  0  0  0  0  0  0  0  0
    6.1230   -3.2954    1.2568 H   0  0  0  0  0  0  0  0  0  0  0  0
    4.9722   -3.2515   -2.3941 H   0  0  0  0  0  0  0  0  0  0  0  0
    3.4218   -2.5340   -1.9336 H   0  0  0  0  0  0  0  0  0  0  0  0
    4.9861   -1.8999   -1.2192 H   0  0  0  0  0  0  0  0  0  0  0  0
  1  2  1  0
  2  3  1  0
  3  4  1  0
  4  5  1  0
  5  6  1  0
  6  7  1  0
  7  8  2  0
  7  9  1  0
  9 10  1  0
 10 11  1  0
 11 12  1  0
 11 13  1  0
  9 14  1  0
 14 15  1  0
 15 16  2  0
 15 17  1  0
 17 18  1  0
 18 19  1  0
 19 20  2  0
 20 21  1  0
 21 22  2  0
 22 23  1  0
 23 24  2  0
  5 25  1  0
 25 26  2  0
 25 27  1  0
 27 28  1  0
 27 29  1  0
 29 30  1  0
 30 31  1  0
 31 32  1  0
 24 19  1  0
  1 33  1  0
  1 34  1  0
  1 35  1  0
  3 36  1  0
  3 37  1  0
  4 38  1  0
  4 39  1  0
  5 40  1  6
  6 41  1  0
  9 42  1  6
 10 43  1  0
 10 44  1  0
 11 45  1  0
 12 46  1  0
 12 47  1  0
 12 48  1  0
 13 49  1  0
 13 50  1  0
 13 51  1  0
 14 52  1  0
 18 53  1  0
 18 54  1  0
 20 55  1  0
 21 56  1  0
 22 57  1  0
 23 58  1  0
 24 59  1  0
 28 60  1  0
 28 61  1  0
 28 62  1  0
 29 63  1  0
 29 64  1  0
 30 65  1  0
 30 66  1  0
 32 67  1  0
 32 68  1  0
 32 69  1  0
M  END
$$$$
[H]c1c([H])c(-c2noc3c2nc([H])c2c3c3c([H])c([H])c([H])c([H])c3c(=O)n2[H])c([H])c([H])c1F
     RDKit          3D

 35 39  0  0  0  0  0  0  0  0999 V2000
    7.4001   -0.0957    0.2494 F   0  0  0  0  0  0  0  0  0  0  0  0
    6.0524   -0.2373    0.1260 C   0  0  0  0  0  0  0  0  0  0  0  0
    5.3032    0.7356   -0.5037 C   0  0  0  0  0  0  0  0  0  0  0  0
    3.9392    0.5609   -0.6119 C   0  0  0  0  0  0  0  0  0  0  0  0
    3.3081   -0.5573   -0.1084 C   0  0  0  0  0  0  0  0  0  0  0  0
    4.0734   -1.5184    0.5174 C   0  0  0  0  0  0  0  0  0  0  0  0
    5.4350   -1.3582    0.6330 C   0  0  0  0  0  0  0  0  0  0  0  0
    1.8746   -0.7775   -0.2025 C   0  0  0  0  0  0  0  0  0  0  0  0
    1.1919   -1.8945   -0.5495 N   0  0  0  0  0  0  0  0  0  0  0  0
   -0.0595   -1.6533   -0.5023 O   0  0  0  0  0  0  0  0  0  0  0  0
   -0.3515   -0.4402   -0.1460 C   0  0  0  0  0  0  0  0  0  0  0  0
    0.8985    0.1542    0.0562 C   0  0  0  0  0  0  0  0  0  0  0  0
    0.9764    1.4306    0.4387 N   0  0  0  0  0  0  0  0  0  0  0  0
   -0.1072    2.1903    0.6439 C   0  0  0  0  0  0  0  0  0  0  0  0
   -1.3680    1.6631    0.4616 C   0  0  0  0  0  0  0  0  0  0  0  0
   -2.4661    2.3947    0.6581 N   0  0  0  0  0  0  0  0  0  0  0  0
   -3.6883    1.9012    0.4866 C   0  0  0  0  0  0  0  0  0  0  0  0
   -4.7322    2.6152    0.6790 O   0  0  0  0  0  0  0  0  0  0  0  0
   -3.8529    0.5987    0.0946 C   0  0  0  0  0  0  0  0  0  0  0  0
   -5.1209    0.0698   -0.0884 C   0  0  0  0  0  0  0  0  0  0  0  0
   -5.2357   -1.2415   -0.4821 C   0  0  0  0  0  0  0  0  0  0  0  0
   -4.1410   -2.0446   -0.7001 C   0  0  0  0  0  0  0  0  0  0  0  0
   -2.8698   -1.5030   -0.5132 C   0  0  0  0  0  0  0  0  0  0  0  0
   -2.7294   -0.2076   -0.1238 C   0  0  0  0  0  0  0  0  0  0  0  0
   -1.4665    0.3349    0.0632 C   0  0  0  0  0  0  0  0  0  0  0  0
    5.7353    1.6317   -0.9181 H   0  0  0  0  0  0  0  0  0  0  0  0
    3.3475    1.3179   -1.1032 H   0  0  0  0  0  0  0  0  0  0  0  0
    3.6399   -2.4249    0.9372 H   0  0  0  0  0  0  0  0  0  0  0  0
    6.0213   -2.1225    1.1274 H   0  0  0  0  0  0  0  0  0  0  0  0
   -0.0620    3.2282    0.9546 H   0  0  0  0  0  0  0  0  0  0  0  0
   -2.3523    3.3866    0.9564 H   0  0  0  0  0  0  0  0  0  0  0  0
   -5.9763    0.7129    0.0866 H   0  0  0  0  0  0  0  0  0  0  0  0
   -6.2589   -1.6115   -0.6128 H   0  0  0  0  0  0  0  0  0  0  0  0
   -4.2812   -3.0753   -1.0105 H   0  0  0  0  0  0  0  0  0  0  0  0
   -2.0775   -2.1633   -0.6946 H   0  0  0  0  0  0  0  0  0  0  0  0
  1  2  1  0
  2  3  2  0
  3  4  1  0
  4  5  2  0
  5  6  1  0
  6  7  2  0
  5  8  1  0
  8  9  2  0
  9 10  1  0
 10 11  1  0
 11 12  2  0
 12 13  1  0
 13 14  2  0
 14 15  1  0
 15 16  1  0
 16 17  1  0
 17 18  2  0
 17 19  1  0
 19 20  2  0
 20 21  1  0
 21 22  2  0
 22 23  1  0
 23 24  2  0
 24 25  1  0
  7  2  1  0
 12  8  1  0
 25 15  2  0
 25 11  1  0
 24 19  1  0
  3 26  1  0
  4 27  1  0
  6 28  1  0
  7 29  1  0
 14 30  1  0
 16 31  1  0
 20 32  1  0
 21 33  1  0
 22 34  1  0
 23 35  1  0
M  END
$$$$
[H]c1c([H])c([H])c(C#Cc2c([H])c(C(=O)N([H])c3c([H])c([H])c([H])c(C([H])([H])N4C([H])([H])C([H])([H])N(C([H])([H])[H])C([H])([H])C4([H])[H])c3C(F)(F)F)c([H])c([H])c2C([H])([H])[H])c([H])c1[H]
     RDKit          3D

 64 67  0  0  0  0  0  0  0  0999 V2000
   -8.0968    0.0150   -1.1010 C   0  0  0  0  0  0  0  0  0  0  0  0
   -8.2113    0.5440    0.2257 N   0  0  0  0  0  0  0  0  0  0  0  0
   -7.6667    1.8896    0.3112 C   0  0  0  0  0  0  0  0  0  0  0  0
   -6.1801    1.9604    0.2009 C   0  0  0  0  0  0  0  0  0  0  0  0
   -5.6062    0.5721    0.3428 N   0  0  0  0  0  0  0  0  0  0  0  0
   -4.1748    0.8574    0.5346 C   0  0  0  0  0  0  0  0  0  0  0  0
   -3.3913   -0.3906    0.5048 C   0  0  0  0  0  0  0  0  0  0  0  0
   -4.0162   -1.6004    0.3212 C   0  0  0  0  0  0  0  0  0  0  0  0
   -3.3483   -2.7973    0.2905 C   0  0  0  0  0  0  0  0  0  0  0  0
   -2.0065   -2.8291    0.4384 C   0  0  0  0  0  0  0  0  0  0  0  0
   -1.2724   -1.6230    0.6256 C   0  0  0  0  0  0  0  0  0  0  0  0
    0.0803   -1.7006    0.4956 N   0  0  0  0  0  0  0  0  0  0  0  0
    1.4056   -1.7767    0.3684 C   0  0  0  0  0  0  0  0  0  0  0  0
    2.1275   -2.6978    1.0020 O   0  0  0  0  0  0  0  0  0  0  0  0
    2.2895   -0.9212   -0.4582 C   0  0  0  0  0  0  0  0  0  0  0  0
    1.8063   -0.2761   -1.5515 C   0  0  0  0  0  0  0  0  0  0  0  0
    2.6566    0.5230   -2.3418 C   0  0  0  0  0  0  0  0  0  0  0  0
    3.9705    0.6534   -2.0137 C   0  0  0  0  0  0  0  0  0  0  0  0
    4.8608    1.5152   -2.8716 C   0  0  0  0  0  0  0  0  0  0  0  0
    4.4724    0.0100   -0.9155 C   0  0  0  0  0  0  0  0  0  0  0  0
    3.6037   -0.7784   -0.1460 C   0  0  0  0  0  0  0  0  0  0  0  0
    5.8581    0.1248   -0.5628 C   0  0  0  0  0  0  0  0  0  0  0  0
    7.0484    0.1960   -0.2680 C   0  0  0  0  0  0  0  0  0  0  0  0
    8.4463    0.2473    0.0625 C   0  0  0  0  0  0  0  0  0  0  0  0
    9.4367    0.4326   -0.8900 C   0  0  0  0  0  0  0  0  0  0  0  0
   10.7868    0.4703   -0.5374 C   0  0  0  0  0  0  0  0  0  0  0  0
   11.1640    0.3249    0.7669 C   0  0  0  0  0  0  0  0  0  0  0  0
   10.1917    0.1409    1.7230 C   0  0  0  0  0  0  0  0  0  0  0  0
    8.8731    0.1035    1.3737 C   0  0  0  0  0  0  0  0  0  0  0  0
   -2.0032   -0.4185    0.6589 C   0  0  0  0  0  0  0  0  0  0  0  0
   -1.3366    0.8760    0.8921 C   0  0  0  0  0  0  0  0  0  0  0  0
   -1.4359    1.7075   -0.1951 F   0  0  0  0  0  0  0  0  0  0  0  0
   -0.0292    0.8081    1.2939 F   0  0  0  0  0  0  0  0  0  0  0  0
   -2.0137    1.5780    1.9320 F   0  0  0  0  0  0  0  0  0  0  0  0
   -6.2299    0.1558    1.6088 C   0  0  0  0  0  0  0  0  0  0  0  0
   -7.6374   -0.3164    1.2532 C   0  0  0  0  0  0  0  0  0  0  0  0
   -8.0022    0.8619   -1.8443 H   0  0  0  0  0  0  0  0  0  0  0  0
   -7.2185   -0.6346   -1.2742 H   0  0  0  0  0  0  0  0  0  0  0  0
   -9.0148   -0.5272   -1.4202 H   0  0  0  0  0  0  0  0  0  0  0  0
   -8.0430    2.3376    1.2559 H   0  0  0  0  0  0  0  0  0  0  0  0
   -8.1123    2.4656   -0.5269 H   0  0  0  0  0  0  0  0  0  0  0  0
   -5.7828    2.3701   -0.7275 H   0  0  0  0  0  0  0  0  0  0  0  0
   -5.7996    2.4604    1.1355 H   0  0  0  0  0  0  0  0  0  0  0  0
   -4.1743    1.2979    1.5899 H   0  0  0  0  0  0  0  0  0  0  0  0
   -3.8512    1.6528   -0.1226 H   0  0  0  0  0  0  0  0  0  0  0  0
   -5.0970   -1.6079    0.1575 H   0  0  0  0  0  0  0  0  0  0  0  0
   -3.9353   -3.7205    0.1438 H   0  0  0  0  0  0  0  0  0  0  0  0
   -1.4378   -3.7380    0.4111 H   0  0  0  0  0  0  0  0  0  0  0  0
    0.1175   -2.5724    1.5354 H   0  0  0  0  0  0  0  0  0  0  0  0
    0.7918   -0.3282   -1.8667 H   0  0  0  0  0  0  0  0  0  0  0  0
    2.2737    1.0360   -3.2132 H   0  0  0  0  0  0  0  0  0  0  0  0
    4.5279    2.5745   -2.8267 H   0  0  0  0  0  0  0  0  0  0  0  0
    5.9159    1.3626   -2.6322 H   0  0  0  0  0  0  0  0  0  0  0  0
    4.7412    1.2131   -3.9441 H   0  0  0  0  0  0  0  0  0  0  0  0
    4.0100   -1.2817    0.7239 H   0  0  0  0  0  0  0  0  0  0  0  0
    9.1171    0.5437   -1.9105 H   0  0  0  0  0  0  0  0  0  0  0  0
   11.5492    0.6241   -1.3090 H   0  0  0  0  0  0  0  0  0  0  0  0
   12.2287    0.3582    1.0529 H   0  0  0  0  0  0  0  0  0  0  0  0
   10.4893    0.0303    2.7526 H   0  0  0  0  0  0  0  0  0  0  0  0
    8.1018   -0.0472    2.1434 H   0  0  0  0  0  0  0  0  0  0  0  0
   -6.3379    1.0265    2.3126 H   0  0  0  0  0  0  0  0  0  0  0  0
   -5.7032   -0.6075    2.1609 H   0  0  0  0  0  0  0  0  0  0  0  0
   -8.2798   -0.4682    2.1185 H   0  0  0  0  0  0  0  0  0  0  0  0
   -7.4962   -1.3085    0.7504 H   0  0  0  0  0  0  0  0  0  0  0  0
  1  2  1  0
  2  3  1  0
  3  4  1  0
  4  5  1  0
  5  6  1  0
  6  7  1  0
  7  8  2  0
  8  9  1  0
  9 10  2  0
 10 11  1  0
 11 12  1  0
 12 13  1  0
 13 14  2  0
 13 15  1  0
 15 16  2  0
 16 17  1  0
 17 18  2  0
 18 19  1  0
 18 20  1  0
 20 21  2  0
 20 22  1  0
 22 23  3  0
 23 24  1  0
 24 25  2  0
 25 26  1  0
 26 27  2  0
 27 28  1  0
 28 29  2  0
 11 30  2  0
 30 31  1  0
 31 32  1  0
 31 33  1  0
 31 34  1  0
  5 35  1  0
 35 36  1  0
 36  2  1  0
 30  7  1  0
 21 15  1  0
 29 24  1  0
  1 37  1  0
  1 38  1  0
  1 39  1  0
  3 40  1  0
  3 41  1  0
  4 42  1  0
  4 43  1  0
  6 44  1  0
  6 45  1  0
  8 46  1  0
  9 47  1  0
 10 48  1  0
 12 49  1  0
 16 50  1  0
 17 51  1  0
 19 52  1  0
 19 53  1  0
 19 54  1  0
 21 55  1  0
 25 56  1  0
 26 57  1  0
 27 58  1  0
 28 59  1  0
 29 60  1  0
 35 61  1  0
 35 62  1  0
 36 63  1  0
 36 64  1  0
M  END
$$$$
[H]O[C@]1([H])C([H])([H])N([H])C([H])([H])[C@]1([H])C(=O)N([H])[C@@]1([H])C([H])([H])N(c2nc([H])nc3c([H])c(-c4c([H])c([H])c(OC([H])([H])[H])c(OC([H])([H])[H])c4[H])c([H])c([H])c23)C([H])([H])C([H])([H])C1([H])[H]
     RDKit          3D

 66 70  0  0  0  0  0  0  0  0999 V2000
    9.8779    2.4618    1.2254 C   0  0  0  0  0  0  0  0  0  0  0  0
    9.2327    1.3108    1.7034 O   0  0  0  0  0  0  0  0  0  0  0  0
    7.9177    1.0815    1.4337 C   0  0  0  0  0  0  0  0  0  0  0  0
    7.1555    1.9487    0.6838 C   0  0  0  0  0  0  0  0  0  0  0  0
    5.8151    1.6836    0.4300 C   0  0  0  0  0  0  0  0  0  0  0  0
    5.2414    0.5370    0.9361 C   0  0  0  0  0  0  0  0  0  0  0  0
    6.0102   -0.3243    1.6812 C   0  0  0  0  0  0  0  0  0  0  0  0
    7.3417   -0.0859    1.9480 C   0  0  0  0  0  0  0  0  0  0  0  0
    8.1211   -0.9596    2.7011 O   0  0  0  0  0  0  0  0  0  0  0  0
    7.5752   -2.1591    3.2236 C   0  0  0  0  0  0  0  0  0  0  0  0
    3.8314    0.2715    0.6943 C   0  0  0  0  0  0  0  0  0  0  0  0
    3.1553    0.6284   -0.4387 C   0  0  0  0  0  0  0  0  0  0  0  0
    1.7833    0.4147   -0.6242 C   0  0  0  0  0  0  0  0  0  0  0  0
    1.0823   -0.1834    0.3844 C   0  0  0  0  0  0  0  0  0  0  0  0
   -0.2658   -0.3848    0.2722 C   0  0  0  0  0  0  0  0  0  0  0  0
   -0.9216   -0.9726    1.3508 N   0  0  0  0  0  0  0  0  0  0  0  0
   -0.3159   -1.3380    2.4552 C   0  0  0  0  0  0  0  0  0  0  0  0
    1.0022   -1.1263    2.5340 N   0  0  0  0  0  0  0  0  0  0  0  0
    1.7167   -0.5725    1.5619 C   0  0  0  0  0  0  0  0  0  0  0  0
    3.0644   -0.3381    1.6873 C   0  0  0  0  0  0  0  0  0  0  0  0
   -1.0413   -0.0649   -0.8483 N   0  0  0  0  0  0  0  0  0  0  0  0
   -1.0190    0.9878   -1.8020 C   0  0  0  0  0  0  0  0  0  0  0  0
   -2.4495    1.2121   -2.3508 C   0  0  0  0  0  0  0  0  0  0  0  0
   -3.3741    1.3011   -1.2058 C   0  0  0  0  0  0  0  0  0  0  0  0
   -3.3666   -0.0507   -0.4502 C   0  0  2  0  0  0  0  0  0  0  0  0
   -2.2577   -0.9480   -1.0603 C   0  0  0  0  0  0  0  0  0  0  0  0
   -4.6116   -0.5913   -0.3808 N   0  0  0  0  0  0  0  0  0  0  0  0
   -5.8287   -1.1197   -0.3130 C   0  0  0  0  0  0  0  0  0  0  0  0
   -6.3760   -1.6190    0.7504 O   0  0  0  0  0  0  0  0  0  0  0  0
   -6.7907   -1.2315   -1.4840 C   0  0  1  0  0  0  0  0  0  0  0  0
   -8.0213   -2.0037   -1.1542 C   0  0  0  0  0  0  0  0  0  0  0  0
   -9.1523   -1.2640   -1.6900 N   0  0  0  0  0  0  0  0  0  0  0  0
   -8.5917   -0.3349   -2.6567 C   0  0  0  0  0  0  0  0  0  0  0  0
   -7.3052    0.0793   -1.9459 C   0  0  1  0  0  0  0  0  0  0  0  0
   -7.6319    0.9567   -0.9136 O   0  0  0  0  0  0  0  0  0  0  0  0
   10.8987    2.5353    1.6956 H   0  0  0  0  0  0  0  0  0  0  0  0
    9.9725    2.4005    0.1270 H   0  0  0  0  0  0  0  0  0  0  0  0
    9.3561    3.4011    1.5156 H   0  0  0  0  0  0  0  0  0  0  0  0
    7.5862    2.8660    0.2644 H   0  0  0  0  0  0  0  0  0  0  0  0
    5.2736    2.4073   -0.1680 H   0  0  0  0  0  0  0  0  0  0  0  0
    5.6248   -1.2515    2.0990 H   0  0  0  0  0  0  0  0  0  0  0  0
    6.7823   -2.0115    3.9671 H   0  0  0  0  0  0  0  0  0  0  0  0
    7.0848   -2.6776    2.3592 H   0  0  0  0  0  0  0  0  0  0  0  0
    8.3668   -2.8662    3.5601 H   0  0  0  0  0  0  0  0  0  0  0  0
    3.7275    1.0984   -1.2260 H   0  0  0  0  0  0  0  0  0  0  0  0
    1.3478    0.7184   -1.5483 H   0  0  0  0  0  0  0  0  0  0  0  0
   -0.8678   -1.8017    3.2852 H   0  0  0  0  0  0  0  0  0  0  0  0
    3.5857   -0.6227    2.5969 H   0  0  0  0  0  0  0  0  0  0  0  0
   -0.4771    0.7176   -2.7517 H   0  0  0  0  0  0  0  0  0  0  0  0
   -0.7019    1.9245   -1.3479 H   0  0  0  0  0  0  0  0  0  0  0  0
   -2.3417    2.2014   -2.8979 H   0  0  0  0  0  0  0  0  0  0  0  0
   -2.7032    0.4778   -3.1150 H   0  0  0  0  0  0  0  0  0  0  0  0
   -3.0726    2.1395   -0.5460 H   0  0  0  0  0  0  0  0  0  0  0  0
   -4.4112    1.5446   -1.5219 H   0  0  0  0  0  0  0  0  0  0  0  0
   -2.9328    0.2574    0.5446 H   0  0  0  0  0  0  0  0  0  0  0  0
   -2.1688   -1.8229   -0.4239 H   0  0  0  0  0  0  0  0  0  0  0  0
   -2.4094   -1.1923   -2.0855 H   0  0  0  0  0  0  0  0  0  0  0  0
   -4.4208   -0.9450    0.9534 H   0  0  0  0  0  0  0  0  0  0  0  0
   -6.1934   -1.6797   -2.3118 H   0  0  0  0  0  0  0  0  0  0  0  0
   -7.9748   -3.0169   -1.6217 H   0  0  0  0  0  0  0  0  0  0  0  0
   -8.1369   -2.0790   -0.0615 H   0  0  0  0  0  0  0  0  0  0  0  0
   -9.5453   -0.6530   -0.9186 H   0  0  0  0  0  0  0  0  0  0  0  0
   -9.2674    0.5093   -2.8362 H   0  0  0  0  0  0  0  0  0  0  0  0
   -8.3100   -0.8853   -3.5638 H   0  0  0  0  0  0  0  0  0  0  0  0
   -6.6406    0.5959   -2.6706 H   0  0  0  0  0  0  0  0  0  0  0  0
   -7.6342    0.5075   -0.0284 H   0  0  0  0  0  0  0  0  0  0  0  0
  1  2  1  0
  2  3  1  0
  3  4  2  0
  4  5  1  0
  5  6  2  0
  6  7  1  0
  7  8  2  0
  8  9  1  0
  9 10  1  0
  6 11  1  0
 11 12  2  0
 12 13  1  0
 13 14  2  0
 14 15  1  0
 15 16  2  0
 16 17  1  0
 17 18  2  0
 18 19  1  0
 19 20  2  0
 15 21  1  0
 21 22  1  0
 22 23  1  0
 23 24  1  0
 24 25  1  0
 25 26  1  0
 25 27  1  0
 27 28  1  0
 28 29  2  0
 28 30  1  0
 30 31  1  0
 31 32  1  0
 32 33  1  0
 33 34  1  0
 34 35  1  0
  8  3  1  0
 20 11  1  0
 26 21  1  0
 34 30  1  0
 19 14  1  0
  1 36  1  0
  1 37  1  0
  1 38  1  0
  4 39  1  0
  5 40  1  0
  7 41  1  0
 10 42  1  0
 10 43  1  0
 10 44  1  0
 12 45  1  0
 13 46  1  0
 17 47  1  0
 20 48  1  0
 22 49  1  0
 22 50  1  0
 23 51  1  0
 23 52  1  0
 24 53  1  0
 24 54  1  0
 25 55  1  1
 26 56  1  0
 26 57  1  0
 27 58  1  0
 30 59  1  6
 31 60  1  0
 31 61  1  0
 32 62  1  0
 33 63  1  0
 33 64  1  0
 34 65  1  6
 35 66  1  0
M  END
$$$$
[H]N=C(c1c([H])c([H])c(C([H])([H])N([H])C(=O)[C@@]2([H])N(C(=O)N3C([H])([H])C([H])([H])C([H])([H])[C@@]3([H])C(=O)N3C([H])([H])C([H])([H])[C@]3([H])C(C([H])([H])[H])(C([H])([H])[H])C([H])([H])[H])[C@@]([H])(C([H])([H])c3c([H])c([H])c([H])c([H])c3[H])C2([H])[H])c([H])c1[H])N([H])[H]
     RDKit          3D

 83 87  0  0  0  0  0  0  0  0999 V2000
   -5.8661    0.9450    0.1618 C   0  0  0  0  0  0  0  0  0  0  0  0
   -5.6667   -0.2236    1.0750 C   0  0  0  0  0  0  0  0  0  0  0  0
   -6.8575   -1.1272    0.8885 C   0  0  0  0  0  0  0  0  0  0  0  0
   -5.8374    0.3537    2.4971 C   0  0  0  0  0  0  0  0  0  0  0  0
   -4.3408   -0.8709    1.0463 C   0  0  1  0  0  0  0  0  0  0  0  0
   -4.2771   -2.0502    2.0087 C   0  0  0  0  0  0  0  0  0  0  0  0
   -4.3990   -2.8407    0.7214 C   0  0  0  0  0  0  0  0  0  0  0  0
   -3.9115   -1.6943   -0.0161 N   0  0  0  0  0  0  0  0  0  0  0  0
   -3.2527   -1.5408   -1.2634 C   0  0  0  0  0  0  0  0  0  0  0  0
   -3.0686   -2.5791   -1.9429 O   0  0  0  0  0  0  0  0  0  0  0  0
   -2.8457   -0.1841   -1.6411 C   0  0  2  0  0  0  0  0  0  0  0  0
   -3.6004    0.2227   -2.9236 C   0  0  0  0  0  0  0  0  0  0  0  0
   -2.6566    1.1585   -3.6380 C   0  0  0  0  0  0  0  0  0  0  0  0
   -1.5010    1.3237   -2.6435 C   0  0  0  0  0  0  0  0  0  0  0  0
   -1.4651   -0.0038   -2.0608 N   0  0  0  0  0  0  0  0  0  0  0  0
   -0.3631   -0.8460   -1.9578 C   0  0  0  0  0  0  0  0  0  0  0  0
   -0.4720   -2.0327   -1.4864 O   0  0  0  0  0  0  0  0  0  0  0  0
    0.9615   -0.4664   -2.3611 N   0  0  0  0  0  0  0  0  0  0  0  0
    1.8021    0.5364   -2.8600 C   0  0  1  0  0  0  0  0  0  0  0  0
    2.4881    1.5609   -2.0407 C   0  0  0  0  0  0  0  0  0  0  0  0
    1.7642    2.5018   -1.2324 C   0  0  0  0  0  0  0  0  0  0  0  0
    1.3471    3.7137   -1.7258 C   0  0  0  0  0  0  0  0  0  0  0  0
    0.6669    4.6634   -1.0096 C   0  0  0  0  0  0  0  0  0  0  0  0
    0.3706    4.3823    0.3308 C   0  0  0  0  0  0  0  0  0  0  0  0
    0.7708    3.1742    0.8710 C   0  0  0  0  0  0  0  0  0  0  0  0
    1.4653    2.2450    0.0806 C   0  0  0  0  0  0  0  0  0  0  0  0
    2.8162   -0.5339   -3.3089 C   0  0  0  0  0  0  0  0  0  0  0  0
    2.0988   -1.4123   -2.4002 C   0  0  1  0  0  0  0  0  0  0  0  0
    2.6274   -1.8906   -1.1429 C   0  0  0  0  0  0  0  0  0  0  0  0
    3.6388   -2.6813   -1.2205 O   0  0  0  0  0  0  0  0  0  0  0  0
    2.1686   -1.6061    0.1441 N   0  0  0  0  0  0  0  0  0  0  0  0
    2.7680   -2.1888    1.3054 C   0  0  0  0  0  0  0  0  0  0  0  0
    4.0203   -1.6253    1.7752 C   0  0  0  0  0  0  0  0  0  0  0  0
    4.5667   -0.4943    1.2407 C   0  0  0  0  0  0  0  0  0  0  0  0
    5.7702    0.0664    1.6881 C   0  0  0  0  0  0  0  0  0  0  0  0
    6.4688   -0.5235    2.7187 C   0  0  0  0  0  0  0  0  0  0  0  0
    5.9105   -1.6656    3.2519 C   0  0  0  0  0  0  0  0  0  0  0  0
    4.7380   -2.2192    2.8224 C   0  0  0  0  0  0  0  0  0  0  0  0
    7.7183    0.0270    3.2184 C   0  0  0  0  0  0  0  0  0  0  0  0
    8.4081   -0.6202    4.3000 N   0  0  0  0  0  0  0  0  0  0  0  0
    8.2176    1.0831    2.7198 N   0  0  0  0  0  0  0  0  0  0  0  0
   -6.2801    0.6255   -0.8360 H   0  0  0  0  0  0  0  0  0  0  0  0
   -6.6562    1.5926    0.5938 H   0  0  0  0  0  0  0  0  0  0  0  0
   -4.9717    1.5858    0.0334 H   0  0  0  0  0  0  0  0  0  0  0  0
   -7.7550   -0.4738    1.0201 H   0  0  0  0  0  0  0  0  0  0  0  0
   -6.9283   -1.5188   -0.1462 H   0  0  0  0  0  0  0  0  0  0  0  0
   -6.9471   -1.9093    1.6565 H   0  0  0  0  0  0  0  0  0  0  0  0
   -5.1777   -0.1989    3.1807 H   0  0  0  0  0  0  0  0  0  0  0  0
   -5.4637    1.3988    2.4741 H   0  0  0  0  0  0  0  0  0  0  0  0
   -6.8985    0.3464    2.8072 H   0  0  0  0  0  0  0  0  0  0  0  0
   -3.5719   -0.1199    1.4185 H   0  0  0  0  0  0  0  0  0  0  0  0
   -3.2958   -2.1670    2.5149 H   0  0  0  0  0  0  0  0  0  0  0  0
   -5.0932   -2.1599    2.7144 H   0  0  0  0  0  0  0  0  0  0  0  0
   -5.3603   -3.2603    0.4619 H   0  0  0  0  0  0  0  0  0  0  0  0
   -3.6584   -3.6912    0.7773 H   0  0  0  0  0  0  0  0  0  0  0  0
   -2.9847    0.5524   -0.8303 H   0  0  0  0  0  0  0  0  0  0  0  0
   -4.5782    0.6568   -2.6975 H   0  0  0  0  0  0  0  0  0  0  0  0
   -3.7247   -0.7274   -3.5015 H   0  0  0  0  0  0  0  0  0  0  0  0
   -3.1381    2.1338   -3.8586 H   0  0  0  0  0  0  0  0  0  0  0  0
   -2.2760    0.7059   -4.5628 H   0  0  0  0  0  0  0  0  0  0  0  0
   -1.9079    2.0630   -1.8915 H   0  0  0  0  0  0  0  0  0  0  0  0
   -0.6013    1.6723   -3.1113 H   0  0  0  0  0  0  0  0  0  0  0  0
    1.4520    0.9961   -3.8628 H   0  0  0  0  0  0  0  0  0  0  0  0
    3.2958    1.0100   -1.4603 H   0  0  0  0  0  0  0  0  0  0  0  0
    3.1567    2.1441   -2.7874 H   0  0  0  0  0  0  0  0  0  0  0  0
    1.5745    3.9379   -2.7600 H   0  0  0  0  0  0  0  0  0  0  0  0
    0.3431    5.6158   -1.4121 H   0  0  0  0  0  0  0  0  0  0  0  0
   -0.1680    5.1208    0.9188 H   0  0  0  0  0  0  0  0  0  0  0  0
    0.5295    2.9823    1.9041 H   0  0  0  0  0  0  0  0  0  0  0  0
    1.7324    1.3443    0.6098 H   0  0  0  0  0  0  0  0  0  0  0  0
    3.8408   -0.2388   -2.9953 H   0  0  0  0  0  0  0  0  0  0  0  0
    2.7532   -0.7725   -4.4098 H   0  0  0  0  0  0  0  0  0  0  0  0
    1.7383   -2.3424   -3.0101 H   0  0  0  0  0  0  0  0  0  0  0  0
    1.3800   -0.9515    0.2917 H   0  0  0  0  0  0  0  0  0  0  0  0
    1.9882   -2.1999    2.1244 H   0  0  0  0  0  0  0  0  0  0  0  0
    2.9413   -3.3003    1.1435 H   0  0  0  0  0  0  0  0  0  0  0  0
    4.0787    0.0194    0.4391 H   0  0  0  0  0  0  0  0  0  0  0  0
    6.1793    0.9705    1.2383 H   0  0  0  0  0  0  0  0  0  0  0  0
    6.4862   -2.1212    4.0701 H   0  0  0  0  0  0  0  0  0  0  0  0
    4.3108   -3.1122    3.2459 H   0  0  0  0  0  0  0  0  0  0  0  0
    7.9575   -0.7434    5.2428 H   0  0  0  0  0  0  0  0  0  0  0  0
    9.3742   -0.9804    4.1693 H   0  0  0  0  0  0  0  0  0  0  0  0
    9.1327    1.4779    3.0931 H   0  0  0  0  0  0  0  0  0  0  0  0
  1  2  1  0
  2  3  1  0
  2  4  1  0
  2  5  1  0
  5  6  1  0
  6  7  1  0
  7  8  1  0
  8  9  1  0
  9 10  2  0
  9 11  1  0
 11 12  1  0
 12 13  1  0
 13 14  1  0
 14 15  1  0
 15 16  1  0
 16 17  2  0
 16 18  1  0
 18 19  1  0
 19 20  1  0
 20 21  1  0
 21 22  2  0
 22 23  1  0
 23 24  2  0
 24 25  1  0
 25 26  2  0
 19 27  1  0
 27 28  1  0
 28 29  1  0
 29 30  2  0
 29 31  1  0
 31 32  1  0
 32 33  1  0
 33 34  2  0
 34 35  1  0
 35 36  2  0
 36 37  1  0
 37 38  2  0
 36 39  1  0
 39 40  1  0
 39 41  2  3
  8  5  1  0
 15 11  1  0
 28 18  1  0
 38 33  1  0
 26 21  1  0
  1 42  1  0
  1 43  1  0
  1 44  1  0
  3 45  1  0
  3 46  1  0
  3 47  1  0
  4 48  1  0
  4 49  1  0
  4 50  1  0
  5 51  1  1
  6 52  1  0
  6 53  1  0
  7 54  1  0
  7 55  1  0
 11 56  1  1
 12 57  1  0
 12 58  1  0
 13 59  1  0
 13 60  1  0
 14 61  1  0
 14 62  1  0
 19 63  1  6
 20 64  1  0
 20 65  1  0
 22 66  1  0
 23 67  1  0
 24 68  1  0
 25 69  1  0
 26 70  1  0
 27 71  1  0
 27 72  1  0
 28 73  1  6
 31 74  1  0
 32 75  1  0
 32 76  1  0
 34 77  1  0
 35 78  1  0
 37 79  1  0
 38 80  1  0
 40 81  1  0
 40 82  1  0
 41 83  1  0
M  END
$$$$
[H]c1nc(N([H])c2c([H])c([H])c([H])c(N3C([H])([H])C([H])([H])N(C([H])([H])[H])C([H])([H])C3([H])[H])c2[H])nc(N([H])c2c([H])c([H])c([H])c(-c3c([H])c([H])c(C([H])([H])N4C([H])([H])C([H])([H])N(C([H])([H])[H])C([H])([H])C4([H])[H])c([H])c3[H])c2[H])c1F
     RDKit          3D

 81 86  0  0  0  0  0  0  0  0999 V2000
   -9.7003   -2.3771    2.2041 C   0  0  0  0  0  0  0  0  0  0  0  0
   -9.8983   -0.9624    2.2395 N   0  0  0  0  0  0  0  0  0  0  0  0
  -10.4153   -0.4632    1.0030 C   0  0  0  0  0  0  0  0  0  0  0  0
   -9.7224    0.8179    0.6733 C   0  0  0  0  0  0  0  0  0  0  0  0
   -8.2984    0.4974    0.4707 N   0  0  0  0  0  0  0  0  0  0  0  0
   -7.6953    1.7566    0.0554 C   0  0  0  0  0  0  0  0  0  0  0  0
   -6.2486    1.5696   -0.2267 C   0  0  0  0  0  0  0  0  0  0  0  0
   -5.7276    0.3406   -0.5744 C   0  0  0  0  0  0  0  0  0  0  0  0
   -4.3821    0.1688   -0.8362 C   0  0  0  0  0  0  0  0  0  0  0  0
   -3.4888    1.2159   -0.7644 C   0  0  0  0  0  0  0  0  0  0  0  0
   -4.0109    2.4559   -0.4140 C   0  0  0  0  0  0  0  0  0  0  0  0
   -5.3520    2.6299   -0.1523 C   0  0  0  0  0  0  0  0  0  0  0  0
   -2.0645    1.0714   -1.0416 C   0  0  0  0  0  0  0  0  0  0  0  0
   -1.1120    1.8476   -0.4067 C   0  0  0  0  0  0  0  0  0  0  0  0
    0.2265    1.6980   -0.6932 C   0  0  0  0  0  0  0  0  0  0  0  0
    0.6619    0.7564   -1.6353 C   0  0  0  0  0  0  0  0  0  0  0  0
   -0.2554   -0.0262   -2.2790 C   0  0  0  0  0  0  0  0  0  0  0  0
    0.0899   -1.0235   -3.2392 N   0  0  0  0  0  0  0  0  0  0  0  0
    1.2995   -1.6863   -3.4121 C   0  0  0  0  0  0  0  0  0  0  0  0
    2.3741   -1.5455   -2.6543 N   0  0  0  0  0  0  0  0  0  0  0  0
    3.5362   -2.1840   -2.7942 C   0  0  0  0  0  0  0  0  0  0  0  0
    4.6847   -2.0668   -1.9990 N   0  0  0  0  0  0  0  0  0  0  0  0
    4.7962   -1.2563   -0.8716 C   0  0  0  0  0  0  0  0  0  0  0  0
    3.7588   -0.9045   -0.0698 C   0  0  0  0  0  0  0  0  0  0  0  0
    3.9264   -0.0787    1.0211 C   0  0  0  0  0  0  0  0  0  0  0  0
    5.1405    0.4233    1.3475 C   0  0  0  0  0  0  0  0  0  0  0  0
    6.2466    0.0928    0.5555 C   0  0  0  0  0  0  0  0  0  0  0  0
    6.0506   -0.7369   -0.5327 C   0  0  0  0  0  0  0  0  0  0  0  0
    7.5086    0.6204    0.9111 N   0  0  0  0  0  0  0  0  0  0  0  0
    7.6590    1.3332    2.1600 C   0  0  0  0  0  0  0  0  0  0  0  0
    9.1419    1.2860    2.5086 C   0  0  0  0  0  0  0  0  0  0  0  0
    9.7100   -0.0159    2.2172 N   0  0  0  0  0  0  0  0  0  0  0  0
   11.0774    0.0153    2.7008 C   0  0  0  0  0  0  0  0  0  0  0  0
    9.7503   -0.2802    0.7926 C   0  0  0  0  0  0  0  0  0  0  0  0
    8.6551    0.4770    0.0620 C   0  0  0  0  0  0  0  0  0  0  0  0
    3.5851   -3.0709   -3.8433 N   0  0  0  0  0  0  0  0  0  0  0  0
    2.5592   -3.2910   -4.6700 C   0  0  0  0  0  0  0  0  0  0  0  0
    1.3858   -2.6025   -4.4754 C   0  0  0  0  0  0  0  0  0  0  0  0
    0.3560   -2.8318   -5.3138 F   0  0  0  0  0  0  0  0  0  0  0  0
   -1.6142    0.1605   -1.9550 C   0  0  0  0  0  0  0  0  0  0  0  0
   -7.7129    0.0428    1.7206 C   0  0  0  0  0  0  0  0  0  0  0  0
   -8.7768   -0.2203    2.7637 C   0  0  0  0  0  0  0  0  0  0  0  0
   -9.8664   -2.7195    1.1510 H   0  0  0  0  0  0  0  0  0  0  0  0
  -10.4513   -2.8581    2.8677 H   0  0  0  0  0  0  0  0  0  0  0  0
   -8.7000   -2.6712    2.5884 H   0  0  0  0  0  0  0  0  0  0  0  0
  -10.1561   -1.2023    0.1942 H   0  0  0  0  0  0  0  0  0  0  0  0
  -11.5178   -0.3248    1.0595 H   0  0  0  0  0  0  0  0  0  0  0  0
   -9.7662    1.5755    1.4595 H   0  0  0  0  0  0  0  0  0  0  0  0
  -10.0577    1.2329   -0.3006 H   0  0  0  0  0  0  0  0  0  0  0  0
   -7.7950    2.4953    0.8926 H   0  0  0  0  0  0  0  0  0  0  0  0
   -8.2016    2.1852   -0.8091 H   0  0  0  0  0  0  0  0  0  0  0  0
   -6.4077   -0.5097   -0.6432 H   0  0  0  0  0  0  0  0  0  0  0  0
   -3.9748   -0.8062   -1.1108 H   0  0  0  0  0  0  0  0  0  0  0  0
   -3.3081    3.2718   -0.3590 H   0  0  0  0  0  0  0  0  0  0  0  0
   -5.7685    3.5896    0.1208 H   0  0  0  0  0  0  0  0  0  0  0  0
   -1.4646    2.5685    0.3158 H   0  0  0  0  0  0  0  0  0  0  0  0
    0.9891    2.3039   -0.1994 H   0  0  0  0  0  0  0  0  0  0  0  0
    1.7179    0.6690   -1.8547 H   0  0  0  0  0  0  0  0  0  0  0  0
   -0.7182   -1.2770   -3.9146 H   0  0  0  0  0  0  0  0  0  0  0  0
    5.5369   -2.6545   -2.2966 H   0  0  0  0  0  0  0  0  0  0  0  0
    2.7394   -1.2783   -0.2509 H   0  0  0  0  0  0  0  0  0  0  0  0
    3.0704    0.1687    1.6230 H   0  0  0  0  0  0  0  0  0  0  0  0
    5.3014    1.0861    2.2149 H   0  0  0  0  0  0  0  0  0  0  0  0
    6.8619   -1.0217   -1.1677 H   0  0  0  0  0  0  0  0  0  0  0  0
    7.3076    2.3673    2.1050 H   0  0  0  0  0  0  0  0  0  0  0  0
    7.1559    0.7714    2.9974 H   0  0  0  0  0  0  0  0  0  0  0  0
    9.2142    1.4304    3.6122 H   0  0  0  0  0  0  0  0  0  0  0  0
    9.6759    2.1088    2.0097 H   0  0  0  0  0  0  0  0  0  0  0  0
   11.5991   -0.8599    2.3016 H   0  0  0  0  0  0  0  0  0  0  0  0
   11.1156    0.0851    3.8155 H   0  0  0  0  0  0  0  0  0  0  0  0
   11.5725    0.9213    2.2791 H   0  0  0  0  0  0  0  0  0  0  0  0
   10.7332   -0.0103    0.4067 H   0  0  0  0  0  0  0  0  0  0  0  0
    9.5470   -1.3628    0.6540 H   0  0  0  0  0  0  0  0  0  0  0  0
    9.0691    1.5288   -0.0544 H   0  0  0  0  0  0  0  0  0  0  0  0
    8.4811    0.0919   -0.9356 H   0  0  0  0  0  0  0  0  0  0  0  0
    2.6198   -4.0043   -5.5014 H   0  0  0  0  0  0  0  0  0  0  0  0
   -2.3428   -0.4597   -2.4645 H   0  0  0  0  0  0  0  0  0  0  0  0
   -7.0754   -0.8491    1.6189 H   0  0  0  0  0  0  0  0  0  0  0  0
   -7.0781    0.8663    2.1045 H   0  0  0  0  0  0  0  0  0  0  0  0
   -8.3071   -0.8377    3.5608 H   0  0  0  0  0  0  0  0  0  0  0  0
   -9.0549    0.7360    3.2156 H   0  0  0  0  0  0  0  0  0  0  0  0
  1  2  1  0
  2  3  1  0
  3  4  1  0
  4  5  1  0
  5  6  1  0
  6  7  1  0
  7  8  2  0
  8  9  1  0
  9 10  2  0
 10 11  1  0
 11 12  2  0
 10 13  1  0
 13 14  2  0
 14 15  1  0
 15 16  2  0
 16 17  1  0
 17 18  1  0
 18 19  1  0
 19 20  2  0
 20 21  1  0
 21 22  1  0
 22 23  1  0
 23 24  2  0
 24 25  1  0
 25 26  2  0
 26 27  1  0
 27 28  2  0
 27 29  1  0
 29 30  1  0
 30 31  1  0
 31 32  1  0
 32 33  1  0
 32 34  1  0
 34 35  1  0
 21 36  2  0
 36 37  1  0
 37 38  2  0
 38 39  1  0
 17 40  2  0
  5 41  1  0
 41 42  1  0
 42  2  1  0
 12  7  1  0
 40 13  1  0
 38 19  1  0
 28 23  1  0
 35 29  1  0
  1 43  1  0
  1 44  1  0
  1 45  1  0
  3 46  1  0
  3 47  1  0
  4 48  1  0
  4 49  1  0
  6 50  1  0
  6 51  1  0
  8 52  1  0
  9 53  1  0
 11 54  1  0
 12 55  1  0
 14 56  1  0
 15 57  1  0
 16 58  1  0
 18 59  1  0
 22 60  1  0
 24 61  1  0
 25 62  1  0
 26 63  1  0
 28 64  1  0
 30 65  1  0
 30 66  1  0
 31 67  1  0
 31 68  1  0
 33 69  1  0
 33 70  1  0
 33 71  1  0
 34 72  1  0
 34 73  1  0
 35 74  1  0
 35 75  1  0
 37 76  1  0
 40 77  1  0
 41 78  1  0
 41 79  1  0
 42 80  1  0
 42 81  1  0
M  END
$$$$
[H]c1nc(N([H])c2c([H])c([H])c(-c3nn(C([H])([H])[H])c([H])c3C([H])([H])[H])c([H])c2OC([H])([H])C([H])([H])[H])nc2c1N(C([H])([H])[H])C(=O)N(C1([H])C([H])([H])C([H])([H])N(C([H])([H])[H])C([H])([H])C1([H])[H])C2([H])[H]
     RDKit          3D

 70 74  0  0  0  0  0  0  0  0999 V2000
   -6.1698   -3.1695    1.0143 C   0  0  0  0  0  0  0  0  0  0  0  0
   -5.5685   -2.5432    2.2354 C   0  0  0  0  0  0  0  0  0  0  0  0
   -4.2491   -2.1765    1.9833 O   0  0  0  0  0  0  0  0  0  0  0  0
   -3.7868   -1.2816    1.0677 C   0  0  0  0  0  0  0  0  0  0  0  0
   -4.6585   -0.5960    0.2521 C   0  0  0  0  0  0  0  0  0  0  0  0
   -4.2124    0.3226   -0.6889 C   0  0  0  0  0  0  0  0  0  0  0  0
   -2.8619    0.5286   -0.7816 C   0  0  0  0  0  0  0  0  0  0  0  0
   -1.9692   -0.1710    0.0516 C   0  0  0  0  0  0  0  0  0  0  0  0
   -2.3917   -1.0764    0.9803 C   0  0  0  0  0  0  0  0  0  0  0  0
   -1.5599   -1.8040    1.8380 N   0  0  0  0  0  0  0  0  0  0  0  0
   -0.1579   -1.7872    1.9496 C   0  0  0  0  0  0  0  0  0  0  0  0
    0.4026   -2.6183    2.8925 N   0  0  0  0  0  0  0  0  0  0  0  0
    1.7200   -2.6939    3.0960 C   0  0  0  0  0  0  0  0  0  0  0  0
    2.5491   -1.9049    2.3272 C   0  0  0  0  0  0  0  0  0  0  0  0
    3.9640   -1.9171    2.4741 N   0  0  0  0  0  0  0  0  0  0  0  0
    4.5448   -2.8008    3.4750 C   0  0  0  0  0  0  0  0  0  0  0  0
    4.8132   -1.1007    1.6806 C   0  0  0  0  0  0  0  0  0  0  0  0
    6.0606   -1.1797    1.8830 O   0  0  0  0  0  0  0  0  0  0  0  0
    4.2436   -0.2377    0.7031 N   0  0  0  0  0  0  0  0  0  0  0  0
    2.8112   -0.1729    0.4931 C   0  0  0  0  0  0  0  0  0  0  0  0
    2.0312   -1.0494    1.3619 C   0  0  0  0  0  0  0  0  0  0  0  0
    0.6895   -1.0539    1.2422 N   0  0  0  0  0  0  0  0  0  0  0  0
    5.1568    0.5709   -0.0695 C   0  0  0  0  0  0  0  0  0  0  0  0
    4.8488    2.0389    0.0149 C   0  0  0  0  0  0  0  0  0  0  0  0
    5.8362    2.8199   -0.7725 C   0  0  0  0  0  0  0  0  0  0  0  0
    6.6112    2.1436   -1.7200 N   0  0  0  0  0  0  0  0  0  0  0  0
    7.9753    2.5090   -1.8488 C   0  0  0  0  0  0  0  0  0  0  0  0
    6.2153    0.9005   -2.2267 C   0  0  0  0  0  0  0  0  0  0  0  0
    5.0758    0.2143   -1.5594 C   0  0  0  0  0  0  0  0  0  0  0  0
   -5.1677    1.0401   -1.5457 C   0  0  0  0  0  0  0  0  0  0  0  0
   -5.0601    1.2361   -2.8822 N   0  0  0  0  0  0  0  0  0  0  0  0
   -6.1071    1.9231   -3.2986 N   0  0  0  0  0  0  0  0  0  0  0  0
   -6.3995    2.3548   -4.6574 C   0  0  0  0  0  0  0  0  0  0  0  0
   -6.9071    2.1831   -2.2460 C   0  0  0  0  0  0  0  0  0  0  0  0
   -6.3320    1.6319   -1.1176 C   0  0  0  0  0  0  0  0  0  0  0  0
   -6.8840    1.6902    0.2411 C   0  0  0  0  0  0  0  0  0  0  0  0
   -6.4476   -4.2329    1.2335 H   0  0  0  0  0  0  0  0  0  0  0  0
   -5.5052   -3.1294    0.1186 H   0  0  0  0  0  0  0  0  0  0  0  0
   -7.1032   -2.6390    0.7339 H   0  0  0  0  0  0  0  0  0  0  0  0
   -5.6328   -3.2662    3.0985 H   0  0  0  0  0  0  0  0  0  0  0  0
   -6.1599   -1.6637    2.5934 H   0  0  0  0  0  0  0  0  0  0  0  0
   -5.7348   -0.7197    0.2948 H   0  0  0  0  0  0  0  0  0  0  0  0
   -2.4863    1.2385   -1.5061 H   0  0  0  0  0  0  0  0  0  0  0  0
   -0.9204    0.0505   -0.0862 H   0  0  0  0  0  0  0  0  0  0  0  0
   -2.0575   -2.4869    2.5248 H   0  0  0  0  0  0  0  0  0  0  0  0
    2.1790   -3.3366    3.8276 H   0  0  0  0  0  0  0  0  0  0  0  0
    4.0595   -2.5740    4.4371 H   0  0  0  0  0  0  0  0  0  0  0  0
    4.3351   -3.8539    3.1822 H   0  0  0  0  0  0  0  0  0  0  0  0
    5.6320   -2.6848    3.4850 H   0  0  0  0  0  0  0  0  0  0  0  0
    2.5919   -0.4602   -0.5649 H   0  0  0  0  0  0  0  0  0  0  0  0
    2.4288    0.8776    0.6530 H   0  0  0  0  0  0  0  0  0  0  0  0
    6.1899    0.3645    0.2533 H   0  0  0  0  0  0  0  0  0  0  0  0
    3.7979    2.1856   -0.3268 H   0  0  0  0  0  0  0  0  0  0  0  0
    4.8710    2.3894    1.0672 H   0  0  0  0  0  0  0  0  0  0  0  0
    6.5130    3.4047   -0.0874 H   0  0  0  0  0  0  0  0  0  0  0  0
    5.2547    3.6294   -1.3075 H   0  0  0  0  0  0  0  0  0  0  0  0
    8.0819    3.5544   -1.4370 H   0  0  0  0  0  0  0  0  0  0  0  0
    8.3655    2.5499   -2.8818 H   0  0  0  0  0  0  0  0  0  0  0  0
    8.5895    1.8654   -1.1846 H   0  0  0  0  0  0  0  0  0  0  0  0
    7.0941    0.1979   -2.1840 H   0  0  0  0  0  0  0  0  0  0  0  0
    5.9959    0.9883   -3.3258 H   0  0  0  0  0  0  0  0  0  0  0  0
    5.1578   -0.8643   -1.7225 H   0  0  0  0  0  0  0  0  0  0  0  0
    4.0986    0.5972   -1.9536 H   0  0  0  0  0  0  0  0  0  0  0  0
   -5.9302    1.5982   -5.3407 H   0  0  0  0  0  0  0  0  0  0  0  0
   -5.9404    3.3550   -4.7860 H   0  0  0  0  0  0  0  0  0  0  0  0
   -7.4815    2.3956   -4.8230 H   0  0  0  0  0  0  0  0  0  0  0  0
   -7.8433    2.7292   -2.2654 H   0  0  0  0  0  0  0  0  0  0  0  0
   -7.6326    0.9090    0.4543 H   0  0  0  0  0  0  0  0  0  0  0  0
   -6.0864    1.5885    1.0105 H   0  0  0  0  0  0  0  0  0  0  0  0
   -7.3803    2.6698    0.4037 H   0  0  0  0  0  0  0  0  0  0  0  0
  1  2  1  0
  2  3  1  0
  3  4  1  0
  4  5  2  0
  5  6  1  0
  6  7  2  0
  7  8  1  0
  8  9  2  0
  9 10  1  0
 10 11  1  0
 11 12  2  0
 12 13  1  0
 13 14  2  0
 14 15  1  0
 15 16  1  0
 15 17  1  0
 17 18  2  0
 17 19  1  0
 19 20  1  0
 20 21  1  0
 21 22  2  0
 19 23  1  0
 23 24  1  0
 24 25  1  0
 25 26  1  0
 26 27  1  0
 26 28  1  0
 28 29  1  0
  6 30  1  0
 30 31  2  0
 31 32  1  0
 32 33  1  0
 32 34  1  0
 34 35  2  0
 35 36  1  0
  9  4  1  0
 22 11  1  0
 29 23  1  0
 35 30  1  0
 21 14  1  0
  1 37  1  0
  1 38  1  0
  1 39  1  0
  2 40  1  0
  2 41  1  0
  5 42  1  0
  7 43  1  0
  8 44  1  0
 10 45  1  0
 13 46  1  0
 16 47  1  0
 16 48  1  0
 16 49  1  0
 20 50  1  0
 20 51  1  0
 23 52  1  0
 24 53  1  0
 24 54  1  0
 25 55  1  0
 25 56  1  0
 27 57  1  0
 27 58  1  0
 27 59  1  0
 28 60  1  0
 28 61  1  0
 29 62  1  0
 29 63  1  0
 33 64  1  0
 33 65  1  0
 33 66  1  0
 34 67  1  0
 36 68  1  0
 36 69  1  0
 36 70  1  0
M  END
$$$$
[H]c1c([H])c([H])c(C2(N([H])C([H])([H])C3([H])C([H])([H])C([H])([H])C([H])([H])C([H])([H])C3([H])[H])C([H])([H])C([H])([H])N(S(=O)(=O)C([H])([H])[H])C([H])([H])C2([H])[H])c([H])c1[H]
     RDKit          3D

 54 56  0  0  0  0  0  0  0  0999 V2000
   -5.3159    2.9996   -0.0920 C   0  0  0  0  0  0  0  0  0  0  0  0
   -3.7567    2.3417   -0.6413 S   0  0  0  0  0  0  0  0  0  0  0  0
   -2.7149    3.4246   -0.4278 O   0  0  0  0  0  0  0  0  0  0  0  0
   -3.8021    2.0067   -2.1062 O   0  0  0  0  0  0  0  0  0  0  0  0
   -3.3886    0.9896    0.3034 N   0  0  0  0  0  0  0  0  0  0  0  0
   -3.3615   -0.2736   -0.3349 C   0  0  0  0  0  0  0  0  0  0  0  0
   -2.0585   -0.4451   -1.0179 C   0  0  0  0  0  0  0  0  0  0  0  0
   -0.8405   -0.3552   -0.0764 C   0  0  0  0  0  0  0  0  0  0  0  0
   -1.0111    0.7488    0.9151 C   0  0  0  0  0  0  0  0  0  0  0  0
   -2.3917    1.1435    1.2818 C   0  0  0  0  0  0  0  0  0  0  0  0
    0.2231   -0.0606   -0.9462 N   0  0  0  0  0  0  0  0  0  0  0  0
    1.5059   -0.4857   -0.8960 C   0  0  0  0  0  0  0  0  0  0  0  0
    2.4509   -0.0670    0.1673 C   0  0  0  0  0  0  0  0  0  0  0  0
    2.6503    1.4352    0.1850 C   0  0  0  0  0  0  0  0  0  0  0  0
    4.0128    1.8102    0.7281 C   0  0  0  0  0  0  0  0  0  0  0  0
    5.0732    1.4510   -0.2766 C   0  0  0  0  0  0  0  0  0  0  0  0
    4.6154    0.2369   -1.0575 C   0  0  0  0  0  0  0  0  0  0  0  0
    3.8362   -0.6471   -0.1406 C   0  0  0  0  0  0  0  0  0  0  0  0
   -0.8054   -1.7186    0.5322 C   0  0  0  0  0  0  0  0  0  0  0  0
   -0.9253   -1.9841    1.8686 C   0  0  0  0  0  0  0  0  0  0  0  0
   -0.8883   -3.2810    2.3770 C   0  0  0  0  0  0  0  0  0  0  0  0
   -0.7270   -4.3544    1.5334 C   0  0  0  0  0  0  0  0  0  0  0  0
   -0.6047   -4.0944    0.1856 C   0  0  0  0  0  0  0  0  0  0  0  0
   -0.6429   -2.8077   -0.3050 C   0  0  0  0  0  0  0  0  0  0  0  0
   -5.8740    2.1853    0.4122 H   0  0  0  0  0  0  0  0  0  0  0  0
   -5.9073    3.4518   -0.9153 H   0  0  0  0  0  0  0  0  0  0  0  0
   -5.0918    3.7387    0.7137 H   0  0  0  0  0  0  0  0  0  0  0  0
   -4.1447   -0.2943   -1.1225 H   0  0  0  0  0  0  0  0  0  0  0  0
   -3.6314   -1.0558    0.3882 H   0  0  0  0  0  0  0  0  0  0  0  0
   -2.0570   -1.4062   -1.5570 H   0  0  0  0  0  0  0  0  0  0  0  0
   -1.9759    0.3337   -1.8164 H   0  0  0  0  0  0  0  0  0  0  0  0
   -0.5324    1.6735    0.4575 H   0  0  0  0  0  0  0  0  0  0  0  0
   -0.4522    0.6257    1.8622 H   0  0  0  0  0  0  0  0  0  0  0  0
   -2.7535    0.6127    2.2088 H   0  0  0  0  0  0  0  0  0  0  0  0
   -2.3915    2.2274    1.6062 H   0  0  0  0  0  0  0  0  0  0  0  0
   -0.0470    0.2864   -1.9147 H   0  0  0  0  0  0  0  0  0  0  0  0
    1.5757   -1.5938   -0.9757 H   0  0  0  0  0  0  0  0  0  0  0  0
    2.0269   -0.1701   -1.8606 H   0  0  0  0  0  0  0  0  0  0  0  0
    2.2309   -0.3877    1.1779 H   0  0  0  0  0  0  0  0  0  0  0  0
    1.8480    1.9935    0.6598 H   0  0  0  0  0  0  0  0  0  0  0  0
    2.6571    1.7583   -0.8965 H   0  0  0  0  0  0  0  0  0  0  0  0
    4.2166    1.3786    1.7280 H   0  0  0  0  0  0  0  0  0  0  0  0
    4.0169    2.9126    0.8427 H   0  0  0  0  0  0  0  0  0  0  0  0
    5.3248    2.3119   -0.9444 H   0  0  0  0  0  0  0  0  0  0  0  0
    6.0319    1.2335    0.2651 H   0  0  0  0  0  0  0  0  0  0  0  0
    5.5022   -0.3294   -1.4229 H   0  0  0  0  0  0  0  0  0  0  0  0
    3.9680    0.5391   -1.9020 H   0  0  0  0  0  0  0  0  0  0  0  0
    3.6543   -1.6672   -0.5810 H   0  0  0  0  0  0  0  0  0  0  0  0
    4.4224   -0.8159    0.7941 H   0  0  0  0  0  0  0  0  0  0  0  0
   -1.0557   -1.1431    2.5377 H   0  0  0  0  0  0  0  0  0  0  0  0
   -0.9873   -3.4250    3.4412 H   0  0  0  0  0  0  0  0  0  0  0  0
   -0.6960   -5.3795    1.9236 H   0  0  0  0  0  0  0  0  0  0  0  0
   -0.4779   -4.9534   -0.4783 H   0  0  0  0  0  0  0  0  0  0  0  0
   -0.5329   -2.6542   -1.3760 H   0  0  0  0  0  0  0  0  0  0  0  0
  1  2  1  0
  2  3  2  0
  2  4  2  0
  2  5  1  0
  5  6  1  0
  6  7  1  0
  7  8  1  0
  8  9  1  0
  9 10  1  0
  8 11  1  0
 11 12  1  0
 12 13  1  0
 13 14  1  0
 14 15  1  0
 15 16  1  0
 16 17  1  0
 17 18  1  0
  8 19  1  0
 19 20  2  0
 20 21  1  0
 21 22  2  0
 22 23  1  0
 23 24  2  0
 10  5  1  0
 18 13  1  0
 24 19  1  0
  1 25  1  0
  1 26  1  0
  1 27  1  0
  6 28  1  0
  6 29  1  0
  7 30  1  0
  7 31  1  0
  9 32  1  0
  9 33  1  0
 10 34  1  0
 10 35  1  0
 11 36  1  0
 12 37  1  0
 12 38  1  0
 13 39  1  0
 14 40  1  0
 14 41  1  0
 15 42  1  0
 15 43  1  0
 16 44  1  0
 16 45  1  0
 17 46  1  0
 17 47  1  0
 18 48  1  0
 18 49  1  0
 20 50  1  0
 21 51  1  0
 22 52  1  0
 23 53  1  0
 24 54  1  0
M  END
$$$$
[H]OC([H])([H])C1(N([H])C(=O)c2c([H])c([H])c(Oc3c([H])nc([H])c4sc(C(=O)N([H])C([H])([H])[H])c([H])c34)c([H])c2[H])C([H])([H])C1([H])[H]
     RDKit          3D

 47 50  0  0  0  0  0  0  0  0999 V2000
    8.1233    3.0001   -0.5780 C   0  0  0  0  0  0  0  0  0  0  0  0
    7.0521    2.0598   -0.3562 N   0  0  0  0  0  0  0  0  0  0  0  0
    7.2972    0.7622    0.1075 C   0  0  0  0  0  0  0  0  0  0  0  0
    8.4548    0.3843    0.3418 O   0  0  0  0  0  0  0  0  0  0  0  0
    6.1910   -0.1596    0.3197 C   0  0  0  0  0  0  0  0  0  0  0  0
    4.8499    0.0509    0.1255 C   0  0  0  0  0  0  0  0  0  0  0  0
    4.0157   -0.9715    0.3969 C   0  0  0  0  0  0  0  0  0  0  0  0
    2.6097   -0.9850    0.2729 C   0  0  0  0  0  0  0  0  0  0  0  0
    1.9148    0.1336   -0.1710 O   0  0  0  0  0  0  0  0  0  0  0  0
    0.5336    0.0784   -0.2786 C   0  0  0  0  0  0  0  0  0  0  0  0
   -0.3068    0.4207    0.7579 C   0  0  0  0  0  0  0  0  0  0  0  0
   -1.7026    0.3630    0.6435 C   0  0  0  0  0  0  0  0  0  0  0  0
   -2.2808   -0.0461   -0.5330 C   0  0  0  0  0  0  0  0  0  0  0  0
   -1.4320   -0.3890   -1.5715 C   0  0  0  0  0  0  0  0  0  0  0  0
   -0.0584   -0.3311   -1.4556 C   0  0  0  0  0  0  0  0  0  0  0  0
   -3.7375   -0.1314   -0.7262 C   0  0  0  0  0  0  0  0  0  0  0  0
   -4.1709   -0.5249   -1.8632 O   0  0  0  0  0  0  0  0  0  0  0  0
   -4.6762    0.1901    0.2535 N   0  0  0  0  0  0  0  0  0  0  0  0
   -6.0983    0.1211    0.1038 C   0  0  0  0  0  0  0  0  0  0  0  0
   -6.8896    0.5266    1.3600 C   0  0  0  0  0  0  0  0  0  0  0  0
   -8.2399    0.3987    1.0295 O   0  0  0  0  0  0  0  0  0  0  0  0
   -6.7787    0.4591   -1.1767 C   0  0  0  0  0  0  0  0  0  0  0  0
   -6.7682   -0.9369   -0.7160 C   0  0  0  0  0  0  0  0  0  0  0  0
    1.9264   -2.1339    0.6010 C   0  0  0  0  0  0  0  0  0  0  0  0
    2.4724   -3.2644    1.0353 N   0  0  0  0  0  0  0  0  0  0  0  0
    3.8120   -3.2736    1.1610 C   0  0  0  0  0  0  0  0  0  0  0  0
    4.5704   -2.1356    0.8434 C   0  0  0  0  0  0  0  0  0  0  0  0
    6.2390   -1.7762    0.8738 S   0  0  0  0  0  0  0  0  0  0  0  0
    8.9154    2.7737    0.1640 H   0  0  0  0  0  0  0  0  0  0  0  0
    7.7530    4.0302   -0.3611 H   0  0  0  0  0  0  0  0  0  0  0  0
    8.4909    2.9637   -1.6196 H   0  0  0  0  0  0  0  0  0  0  0  0
    6.0766    2.3680   -0.5502 H   0  0  0  0  0  0  0  0  0  0  0  0
    4.5343    1.0582   -0.2458 H   0  0  0  0  0  0  0  0  0  0  0  0
    0.1540    0.7444    1.6888 H   0  0  0  0  0  0  0  0  0  0  0  0
   -2.3161    0.6434    1.4894 H   0  0  0  0  0  0  0  0  0  0  0  0
   -1.8799   -0.7135   -2.5052 H   0  0  0  0  0  0  0  0  0  0  0  0
    0.6037   -0.6045   -2.2830 H   0  0  0  0  0  0  0  0  0  0  0  0
   -4.2823    0.5121    1.1850 H   0  0  0  0  0  0  0  0  0  0  0  0
   -6.6751   -0.1610    2.1970 H   0  0  0  0  0  0  0  0  0  0  0  0
   -6.7176    1.5926    1.6032 H   0  0  0  0  0  0  0  0  0  0  0  0
   -8.8142    0.5555    1.8081 H   0  0  0  0  0  0  0  0  0  0  0  0
   -6.2473    0.6906   -2.1081 H   0  0  0  0  0  0  0  0  0  0  0  0
   -7.7599    1.0212   -1.1299 H   0  0  0  0  0  0  0  0  0  0  0  0
   -6.1739   -1.7409   -1.1992 H   0  0  0  0  0  0  0  0  0  0  0  0
   -7.7609   -1.3391   -0.3517 H   0  0  0  0  0  0  0  0  0  0  0  0
    0.8278   -2.1557    0.5080 H   0  0  0  0  0  0  0  0  0  0  0  0
    4.3492   -4.1282    1.5007 H   0  0  0  0  0  0  0  0  0  0  0  0
  1  2  1  0
  2  3  1  0
  3  4  2  0
  3  5  1  0
  5  6  2  0
  6  7  1  0
  7  8  2  0
  8  9  1  0
  9 10  1  0
 10 11  2  0
 11 12  1  0
 12 13  2  0
 13 14  1  0
 14 15  2  0
 13 16  1  0
 16 17  2  0
 16 18  1  0
 18 19  1  0
 19 20  1  0
 20 21  1  0
 19 22  1  0
 22 23  1  0
  8 24  1  0
 24 25  2  0
 25 26  1  0
 26 27  2  0
 27 28  1  0
 28  5  1  0
 27  7  1  0
 15 10  1  0
 23 19  1  0
  1 29  1  0
  1 30  1  0
  1 31  1  0
  2 32  1  0
  6 33  1  0
 11 34  1  0
 12 35  1  0
 14 36  1  0
 15 37  1  0
 18 38  1  0
 20 39  1  0
 20 40  1  0
 21 41  1  0
 22 42  1  0
 22 43  1  0
 23 44  1  0
 23 45  1  0
 24 46  1  0
 26 47  1  0
M  END
$$$$
[H]c1nc(N(c2nc3c([H])c(-c4c([H])nc([H])c(C#N)c4[H])nc([H])c3c([H])c2[H])C([H])([H])C([H])([H])[H])c(C(F)(F)F)c([H])c1[H]
     RDKit          3D

 46 49  0  0  0  0  0  0  0  0999 V2000
   -2.4062   -2.5639   -1.1497 C   0  0  0  0  0  0  0  0  0  0  0  0
   -3.3526   -1.6839   -0.3730 C   0  0  0  0  0  0  0  0  0  0  0  0
   -2.7793   -0.4593    0.1037 N   0  0  0  0  0  0  0  0  0  0  0  0
   -1.5520   -0.5994    0.8284 C   0  0  0  0  0  0  0  0  0  0  0  0
   -1.6027   -0.9661    2.1797 C   0  0  0  0  0  0  0  0  0  0  0  0
   -0.4648   -1.1229    2.9415 C   0  0  0  0  0  0  0  0  0  0  0  0
    0.7670   -0.9187    2.3783 C   0  0  0  0  0  0  0  0  0  0  0  0
    1.9676   -1.0512    3.0580 C   0  0  0  0  0  0  0  0  0  0  0  0
    3.1427   -0.8341    2.4404 N   0  0  0  0  0  0  0  0  0  0  0  0
    3.2329   -0.4808    1.1477 C   0  0  0  0  0  0  0  0  0  0  0  0
    2.0469   -0.3482    0.4682 C   0  0  0  0  0  0  0  0  0  0  0  0
    0.7959   -0.5584    1.0469 C   0  0  0  0  0  0  0  0  0  0  0  0
   -0.3323   -0.4147    0.3343 N   0  0  0  0  0  0  0  0  0  0  0  0
    4.5214   -0.2559    0.4926 C   0  0  0  0  0  0  0  0  0  0  0  0
    5.7039   -0.4554    1.1994 C   0  0  0  0  0  0  0  0  0  0  0  0
    6.8996   -0.2444    0.6101 N   0  0  0  0  0  0  0  0  0  0  0  0
    7.0450    0.1604   -0.6597 C   0  0  0  0  0  0  0  0  0  0  0  0
    5.9091    0.3742   -1.4084 C   0  0  0  0  0  0  0  0  0  0  0  0
    5.9974    0.8071   -2.7721 C   0  0  0  0  0  0  0  0  0  0  0  0
    6.0489    1.1481   -3.8771 N   0  0  0  0  0  0  0  0  0  0  0  0
    4.6543    0.1598   -0.8122 C   0  0  0  0  0  0  0  0  0  0  0  0
   -3.3670    0.8082   -0.0297 C   0  0  0  0  0  0  0  0  0  0  0  0
   -3.7969    1.4183    1.1540 N   0  0  0  0  0  0  0  0  0  0  0  0
   -4.3753    2.6189    1.1665 C   0  0  0  0  0  0  0  0  0  0  0  0
   -4.5741    3.3098    0.0057 C   0  0  0  0  0  0  0  0  0  0  0  0
   -4.1767    2.7626   -1.1600 C   0  0  0  0  0  0  0  0  0  0  0  0
   -3.5652    1.4985   -1.1877 C   0  0  0  0  0  0  0  0  0  0  0  0
   -3.1582    0.9658   -2.4940 C   0  0  0  0  0  0  0  0  0  0  0  0
   -1.8134    0.6624   -2.6043 F   0  0  0  0  0  0  0  0  0  0  0  0
   -3.9976    0.0381   -3.0496 F   0  0  0  0  0  0  0  0  0  0  0  0
   -3.2691    2.0631   -3.4130 F   0  0  0  0  0  0  0  0  0  0  0  0
   -1.5264   -2.0484   -1.5486 H   0  0  0  0  0  0  0  0  0  0  0  0
   -2.0431   -3.4481   -0.5647 H   0  0  0  0  0  0  0  0  0  0  0  0
   -2.9540   -2.9942   -2.0121 H   0  0  0  0  0  0  0  0  0  0  0  0
   -4.3521   -1.6090   -0.8127 H   0  0  0  0  0  0  0  0  0  0  0  0
   -3.5628   -2.2946    0.5852 H   0  0  0  0  0  0  0  0  0  0  0  0
   -2.5463   -1.1340    2.6620 H   0  0  0  0  0  0  0  0  0  0  0  0
   -0.4920   -1.4070    3.9881 H   0  0  0  0  0  0  0  0  0  0  0  0
    1.9292   -1.3394    4.1155 H   0  0  0  0  0  0  0  0  0  0  0  0
    2.0148   -0.0634   -0.5927 H   0  0  0  0  0  0  0  0  0  0  0  0
    5.6655   -0.7787    2.2157 H   0  0  0  0  0  0  0  0  0  0  0  0
    8.0032    0.3279   -1.1267 H   0  0  0  0  0  0  0  0  0  0  0  0
    3.7835    0.3331   -1.4019 H   0  0  0  0  0  0  0  0  0  0  0  0
   -4.6841    3.0264    2.1385 H   0  0  0  0  0  0  0  0  0  0  0  0
   -5.0527    4.2935    0.0377 H   0  0  0  0  0  0  0  0  0  0  0  0
   -4.3322    3.2979   -2.0791 H   0  0  0  0  0  0  0  0  0  0  0  0
  1  2  1  0
  2  3  1  0
  3  4  1  0
  4  5  2  0
  5  6  1  0
  6  7  2  0
  7  8  1  0
  8  9  2  0
  9 10  1  0
 10 11  2  0
 11 12  1  0
 12 13  2  0
 10 14  1  0
 14 15  2  0
 15 16  1  0
 16 17  2  0
 17 18  1  0
 18 19  1  0
 19 20  3  0
 18 21  2  0
  3 22  1  0
 22 23  2  0
 23 24  1  0
 24 25  2  0
 25 26  1  0
 26 27  2  0
 27 28  1  0
 28 29  1  0
 28 30  1  0
 28 31  1  0
 13  4  1  0
 21 14  1  0
 27 22  1  0
 12  7  1  0
  1 32  1  0
  1 33  1  0
  1 34  1  0
  2 35  1  0
  2 36  1  0
  5 37  1  0
  6 38  1  0
  8 39  1  0
 11 40  1  0
 15 41  1  0
 17 42  1  0
 21 43  1  0
 24 44  1  0
 25 45  1  0
 26 46  1  0
M  END
$$$$
[H]C([H])=C([H])C([H])([H])N1C2([H])C([H])([H])C([H])([H])C1([H])C([H])([H])C([H])(c1c([H])c([H])c(OC([H])([H])[H])c([H])c1[H])C2([H])[H]
     RDKit          3D

 42 44  0  0  0  0  0  0  0  0999 V2000
    6.6956   -0.9207    0.3168 C   0  0  0  0  0  0  0  0  0  0  0  0
    5.5187   -1.5009   -0.1505 O   0  0  0  0  0  0  0  0  0  0  0  0
    4.2648   -0.9197   -0.0391 C   0  0  0  0  0  0  0  0  0  0  0  0
    4.0248    0.3056    0.5469 C   0  0  0  0  0  0  0  0  0  0  0  0
    2.7628    0.8547    0.6411 C   0  0  0  0  0  0  0  0  0  0  0  0
    1.6838    0.1904    0.1470 C   0  0  0  0  0  0  0  0  0  0  0  0
    1.8844   -1.0461   -0.4505 C   0  0  0  0  0  0  0  0  0  0  0  0
    3.1533   -1.5817   -0.5369 C   0  0  0  0  0  0  0  0  0  0  0  0
    0.2896    0.7160    0.2108 C   0  0  0  0  0  0  0  0  0  0  0  0
   -0.2967    0.8277   -1.1706 C   0  0  0  0  0  0  0  0  0  0  0  0
   -1.8363    0.8359   -1.1084 C   0  0  0  0  0  0  0  0  0  0  0  0
   -2.2627    1.9517   -0.1699 C   0  0  0  0  0  0  0  0  0  0  0  0
   -2.4143    1.2628    1.1439 C   0  0  0  0  0  0  0  0  0  0  0  0
   -1.9792   -0.1654    0.8743 C   0  0  0  0  0  0  0  0  0  0  0  0
   -0.4816   -0.2170    1.1122 C   0  0  0  0  0  0  0  0  0  0  0  0
   -2.1904   -0.4066   -0.5168 N   0  0  0  0  0  0  0  0  0  0  0  0
   -3.4176   -0.9992   -0.8839 C   0  0  0  0  0  0  0  0  0  0  0  0
   -4.6407   -0.3189   -0.4475 C   0  0  0  0  0  0  0  0  0  0  0  0
   -5.5071   -0.9311    0.3328 C   0  0  0  0  0  0  0  0  0  0  0  0
    7.0748   -0.1627   -0.3889 H   0  0  0  0  0  0  0  0  0  0  0  0
    6.4888   -0.3897    1.2725 H   0  0  0  0  0  0  0  0  0  0  0  0
    7.4798   -1.6854    0.5749 H   0  0  0  0  0  0  0  0  0  0  0  0
    4.8970    0.8375    0.9437 H   0  0  0  0  0  0  0  0  0  0  0  0
    2.5944    1.8193    1.1053 H   0  0  0  0  0  0  0  0  0  0  0  0
    1.0104   -1.5736   -0.8460 H   0  0  0  0  0  0  0  0  0  0  0  0
    3.2982   -2.5640   -1.0134 H   0  0  0  0  0  0  0  0  0  0  0  0
    0.3217    1.6945    0.6857 H   0  0  0  0  0  0  0  0  0  0  0  0
    0.0080    1.7947   -1.5936 H   0  0  0  0  0  0  0  0  0  0  0  0
   -0.0314   -0.0409   -1.8047 H   0  0  0  0  0  0  0  0  0  0  0  0
   -2.1859    0.9986   -2.1282 H   0  0  0  0  0  0  0  0  0  0  0  0
   -1.4994    2.7615   -0.1308 H   0  0  0  0  0  0  0  0  0  0  0  0
   -3.2040    2.4165   -0.4926 H   0  0  0  0  0  0  0  0  0  0  0  0
   -1.7220    1.7550    1.8722 H   0  0  0  0  0  0  0  0  0  0  0  0
   -3.4203    1.3202    1.5866 H   0  0  0  0  0  0  0  0  0  0  0  0
   -2.4512   -0.8961    1.5387 H   0  0  0  0  0  0  0  0  0  0  0  0
   -0.3280    0.0364    2.1798 H   0  0  0  0  0  0  0  0  0  0  0  0
   -0.1462   -1.2790    0.9518 H   0  0  0  0  0  0  0  0  0  0  0  0
   -3.4354   -2.0935   -0.6267 H   0  0  0  0  0  0  0  0  0  0  0  0
   -3.4471   -1.0070   -2.0148 H   0  0  0  0  0  0  0  0  0  0  0  0
   -4.8216    0.6854   -0.7757 H   0  0  0  0  0  0  0  0  0  0  0  0
   -5.3300   -1.9384    0.6611 H   0  0  0  0  0  0  0  0  0  0  0  0
   -6.4015   -0.4270    0.6496 H   0  0  0  0  0  0  0  0  0  0  0  0
  1  2  1  0
  2  3  1  0
  3  4  2  0
  4  5  1  0
  5  6  2  0
  6  7  1  0
  7  8  2  0
  6  9  1  0
  9 10  1  0
 10 11  1  0
 11 12  1  0
 12 13  1  0
 13 14  1  0
 14 15  1  0
 14 16  1  0
 16 17  1  0
 17 18  1  0
 18 19  2  3
  8  3  1  0
 15  9  1  0
 16 11  1  0
  1 20  1  0
  1 21  1  0
  1 22  1  0
  4 23  1  0
  5 24  1  0
  7 25  1  0
  8 26  1  0
  9 27  1  0
 10 28  1  0
 10 29  1  0
 11 30  1  0
 12 31  1  0
 12 32  1  0
 13 33  1  0
 13 34  1  0
 14 35  1  0
 15 36  1  0
 15 37  1  0
 17 38  1  0
 17 39  1  0
 18 40  1  0
 19 41  1  0
 19 42  1  0
M  END
$$$$
[H]c1nc(C(F)(F)F)c([H])nc1N1C([H])([H])[C@]2([H])N(C([H])([H])[H])C(N([H])[H])=N[C@]1([H])C([H])([H])C2([H])[H]
     RDKit          2D

 36 38  0  0  0  0  0  0  0  0999 V2000
    3.2286   -0.0000    0.0000 C   0  0  0  0  0  0  0  0  0  0  0  0
    1.7286    0.0000    0.0000 N   0  0  0  0  0  0  0  0  0  0  0  0
    1.0777    1.3515    0.0000 C   0  0  0  0  0  0  0  0  0  0  0  0
    2.0130    2.5242    0.0000 N   0  0  0  0  0  0  0  0  0  0  0  0
   -0.3846    1.6852    0.0000 N   0  0  0  0  0  0  0  0  0  0  0  0
   -1.5574    0.7500    0.0000 C   0  0  0  0  0  0  0  0  0  0  0  0
   -1.5574   -0.7500    0.0000 C   0  0  0  0  0  0  0  0  0  0  0  0
   -0.3846   -1.6852    0.0000 C   0  0  0  0  0  0  0  0  0  0  0  0
    1.0777   -1.3515    0.0000 C   0  0  0  0  0  0  0  0  0  0  0  0
    0.4471   -0.1552    0.0000 C   0  0  0  0  0  0  0  0  0  0  0  0
   -0.2508    0.4013    0.0000 N   0  0  0  0  0  0  0  0  0  0  0  0
    0.2388    2.5462    0.0000 C   0  0  0  0  0  0  0  0  0  0  0  0
    1.6721    2.9883    0.0000 C   0  0  0  0  0  0  0  0  0  0  0  0
    2.0059    4.4507    0.0000 N   0  0  0  0  0  0  0  0  0  0  0  0
    0.9063    5.4710    0.0000 C   0  0  0  0  0  0  0  0  0  0  0  0
   -0.5270    5.0288    0.0000 C   0  0  0  0  0  0  0  0  0  0  0  0
   -0.8608    3.5664    0.0000 N   0  0  0  0  0  0  0  0  0  0  0  0
    1.2401    6.9333    0.0000 C   0  0  0  0  0  0  0  0  0  0  0  0
    1.5739    8.3957    0.0000 F   0  0  0  0  0  0  0  0  0  0  0  0
    2.7025    6.5996    0.0000 F   0  0  0  0  0  0  0  0  0  0  0  0
   -0.2223    7.2671    0.0000 F   0  0  0  0  0  0  0  0  0  0  0  0
    4.7286    0.0000    0.0000 H   0  0  0  0  0  0  0  0  0  0  0  0
    3.2286   -1.5000    0.0000 H   0  0  0  0  0  0  0  0  0  0  0  0
    3.5915    1.4554    0.0000 H   0  0  0  0  0  0  0  0  0  0  0  0
    3.4962    2.3006    0.0000 H   0  0  0  0  0  0  0  0  0  0  0  0
    1.8191    4.0116    0.0000 H   0  0  0  0  0  0  0  0  0  0  0  0
   -2.9088    1.4008    0.0000 H   0  0  0  0  0  0  0  0  0  0  0  0
   -2.3681   -2.0120    0.0000 H   0  0  0  0  0  0  0  0  0  0  0  0
   -3.0198   -0.4162    0.0000 H   0  0  0  0  0  0  0  0  0  0  0  0
    0.2662   -3.0367    0.0000 H   0  0  0  0  0  0  0  0  0  0  0  0
   -1.4346   -2.7564    0.0000 H   0  0  0  0  0  0  0  0  0  0  0  0
    2.0130   -2.5242    0.0000 H   0  0  0  0  0  0  0  0  0  0  0  0
    2.5256    0.5405    0.0000 H   0  0  0  0  0  0  0  0  0  0  0  0
    1.3822    1.6173    0.0000 H   0  0  0  0  0  0  0  0  0  0  0  0
    2.9859    2.2644    0.0000 H   0  0  0  0  0  0  0  0  0  0  0  0
   -1.6266    6.0491    0.0000 H   0  0  0  0  0  0  0  0  0  0  0  0
  1  2  1  0
  2  3  1  0
  3  4  1  0
  3  5  2  0
  5  6  1  0
  6  7  1  0
  7  8  1  0
  8  9  1  0
  9 10  1  0
 10 11  1  0
 11 12  1  0
 12 13  2  0
 13 14  1  0
 14 15  2  0
 15 16  1  0
 16 17  2  0
 15 18  1  0
 18 19  1  0
 18 20  1  0
 18 21  1  0
  9  2  1  0
 17 12  1  0
 11  6  1  0
  1 22  1  0
  1 23  1  0
  1 24  1  0
  4 25  1  0
  4 26  1  0
  6 27  1  6
  7 28  1  0
  7 29  1  0
  8 30  1  0
  8 31  1  0
  9 32  1  1
 10 33  1  0
 10 34  1  0
 13 35  1  0
 16 36  1  0
M  END
$$$$
[H]Oc1c([H])c([H])c(-c2c([H])c([H])c(C([H])([H])[H])c(C(c3c([H])n([H])c4nc([H])c(-c5c([H])c([H])c6c([H])c(C(=O)N([H])C([H])([H])[H])c([H])c([H])c6c5[H])c([H])c34)(C([H])([H])[H])C([H])([H])[H])c2[H])c(C([H])([H])C([H])([H])[H])c1[H]
     RDKit          3D

 77 82  0  0  0  0  0  0  0  0999 V2000
   -5.4831   -3.3949   -0.7492 C   0  0  0  0  0  0  0  0  0  0  0  0
   -5.0830   -2.3585   -1.7817 C   0  0  0  0  0  0  0  0  0  0  0  0
   -6.0537   -1.2399   -1.8366 C   0  0  0  0  0  0  0  0  0  0  0  0
   -6.9806   -1.1620   -2.8851 C   0  0  0  0  0  0  0  0  0  0  0  0
   -7.9255   -0.1712   -2.9874 C   0  0  0  0  0  0  0  0  0  0  0  0
   -8.8074   -0.1836   -4.0766 O   0  0  0  0  0  0  0  0  0  0  0  0
   -7.9818    0.8077   -2.0177 C   0  0  0  0  0  0  0  0  0  0  0  0
   -7.0740    0.7433   -0.9794 C   0  0  0  0  0  0  0  0  0  0  0  0
   -6.1185   -0.2608   -0.8793 C   0  0  0  0  0  0  0  0  0  0  0  0
   -5.1817   -0.2210    0.2485 C   0  0  0  0  0  0  0  0  0  0  0  0
   -5.6632   -0.2867    1.5388 C   0  0  0  0  0  0  0  0  0  0  0  0
   -4.8032   -0.2234    2.5954 C   0  0  0  0  0  0  0  0  0  0  0  0
   -3.4083   -0.0908    2.4566 C   0  0  0  0  0  0  0  0  0  0  0  0
   -2.5721   -0.1013    3.6710 C   0  0  0  0  0  0  0  0  0  0  0  0
   -2.9379   -0.0231    1.1645 C   0  0  0  0  0  0  0  0  0  0  0  0
   -3.8312   -0.0901    0.0840 C   0  0  0  0  0  0  0  0  0  0  0  0
   -1.4859    0.1842    0.9132 C   0  0  0  0  0  0  0  0  0  0  0  0
   -1.3130    0.2986   -0.6195 C   0  0  0  0  0  0  0  0  0  0  0  0
   -0.6780   -0.9970    1.3267 C   0  0  0  0  0  0  0  0  0  0  0  0
   -1.0530    1.4927    1.4215 C   0  0  0  0  0  0  0  0  0  0  0  0
   -1.8750    2.4911    1.8931 C   0  0  0  0  0  0  0  0  0  0  0  0
   -1.1335    3.5838    2.1817 N   0  0  0  0  0  0  0  0  0  0  0  0
    0.1605    3.3305    1.9107 C   0  0  0  0  0  0  0  0  0  0  0  0
    1.2883    4.1030    2.0314 N   0  0  0  0  0  0  0  0  0  0  0  0
    2.5039    3.6011    1.6831 C   0  0  0  0  0  0  0  0  0  0  0  0
    2.6085    2.3199    1.2094 C   0  0  0  0  0  0  0  0  0  0  0  0
    1.4462    1.5538    1.0959 C   0  0  0  0  0  0  0  0  0  0  0  0
    0.2181    2.0443    1.4418 C   0  0  0  0  0  0  0  0  0  0  0  0
    3.8759    1.7346    0.8257 C   0  0  0  0  0  0  0  0  0  0  0  0
    5.0801    2.0639    1.4391 C   0  0  0  0  0  0  0  0  0  0  0  0
    6.2726    1.4888    1.0513 C   0  0  0  0  0  0  0  0  0  0  0  0
    6.2956    0.5651    0.0359 C   0  0  0  0  0  0  0  0  0  0  0  0
    7.4839   -0.0437   -0.3902 C   0  0  0  0  0  0  0  0  0  0  0  0
    7.5319   -0.9615   -1.3942 C   0  0  0  0  0  0  0  0  0  0  0  0
    6.3511   -1.2991   -2.0120 C   0  0  0  0  0  0  0  0  0  0  0  0
    5.1756   -0.7171   -1.6128 C   0  0  0  0  0  0  0  0  0  0  0  0
    5.1417    0.2082   -0.5975 C   0  0  0  0  0  0  0  0  0  0  0  0
    3.9428    0.8013   -0.1912 C   0  0  0  0  0  0  0  0  0  0  0  0
    8.7896   -1.5563   -1.7893 C   0  0  0  0  0  0  0  0  0  0  0  0
    8.7472   -2.3728   -2.7620 O   0  0  0  0  0  0  0  0  0  0  0  0
   10.0322   -1.2991   -1.1834 N   0  0  0  0  0  0  0  0  0  0  0  0
   11.2206   -1.9535   -1.6652 C   0  0  0  0  0  0  0  0  0  0  0  0
   -6.4718   -3.1797   -0.3363 H   0  0  0  0  0  0  0  0  0  0  0  0
   -4.6756   -3.4043    0.0327 H   0  0  0  0  0  0  0  0  0  0  0  0
   -5.5065   -4.4287   -1.1502 H   0  0  0  0  0  0  0  0  0  0  0  0
   -5.1790   -2.9072   -2.7691 H   0  0  0  0  0  0  0  0  0  0  0  0
   -4.0275   -2.0710   -1.7473 H   0  0  0  0  0  0  0  0  0  0  0  0
   -6.9246   -1.9518   -3.6544 H   0  0  0  0  0  0  0  0  0  0  0  0
   -9.6830   -0.7004   -3.9453 H   0  0  0  0  0  0  0  0  0  0  0  0
   -8.7254    1.5964   -2.0879 H   0  0  0  0  0  0  0  0  0  0  0  0
   -7.1289    1.5279   -0.2144 H   0  0  0  0  0  0  0  0  0  0  0  0
   -6.7339   -0.3896    1.7099 H   0  0  0  0  0  0  0  0  0  0  0  0
   -5.1644   -0.2738    3.6391 H   0  0  0  0  0  0  0  0  0  0  0  0
   -2.9197    0.7879    4.2860 H   0  0  0  0  0  0  0  0  0  0  0  0
   -2.8774   -0.9622    4.3555 H   0  0  0  0  0  0  0  0  0  0  0  0
   -1.5142   -0.0175    3.5724 H   0  0  0  0  0  0  0  0  0  0  0  0
   -3.4401   -0.0176   -0.9267 H   0  0  0  0  0  0  0  0  0  0  0  0
   -1.8746    1.1825   -0.9689 H   0  0  0  0  0  0  0  0  0  0  0  0
   -0.2509    0.5212   -0.8628 H   0  0  0  0  0  0  0  0  0  0  0  0
   -1.5719   -0.6239   -1.1337 H   0  0  0  0  0  0  0  0  0  0  0  0
    0.1086   -0.8189    2.0668 H   0  0  0  0  0  0  0  0  0  0  0  0
   -1.4071   -1.7724    1.7194 H   0  0  0  0  0  0  0  0  0  0  0  0
   -0.2268   -1.5114    0.4485 H   0  0  0  0  0  0  0  0  0  0  0  0
   -2.9697    2.4737    2.0256 H   0  0  0  0  0  0  0  0  0  0  0  0
   -1.4826    4.5044    2.5602 H   0  0  0  0  0  0  0  0  0  0  0  0
    3.4157    4.1817    1.7649 H   0  0  0  0  0  0  0  0  0  0  0  0
    1.4891    0.5377    0.7263 H   0  0  0  0  0  0  0  0  0  0  0  0
    5.0374    2.7964    2.2388 H   0  0  0  0  0  0  0  0  0  0  0  0
    7.2096    1.7455    1.5289 H   0  0  0  0  0  0  0  0  0  0  0  0
    8.3766    0.2536    0.1233 H   0  0  0  0  0  0  0  0  0  0  0  0
    6.3883   -2.0393   -2.8220 H   0  0  0  0  0  0  0  0  0  0  0  0
    4.2527   -0.9807   -2.0957 H   0  0  0  0  0  0  0  0  0  0  0  0
    3.0460    0.5161   -0.6924 H   0  0  0  0  0  0  0  0  0  0  0  0
   10.1176   -0.6231   -0.3649 H   0  0  0  0  0  0  0  0  0  0  0  0
   11.6561   -2.6503   -0.9133 H   0  0  0  0  0  0  0  0  0  0  0  0
   10.9675   -2.5264   -2.5694 H   0  0  0  0  0  0  0  0  0  0  0  0
   11.9675   -1.1836   -1.9933 H   0  0  0  0  0  0  0  0  0  0  0  0
  1  2  1  0
  2  3  1  0
  3  4  2  0
  4  5  1  0
  5  6  1  0
  5  7  2  0
  7  8  1  0
  8  9  2  0
  9 10  1  0
 10 11  2  0
 11 12  1  0
 12 13  2  0
 13 14  1  0
 13 15  1  0
 15 16  2  0
 15 17  1  0
 17 18  1  0
 17 19  1  0
 17 20  1  0
 20 21  2  0
 21 22  1  0
 22 23  1  0
 23 24  2  0
 24 25  1  0
 25 26  2  0
 26 27  1  0
 27 28  2  0
 26 29  1  0
 29 30  2  0
 30 31  1  0
 31 32  2  0
 32 33  1  0
 33 34  2  0
 34 35  1  0
 35 36  2  0
 36 37  1  0
 37 38  2  0
 34 39  1  0
 39 40  2  0
 39 41  1  0
 41 42  1  0
  9  3  1  0
 16 10  1  0
 28 20  1  0
 38 29  1  0
 28 23  1  0
 37 32  1  0
  1 43  1  0
  1 44  1  0
  1 45  1  0
  2 46  1  0
  2 47  1  0
  4 48  1  0
  6 49  1  0
  7 50  1  0
  8 51  1  0
 11 52  1  0
 12 53  1  0
 14 54  1  0
 14 55  1  0
 14 56  1  0
 16 57  1  0
 18 58  1  0
 18 59  1  0
 18 60  1  0
 19 61  1  0
 19 62  1  0
 19 63  1  0
 21 64  1  0
 22 65  1  0
 25 66  1  0
 27 67  1  0
 30 68  1  0
 31 69  1  0
 33 70  1  0
 35 71  1  0
 36 72  1  0
 38 73  1  0
 41 74  1  0
 42 75  1  0
 42 76  1  0
 42 77  1  0
M  END
$$$$
[H]OC(=O)C([H])([H])[C@]([H])(OC([H])([H])C([H])([H])C([H])([H])C([H])([H])[H])C(=O)O[H]
     RDKit          3D

 27 26  0  0  0  0  0  0  0  0999 V2000
   -2.2995    0.4221    1.2088 C   0  0  0  0  0  0  0  0  0  0  0  0
   -2.8350   -0.4780    0.1433 C   0  0  0  0  0  0  0  0  0  0  0  0
   -1.9836   -0.6469   -1.0773 C   0  0  0  0  0  0  0  0  0  0  0  0
   -0.6587   -1.2071   -0.9263 C   0  0  0  0  0  0  0  0  0  0  0  0
    0.3739   -0.7121   -0.2739 O   0  0  0  0  0  0  0  0  0  0  0  0
    0.9888    0.4349   -0.5773 C   0  0  1  0  0  0  0  0  0  0  0  0
    1.4403    1.1641    0.6540 C   0  0  0  0  0  0  0  0  0  0  0  0
    2.4029    0.3141    1.4396 C   0  0  0  0  0  0  0  0  0  0  0  0
    2.0092   -0.3997    2.5603 O   0  0  0  0  0  0  0  0  0  0  0  0
    3.6065    0.2295    1.0928 O   0  0  0  0  0  0  0  0  0  0  0  0
    2.2927    0.0542   -1.2633 C   0  0  0  0  0  0  0  0  0  0  0  0
    3.0983    1.0679   -1.6685 O   0  0  0  0  0  0  0  0  0  0  0  0
    2.5600   -1.1229   -1.4204 O   0  0  0  0  0  0  0  0  0  0  0  0
   -3.0986    0.8646    1.8385 H   0  0  0  0  0  0  0  0  0  0  0  0
   -1.5157   -0.0697    1.8265 H   0  0  0  0  0  0  0  0  0  0  0  0
   -1.7626    1.2745    0.6976 H   0  0  0  0  0  0  0  0  0  0  0  0
   -2.9918   -1.4852    0.6073 H   0  0  0  0  0  0  0  0  0  0  0  0
   -3.8550   -0.0945   -0.1051 H   0  0  0  0  0  0  0  0  0  0  0  0
   -2.0466    0.3331   -1.6139 H   0  0  0  0  0  0  0  0  0  0  0  0
   -2.5921   -1.3291   -1.7623 H   0  0  0  0  0  0  0  0  0  0  0  0
   -0.8178   -2.2633   -0.4863 H   0  0  0  0  0  0  0  0  0  0  0  0
   -0.2683   -1.5191   -1.9670 H   0  0  0  0  0  0  0  0  0  0  0  0
    0.5348    1.0629   -1.3684 H   0  0  0  0  0  0  0  0  0  0  0  0
    1.9247    2.1366    0.3905 H   0  0  0  0  0  0  0  0  0  0  0  0
    0.5856    1.3609    1.3074 H   0  0  0  0  0  0  0  0  0  0  0  0
    2.1324   -1.4082    2.6338 H   0  0  0  0  0  0  0  0  0  0  0  0
    2.7753    2.0161   -1.8901 H   0  0  0  0  0  0  0  0  0  0  0  0
  1  2  1  0
  2  3  1  0
  3  4  1  0
  4  5  1  0
  5  6  1  0
  6  7  1  0
  7  8  1  0
  8  9  1  0
  8 10  2  0
  6 11  1  0
 11 12  1  0
 11 13  2  0
  1 14  1  0
  1 15  1  0
  1 16  1  0
  2 17  1  0
  2 18  1  0
  3 19  1  0
  3 20  1  0
  4 21  1  0
  4 22  1  0
  6 23  1  6
  7 24  1  0
  7 25  1  0
  9 26  1  0
 12 27  1  0
M  END
$$$$
[H]c1nc([H])c([H])c(-c2c([H])c3c([H])nc(N([H])c4c([H])c([H])c(N5C([H])([H])C([H])([H])C([H])(N6C([H])([H])C([H])([H])N(C([H])([H])[H])C([H])([H])C6([H])[H])C([H])([H])C5([H])[H])c([H])c4[H])nc3n(C([H])([H])[H])c2=O)c1[H]
     RDKit          3D

 72 77  0  0  0  0  0  0  0  0999 V2000
   -9.8846    1.1667   -0.2015 C   0  0  0  0  0  0  0  0  0  0  0  0
   -8.8079    0.7484    0.6438 N   0  0  0  0  0  0  0  0  0  0  0  0
   -7.7408    1.6851    0.6794 C   0  0  0  0  0  0  0  0  0  0  0  0
   -6.6274    1.4018   -0.2880 C   0  0  0  0  0  0  0  0  0  0  0  0
   -6.4494    0.0528   -0.6322 N   0  0  0  0  0  0  0  0  0  0  0  0
   -7.5894   -0.7696   -0.7187 C   0  0  0  0  0  0  0  0  0  0  0  0
   -8.4389   -0.6278    0.5174 C   0  0  0  0  0  0  0  0  0  0  0  0
   -5.1910   -0.5392   -0.4423 C   0  0  0  0  0  0  0  0  0  0  0  0
   -4.1381    0.1184   -1.2894 C   0  0  0  0  0  0  0  0  0  0  0  0
   -2.7784   -0.5811   -1.1545 C   0  0  0  0  0  0  0  0  0  0  0  0
   -2.4617   -0.8123    0.2352 N   0  0  0  0  0  0  0  0  0  0  0  0
   -3.4943   -1.4875    0.9938 C   0  0  0  0  0  0  0  0  0  0  0  0
   -4.6900   -0.5235    0.9862 C   0  0  0  0  0  0  0  0  0  0  0  0
   -1.2267   -0.4117    0.7974 C   0  0  0  0  0  0  0  0  0  0  0  0
   -0.1606   -0.0426    0.0256 C   0  0  0  0  0  0  0  0  0  0  0  0
    1.0653    0.3701    0.5657 C   0  0  0  0  0  0  0  0  0  0  0  0
    1.2463    0.4193    1.9202 C   0  0  0  0  0  0  0  0  0  0  0  0
    2.4141    0.7834    2.6072 N   0  0  0  0  0  0  0  0  0  0  0  0
    3.7096    0.6852    2.0544 C   0  0  0  0  0  0  0  0  0  0  0  0
    4.7907    1.0838    2.7966 N   0  0  0  0  0  0  0  0  0  0  0  0
    6.0352    0.9858    2.3164 C   0  0  0  0  0  0  0  0  0  0  0  0
    6.3026    0.4824    1.0570 C   0  0  0  0  0  0  0  0  0  0  0  0
    7.5927    0.3905    0.5826 C   0  0  0  0  0  0  0  0  0  0  0  0
    7.7899   -0.1281   -0.6986 C   0  0  0  0  0  0  0  0  0  0  0  0
    9.1385   -0.2475   -1.2505 C   0  0  0  0  0  0  0  0  0  0  0  0
   10.1859   -0.7571   -0.5143 C   0  0  0  0  0  0  0  0  0  0  0  0
   11.4412   -0.8515   -1.0708 C   0  0  0  0  0  0  0  0  0  0  0  0
   11.6359   -0.4457   -2.3284 N   0  0  0  0  0  0  0  0  0  0  0  0
   10.6627    0.0596   -3.1010 C   0  0  0  0  0  0  0  0  0  0  0  0
    9.4066    0.1535   -2.5425 C   0  0  0  0  0  0  0  0  0  0  0  0
    6.6545   -0.5084   -1.3860 C   0  0  0  0  0  0  0  0  0  0  0  0
    6.8060   -0.9813   -2.5481 O   0  0  0  0  0  0  0  0  0  0  0  0
    5.4117   -0.4213   -0.9324 N   0  0  0  0  0  0  0  0  0  0  0  0
    4.2358   -0.8306   -1.6764 C   0  0  0  0  0  0  0  0  0  0  0  0
    5.2191    0.0826    0.3125 C   0  0  0  0  0  0  0  0  0  0  0  0
    4.0049    0.2066    0.8489 N   0  0  0  0  0  0  0  0  0  0  0  0
    0.1568    0.0421    2.7124 C   0  0  0  0  0  0  0  0  0  0  0  0
   -1.0252   -0.3550    2.1673 C   0  0  0  0  0  0  0  0  0  0  0  0
   -9.4981    1.8949   -0.9313 H   0  0  0  0  0  0  0  0  0  0  0  0
  -10.3871    0.3159   -0.7139 H   0  0  0  0  0  0  0  0  0  0  0  0
  -10.6209    1.7050    0.4552 H   0  0  0  0  0  0  0  0  0  0  0  0
   -7.3278    1.7026    1.7288 H   0  0  0  0  0  0  0  0  0  0  0  0
   -8.1532    2.7000    0.5058 H   0  0  0  0  0  0  0  0  0  0  0  0
   -6.8296    1.9912   -1.2195 H   0  0  0  0  0  0  0  0  0  0  0  0
   -5.7027    1.8397    0.1426 H   0  0  0  0  0  0  0  0  0  0  0  0
   -7.2520   -1.8232   -0.8923 H   0  0  0  0  0  0  0  0  0  0  0  0
   -8.2074   -0.4333   -1.5840 H   0  0  0  0  0  0  0  0  0  0  0  0
   -9.3786   -1.2179    0.4520 H   0  0  0  0  0  0  0  0  0  0  0  0
   -7.8259   -0.9121    1.3919 H   0  0  0  0  0  0  0  0  0  0  0  0
   -5.2401   -1.6062   -0.7444 H   0  0  0  0  0  0  0  0  0  0  0  0
   -3.9671    1.1796   -0.9866 H   0  0  0  0  0  0  0  0  0  0  0  0
   -4.4027    0.0349   -2.3642 H   0  0  0  0  0  0  0  0  0  0  0  0
   -2.9060   -1.5754   -1.6295 H   0  0  0  0  0  0  0  0  0  0  0  0
   -2.0788    0.0448   -1.7019 H   0  0  0  0  0  0  0  0  0  0  0  0
   -3.2145   -1.8287    1.9800 H   0  0  0  0  0  0  0  0  0  0  0  0
   -3.8475   -2.3767    0.4017 H   0  0  0  0  0  0  0  0  0  0  0  0
   -4.2545    0.4711    1.2325 H   0  0  0  0  0  0  0  0  0  0  0  0
   -5.4499   -0.8580    1.6975 H   0  0  0  0  0  0  0  0  0  0  0  0
   -0.2105   -0.0553   -1.0534 H   0  0  0  0  0  0  0  0  0  0  0  0
    1.8554    0.6649   -0.1077 H   0  0  0  0  0  0  0  0  0  0  0  0
    2.3282    1.1639    3.6073 H   0  0  0  0  0  0  0  0  0  0  0  0
    6.8662    1.3034    2.9142 H   0  0  0  0  0  0  0  0  0  0  0  0
    8.4491    0.7031    1.1637 H   0  0  0  0  0  0  0  0  0  0  0  0
    9.9873   -1.0721    0.4934 H   0  0  0  0  0  0  0  0  0  0  0  0
   12.2854   -1.2449   -0.5273 H   0  0  0  0  0  0  0  0  0  0  0  0
   10.9220    0.3589   -4.1048 H   0  0  0  0  0  0  0  0  0  0  0  0
    8.6200    0.5583   -3.1547 H   0  0  0  0  0  0  0  0  0  0  0  0
    3.4074   -1.1540   -1.0339 H   0  0  0  0  0  0  0  0  0  0  0  0
    4.4895   -1.5858   -2.4619 H   0  0  0  0  0  0  0  0  0  0  0  0
    3.8960    0.0725   -2.2483 H   0  0  0  0  0  0  0  0  0  0  0  0
    0.2876    0.0765    3.7994 H   0  0  0  0  0  0  0  0  0  0  0  0
   -1.8410   -0.6339    2.8158 H   0  0  0  0  0  0  0  0  0  0  0  0
  1  2  1  0
  2  3  1  0
  3  4  1  0
  4  5  1  0
  5  6  1  0
  6  7  1  0
  5  8  1  0
  8  9  1  0
  9 10  1  0
 10 11  1  0
 11 12  1  0
 12 13  1  0
 11 14  1  0
 14 15  2  0
 15 16  1  0
 16 17  2  0
 17 18  1  0
 18 19  1  0
 19 20  2  0
 20 21  1  0
 21 22  2  0
 22 23  1  0
 23 24  2  0
 24 25  1  0
 25 26  2  0
 26 27  1  0
 27 28  2  0
 28 29  1  0
 29 30  2  0
 24 31  1  0
 31 32  2  0
 31 33  1  0
 33 34  1  0
 33 35  1  0
 35 36  2  0
 17 37  1  0
 37 38  2  0
  7  2  1  0
 13  8  1  0
 38 14  1  0
 36 19  1  0
 35 22  1  0
 30 25  1  0
  1 39  1  0
  1 40  1  0
  1 41  1  0
  3 42  1  0
  3 43  1  0
  4 44  1  0
  4 45  1  0
  6 46  1  0
  6 47  1  0
  7 48  1  0
  7 49  1  0
  8 50  1  0
  9 51  1  0
  9 52  1  0
 10 53  1  0
 10 54  1  0
 12 55  1  0
 12 56  1  0
 13 57  1  0
 13 58  1  0
 15 59  1  0
 16 60  1  0
 18 61  1  0
 21 62  1  0
 23 63  1  0
 26 64  1  0
 27 65  1  0
 29 66  1  0
 30 67  1  0
 34 68  1  0
 34 69  1  0
 34 70  1  0
 37 71  1  0
 38 72  1  0
M  END
$$$$
[H]OC(=O)c1nc(N2C([H])([H])C([H])([H])N(c3c([H])c([H])c([H])c(C([H])([H])[H])c3[H])C([H])([H])C2([H])[H])c2c([H])c([H])c([H])nc2c1[H]
     RDKit          3D

 46 49  0  0  0  0  0  0  0  0999 V2000
    6.1688   -1.1014   -1.7027 C   0  0  0  0  0  0  0  0  0  0  0  0
    5.3097   -0.2695   -0.8383 C   0  0  0  0  0  0  0  0  0  0  0  0
    5.8865    0.6926   -0.0473 C   0  0  0  0  0  0  0  0  0  0  0  0
    5.0909    1.4747    0.7636 C   0  0  0  0  0  0  0  0  0  0  0  0
    3.7072    1.2742    0.7666 C   0  0  0  0  0  0  0  0  0  0  0  0
    3.1182    0.3151   -0.0200 C   0  0  0  0  0  0  0  0  0  0  0  0
    3.9310   -0.4509   -0.8185 C   0  0  0  0  0  0  0  0  0  0  0  0
    1.7154    0.1576    0.0313 N   0  0  0  0  0  0  0  0  0  0  0  0
    0.8889    0.8987    0.9815 C   0  0  0  0  0  0  0  0  0  0  0  0
   -0.3155   -0.0208    1.2676 C   0  0  0  0  0  0  0  0  0  0  0  0
   -1.0685   -0.1585    0.0417 N   0  0  0  0  0  0  0  0  0  0  0  0
   -0.3465   -0.5470   -1.1424 C   0  0  0  0  0  0  0  0  0  0  0  0
    1.1120   -0.7677   -0.8979 C   0  0  0  0  0  0  0  0  0  0  0  0
   -2.4604    0.0964    0.0586 C   0  0  0  0  0  0  0  0  0  0  0  0
   -2.9754    1.1762   -0.6013 N   0  0  0  0  0  0  0  0  0  0  0  0
   -4.2824    1.4829   -0.6090 C   0  0  0  0  0  0  0  0  0  0  0  0
   -5.1977    0.7067    0.0642 C   0  0  0  0  0  0  0  0  0  0  0  0
   -4.7414   -0.3976    0.7494 C   0  0  0  0  0  0  0  0  0  0  0  0
   -5.6336   -1.1796    1.4163 N   0  0  0  0  0  0  0  0  0  0  0  0
   -5.2380   -2.2683    2.0927 C   0  0  0  0  0  0  0  0  0  0  0  0
   -3.8996   -2.5613    2.0849 C   0  0  0  0  0  0  0  0  0  0  0  0
   -2.9660   -1.7798    1.4122 C   0  0  0  0  0  0  0  0  0  0  0  0
   -3.3791   -0.6802    0.7319 C   0  0  0  0  0  0  0  0  0  0  0  0
   -4.7766    2.6529   -1.3339 C   0  0  0  0  0  0  0  0  0  0  0  0
   -3.8773    3.4518   -2.0202 O   0  0  0  0  0  0  0  0  0  0  0  0
   -5.9796    2.9332   -1.3396 O   0  0  0  0  0  0  0  0  0  0  0  0
    6.6474   -1.9439   -1.1805 H   0  0  0  0  0  0  0  0  0  0  0  0
    6.9951   -0.4911   -2.1454 H   0  0  0  0  0  0  0  0  0  0  0  0
    5.5594   -1.5647   -2.5273 H   0  0  0  0  0  0  0  0  0  0  0  0
    6.9680    0.8604   -0.0398 H   0  0  0  0  0  0  0  0  0  0  0  0
    5.5201    2.2341    1.3913 H   0  0  0  0  0  0  0  0  0  0  0  0
    3.1523    1.9322    1.4320 H   0  0  0  0  0  0  0  0  0  0  0  0
    3.5263   -1.2122   -1.4484 H   0  0  0  0  0  0  0  0  0  0  0  0
    0.4951    1.7945    0.4824 H   0  0  0  0  0  0  0  0  0  0  0  0
    1.3879    1.0791    1.9430 H   0  0  0  0  0  0  0  0  0  0  0  0
   -0.8835    0.4136    2.0939 H   0  0  0  0  0  0  0  0  0  0  0  0
    0.1464   -0.9681    1.6187 H   0  0  0  0  0  0  0  0  0  0  0  0
   -0.7520   -1.4636   -1.6162 H   0  0  0  0  0  0  0  0  0  0  0  0
   -0.5202    0.2715   -1.8964 H   0  0  0  0  0  0  0  0  0  0  0  0
    1.6134   -0.7589   -1.8884 H   0  0  0  0  0  0  0  0  0  0  0  0
    1.2391   -1.7890   -0.4549 H   0  0  0  0  0  0  0  0  0  0  0  0
   -6.2692    0.9417    0.0694 H   0  0  0  0  0  0  0  0  0  0  0  0
   -5.9487   -2.9086    2.6358 H   0  0  0  0  0  0  0  0  0  0  0  0
   -3.5304   -3.4386    2.6219 H   0  0  0  0  0  0  0  0  0  0  0  0
   -1.9472   -2.0714    1.4445 H   0  0  0  0  0  0  0  0  0  0  0  0
   -3.1901    3.9523   -1.4575 H   0  0  0  0  0  0  0  0  0  0  0  0
  1  2  1  0
  2  3  2  0
  3  4  1  0
  4  5  2  0
  5  6  1  0
  6  7  2  0
  6  8  1  0
  8  9  1  0
  9 10  1  0
 10 11  1  0
 11 12  1  0
 12 13  1  0
 11 14  1  0
 14 15  2  0
 15 16  1  0
 16 17  2  0
 17 18  1  0
 18 19  2  0
 19 20  1  0
 20 21  2  0
 21 22  1  0
 22 23  2  0
 16 24  1  0
 24 25  1  0
 24 26  2  0
  7  2  1  0
 13  8  1  0
 23 14  1  0
 23 18  1  0
  1 27  1  0
  1 28  1  0
  1 29  1  0
  3 30  1  0
  4 31  1  0
  5 32  1  0
  7 33  1  0
  9 34  1  0
  9 35  1  0
 10 36  1  0
 10 37  1  0
 12 38  1  0
 12 39  1  0
 13 40  1  0
 13 41  1  0
 17 42  1  0
 20 43  1  0
 21 44  1  0
 22 45  1  0
 25 46  1  0
M  END
$$$$
[H]OC(=O)[C@@]([H])(N([H])C(=O)[C@@]([H])(N([H])C(=O)C([H])([H])c1c([H])c([H])c([H])c(O[H])c1[H])C([H])([H])O[H])C([H])([H])C([H])([H])C([H])([H])N=C(N([H])[H])N([H])[H]
     RDKit          3D

 53 53  0  0  0  0  0  0  0  0999 V2000
   -6.8506   -2.1994   -1.6530 N   0  0  0  0  0  0  0  0  0  0  0  0
   -7.0517   -0.8315   -1.9658 C   0  0  0  0  0  0  0  0  0  0  0  0
   -8.3128   -0.3678   -2.4404 N   0  0  0  0  0  0  0  0  0  0  0  0
   -6.0616   -0.0052   -1.8115 N   0  0  0  0  0  0  0  0  0  0  0  0
   -4.8083   -0.4956   -1.3346 C   0  0  0  0  0  0  0  0  0  0  0  0
   -4.2545    0.3786   -0.1960 C   0  0  0  0  0  0  0  0  0  0  0  0
   -2.9563   -0.2326    0.2096 C   0  0  0  0  0  0  0  0  0  0  0  0
   -2.2247    0.4702    1.3097 C   0  0  2  0  0  0  0  0  0  0  0  0
   -1.0065   -0.2744    1.5444 N   0  0  0  0  0  0  0  0  0  0  0  0
    0.2378    0.3667    1.3567 C   0  0  0  0  0  0  0  0  0  0  0  0
    0.2621    1.5710    0.9901 O   0  0  0  0  0  0  0  0  0  0  0  0
    1.5370   -0.3214    1.5742 C   0  0  2  0  0  0  0  0  0  0  0  0
    1.6852   -0.8383    2.9863 C   0  0  0  0  0  0  0  0  0  0  0  0
    1.6599    0.1869    3.9130 O   0  0  0  0  0  0  0  0  0  0  0  0
    2.6335    0.5818    1.3065 N   0  0  0  0  0  0  0  0  0  0  0  0
    3.5570    0.3372    0.2444 C   0  0  0  0  0  0  0  0  0  0  0  0
    3.3901   -0.6894   -0.4558 O   0  0  0  0  0  0  0  0  0  0  0  0
    4.6789    1.2334   -0.0517 C   0  0  0  0  0  0  0  0  0  0  0  0
    5.4553    0.7184   -1.2066 C   0  0  0  0  0  0  0  0  0  0  0  0
    6.4945   -0.1500   -0.9674 C   0  0  0  0  0  0  0  0  0  0  0  0
    7.2473   -0.6559   -2.0172 C   0  0  0  0  0  0  0  0  0  0  0  0
    6.9347   -0.2715   -3.3129 C   0  0  0  0  0  0  0  0  0  0  0  0
    5.8920    0.5994   -3.5491 C   0  0  0  0  0  0  0  0  0  0  0  0
    5.5871    0.9798   -4.8670 O   0  0  0  0  0  0  0  0  0  0  0  0
    5.1612    1.0865   -2.4898 C   0  0  0  0  0  0  0  0  0  0  0  0
   -2.9517    0.5191    2.5970 C   0  0  0  0  0  0  0  0  0  0  0  0
   -4.1483    1.1888    2.6888 O   0  0  0  0  0  0  0  0  0  0  0  0
   -2.5244   -0.0330    3.6440 O   0  0  0  0  0  0  0  0  0  0  0  0
   -6.8373   -2.5280   -0.6767 H   0  0  0  0  0  0  0  0  0  0  0  0
   -6.7158   -2.8751   -2.4248 H   0  0  0  0  0  0  0  0  0  0  0  0
   -9.1684   -0.8068   -2.0617 H   0  0  0  0  0  0  0  0  0  0  0  0
   -8.3992    0.3840   -3.1427 H   0  0  0  0  0  0  0  0  0  0  0  0
   -4.0367   -0.5244   -2.1192 H   0  0  0  0  0  0  0  0  0  0  0  0
   -4.9342   -1.5145   -0.8794 H   0  0  0  0  0  0  0  0  0  0  0  0
   -5.0037    0.2202    0.6329 H   0  0  0  0  0  0  0  0  0  0  0  0
   -4.1684    1.4307   -0.4916 H   0  0  0  0  0  0  0  0  0  0  0  0
   -2.2443   -0.3079   -0.6481 H   0  0  0  0  0  0  0  0  0  0  0  0
   -3.1076   -1.3027    0.5298 H   0  0  0  0  0  0  0  0  0  0  0  0
   -1.9892    1.5238    0.9890 H   0  0  0  0  0  0  0  0  0  0  0  0
   -1.0795   -1.2602    1.8445 H   0  0  0  0  0  0  0  0  0  0  0  0
    1.5931   -1.1539    0.8478 H   0  0  0  0  0  0  0  0  0  0  0  0
    0.8676   -1.5418    3.2591 H   0  0  0  0  0  0  0  0  0  0  0  0
    2.6222   -1.4288    3.0264 H   0  0  0  0  0  0  0  0  0  0  0  0
    2.4795    0.7342    3.8752 H   0  0  0  0  0  0  0  0  0  0  0  0
    2.7874    1.4406    1.8778 H   0  0  0  0  0  0  0  0  0  0  0  0
    5.3540    1.3823    0.8196 H   0  0  0  0  0  0  0  0  0  0  0  0
    4.3408    2.2630   -0.3368 H   0  0  0  0  0  0  0  0  0  0  0  0
    6.7544   -0.4631    0.0450 H   0  0  0  0  0  0  0  0  0  0  0  0
    8.0659   -1.3400   -1.8296 H   0  0  0  0  0  0  0  0  0  0  0  0
    7.5307   -0.6723   -4.1429 H   0  0  0  0  0  0  0  0  0  0  0  0
    6.0696    1.8175   -5.2208 H   0  0  0  0  0  0  0  0  0  0  0  0
    4.3394    1.7757   -2.7007 H   0  0  0  0  0  0  0  0  0  0  0  0
   -4.3827    1.8957    3.3525 H   0  0  0  0  0  0  0  0  0  0  0  0
  1  2  1  0
  2  3  1  0
  2  4  2  3
  4  5  1  0
  5  6  1  0
  6  7  1  0
  7  8  1  0
  8  9  1  0
  9 10  1  0
 10 11  2  0
 10 12  1  0
 12 13  1  0
 13 14  1  0
 12 15  1  0
 15 16  1  0
 16 17  2  0
 16 18  1  0
 18 19  1  0
 19 20  2  0
 20 21  1  0
 21 22  2  0
 22 23  1  0
 23 24  1  0
 23 25  2  0
  8 26  1  0
 26 27  1  0
 26 28  2  0
 25 19  1  0
  1 29  1  0
  1 30  1  0
  3 31  1  0
  3 32  1  0
  5 33  1  0
  5 34  1  0
  6 35  1  0
  6 36  1  0
  7 37  1  0
  7 38  1  0
  8 39  1  6
  9 40  1  0
 12 41  1  6
 13 42  1  0
 13 43  1  0
 14 44  1  0
 15 45  1  0
 18 46  1  0
 18 47  1  0
 20 48  1  0
 21 49  1  0
 22 50  1  0
 24 51  1  0
 25 52  1  0
 27 53  1  0
M  END
$$$$
[H]N(C(=O)C(=O)c1c2c(n(C([H])([H])[H])c1C([H])([H])[H])C([H])([H])C([H])([H])C2([H])[H])C1(C#N)C([H])([H])C(F)(F)C1([H])[H]
     RDKit          3D

 40 42  0  0  0  0  0  0  0  0999 V2000
   -1.3709    1.0856    2.5670 C   0  0  0  0  0  0  0  0  0  0  0  0
   -1.8455    0.5321    1.2772 C   0  0  0  0  0  0  0  0  0  0  0  0
   -1.1882   -0.3798    0.4750 C   0  0  0  0  0  0  0  0  0  0  0  0
    0.1092   -1.0060    0.7017 C   0  0  0  0  0  0  0  0  0  0  0  0
    0.1587   -2.0924    1.3313 O   0  0  0  0  0  0  0  0  0  0  0  0
    1.3613   -0.4329    0.2323 C   0  0  0  0  0  0  0  0  0  0  0  0
    1.2713    0.6586   -0.3958 O   0  0  0  0  0  0  0  0  0  0  0  0
    2.5859   -1.0849    0.4818 N   0  0  0  0  0  0  0  0  0  0  0  0
    3.8827   -0.6419    0.0819 C   0  0  0  0  0  0  0  0  0  0  0  0
    4.1626    0.7302    0.6872 C   0  0  0  0  0  0  0  0  0  0  0  0
    4.9025    1.0594   -0.5920 C   0  0  0  0  0  0  0  0  0  0  0  0
    6.2374    0.7745   -0.4897 F   0  0  0  0  0  0  0  0  0  0  0  0
    4.5915    2.3165   -1.0595 F   0  0  0  0  0  0  0  0  0  0  0  0
    4.0706   -0.0432   -1.2631 C   0  0  0  0  0  0  0  0  0  0  0  0
    4.9776   -1.5724    0.3783 C   0  0  0  0  0  0  0  0  0  0  0  0
    5.8377   -2.3282    0.6109 N   0  0  0  0  0  0  0  0  0  0  0  0
   -1.9764   -0.6265   -0.6298 C   0  0  0  0  0  0  0  0  0  0  0  0
   -2.0905   -1.3919   -1.9149 C   0  0  0  0  0  0  0  0  0  0  0  0
   -3.6029   -1.4700   -2.0695 C   0  0  0  0  0  0  0  0  0  0  0  0
   -4.0026   -0.0619   -1.6210 C   0  0  0  0  0  0  0  0  0  0  0  0
   -3.1111    0.1587   -0.4616 C   0  0  0  0  0  0  0  0  0  0  0  0
   -3.0200    0.8543    0.6948 N   0  0  0  0  0  0  0  0  0  0  0  0
   -4.0060    1.7849    1.2238 C   0  0  0  0  0  0  0  0  0  0  0  0
   -1.5285    2.1781    2.5533 H   0  0  0  0  0  0  0  0  0  0  0  0
   -2.0047    0.6691    3.3721 H   0  0  0  0  0  0  0  0  0  0  0  0
   -0.2930    0.9049    2.7233 H   0  0  0  0  0  0  0  0  0  0  0  0
    2.5701   -2.0061    1.0237 H   0  0  0  0  0  0  0  0  0  0  0  0
    3.2787    1.3676    0.8378 H   0  0  0  0  0  0  0  0  0  0  0  0
    4.8024    0.6059    1.5758 H   0  0  0  0  0  0  0  0  0  0  0  0
    4.7804   -0.6249   -1.9196 H   0  0  0  0  0  0  0  0  0  0  0  0
    3.2241    0.3513   -1.8150 H   0  0  0  0  0  0  0  0  0  0  0  0
   -1.6372   -2.3943   -1.7933 H   0  0  0  0  0  0  0  0  0  0  0  0
   -1.6268   -0.7849   -2.7020 H   0  0  0  0  0  0  0  0  0  0  0  0
   -3.9146   -1.6725   -3.0988 H   0  0  0  0  0  0  0  0  0  0  0  0
   -3.9813   -2.1933   -1.3242 H   0  0  0  0  0  0  0  0  0  0  0  0
   -5.0734   -0.0014   -1.3684 H   0  0  0  0  0  0  0  0  0  0  0  0
   -3.7693    0.6603   -2.4453 H   0  0  0  0  0  0  0  0  0  0  0  0
   -5.0079    1.5851    0.7951 H   0  0  0  0  0  0  0  0  0  0  0  0
   -3.6795    2.8204    0.9974 H   0  0  0  0  0  0  0  0  0  0  0  0
   -4.0745    1.7118    2.3417 H   0  0  0  0  0  0  0  0  0  0  0  0
  1  2  1  0
  2  3  2  0
  3  4  1  0
  4  5  2  0
  4  6  1  0
  6  7  2  0
  6  8  1  0
  8  9  1  0
  9 10  1  0
 10 11  1  0
 11 12  1  0
 11 13  1  0
 11 14  1  0
  9 15  1  0
 15 16  3  0
  3 17  1  0
 17 18  1  0
 18 19  1  0
 19 20  1  0
 20 21  1  0
 21 22  1  0
 22 23  1  0
 22  2  1  0
 14  9  1  0
 21 17  2  0
  1 24  1  0
  1 25  1  0
  1 26  1  0
  8 27  1  0
 10 28  1  0
 10 29  1  0
 14 30  1  0
 14 31  1  0
 18 32  1  0
 18 33  1  0
 19 34  1  0
 19 35  1  0
 20 36  1  0
 20 37  1  0
 23 38  1  0
 23 39  1  0
 23 40  1  0
M  END
$$$$
[H]Oc1c([H])c([H])c([C@@]([H])(N([H])C(=O)C([H])([H])[C@]([H])(N([H])[H])[C@@]([H])(N([H])C(=O)[C@]2([H])C([H])([H])SC3(C([H])([H])[H])C([H])(C([H])([H])[H])OC(=O)[C@]([H])(N([H])C(=O)OC([H])([H])/C([H])=C(\[H])C(C([H])([H])[H])(C([H])([H])[H])C([H])([H])[H])C(=O)N([H])[C@]3([H])C(=O)N([H])[C@@]([H])(C([H])([H])O[H])[C@]2([H])O[H])C([H])([H])c2c([H])c([H])c([H])c([H])c2[H])C([H])([H])C([H])(C([H])([H])[H])C([H])([H])[H])c([H])c1[H]
     RDKit          3D

127130  0  0  0  0  0  0  0  0999 V2000
   -9.8061    1.7163    1.2428 C   0  0  0  0  0  0  0  0  0  0  0  0
   -8.5137    1.1430    1.7867 C   0  0  0  0  0  0  0  0  0  0  0  0
   -8.5608   -0.3349    1.8745 C   0  0  0  0  0  0  0  0  0  0  0  0
   -7.2912    1.7416    1.1835 C   0  0  0  0  0  0  0  0  0  0  0  0
   -7.1017    1.6431   -0.2672 C   0  0  2  0  0  0  0  0  0  0  0  0
   -7.0314    0.3111   -0.7660 N   0  0  0  0  0  0  0  0  0  0  0  0
   -5.9745   -0.3497   -1.4488 C   0  0  0  0  0  0  0  0  0  0  0  0
   -4.8634    0.1399   -1.7171 O   0  0  0  0  0  0  0  0  0  0  0  0
   -6.2043   -1.7320   -1.8827 C   0  0  0  0  0  0  0  0  0  0  0  0
   -5.0962   -2.5807   -2.3119 C   0  0  2  0  0  0  0  0  0  0  0  0
   -5.7987   -3.8687   -2.7427 N   0  0  0  0  0  0  0  0  0  0  0  0
   -4.0470   -2.9961   -1.3433 C   0  0  2  0  0  0  0  0  0  0  0  0
   -4.5332   -3.7238   -0.1443 C   0  0  0  0  0  0  0  0  0  0  0  0
   -3.5275   -4.1363    0.8166 C   0  0  0  0  0  0  0  0  0  0  0  0
   -2.8487   -5.3231    0.8463 C   0  0  0  0  0  0  0  0  0  0  0  0
   -1.9031   -5.6413    1.7967 C   0  0  0  0  0  0  0  0  0  0  0  0
   -1.6359   -4.6967    2.7691 C   0  0  0  0  0  0  0  0  0  0  0  0
   -2.2807   -3.4805    2.8008 C   0  0  0  0  0  0  0  0  0  0  0  0
   -3.2168   -3.2123    1.8280 C   0  0  0  0  0  0  0  0  0  0  0  0
   -2.9446   -2.1302   -1.2041 N   0  0  0  0  0  0  0  0  0  0  0  0
   -1.7921   -2.1644   -2.0450 C   0  0  0  0  0  0  0  0  0  0  0  0
   -1.7857   -2.9945   -2.9842 O   0  0  0  0  0  0  0  0  0  0  0  0
   -0.6535   -1.2671   -1.8091 C   0  0  2  0  0  0  0  0  0  0  0  0
   -0.9588    0.1968   -1.7318 C   0  0  0  0  0  0  0  0  0  0  0  0
   -0.6360    0.9382   -0.1296 S   0  0  0  0  0  0  0  0  0  0  0  0
    1.0955    1.3754    0.1795 C   0  0  0  0  0  0  0  0  0  0  0  0
    1.5997    2.0663   -1.0936 C   0  0  0  0  0  0  0  0  0  0  0  0
    1.9365    0.1851    0.5284 C   0  0  2  0  0  0  0  0  0  0  0  0
    2.6443    0.2174    1.7765 N   0  0  0  0  0  0  0  0  0  0  0  0
    3.3136    1.0423    2.6976 C   0  0  0  0  0  0  0  0  0  0  0  0
    3.1881    0.6728    3.8866 O   0  0  0  0  0  0  0  0  0  0  0  0
    4.1394    2.2642    2.5406 C   0  0  1  0  0  0  0  0  0  0  0  0
    5.5135    1.9418    2.2203 N   0  0  0  0  0  0  0  0  0  0  0  0
    6.6167    2.0880    3.0767 C   0  0  0  0  0  0  0  0  0  0  0  0
    6.5507    2.5260    4.2450 O   0  0  0  0  0  0  0  0  0  0  0  0
    7.8601    1.7255    2.6099 O   0  0  0  0  0  0  0  0  0  0  0  0
    9.0750    1.7848    3.2850 C   0  0  0  0  0  0  0  0  0  0  0  0
   10.1965    1.2711    2.4041 C   0  0  0  0  0  0  0  0  0  0  0  0
    9.8885    0.8596    1.1808 C   0  0  0  0  0  0  0  0  0  0  0  0
   10.9218    0.3341    0.2335 C   0  0  0  0  0  0  0  0  0  0  0  0
   11.7069    1.4942   -0.2980 C   0  0  0  0  0  0  0  0  0  0  0  0
   11.7668   -0.6900    0.9362 C   0  0  0  0  0  0  0  0  0  0  0  0
   10.2421   -0.3600   -0.9327 C   0  0  0  0  0  0  0  0  0  0  0  0
    3.5039    3.2079    1.6088 C   0  0  0  0  0  0  0  0  0  0  0  0
    4.2276    4.1506    1.2755 O   0  0  0  0  0  0  0  0  0  0  0  0
    2.2576    3.2422    1.0364 O   0  0  0  0  0  0  0  0  0  0  0  0
    1.0598    2.4644    1.2197 C   0  0  0  0  0  0  0  0  0  0  0  0
   -0.0606    3.4577    0.9365 C   0  0  0  0  0  0  0  0  0  0  0  0
    2.8193   -0.2652   -0.5816 C   0  0  0  0  0  0  0  0  0  0  0  0
    4.0762   -0.2448   -0.2669 O   0  0  0  0  0  0  0  0  0  0  0  0
    2.4965   -0.6889   -1.8671 N   0  0  0  0  0  0  0  0  0  0  0  0
    1.7830   -1.8107   -2.3819 C   0  0  1  0  0  0  0  0  0  0  0  0
    2.0167   -3.1290   -1.6833 C   0  0  0  0  0  0  0  0  0  0  0  0
    1.6934   -3.1929   -0.3685 O   0  0  0  0  0  0  0  0  0  0  0  0
    0.3862   -1.5762   -2.8321 C   0  0  2  0  0  0  0  0  0  0  0  0
    0.3880   -0.5658   -3.7871 O   0  0  0  0  0  0  0  0  0  0  0  0
   -5.8819    2.4745   -0.6217 C   0  0  0  0  0  0  0  0  0  0  0  0
   -4.9884    2.9042    0.3213 C   0  0  0  0  0  0  0  0  0  0  0  0
   -3.9061    3.7288    0.0032 C   0  0  0  0  0  0  0  0  0  0  0  0
   -3.7285    4.1249   -1.3012 C   0  0  0  0  0  0  0  0  0  0  0  0
   -2.6666    4.9477   -1.6834 O   0  0  0  0  0  0  0  0  0  0  0  0
   -4.6082    3.7110   -2.2738 C   0  0  0  0  0  0  0  0  0  0  0  0
   -5.6684    2.8985   -1.9393 C   0  0  0  0  0  0  0  0  0  0  0  0
   -9.7155    2.7449    0.8800 H   0  0  0  0  0  0  0  0  0  0  0  0
  -10.5869    1.7096    2.0364 H   0  0  0  0  0  0  0  0  0  0  0  0
  -10.2075    1.0152    0.4537 H   0  0  0  0  0  0  0  0  0  0  0  0
   -8.5014    1.5149    2.8743 H   0  0  0  0  0  0  0  0  0  0  0  0
   -9.3374   -0.7660    1.2003 H   0  0  0  0  0  0  0  0  0  0  0  0
   -7.5736   -0.8106    1.6818 H   0  0  0  0  0  0  0  0  0  0  0  0
   -8.8542   -0.6470    2.8940 H   0  0  0  0  0  0  0  0  0  0  0  0
   -7.1495    2.8049    1.5497 H   0  0  0  0  0  0  0  0  0  0  0  0
   -6.4212    1.2009    1.6744 H   0  0  0  0  0  0  0  0  0  0  0  0
   -7.8787    2.2181   -0.8944 H   0  0  0  0  0  0  0  0  0  0  0  0
   -7.9037   -0.3300   -0.6407 H   0  0  0  0  0  0  0  0  0  0  0  0
   -6.8854   -1.6235   -2.7954 H   0  0  0  0  0  0  0  0  0  0  0  0
   -6.9217   -2.2633   -1.1695 H   0  0  0  0  0  0  0  0  0  0  0  0
   -4.6775   -2.2168   -3.2703 H   0  0  0  0  0  0  0  0  0  0  0  0
   -6.3768   -4.1430   -1.9465 H   0  0  0  0  0  0  0  0  0  0  0  0
   -5.1011   -4.5291   -3.0872 H   0  0  0  0  0  0  0  0  0  0  0  0
   -3.5604   -3.8913   -1.9769 H   0  0  0  0  0  0  0  0  0  0  0  0
   -5.3061   -3.1036    0.3809 H   0  0  0  0  0  0  0  0  0  0  0  0
   -5.0665   -4.6633   -0.4726 H   0  0  0  0  0  0  0  0  0  0  0  0
   -3.1162   -6.0103    0.0504 H   0  0  0  0  0  0  0  0  0  0  0  0
   -1.3873   -6.5969    1.7801 H   0  0  0  0  0  0  0  0  0  0  0  0
   -0.8833   -4.9706    3.5118 H   0  0  0  0  0  0  0  0  0  0  0  0
   -2.0219   -2.7928    3.5882 H   0  0  0  0  0  0  0  0  0  0  0  0
   -3.7141   -2.2522    1.8664 H   0  0  0  0  0  0  0  0  0  0  0  0
   -2.9399   -1.4238   -0.4326 H   0  0  0  0  0  0  0  0  0  0  0  0
   -0.3329   -1.5531   -0.7724 H   0  0  0  0  0  0  0  0  0  0  0  0
   -0.4679    0.7276   -2.5694 H   0  0  0  0  0  0  0  0  0  0  0  0
   -2.0452    0.3122   -1.9249 H   0  0  0  0  0  0  0  0  0  0  0  0
    2.7032    2.1110   -1.1328 H   0  0  0  0  0  0  0  0  0  0  0  0
    1.2578    1.6059   -2.0115 H   0  0  0  0  0  0  0  0  0  0  0  0
    1.2362    3.1226   -1.1014 H   0  0  0  0  0  0  0  0  0  0  0  0
    1.1915   -0.6327    0.6741 H   0  0  0  0  0  0  0  0  0  0  0  0
    2.6881   -0.7805    2.1692 H   0  0  0  0  0  0  0  0  0  0  0  0
    4.1528    2.7493    3.5394 H   0  0  0  0  0  0  0  0  0  0  0  0
    5.6753    1.5724    1.2569 H   0  0  0  0  0  0  0  0  0  0  0  0
    9.0866    1.2340    4.2298 H   0  0  0  0  0  0  0  0  0  0  0  0
    9.3205    2.8551    3.4570 H   0  0  0  0  0  0  0  0  0  0  0  0
   11.2052    1.2472    2.7823 H   0  0  0  0  0  0  0  0  0  0  0  0
    8.8365    0.9202    0.8901 H   0  0  0  0  0  0  0  0  0  0  0  0
   10.9918    2.3278   -0.4700 H   0  0  0  0  0  0  0  0  0  0  0  0
   12.4504    1.8775    0.4444 H   0  0  0  0  0  0  0  0  0  0  0  0
   12.2341    1.2631   -1.2554 H   0  0  0  0  0  0  0  0  0  0  0  0
   11.0712   -1.5075    1.2671 H   0  0  0  0  0  0  0  0  0  0  0  0
   12.4095   -1.1700    0.1629 H   0  0  0  0  0  0  0  0  0  0  0  0
   12.3479   -0.2678    1.7715 H   0  0  0  0  0  0  0  0  0  0  0  0
    9.3085   -0.8731   -0.6165 H   0  0  0  0  0  0  0  0  0  0  0  0
   10.0562    0.3026   -1.7856 H   0  0  0  0  0  0  0  0  0  0  0  0
   10.9243   -1.1629   -1.2757 H   0  0  0  0  0  0  0  0  0  0  0  0
    0.9311    2.1071    2.2395 H   0  0  0  0  0  0  0  0  0  0  0  0
   -0.9837    2.9729    0.6419 H   0  0  0  0  0  0  0  0  0  0  0  0
   -0.2712    3.9833    1.9111 H   0  0  0  0  0  0  0  0  0  0  0  0
    0.2683    4.2793    0.2589 H   0  0  0  0  0  0  0  0  0  0  0  0
    2.8840   -0.0249   -2.6415 H   0  0  0  0  0  0  0  0  0  0  0  0
    2.2918   -2.0554   -3.4025 H   0  0  0  0  0  0  0  0  0  0  0  0
    1.5076   -3.9662   -2.2124 H   0  0  0  0  0  0  0  0  0  0  0  0
    3.1160   -3.3703   -1.8262 H   0  0  0  0  0  0  0  0  0  0  0  0
    1.2182   -4.0107   -0.1650 H   0  0  0  0  0  0  0  0  0  0  0  0
    0.1129   -2.5065   -3.4276 H   0  0  0  0  0  0  0  0  0  0  0  0
    1.3033   -0.3136   -4.0756 H   0  0  0  0  0  0  0  0  0  0  0  0
   -5.0734    2.6312    1.3517 H   0  0  0  0  0  0  0  0  0  0  0  0
   -3.2074    4.0584    0.7598 H   0  0  0  0  0  0  0  0  0  0  0  0
   -1.9708    5.3049   -1.0711 H   0  0  0  0  0  0  0  0  0  0  0  0
   -4.4316    4.0449   -3.2941 H   0  0  0  0  0  0  0  0  0  0  0  0
   -6.3585    2.5746   -2.7026 H   0  0  0  0  0  0  0  0  0  0  0  0
  1  2  1  0
  2  3  1  0
  2  4  1  0
  4  5  1  0
  5  6  1  0
  6  7  1  0
  7  8  2  0
  7  9  1  0
  9 10  1  0
 10 11  1  0
 10 12  1  0
 12 13  1  0
 13 14  1  0
 14 15  2  0
 15 16  1  0
 16 17  2  0
 17 18  1  0
 18 19  2  0
 12 20  1  0
 20 21  1  0
 21 22  2  0
 21 23  1  0
 23 24  1  0
 24 25  1  0
 25 26  1  0
 26 27  1  0
 26 28  1  0
 28 29  1  0
 29 30  1  0
 30 31  2  0
 30 32  1  0
 32 33  1  0
 33 34  1  0
 34 35  2  0
 34 36  1  0
 36 37  1  0
 37 38  1  0
 38 39  2  0
 39 40  1  0
 40 41  1  0
 40 42  1  0
 40 43  1  0
 32 44  1  0
 44 45  2  0
 44 46  1  0
 46 47  1  0
 47 48  1  0
 28 49  1  0
 49 50  2  0
 49 51  1  0
 51 52  1  0
 52 53  1  0
 53 54  1  0
 52 55  1  0
 55 56  1  0
  5 57  1  0
 57 58  2  0
 58 59  1  0
 59 60  2  0
 60 61  1  0
 60 62  1  0
 62 63  2  0
 19 14  1  0
 55 23  1  0
 63 57  1  0
 47 26  1  0
  1 64  1  0
  1 65  1  0
  1 66  1  0
  2 67  1  0
  3 68  1  0
  3 69  1  0
  3 70  1  0
  4 71  1  0
  4 72  1  0
  5 73  1  6
  6 74  1  0
  9 75  1  0
  9 76  1  0
 10 77  1  6
 11 78  1  0
 11 79  1  0
 12 80  1  6
 13 81  1  0
 13 82  1  0
 15 83  1  0
 16 84  1  0
 17 85  1  0
 18 86  1  0
 19 87  1  0
 20 88  1  0
 23 89  1  1
 24 90  1  0
 24 91  1  0
 27 92  1  0
 27 93  1  0
 27 94  1  0
 28 95  1  1
 29 96  1  0
 32 97  1  1
 33 98  1  0
 37 99  1  0
 37100  1  0
 38101  1  0
 39102  1  0
 41103  1  0
 41104  1  0
 41105  1  0
 42106  1  0
 42107  1  0
 42108  1  0
 43109  1  0
 43110  1  0
 43111  1  0
 47112  1  0
 48113  1  0
 48114  1  0
 48115  1  0
 51116  1  0
 52117  1  6
 53118  1  0
 53119  1  0
 54120  1  0
 55121  1  6
 56122  1  0
 58123  1  0
 59124  1  0
 61125  1  0
 62126  1  0
 63127  1  0
M  END
$$$$
[H]c1c([H])c(N([H])C(=O)c2sc3nc(SC([H])([H])[H])c([H])n3c2[H])c([H])c([H])c1C(=O)OC([H])([H])C(=O)N([H])[H]
     RDKit          3D

 40 42  0  0  0  0  0  0  0  0999 V2000
   -9.0710    1.9536    0.1282 C   0  0  0  0  0  0  0  0  0  0  0  0
   -8.8726    0.2769    0.7223 S   0  0  0  0  0  0  0  0  0  0  0  0
   -7.1689   -0.2460    0.7307 C   0  0  0  0  0  0  0  0  0  0  0  0
   -6.0322    0.4358    0.3580 C   0  0  0  0  0  0  0  0  0  0  0  0
   -4.9260   -0.3683    0.5340 N   0  0  0  0  0  0  0  0  0  0  0  0
   -3.6248   -0.2610    0.3544 C   0  0  0  0  0  0  0  0  0  0  0  0
   -2.8520   -1.3404    0.6674 C   0  0  0  0  0  0  0  0  0  0  0  0
   -4.0106   -2.4706    1.2070 S   0  0  0  0  0  0  0  0  0  0  0  0
   -5.4072   -1.5119    1.0056 C   0  0  0  0  0  0  0  0  0  0  0  0
   -6.7740   -1.4617    1.1344 N   0  0  0  0  0  0  0  0  0  0  0  0
   -1.3801   -1.5143    0.5727 C   0  0  0  0  0  0  0  0  0  0  0  0
   -0.9244   -2.6244    0.9311 O   0  0  0  0  0  0  0  0  0  0  0  0
   -0.6210   -0.4362    0.0952 N   0  0  0  0  0  0  0  0  0  0  0  0
    0.7933   -0.3705   -0.0777 C   0  0  0  0  0  0  0  0  0  0  0  0
    1.6812   -1.3153    0.3689 C   0  0  0  0  0  0  0  0  0  0  0  0
    3.0616   -1.2052    0.1571 C   0  0  0  0  0  0  0  0  0  0  0  0
    3.5762   -0.1300   -0.5149 C   0  0  0  0  0  0  0  0  0  0  0  0
    2.6825    0.8053   -0.9550 C   0  0  0  0  0  0  0  0  0  0  0  0
    1.3324    0.7252   -0.7639 C   0  0  0  0  0  0  0  0  0  0  0  0
    5.0086    0.0370   -0.7652 C   0  0  0  0  0  0  0  0  0  0  0  0
    5.3975    1.0562   -1.3915 O   0  0  0  0  0  0  0  0  0  0  0  0
    5.9479   -0.8719   -0.3453 O   0  0  0  0  0  0  0  0  0  0  0  0
    7.3240   -0.7833   -0.5385 C   0  0  0  0  0  0  0  0  0  0  0  0
    7.9707    0.3787    0.1036 C   0  0  0  0  0  0  0  0  0  0  0  0
    7.2604    1.3101    0.8984 N   0  0  0  0  0  0  0  0  0  0  0  0
    9.2044    0.5220   -0.0789 O   0  0  0  0  0  0  0  0  0  0  0  0
   -8.2100    2.3358   -0.4483 H   0  0  0  0  0  0  0  0  0  0  0  0
  -10.0125    2.0044   -0.4581 H   0  0  0  0  0  0  0  0  0  0  0  0
   -9.1929    2.6283    0.9999 H   0  0  0  0  0  0  0  0  0  0  0  0
   -6.0836    1.4501   -0.0088 H   0  0  0  0  0  0  0  0  0  0  0  0
   -3.1081    0.6535   -0.0369 H   0  0  0  0  0  0  0  0  0  0  0  0
   -1.1346    0.4651   -0.1792 H   0  0  0  0  0  0  0  0  0  0  0  0
    1.3056   -2.1678    0.9065 H   0  0  0  0  0  0  0  0  0  0  0  0
    3.7363   -1.9635    0.5192 H   0  0  0  0  0  0  0  0  0  0  0  0
    3.1034    1.6698   -1.4959 H   0  0  0  0  0  0  0  0  0  0  0  0
    0.6829    1.5054   -1.1418 H   0  0  0  0  0  0  0  0  0  0  0  0
    7.8130   -1.7291   -0.1641 H   0  0  0  0  0  0  0  0  0  0  0  0
    7.5797   -0.7792   -1.6377 H   0  0  0  0  0  0  0  0  0  0  0  0
    6.3587    1.0474    1.3838 H   0  0  0  0  0  0  0  0  0  0  0  0
    7.5863    2.2900    1.0438 H   0  0  0  0  0  0  0  0  0  0  0  0
  1  2  1  0
  2  3  1  0
  3  4  2  0
  4  5  1  0
  5  6  1  0
  6  7  2  0
  7  8  1  0
  8  9  1  0
  9 10  2  0
  7 11  1  0
 11 12  2  0
 11 13  1  0
 13 14  1  0
 14 15  2  0
 15 16  1  0
 16 17  2  0
 17 18  1  0
 18 19  2  0
 17 20  1  0
 20 21  2  0
 20 22  1  0
 22 23  1  0
 23 24  1  0
 24 25  1  0
 24 26  2  0
 10  3  1  0
 19 14  1  0
  9  5  1  0
  1 27  1  0
  1 28  1  0
  1 29  1  0
  4 30  1  0
  6 31  1  0
 13 32  1  0
 15 33  1  0
 16 34  1  0
 18 35  1  0
 19 36  1  0
 23 37  1  0
 23 38  1  0
 25 39  1  0
 25 40  1  0
M  END
$$$$
[H]c1c([H])c(OC([H])([H])C(=O)N([H])[C@]([H])(C([H])([H])C([H])([H])[H])C([H])([H])C2([H])C(=O)C([H])([H])C([H])([H])C([H])([H])C2([H])[H])c([H])c([H])c1Cl
     RDKit          3D

 47 48  0  0  0  0  0  0  0  0999 V2000
   -1.8899   -3.8565   -1.0273 C   0  0  0  0  0  0  0  0  0  0  0  0
   -0.8538   -2.7319   -1.0345 C   0  0  0  0  0  0  0  0  0  0  0  0
   -0.6611   -2.0460    0.2394 C   0  0  2  0  0  0  0  0  0  0  0  0
   -1.6561   -1.2639    0.9550 C   0  0  0  0  0  0  0  0  0  0  0  0
   -2.2584   -0.0320    0.4888 C   0  0  0  0  0  0  0  0  0  0  0  0
   -3.2120    0.4478    1.6663 C   0  0  0  0  0  0  0  0  0  0  0  0
   -3.4808    1.8985    1.3383 C   0  0  0  0  0  0  0  0  0  0  0  0
   -4.3740    1.9720    0.1497 C   0  0  0  0  0  0  0  0  0  0  0  0
   -3.8443    1.2558   -1.0672 C   0  0  0  0  0  0  0  0  0  0  0  0
   -3.1802   -0.0530   -0.6401 C   0  0  0  0  0  0  0  0  0  0  0  0
   -3.5126   -0.9794   -1.3108 O   0  0  0  0  0  0  0  0  0  0  0  0
    0.6304   -1.2949    0.1964 N   0  0  0  0  0  0  0  0  0  0  0  0
    1.7675   -1.6804    0.9280 C   0  0  0  0  0  0  0  0  0  0  0  0
    1.6960   -2.7155    1.6607 O   0  0  0  0  0  0  0  0  0  0  0  0
    3.0256   -0.9043    0.8534 C   0  0  0  0  0  0  0  0  0  0  0  0
    2.8236    0.1827   -0.0261 O   0  0  0  0  0  0  0  0  0  0  0  0
    3.8212    1.1067   -0.3124 C   0  0  0  0  0  0  0  0  0  0  0  0
    5.0805    1.0264    0.2438 C   0  0  0  0  0  0  0  0  0  0  0  0
    6.0355    1.9545   -0.0623 C   0  0  0  0  0  0  0  0  0  0  0  0
    5.8057    2.9999   -0.9224 C   0  0  0  0  0  0  0  0  0  0  0  0
    7.0345    4.1905   -1.3135 Cl  0  0  0  0  0  0  0  0  0  0  0  0
    4.5423    3.0843   -1.4830 C   0  0  0  0  0  0  0  0  0  0  0  0
    3.5600    2.1381   -1.1744 C   0  0  0  0  0  0  0  0  0  0  0  0
   -2.4097   -3.9403   -2.0020 H   0  0  0  0  0  0  0  0  0  0  0  0
   -1.4515   -4.8337   -0.7797 H   0  0  0  0  0  0  0  0  0  0  0  0
   -2.6782   -3.5577   -0.2857 H   0  0  0  0  0  0  0  0  0  0  0  0
   -1.0247   -2.1395   -1.9385 H   0  0  0  0  0  0  0  0  0  0  0  0
    0.1217   -3.3020   -1.2418 H   0  0  0  0  0  0  0  0  0  0  0  0
   -0.3668   -2.8974    0.9796 H   0  0  0  0  0  0  0  0  0  0  0  0
   -2.4901   -2.0133    1.2742 H   0  0  0  0  0  0  0  0  0  0  0  0
   -1.2023   -1.0894    2.0119 H   0  0  0  0  0  0  0  0  0  0  0  0
   -1.5490    0.8429    0.4465 H   0  0  0  0  0  0  0  0  0  0  0  0
   -4.1305   -0.1647    1.5970 H   0  0  0  0  0  0  0  0  0  0  0  0
   -2.6713    0.3842    2.6085 H   0  0  0  0  0  0  0  0  0  0  0  0
   -3.9558    2.4399    2.1720 H   0  0  0  0  0  0  0  0  0  0  0  0
   -2.5036    2.3746    1.0472 H   0  0  0  0  0  0  0  0  0  0  0  0
   -5.4100    1.6546    0.3953 H   0  0  0  0  0  0  0  0  0  0  0  0
   -4.4749    3.0556   -0.1536 H   0  0  0  0  0  0  0  0  0  0  0  0
   -4.6879    1.0273   -1.7271 H   0  0  0  0  0  0  0  0  0  0  0  0
   -3.0990    1.8361   -1.6294 H   0  0  0  0  0  0  0  0  0  0  0  0
    0.6571   -0.4602   -0.4065 H   0  0  0  0  0  0  0  0  0  0  0  0
    3.3025   -0.5705    1.8739 H   0  0  0  0  0  0  0  0  0  0  0  0
    3.8591   -1.5424    0.4563 H   0  0  0  0  0  0  0  0  0  0  0  0
    5.2834    0.2049    0.9284 H   0  0  0  0  0  0  0  0  0  0  0  0
    7.0219    1.8619    0.3951 H   0  0  0  0  0  0  0  0  0  0  0  0
    4.3698    3.9041   -2.1544 H   0  0  0  0  0  0  0  0  0  0  0  0
    2.5902    2.2258   -1.6217 H   0  0  0  0  0  0  0  0  0  0  0  0
  1  2  1  0
  2  3  1  0
  3  4  1  0
  4  5  1  0
  5  6  1  0
  6  7  1  0
  7  8  1  0
  8  9  1  0
  9 10  1  0
 10 11  2  0
  3 12  1  0
 12 13  1  0
 13 14  2  0
 13 15  1  0
 15 16  1  0
 16 17  1  0
 17 18  2  0
 18 19  1  0
 19 20  2  0
 20 21  1  0
 20 22  1  0
 22 23  2  0
 10  5  1  0
 23 17  1  0
  1 24  1  0
  1 25  1  0
  1 26  1  0
  2 27  1  0
  2 28  1  0
  3 29  1  1
  4 30  1  0
  4 31  1  0
  5 32  1  0
  6 33  1  0
  6 34  1  0
  7 35  1  0
  7 36  1  0
  8 37  1  0
  8 38  1  0
  9 39  1  0
  9 40  1  0
 12 41  1  0
 15 42  1  0
 15 43  1  0
 18 44  1  0
 19 45  1  0
 22 46  1  0
 23 47  1  0
M  END
$$$$
[H]c1c([H])c(Br)c([H])c([C@]([H])(C(=O)N([H])C([H])([H])C2(C#N)N=C2N([H])[H])N([H])[H])c1[H]
     RDKit          3D

 31 32  0  0  0  0  0  0  0  0999 V2000
   -0.4917   -1.3139    1.6102 N   0  0  0  0  0  0  0  0  0  0  0  0
   -0.9277    0.0432    1.4575 C   0  0  1  0  0  0  0  0  0  0  0  0
    0.0539    0.8009    0.6223 C   0  0  0  0  0  0  0  0  0  0  0  0
   -0.1681    2.0085    0.3731 O   0  0  0  0  0  0  0  0  0  0  0  0
    1.2256    0.1879    0.1076 N   0  0  0  0  0  0  0  0  0  0  0  0
    2.1334    0.9578   -0.6870 C   0  0  0  0  0  0  0  0  0  0  0  0
    3.3233    0.1743   -1.1584 C   0  0  0  0  0  0  0  0  0  0  0  0
    3.0823   -1.0020   -1.9945 C   0  0  0  0  0  0  0  0  0  0  0  0
    2.8961   -1.9354   -2.6471 N   0  0  0  0  0  0  0  0  0  0  0  0
    4.5976    0.2598   -0.4080 C   0  0  0  0  0  0  0  0  0  0  0  0
    5.4279   -0.1249    0.6628 N   0  0  0  0  0  0  0  0  0  0  0  0
    4.4675    1.0216   -1.5029 N   0  0  0  0  0  0  0  0  0  0  0  0
   -2.2256    0.0365    0.7205 C   0  0  0  0  0  0  0  0  0  0  0  0
   -3.2545    0.8376    1.1957 C   0  0  0  0  0  0  0  0  0  0  0  0
   -4.4660    0.8540    0.5364 C   0  0  0  0  0  0  0  0  0  0  0  0
   -4.6697    0.0826   -0.5925 C   0  0  0  0  0  0  0  0  0  0  0  0
   -3.6583   -0.7119   -1.0687 C   0  0  0  0  0  0  0  0  0  0  0  0
   -3.8369   -1.8095   -2.6124 Br  0  0  0  0  0  0  0  0  0  0  0  0
   -2.4499   -0.7239   -0.4055 C   0  0  0  0  0  0  0  0  0  0  0  0
   -0.9531   -1.8310    2.3631 H   0  0  0  0  0  0  0  0  0  0  0  0
   -0.3196   -1.8110    0.7357 H   0  0  0  0  0  0  0  0  0  0  0  0
   -1.0279    0.5824    2.4090 H   0  0  0  0  0  0  0  0  0  0  0  0
    1.4142   -0.8323    0.3182 H   0  0  0  0  0  0  0  0  0  0  0  0
    1.5733    1.2868   -1.6105 H   0  0  0  0  0  0  0  0  0  0  0  0
    2.4499    1.8402   -0.1227 H   0  0  0  0  0  0  0  0  0  0  0  0
    5.0276   -0.1139    1.6257 H   0  0  0  0  0  0  0  0  0  0  0  0
    6.4238   -0.4242    0.5736 H   0  0  0  0  0  0  0  0  0  0  0  0
   -3.1332    1.4576    2.0791 H   0  0  0  0  0  0  0  0  0  0  0  0
   -5.2877    1.4770    0.8937 H   0  0  0  0  0  0  0  0  0  0  0  0
   -5.6075    0.0683   -1.1382 H   0  0  0  0  0  0  0  0  0  0  0  0
   -1.6189   -1.3431   -0.7539 H   0  0  0  0  0  0  0  0  0  0  0  0
  1  2  1  0
  2  3  1  0
  3  4  2  0
  3  5  1  0
  5  6  1  0
  6  7  1  0
  7  8  1  0
  8  9  3  0
  7 10  1  0
 10 11  1  0
 10 12  2  0
  2 13  1  0
 13 14  2  0
 14 15  1  0
 15 16  2  0
 16 17  1  0
 17 18  1  0
 17 19  2  0
 12  7  1  0
 19 13  1  0
  1 20  1  0
  1 21  1  0
  2 22  1  1
  5 23  1  0
  6 24  1  0
  6 25  1  0
 11 26  1  0
 11 27  1  0
 14 28  1  0
 15 29  1  0
 16 30  1  0
 19 31  1  0
M  END
$$$$
[H]OC([H])([H])[C@@]([H])(C(=O)N([H])[C@@]([H])(C([H])([H])O[H])[C@]([H])(O[H])C([H])([H])[H])N([H])C(=O)C(C([H])([H])[H])(C([H])([H])[H])[C@]([H])(N([H])C(=O)C([H])([H])c1c([H])n([H])c2c([H])c([H])c([H])c([H])c12)C([H])([H])C([H])(C([H])([H])[H])C([H])([H])[H]
     RDKit          3D

 76 77  0  0  0  0  0  0  0  0999 V2000
    4.6125    4.7518    1.1608 C   0  0  0  0  0  0  0  0  0  0  0  0
    4.6564    3.2716    0.9685 C   0  0  1  0  0  0  0  0  0  0  0  0
    5.8062    2.7015    1.4899 O   0  0  0  0  0  0  0  0  0  0  0  0
    3.4052    2.5682    1.4376 C   0  0  2  0  0  0  0  0  0  0  0  0
    3.3400    2.6205    2.9396 C   0  0  0  0  0  0  0  0  0  0  0  0
    3.2386    3.9654    3.3123 O   0  0  0  0  0  0  0  0  0  0  0  0
    3.5089    1.1818    0.9882 N   0  0  0  0  0  0  0  0  0  0  0  0
    2.5959    0.6157    0.0711 C   0  0  0  0  0  0  0  0  0  0  0  0
    1.6741    1.3873   -0.3323 O   0  0  0  0  0  0  0  0  0  0  0  0
    2.7411   -0.7739   -0.3539 C   0  0  2  0  0  0  0  0  0  0  0  0
    3.9697   -0.8105   -1.2990 C   0  0  0  0  0  0  0  0  0  0  0  0
    5.0583   -0.3650   -0.6259 O   0  0  0  0  0  0  0  0  0  0  0  0
    1.6158   -1.2724   -1.1389 N   0  0  0  0  0  0  0  0  0  0  0  0
    0.9763   -2.4914   -0.8724 C   0  0  0  0  0  0  0  0  0  0  0  0
    1.4186   -3.1510    0.1008 O   0  0  0  0  0  0  0  0  0  0  0  0
   -0.1889   -3.0391   -1.6790 C   0  0  0  0  0  0  0  0  0  0  0  0
   -0.3317   -4.4388   -1.2169 C   0  0  0  0  0  0  0  0  0  0  0  0
    0.3262   -3.0315   -3.1005 C   0  0  0  0  0  0  0  0  0  0  0  0
   -1.3757   -2.1375   -1.5285 C   0  0  1  0  0  0  0  0  0  0  0  0
   -2.6281   -2.3839   -2.2103 C   0  0  0  0  0  0  0  0  0  0  0  0
   -3.5401   -3.4849   -2.1413 C   0  0  0  0  0  0  0  0  0  0  0  0
   -4.1609   -3.8495   -0.8187 C   0  0  0  0  0  0  0  0  0  0  0  0
   -3.2809   -4.7482   -2.9080 C   0  0  0  0  0  0  0  0  0  0  0  0
   -1.5441   -1.7107   -0.1358 N   0  0  0  0  0  0  0  0  0  0  0  0
   -1.6283   -0.3679    0.2816 C   0  0  0  0  0  0  0  0  0  0  0  0
   -1.5662    0.5898   -0.5450 O   0  0  0  0  0  0  0  0  0  0  0  0
   -1.7963    0.0116    1.7120 C   0  0  0  0  0  0  0  0  0  0  0  0
   -1.8824    1.4499    1.9124 C   0  0  0  0  0  0  0  0  0  0  0  0
   -0.8896    2.2633    2.4058 C   0  0  0  0  0  0  0  0  0  0  0  0
   -1.3380    3.5442    2.4468 N   0  0  0  0  0  0  0  0  0  0  0  0
   -2.5937    3.5569    1.9891 C   0  0  0  0  0  0  0  0  0  0  0  0
   -3.4654    4.6151    1.8375 C   0  0  0  0  0  0  0  0  0  0  0  0
   -4.7465    4.4190    1.3354 C   0  0  0  0  0  0  0  0  0  0  0  0
   -5.1082    3.1359    0.9981 C   0  0  0  0  0  0  0  0  0  0  0  0
   -4.2300    2.0887    1.1539 C   0  0  0  0  0  0  0  0  0  0  0  0
   -2.9637    2.2600    1.6464 C   0  0  0  0  0  0  0  0  0  0  0  0
    5.0658    5.0989    2.1105 H   0  0  0  0  0  0  0  0  0  0  0  0
    3.5488    5.0730    1.1378 H   0  0  0  0  0  0  0  0  0  0  0  0
    5.1848    5.2293    0.3309 H   0  0  0  0  0  0  0  0  0  0  0  0
    4.7027    3.0840   -0.1438 H   0  0  0  0  0  0  0  0  0  0  0  0
    6.5012    2.5489    0.7949 H   0  0  0  0  0  0  0  0  0  0  0  0
    2.5359    3.0168    0.9500 H   0  0  0  0  0  0  0  0  0  0  0  0
    4.2377    2.1472    3.3854 H   0  0  0  0  0  0  0  0  0  0  0  0
    2.4403    2.0481    3.2905 H   0  0  0  0  0  0  0  0  0  0  0  0
    2.2677    4.1955    3.1895 H   0  0  0  0  0  0  0  0  0  0  0  0
    4.2749    0.5866    1.3709 H   0  0  0  0  0  0  0  0  0  0  0  0
    2.9435   -1.4170    0.5154 H   0  0  0  0  0  0  0  0  0  0  0  0
    4.1078   -1.9124   -1.4988 H   0  0  0  0  0  0  0  0  0  0  0  0
    3.7375   -0.2979   -2.2404 H   0  0  0  0  0  0  0  0  0  0  0  0
    5.8791   -0.7035   -1.0668 H   0  0  0  0  0  0  0  0  0  0  0  0
    1.2943   -0.6801   -1.9219 H   0  0  0  0  0  0  0  0  0  0  0  0
   -0.3598   -5.1016   -2.1343 H   0  0  0  0  0  0  0  0  0  0  0  0
   -1.1791   -4.7025   -0.6052 H   0  0  0  0  0  0  0  0  0  0  0  0
    0.6423   -4.7835   -0.7323 H   0  0  0  0  0  0  0  0  0  0  0  0
    1.3760   -3.4273   -3.0615 H   0  0  0  0  0  0  0  0  0  0  0  0
   -0.2169   -3.6775   -3.7922 H   0  0  0  0  0  0  0  0  0  0  0  0
    0.4240   -1.9841   -3.5037 H   0  0  0  0  0  0  0  0  0  0  0  0
   -0.9780   -1.1593   -1.9938 H   0  0  0  0  0  0  0  0  0  0  0  0
   -2.4015   -2.2467   -3.3369 H   0  0  0  0  0  0  0  0  0  0  0  0
   -3.2575   -1.4194   -2.0716 H   0  0  0  0  0  0  0  0  0  0  0  0
   -4.5168   -3.1259   -2.7021 H   0  0  0  0  0  0  0  0  0  0  0  0
   -4.9696   -4.5778   -1.0497 H   0  0  0  0  0  0  0  0  0  0  0  0
   -4.7006   -2.9707   -0.3609 H   0  0  0  0  0  0  0  0  0  0  0  0
   -3.4919   -4.3394   -0.1142 H   0  0  0  0  0  0  0  0  0  0  0  0
   -2.3906   -4.6449   -3.5671 H   0  0  0  0  0  0  0  0  0  0  0  0
   -3.0388   -5.6072   -2.2137 H   0  0  0  0  0  0  0  0  0  0  0  0
   -4.1563   -5.1196   -3.4892 H   0  0  0  0  0  0  0  0  0  0  0  0
   -1.6030   -2.4531    0.5722 H   0  0  0  0  0  0  0  0  0  0  0  0
   -2.7232   -0.5290    2.0563 H   0  0  0  0  0  0  0  0  0  0  0  0
   -0.9472   -0.4510    2.2819 H   0  0  0  0  0  0  0  0  0  0  0  0
    0.1116    2.0062    2.7312 H   0  0  0  0  0  0  0  0  0  0  0  0
   -0.7962    4.3791    2.7785 H   0  0  0  0  0  0  0  0  0  0  0  0
   -3.1947    5.6359    2.1004 H   0  0  0  0  0  0  0  0  0  0  0  0
   -5.4046    5.2756    1.2296 H   0  0  0  0  0  0  0  0  0  0  0  0
   -6.1206    2.9854    0.6029 H   0  0  0  0  0  0  0  0  0  0  0  0
   -4.5143    1.0786    0.8896 H   0  0  0  0  0  0  0  0  0  0  0  0
  1  2  1  0
  2  3  1  0
  2  4  1  0
  4  5  1  0
  5  6  1  0
  4  7  1  0
  7  8  1  0
  8  9  2  0
  8 10  1  0
 10 11  1  0
 11 12  1  0
 10 13  1  0
 13 14  1  0
 14 15  2  0
 14 16  1  0
 16 17  1  0
 16 18  1  0
 16 19  1  0
 19 20  1  0
 20 21  1  0
 21 22  1  0
 21 23  1  0
 19 24  1  0
 24 25  1  0
 25 26  2  0
 25 27  1  0
 27 28  1  0
 28 29  2  0
 29 30  1  0
 30 31  1  0
 31 32  2  0
 32 33  1  0
 33 34  2  0
 34 35  1  0
 35 36  2  0
 36 28  1  0
 36 31  1  0
  1 37  1  0
  1 38  1  0
  1 39  1  0
  2 40  1  6
  3 41  1  0
  4 42  1  6
  5 43  1  0
  5 44  1  0
  6 45  1  0
  7 46  1  0
 10 47  1  1
 11 48  1  0
 11 49  1  0
 12 50  1  0
 13 51  1  0
 17 52  1  0
 17 53  1  0
 17 54  1  0
 18 55  1  0
 18 56  1  0
 18 57  1  0
 19 58  1  6
 20 59  1  0
 20 60  1  0
 21 61  1  0
 22 62  1  0
 22 63  1  0
 22 64  1  0
 23 65  1  0
 23 66  1  0
 23 67  1  0
 24 68  1  0
 27 69  1  0
 27 70  1  0
 29 71  1  0
 30 72  1  0
 32 73  1  0
 33 74  1  0
 34 75  1  0
 35 76  1  0
M  END
$$$$
[H]c1nc(N2C([H])([H])C([H])([H])c3nc(N4C([H])([H])C([H])([H])N(c5c([H])c([H])c(OC([H])([H])[H])c([H])c5[H])C([H])([H])C4([H])[H])c(C(F)(F)F)c([H])c3C([H])([H])C2([H])[H])c(C(F)(F)F)c([H])c1[H]
     RDKit          3D

 66 70  0  0  0  0  0  0  0  0999 V2000
   -8.7844    2.6628    1.5020 C   0  0  0  0  0  0  0  0  0  0  0  0
   -8.5190    1.9389    0.3354 O   0  0  0  0  0  0  0  0  0  0  0  0
   -7.4387    1.0880    0.2827 C   0  0  0  0  0  0  0  0  0  0  0  0
   -6.6262    0.9542    1.3774 C   0  0  0  0  0  0  0  0  0  0  0  0
   -5.5279    0.0859    1.3172 C   0  0  0  0  0  0  0  0  0  0  0  0
   -5.2478   -0.6313    0.1925 C   0  0  0  0  0  0  0  0  0  0  0  0
   -6.0738   -0.4789   -0.8840 C   0  0  0  0  0  0  0  0  0  0  0  0
   -7.1721    0.3737   -0.8593 C   0  0  0  0  0  0  0  0  0  0  0  0
   -4.1451   -1.5123    0.1347 N   0  0  0  0  0  0  0  0  0  0  0  0
   -3.7108   -2.1661   -1.0730 C   0  0  0  0  0  0  0  0  0  0  0  0
   -2.2060   -2.3287   -1.0254 C   0  0  0  0  0  0  0  0  0  0  0  0
   -1.5173   -1.4135   -0.1814 N   0  0  0  0  0  0  0  0  0  0  0  0
   -2.0435   -1.1066    1.1297 C   0  0  0  0  0  0  0  0  0  0  0  0
   -3.3641   -1.8282    1.3174 C   0  0  0  0  0  0  0  0  0  0  0  0
   -0.3167   -0.7961   -0.5678 C   0  0  0  0  0  0  0  0  0  0  0  0
    0.8294   -1.2839   -0.0025 N   0  0  0  0  0  0  0  0  0  0  0  0
    2.0522   -0.8194   -0.2537 C   0  0  0  0  0  0  0  0  0  0  0  0
    3.0825   -1.5301    0.4890 C   0  0  0  0  0  0  0  0  0  0  0  0
    4.1121   -0.6306    1.1639 C   0  0  0  0  0  0  0  0  0  0  0  0
    4.6673    0.3373    0.3011 N   0  0  0  0  0  0  0  0  0  0  0  0
    4.0378    1.4673   -0.3470 C   0  0  0  0  0  0  0  0  0  0  0  0
    3.3475    0.9195   -1.5974 C   0  0  0  0  0  0  0  0  0  0  0  0
    2.1426    0.2234   -1.1470 C   0  0  0  0  0  0  0  0  0  0  0  0
    1.0096    0.7390   -1.7348 C   0  0  0  0  0  0  0  0  0  0  0  0
   -0.2721    0.2295   -1.4518 C   0  0  0  0  0  0  0  0  0  0  0  0
   -1.4224    0.8243   -2.1151 C   0  0  0  0  0  0  0  0  0  0  0  0
   -2.3769    1.2859   -1.1931 F   0  0  0  0  0  0  0  0  0  0  0  0
   -0.9607    2.0605   -2.6694 F   0  0  0  0  0  0  0  0  0  0  0  0
   -1.9488    0.1761   -3.1770 F   0  0  0  0  0  0  0  0  0  0  0  0
    6.0457    0.2391   -0.0099 C   0  0  0  0  0  0  0  0  0  0  0  0
    6.4251   -0.3650   -1.1845 N   0  0  0  0  0  0  0  0  0  0  0  0
    7.6718   -0.5172   -1.5698 C   0  0  0  0  0  0  0  0  0  0  0  0
    8.6736   -0.0446   -0.7516 C   0  0  0  0  0  0  0  0  0  0  0  0
    8.3368    0.5674    0.4344 C   0  0  0  0  0  0  0  0  0  0  0  0
    6.9996    0.7266    0.8395 C   0  0  0  0  0  0  0  0  0  0  0  0
    6.7318    1.4065    2.1292 C   0  0  0  0  0  0  0  0  0  0  0  0
    7.9609    1.8366    2.6894 F   0  0  0  0  0  0  0  0  0  0  0  0
    6.2559    0.5348    3.1105 F   0  0  0  0  0  0  0  0  0  0  0  0
    5.9605    2.5384    2.0153 F   0  0  0  0  0  0  0  0  0  0  0  0
   -9.7802    3.1506    1.4536 H   0  0  0  0  0  0  0  0  0  0  0  0
   -8.0040    3.3861    1.7825 H   0  0  0  0  0  0  0  0  0  0  0  0
   -8.8581    1.9235    2.3512 H   0  0  0  0  0  0  0  0  0  0  0  0
   -6.8309    1.5203    2.2931 H   0  0  0  0  0  0  0  0  0  0  0  0
   -4.9035    0.0141    2.2165 H   0  0  0  0  0  0  0  0  0  0  0  0
   -5.9016   -1.0132   -1.7808 H   0  0  0  0  0  0  0  0  0  0  0  0
   -7.8271    0.4991   -1.7028 H   0  0  0  0  0  0  0  0  0  0  0  0
   -3.9954   -1.6452   -2.0045 H   0  0  0  0  0  0  0  0  0  0  0  0
   -4.1556   -3.1804   -1.1005 H   0  0  0  0  0  0  0  0  0  0  0  0
   -1.9688   -3.3645   -0.5777 H   0  0  0  0  0  0  0  0  0  0  0  0
   -1.8294   -2.4183   -2.0472 H   0  0  0  0  0  0  0  0  0  0  0  0
   -2.0816   -0.0494    1.3829 H   0  0  0  0  0  0  0  0  0  0  0  0
   -1.3305   -1.5835    1.8660 H   0  0  0  0  0  0  0  0  0  0  0  0
   -3.1061   -2.9308    1.2819 H   0  0  0  0  0  0  0  0  0  0  0  0
   -3.8494   -1.6719    2.2648 H   0  0  0  0  0  0  0  0  0  0  0  0
    3.5982   -2.3169   -0.1363 H   0  0  0  0  0  0  0  0  0  0  0  0
    2.6032   -2.1026    1.3121 H   0  0  0  0  0  0  0  0  0  0  0  0
    3.6964   -0.2149    2.0978 H   0  0  0  0  0  0  0  0  0  0  0  0
    4.9259   -1.3522    1.4700 H   0  0  0  0  0  0  0  0  0  0  0  0
    4.7511    2.2730   -0.6167 H   0  0  0  0  0  0  0  0  0  0  0  0
    3.2282    1.9100    0.2677 H   0  0  0  0  0  0  0  0  0  0  0  0
    4.0429    0.2861   -2.1893 H   0  0  0  0  0  0  0  0  0  0  0  0
    3.1131    1.8025   -2.2276 H   0  0  0  0  0  0  0  0  0  0  0  0
    1.1258    1.5645   -2.4372 H   0  0  0  0  0  0  0  0  0  0  0  0
    7.8722   -1.0102   -2.5199 H   0  0  0  0  0  0  0  0  0  0  0  0
    9.6916   -0.1807   -1.0883 H   0  0  0  0  0  0  0  0  0  0  0  0
    9.1055    0.9415    1.0841 H   0  0  0  0  0  0  0  0  0  0  0  0
  1  2  1  0
  2  3  1  0
  3  4  2  0
  4  5  1  0
  5  6  2  0
  6  7  1  0
  7  8  2  0
  6  9  1  0
  9 10  1  0
 10 11  1  0
 11 12  1  0
 12 13  1  0
 13 14  1  0
 12 15  1  0
 15 16  2  0
 16 17  1  0
 17 18  1  0
 18 19  1  0
 19 20  1  0
 20 21  1  0
 21 22  1  0
 22 23  1  0
 23 24  1  0
 24 25  2  0
 25 26  1  0
 26 27  1  0
 26 28  1  0
 26 29  1  0
 20 30  1  0
 30 31  2  0
 31 32  1  0
 32 33  2  0
 33 34  1  0
 34 35  2  0
 35 36  1  0
 36 37  1  0
 36 38  1  0
 36 39  1  0
  8  3  1  0
 14  9  1  0
 25 15  1  0
 35 30  1  0
 23 17  2  0
  1 40  1  0
  1 41  1  0
  1 42  1  0
  4 43  1  0
  5 44  1  0
  7 45  1  0
  8 46  1  0
 10 47  1  0
 10 48  1  0
 11 49  1  0
 11 50  1  0
 13 51  1  0
 13 52  1  0
 14 53  1  0
 14 54  1  0
 18 55  1  0
 18 56  1  0
 19 57  1  0
 19 58  1  0
 21 59  1  0
 21 60  1  0
 22 61  1  0
 22 62  1  0
 24 63  1  0
 32 64  1  0
 33 65  1  0
 34 66  1  0
M  END
$$$$
[H]N=C(c1c([H])c(O[H])c(Br)c(O[H])c1[H])N([H])[H]
     RDKit          3D

 19 19  0  0  0  0  0  0  0  0999 V2000
   -2.8216    0.9578   -0.0315 N   0  0  0  0  0  0  0  0  0  0  0  0
   -2.0420   -0.2131    0.0784 C   0  0  0  0  0  0  0  0  0  0  0  0
   -2.6176   -1.3523    0.2200 N   0  0  0  0  0  0  0  0  0  0  0  0
   -0.5909   -0.1693    0.0357 C   0  0  0  0  0  0  0  0  0  0  0  0
    0.1042    1.0262   -0.1153 C   0  0  0  0  0  0  0  0  0  0  0  0
    1.4659    1.0685   -0.1554 C   0  0  0  0  0  0  0  0  0  0  0  0
    2.1393    2.2752   -0.3071 O   0  0  0  0  0  0  0  0  0  0  0  0
    2.1976   -0.0929   -0.0453 C   0  0  0  0  0  0  0  0  0  0  0  0
    4.0979   -0.0690   -0.0974 Br  0  0  0  0  0  0  0  0  0  0  0  0
    1.5555   -1.3057    0.1062 C   0  0  0  0  0  0  0  0  0  0  0  0
    2.2567   -2.5088    0.2218 O   0  0  0  0  0  0  0  0  0  0  0  0
    0.1696   -1.3074    0.1425 C   0  0  0  0  0  0  0  0  0  0  0  0
   -2.4954    1.9197    0.1975 H   0  0  0  0  0  0  0  0  0  0  0  0
   -3.8222    0.8848   -0.3713 H   0  0  0  0  0  0  0  0  0  0  0  0
   -3.6480   -1.4919    0.2624 H   0  0  0  0  0  0  0  0  0  0  0  0
   -0.4945    1.9372   -0.2010 H   0  0  0  0  0  0  0  0  0  0  0  0
    1.6365    3.1517   -0.3914 H   0  0  0  0  0  0  0  0  0  0  0  0
    3.2663   -2.4491    0.1889 H   0  0  0  0  0  0  0  0  0  0  0  0
   -0.3572   -2.2614    0.2622 H   0  0  0  0  0  0  0  0  0  0  0  0
  1  2  1  0
  2  3  2  3
  2  4  1  0
  4  5  2  0
  5  6  1  0
  6  7  1  0
  6  8  2  0
  8  9  1  0
  8 10  1  0
 10 11  1  0
 10 12  2  0
 12  4  1  0
  1 13  1  0
  1 14  1  0
  3 15  1  0
  5 16  1  0
  7 17  1  0
 11 18  1  0
 12 19  1  0
M  END
$$$$
[H]N=C(N([H])[H])N([H])C([H])([H])C([H])([H])C([H])([H])[C@@]([H])(C(=O)N([H])[C@]([H])(C(=O)N([H])[H])C([H])([H])c1c([H])n([H])c2c([H])c([H])c([H])c([H])c12)N([H])C(=O)[C@@]([H])(N([H])C(=O)[C@@]([H])(N([H])C(=O)[C@@]([H])(N([H])C(=O)c1c([H])c([H])c([H])c(C([H])([H])[H])c1[H])C([H])([H])C([H])([H])C([H])([H])N=C(N([H])[H])N([H])[H])C([H])([H])c1c([H])c([H])c([H])c([H])c1[H])C([H])([H])C([H])(C([H])([H])[H])C([H])([H])[H]
     RDKit          3D

128131  0  0  0  0  0  0  0  0999 V2000
    0.8888    4.9211    0.3770 C   0  0  0  0  0  0  0  0  0  0  0  0
    0.5683    4.6393   -1.0784 C   0  0  0  0  0  0  0  0  0  0  0  0
    0.3377    5.9323   -1.8419 C   0  0  0  0  0  0  0  0  0  0  0  0
   -0.7436    3.8507   -1.1195 C   0  0  0  0  0  0  0  0  0  0  0  0
   -0.5942    2.5649   -0.3736 C   0  0  2  0  0  0  0  0  0  0  0  0
    0.3653    1.6560   -0.8396 N   0  0  0  0  0  0  0  0  0  0  0  0
    1.3664    1.0105   -0.1349 C   0  0  0  0  0  0  0  0  0  0  0  0
    1.4620    1.2223    1.1255 O   0  0  0  0  0  0  0  0  0  0  0  0
    2.3202    0.0905   -0.8140 C   0  0  2  0  0  0  0  0  0  0  0  0
    1.6728   -1.0298   -1.5842 C   0  0  0  0  0  0  0  0  0  0  0  0
    0.8863   -1.9933   -0.8383 C   0  0  0  0  0  0  0  0  0  0  0  0
   -0.4379   -1.8820   -0.5883 C   0  0  0  0  0  0  0  0  0  0  0  0
   -1.1798   -2.8190    0.1204 C   0  0  0  0  0  0  0  0  0  0  0  0
   -0.5058   -3.9387    0.5969 C   0  0  0  0  0  0  0  0  0  0  0  0
    0.8388   -4.1029    0.3705 C   0  0  0  0  0  0  0  0  0  0  0  0
    1.5182   -3.1329   -0.3419 C   0  0  0  0  0  0  0  0  0  0  0  0
    3.3009   -0.4391    0.1024 N   0  0  0  0  0  0  0  0  0  0  0  0
    4.6836   -0.3253   -0.1586 C   0  0  0  0  0  0  0  0  0  0  0  0
    5.0446    0.2557   -1.2081 O   0  0  0  0  0  0  0  0  0  0  0  0
    5.7342   -0.8592    0.7265 C   0  0  2  0  0  0  0  0  0  0  0  0
    6.0566    0.1829    1.7997 C   0  0  0  0  0  0  0  0  0  0  0  0
    6.5254    1.4569    1.1823 C   0  0  0  0  0  0  0  0  0  0  0  0
    6.8708    2.5182    2.1825 C   0  0  0  0  0  0  0  0  0  0  0  0
    7.9129    2.1579    3.0999 N   0  0  0  0  0  0  0  0  0  0  0  0
    9.1555    2.0260    2.8577 C   0  0  0  0  0  0  0  0  0  0  0  0
    9.6012    2.2508    1.5291 N   0  0  0  0  0  0  0  0  0  0  0  0
   10.0903    1.6856    3.8710 N   0  0  0  0  0  0  0  0  0  0  0  0
    6.9929   -1.0782    0.0241 N   0  0  0  0  0  0  0  0  0  0  0  0
    7.7005   -2.2866    0.1496 C   0  0  0  0  0  0  0  0  0  0  0  0
    7.2468   -3.2003    0.8878 O   0  0  0  0  0  0  0  0  0  0  0  0
    8.9564   -2.5324   -0.5468 C   0  0  0  0  0  0  0  0  0  0  0  0
    9.4940   -1.6465   -1.4534 C   0  0  0  0  0  0  0  0  0  0  0  0
   10.6899   -1.9255   -2.0875 C   0  0  0  0  0  0  0  0  0  0  0  0
   11.3773   -3.0964   -1.8281 C   0  0  0  0  0  0  0  0  0  0  0  0
   10.8425   -3.9789   -0.9261 C   0  0  0  0  0  0  0  0  0  0  0  0
   11.5412   -5.2541   -0.6110 C   0  0  0  0  0  0  0  0  0  0  0  0
    9.6700   -3.7030   -0.3077 C   0  0  0  0  0  0  0  0  0  0  0  0
   -1.9329    1.9866    0.0094 C   0  0  0  0  0  0  0  0  0  0  0  0
   -1.8904    1.0300    0.8335 O   0  0  0  0  0  0  0  0  0  0  0  0
   -3.1272    2.4499   -0.4987 N   0  0  0  0  0  0  0  0  0  0  0  0
   -4.4745    2.0808   -0.2716 C   0  0  1  0  0  0  0  0  0  0  0  0
   -5.4246    2.8865   -1.0878 C   0  0  0  0  0  0  0  0  0  0  0  0
   -5.4084    4.3411   -0.8218 C   0  0  0  0  0  0  0  0  0  0  0  0
   -5.8020    4.8459    0.5061 C   0  0  0  0  0  0  0  0  0  0  0  0
   -7.1336    4.6556    0.9416 N   0  0  0  0  0  0  0  0  0  0  0  0
   -7.7630    3.4654    1.3317 C   0  0  0  0  0  0  0  0  0  0  0  0
   -7.3936    2.7859    2.5390 N   0  0  0  0  0  0  0  0  0  0  0  0
   -8.6776    2.9679    0.6157 N   0  0  0  0  0  0  0  0  0  0  0  0
   -4.7177    0.6041   -0.5637 C   0  0  0  0  0  0  0  0  0  0  0  0
   -3.7979   -0.1060   -0.9184 O   0  0  0  0  0  0  0  0  0  0  0  0
   -6.0283    0.1151   -0.4033 N   0  0  0  0  0  0  0  0  0  0  0  0
   -6.3543   -1.3078   -0.6372 C   0  0  1  0  0  0  0  0  0  0  0  0
   -7.0740   -1.8062    0.5681 C   0  0  0  0  0  0  0  0  0  0  0  0
   -7.5382   -3.1946    0.4946 C   0  0  0  0  0  0  0  0  0  0  0  0
   -6.8671   -4.3513    0.8735 C   0  0  0  0  0  0  0  0  0  0  0  0
   -7.6302   -5.3901    0.6093 N   0  0  0  0  0  0  0  0  0  0  0  0
   -8.7936   -5.0095    0.0672 C   0  0  0  0  0  0  0  0  0  0  0  0
   -9.8934   -5.7760   -0.3454 C   0  0  0  0  0  0  0  0  0  0  0  0
  -10.9988   -5.1272   -0.8575 C   0  0  0  0  0  0  0  0  0  0  0  0
  -10.9589   -3.7561   -0.9332 C   0  0  0  0  0  0  0  0  0  0  0  0
   -9.8854   -3.0058   -0.5312 C   0  0  0  0  0  0  0  0  0  0  0  0
   -8.7671   -3.6420   -0.0166 C   0  0  0  0  0  0  0  0  0  0  0  0
   -6.9444   -1.5534   -1.9516 C   0  0  0  0  0  0  0  0  0  0  0  0
   -6.8951   -2.8867   -2.4883 N   0  0  0  0  0  0  0  0  0  0  0  0
   -7.4888   -0.6690   -2.6485 O   0  0  0  0  0  0  0  0  0  0  0  0
    1.4315    5.9036    0.4669 H   0  0  0  0  0  0  0  0  0  0  0  0
    1.5271    4.1014    0.7506 H   0  0  0  0  0  0  0  0  0  0  0  0
   -0.0777    4.9323    0.9377 H   0  0  0  0  0  0  0  0  0  0  0  0
    1.3363    4.0212   -1.5699 H   0  0  0  0  0  0  0  0  0  0  0  0
   -0.7397    6.1293   -1.8625 H   0  0  0  0  0  0  0  0  0  0  0  0
    0.8555    6.8101   -1.3648 H   0  0  0  0  0  0  0  0  0  0  0  0
    0.6906    5.7719   -2.8755 H   0  0  0  0  0  0  0  0  0  0  0  0
   -1.0071    3.7033   -2.1793 H   0  0  0  0  0  0  0  0  0  0  0  0
   -1.5572    4.4951   -0.6726 H   0  0  0  0  0  0  0  0  0  0  0  0
   -0.2409    2.9159    0.7052 H   0  0  0  0  0  0  0  0  0  0  0  0
    0.2999    1.4389   -1.9106 H   0  0  0  0  0  0  0  0  0  0  0  0
    2.8706    0.6964   -1.5766 H   0  0  0  0  0  0  0  0  0  0  0  0
    2.5206   -1.5552   -2.1088 H   0  0  0  0  0  0  0  0  0  0  0  0
    1.0839   -0.5917   -2.4506 H   0  0  0  0  0  0  0  0  0  0  0  0
   -1.0084   -1.0297   -0.9395 H   0  0  0  0  0  0  0  0  0  0  0  0
   -2.2488   -2.7209    0.3182 H   0  0  0  0  0  0  0  0  0  0  0  0
   -1.0496   -4.6864    1.1659 H   0  0  0  0  0  0  0  0  0  0  0  0
    1.3653   -4.9924    0.7474 H   0  0  0  0  0  0  0  0  0  0  0  0
    2.5624   -3.2974   -0.5045 H   0  0  0  0  0  0  0  0  0  0  0  0
    2.9852   -0.9137    0.9617 H   0  0  0  0  0  0  0  0  0  0  0  0
    5.4799   -1.7771    1.2653 H   0  0  0  0  0  0  0  0  0  0  0  0
    5.2412    0.3220    2.5127 H   0  0  0  0  0  0  0  0  0  0  0  0
    6.9153   -0.2299    2.4030 H   0  0  0  0  0  0  0  0  0  0  0  0
    5.7602    1.9084    0.5030 H   0  0  0  0  0  0  0  0  0  0  0  0
    7.4197    1.3051    0.5464 H   0  0  0  0  0  0  0  0  0  0  0  0
    5.9893    2.8894    2.7726 H   0  0  0  0  0  0  0  0  0  0  0  0
    7.2663    3.4380    1.6415 H   0  0  0  0  0  0  0  0  0  0  0  0
   10.3133    1.6214    1.1280 H   0  0  0  0  0  0  0  0  0  0  0  0
    9.2180    3.0319    0.9891 H   0  0  0  0  0  0  0  0  0  0  0  0
   11.0779    1.4850    3.6443 H   0  0  0  0  0  0  0  0  0  0  0  0
    9.8304    1.6216    4.8879 H   0  0  0  0  0  0  0  0  0  0  0  0
    7.3553   -0.3280   -0.5816 H   0  0  0  0  0  0  0  0  0  0  0  0
    8.9816   -0.7197   -1.6787 H   0  0  0  0  0  0  0  0  0  0  0  0
   11.1165   -1.2407   -2.7926 H   0  0  0  0  0  0  0  0  0  0  0  0
   12.3128   -3.3311   -2.3115 H   0  0  0  0  0  0  0  0  0  0  0  0
   11.8057   -5.7990   -1.5269 H   0  0  0  0  0  0  0  0  0  0  0  0
   10.9126   -5.9042    0.0226 H   0  0  0  0  0  0  0  0  0  0  0  0
   12.4596   -4.9760   -0.0765 H   0  0  0  0  0  0  0  0  0  0  0  0
    9.2492   -4.4231    0.4113 H   0  0  0  0  0  0  0  0  0  0  0  0
   -3.0086    3.2659   -1.2266 H   0  0  0  0  0  0  0  0  0  0  0  0
   -4.7605    2.1266    0.8142 H   0  0  0  0  0  0  0  0  0  0  0  0
   -5.0907    2.7839   -2.1968 H   0  0  0  0  0  0  0  0  0  0  0  0
   -6.4194    2.4754   -1.0824 H   0  0  0  0  0  0  0  0  0  0  0  0
   -6.1439    4.8023   -1.5644 H   0  0  0  0  0  0  0  0  0  0  0  0
   -4.4419    4.8248   -1.1334 H   0  0  0  0  0  0  0  0  0  0  0  0
   -5.1257    4.4473    1.3408 H   0  0  0  0  0  0  0  0  0  0  0  0
   -5.5469    5.9544    0.5264 H   0  0  0  0  0  0  0  0  0  0  0  0
   -7.7803    5.5205    0.9905 H   0  0  0  0  0  0  0  0  0  0  0  0
   -7.8874    1.9137    2.8291 H   0  0  0  0  0  0  0  0  0  0  0  0
   -6.6299    3.1591    3.1504 H   0  0  0  0  0  0  0  0  0  0  0  0
   -9.1928    2.1173    0.8182 H   0  0  0  0  0  0  0  0  0  0  0  0
   -6.7921    0.7281   -0.1221 H   0  0  0  0  0  0  0  0  0  0  0  0
   -5.3390   -1.8482   -0.6388 H   0  0  0  0  0  0  0  0  0  0  0  0
   -7.9388   -1.1482    0.8450 H   0  0  0  0  0  0  0  0  0  0  0  0
   -6.3228   -1.7779    1.4100 H   0  0  0  0  0  0  0  0  0  0  0  0
   -5.8607   -4.3335    1.3189 H   0  0  0  0  0  0  0  0  0  0  0  0
   -7.3480   -6.3937    0.8005 H   0  0  0  0  0  0  0  0  0  0  0  0
   -9.8953   -6.8440   -0.2716 H   0  0  0  0  0  0  0  0  0  0  0  0
  -11.8655   -5.7070   -1.1795 H   0  0  0  0  0  0  0  0  0  0  0  0
  -11.8367   -3.2237   -1.3454 H   0  0  0  0  0  0  0  0  0  0  0  0
   -9.8786   -1.9330   -0.6037 H   0  0  0  0  0  0  0  0  0  0  0  0
   -6.1767   -3.5851   -2.2089 H   0  0  0  0  0  0  0  0  0  0  0  0
   -7.6126   -3.1813   -3.1851 H   0  0  0  0  0  0  0  0  0  0  0  0
  1  2  1  0
  2  3  1  0
  2  4  1  0
  4  5  1  0
  5  6  1  0
  6  7  1  0
  7  8  2  0
  7  9  1  0
  9 10  1  0
 10 11  1  0
 11 12  2  0
 12 13  1  0
 13 14  2  0
 14 15  1  0
 15 16  2  0
  9 17  1  0
 17 18  1  0
 18 19  2  0
 18 20  1  0
 20 21  1  0
 21 22  1  0
 22 23  1  0
 23 24  1  0
 24 25  2  3
 25 26  1  0
 25 27  1  0
 20 28  1  0
 28 29  1  0
 29 30  2  0
 29 31  1  0
 31 32  2  0
 32 33  1  0
 33 34  2  0
 34 35  1  0
 35 36  1  0
 35 37  2  0
  5 38  1  0
 38 39  2  0
 38 40  1  0
 40 41  1  0
 41 42  1  0
 42 43  1  0
 43 44  1  0
 44 45  1  0
 45 46  1  0
 46 47  1  0
 46 48  2  3
 41 49  1  0
 49 50  2  0
 49 51  1  0
 51 52  1  0
 52 53  1  0
 53 54  1  0
 54 55  2  0
 55 56  1  0
 56 57  1  0
 57 58  2  0
 58 59  1  0
 59 60  2  0
 60 61  1  0
 61 62  2  0
 52 63  1  0
 63 64  1  0
 63 65  2  0
 16 11  1  0
 37 31  1  0
 62 54  1  0
 62 57  1  0
  1 66  1  0
  1 67  1  0
  1 68  1  0
  2 69  1  0
  3 70  1  0
  3 71  1  0
  3 72  1  0
  4 73  1  0
  4 74  1  0
  5 75  1  1
  6 76  1  0
  9 77  1  6
 10 78  1  0
 10 79  1  0
 12 80  1  0
 13 81  1  0
 14 82  1  0
 15 83  1  0
 16 84  1  0
 17 85  1  0
 20 86  1  1
 21 87  1  0
 21 88  1  0
 22 89  1  0
 22 90  1  0
 23 91  1  0
 23 92  1  0
 26 93  1  0
 26 94  1  0
 27 95  1  0
 27 96  1  0
 28 97  1  0
 32 98  1  0
 33 99  1  0
 34100  1  0
 36101  1  0
 36102  1  0
 36103  1  0
 37104  1  0
 40105  1  0
 41106  1  1
 42107  1  0
 42108  1  0
 43109  1  0
 43110  1  0
 44111  1  0
 44112  1  0
 45113  1  0
 47114  1  0
 47115  1  0
 48116  1  0
 51117  1  0
 52118  1  6
 53119  1  0
 53120  1  0
 55121  1  0
 56122  1  0
 58123  1  0
 59124  1  0
 60125  1  0
 61126  1  0
 64127  1  0
 64128  1  0
M  END
$$$$
[H]OC(=O)C([H])([H])[C@@]([H])(C(=O)N([H])[C@@]([H])(C(=O)N([H])[C@]([H])(C(=O)N([H])[C@]([H])(C(=O)N([H])[C@]([H])(C(=O)N1C([H])([H])C([H])([H])C([H])([H])C1([H])[H])C([H])([H])C([H])(C([H])([H])[H])C([H])([H])[H])C([H])([H])c1c([H])c([H])c([H])c([H])c1[H])C([H])([H])C(=O)N([H])[H])C([H])([H])[H])N([H])C(=O)[C@@]([H])(N([H])C(=O)C([H])([H])[H])C([H])(C([H])([H])[H])C([H])([H])[H]
     RDKit          3D

111112  0  0  0  0  0  0  0  0999 V2000
   -7.2960    1.6001    4.5565 C   0  0  0  0  0  0  0  0  0  0  0  0
   -6.8005    1.9290    3.1199 C   0  0  0  0  0  0  0  0  0  0  0  0
   -5.3754    2.3824    3.3377 C   0  0  0  0  0  0  0  0  0  0  0  0
   -6.9776    0.6873    2.3630 C   0  0  0  0  0  0  0  0  0  0  0  0
   -6.6533    0.5799    0.9381 C   0  0  2  0  0  0  0  0  0  0  0  0
   -5.2334    0.8658    0.7244 N   0  0  0  0  0  0  0  0  0  0  0  0
   -4.3055   -0.1370    0.3879 C   0  0  0  0  0  0  0  0  0  0  0  0
   -4.8311   -1.3166    0.3013 O   0  0  0  0  0  0  0  0  0  0  0  0
   -2.8867   -0.0693    0.1306 C   0  0  2  0  0  0  0  0  0  0  0  0
   -2.4902    0.6052   -1.1944 C   0  0  0  0  0  0  0  0  0  0  0  0
   -2.9040    1.9917   -1.3299 C   0  0  0  0  0  0  0  0  0  0  0  0
   -2.0784    2.9599   -0.7428 C   0  0  0  0  0  0  0  0  0  0  0  0
   -2.3786    4.2963   -0.8603 C   0  0  0  0  0  0  0  0  0  0  0  0
   -3.4882    4.7395   -1.5504 C   0  0  0  0  0  0  0  0  0  0  0  0
   -4.2830    3.7638   -2.1189 C   0  0  0  0  0  0  0  0  0  0  0  0
   -4.0010    2.4259   -2.0128 C   0  0  0  0  0  0  0  0  0  0  0  0
   -2.3125   -1.4448   -0.0017 N   0  0  0  0  0  0  0  0  0  0  0  0
   -0.9969   -1.7329    0.4254 C   0  0  0  0  0  0  0  0  0  0  0  0
   -0.3173   -0.7996    0.9251 O   0  0  0  0  0  0  0  0  0  0  0  0
   -0.4605   -3.1328    0.2622 C   0  0  2  0  0  0  0  0  0  0  0  0
   -1.2176   -4.0718    1.1265 C   0  0  0  0  0  0  0  0  0  0  0  0
   -0.7309   -5.4477    0.9820 C   0  0  0  0  0  0  0  0  0  0  0  0
    0.1041   -5.8305   -0.0765 N   0  0  0  0  0  0  0  0  0  0  0  0
   -1.0818   -6.2957    1.8369 O   0  0  0  0  0  0  0  0  0  0  0  0
    0.9500   -3.1456    0.6504 N   0  0  0  0  0  0  0  0  0  0  0  0
    1.9722   -2.9722   -0.2964 C   0  0  0  0  0  0  0  0  0  0  0  0
    1.6676   -2.7970   -1.4985 O   0  0  0  0  0  0  0  0  0  0  0  0
    3.3906   -2.9872    0.1110 C   0  0  1  0  0  0  0  0  0  0  0  0
    3.8495   -4.3975    0.4513 C   0  0  0  0  0  0  0  0  0  0  0  0
    4.2504   -2.5130   -0.9809 N   0  0  0  0  0  0  0  0  0  0  0  0
    5.1496   -1.4695   -0.7254 C   0  0  0  0  0  0  0  0  0  0  0  0
    5.1791   -0.9981    0.5005 O   0  0  0  0  0  0  0  0  0  0  0  0
    6.0436   -0.8714   -1.6903 C   0  0  2  0  0  0  0  0  0  0  0  0
    6.0365   -1.4437   -3.0394 C   0  0  0  0  0  0  0  0  0  0  0  0
    4.7339   -1.3011   -3.7221 C   0  0  0  0  0  0  0  0  0  0  0  0
    3.7261   -0.5301   -3.2339 O   0  0  0  0  0  0  0  0  0  0  0  0
    4.5919   -1.9408   -4.8082 O   0  0  0  0  0  0  0  0  0  0  0  0
    7.3590   -0.6234   -1.1010 N   0  0  0  0  0  0  0  0  0  0  0  0
    7.8642    0.6895   -0.9747 C   0  0  0  0  0  0  0  0  0  0  0  0
    7.0698    1.6059   -1.4259 O   0  0  0  0  0  0  0  0  0  0  0  0
    9.1584    1.0540   -0.4028 C   0  0  1  0  0  0  0  0  0  0  0  0
    9.3353    2.5109   -0.6355 N   0  0  0  0  0  0  0  0  0  0  0  0
   10.4196    2.9242   -1.4058 C   0  0  0  0  0  0  0  0  0  0  0  0
   10.6658    4.3755   -1.6860 C   0  0  0  0  0  0  0  0  0  0  0  0
   11.2458    2.0853   -1.9047 O   0  0  0  0  0  0  0  0  0  0  0  0
    9.2359    0.8108    1.0895 C   0  0  0  0  0  0  0  0  0  0  0  0
   10.6110    1.2504    1.6091 C   0  0  0  0  0  0  0  0  0  0  0  0
    9.1602   -0.6697    1.3799 C   0  0  0  0  0  0  0  0  0  0  0  0
   -7.5017    1.3200    0.0181 C   0  0  0  0  0  0  0  0  0  0  0  0
   -7.1907    2.4490   -0.3648 O   0  0  0  0  0  0  0  0  0  0  0  0
   -8.7398    0.7758   -0.4938 N   0  0  0  0  0  0  0  0  0  0  0  0
   -9.3198   -0.4915   -0.2164 C   0  0  0  0  0  0  0  0  0  0  0  0
  -10.7585   -0.3663   -0.6480 C   0  0  0  0  0  0  0  0  0  0  0  0
  -10.7442    0.7184   -1.7090 C   0  0  0  0  0  0  0  0  0  0  0  0
   -9.5508    1.5352   -1.4030 C   0  0  0  0  0  0  0  0  0  0  0  0
   -8.1204    0.8620    4.4806 H   0  0  0  0  0  0  0  0  0  0  0  0
   -7.7217    2.5094    5.0077 H   0  0  0  0  0  0  0  0  0  0  0  0
   -6.4527    1.2370    5.1740 H   0  0  0  0  0  0  0  0  0  0  0  0
   -7.4557    2.7709    2.8066 H   0  0  0  0  0  0  0  0  0  0  0  0
   -5.0992    3.2453    2.6652 H   0  0  0  0  0  0  0  0  0  0  0  0
   -5.2307    2.7716    4.3847 H   0  0  0  0  0  0  0  0  0  0  0  0
   -4.6184    1.6114    3.1979 H   0  0  0  0  0  0  0  0  0  0  0  0
   -6.4708   -0.1352    2.9637 H   0  0  0  0  0  0  0  0  0  0  0  0
   -8.0748    0.3932    2.4894 H   0  0  0  0  0  0  0  0  0  0  0  0
   -6.7605   -0.5188    0.6364 H   0  0  0  0  0  0  0  0  0  0  0  0
   -4.9234    1.8463    0.8264 H   0  0  0  0  0  0  0  0  0  0  0  0
   -2.2458    0.4315    0.8726 H   0  0  0  0  0  0  0  0  0  0  0  0
   -3.0697    0.0238   -1.9750 H   0  0  0  0  0  0  0  0  0  0  0  0
   -1.4196    0.4652   -1.3948 H   0  0  0  0  0  0  0  0  0  0  0  0
   -1.1831    2.6432   -0.1841 H   0  0  0  0  0  0  0  0  0  0  0  0
   -1.7170    5.0348   -0.3893 H   0  0  0  0  0  0  0  0  0  0  0  0
   -3.7120    5.7934   -1.6339 H   0  0  0  0  0  0  0  0  0  0  0  0
   -5.1504    4.1335   -2.6607 H   0  0  0  0  0  0  0  0  0  0  0  0
   -4.6659    1.7220   -2.4816 H   0  0  0  0  0  0  0  0  0  0  0  0
   -2.8812   -2.2115   -0.4139 H   0  0  0  0  0  0  0  0  0  0  0  0
   -0.5102   -3.4263   -0.7929 H   0  0  0  0  0  0  0  0  0  0  0  0
   -2.3162   -4.1117    0.8383 H   0  0  0  0  0  0  0  0  0  0  0  0
   -1.1607   -3.8084    2.2129 H   0  0  0  0  0  0  0  0  0  0  0  0
    1.1287   -5.9858    0.0896 H   0  0  0  0  0  0  0  0  0  0  0  0
   -0.2614   -5.9774   -1.0685 H   0  0  0  0  0  0  0  0  0  0  0  0
    1.1866   -3.2873    1.6457 H   0  0  0  0  0  0  0  0  0  0  0  0
    3.6051   -2.3647    0.9916 H   0  0  0  0  0  0  0  0  0  0  0  0
    3.4847   -5.1137   -0.3068 H   0  0  0  0  0  0  0  0  0  0  0  0
    3.5573   -4.6973    1.4792 H   0  0  0  0  0  0  0  0  0  0  0  0
    4.9586   -4.4058    0.4125 H   0  0  0  0  0  0  0  0  0  0  0  0
    4.1621   -2.9797   -1.8739 H   0  0  0  0  0  0  0  0  0  0  0  0
    5.6600    0.2438   -1.8719 H   0  0  0  0  0  0  0  0  0  0  0  0
    6.7834   -0.8651   -3.6593 H   0  0  0  0  0  0  0  0  0  0  0  0
    6.3456   -2.5269   -2.9986 H   0  0  0  0  0  0  0  0  0  0  0  0
    3.7435    0.1399   -2.4882 H   0  0  0  0  0  0  0  0  0  0  0  0
    7.8824   -1.4423   -0.8071 H   0  0  0  0  0  0  0  0  0  0  0  0
    9.9964    0.4997   -0.8653 H   0  0  0  0  0  0  0  0  0  0  0  0
    8.6472    3.1389   -0.2142 H   0  0  0  0  0  0  0  0  0  0  0  0
   10.8981    4.9423   -0.7558 H   0  0  0  0  0  0  0  0  0  0  0  0
    9.7911    4.8598   -2.1473 H   0  0  0  0  0  0  0  0  0  0  0  0
   11.5497    4.5019   -2.3479 H   0  0  0  0  0  0  0  0  0  0  0  0
    8.4581    1.3778    1.5907 H   0  0  0  0  0  0  0  0  0  0  0  0
   10.7662    2.3224    1.3656 H   0  0  0  0  0  0  0  0  0  0  0  0
   10.5913    1.1434    2.7014 H   0  0  0  0  0  0  0  0  0  0  0  0
   11.3793    0.5801    1.1850 H   0  0  0  0  0  0  0  0  0  0  0  0
    9.6563   -0.8609    2.3773 H   0  0  0  0  0  0  0  0  0  0  0  0
    9.7553   -1.2262    0.6201 H   0  0  0  0  0  0  0  0  0  0  0  0
    8.1351   -1.0421    1.4843 H   0  0  0  0  0  0  0  0  0  0  0  0
   -9.2448   -0.8227    0.8455 H   0  0  0  0  0  0  0  0  0  0  0  0
   -8.8563   -1.2721   -0.8867 H   0  0  0  0  0  0  0  0  0  0  0  0
  -11.1619   -1.3319   -1.0538 H   0  0  0  0  0  0  0  0  0  0  0  0
  -11.3463   -0.0069    0.2237 H   0  0  0  0  0  0  0  0  0  0  0  0
  -11.6589    1.3649   -1.5786 H   0  0  0  0  0  0  0  0  0  0  0  0
  -10.6764    0.2933   -2.7258 H   0  0  0  0  0  0  0  0  0  0  0  0
   -8.9804    1.8696   -2.2992 H   0  0  0  0  0  0  0  0  0  0  0  0
   -9.8402    2.5134   -0.8987 H   0  0  0  0  0  0  0  0  0  0  0  0
  1  2  1  0
  2  3  1  0
  2  4  1  0
  4  5  1  0
  5  6  1  0
  6  7  1  0
  7  8  2  0
  7  9  1  0
  9 10  1  0
 10 11  1  0
 11 12  2  0
 12 13  1  0
 13 14  2  0
 14 15  1  0
 15 16  2  0
  9 17  1  0
 17 18  1  0
 18 19  2  0
 18 20  1  0
 20 21  1  0
 21 22  1  0
 22 23  1  0
 22 24  2  0
 20 25  1  0
 25 26  1  0
 26 27  2  0
 26 28  1  0
 28 29  1  0
 28 30  1  0
 30 31  1  0
 31 32  2  0
 31 33  1  0
 33 34  1  0
 34 35  1  0
 35 36  1  0
 35 37  2  0
 33 38  1  0
 38 39  1  0
 39 40  2  0
 39 41  1  0
 41 42  1  0
 42 43  1  0
 43 44  1  0
 43 45  2  0
 41 46  1  0
 46 47  1  0
 46 48  1  0
  5 49  1  0
 49 50  2  0
 49 51  1  0
 51 52  1  0
 52 53  1  0
 53 54  1  0
 54 55  1  0
 16 11  1  0
 55 51  1  0
  1 56  1  0
  1 57  1  0
  1 58  1  0
  2 59  1  0
  3 60  1  0
  3 61  1  0
  3 62  1  0
  4 63  1  0
  4 64  1  0
  5 65  1  6
  6 66  1  0
  9 67  1  1
 10 68  1  0
 10 69  1  0
 12 70  1  0
 13 71  1  0
 14 72  1  0
 15 73  1  0
 16 74  1  0
 17 75  1  0
 20 76  1  6
 21 77  1  0
 21 78  1  0
 23 79  1  0
 23 80  1  0
 25 81  1  0
 28 82  1  1
 29 83  1  0
 29 84  1  0
 29 85  1  0
 30 86  1  0
 33 87  1  6
 34 88  1  0
 34 89  1  0
 36 90  1  0
 38 91  1  0
 41 92  1  6
 42 93  1  0
 44 94  1  0
 44 95  1  0
 44 96  1  0
 46 97  1  0
 47 98  1  0
 47 99  1  0
 47100  1  0
 48101  1  0
 48102  1  0
 48103  1  0
 52104  1  0
 52105  1  0
 53106  1  0
 53107  1  0
 54108  1  0
 54109  1  0
 55110  1  0
 55111  1  0
M  END
$$$$
[H]OC(=O)C1([H])C([H])([H])C([H])([H])C([H])([H])C([H])(C([H])([H])C([H])([H])N2C([H])([H])C([H])([H])[C@@]([H])(N([H])C(=O)c3c([H])c([H])c(OC([H])([H])[H])c([H])c3[H])C([H])([H])[C@@]([H])(C([H])([H])[H])C2([H])[H])C1([H])[H]
     RDKit          3D

 66 68  0  0  0  0  0  0  0  0999 V2000
   10.6059   -0.4457    0.9654 C   0  0  0  0  0  0  0  0  0  0  0  0
    9.5832   -1.4352    0.8253 O   0  0  0  0  0  0  0  0  0  0  0  0
    8.2697   -0.9839    0.7131 C   0  0  0  0  0  0  0  0  0  0  0  0
    7.2538   -1.9166    0.5733 C   0  0  0  0  0  0  0  0  0  0  0  0
    5.9687   -1.4487    0.4642 C   0  0  0  0  0  0  0  0  0  0  0  0
    5.6432   -0.0920    0.4872 C   0  0  0  0  0  0  0  0  0  0  0  0
    6.6614    0.8229    0.6265 C   0  0  0  0  0  0  0  0  0  0  0  0
    7.9555    0.3730    0.7372 C   0  0  0  0  0  0  0  0  0  0  0  0
    4.2640    0.3645    0.3587 C   0  0  0  0  0  0  0  0  0  0  0  0
    4.0365    1.5915    0.5111 O   0  0  0  0  0  0  0  0  0  0  0  0
    3.1824   -0.4842    0.0751 N   0  0  0  0  0  0  0  0  0  0  0  0
    1.8456    0.0239   -0.0430 C   0  0  2  0  0  0  0  0  0  0  0  0
    0.8851   -0.5680    0.9311 C   0  0  0  0  0  0  0  0  0  0  0  0
   -0.3479   -1.1671    0.3261 C   0  0  0  0  0  0  0  0  0  0  0  0
   -1.0700   -0.2717   -0.4497 N   0  0  0  0  0  0  0  0  0  0  0  0
   -2.3944   -0.5241   -0.8101 C   0  0  0  0  0  0  0  0  0  0  0  0
   -3.4063   -0.4977    0.2811 C   0  0  0  0  0  0  0  0  0  0  0  0
   -4.7956   -0.7873   -0.2464 C   0  0  0  0  0  0  0  0  0  0  0  0
   -5.2748    0.1838   -1.2757 C   0  0  0  0  0  0  0  0  0  0  0  0
   -5.5917    1.5403   -0.7093 C   0  0  0  0  0  0  0  0  0  0  0  0
   -6.3971    1.4578    0.5468 C   0  0  0  0  0  0  0  0  0  0  0  0
   -6.9525    0.0576    0.7404 C   0  0  0  0  0  0  0  0  0  0  0  0
   -5.8029   -0.8861    0.8765 C   0  0  0  0  0  0  0  0  0  0  0  0
   -7.7287    0.0787    1.9925 C   0  0  0  0  0  0  0  0  0  0  0  0
   -8.7969    0.9398    2.1204 O   0  0  0  0  0  0  0  0  0  0  0  0
   -7.4221   -0.6782    2.9329 O   0  0  0  0  0  0  0  0  0  0  0  0
   -0.5741    1.0373   -0.6384 C   0  0  0  0  0  0  0  0  0  0  0  0
    0.4315    1.0295   -1.7485 C   0  0  2  0  0  0  0  0  0  0  0  0
   -0.1618    1.0176   -3.1199 C   0  0  0  0  0  0  0  0  0  0  0  0
    1.3786   -0.1130   -1.4997 C   0  0  0  0  0  0  0  0  0  0  0  0
   11.5818   -0.8974    1.1991 H   0  0  0  0  0  0  0  0  0  0  0  0
   10.6517    0.1208   -0.0101 H   0  0  0  0  0  0  0  0  0  0  0  0
   10.3122    0.2252    1.7977 H   0  0  0  0  0  0  0  0  0  0  0  0
    7.5233   -2.9626    0.5587 H   0  0  0  0  0  0  0  0  0  0  0  0
    5.1881   -2.1963    0.3555 H   0  0  0  0  0  0  0  0  0  0  0  0
    6.4642    1.9058    0.6523 H   0  0  0  0  0  0  0  0  0  0  0  0
    8.7405    1.1086    0.8451 H   0  0  0  0  0  0  0  0  0  0  0  0
    3.3294   -1.5053   -0.0571 H   0  0  0  0  0  0  0  0  0  0  0  0
    1.8810    1.1296    0.1505 H   0  0  0  0  0  0  0  0  0  0  0  0
    1.4298   -1.4144    1.4442 H   0  0  0  0  0  0  0  0  0  0  0  0
    0.6294    0.1277    1.7724 H   0  0  0  0  0  0  0  0  0  0  0  0
   -0.9785   -1.5196    1.1907 H   0  0  0  0  0  0  0  0  0  0  0  0
   -0.0186   -2.1084   -0.1947 H   0  0  0  0  0  0  0  0  0  0  0  0
   -2.4668   -1.5116   -1.3158 H   0  0  0  0  0  0  0  0  0  0  0  0
   -2.6957    0.2791   -1.5472 H   0  0  0  0  0  0  0  0  0  0  0  0
   -3.2127   -1.2786    1.0621 H   0  0  0  0  0  0  0  0  0  0  0  0
   -3.3902    0.4637    0.8553 H   0  0  0  0  0  0  0  0  0  0  0  0
   -4.7660   -1.7937   -0.7345 H   0  0  0  0  0  0  0  0  0  0  0  0
   -4.6299    0.2714   -2.1449 H   0  0  0  0  0  0  0  0  0  0  0  0
   -6.2495   -0.2373   -1.6635 H   0  0  0  0  0  0  0  0  0  0  0  0
   -6.2095    2.0821   -1.4844 H   0  0  0  0  0  0  0  0  0  0  0  0
   -4.6890    2.1790   -0.5814 H   0  0  0  0  0  0  0  0  0  0  0  0
   -7.3004    2.1330    0.5107 H   0  0  0  0  0  0  0  0  0  0  0  0
   -5.8153    1.7816    1.4280 H   0  0  0  0  0  0  0  0  0  0  0  0
   -7.5931   -0.1576   -0.1403 H   0  0  0  0  0  0  0  0  0  0  0  0
   -5.2952   -0.6308    1.8517 H   0  0  0  0  0  0  0  0  0  0  0  0
   -6.2040   -1.9227    0.9965 H   0  0  0  0  0  0  0  0  0  0  0  0
   -9.3836    0.9158    2.9482 H   0  0  0  0  0  0  0  0  0  0  0  0
   -0.1649    1.5188    0.2823 H   0  0  0  0  0  0  0  0  0  0  0  0
   -1.4259    1.6899   -0.9690 H   0  0  0  0  0  0  0  0  0  0  0  0
    1.0398    1.9665   -1.6482 H   0  0  0  0  0  0  0  0  0  0  0  0
    0.6768    0.7399   -3.8241 H   0  0  0  0  0  0  0  0  0  0  0  0
   -1.0174    0.3593   -3.2565 H   0  0  0  0  0  0  0  0  0  0  0  0
   -0.4254    2.0697   -3.3993 H   0  0  0  0  0  0  0  0  0  0  0  0
    0.9421   -1.1025   -1.6851 H   0  0  0  0  0  0  0  0  0  0  0  0
    2.2932   -0.0477   -2.1278 H   0  0  0  0  0  0  0  0  0  0  0  0
  1  2  1  0
  2  3  1  0
  3  4  2  0
  4  5  1  0
  5  6  2  0
  6  7  1  0
  7  8  2  0
  6  9  1  0
  9 10  2  0
  9 11  1  0
 11 12  1  0
 12 13  1  0
 13 14  1  0
 14 15  1  0
 15 16  1  0
 16 17  1  0
 17 18  1  0
 18 19  1  0
 19 20  1  0
 20 21  1  0
 21 22  1  0
 22 23  1  0
 22 24  1  0
 24 25  1  0
 24 26  2  0
 15 27  1  0
 27 28  1  0
 28 29  1  0
 28 30  1  0
  8  3  1  0
 30 12  1  0
 23 18  1  0
  1 31  1  0
  1 32  1  0
  1 33  1  0
  4 34  1  0
  5 35  1  0
  7 36  1  0
  8 37  1  0
 11 38  1  0
 12 39  1  1
 13 40  1  0
 13 41  1  0
 14 42  1  0
 14 43  1  0
 16 44  1  0
 16 45  1  0
 17 46  1  0
 17 47  1  0
 18 48  1  0
 19 49  1  0
 19 50  1  0
 20 51  1  0
 20 52  1  0
 21 53  1  0
 21 54  1  0
 22 55  1  0
 23 56  1  0
 23 57  1  0
 25 58  1  0
 27 59  1  0
 27 60  1  0
 28 61  1  6
 29 62  1  0
 29 63  1  0
 29 64  1  0
 30 65  1  0
 30 66  1  0
M  END
$$$$
[H]OC([H])([H])C(=O)[C@@]1([H])C([H])([H])C([H])([H])[C@]2(O[H])C([H])([H])[C@@]3([H])[C@]4([H])C([H])([H])C([H])([H])C([H])([H])[C@]([H])(O[H])C([H])([H])[C@]4(C([H])([H])[H])[C@@]3(C([H])([H])[H])[C@@]([H])(O[H])C([H])([H])[C@]2(C([H])([H])[H])[C@]([H])(C([H])([H])C([H])([H])[H])C1([H])[H]
     RDKit          3D

 75 78  0  0  0  0  0  0  0  0999 V2000
    3.8599   -3.1886   -0.3833 C   0  0  0  0  0  0  0  0  0  0  0  0
    2.5928   -2.3194   -0.2247 C   0  0  0  0  0  0  0  0  0  0  0  0
    2.6791   -1.0581   -0.9870 C   0  0  2  0  0  0  0  0  0  0  0  0
    3.8506   -0.2423   -0.5062 C   0  0  0  0  0  0  0  0  0  0  0  0
    3.8839    0.0098    0.9675 C   0  0  2  0  0  0  0  0  0  0  0  0
    2.5901    0.6158    1.4020 C   0  0  0  0  0  0  0  0  0  0  0  0
    2.1492    1.5015    0.3172 C   0  0  0  0  0  0  0  0  0  0  0  0
    1.1287    0.9597   -0.6517 C   0  0  2  0  0  0  0  0  0  0  0  0
    1.2799    1.9881   -1.6563 O   0  0  0  0  0  0  0  0  0  0  0  0
   -0.2270    1.1739   -0.1394 C   0  0  0  0  0  0  0  0  0  0  0  0
   -1.1007    0.1477    0.4041 C   0  0  1  0  0  0  0  0  0  0  0  0
   -2.4895    0.7746    0.6720 C   0  0  2  0  0  0  0  0  0  0  0  0
   -2.9802    0.5122    2.0494 C   0  0  0  0  0  0  0  0  0  0  0  0
   -4.2284    1.2941    2.3120 C   0  0  0  0  0  0  0  0  0  0  0  0
   -5.0427    1.5314    1.0626 C   0  0  0  0  0  0  0  0  0  0  0  0
   -5.4647    0.2607    0.3995 C   0  0  2  0  0  0  0  0  0  0  0  0
   -6.3095   -0.4073    1.3200 O   0  0  0  0  0  0  0  0  0  0  0  0
   -4.3603   -0.6805    0.0697 C   0  0  0  0  0  0  0  0  0  0  0  0
   -3.0987    0.0243   -0.4435 C   0  0  1  0  0  0  0  0  0  0  0  0
   -3.5058    0.7502   -1.6885 C   0  0  0  0  0  0  0  0  0  0  0  0
   -1.8759   -0.7509   -0.5099 C   0  0  2  0  0  0  0  0  0  0  0  0
   -2.0114   -2.1632    0.0620 C   0  0  0  0  0  0  0  0  0  0  0  0
   -1.0115   -0.8514   -1.7405 C   0  0  1  0  0  0  0  0  0  0  0  0
   -1.0596    0.1879   -2.5880 O   0  0  0  0  0  0  0  0  0  0  0  0
    0.3055   -1.3175   -1.2346 C   0  0  0  0  0  0  0  0  0  0  0  0
    1.4592   -0.3039   -1.3668 C   0  0  2  0  0  0  0  0  0  0  0  0
    1.5341   -0.1062   -2.8985 C   0  0  0  0  0  0  0  0  0  0  0  0
    4.9700    1.0174    1.2020 C   0  0  0  0  0  0  0  0  0  0  0  0
    5.5876    1.4288    0.2373 O   0  0  0  0  0  0  0  0  0  0  0  0
    5.3466    1.5468    2.5098 C   0  0  0  0  0  0  0  0  0  0  0  0
    6.3898    2.4538    2.3596 O   0  0  0  0  0  0  0  0  0  0  0  0
    4.6910   -2.7878    0.2296 H   0  0  0  0  0  0  0  0  0  0  0  0
    3.6604   -4.2362   -0.1833 H   0  0  0  0  0  0  0  0  0  0  0  0
    4.1684   -3.0153   -1.4559 H   0  0  0  0  0  0  0  0  0  0  0  0
    1.7802   -3.0022   -0.3517 H   0  0  0  0  0  0  0  0  0  0  0  0
    2.6268   -2.0818    0.8629 H   0  0  0  0  0  0  0  0  0  0  0  0
    3.1112   -1.4759   -1.9668 H   0  0  0  0  0  0  0  0  0  0  0  0
    4.8193   -0.8276   -0.6754 H   0  0  0  0  0  0  0  0  0  0  0  0
    3.9877    0.6246   -1.1514 H   0  0  0  0  0  0  0  0  0  0  0  0
    4.1905   -0.8663    1.5641 H   0  0  0  0  0  0  0  0  0  0  0  0
    2.8506    1.2457    2.3120 H   0  0  0  0  0  0  0  0  0  0  0  0
    1.8293   -0.0651    1.8065 H   0  0  0  0  0  0  0  0  0  0  0  0
    3.0143    2.0233   -0.1212 H   0  0  0  0  0  0  0  0  0  0  0  0
    1.6071    2.3695    0.8207 H   0  0  0  0  0  0  0  0  0  0  0  0
    0.9005    2.8138   -1.2623 H   0  0  0  0  0  0  0  0  0  0  0  0
   -0.1408    1.8940    0.7508 H   0  0  0  0  0  0  0  0  0  0  0  0
   -0.8557    1.8473   -0.8100 H   0  0  0  0  0  0  0  0  0  0  0  0
   -0.7326   -0.3596    1.3190 H   0  0  0  0  0  0  0  0  0  0  0  0
   -2.5415    1.8713    0.4739 H   0  0  0  0  0  0  0  0  0  0  0  0
   -2.1961    0.9377    2.7488 H   0  0  0  0  0  0  0  0  0  0  0  0
   -3.1039   -0.5159    2.3498 H   0  0  0  0  0  0  0  0  0  0  0  0
   -4.9087    0.8021    3.0433 H   0  0  0  0  0  0  0  0  0  0  0  0
   -3.9946    2.2935    2.7333 H   0  0  0  0  0  0  0  0  0  0  0  0
   -5.9926    2.0346    1.4162 H   0  0  0  0  0  0  0  0  0  0  0  0
   -4.5433    2.2591    0.4241 H   0  0  0  0  0  0  0  0  0  0  0  0
   -6.1286    0.5187   -0.4485 H   0  0  0  0  0  0  0  0  0  0  0  0
   -6.5838   -1.2877    0.9635 H   0  0  0  0  0  0  0  0  0  0  0  0
   -4.1706   -1.3935    0.8631 H   0  0  0  0  0  0  0  0  0  0  0  0
   -4.7089   -1.2902   -0.8184 H   0  0  0  0  0  0  0  0  0  0  0  0
   -4.5897    1.0739   -1.6576 H   0  0  0  0  0  0  0  0  0  0  0  0
   -3.5095   -0.0241   -2.5149 H   0  0  0  0  0  0  0  0  0  0  0  0
   -2.9449    1.6377   -1.9445 H   0  0  0  0  0  0  0  0  0  0  0  0
   -1.2697   -2.8751   -0.3586 H   0  0  0  0  0  0  0  0  0  0  0  0
   -1.8763   -2.1892    1.1503 H   0  0  0  0  0  0  0  0  0  0  0  0
   -2.9994   -2.6097   -0.2616 H   0  0  0  0  0  0  0  0  0  0  0  0
   -1.4555   -1.7333   -2.3066 H   0  0  0  0  0  0  0  0  0  0  0  0
   -1.2868   -0.0250   -3.5331 H   0  0  0  0  0  0  0  0  0  0  0  0
    0.6862   -2.1990   -1.8381 H   0  0  0  0  0  0  0  0  0  0  0  0
    0.3124   -1.6231   -0.1962 H   0  0  0  0  0  0  0  0  0  0  0  0
    1.1905    0.8294   -3.2778 H   0  0  0  0  0  0  0  0  0  0  0  0
    1.0617   -0.9202   -3.4632 H   0  0  0  0  0  0  0  0  0  0  0  0
    2.6237   -0.1623   -3.2174 H   0  0  0  0  0  0  0  0  0  0  0  0
    5.7628    0.7012    3.1163 H   0  0  0  0  0  0  0  0  0  0  0  0
    4.5512    2.0798    3.0548 H   0  0  0  0  0  0  0  0  0  0  0  0
    6.2664    2.9194    1.4839 H   0  0  0  0  0  0  0  0  0  0  0  0
  1  2  1  0
  2  3  1  0
  3  4  1  0
  4  5  1  0
  5  6  1  0
  6  7  1  0
  7  8  1  0
  8  9  1  6
  8 10  1  0
 10 11  1  0
 11 12  1  0
 12 13  1  0
 13 14  1  0
 14 15  1  0
 15 16  1  0
 16 17  1  0
 16 18  1  0
 18 19  1  0
 19 20  1  6
 19 21  1  0
 21 22  1  1
 21 23  1  0
 23 24  1  0
 23 25  1  0
 25 26  1  0
 26 27  1  6
  5 28  1  0
 28 29  2  0
 28 30  1  0
 30 31  1  0
 26  3  1  0
 26  8  1  0
 21 11  1  0
 19 12  1  0
  1 32  1  0
  1 33  1  0
  1 34  1  0
  2 35  1  0
  2 36  1  0
  3 37  1  6
  4 38  1  0
  4 39  1  0
  5 40  1  1
  6 41  1  0
  6 42  1  0
  7 43  1  0
  7 44  1  0
  9 45  1  0
 10 46  1  0
 10 47  1  0
 11 48  1  1
 12 49  1  6
 13 50  1  0
 13 51  1  0
 14 52  1  0
 14 53  1  0
 15 54  1  0
 15 55  1  0
 16 56  1  6
 17 57  1  0
 18 58  1  0
 18 59  1  0
 20 60  1  0
 20 61  1  0
 20 62  1  0
 22 63  1  0
 22 64  1  0
 22 65  1  0
 23 66  1  6
 24 67  1  0
 25 68  1  0
 25 69  1  0
 27 70  1  0
 27 71  1  0
 27 72  1  0
 30 73  1  0
 30 74  1  0
 31 75  1  0
M  END
$$$$
[H]c1nc(N([H])[H])c2c(C([H])([H])C([H])([H])c3c([H])c([H])c([H])c([H])c3[H])c([H])c(C#N)n2c1[H]
     RDKit          3D

 34 36  0  0  0  0  0  0  0  0999 V2000
    1.2792   -1.4565   -2.2965 N   0  0  0  0  0  0  0  0  0  0  0  0
    2.4080   -1.0586   -1.5578 C   0  0  0  0  0  0  0  0  0  0  0  0
    3.6372   -1.5021   -1.9106 N   0  0  0  0  0  0  0  0  0  0  0  0
    4.7395   -1.1271   -1.2412 C   0  0  0  0  0  0  0  0  0  0  0  0
    4.5895   -0.2801   -0.1861 C   0  0  0  0  0  0  0  0  0  0  0  0
    3.3493    0.1729    0.1768 N   0  0  0  0  0  0  0  0  0  0  0  0
    2.9836    1.0154    1.1538 C   0  0  0  0  0  0  0  0  0  0  0  0
    1.6303    1.1810    1.1042 C   0  0  0  0  0  0  0  0  0  0  0  0
    1.1188    0.4137    0.0576 C   0  0  0  0  0  0  0  0  0  0  0  0
   -0.2957    0.3022   -0.2728 C   0  0  0  0  0  0  0  0  0  0  0  0
   -1.1470    0.2533    1.0162 C   0  0  0  0  0  0  0  0  0  0  0  0
   -2.5966    0.1385    0.6376 C   0  0  0  0  0  0  0  0  0  0  0  0
   -3.3299    1.2765    0.3340 C   0  0  0  0  0  0  0  0  0  0  0  0
   -4.6499    1.2292   -0.0077 C   0  0  0  0  0  0  0  0  0  0  0  0
   -5.2753    0.0053   -0.0518 C   0  0  0  0  0  0  0  0  0  0  0  0
   -4.5931   -1.1395    0.2377 C   0  0  0  0  0  0  0  0  0  0  0  0
   -3.2557   -1.0572    0.5801 C   0  0  0  0  0  0  0  0  0  0  0  0
    2.2392   -0.1991   -0.4910 C   0  0  0  0  0  0  0  0  0  0  0  0
    3.9285    1.6001    2.0850 C   0  0  0  0  0  0  0  0  0  0  0  0
    4.6823    2.0456    2.8394 N   0  0  0  0  0  0  0  0  0  0  0  0
    0.8082   -0.8105   -2.9733 H   0  0  0  0  0  0  0  0  0  0  0  0
    0.8357   -2.4283   -2.2284 H   0  0  0  0  0  0  0  0  0  0  0  0
    5.7172   -1.5149   -1.5729 H   0  0  0  0  0  0  0  0  0  0  0  0
    5.4858    0.0280    0.3572 H   0  0  0  0  0  0  0  0  0  0  0  0
    1.0578    1.8192    1.7830 H   0  0  0  0  0  0  0  0  0  0  0  0
   -0.4478   -0.7465   -0.6972 H   0  0  0  0  0  0  0  0  0  0  0  0
   -0.7358    1.0517   -0.9145 H   0  0  0  0  0  0  0  0  0  0  0  0
   -1.0338    1.1531    1.6185 H   0  0  0  0  0  0  0  0  0  0  0  0
   -0.9286   -0.6354    1.6270 H   0  0  0  0  0  0  0  0  0  0  0  0
   -2.8016    2.2232    0.3781 H   0  0  0  0  0  0  0  0  0  0  0  0
   -5.1901    2.1454   -0.2425 H   0  0  0  0  0  0  0  0  0  0  0  0
   -6.3320    0.0003   -0.3329 H   0  0  0  0  0  0  0  0  0  0  0  0
   -5.1320   -2.1005    0.1882 H   0  0  0  0  0  0  0  0  0  0  0  0
   -2.7452   -1.9984    0.8028 H   0  0  0  0  0  0  0  0  0  0  0  0
  1  2  1  0
  2  3  2  0
  3  4  1  0
  4  5  2  0
  5  6  1  0
  6  7  1  0
  7  8  2  0
  8  9  1  0
  9 10  1  0
 10 11  1  0
 11 12  1  0
 12 13  2  0
 13 14  1  0
 14 15  2  0
 15 16  1  0
 16 17  2  0
  9 18  2  0
  7 19  1  0
 19 20  3  0
 18  2  1  0
 18  6  1  0
 17 12  1  0
  1 21  1  0
  1 22  1  0
  4 23  1  0
  5 24  1  0
  8 25  1  0
 10 26  1  0
 10 27  1  0
 11 28  1  0
 11 29  1  0
 13 30  1  0
 14 31  1  0
 15 32  1  0
 16 33  1  0
 17 34  1  0
M  END
$$$$
[H]c1c([H])c(N([H])C(=O)c2c(C([H])([H])[H])c(C(=O)C(=O)N([H])C3(C(=O)N([H])C4(C([H])([H])[H])C([H])([H])OC4([H])[H])C([H])([H])C(F)(F)C3([H])[H])c3n2C([H])([H])C([H])([H])C3([H])[H])c([H])c(C([H])(F)F)c1F
     RDKit          3D

 68 72  0  0  0  0  0  0  0  0999 V2000
    1.7153    1.3321   -1.1641 C   0  0  0  0  0  0  0  0  0  0  0  0
    1.8678    0.8968    0.2151 C   0  0  0  0  0  0  0  0  0  0  0  0
    0.7705    0.7641    1.0875 C   0  0  0  0  0  0  0  0  0  0  0  0
   -0.6222    1.0302    0.7745 C   0  0  0  0  0  0  0  0  0  0  0  0
   -1.1173    2.1550    0.9434 O   0  0  0  0  0  0  0  0  0  0  0  0
   -1.5015   -0.0346    0.2415 C   0  0  0  0  0  0  0  0  0  0  0  0
   -0.9554   -1.1358    0.0942 O   0  0  0  0  0  0  0  0  0  0  0  0
   -2.8354    0.2081   -0.0629 N   0  0  0  0  0  0  0  0  0  0  0  0
   -3.8536   -0.6627   -0.5868 C   0  0  0  0  0  0  0  0  0  0  0  0
   -3.6462   -1.2398   -1.9470 C   0  0  0  0  0  0  0  0  0  0  0  0
   -3.6861   -2.6362   -1.4260 C   0  0  0  0  0  0  0  0  0  0  0  0
   -4.7846   -3.4089   -1.7967 F   0  0  0  0  0  0  0  0  0  0  0  0
   -2.5043   -3.3798   -1.5656 F   0  0  0  0  0  0  0  0  0  0  0  0
   -3.8596   -2.0821   -0.0423 C   0  0  0  0  0  0  0  0  0  0  0  0
   -5.1979   -0.0410   -0.4514 C   0  0  0  0  0  0  0  0  0  0  0  0
   -5.1902    1.1127    0.1321 O   0  0  0  0  0  0  0  0  0  0  0  0
   -6.4237   -0.5342   -0.8641 N   0  0  0  0  0  0  0  0  0  0  0  0
   -7.6350    0.2531   -0.6253 C   0  0  0  0  0  0  0  0  0  0  0  0
   -7.5477    1.5815   -1.3074 C   0  0  0  0  0  0  0  0  0  0  0  0
   -8.9098   -0.5084   -0.7771 C   0  0  0  0  0  0  0  0  0  0  0  0
   -9.4016    0.1717    0.3523 O   0  0  0  0  0  0  0  0  0  0  0  0
   -8.0751    0.2684    0.8040 C   0  0  0  0  0  0  0  0  0  0  0  0
    1.3196    0.3342    2.2745 C   0  0  0  0  0  0  0  0  0  0  0  0
    0.8711   -0.0273    3.6492 C   0  0  0  0  0  0  0  0  0  0  0  0
    2.1555    0.1899    4.4378 C   0  0  0  0  0  0  0  0  0  0  0  0
    3.1822   -0.2517    3.4351 C   0  0  0  0  0  0  0  0  0  0  0  0
    2.6468    0.2094    2.1517 N   0  0  0  0  0  0  0  0  0  0  0  0
    3.0126    0.5555    0.8744 C   0  0  0  0  0  0  0  0  0  0  0  0
    4.3921    0.5331    0.4263 C   0  0  0  0  0  0  0  0  0  0  0  0
    5.2872    0.1078    1.2552 O   0  0  0  0  0  0  0  0  0  0  0  0
    4.8838    0.9272   -0.8271 N   0  0  0  0  0  0  0  0  0  0  0  0
    6.2828    0.8263   -1.1201 C   0  0  0  0  0  0  0  0  0  0  0  0
    6.7674    1.8325   -1.9767 C   0  0  0  0  0  0  0  0  0  0  0  0
    8.0641    1.8996   -2.4032 C   0  0  0  0  0  0  0  0  0  0  0  0
    8.9173    0.9141   -1.9522 C   0  0  0  0  0  0  0  0  0  0  0  0
   10.2142    0.9194   -2.3342 F   0  0  0  0  0  0  0  0  0  0  0  0
    8.4655   -0.0770   -1.1166 C   0  0  0  0  0  0  0  0  0  0  0  0
    7.1394   -0.1246   -0.6961 C   0  0  0  0  0  0  0  0  0  0  0  0
    9.3978   -1.1131   -0.6530 C   0  0  0  0  0  0  0  0  0  0  0  0
    8.8899   -2.3512   -1.0008 F   0  0  0  0  0  0  0  0  0  0  0  0
    9.4945   -1.0917    0.7433 F   0  0  0  0  0  0  0  0  0  0  0  0
    2.0513    0.5216   -1.8452 H   0  0  0  0  0  0  0  0  0  0  0  0
    2.1366    2.3264   -1.4043 H   0  0  0  0  0  0  0  0  0  0  0  0
    0.6188    1.4465   -1.3987 H   0  0  0  0  0  0  0  0  0  0  0  0
   -3.1680    1.2315    0.1231 H   0  0  0  0  0  0  0  0  0  0  0  0
   -2.6632   -0.9600   -2.3810 H   0  0  0  0  0  0  0  0  0  0  0  0
   -4.4553   -1.0372   -2.6887 H   0  0  0  0  0  0  0  0  0  0  0  0
   -3.0372   -2.3259    0.6527 H   0  0  0  0  0  0  0  0  0  0  0  0
   -4.8226   -2.3484    0.4521 H   0  0  0  0  0  0  0  0  0  0  0  0
   -6.5581   -1.4271   -1.3395 H   0  0  0  0  0  0  0  0  0  0  0  0
   -7.2126    2.3485   -0.5884 H   0  0  0  0  0  0  0  0  0  0  0  0
   -8.5597    1.8431   -1.6934 H   0  0  0  0  0  0  0  0  0  0  0  0
   -6.8379    1.5749   -2.1588 H   0  0  0  0  0  0  0  0  0  0  0  0
   -8.7847   -1.5910   -0.5877 H   0  0  0  0  0  0  0  0  0  0  0  0
   -9.4741   -0.2516   -1.7079 H   0  0  0  0  0  0  0  0  0  0  0  0
   -7.7496   -0.6411    1.3315 H   0  0  0  0  0  0  0  0  0  0  0  0
   -7.8758    1.2325    1.3128 H   0  0  0  0  0  0  0  0  0  0  0  0
    0.0941    0.6295    4.0414 H   0  0  0  0  0  0  0  0  0  0  0  0
    0.5363   -1.0670    3.6682 H   0  0  0  0  0  0  0  0  0  0  0  0
    2.2764    1.2588    4.6780 H   0  0  0  0  0  0  0  0  0  0  0  0
    2.1188   -0.4354    5.3425 H   0  0  0  0  0  0  0  0  0  0  0  0
    3.2287   -1.3679    3.4744 H   0  0  0  0  0  0  0  0  0  0  0  0
    4.1874    0.1764    3.6268 H   0  0  0  0  0  0  0  0  0  0  0  0
    4.2438    1.3057   -1.5791 H   0  0  0  0  0  0  0  0  0  0  0  0
    6.0990    2.6113   -2.3346 H   0  0  0  0  0  0  0  0  0  0  0  0
    8.4141    2.6829   -3.0621 H   0  0  0  0  0  0  0  0  0  0  0  0
    6.8095   -0.9181   -0.0646 H   0  0  0  0  0  0  0  0  0  0  0  0
   10.3942   -0.9424   -1.0647 H   0  0  0  0  0  0  0  0  0  0  0  0
  1  2  1  0
  2  3  1  0
  3  4  1  0
  4  5  2  0
  4  6  1  0
  6  7  2  0
  6  8  1  0
  8  9  1  0
  9 10  1  0
 10 11  1  0
 11 12  1  0
 11 13  1  0
 11 14  1  0
  9 15  1  0
 15 16  2  0
 15 17  1  0
 17 18  1  0
 18 19  1  0
 18 20  1  0
 20 21  1  0
 21 22  1  0
  3 23  2  0
 23 24  1  0
 24 25  1  0
 25 26  1  0
 26 27  1  0
 27 28  1  0
 28 29  1  0
 29 30  2  0
 29 31  1  0
 31 32  1  0
 32 33  2  0
 33 34  1  0
 34 35  2  0
 35 36  1  0
 35 37  1  0
 37 38  2  0
 37 39  1  0
 39 40  1  0
 39 41  1  0
 28  2  2  0
 38 32  1  0
 14  9  1  0
 22 18  1  0
 27 23  1  0
  1 42  1  0
  1 43  1  0
  1 44  1  0
  8 45  1  0
 10 46  1  0
 10 47  1  0
 14 48  1  0
 14 49  1  0
 17 50  1  0
 19 51  1  0
 19 52  1  0
 19 53  1  0
 20 54  1  0
 20 55  1  0
 22 56  1  0
 22 57  1  0
 24 58  1  0
 24 59  1  0
 25 60  1  0
 25 61  1  0
 26 62  1  0
 26 63  1  0
 31 64  1  0
 33 65  1  0
 34 66  1  0
 38 67  1  0
 39 68  1  0
M  END
$$$$
[H]Oc1c(C(=O)OC(C([H])([H])[H])(C([H])([H])[H])C([H])([H])[H])c(N([H])[H])c(C(=O)N2C([H])([H])C([H])([H])C([H])([H])[C@]2([H])C([H])([H])N([H])C(=O)c2sc([H])c([H])c2N([H])[H])c([H])c1N1C([H])([H])C([H])([H])C([H])(C(=O)N2C([H])([H])C(F)(F)C2([H])[H])C([H])([H])C1([H])[H]
     RDKit          3D

 86 90  0  0  0  0  0  0  0  0999 V2000
   -0.8204   -7.5093    0.1710 C   0  0  0  0  0  0  0  0  0  0  0  0
    0.4066   -6.6870    0.3863 C   0  0  0  0  0  0  0  0  0  0  0  0
    0.8103   -6.8016    1.8349 C   0  0  0  0  0  0  0  0  0  0  0  0
    1.5168   -7.2773   -0.4538 C   0  0  0  0  0  0  0  0  0  0  0  0
    0.1982   -5.3183    0.0981 O   0  0  0  0  0  0  0  0  0  0  0  0
    1.1987   -4.3747    0.2292 C   0  0  0  0  0  0  0  0  0  0  0  0
    2.2922   -4.7876    0.6123 O   0  0  0  0  0  0  0  0  0  0  0  0
    0.9445   -2.9860   -0.0743 C   0  0  0  0  0  0  0  0  0  0  0  0
   -0.3431   -2.6386   -0.4985 C   0  0  0  0  0  0  0  0  0  0  0  0
   -1.3049   -3.6650   -0.6056 N   0  0  0  0  0  0  0  0  0  0  0  0
   -0.7213   -1.3392   -0.8190 C   0  0  0  0  0  0  0  0  0  0  0  0
    0.2556   -0.3942   -0.6944 C   0  0  0  0  0  0  0  0  0  0  0  0
    1.5648   -0.6796   -0.2742 C   0  0  0  0  0  0  0  0  0  0  0  0
    2.5332    0.3528   -0.1672 N   0  0  0  0  0  0  0  0  0  0  0  0
    3.1847    0.5449    1.1213 C   0  0  0  0  0  0  0  0  0  0  0  0
    3.4243    1.9950    1.4067 C   0  0  0  0  0  0  0  0  0  0  0  0
    4.2095    2.5838    0.2467 C   0  0  0  0  0  0  0  0  0  0  0  0
    3.3227    2.5348   -0.9720 C   0  0  0  0  0  0  0  0  0  0  0  0
    2.8224    1.1620   -1.3124 C   0  0  0  0  0  0  0  0  0  0  0  0
    4.4502    4.0170    0.5557 C   0  0  0  0  0  0  0  0  0  0  0  0
    3.8359    4.4872    1.5832 O   0  0  0  0  0  0  0  0  0  0  0  0
    5.2778    4.8743   -0.1735 N   0  0  0  0  0  0  0  0  0  0  0  0
    6.1269    4.8102   -1.3316 C   0  0  0  0  0  0  0  0  0  0  0  0
    5.7796    6.2886   -1.5672 C   0  0  0  0  0  0  0  0  0  0  0  0
    6.8083    7.0246   -2.0735 F   0  0  0  0  0  0  0  0  0  0  0  0
    4.5644    6.4541   -2.1923 F   0  0  0  0  0  0  0  0  0  0  0  0
    5.6529    6.2720   -0.0572 C   0  0  0  0  0  0  0  0  0  0  0  0
    1.9000   -1.9983    0.0367 C   0  0  0  0  0  0  0  0  0  0  0  0
    3.1930   -2.2178    0.4405 O   0  0  0  0  0  0  0  0  0  0  0  0
   -2.0608   -1.1109   -1.2427 C   0  0  0  0  0  0  0  0  0  0  0  0
   -2.8280   -2.1758   -1.2858 O   0  0  0  0  0  0  0  0  0  0  0  0
   -2.7476    0.0786   -1.6395 N   0  0  0  0  0  0  0  0  0  0  0  0
   -2.2328    1.3872   -1.7083 C   0  0  0  0  0  0  0  0  0  0  0  0
   -3.3709    2.2792   -2.1770 C   0  0  0  0  0  0  0  0  0  0  0  0
   -4.2933    1.3067   -2.8708 C   0  0  0  0  0  0  0  0  0  0  0  0
   -4.1063    0.0181   -2.0706 C   0  0  2  0  0  0  0  0  0  0  0  0
   -5.1914   -0.1932   -1.0932 C   0  0  0  0  0  0  0  0  0  0  0  0
   -5.4287    0.7093   -0.0411 N   0  0  0  0  0  0  0  0  0  0  0  0
   -4.6944    1.0653    1.0893 C   0  0  0  0  0  0  0  0  0  0  0  0
   -3.6015    0.5917    1.4111 O   0  0  0  0  0  0  0  0  0  0  0  0
   -5.2763    2.1087    1.9914 C   0  0  0  0  0  0  0  0  0  0  0  0
   -6.7470    2.9535    1.8235 S   0  0  0  0  0  0  0  0  0  0  0  0
   -6.6636    3.9267    3.2176 C   0  0  0  0  0  0  0  0  0  0  0  0
   -5.4725    3.5566    3.7795 C   0  0  0  0  0  0  0  0  0  0  0  0
   -4.7524    2.6154    3.1464 C   0  0  0  0  0  0  0  0  0  0  0  0
   -3.4712    2.1309    3.6370 N   0  0  0  0  0  0  0  0  0  0  0  0
   -1.4300   -7.2205   -0.6884 H   0  0  0  0  0  0  0  0  0  0  0  0
   -1.4893   -7.5429    1.0743 H   0  0  0  0  0  0  0  0  0  0  0  0
   -0.5314   -8.5820    0.0058 H   0  0  0  0  0  0  0  0  0  0  0  0
    0.7542   -5.7978    2.2988 H   0  0  0  0  0  0  0  0  0  0  0  0
    0.1453   -7.5098    2.3850 H   0  0  0  0  0  0  0  0  0  0  0  0
    1.8728   -7.1010    1.9009 H   0  0  0  0  0  0  0  0  0  0  0  0
    1.5298   -6.8766   -1.4863 H   0  0  0  0  0  0  0  0  0  0  0  0
    1.3206   -8.3668   -0.5365 H   0  0  0  0  0  0  0  0  0  0  0  0
    2.5091   -7.1797    0.0454 H   0  0  0  0  0  0  0  0  0  0  0  0
   -1.4850   -4.2423   -1.4411 H   0  0  0  0  0  0  0  0  0  0  0  0
   -1.8963   -3.8598    0.2518 H   0  0  0  0  0  0  0  0  0  0  0  0
    0.0609    0.6457   -0.9195 H   0  0  0  0  0  0  0  0  0  0  0  0
    2.6008    0.1183    1.9594 H   0  0  0  0  0  0  0  0  0  0  0  0
    4.1946    0.0572    1.0109 H   0  0  0  0  0  0  0  0  0  0  0  0
    4.0256    2.0809    2.3214 H   0  0  0  0  0  0  0  0  0  0  0  0
    2.4570    2.5345    1.4671 H   0  0  0  0  0  0  0  0  0  0  0  0
    5.1748    2.0710    0.1107 H   0  0  0  0  0  0  0  0  0  0  0  0
    2.4952    3.2572   -0.8150 H   0  0  0  0  0  0  0  0  0  0  0  0
    3.9102    2.8886   -1.8384 H   0  0  0  0  0  0  0  0  0  0  0  0
    1.8517    1.3059   -1.8682 H   0  0  0  0  0  0  0  0  0  0  0  0
    3.4838    0.6015   -2.0030 H   0  0  0  0  0  0  0  0  0  0  0  0
    5.8498    4.1701   -2.1618 H   0  0  0  0  0  0  0  0  0  0  0  0
    7.2080    4.7709   -1.0330 H   0  0  0  0  0  0  0  0  0  0  0  0
    4.8499    6.9528    0.2930 H   0  0  0  0  0  0  0  0  0  0  0  0
    6.5880    6.4602    0.4954 H   0  0  0  0  0  0  0  0  0  0  0  0
    3.6440   -3.0162    0.6985 H   0  0  0  0  0  0  0  0  0  0  0  0
   -1.3860    1.4672   -2.4501 H   0  0  0  0  0  0  0  0  0  0  0  0
   -1.8900    1.7816   -0.7086 H   0  0  0  0  0  0  0  0  0  0  0  0
   -2.9597    2.9937   -2.9496 H   0  0  0  0  0  0  0  0  0  0  0  0
   -3.8790    2.8099   -1.3693 H   0  0  0  0  0  0  0  0  0  0  0  0
   -5.3247    1.6567   -2.8532 H   0  0  0  0  0  0  0  0  0  0  0  0
   -3.9657    1.1683   -3.9134 H   0  0  0  0  0  0  0  0  0  0  0  0
   -4.2050   -0.8008   -2.8822 H   0  0  0  0  0  0  0  0  0  0  0  0
   -5.1452   -1.2789   -0.6827 H   0  0  0  0  0  0  0  0  0  0  0  0
   -6.1565   -0.2860   -1.7098 H   0  0  0  0  0  0  0  0  0  0  0  0
   -6.3814    1.2452   -0.1233 H   0  0  0  0  0  0  0  0  0  0  0  0
   -7.3683    4.6833    3.6132 H   0  0  0  0  0  0  0  0  0  0  0  0
   -5.1334    4.0343    4.7295 H   0  0  0  0  0  0  0  0  0  0  0  0
   -3.4225    1.5588    4.4913 H   0  0  0  0  0  0  0  0  0  0  0  0
   -2.6218    2.3722    3.1132 H   0  0  0  0  0  0  0  0  0  0  0  0
  1  2  1  0
  2  3  1  0
  2  4  1  0
  2  5  1  0
  5  6  1  0
  6  7  2  0
  6  8  1  0
  8  9  2  0
  9 10  1  0
  9 11  1  0
 11 12  2  0
 12 13  1  0
 13 14  1  0
 14 15  1  0
 15 16  1  0
 16 17  1  0
 17 18  1  0
 18 19  1  0
 17 20  1  0
 20 21  2  0
 20 22  1  0
 22 23  1  0
 23 24  1  0
 24 25  1  0
 24 26  1  0
 24 27  1  0
 13 28  2  0
 28 29  1  0
 11 30  1  0
 30 31  2  0
 30 32  1  0
 32 33  1  0
 33 34  1  0
 34 35  1  0
 35 36  1  0
 36 37  1  0
 37 38  1  0
 38 39  1  0
 39 40  2  0
 39 41  1  0
 41 42  1  0
 42 43  1  0
 43 44  2  0
 44 45  1  0
 45 46  1  0
 28  8  1  0
 36 32  1  0
 45 41  2  0
 19 14  1  0
 27 22  1  0
  1 47  1  0
  1 48  1  0
  1 49  1  0
  3 50  1  0
  3 51  1  0
  3 52  1  0
  4 53  1  0
  4 54  1  0
  4 55  1  0
 10 56  1  0
 10 57  1  0
 12 58  1  0
 15 59  1  0
 15 60  1  0
 16 61  1  0
 16 62  1  0
 17 63  1  0
 18 64  1  0
 18 65  1  0
 19 66  1  0
 19 67  1  0
 23 68  1  0
 23 69  1  0
 27 70  1  0
 27 71  1  0
 29 72  1  0
 33 73  1  0
 33 74  1  0
 34 75  1  0
 34 76  1  0
 35 77  1  0
 35 78  1  0
 36 79  1  6
 37 80  1  0
 37 81  1  0
 38 82  1  0
 43 83  1  0
 44 84  1  0
 46 85  1  0
 46 86  1  0
M  END
$$$$
[H]c1c(C([H])([H])C([H])(C(=O)N([H])C([H])(SC2([H])C([H])([H])C2([H])[H])C2([H])C([H])([H])C([H])([H])C([H])([H])C2([H])[H])N([H])C(=O)C([H])([H])C([H])([H])c2c([H])c([H])c([H])c(C(F)(F)F)c2[H])noc1C(C([H])([H])[H])(C([H])([H])[H])C([H])([H])[H]
     RDKit          3D

 77 80  0  0  0  0  0  0  0  0999 V2000
   -4.8444    4.5698    1.2311 C   0  0  0  0  0  0  0  0  0  0  0  0
   -3.4362    4.1100    1.5061 C   0  0  0  0  0  0  0  0  0  0  0  0
   -3.3397    3.1258    2.6384 C   0  0  0  0  0  0  0  0  0  0  0  0
   -2.5429    5.3034    1.8616 C   0  0  0  0  0  0  0  0  0  0  0  0
   -2.8199    3.4765    0.3084 C   0  0  0  0  0  0  0  0  0  0  0  0
   -1.4465    3.4942    0.0244 C   0  0  0  0  0  0  0  0  0  0  0  0
   -1.2313    2.8161   -1.1555 C   0  0  0  0  0  0  0  0  0  0  0  0
    0.0528    2.5963   -1.8374 C   0  0  0  0  0  0  0  0  0  0  0  0
    0.7093    1.3151   -1.3374 C   0  0  0  0  0  0  0  0  0  0  0  0
    1.9794    1.1503   -2.0529 N   0  0  0  0  0  0  0  0  0  0  0  0
    3.2178    1.1203   -1.3459 C   0  0  0  0  0  0  0  0  0  0  0  0
    3.1529    1.2358   -0.1068 O   0  0  0  0  0  0  0  0  0  0  0  0
    4.4714    0.9642   -2.0549 C   0  0  0  0  0  0  0  0  0  0  0  0
    5.7320    0.8930   -1.2831 C   0  0  0  0  0  0  0  0  0  0  0  0
    5.8669   -0.2365   -0.3493 C   0  0  0  0  0  0  0  0  0  0  0  0
    5.6393   -0.1955    0.9997 C   0  0  0  0  0  0  0  0  0  0  0  0
    5.7822   -1.3266    1.7941 C   0  0  0  0  0  0  0  0  0  0  0  0
    6.1559   -2.5330    1.2783 C   0  0  0  0  0  0  0  0  0  0  0  0
    6.3967   -2.6033   -0.0993 C   0  0  0  0  0  0  0  0  0  0  0  0
    6.2501   -1.4781   -0.8675 C   0  0  0  0  0  0  0  0  0  0  0  0
    6.8141   -3.9118   -0.6870 C   0  0  0  0  0  0  0  0  0  0  0  0
    6.8953   -3.7793   -2.0638 F   0  0  0  0  0  0  0  0  0  0  0  0
    5.9397   -4.9353   -0.3684 F   0  0  0  0  0  0  0  0  0  0  0  0
    8.0720   -4.2719   -0.2173 F   0  0  0  0  0  0  0  0  0  0  0  0
   -0.2107    0.1883   -1.6479 C   0  0  0  0  0  0  0  0  0  0  0  0
   -0.3220   -0.1675   -2.8611 O   0  0  0  0  0  0  0  0  0  0  0  0
   -0.9372   -0.4764   -0.6322 N   0  0  0  0  0  0  0  0  0  0  0  0
   -1.8152   -1.5572   -0.9888 C   0  0  0  0  0  0  0  0  0  0  0  0
   -0.7237   -3.0113   -1.1882 S   0  0  0  0  0  0  0  0  0  0  0  0
   -1.5147   -4.4363   -1.8910 C   0  0  0  0  0  0  0  0  0  0  0  0
   -2.5538   -5.1460   -1.0449 C   0  0  0  0  0  0  0  0  0  0  0  0
   -2.9552   -4.4327   -2.2587 C   0  0  0  0  0  0  0  0  0  0  0  0
   -2.7954   -1.7963    0.0862 C   0  0  0  0  0  0  0  0  0  0  0  0
   -2.1429   -2.1693    1.4205 C   0  0  0  0  0  0  0  0  0  0  0  0
   -3.3864   -2.2004    2.3140 C   0  0  0  0  0  0  0  0  0  0  0  0
   -4.2102   -1.0344    1.8115 C   0  0  0  0  0  0  0  0  0  0  0  0
   -3.5413   -0.5457    0.5501 C   0  0  0  0  0  0  0  0  0  0  0  0
   -2.4590    2.4180   -1.5391 N   0  0  0  0  0  0  0  0  0  0  0  0
   -3.3443    2.8134   -0.6786 O   0  0  0  0  0  0  0  0  0  0  0  0
   -5.0005    4.4583    0.1313 H   0  0  0  0  0  0  0  0  0  0  0  0
   -4.9093    5.6458    1.4518 H   0  0  0  0  0  0  0  0  0  0  0  0
   -5.5447    3.9395    1.7939 H   0  0  0  0  0  0  0  0  0  0  0  0
   -2.2676    2.7849    2.6465 H   0  0  0  0  0  0  0  0  0  0  0  0
   -3.5105    3.6201    3.5928 H   0  0  0  0  0  0  0  0  0  0  0  0
   -3.9487    2.2159    2.4681 H   0  0  0  0  0  0  0  0  0  0  0  0
   -2.1253    5.7432    0.9234 H   0  0  0  0  0  0  0  0  0  0  0  0
   -3.0253    6.0160    2.5286 H   0  0  0  0  0  0  0  0  0  0  0  0
   -1.6622    4.8731    2.3934 H   0  0  0  0  0  0  0  0  0  0  0  0
   -0.7082    3.9674    0.6439 H   0  0  0  0  0  0  0  0  0  0  0  0
    0.7839    3.4139   -1.6722 H   0  0  0  0  0  0  0  0  0  0  0  0
   -0.1141    2.5453   -2.9374 H   0  0  0  0  0  0  0  0  0  0  0  0
    0.9443    1.3648   -0.2659 H   0  0  0  0  0  0  0  0  0  0  0  0
    1.9617    1.0581   -3.0597 H   0  0  0  0  0  0  0  0  0  0  0  0
    4.4363    0.0725   -2.7453 H   0  0  0  0  0  0  0  0  0  0  0  0
    4.5737    1.8717   -2.7411 H   0  0  0  0  0  0  0  0  0  0  0  0
    5.8887    1.8362   -0.6588 H   0  0  0  0  0  0  0  0  0  0  0  0
    6.5846    0.8433   -2.0028 H   0  0  0  0  0  0  0  0  0  0  0  0
    5.3560    0.7263    1.5029 H   0  0  0  0  0  0  0  0  0  0  0  0
    5.5932   -1.2725    2.8696 H   0  0  0  0  0  0  0  0  0  0  0  0
    6.2632   -3.4036    1.9051 H   0  0  0  0  0  0  0  0  0  0  0  0
    6.4489   -1.5803   -1.9373 H   0  0  0  0  0  0  0  0  0  0  0  0
   -0.8286   -0.1730    0.3390 H   0  0  0  0  0  0  0  0  0  0  0  0
   -2.3077   -1.3555   -1.9680 H   0  0  0  0  0  0  0  0  0  0  0  0
   -0.8901   -5.1207   -2.5367 H   0  0  0  0  0  0  0  0  0  0  0  0
   -2.8748   -4.7765   -0.0770 H   0  0  0  0  0  0  0  0  0  0  0  0
   -2.5425   -6.2724   -1.0725 H   0  0  0  0  0  0  0  0  0  0  0  0
   -3.2718   -5.0820   -3.1282 H   0  0  0  0  0  0  0  0  0  0  0  0
   -3.5232   -3.4910   -2.2530 H   0  0  0  0  0  0  0  0  0  0  0  0
   -3.6025   -2.5276   -0.1284 H   0  0  0  0  0  0  0  0  0  0  0  0
   -1.5487   -1.3364    1.7656 H   0  0  0  0  0  0  0  0  0  0  0  0
   -1.6402   -3.1532    1.3911 H   0  0  0  0  0  0  0  0  0  0  0  0
   -3.1032   -2.0782    3.3788 H   0  0  0  0  0  0  0  0  0  0  0  0
   -3.9107   -3.1495    2.1071 H   0  0  0  0  0  0  0  0  0  0  0  0
   -5.2341   -1.3641    1.5251 H   0  0  0  0  0  0  0  0  0  0  0  0
   -4.2429   -0.2169    2.5823 H   0  0  0  0  0  0  0  0  0  0  0  0
   -2.7802    0.2234    0.7583 H   0  0  0  0  0  0  0  0  0  0  0  0
   -4.2722   -0.2121   -0.2154 H   0  0  0  0  0  0  0  0  0  0  0  0
  1  2  1  0
  2  3  1  0
  2  4  1  0
  2  5  1  0
  5  6  2  0
  6  7  1  0
  7  8  1  0
  8  9  1  0
  9 10  1  0
 10 11  1  0
 11 12  2  0
 11 13  1  0
 13 14  1  0
 14 15  1  0
 15 16  2  0
 16 17  1  0
 17 18  2  0
 18 19  1  0
 19 20  2  0
 19 21  1  0
 21 22  1  0
 21 23  1  0
 21 24  1  0
  9 25  1  0
 25 26  2  0
 25 27  1  0
 27 28  1  0
 28 29  1  0
 29 30  1  0
 30 31  1  0
 31 32  1  0
 28 33  1  0
 33 34  1  0
 34 35  1  0
 35 36  1  0
 36 37  1  0
  7 38  2  0
 38 39  1  0
 39  5  1  0
 20 15  1  0
 37 33  1  0
 32 30  1  0
  1 40  1  0
  1 41  1  0
  1 42  1  0
  3 43  1  0
  3 44  1  0
  3 45  1  0
  4 46  1  0
  4 47  1  0
  4 48  1  0
  6 49  1  0
  8 50  1  0
  8 51  1  0
  9 52  1  0
 10 53  1  0
 13 54  1  0
 13 55  1  0
 14 56  1  0
 14 57  1  0
 16 58  1  0
 17 59  1  0
 18 60  1  0
 20 61  1  0
 27 62  1  0
 28 63  1  0
 30 64  1  0
 31 65  1  0
 31 66  1  0
 32 67  1  0
 32 68  1  0
 33 69  1  0
 34 70  1  0
 34 71  1  0
 35 72  1  0
 35 73  1  0
 36 74  1  0
 36 75  1  0
 37 76  1  0
 37 77  1  0
M  END
$$$$
[H]C([H])=C(C([H])([H])[H])[C@@]1([H])O[C@@]2(C([H])([H])[H])C3([H])C([H])([H])C([H])([H])[C@]4(C([H])([H])[H])C(C([H])([H])[H])=C([H])C([H])([H])[C@]4([H])[C@]3([H])C([H])([H])C([H])([H])[C@]2([H])C1([H])[H]
     RDKit          3D

 54 57  0  0  0  0  0  0  0  0999 V2000
   -5.2365    1.2130   -0.1635 C   0  0  0  0  0  0  0  0  0  0  0  0
   -4.2101    0.2166    0.2964 C   0  0  0  0  0  0  0  0  0  0  0  0
   -4.2844   -0.6727    1.2489 C   0  0  0  0  0  0  0  0  0  0  0  0
   -3.0440   -1.4659    1.3845 C   0  0  0  0  0  0  0  0  0  0  0  0
   -2.2622   -1.1661    0.1606 C   0  0  2  0  0  0  0  0  0  0  0  0
   -0.7808   -1.1406    0.2999 C   0  0  2  0  0  0  0  0  0  0  0  0
   -0.3651   -1.1375    1.7756 C   0  0  0  0  0  0  0  0  0  0  0  0
    1.1234   -1.3046    1.9355 C   0  0  0  0  0  0  0  0  0  0  0  0
    1.8106   -1.1338    0.6281 C   0  0  2  0  0  0  0  0  0  0  0  0
    3.2995   -0.8600    0.7295 C   0  0  0  0  0  0  0  0  0  0  0  0
    3.4711    0.2564   -0.2554 C   0  0  2  0  0  0  0  0  0  0  0  0
    2.2701    0.3041   -1.0084 O   0  0  0  0  0  0  0  0  0  0  0  0
    1.3228    0.1587    0.0079 C   0  0  2  0  0  0  0  0  0  0  0  0
    1.4120    1.3054    0.9429 C   0  0  0  0  0  0  0  0  0  0  0  0
   -0.0662   -0.1157   -0.5141 C   0  0  0  0  0  0  0  0  0  0  0  0
   -0.7504    1.1842   -0.7232 C   0  0  0  0  0  0  0  0  0  0  0  0
   -2.0798    1.3226   -0.0270 C   0  0  0  0  0  0  0  0  0  0  0  0
   -2.8715    0.1015   -0.3292 C   0  0  2  0  0  0  0  0  0  0  0  0
   -3.1150    0.0484   -1.8434 C   0  0  0  0  0  0  0  0  0  0  0  0
    4.6514    0.1951   -1.1119 C   0  0  0  0  0  0  0  0  0  0  0  0
    4.8280    1.2967   -2.1372 C   0  0  0  0  0  0  0  0  0  0  0  0
    5.5773   -0.7299   -1.0634 C   0  0  0  0  0  0  0  0  0  0  0  0
   -6.1135    1.2418    0.4879 H   0  0  0  0  0  0  0  0  0  0  0  0
   -5.5319    1.0533   -1.1991 H   0  0  0  0  0  0  0  0  0  0  0  0
   -4.7423    2.2059   -0.0911 H   0  0  0  0  0  0  0  0  0  0  0  0
   -5.2110   -0.7744    1.8591 H   0  0  0  0  0  0  0  0  0  0  0  0
   -3.2639   -2.5509    1.5138 H   0  0  0  0  0  0  0  0  0  0  0  0
   -2.5773   -1.0739    2.3381 H   0  0  0  0  0  0  0  0  0  0  0  0
   -2.5592   -1.9517   -0.6001 H   0  0  0  0  0  0  0  0  0  0  0  0
   -0.4110   -2.1556   -0.0485 H   0  0  0  0  0  0  0  0  0  0  0  0
   -0.7259   -0.2691    2.3220 H   0  0  0  0  0  0  0  0  0  0  0  0
   -0.8198   -2.0876    2.1885 H   0  0  0  0  0  0  0  0  0  0  0  0
    1.4123   -2.3106    2.3370 H   0  0  0  0  0  0  0  0  0  0  0  0
    1.4748   -0.5762    2.6848 H   0  0  0  0  0  0  0  0  0  0  0  0
    1.6058   -1.9886   -0.0481 H   0  0  0  0  0  0  0  0  0  0  0  0
    3.8920   -1.7575    0.5554 H   0  0  0  0  0  0  0  0  0  0  0  0
    3.5662   -0.5108    1.7689 H   0  0  0  0  0  0  0  0  0  0  0  0
    3.5173    1.2554    0.2706 H   0  0  0  0  0  0  0  0  0  0  0  0
    0.4710    1.5950    1.4501 H   0  0  0  0  0  0  0  0  0  0  0  0
    2.1521    1.1789    1.7707 H   0  0  0  0  0  0  0  0  0  0  0  0
    1.7461    2.2342    0.3928 H   0  0  0  0  0  0  0  0  0  0  0  0
    0.0992   -0.5645   -1.5423 H   0  0  0  0  0  0  0  0  0  0  0  0
   -0.1372    2.0673   -0.4272 H   0  0  0  0  0  0  0  0  0  0  0  0
   -0.9759    1.3868   -1.8154 H   0  0  0  0  0  0  0  0  0  0  0  0
   -2.0000    1.5066    1.0513 H   0  0  0  0  0  0  0  0  0  0  0  0
   -2.5977    2.1973   -0.4727 H   0  0  0  0  0  0  0  0  0  0  0  0
   -3.1860    1.0902   -2.2058 H   0  0  0  0  0  0  0  0  0  0  0  0
   -2.2947   -0.4366   -2.3753 H   0  0  0  0  0  0  0  0  0  0  0  0
   -4.1066   -0.4204   -2.0622 H   0  0  0  0  0  0  0  0  0  0  0  0
    3.8345    1.5685   -2.5559 H   0  0  0  0  0  0  0  0  0  0  0  0
    5.5703    1.0197   -2.8858 H   0  0  0  0  0  0  0  0  0  0  0  0
    5.1961    2.1805   -1.5763 H   0  0  0  0  0  0  0  0  0  0  0  0
    5.5933   -1.5697   -0.3853 H   0  0  0  0  0  0  0  0  0  0  0  0
    6.4228   -0.6591   -1.7718 H   0  0  0  0  0  0  0  0  0  0  0  0
  1  2  1  0
  2  3  2  0
  3  4  1  0
  4  5  1  0
  5  6  1  0
  6  7  1  0
  7  8  1  0
  8  9  1  0
  9 10  1  0
 10 11  1  0
 11 12  1  0
 12 13  1  0
 13 14  1  1
 13 15  1  0
 15 16  1  0
 16 17  1  0
 17 18  1  0
 18 19  1  6
 11 20  1  0
 20 21  1  0
 20 22  2  3
 18  2  1  0
 18  5  1  0
 15  6  1  0
 13  9  1  0
  1 23  1  0
  1 24  1  0
  1 25  1  0
  3 26  1  0
  4 27  1  0
  4 28  1  0
  5 29  1  6
  6 30  1  6
  7 31  1  0
  7 32  1  0
  8 33  1  0
  8 34  1  0
  9 35  1  6
 10 36  1  0
 10 37  1  0
 11 38  1  1
 14 39  1  0
 14 40  1  0
 14 41  1  0
 15 42  1  0
 16 43  1  0
 16 44  1  0
 17 45  1  0
 17 46  1  0
 19 47  1  0
 19 48  1  0
 19 49  1  0
 21 50  1  0
 21 51  1  0
 21 52  1  0
 22 53  1  0
 22 54  1  0
M  END
$$$$
[H]N=C(N=C(N([H])[H])N([H])C(C([H])([H])[H])(C([H])([H])[H])C([H])([H])[H])N([H])C(=O)C1([H])C([H])([H])C([H])([H])N(C([H])([H])C([H])([H])c2c([H])c(F)c([H])c(F)c2C#N)C([H])([H])C1([H])[H]
     RDKit          3D

 60 61  0  0  0  0  0  0  0  0999 V2000
   -6.5344   -1.0698    1.5911 C   0  0  0  0  0  0  0  0  0  0  0  0
   -6.2805    0.3394    1.0852 C   0  0  0  0  0  0  0  0  0  0  0  0
   -7.4764    1.2202    1.4565 C   0  0  0  0  0  0  0  0  0  0  0  0
   -5.0346    0.8814    1.7159 C   0  0  0  0  0  0  0  0  0  0  0  0
   -6.1603    0.2684   -0.3422 N   0  0  0  0  0  0  0  0  0  0  0  0
   -5.2084   -0.5451   -1.0139 C   0  0  0  0  0  0  0  0  0  0  0  0
   -5.2729   -1.9577   -1.0040 N   0  0  0  0  0  0  0  0  0  0  0  0
   -4.2467    0.0267   -1.6525 N   0  0  0  0  0  0  0  0  0  0  0  0
   -3.2771   -0.7493   -2.3385 C   0  0  0  0  0  0  0  0  0  0  0  0
   -3.7338   -1.5475   -3.2532 N   0  0  0  0  0  0  0  0  0  0  0  0
   -1.8837   -0.7062   -2.0959 N   0  0  0  0  0  0  0  0  0  0  0  0
   -1.2914    0.1298   -1.1242 C   0  0  0  0  0  0  0  0  0  0  0  0
   -2.0226    0.8714   -0.4375 O   0  0  0  0  0  0  0  0  0  0  0  0
    0.1512    0.1236   -0.9302 C   0  0  0  0  0  0  0  0  0  0  0  0
    0.6021    1.0411    0.1950 C   0  0  0  0  0  0  0  0  0  0  0  0
    2.0483    0.8001    0.4347 C   0  0  0  0  0  0  0  0  0  0  0  0
    2.8231    0.3136   -0.6341 N   0  0  0  0  0  0  0  0  0  0  0  0
    4.2315    0.3942   -0.4697 C   0  0  0  0  0  0  0  0  0  0  0  0
    4.6916   -0.5667    0.6257 C   0  0  0  0  0  0  0  0  0  0  0  0
    6.1556   -0.5011    0.8308 C   0  0  0  0  0  0  0  0  0  0  0  0
    6.9870   -1.4691    0.3074 C   0  0  0  0  0  0  0  0  0  0  0  0
    8.3644   -1.4239    0.4756 C   0  0  0  0  0  0  0  0  0  0  0  0
    9.1824   -2.3644   -0.0322 F   0  0  0  0  0  0  0  0  0  0  0  0
    8.9371   -0.3931    1.1811 C   0  0  0  0  0  0  0  0  0  0  0  0
    8.1306    0.5692    1.7035 C   0  0  0  0  0  0  0  0  0  0  0  0
    8.6633    1.5817    2.3939 F   0  0  0  0  0  0  0  0  0  0  0  0
    6.7586    0.5172    1.5318 C   0  0  0  0  0  0  0  0  0  0  0  0
    5.9673    1.5495    2.1105 C   0  0  0  0  0  0  0  0  0  0  0  0
    5.3217    2.3981    2.6097 N   0  0  0  0  0  0  0  0  0  0  0  0
    2.3346    0.3361   -1.9449 C   0  0  0  0  0  0  0  0  0  0  0  0
    0.9009    0.6620   -2.1596 C   0  0  0  0  0  0  0  0  0  0  0  0
   -5.5641   -1.6052    1.6944 H   0  0  0  0  0  0  0  0  0  0  0  0
   -7.1595   -1.6009    0.8537 H   0  0  0  0  0  0  0  0  0  0  0  0
   -7.0399   -1.1125    2.5592 H   0  0  0  0  0  0  0  0  0  0  0  0
   -7.5531    1.2613    2.5455 H   0  0  0  0  0  0  0  0  0  0  0  0
   -7.3267    2.1874    0.9697 H   0  0  0  0  0  0  0  0  0  0  0  0
   -8.3643    0.7378    0.9966 H   0  0  0  0  0  0  0  0  0  0  0  0
   -4.3607    0.1142    2.1026 H   0  0  0  0  0  0  0  0  0  0  0  0
   -4.4686    1.4820    0.9577 H   0  0  0  0  0  0  0  0  0  0  0  0
   -5.3472    1.5528    2.5702 H   0  0  0  0  0  0  0  0  0  0  0  0
   -6.8158    0.8541   -0.9292 H   0  0  0  0  0  0  0  0  0  0  0  0
   -6.0232   -2.4187   -1.5420 H   0  0  0  0  0  0  0  0  0  0  0  0
   -4.5907   -2.5523   -0.4727 H   0  0  0  0  0  0  0  0  0  0  0  0
   -4.7250   -1.6450   -3.4995 H   0  0  0  0  0  0  0  0  0  0  0  0
   -1.2646   -1.3262   -2.6666 H   0  0  0  0  0  0  0  0  0  0  0  0
    0.5898   -0.8818   -0.7195 H   0  0  0  0  0  0  0  0  0  0  0  0
    0.4004    2.0877   -0.1795 H   0  0  0  0  0  0  0  0  0  0  0  0
    0.0313    0.8301    1.1192 H   0  0  0  0  0  0  0  0  0  0  0  0
    2.1698    0.1739    1.3555 H   0  0  0  0  0  0  0  0  0  0  0  0
    2.4890    1.7996    0.7363 H   0  0  0  0  0  0  0  0  0  0  0  0
    4.5085    1.4106   -0.1349 H   0  0  0  0  0  0  0  0  0  0  0  0
    4.7516    0.1563   -1.4202 H   0  0  0  0  0  0  0  0  0  0  0  0
    4.4008   -1.6003    0.2820 H   0  0  0  0  0  0  0  0  0  0  0  0
    4.1236   -0.4086    1.5591 H   0  0  0  0  0  0  0  0  0  0  0  0
    6.5973   -2.3050   -0.2566 H   0  0  0  0  0  0  0  0  0  0  0  0
    9.9912   -0.3346    1.3245 H   0  0  0  0  0  0  0  0  0  0  0  0
    2.5552   -0.6334   -2.4528 H   0  0  0  0  0  0  0  0  0  0  0  0
    2.9285    1.0856   -2.5482 H   0  0  0  0  0  0  0  0  0  0  0  0
    0.5206    0.1998   -3.0732 H   0  0  0  0  0  0  0  0  0  0  0  0
    0.7172    1.7616   -2.1322 H   0  0  0  0  0  0  0  0  0  0  0  0
  1  2  1  0
  2  3  1  0
  2  4  1  0
  2  5  1  0
  5  6  1  0
  6  7  1  0
  6  8  2  3
  8  9  1  0
  9 10  2  3
  9 11  1  0
 11 12  1  0
 12 13  2  0
 12 14  1  0
 14 15  1  0
 15 16  1  0
 16 17  1  0
 17 18  1  0
 18 19  1  0
 19 20  1  0
 20 21  2  0
 21 22  1  0
 22 23  1  0
 22 24  2  0
 24 25  1  0
 25 26  1  0
 25 27  2  0
 27 28  1  0
 28 29  3  0
 17 30  1  0
 30 31  1  0
 31 14  1  0
 27 20  1  0
  1 32  1  0
  1 33  1  0
  1 34  1  0
  3 35  1  0
  3 36  1  0
  3 37  1  0
  4 38  1  0
  4 39  1  0
  4 40  1  0
  5 41  1  0
  7 42  1  0
  7 43  1  0
 10 44  1  0
 11 45  1  0
 14 46  1  0
 15 47  1  0
 15 48  1  0
 16 49  1  0
 16 50  1  0
 18 51  1  0
 18 52  1  0
 19 53  1  0
 19 54  1  0
 21 55  1  0
 24 56  1  0
 30 57  1  0
 30 58  1  0
 31 59  1  0
 31 60  1  0
M  END
$$$$
[H]Oc1c([H])c([H])c2c(c1[H])/C(=C(/[H])c1c([H])c([H])c3oc(N([H])c4c(F)c([H])c([H])c([H])c4Cl)c(Cl)c3c1[H])C(=O)N2[H]
     RDKit          3D

 44 48  0  0  0  0  0  0  0  0999 V2000
   -3.0263   -2.9093   -1.0034 O   0  0  0  0  0  0  0  0  0  0  0  0
   -3.8069   -1.8093   -0.6789 C   0  0  0  0  0  0  0  0  0  0  0  0
   -5.1639   -1.9082   -0.8994 C   0  0  0  0  0  0  0  0  0  0  0  0
   -5.9875   -0.8470   -0.5955 C   0  0  0  0  0  0  0  0  0  0  0  0
   -5.4464    0.3104   -0.0713 C   0  0  0  0  0  0  0  0  0  0  0  0
   -6.1084    1.5054    0.3173 N   0  0  0  0  0  0  0  0  0  0  0  0
   -5.1294    2.4021    0.8046 C   0  0  0  0  0  0  0  0  0  0  0  0
   -5.2628    3.5634    1.2503 O   0  0  0  0  0  0  0  0  0  0  0  0
   -3.8160    1.7094    0.7020 C   0  0  0  0  0  0  0  0  0  0  0  0
   -2.6599    2.2119    1.0755 C   0  0  0  0  0  0  0  0  0  0  0  0
   -1.3857    1.5707    0.9828 C   0  0  0  0  0  0  0  0  0  0  0  0
   -0.8326    0.9344    2.0470 C   0  0  0  0  0  0  0  0  0  0  0  0
    0.4224    0.3985    1.9930 C   0  0  0  0  0  0  0  0  0  0  0  0
    1.1338    0.5187    0.8091 C   0  0  0  0  0  0  0  0  0  0  0  0
    2.3344    0.1098    0.4757 O   0  0  0  0  0  0  0  0  0  0  0  0
    2.6446    0.4253   -0.7560 C   0  0  0  0  0  0  0  0  0  0  0  0
    3.8871    0.0989   -1.3644 N   0  0  0  0  0  0  0  0  0  0  0  0
    4.9099   -0.6046   -0.6834 C   0  0  0  0  0  0  0  0  0  0  0  0
    4.9869   -1.9944   -0.7103 C   0  0  0  0  0  0  0  0  0  0  0  0
    4.0626   -2.7041   -1.4059 F   0  0  0  0  0  0  0  0  0  0  0  0
    5.9910   -2.6573   -0.0388 C   0  0  0  0  0  0  0  0  0  0  0  0
    6.9224   -1.9186    0.6635 C   0  0  0  0  0  0  0  0  0  0  0  0
    6.8509   -0.5405    0.6936 C   0  0  0  0  0  0  0  0  0  0  0  0
    5.8438    0.1322    0.0203 C   0  0  0  0  0  0  0  0  0  0  0  0
    5.8259    1.8718    0.1098 Cl  0  0  0  0  0  0  0  0  0  0  0  0
    1.5719    1.0939   -1.2827 C   0  0  0  0  0  0  0  0  0  0  0  0
    1.4696    1.7330   -2.8970 Cl  0  0  0  0  0  0  0  0  0  0  0  0
    0.6186    1.1532   -0.2961 C   0  0  0  0  0  0  0  0  0  0  0  0
   -0.6587    1.6777   -0.1841 C   0  0  0  0  0  0  0  0  0  0  0  0
   -4.0744    0.3934    0.1444 C   0  0  0  0  0  0  0  0  0  0  0  0
   -3.2433   -0.6515   -0.1513 C   0  0  0  0  0  0  0  0  0  0  0  0
   -2.0405   -2.9684   -0.8943 H   0  0  0  0  0  0  0  0  0  0  0  0
   -5.6244   -2.7917   -1.3061 H   0  0  0  0  0  0  0  0  0  0  0  0
   -7.0630   -0.8887   -0.7558 H   0  0  0  0  0  0  0  0  0  0  0  0
   -7.1246    1.7339    0.2737 H   0  0  0  0  0  0  0  0  0  0  0  0
   -2.7125    3.2474    1.5058 H   0  0  0  0  0  0  0  0  0  0  0  0
   -1.3922    0.8465    2.9602 H   0  0  0  0  0  0  0  0  0  0  0  0
    0.8859   -0.1178    2.8391 H   0  0  0  0  0  0  0  0  0  0  0  0
    4.0829    0.3773   -2.3568 H   0  0  0  0  0  0  0  0  0  0  0  0
    6.0512   -3.7417   -0.0596 H   0  0  0  0  0  0  0  0  0  0  0  0
    7.7224   -2.4356    1.1992 H   0  0  0  0  0  0  0  0  0  0  0  0
    7.5943   -0.0124    1.2507 H   0  0  0  0  0  0  0  0  0  0  0  0
   -1.0461    2.1762   -1.0735 H   0  0  0  0  0  0  0  0  0  0  0  0
   -2.2069   -0.6941   -0.0161 H   0  0  0  0  0  0  0  0  0  0  0  0
  1  2  1  0
  2  3  2  0
  3  4  1  0
  4  5  2  0
  5  6  1  0
  6  7  1  0
  7  8  2  0
  7  9  1  0
  9 10  2  0
 10 11  1  0
 11 12  2  0
 12 13  1  0
 13 14  2  0
 14 15  1  0
 15 16  1  0
 16 17  1  0
 17 18  1  0
 18 19  2  0
 19 20  1  0
 19 21  1  0
 21 22  2  0
 22 23  1  0
 23 24  2  0
 24 25  1  0
 16 26  2  0
 26 27  1  0
 26 28  1  0
 28 29  2  0
  9 30  1  0
 30 31  2  0
 31  2  1  0
 30  5  1  0
 29 11  1  0
 28 14  1  0
 24 18  1  0
  1 32  1  0
  3 33  1  0
  4 34  1  0
  6 35  1  0
 10 36  1  0
 12 37  1  0
 13 38  1  0
 17 39  1  0
 21 40  1  0
 22 41  1  0
 23 42  1  0
 29 43  1  0
 31 44  1  0
M  END
$$$$
[H]c1nc2c([H])c(-c3nnn(C([H])([H])[H])n3)sc2c(-c2c([H])c([H])c(N([H])C(=O)N([H])c3c([H])c([H])c([H])c(C([H])([H])[H])c3[H])c([H])c2[H])c1[H]
     RDKit          3D

 51 55  0  0  0  0  0  0  0  0999 V2000
   -7.9116    3.9074   -0.3093 C   0  0  0  0  0  0  0  0  0  0  0  0
   -7.0691    2.7098   -0.5735 C   0  0  0  0  0  0  0  0  0  0  0  0
   -7.2472    2.0420   -1.7765 C   0  0  0  0  0  0  0  0  0  0  0  0
   -6.4812    0.9325   -2.0466 C   0  0  0  0  0  0  0  0  0  0  0  0
   -5.5281    0.4695   -1.1283 C   0  0  0  0  0  0  0  0  0  0  0  0
   -5.3459    1.1146    0.0482 C   0  0  0  0  0  0  0  0  0  0  0  0
   -4.3911    0.7210    0.9971 N   0  0  0  0  0  0  0  0  0  0  0  0
   -3.1786    0.0713    0.6178 C   0  0  0  0  0  0  0  0  0  0  0  0
   -2.9199   -0.1607   -0.5932 O   0  0  0  0  0  0  0  0  0  0  0  0
   -2.3044   -0.2891    1.6527 N   0  0  0  0  0  0  0  0  0  0  0  0
   -1.0728   -0.9206    1.4748 C   0  0  0  0  0  0  0  0  0  0  0  0
   -0.3525   -0.8858    0.3262 C   0  0  0  0  0  0  0  0  0  0  0  0
    0.8652   -1.5696    0.2211 C   0  0  0  0  0  0  0  0  0  0  0  0
    1.3943   -2.3018    1.2539 C   0  0  0  0  0  0  0  0  0  0  0  0
    0.6490   -2.3257    2.4148 C   0  0  0  0  0  0  0  0  0  0  0  0
   -0.5442   -1.6628    2.5343 C   0  0  0  0  0  0  0  0  0  0  0  0
    2.6433   -2.9919    1.1300 C   0  0  0  0  0  0  0  0  0  0  0  0
    2.8486   -4.2954    1.5321 C   0  0  0  0  0  0  0  0  0  0  0  0
    4.1189   -4.7805    1.3260 C   0  0  0  0  0  0  0  0  0  0  0  0
    5.1121   -4.0929    0.7855 N   0  0  0  0  0  0  0  0  0  0  0  0
    4.9486   -2.7965    0.3734 C   0  0  0  0  0  0  0  0  0  0  0  0
    5.8896   -1.9989   -0.1897 C   0  0  0  0  0  0  0  0  0  0  0  0
    5.5057   -0.7335   -0.5243 C   0  0  0  0  0  0  0  0  0  0  0  0
    3.8709   -0.6807   -0.0562 S   0  0  0  0  0  0  0  0  0  0  0  0
    3.7091   -2.2707    0.5559 C   0  0  0  0  0  0  0  0  0  0  0  0
    6.3179    0.3265   -1.1447 C   0  0  0  0  0  0  0  0  0  0  0  0
    7.6028    0.2178   -1.4927 N   0  0  0  0  0  0  0  0  0  0  0  0
    7.9345    1.4015   -2.0134 N   0  0  0  0  0  0  0  0  0  0  0  0
    6.8912    2.2090   -1.9864 N   0  0  0  0  0  0  0  0  0  0  0  0
    6.8725    3.5817   -2.4681 C   0  0  0  0  0  0  0  0  0  0  0  0
    5.8676    1.5691   -1.4508 N   0  0  0  0  0  0  0  0  0  0  0  0
   -6.1431    2.2410    0.2918 C   0  0  0  0  0  0  0  0  0  0  0  0
   -7.2518    4.7691   -0.0084 H   0  0  0  0  0  0  0  0  0  0  0  0
   -8.6088    3.7702    0.5387 H   0  0  0  0  0  0  0  0  0  0  0  0
   -8.4631    4.2114   -1.1985 H   0  0  0  0  0  0  0  0  0  0  0  0
   -7.9784    2.4082   -2.4663 H   0  0  0  0  0  0  0  0  0  0  0  0
   -6.6301    0.4218   -2.9871 H   0  0  0  0  0  0  0  0  0  0  0  0
   -5.0062   -0.4164   -1.4392 H   0  0  0  0  0  0  0  0  0  0  0  0
   -4.5554    0.9034    2.0411 H   0  0  0  0  0  0  0  0  0  0  0  0
   -2.5932   -0.0645    2.6494 H   0  0  0  0  0  0  0  0  0  0  0  0
   -0.6707   -0.3227   -0.5426 H   0  0  0  0  0  0  0  0  0  0  0  0
    1.3762   -1.4940   -0.7268 H   0  0  0  0  0  0  0  0  0  0  0  0
    0.9833   -2.8797    3.2954 H   0  0  0  0  0  0  0  0  0  0  0  0
   -1.1238   -1.6849    3.4462 H   0  0  0  0  0  0  0  0  0  0  0  0
    2.0215   -4.8190    1.9646 H   0  0  0  0  0  0  0  0  0  0  0  0
    4.3118   -5.8167    1.6367 H   0  0  0  0  0  0  0  0  0  0  0  0
    6.9465   -2.3145   -0.3925 H   0  0  0  0  0  0  0  0  0  0  0  0
    6.1773    4.2150   -1.8721 H   0  0  0  0  0  0  0  0  0  0  0  0
    6.6078    3.6123   -3.5561 H   0  0  0  0  0  0  0  0  0  0  0  0
    7.9017    3.9921   -2.3870 H   0  0  0  0  0  0  0  0  0  0  0  0
   -5.9968    2.7514    1.2285 H   0  0  0  0  0  0  0  0  0  0  0  0
  1  2  1  0
  2  3  2  0
  3  4  1  0
  4  5  2  0
  5  6  1  0
  6  7  1  0
  7  8  1  0
  8  9  2  0
  8 10  1  0
 10 11  1  0
 11 12  2  0
 12 13  1  0
 13 14  2  0
 14 15  1  0
 15 16  2  0
 14 17  1  0
 17 18  2  0
 18 19  1  0
 19 20  2  0
 20 21  1  0
 21 22  1  0
 22 23  2  0
 23 24  1  0
 24 25  1  0
 23 26  1  0
 26 27  1  0
 27 28  2  0
 28 29  1  0
 29 30  1  0
 29 31  1  0
  6 32  2  0
 32  2  1  0
 16 11  1  0
 25 17  1  0
 31 26  2  0
 25 21  2  0
  1 33  1  0
  1 34  1  0
  1 35  1  0
  3 36  1  0
  4 37  1  0
  5 38  1  0
  7 39  1  0
 10 40  1  0
 12 41  1  0
 13 42  1  0
 15 43  1  0
 16 44  1  0
 18 45  1  0
 19 46  1  0
 22 47  1  0
 30 48  1  0
 30 49  1  0
 30 50  1  0
 32 51  1  0
M  END
$$$$
[H]c1c([H])c(C([H])([H])n2c(C([H])([H])[H])nc3c([H])c(Cl)c([H])c([H])c32)c([H])c([H])c1Cl
     RDKit          3D

 31 33  0  0  0  0  0  0  0  0999 V2000
   -0.2149    2.5619   -1.7434 C   0  0  0  0  0  0  0  0  0  0  0  0
   -1.0115    1.5965   -0.9106 C   0  0  0  0  0  0  0  0  0  0  0  0
   -2.1270    1.9091   -0.1981 N   0  0  0  0  0  0  0  0  0  0  0  0
   -2.5772    0.7856    0.4152 C   0  0  0  0  0  0  0  0  0  0  0  0
   -3.6644    0.5510    1.2436 C   0  0  0  0  0  0  0  0  0  0  0  0
   -3.8839   -0.7178    1.7232 C   0  0  0  0  0  0  0  0  0  0  0  0
   -5.2537   -1.0748    2.7827 Cl  0  0  0  0  0  0  0  0  0  0  0  0
   -2.9986   -1.7057    1.3500 C   0  0  0  0  0  0  0  0  0  0  0  0
   -1.9211   -1.4744    0.5297 C   0  0  0  0  0  0  0  0  0  0  0  0
   -1.6923   -0.2013    0.0430 C   0  0  0  0  0  0  0  0  0  0  0  0
   -0.7240    0.3051   -0.7775 N   0  0  0  0  0  0  0  0  0  0  0  0
    0.3507   -0.4695   -1.3493 C   0  0  0  0  0  0  0  0  0  0  0  0
    1.5868   -0.5199   -0.5609 C   0  0  0  0  0  0  0  0  0  0  0  0
    2.5891    0.3902   -0.8590 C   0  0  0  0  0  0  0  0  0  0  0  0
    3.7936    0.4375   -0.1817 C   0  0  0  0  0  0  0  0  0  0  0  0
    4.0087   -0.4636    0.8389 C   0  0  0  0  0  0  0  0  0  0  0  0
    5.5469   -0.3865    1.6877 Cl  0  0  0  0  0  0  0  0  0  0  0  0
    3.0392   -1.3824    1.1646 C   0  0  0  0  0  0  0  0  0  0  0  0
    1.8325   -1.4046    0.4611 C   0  0  0  0  0  0  0  0  0  0  0  0
   -0.8213    3.4363   -2.0446 H   0  0  0  0  0  0  0  0  0  0  0  0
    0.2139    2.0169   -2.6001 H   0  0  0  0  0  0  0  0  0  0  0  0
    0.6426    2.9729   -1.1512 H   0  0  0  0  0  0  0  0  0  0  0  0
   -4.3395    1.3316    1.5211 H   0  0  0  0  0  0  0  0  0  0  0  0
   -3.1614   -2.6965    1.7181 H   0  0  0  0  0  0  0  0  0  0  0  0
   -1.2262   -2.2537    0.2341 H   0  0  0  0  0  0  0  0  0  0  0  0
    0.6207   -0.0937   -2.3794 H   0  0  0  0  0  0  0  0  0  0  0  0
    0.0486   -1.5293   -1.5320 H   0  0  0  0  0  0  0  0  0  0  0  0
    2.4983    1.1243   -1.6562 H   0  0  0  0  0  0  0  0  0  0  0  0
    4.5419    1.1745   -0.4606 H   0  0  0  0  0  0  0  0  0  0  0  0
    3.2050   -2.0897    1.9635 H   0  0  0  0  0  0  0  0  0  0  0  0
    1.0987   -2.1301    0.7281 H   0  0  0  0  0  0  0  0  0  0  0  0
  1  2  1  0
  2  3  2  0
  3  4  1  0
  4  5  2  0
  5  6  1  0
  6  7  1  0
  6  8  2  0
  8  9  1  0
  9 10  2  0
 10 11  1  0
 11 12  1  0
 12 13  1  0
 13 14  2  0
 14 15  1  0
 15 16  2  0
 16 17  1  0
 16 18  1  0
 18 19  2  0
 11  2  1  0
 19 13  1  0
 10  4  1  0
  1 20  1  0
  1 21  1  0
  1 22  1  0
  5 23  1  0
  8 24  1  0
  9 25  1  0
 12 26  1  0
 12 27  1  0
 14 28  1  0
 15 29  1  0
 18 30  1  0
 19 31  1  0
M  END
$$$$
[H]/C(=C1/C(=O)N([H])c2c([H])c([H])c(Br)c([H])c21)c1c([H])n(C([H])([H])[H])c2c([H])c(F)c(-c3c([H])c([H])c(F)c([H])c3[H])c([H])c12
     RDKit          3D

 45 49  0  0  0  0  0  0  0  0999 V2000
    0.4947   -4.8500    1.6297 C   0  0  0  0  0  0  0  0  0  0  0  0
    0.1687   -3.5591    1.0358 N   0  0  0  0  0  0  0  0  0  0  0  0
   -1.0406   -3.0819    0.6973 C   0  0  0  0  0  0  0  0  0  0  0  0
   -0.9181   -1.8170    0.1631 C   0  0  0  0  0  0  0  0  0  0  0  0
   -1.9688   -1.0031   -0.3784 C   0  0  0  0  0  0  0  0  0  0  0  0
   -2.4620    0.0909    0.1698 C   0  0  0  0  0  0  0  0  0  0  0  0
   -2.0463    0.6688    1.4171 C   0  0  0  0  0  0  0  0  0  0  0  0
   -1.1941    0.2538    2.2130 O   0  0  0  0  0  0  0  0  0  0  0  0
   -2.8362    1.8679    1.5849 N   0  0  0  0  0  0  0  0  0  0  0  0
   -3.7017    2.0022    0.4695 C   0  0  0  0  0  0  0  0  0  0  0  0
   -4.6634    2.9521    0.1166 C   0  0  0  0  0  0  0  0  0  0  0  0
   -5.3937    2.8462   -1.0621 C   0  0  0  0  0  0  0  0  0  0  0  0
   -5.1782    1.7799   -1.9233 C   0  0  0  0  0  0  0  0  0  0  0  0
   -6.1957    1.6396   -3.5534 Br  0  0  0  0  0  0  0  0  0  0  0  0
   -4.2422    0.8549   -1.5811 C   0  0  0  0  0  0  0  0  0  0  0  0
   -3.5174    0.9598   -0.4110 C   0  0  0  0  0  0  0  0  0  0  0  0
    0.4303   -1.5378    0.1885 C   0  0  0  0  0  0  0  0  0  0  0  0
    1.1568   -0.4355   -0.2290 C   0  0  0  0  0  0  0  0  0  0  0  0
    2.5214   -0.3840   -0.1206 C   0  0  0  0  0  0  0  0  0  0  0  0
    3.3096    0.7592   -0.5551 C   0  0  0  0  0  0  0  0  0  0  0  0
    4.4115    0.5598   -1.3527 C   0  0  0  0  0  0  0  0  0  0  0  0
    5.1611    1.6509   -1.7535 C   0  0  0  0  0  0  0  0  0  0  0  0
    4.7866    2.9273   -1.3420 C   0  0  0  0  0  0  0  0  0  0  0  0
    5.5201    3.9953   -1.7337 F   0  0  0  0  0  0  0  0  0  0  0  0
    3.6850    3.1326   -0.5439 C   0  0  0  0  0  0  0  0  0  0  0  0
    2.9536    2.0249   -0.1580 C   0  0  0  0  0  0  0  0  0  0  0  0
    3.1602   -1.4732    0.4226 C   0  0  0  0  0  0  0  0  0  0  0  0
    4.5287   -1.4698    0.5572 F   0  0  0  0  0  0  0  0  0  0  0  0
    2.4809   -2.5916    0.8512 C   0  0  0  0  0  0  0  0  0  0  0  0
    1.1093   -2.6305    0.7356 C   0  0  0  0  0  0  0  0  0  0  0  0
    1.4232   -4.7776    2.2465 H   0  0  0  0  0  0  0  0  0  0  0  0
   -0.3032   -5.1980    2.3195 H   0  0  0  0  0  0  0  0  0  0  0  0
    0.6892   -5.5576    0.8019 H   0  0  0  0  0  0  0  0  0  0  0  0
   -1.9579   -3.6301    0.8348 H   0  0  0  0  0  0  0  0  0  0  0  0
   -2.4346   -1.2842   -1.3428 H   0  0  0  0  0  0  0  0  0  0  0  0
   -2.7953    2.5279    2.3717 H   0  0  0  0  0  0  0  0  0  0  0  0
   -4.8421    3.7874    0.7765 H   0  0  0  0  0  0  0  0  0  0  0  0
   -6.1289    3.6078   -1.2926 H   0  0  0  0  0  0  0  0  0  0  0  0
   -4.0574    0.0194   -2.2333 H   0  0  0  0  0  0  0  0  0  0  0  0
    0.6339    0.4081   -0.6524 H   0  0  0  0  0  0  0  0  0  0  0  0
    4.7190   -0.4421   -1.6894 H   0  0  0  0  0  0  0  0  0  0  0  0
    6.0322    1.5032   -2.3840 H   0  0  0  0  0  0  0  0  0  0  0  0
    3.4423    4.1449   -0.2544 H   0  0  0  0  0  0  0  0  0  0  0  0
    2.0920    2.2091    0.4685 H   0  0  0  0  0  0  0  0  0  0  0  0
    2.9676   -3.4511    1.2779 H   0  0  0  0  0  0  0  0  0  0  0  0
  1  2  1  0
  2  3  1  0
  3  4  2  0
  4  5  1  0
  5  6  2  0
  6  7  1  0
  7  8  2  0
  7  9  1  0
  9 10  1  0
 10 11  2  0
 11 12  1  0
 12 13  2  0
 13 14  1  0
 13 15  1  0
 15 16  2  0
  4 17  1  0
 17 18  2  0
 18 19  1  0
 19 20  1  0
 20 21  2  0
 21 22  1  0
 22 23  2  0
 23 24  1  0
 23 25  1  0
 25 26  2  0
 19 27  2  0
 27 28  1  0
 27 29  1  0
 29 30  2  0
 30  2  1  0
 16  6  1  0
 30 17  1  0
 16 10  1  0
 26 20  1  0
  1 31  1  0
  1 32  1  0
  1 33  1  0
  3 34  1  0
  5 35  1  0
  9 36  1  0
 11 37  1  0
 12 38  1  0
 15 39  1  0
 18 40  1  0
 21 41  1  0
 22 42  1  0
 25 43  1  0
 26 44  1  0
 29 45  1  0
M  END
$$$$
[H]OC([H])(C(O[H])(OC([H])([H])C([H])([H])C([H])([H])C([H])([H])C([H])([H])C([H])([H])C([H])([H])C([H])([H])C([H])([H])C([H])([H])C([H])([H])C([H])([H])C([H])([H])C([H])([H])C([H])([H])C([H])([H])C([H])([H])C([H])([H])[H])C(F)(F)F)C(O[H])(C(=O)OC([H])([H])c1c([H])c([H])c([H])c([H])c1[H])C1([H])C([H])([H])C([H])([H])C([H])([H])C([H])([H])C1([H])[H]
     RDKit          3D

104105  0  0  0  0  0  0  0  0999 V2000
   13.4204    3.8987   -0.5242 C   0  0  0  0  0  0  0  0  0  0  0  0
   11.9365    3.6534   -0.5397 C   0  0  0  0  0  0  0  0  0  0  0  0
   11.6938    2.1558   -0.3595 C   0  0  0  0  0  0  0  0  0  0  0  0
   10.1970    1.8708   -0.3728 C   0  0  0  0  0  0  0  0  0  0  0  0
    9.9643    0.3927   -0.2069 C   0  0  0  0  0  0  0  0  0  0  0  0
    8.4993    0.0691   -0.2226 C   0  0  0  0  0  0  0  0  0  0  0  0
    8.2969   -1.4066   -0.0705 C   0  0  0  0  0  0  0  0  0  0  0  0
    6.7705   -1.7008   -0.1058 C   0  0  0  0  0  0  0  0  0  0  0  0
    6.6147   -3.1643    0.0303 C   0  0  0  0  0  0  0  0  0  0  0  0
    5.2961   -3.7869   -0.0491 C   0  0  0  0  0  0  0  0  0  0  0  0
    4.2009   -3.4579    0.8818 C   0  0  0  0  0  0  0  0  0  0  0  0
    3.6523   -2.0773    0.8639 C   0  0  0  0  0  0  0  0  0  0  0  0
    3.1109   -1.7028   -0.5231 C   0  0  0  0  0  0  0  0  0  0  0  0
    2.5424   -0.3105   -0.5372 C   0  0  0  0  0  0  0  0  0  0  0  0
    1.3821   -0.1214    0.3987 C   0  0  0  0  0  0  0  0  0  0  0  0
    0.2859   -1.0516    0.0011 C   0  0  0  0  0  0  0  0  0  0  0  0
   -0.9460   -0.8976    0.9015 C   0  0  0  0  0  0  0  0  0  0  0  0
   -2.0147   -1.8506    0.4629 C   0  0  0  0  0  0  0  0  0  0  0  0
   -2.4655   -1.6951   -0.7701 O   0  0  0  0  0  0  0  0  0  0  0  0
   -3.1755   -0.5729   -1.1765 C   0  0  0  0  0  0  0  0  0  0  0  0
   -2.4140    0.5423   -1.0010 O   0  0  0  0  0  0  0  0  0  0  0  0
   -4.4671   -0.6483   -0.4881 C   0  0  0  0  0  0  0  0  0  0  0  0
   -5.0905   -1.8585   -0.8889 O   0  0  0  0  0  0  0  0  0  0  0  0
   -5.4901    0.3910   -0.5159 C   0  0  0  0  0  0  0  0  0  0  0  0
   -6.1233    0.6161   -1.7445 O   0  0  0  0  0  0  0  0  0  0  0  0
   -6.6113   -0.1437    0.3564 C   0  0  0  0  0  0  0  0  0  0  0  0
   -6.4331   -0.4616    1.5579 O   0  0  0  0  0  0  0  0  0  0  0  0
   -7.9068   -0.3197   -0.1197 O   0  0  0  0  0  0  0  0  0  0  0  0
   -8.9277   -0.8297    0.7168 C   0  0  0  0  0  0  0  0  0  0  0  0
  -10.1707   -0.9142   -0.0632 C   0  0  0  0  0  0  0  0  0  0  0  0
  -10.3887   -1.9852   -0.9059 C   0  0  0  0  0  0  0  0  0  0  0  0
  -11.5652   -2.0977   -1.6526 C   0  0  0  0  0  0  0  0  0  0  0  0
  -12.5438   -1.1242   -1.5585 C   0  0  0  0  0  0  0  0  0  0  0  0
  -12.3191   -0.0623   -0.7179 C   0  0  0  0  0  0  0  0  0  0  0  0
  -11.1394    0.0483    0.0292 C   0  0  0  0  0  0  0  0  0  0  0  0
   -5.1213    1.7304    0.0196 C   0  0  0  0  0  0  0  0  0  0  0  0
   -4.6914    1.7887    1.4460 C   0  0  0  0  0  0  0  0  0  0  0  0
   -5.5806    2.6283    2.3332 C   0  0  0  0  0  0  0  0  0  0  0  0
   -5.6145    4.0564    1.8253 C   0  0  0  0  0  0  0  0  0  0  0  0
   -5.9736    3.9930    0.3489 C   0  0  0  0  0  0  0  0  0  0  0  0
   -6.3852    2.6026   -0.0772 C   0  0  0  0  0  0  0  0  0  0  0  0
   -3.2492   -0.7769   -2.6988 C   0  0  0  0  0  0  0  0  0  0  0  0
   -3.8970    0.2244   -3.3571 F   0  0  0  0  0  0  0  0  0  0  0  0
   -3.7386   -2.0316   -2.9996 F   0  0  0  0  0  0  0  0  0  0  0  0
   -1.9408   -0.7526   -3.1478 F   0  0  0  0  0  0  0  0  0  0  0  0
   13.7885    4.2433    0.4613 H   0  0  0  0  0  0  0  0  0  0  0  0
   13.6571    4.6588   -1.2924 H   0  0  0  0  0  0  0  0  0  0  0  0
   13.9330    2.9495   -0.7927 H   0  0  0  0  0  0  0  0  0  0  0  0
   11.4163    4.1939    0.2769 H   0  0  0  0  0  0  0  0  0  0  0  0
   11.5492    3.9344   -1.5523 H   0  0  0  0  0  0  0  0  0  0  0  0
   12.0555    1.8531    0.6583 H   0  0  0  0  0  0  0  0  0  0  0  0
   12.1628    1.5909   -1.1707 H   0  0  0  0  0  0  0  0  0  0  0  0
    9.7296    2.4393    0.4457 H   0  0  0  0  0  0  0  0  0  0  0  0
    9.7518    2.2141   -1.3479 H   0  0  0  0  0  0  0  0  0  0  0  0
   10.4817   -0.1551   -1.0271 H   0  0  0  0  0  0  0  0  0  0  0  0
   10.4474    0.0768    0.7387 H   0  0  0  0  0  0  0  0  0  0  0  0
    8.0492    0.3751   -1.1816 H   0  0  0  0  0  0  0  0  0  0  0  0
    8.0246    0.5634    0.6475 H   0  0  0  0  0  0  0  0  0  0  0  0
    8.6801   -1.8165    0.8792 H   0  0  0  0  0  0  0  0  0  0  0  0
    8.7553   -1.9483   -0.9182 H   0  0  0  0  0  0  0  0  0  0  0  0
    6.2902   -1.2716   -0.9753 H   0  0  0  0  0  0  0  0  0  0  0  0
    6.4075   -1.1947    0.8428 H   0  0  0  0  0  0  0  0  0  0  0  0
    7.1131   -3.5284    0.9930 H   0  0  0  0  0  0  0  0  0  0  0  0
    7.2798   -3.6735   -0.7590 H   0  0  0  0  0  0  0  0  0  0  0  0
    5.4038   -4.9345   -0.0636 H   0  0  0  0  0  0  0  0  0  0  0  0
    4.9330   -3.6107   -1.1358 H   0  0  0  0  0  0  0  0  0  0  0  0
    3.3453   -4.1876    0.7340 H   0  0  0  0  0  0  0  0  0  0  0  0
    4.5437   -3.6913    1.9364 H   0  0  0  0  0  0  0  0  0  0  0  0
    2.7162   -2.0908    1.5527 H   0  0  0  0  0  0  0  0  0  0  0  0
    4.2527   -1.2944    1.2962 H   0  0  0  0  0  0  0  0  0  0  0  0
    2.3061   -2.4489   -0.7554 H   0  0  0  0  0  0  0  0  0  0  0  0
    3.9260   -1.8081   -1.2657 H   0  0  0  0  0  0  0  0  0  0  0  0
    2.2408   -0.0891   -1.5829 H   0  0  0  0  0  0  0  0  0  0  0  0
    3.3892    0.3709   -0.2661 H   0  0  0  0  0  0  0  0  0  0  0  0
    1.0777    0.9525    0.2934 H   0  0  0  0  0  0  0  0  0  0  0  0
    1.7286   -0.3313    1.4373 H   0  0  0  0  0  0  0  0  0  0  0  0
    0.5806   -2.1209    0.1369 H   0  0  0  0  0  0  0  0  0  0  0  0
    0.0499   -0.9398   -1.0639 H   0  0  0  0  0  0  0  0  0  0  0  0
   -0.5553   -1.1608    1.9233 H   0  0  0  0  0  0  0  0  0  0  0  0
   -1.2030    0.1541    0.9578 H   0  0  0  0  0  0  0  0  0  0  0  0
   -2.7872   -2.0047    1.2618 H   0  0  0  0  0  0  0  0  0  0  0  0
   -1.4874   -2.8780    0.4857 H   0  0  0  0  0  0  0  0  0  0  0  0
   -2.4856    1.2109   -1.7300 H   0  0  0  0  0  0  0  0  0  0  0  0
   -4.2369   -0.8410    0.6020 H   0  0  0  0  0  0  0  0  0  0  0  0
   -4.7578   -2.6267   -0.3991 H   0  0  0  0  0  0  0  0  0  0  0  0
   -6.5728   -0.1682   -2.1118 H   0  0  0  0  0  0  0  0  0  0  0  0
   -9.0964   -0.1426    1.5876 H   0  0  0  0  0  0  0  0  0  0  0  0
   -8.5791   -1.8137    1.0979 H   0  0  0  0  0  0  0  0  0  0  0  0
   -9.6341   -2.7516   -0.9907 H   0  0  0  0  0  0  0  0  0  0  0  0
  -11.7114   -2.9392   -2.3020 H   0  0  0  0  0  0  0  0  0  0  0  0
  -13.4566   -1.2129   -2.1388 H   0  0  0  0  0  0  0  0  0  0  0  0
  -13.0816    0.7265   -0.6244 H   0  0  0  0  0  0  0  0  0  0  0  0
  -10.9694    0.8981    0.6948 H   0  0  0  0  0  0  0  0  0  0  0  0
   -4.4049    2.2793   -0.6696 H   0  0  0  0  0  0  0  0  0  0  0  0
   -3.7026    2.3572    1.4447 H   0  0  0  0  0  0  0  0  0  0  0  0
   -4.4306    0.8326    1.9152 H   0  0  0  0  0  0  0  0  0  0  0  0
   -5.1188    2.5556    3.3564 H   0  0  0  0  0  0  0  0  0  0  0  0
   -6.6049    2.2778    2.4323 H   0  0  0  0  0  0  0  0  0  0  0  0
   -6.4199    4.6360    2.3522 H   0  0  0  0  0  0  0  0  0  0  0  0
   -4.6360    4.5571    1.9921 H   0  0  0  0  0  0  0  0  0  0  0  0
   -5.0624    4.2778   -0.2110 H   0  0  0  0  0  0  0  0  0  0  0  0
   -6.7377    4.7534    0.0814 H   0  0  0  0  0  0  0  0  0  0  0  0
   -7.2198    2.2065    0.4934 H   0  0  0  0  0  0  0  0  0  0  0  0
   -6.5935    2.6762   -1.1768 H   0  0  0  0  0  0  0  0  0  0  0  0
  1  2  1  0
  2  3  1  0
  3  4  1  0
  4  5  1  0
  5  6  1  0
  6  7  1  0
  7  8  1  0
  8  9  1  0
  9 10  1  0
 10 11  1  0
 11 12  1  0
 12 13  1  0
 13 14  1  0
 14 15  1  0
 15 16  1  0
 16 17  1  0
 17 18  1  0
 18 19  1  0
 19 20  1  0
 20 21  1  0
 20 22  1  0
 22 23  1  0
 22 24  1  0
 24 25  1  0
 24 26  1  0
 26 27  2  0
 26 28  1  0
 28 29  1  0
 29 30  1  0
 30 31  2  0
 31 32  1  0
 32 33  2  0
 33 34  1  0
 34 35  2  0
 24 36  1  0
 36 37  1  0
 37 38  1  0
 38 39  1  0
 39 40  1  0
 40 41  1  0
 20 42  1  0
 42 43  1  0
 42 44  1  0
 42 45  1  0
 35 30  1  0
 41 36  1  0
  1 46  1  0
  1 47  1  0
  1 48  1  0
  2 49  1  0
  2 50  1  0
  3 51  1  0
  3 52  1  0
  4 53  1  0
  4 54  1  0
  5 55  1  0
  5 56  1  0
  6 57  1  0
  6 58  1  0
  7 59  1  0
  7 60  1  0
  8 61  1  0
  8 62  1  0
  9 63  1  0
  9 64  1  0
 10 65  1  0
 10 66  1  0
 11 67  1  0
 11 68  1  0
 12 69  1  0
 12 70  1  0
 13 71  1  0
 13 72  1  0
 14 73  1  0
 14 74  1  0
 15 75  1  0
 15 76  1  0
 16 77  1  0
 16 78  1  0
 17 79  1  0
 17 80  1  0
 18 81  1  0
 18 82  1  0
 21 83  1  0
 22 84  1  0
 23 85  1  0
 25 86  1  0
 29 87  1  0
 29 88  1  0
 31 89  1  0
 32 90  1  0
 33 91  1  0
 34 92  1  0
 35 93  1  0
 36 94  1  0
 37 95  1  0
 37 96  1  0
 38 97  1  0
 38 98  1  0
 39 99  1  0
 39100  1  0
 40101  1  0
 40102  1  0
 41103  1  0
 41104  1  0
M  END
$$$$
[H]OP(=O)(O[H])O[C@@]1([H])C([H])([H])OC([H])([H])C([H])([H])[C@]1([H])N([H])C(=O)C([H])(N([H])[H])C([H])([H])SC(=O)c1c([H])c([H])c([H])c2c([H])c([H])c([H])c([H])c12
     RDKit          3D

 53 55  0  0  0  0  0  0  0  0999 V2000
    4.5783    1.3538   -2.7957 O   0  0  0  0  0  0  0  0  0  0  0  0
    4.7957    2.1859   -1.3558 P   0  0  0  0  0  0  0  0  0  0  0  0
    6.2128    3.1127   -1.5305 O   0  0  0  0  0  0  0  0  0  0  0  0
    3.5942    3.1063   -1.1876 O   0  0  0  0  0  0  0  0  0  0  0  0
    4.9494    1.2118   -0.0094 O   0  0  0  0  0  0  0  0  0  0  0  0
    4.9693   -0.1474   -0.2766 C   0  0  1  0  0  0  0  0  0  0  0  0
    6.2688   -0.6903    0.3136 C   0  0  0  0  0  0  0  0  0  0  0  0
    6.3953   -2.0424    0.0559 O   0  0  0  0  0  0  0  0  0  0  0  0
    5.2186   -2.6958   -0.1885 C   0  0  0  0  0  0  0  0  0  0  0  0
    4.0637   -2.2652    0.6476 C   0  0  0  0  0  0  0  0  0  0  0  0
    3.8479   -0.7743    0.5663 C   0  0  2  0  0  0  0  0  0  0  0  0
    2.5756   -0.4365    0.1326 N   0  0  0  0  0  0  0  0  0  0  0  0
    1.3366   -0.1075   -0.2899 C   0  0  0  0  0  0  0  0  0  0  0  0
    0.7727   -0.4948   -1.3674 O   0  0  0  0  0  0  0  0  0  0  0  0
    0.4238    0.8132    0.5015 C   0  0  0  0  0  0  0  0  0  0  0  0
    0.8895    1.0360    1.8206 N   0  0  0  0  0  0  0  0  0  0  0  0
   -1.0068    0.3447    0.4986 C   0  0  0  0  0  0  0  0  0  0  0  0
   -1.9627    1.5152    1.4465 S   0  0  0  0  0  0  0  0  0  0  0  0
   -3.7113    1.3072    1.3871 C   0  0  0  0  0  0  0  0  0  0  0  0
   -4.4093    2.2019    2.0046 O   0  0  0  0  0  0  0  0  0  0  0  0
   -4.4429    0.2529    0.7205 C   0  0  0  0  0  0  0  0  0  0  0  0
   -4.0668   -1.0655    0.9112 C   0  0  0  0  0  0  0  0  0  0  0  0
   -4.7812   -2.1173    0.3692 C   0  0  0  0  0  0  0  0  0  0  0  0
   -5.9015   -1.8647   -0.3835 C   0  0  0  0  0  0  0  0  0  0  0  0
   -6.2948   -0.5662   -0.5878 C   0  0  0  0  0  0  0  0  0  0  0  0
   -7.4145   -0.3434   -1.3690 C   0  0  0  0  0  0  0  0  0  0  0  0
   -7.8398    0.9274   -1.6259 C   0  0  0  0  0  0  0  0  0  0  0  0
   -7.1169    2.0049   -1.0817 C   0  0  0  0  0  0  0  0  0  0  0  0
   -5.9900    1.7728   -0.2950 C   0  0  0  0  0  0  0  0  0  0  0  0
   -5.5598    0.5066   -0.0313 C   0  0  0  0  0  0  0  0  0  0  0  0
    5.3430    0.8054   -3.0605 H   0  0  0  0  0  0  0  0  0  0  0  0
    5.9801    4.0858   -1.6495 H   0  0  0  0  0  0  0  0  0  0  0  0
    4.8498   -0.4308   -1.3206 H   0  0  0  0  0  0  0  0  0  0  0  0
    6.2221   -0.4794    1.4117 H   0  0  0  0  0  0  0  0  0  0  0  0
    7.1598   -0.1664   -0.0799 H   0  0  0  0  0  0  0  0  0  0  0  0
    5.3474   -3.7982   -0.0832 H   0  0  0  0  0  0  0  0  0  0  0  0
    4.9333   -2.5180   -1.2607 H   0  0  0  0  0  0  0  0  0  0  0  0
    4.1371   -2.6159    1.6996 H   0  0  0  0  0  0  0  0  0  0  0  0
    3.1373   -2.7454    0.2337 H   0  0  0  0  0  0  0  0  0  0  0  0
    4.0288   -0.4306    1.6559 H   0  0  0  0  0  0  0  0  0  0  0  0
    2.7961   -1.1467   -0.9993 H   0  0  0  0  0  0  0  0  0  0  0  0
    0.4687    1.7747   -0.0986 H   0  0  0  0  0  0  0  0  0  0  0  0
    1.1957    0.1088    2.2392 H   0  0  0  0  0  0  0  0  0  0  0  0
    0.0946    1.3481    2.4227 H   0  0  0  0  0  0  0  0  0  0  0  0
   -1.3984    0.3047   -0.5582 H   0  0  0  0  0  0  0  0  0  0  0  0
   -0.9982   -0.6984    0.9321 H   0  0  0  0  0  0  0  0  0  0  0  0
   -3.1774   -1.2411    1.5197 H   0  0  0  0  0  0  0  0  0  0  0  0
   -4.4671   -3.1255    0.5296 H   0  0  0  0  0  0  0  0  0  0  0  0
   -6.4898   -2.6880   -0.8297 H   0  0  0  0  0  0  0  0  0  0  0  0
   -7.9767   -1.1848   -1.7879 H   0  0  0  0  0  0  0  0  0  0  0  0
   -8.7145    1.1447   -2.2344 H   0  0  0  0  0  0  0  0  0  0  0  0
   -7.3998    3.0321   -1.2493 H   0  0  0  0  0  0  0  0  0  0  0  0
   -5.4655    2.6228    0.0770 H   0  0  0  0  0  0  0  0  0  0  0  0
  1  2  1  0
  2  3  1  0
  2  4  2  0
  2  5  1  0
  5  6  1  0
  6  7  1  0
  7  8  1  0
  8  9  1  0
  9 10  1  0
 10 11  1  0
 11 12  1  0
 12 13  1  0
 13 14  2  0
 13 15  1  0
 15 16  1  0
 15 17  1  0
 17 18  1  0
 18 19  1  0
 19 20  2  0
 19 21  1  0
 21 22  2  0
 22 23  1  0
 23 24  2  0
 24 25  1  0
 25 26  2  0
 26 27  1  0
 27 28  2  0
 28 29  1  0
 29 30  2  0
 11  6  1  0
 30 21  1  0
 30 25  1  0
  1 31  1  0
  3 32  1  0
  6 33  1  6
  7 34  1  0
  7 35  1  0
  9 36  1  0
  9 37  1  0
 10 38  1  0
 10 39  1  0
 11 40  1  1
 12 41  1  0
 15 42  1  0
 16 43  1  0
 16 44  1  0
 17 45  1  0
 17 46  1  0
 22 47  1  0
 23 48  1  0
 24 49  1  0
 26 50  1  0
 27 51  1  0
 28 52  1  0
 29 53  1  0
M  END
$$$$
[H]c1nc(OC([H])([H])[H])c([H])c([H])c1-c1nc2c(nc([H])c3nc(-c4c([H])c([H])c([H])c([H])c4[H])n(C([H])([H])c4nc(C(F)(F)F)n(C([H])([H])[H])c4[H])c32)c([H])c1[H]
     RDKit          3D

 58 63  0  0  0  0  0  0  0  0999 V2000
    6.1525   -4.8839    0.5389 C   0  0  0  0  0  0  0  0  0  0  0  0
    4.7988   -4.4996    0.6689 O   0  0  0  0  0  0  0  0  0  0  0  0
    4.4171   -3.1535    0.5365 C   0  0  0  0  0  0  0  0  0  0  0  0
    3.0825   -2.8281    0.6671 C   0  0  0  0  0  0  0  0  0  0  0  0
    2.6614   -1.5128    0.5404 C   0  0  0  0  0  0  0  0  0  0  0  0
    3.5655   -0.4840    0.2819 C   0  0  0  0  0  0  0  0  0  0  0  0
    4.8756   -0.8656    0.1634 C   0  0  0  0  0  0  0  0  0  0  0  0
    5.2866   -2.1704    0.2886 N   0  0  0  0  0  0  0  0  0  0  0  0
    3.1030    0.8918    0.1439 C   0  0  0  0  0  0  0  0  0  0  0  0
    3.9515    1.9325   -0.1863 C   0  0  0  0  0  0  0  0  0  0  0  0
    3.4818    3.2199   -0.3561 C   0  0  0  0  0  0  0  0  0  0  0  0
    2.1259    3.4439   -0.1844 C   0  0  0  0  0  0  0  0  0  0  0  0
    1.6137    4.6496   -0.3629 N   0  0  0  0  0  0  0  0  0  0  0  0
    0.3067    4.8951   -0.2338 C   0  0  0  0  0  0  0  0  0  0  0  0
   -0.5281    3.8668    0.0955 C   0  0  0  0  0  0  0  0  0  0  0  0
   -1.8359    3.8435    0.2690 N   0  0  0  0  0  0  0  0  0  0  0  0
   -2.2585    2.5670    0.5895 C   0  0  0  0  0  0  0  0  0  0  0  0
   -3.6559    2.2360    0.7617 C   0  0  0  0  0  0  0  0  0  0  0  0
   -4.5859    3.2229    0.3892 C   0  0  0  0  0  0  0  0  0  0  0  0
   -5.9445    3.0671    0.5068 C   0  0  0  0  0  0  0  0  0  0  0  0
   -6.4434    1.8835    1.0164 C   0  0  0  0  0  0  0  0  0  0  0  0
   -5.5992    0.9062    1.3900 C   0  0  0  0  0  0  0  0  0  0  0  0
   -4.2094    1.1010    1.2540 C   0  0  0  0  0  0  0  0  0  0  0  0
   -1.1699    1.8020    0.6098 N   0  0  0  0  0  0  0  0  0  0  0  0
   -1.0244    0.4126    0.9248 C   0  0  0  0  0  0  0  0  0  0  0  0
   -1.2138   -0.4951   -0.2259 C   0  0  0  0  0  0  0  0  0  0  0  0
   -1.7503   -1.7842   -0.1114 C   0  0  0  0  0  0  0  0  0  0  0  0
   -1.8149   -2.3638   -1.3166 N   0  0  0  0  0  0  0  0  0  0  0  0
   -2.3032   -3.7140   -1.6132 C   0  0  0  0  0  0  0  0  0  0  0  0
   -1.3298   -1.4686   -2.2003 C   0  0  0  0  0  0  0  0  0  0  0  0
   -0.9700   -0.3490   -1.5367 N   0  0  0  0  0  0  0  0  0  0  0  0
   -1.2267   -1.6985   -3.6866 C   0  0  0  0  0  0  0  0  0  0  0  0
   -0.9194   -2.9862   -3.9794 F   0  0  0  0  0  0  0  0  0  0  0  0
   -0.3661   -0.7702   -4.2505 F   0  0  0  0  0  0  0  0  0  0  0  0
   -2.4869   -1.4561   -4.2603 F   0  0  0  0  0  0  0  0  0  0  0  0
   -0.0836    2.6033    0.2976 C   0  0  0  0  0  0  0  0  0  0  0  0
    1.2740    2.3774    0.1529 C   0  0  0  0  0  0  0  0  0  0  0  0
    1.7893    1.1557    0.3024 N   0  0  0  0  0  0  0  0  0  0  0  0
    6.3454   -5.6142    1.3789 H   0  0  0  0  0  0  0  0  0  0  0  0
    6.8466   -4.0406    0.6231 H   0  0  0  0  0  0  0  0  0  0  0  0
    6.2983   -5.4505   -0.3905 H   0  0  0  0  0  0  0  0  0  0  0  0
    2.3493   -3.6100    0.8702 H   0  0  0  0  0  0  0  0  0  0  0  0
    1.6393   -1.2250    0.6305 H   0  0  0  0  0  0  0  0  0  0  0  0
    5.6360   -0.1187   -0.0447 H   0  0  0  0  0  0  0  0  0  0  0  0
    4.9996    1.7024   -0.3094 H   0  0  0  0  0  0  0  0  0  0  0  0
    4.1728    4.0208   -0.6219 H   0  0  0  0  0  0  0  0  0  0  0  0
   -0.0729    5.9146   -0.3981 H   0  0  0  0  0  0  0  0  0  0  0  0
   -4.2408    4.1705   -0.0229 H   0  0  0  0  0  0  0  0  0  0  0  0
   -6.6488    3.8238    0.2169 H   0  0  0  0  0  0  0  0  0  0  0  0
   -7.5331    1.7755    1.1004 H   0  0  0  0  0  0  0  0  0  0  0  0
   -5.9685   -0.0286    1.7912 H   0  0  0  0  0  0  0  0  0  0  0  0
   -3.6115    0.2893    1.5662 H   0  0  0  0  0  0  0  0  0  0  0  0
   -0.0161    0.2060    1.4096 H   0  0  0  0  0  0  0  0  0  0  0  0
   -1.6865    0.0983    1.7428 H   0  0  0  0  0  0  0  0  0  0  0  0
   -2.0681   -2.2399    0.8429 H   0  0  0  0  0  0  0  0  0  0  0  0
   -1.4598   -4.3520   -1.9870 H   0  0  0  0  0  0  0  0  0  0  0  0
   -2.5901   -4.1805   -0.6438 H   0  0  0  0  0  0  0  0  0  0  0  0
   -3.1572   -3.7351   -2.2806 H   0  0  0  0  0  0  0  0  0  0  0  0
  1  2  1  0
  2  3  1  0
  3  4  2  0
  4  5  1  0
  5  6  2  0
  6  7  1  0
  7  8  2  0
  6  9  1  0
  9 10  2  0
 10 11  1  0
 11 12  2  0
 12 13  1  0
 13 14  2  0
 14 15  1  0
 15 16  1  0
 16 17  2  0
 17 18  1  0
 18 19  2  0
 19 20  1  0
 20 21  2  0
 21 22  1  0
 22 23  2  0
 17 24  1  0
 24 25  1  0
 25 26  1  0
 26 27  2  0
 27 28  1  0
 28 29  1  0
 28 30  1  0
 30 31  2  0
 30 32  1  0
 32 33  1  0
 32 34  1  0
 32 35  1  0
 24 36  1  0
 36 37  1  0
 37 38  2  0
  8  3  1  0
 38  9  1  0
 37 12  1  0
 36 15  2  0
 23 18  1  0
 31 26  1  0
  1 39  1  0
  1 40  1  0
  1 41  1  0
  4 42  1  0
  5 43  1  0
  7 44  1  0
 10 45  1  0
 11 46  1  0
 14 47  1  0
 19 48  1  0
 20 49  1  0
 21 50  1  0
 22 51  1  0
 23 52  1  0
 25 53  1  0
 25 54  1  0
 27 55  1  0
 29 56  1  0
 29 57  1  0
 29 58  1  0
M  END
$$$$
[H]C#CC([H])([H])[C@]1([H])[C@]2([H])[C@@]([H])(C([H])([H])C(O[H])(C([H])([H])[H])C([H])([H])[H])[C@]2([H])C([H])([H])[C@@]([H])(C([H])([H])OS(=O)OC([H])([H])C([H])(C([H])([H])[H])C([H])([H])[H])[C@]1([H])F
     RDKit          3D

 56 57  0  0  0  0  0  0  0  0999 V2000
    7.2146    0.9223   -0.8002 C   0  0  0  0  0  0  0  0  0  0  0  0
    6.3770    0.2746    0.1886 C   0  0  0  0  0  0  0  0  0  0  0  0
    6.8832   -0.7806    1.0735 C   0  0  0  0  0  0  0  0  0  0  0  0
    5.3456    1.2163    0.8519 C   0  0  0  0  0  0  0  0  0  0  0  0
    4.9378    0.3057    1.8265 O   0  0  0  0  0  0  0  0  0  0  0  0
    3.3062    0.2156    1.8963 S   0  0  0  0  0  0  0  0  0  0  0  0
    3.1011   -1.3726    2.1006 O   0  0  0  0  0  0  0  0  0  0  0  0
    2.7427    0.3834    0.1204 O   0  0  0  0  0  0  0  0  0  0  0  0
    1.7345   -0.5428    0.2260 C   0  0  0  0  0  0  0  0  0  0  0  0
    0.3596    0.0342    0.0936 C   0  0  2  0  0  0  0  0  0  0  0  0
   -0.4269   -0.9787    0.9465 C   0  0  0  0  0  0  0  0  0  0  0  0
   -1.8645   -0.8185    0.9798 C   0  0  1  0  0  0  0  0  0  0  0  0
   -2.5639    0.4344    0.5355 C   0  0  2  0  0  0  0  0  0  0  0  0
   -3.7411    0.9038    1.2876 C   0  0  0  0  0  0  0  0  0  0  0  0
   -4.9504    1.0713    0.3981 C   0  0  0  0  0  0  0  0  0  0  0  0
   -4.6512    1.7670   -0.8785 C   0  0  0  0  0  0  0  0  0  0  0  0
   -5.8820   -0.0674    0.3601 C   0  0  0  0  0  0  0  0  0  0  0  0
   -5.7117    2.1026    1.1247 O   0  0  0  0  0  0  0  0  0  0  0  0
   -2.4951   -0.7043   -0.3551 C   0  0  1  0  0  0  0  0  0  0  0  0
   -1.4246   -0.8001   -1.4205 C   0  0  1  0  0  0  0  0  0  0  0  0
   -2.0284   -0.7088   -2.8002 C   0  0  0  0  0  0  0  0  0  0  0  0
   -2.9049   -1.8696   -2.9284 C   0  0  0  0  0  0  0  0  0  0  0  0
   -3.6404   -2.8132   -2.9944 C   0  0  0  0  0  0  0  0  0  0  0  0
   -0.2282    0.0700   -1.2753 C   0  0  1  0  0  0  0  0  0  0  0  0
   -0.5208    1.3998   -1.6694 F   0  0  0  0  0  0  0  0  0  0  0  0
    6.7412    1.8411   -1.2167 H   0  0  0  0  0  0  0  0  0  0  0  0
    8.1166    1.3092   -0.1925 H   0  0  0  0  0  0  0  0  0  0  0  0
    7.5886    0.2454   -1.5821 H   0  0  0  0  0  0  0  0  0  0  0  0
    5.5667   -0.3470   -0.5040 H   0  0  0  0  0  0  0  0  0  0  0  0
    7.7802   -1.2769    0.6470 H   0  0  0  0  0  0  0  0  0  0  0  0
    7.0695   -0.3819    2.1076 H   0  0  0  0  0  0  0  0  0  0  0  0
    6.1354   -1.6299    1.2358 H   0  0  0  0  0  0  0  0  0  0  0  0
    5.8427    2.0832    1.2737 H   0  0  0  0  0  0  0  0  0  0  0  0
    4.5407    1.4805    0.1893 H   0  0  0  0  0  0  0  0  0  0  0  0
    1.8307   -1.0717   -0.9209 H   0  0  0  0  0  0  0  0  0  0  0  0
    1.9390   -1.4185    0.7600 H   0  0  0  0  0  0  0  0  0  0  0  0
    0.3873    1.0359    0.5201 H   0  0  0  0  0  0  0  0  0  0  0  0
   -0.0205   -1.9471    0.8424 H   0  0  0  0  0  0  0  0  0  0  0  0
   -0.0461   -0.6402    2.0154 H   0  0  0  0  0  0  0  0  0  0  0  0
   -2.3813   -1.4709    1.7218 H   0  0  0  0  0  0  0  0  0  0  0  0
   -1.7898    1.2850    0.4221 H   0  0  0  0  0  0  0  0  0  0  0  0
   -4.0987    0.0355    1.9899 H   0  0  0  0  0  0  0  0  0  0  0  0
   -3.5665    1.7068    1.9924 H   0  0  0  0  0  0  0  0  0  0  0  0
   -5.4118    2.4543   -1.2205 H   0  0  0  0  0  0  0  0  0  0  0  0
   -3.6399    2.2209   -0.9413 H   0  0  0  0  0  0  0  0  0  0  0  0
   -4.6851    0.9225   -1.6784 H   0  0  0  0  0  0  0  0  0  0  0  0
   -6.9686    0.2579    0.4961 H   0  0  0  0  0  0  0  0  0  0  0  0
   -5.7198   -0.6965    1.2773 H   0  0  0  0  0  0  0  0  0  0  0  0
   -5.8346   -0.6881   -0.5608 H   0  0  0  0  0  0  0  0  0  0  0  0
   -6.2953    2.5314    0.4620 H   0  0  0  0  0  0  0  0  0  0  0  0
   -3.4286   -1.2312   -0.5857 H   0  0  0  0  0  0  0  0  0  0  0  0
   -1.0457   -1.8662   -1.3497 H   0  0  0  0  0  0  0  0  0  0  0  0
   -2.6143    0.2492   -2.9290 H   0  0  0  0  0  0  0  0  0  0  0  0
   -1.2317   -0.7182   -3.5591 H   0  0  0  0  0  0  0  0  0  0  0  0
   -4.2279   -3.6643   -3.0004 H   0  0  0  0  0  0  0  0  0  0  0  0
    0.4993   -0.2547   -2.0525 H   0  0  0  0  0  0  0  0  0  0  0  0
  1  2  1  0
  2  3  1  0
  2  4  1  0
  4  5  1  0
  5  6  1  0
  6  7  2  0
  6  8  1  0
  8  9  1  0
  9 10  1  0
 10 11  1  0
 11 12  1  0
 12 13  1  0
 13 14  1  0
 14 15  1  0
 15 16  1  0
 15 17  1  0
 15 18  1  0
 13 19  1  0
 19 20  1  0
 20 21  1  0
 21 22  1  0
 22 23  3  0
 20 24  1  0
 24 25  1  0
 24 10  1  0
 19 12  1  0
  1 26  1  0
  1 27  1  0
  1 28  1  0
  2 29  1  0
  3 30  1  0
  3 31  1  0
  3 32  1  0
  4 33  1  0
  4 34  1  0
  9 35  1  0
  9 36  1  0
 10 37  1  1
 11 38  1  0
 11 39  1  0
 12 40  1  1
 13 41  1  6
 14 42  1  0
 14 43  1  0
 16 44  1  0
 16 45  1  0
 16 46  1  0
 17 47  1  0
 17 48  1  0
 17 49  1  0
 18 50  1  0
 19 51  1  6
 20 52  1  6
 21 53  1  0
 21 54  1  0
 23 55  1  0
 24 56  1  6
M  END
$$$$
[H]C#Cc1c([H])c([H])c(C(=O)N([H])c2c(OC([H])([H])C([H])([H])C([H])([H])OC([H])([H])[H])nc(N3C([H])([H])C([H])([H])C([H])(C([H])([H])c4noc(C([H])([H])[H])n4)C([H])([H])C3([H])[H])c([H])c2[H])c([H])c1[H]
     RDKit          3D

 67 70  0  0  0  0  0  0  0  0999 V2000
    2.1430   -6.3062    0.8223 C   0  0  0  0  0  0  0  0  0  0  0  0
    2.3234   -4.9966    0.4486 O   0  0  0  0  0  0  0  0  0  0  0  0
    3.1983   -4.3506    1.3192 C   0  0  0  0  0  0  0  0  0  0  0  0
    3.4244   -2.9179    0.9495 C   0  0  0  0  0  0  0  0  0  0  0  0
    2.1303   -2.1252    0.9638 C   0  0  0  0  0  0  0  0  0  0  0  0
    2.3591   -0.7718    0.6124 O   0  0  0  0  0  0  0  0  0  0  0  0
    1.3270    0.1594    0.5538 C   0  0  0  0  0  0  0  0  0  0  0  0
    0.0591   -0.1631    0.8244 N   0  0  0  0  0  0  0  0  0  0  0  0
   -0.9575    0.7132    0.7761 C   0  0  0  0  0  0  0  0  0  0  0  0
   -0.6391    1.9947    0.4278 C   0  0  0  0  0  0  0  0  0  0  0  0
    0.6776    2.3729    0.1368 C   0  0  0  0  0  0  0  0  0  0  0  0
    1.6992    1.4698    0.1905 C   0  0  0  0  0  0  0  0  0  0  0  0
    3.0512    1.7627   -0.0857 N   0  0  0  0  0  0  0  0  0  0  0  0
    3.6270    2.9756   -0.4570 C   0  0  0  0  0  0  0  0  0  0  0  0
    2.9347    4.0284   -0.6001 O   0  0  0  0  0  0  0  0  0  0  0  0
    5.0715    3.0862   -0.7013 C   0  0  0  0  0  0  0  0  0  0  0  0
    5.9149    2.1813   -0.1279 C   0  0  0  0  0  0  0  0  0  0  0  0
    7.2991    2.2375   -0.3357 C   0  0  0  0  0  0  0  0  0  0  0  0
    7.8062    3.2325   -1.1378 C   0  0  0  0  0  0  0  0  0  0  0  0
    6.9586    4.1510   -1.7206 C   0  0  0  0  0  0  0  0  0  0  0  0
    5.5937    4.0786   -1.5032 C   0  0  0  0  0  0  0  0  0  0  0  0
    9.2229    3.3567   -1.4003 C   0  0  0  0  0  0  0  0  0  0  0  0
   10.4110    3.4547   -1.6061 C   0  0  0  0  0  0  0  0  0  0  0  0
   -2.2984    0.3088    1.0762 N   0  0  0  0  0  0  0  0  0  0  0  0
   -2.5661   -1.0834    1.4203 C   0  0  0  0  0  0  0  0  0  0  0  0
   -3.4658   -1.6208    0.3455 C   0  0  0  0  0  0  0  0  0  0  0  0
   -4.6721   -0.7269    0.1797 C   0  0  0  0  0  0  0  0  0  0  0  0
   -5.5671   -1.2452   -0.9046 C   0  0  0  0  0  0  0  0  0  0  0  0
   -6.7424   -0.3533   -1.0496 C   0  0  0  0  0  0  0  0  0  0  0  0
   -6.9005    0.7220   -1.8407 N   0  0  0  0  0  0  0  0  0  0  0  0
   -8.1021    1.2279   -1.6605 O   0  0  0  0  0  0  0  0  0  0  0  0
   -8.7569    0.5320   -0.7775 C   0  0  0  0  0  0  0  0  0  0  0  0
  -10.1454    0.7956   -0.3098 C   0  0  0  0  0  0  0  0  0  0  0  0
   -7.9306   -0.4543   -0.3857 N   0  0  0  0  0  0  0  0  0  0  0  0
   -4.3521    0.7079   -0.0576 C   0  0  0  0  0  0  0  0  0  0  0  0
   -3.4296    1.1897    1.0644 C   0  0  0  0  0  0  0  0  0  0  0  0
    1.7217   -6.3217    1.8447 H   0  0  0  0  0  0  0  0  0  0  0  0
    3.0540   -6.9131    0.8127 H   0  0  0  0  0  0  0  0  0  0  0  0
    1.3893   -6.7898    0.1656 H   0  0  0  0  0  0  0  0  0  0  0  0
    4.1687   -4.8818    1.2459 H   0  0  0  0  0  0  0  0  0  0  0  0
    2.8181   -4.4853    2.3380 H   0  0  0  0  0  0  0  0  0  0  0  0
    3.8831   -2.9114   -0.0760 H   0  0  0  0  0  0  0  0  0  0  0  0
    4.1789   -2.4899    1.6225 H   0  0  0  0  0  0  0  0  0  0  0  0
    1.7003   -2.2200    1.9800 H   0  0  0  0  0  0  0  0  0  0  0  0
    1.4557   -2.5917    0.2455 H   0  0  0  0  0  0  0  0  0  0  0  0
   -1.3796    2.7617    0.3618 H   0  0  0  0  0  0  0  0  0  0  0  0
    0.8594    3.4214   -0.1360 H   0  0  0  0  0  0  0  0  0  0  0  0
    3.7438    0.9420   -0.0095 H   0  0  0  0  0  0  0  0  0  0  0  0
    5.5824    1.3745    0.5219 H   0  0  0  0  0  0  0  0  0  0  0  0
    7.9696    1.5194    0.1189 H   0  0  0  0  0  0  0  0  0  0  0  0
    7.3810    4.9321   -2.3529 H   0  0  0  0  0  0  0  0  0  0  0  0
    4.9022    4.7846   -1.9463 H   0  0  0  0  0  0  0  0  0  0  0  0
   11.4376    3.5273   -1.7772 H   0  0  0  0  0  0  0  0  0  0  0  0
   -3.1626   -1.0813    2.3739 H   0  0  0  0  0  0  0  0  0  0  0  0
   -1.6622   -1.6739    1.5603 H   0  0  0  0  0  0  0  0  0  0  0  0
   -2.9140   -1.5942   -0.6194 H   0  0  0  0  0  0  0  0  0  0  0  0
   -3.8231   -2.6321    0.5664 H   0  0  0  0  0  0  0  0  0  0  0  0
   -5.2622   -0.7778    1.1411 H   0  0  0  0  0  0  0  0  0  0  0  0
   -5.9271   -2.2470   -0.5865 H   0  0  0  0  0  0  0  0  0  0  0  0
   -5.0370   -1.2815   -1.8777 H   0  0  0  0  0  0  0  0  0  0  0  0
  -10.4145   -0.0003    0.4091 H   0  0  0  0  0  0  0  0  0  0  0  0
  -10.8302    0.8477   -1.1770 H   0  0  0  0  0  0  0  0  0  0  0  0
  -10.1980    1.7556    0.2457 H   0  0  0  0  0  0  0  0  0  0  0  0
   -3.8643    0.8449   -1.0226 H   0  0  0  0  0  0  0  0  0  0  0  0
   -5.2851    1.2930    0.0769 H   0  0  0  0  0  0  0  0  0  0  0  0
   -3.9731    1.0134    2.0415 H   0  0  0  0  0  0  0  0  0  0  0  0
   -3.2190    2.2515    0.9908 H   0  0  0  0  0  0  0  0  0  0  0  0
  1  2  1  0
  2  3  1  0
  3  4  1  0
  4  5  1  0
  5  6  1  0
  6  7  1  0
  7  8  2  0
  8  9  1  0
  9 10  2  0
 10 11  1  0
 11 12  2  0
 12 13  1  0
 13 14  1  0
 14 15  2  0
 14 16  1  0
 16 17  2  0
 17 18  1  0
 18 19  2  0
 19 20  1  0
 20 21  2  0
 19 22  1  0
 22 23  3  0
  9 24  1  0
 24 25  1  0
 25 26  1  0
 26 27  1  0
 27 28  1  0
 28 29  1  0
 29 30  2  0
 30 31  1  0
 31 32  1  0
 32 33  1  0
 32 34  2  0
 27 35  1  0
 35 36  1  0
 12  7  1  0
 21 16  1  0
 36 24  1  0
 34 29  1  0
  1 37  1  0
  1 38  1  0
  1 39  1  0
  3 40  1  0
  3 41  1  0
  4 42  1  0
  4 43  1  0
  5 44  1  0
  5 45  1  0
 10 46  1  0
 11 47  1  0
 13 48  1  0
 17 49  1  0
 18 50  1  0
 20 51  1  0
 21 52  1  0
 23 53  1  0
 25 54  1  0
 25 55  1  0
 26 56  1  0
 26 57  1  0
 27 58  1  0
 28 59  1  0
 28 60  1  0
 33 61  1  0
 33 62  1  0
 33 63  1  0
 35 64  1  0
 35 65  1  0
 36 66  1  0
 36 67  1  0
M  END
$$$$
[H]N=C(N([H])[H])N([H])C([H])([H])C([H])([H])C([H])([H])[C@@]([H])(C(=O)N([H])[C@@]1([H])C([H])([H])C([H])([H])C([H])([H])[C@@]1([H])C(=O)N([H])c1nc([H])c([H])s1)N([H])C(=O)C([H])([H])C([H])([H])C(=O)N1C([H])([H])C([H])=C(Oc2c([H])c([H])c([H])c([H])c2[H])C([H])([H])C1([H])[H]
     RDKit          3D

 84 87  0  0  0  0  0  0  0  0999 V2000
   -3.7981   -7.0175   -0.1953 N   0  0  0  0  0  0  0  0  0  0  0  0
   -4.3354   -5.7166   -0.0878 C   0  0  0  0  0  0  0  0  0  0  0  0
   -5.6061   -5.5653   -0.0058 N   0  0  0  0  0  0  0  0  0  0  0  0
   -3.4764   -4.5937   -0.0627 N   0  0  0  0  0  0  0  0  0  0  0  0
   -2.9923   -4.0066   -1.2892 C   0  0  0  0  0  0  0  0  0  0  0  0
   -2.0879   -2.8378   -0.9710 C   0  0  0  0  0  0  0  0  0  0  0  0
   -2.8532   -1.7948   -0.2130 C   0  0  0  0  0  0  0  0  0  0  0  0
   -1.9305   -0.6062    0.1413 C   0  0  2  0  0  0  0  0  0  0  0  0
   -0.8362   -1.1053    0.9656 N   0  0  0  0  0  0  0  0  0  0  0  0
    0.5106   -0.9838    0.5557 C   0  0  0  0  0  0  0  0  0  0  0  0
    0.7277   -0.4138   -0.5738 O   0  0  0  0  0  0  0  0  0  0  0  0
    1.6845   -1.4490    1.3001 C   0  0  0  0  0  0  0  0  0  0  0  0
    2.9742   -1.1679    0.5157 C   0  0  0  0  0  0  0  0  0  0  0  0
    4.1211   -1.6589    1.3095 C   0  0  0  0  0  0  0  0  0  0  0  0
    3.9833   -2.1971    2.4327 O   0  0  0  0  0  0  0  0  0  0  0  0
    5.4488   -1.5118    0.7672 N   0  0  0  0  0  0  0  0  0  0  0  0
    5.5895   -0.8795   -0.5266 C   0  0  0  0  0  0  0  0  0  0  0  0
    6.8188   -1.3964   -1.2185 C   0  0  0  0  0  0  0  0  0  0  0  0
    7.9646   -1.1165   -0.3033 C   0  0  0  0  0  0  0  0  0  0  0  0
    7.8166   -1.4116    0.9661 C   0  0  0  0  0  0  0  0  0  0  0  0
    6.5818   -2.0016    1.5219 C   0  0  0  0  0  0  0  0  0  0  0  0
    9.1089   -0.5607   -0.8692 O   0  0  0  0  0  0  0  0  0  0  0  0
    9.4852    0.7326   -0.6034 C   0  0  0  0  0  0  0  0  0  0  0  0
   10.6440    1.1958   -1.2205 C   0  0  0  0  0  0  0  0  0  0  0  0
   11.0677    2.4860   -0.9885 C   0  0  0  0  0  0  0  0  0  0  0  0
   10.3822    3.3470   -0.1598 C   0  0  0  0  0  0  0  0  0  0  0  0
    9.2281    2.8915    0.4573 C   0  0  0  0  0  0  0  0  0  0  0  0
    8.8206    1.5975    0.2125 C   0  0  0  0  0  0  0  0  0  0  0  0
   -2.7500    0.4150    0.8394 C   0  0  0  0  0  0  0  0  0  0  0  0
   -2.7816    0.3696    2.1020 O   0  0  0  0  0  0  0  0  0  0  0  0
   -3.4806    1.4210    0.1488 N   0  0  0  0  0  0  0  0  0  0  0  0
   -4.2473    2.3650    0.8531 C   0  0  1  0  0  0  0  0  0  0  0  0
   -3.5133    3.7032    1.0598 C   0  0  0  0  0  0  0  0  0  0  0  0
   -4.5862    4.7304    1.1825 C   0  0  0  0  0  0  0  0  0  0  0  0
   -5.8816    3.9669    1.1794 C   0  0  0  0  0  0  0  0  0  0  0  0
   -5.5697    2.7720    0.2441 C   0  0  1  0  0  0  0  0  0  0  0  0
   -5.4803    3.2280   -1.1416 C   0  0  0  0  0  0  0  0  0  0  0  0
   -4.3331    3.4916   -1.6797 O   0  0  0  0  0  0  0  0  0  0  0  0
   -6.5698    3.4243   -1.9961 N   0  0  0  0  0  0  0  0  0  0  0  0
   -7.9548    3.1937   -1.6857 C   0  0  0  0  0  0  0  0  0  0  0  0
   -8.5359    2.7455   -0.5854 N   0  0  0  0  0  0  0  0  0  0  0  0
   -9.8160    2.6141   -0.5185 C   0  0  0  0  0  0  0  0  0  0  0  0
  -10.5554    2.9552   -1.6286 C   0  0  0  0  0  0  0  0  0  0  0  0
   -9.3288    3.4499   -2.7068 S   0  0  0  0  0  0  0  0  0  0  0  0
   -3.4688   -7.5057    0.6536 H   0  0  0  0  0  0  0  0  0  0  0  0
   -3.7299   -7.4847   -1.1100 H   0  0  0  0  0  0  0  0  0  0  0  0
   -6.2192   -6.4010   -0.0195 H   0  0  0  0  0  0  0  0  0  0  0  0
   -3.1831   -4.1812    0.8458 H   0  0  0  0  0  0  0  0  0  0  0  0
   -3.8372   -3.6969   -1.9711 H   0  0  0  0  0  0  0  0  0  0  0  0
   -2.4130   -4.7734   -1.8754 H   0  0  0  0  0  0  0  0  0  0  0  0
   -1.6397   -2.3868   -1.8706 H   0  0  0  0  0  0  0  0  0  0  0  0
   -1.2429   -3.2603   -0.3621 H   0  0  0  0  0  0  0  0  0  0  0  0
   -3.6693   -1.4295   -0.8726 H   0  0  0  0  0  0  0  0  0  0  0  0
   -3.3042   -2.1746    0.7203 H   0  0  0  0  0  0  0  0  0  0  0  0
   -1.5311   -0.1912   -0.7795 H   0  0  0  0  0  0  0  0  0  0  0  0
   -1.0819   -1.5577    1.8671 H   0  0  0  0  0  0  0  0  0  0  0  0
    1.7966   -0.8989    2.2738 H   0  0  0  0  0  0  0  0  0  0  0  0
    1.7000   -2.5394    1.4999 H   0  0  0  0  0  0  0  0  0  0  0  0
    2.9403   -1.7748   -0.4225 H   0  0  0  0  0  0  0  0  0  0  0  0
    3.0886   -0.1043    0.3048 H   0  0  0  0  0  0  0  0  0  0  0  0
    4.6735   -1.0082   -1.1319 H   0  0  0  0  0  0  0  0  0  0  0  0
    5.7309    0.2181   -0.4069 H   0  0  0  0  0  0  0  0  0  0  0  0
    6.9575   -0.8818   -2.1927 H   0  0  0  0  0  0  0  0  0  0  0  0
    6.7389   -2.4914   -1.3217 H   0  0  0  0  0  0  0  0  0  0  0  0
    8.6583   -1.2058    1.6410 H   0  0  0  0  0  0  0  0  0  0  0  0
    6.4503   -1.7451    2.5998 H   0  0  0  0  0  0  0  0  0  0  0  0
    6.6592   -3.1016    1.3726 H   0  0  0  0  0  0  0  0  0  0  0  0
   11.2003    0.5359   -1.8787 H   0  0  0  0  0  0  0  0  0  0  0  0
   11.9670    2.8363   -1.4714 H   0  0  0  0  0  0  0  0  0  0  0  0
   10.7532    4.3326   -0.0168 H   0  0  0  0  0  0  0  0  0  0  0  0
    8.7266    3.5920    1.0922 H   0  0  0  0  0  0  0  0  0  0  0  0
    7.9066    1.2463    0.7052 H   0  0  0  0  0  0  0  0  0  0  0  0
   -3.4161    1.4182   -0.8843 H   0  0  0  0  0  0  0  0  0  0  0  0
   -4.4700    2.0513    1.9213 H   0  0  0  0  0  0  0  0  0  0  0  0
   -2.9241    3.6849    2.0019 H   0  0  0  0  0  0  0  0  0  0  0  0
   -2.8595    3.9450    0.2055 H   0  0  0  0  0  0  0  0  0  0  0  0
   -4.5871    5.3992    0.2836 H   0  0  0  0  0  0  0  0  0  0  0  0
   -4.4825    5.3483    2.1006 H   0  0  0  0  0  0  0  0  0  0  0  0
   -6.1480    3.5425    2.1693 H   0  0  0  0  0  0  0  0  0  0  0  0
   -6.6442    4.6263    0.7706 H   0  0  0  0  0  0  0  0  0  0  0  0
   -6.3420    2.0107    0.3671 H   0  0  0  0  0  0  0  0  0  0  0  0
   -6.4304    3.7669   -3.0036 H   0  0  0  0  0  0  0  0  0  0  0  0
  -10.3282    2.2383    0.3970 H   0  0  0  0  0  0  0  0  0  0  0  0
  -11.6528    2.8982   -1.7257 H   0  0  0  0  0  0  0  0  0  0  0  0
  1  2  1  0
  2  3  2  3
  2  4  1  0
  4  5  1  0
  5  6  1  0
  6  7  1  0
  7  8  1  0
  8  9  1  0
  9 10  1  0
 10 11  2  0
 10 12  1  0
 12 13  1  0
 13 14  1  0
 14 15  2  0
 14 16  1  0
 16 17  1  0
 17 18  1  0
 18 19  1  0
 19 20  2  0
 20 21  1  0
 19 22  1  0
 22 23  1  0
 23 24  2  0
 24 25  1  0
 25 26  2  0
 26 27  1  0
 27 28  2  0
  8 29  1  0
 29 30  2  0
 29 31  1  0
 31 32  1  0
 32 33  1  0
 33 34  1  0
 34 35  1  0
 35 36  1  0
 36 37  1  0
 37 38  2  0
 37 39  1  0
 39 40  1  0
 40 41  2  0
 41 42  1  0
 42 43  2  0
 43 44  1  0
 21 16  1  0
 28 23  1  0
 36 32  1  0
 44 40  1  0
  1 45  1  0
  1 46  1  0
  3 47  1  0
  4 48  1  0
  5 49  1  0
  5 50  1  0
  6 51  1  0
  6 52  1  0
  7 53  1  0
  7 54  1  0
  8 55  1  6
  9 56  1  0
 12 57  1  0
 12 58  1  0
 13 59  1  0
 13 60  1  0
 17 61  1  0
 17 62  1  0
 18 63  1  0
 18 64  1  0
 20 65  1  0
 21 66  1  0
 21 67  1  0
 24 68  1  0
 25 69  1  0
 26 70  1  0
 27 71  1  0
 28 72  1  0
 31 73  1  0
 32 74  1  1
 33 75  1  0
 33 76  1  0
 34 77  1  0
 34 78  1  0
 35 79  1  0
 35 80  1  0
 36 81  1  6
 39 82  1  0
 42 83  1  0
 43 84  1  0
M  END
$$$$
[H]ON([H])C(=O)C1(S(=O)(=O)c2c([H])c([H])c(F)c([H])c2[H])C([H])([H])C([H])([H])N(S(=O)(=O)C([H])([H])[H])C([H])([H])C1([H])[H]
     RDKit          3D

 41 42  0  0  0  0  0  0  0  0999 V2000
    4.7166    0.5858    2.0382 C   0  0  0  0  0  0  0  0  0  0  0  0
    4.1570    1.0840    0.4228 S   0  0  0  0  0  0  0  0  0  0  0  0
    5.2747    1.1458   -0.5562 O   0  0  0  0  0  0  0  0  0  0  0  0
    3.5734    2.4783    0.5909 O   0  0  0  0  0  0  0  0  0  0  0  0
    2.9511   -0.0314   -0.0743 N   0  0  0  0  0  0  0  0  0  0  0  0
    1.8324    0.0133    0.8479 C   0  0  0  0  0  0  0  0  0  0  0  0
    0.6647   -0.6874    0.2092 C   0  0  0  0  0  0  0  0  0  0  0  0
    0.0484    0.1049   -0.9198 C   0  0  0  0  0  0  0  0  0  0  0  0
    1.1993    0.9818   -1.4545 C   0  0  0  0  0  0  0  0  0  0  0  0
    2.5050    0.2119   -1.4394 C   0  0  0  0  0  0  0  0  0  0  0  0
   -0.4096   -0.7563   -2.0116 C   0  0  0  0  0  0  0  0  0  0  0  0
   -0.0376   -0.5079   -3.2066 O   0  0  0  0  0  0  0  0  0  0  0  0
   -1.2628   -1.8762   -1.8179 N   0  0  0  0  0  0  0  0  0  0  0  0
   -1.6613   -2.6375   -2.8566 O   0  0  0  0  0  0  0  0  0  0  0  0
   -1.2099    1.2215   -0.4192 S   0  0  0  0  0  0  0  0  0  0  0  0
   -1.6601    1.9476   -1.6821 O   0  0  0  0  0  0  0  0  0  0  0  0
   -0.6939    2.3018    0.4906 O   0  0  0  0  0  0  0  0  0  0  0  0
   -2.5686    0.4539    0.3601 C   0  0  0  0  0  0  0  0  0  0  0  0
   -2.5880    0.1892    1.7175 C   0  0  0  0  0  0  0  0  0  0  0  0
   -3.6663   -0.4082    2.3347 C   0  0  0  0  0  0  0  0  0  0  0  0
   -4.7826   -0.7694    1.6098 C   0  0  0  0  0  0  0  0  0  0  0  0
   -5.8453   -1.3606    2.2304 F   0  0  0  0  0  0  0  0  0  0  0  0
   -4.7833   -0.5143    0.2555 C   0  0  0  0  0  0  0  0  0  0  0  0
   -3.7029    0.0835   -0.3585 C   0  0  0  0  0  0  0  0  0  0  0  0
    3.8430    0.1488    2.5637 H   0  0  0  0  0  0  0  0  0  0  0  0
    5.0302    1.4763    2.6038 H   0  0  0  0  0  0  0  0  0  0  0  0
    5.5352   -0.1488    1.8975 H   0  0  0  0  0  0  0  0  0  0  0  0
    2.1114   -0.5636    1.7477 H   0  0  0  0  0  0  0  0  0  0  0  0
    1.6168    1.0451    1.1571 H   0  0  0  0  0  0  0  0  0  0  0  0
    1.0622   -1.6281   -0.2454 H   0  0  0  0  0  0  0  0  0  0  0  0
   -0.1290   -0.9227    0.9346 H   0  0  0  0  0  0  0  0  0  0  0  0
    1.2586    1.9326   -0.8923 H   0  0  0  0  0  0  0  0  0  0  0  0
    0.9634    1.1968   -2.5098 H   0  0  0  0  0  0  0  0  0  0  0  0
    3.2516    0.8266   -1.9419 H   0  0  0  0  0  0  0  0  0  0  0  0
    2.3367   -0.7296   -1.9827 H   0  0  0  0  0  0  0  0  0  0  0  0
   -1.6167   -2.1705   -0.8821 H   0  0  0  0  0  0  0  0  0  0  0  0
   -2.5454   -3.0521   -2.7251 H   0  0  0  0  0  0  0  0  0  0  0  0
   -1.6929    0.4844    2.2692 H   0  0  0  0  0  0  0  0  0  0  0  0
   -3.6636   -0.6073    3.3962 H   0  0  0  0  0  0  0  0  0  0  0  0
   -5.6801   -0.8121   -0.2864 H   0  0  0  0  0  0  0  0  0  0  0  0
   -3.7318    0.2699   -1.4148 H   0  0  0  0  0  0  0  0  0  0  0  0
  1  2  1  0
  2  3  2  0
  2  4  2  0
  2  5  1  0
  5  6  1  0
  6  7  1  0
  7  8  1  0
  8  9  1  0
  9 10  1  0
  8 11  1  0
 11 12  2  0
 11 13  1  0
 13 14  1  0
  8 15  1  0
 15 16  2  0
 15 17  2  0
 15 18  1  0
 18 19  2  0
 19 20  1  0
 20 21  2  0
 21 22  1  0
 21 23  1  0
 23 24  2  0
 10  5  1  0
 24 18  1  0
  1 25  1  0
  1 26  1  0
  1 27  1  0
  6 28  1  0
  6 29  1  0
  7 30  1  0
  7 31  1  0
  9 32  1  0
  9 33  1  0
 10 34  1  0
 10 35  1  0
 13 36  1  0
 14 37  1  0
 19 38  1  0
 20 39  1  0
 23 40  1  0
 24 41  1  0
M  END
$$$$
[H]OC(=O)N1C(=O)[C@]([H])(C([H])([H])c2c([H])c([H])c(N([H])[H])c([H])c2[H])N([H])C(=O)[C@]([H])(C([H])([H])[H])N([H])C(=O)[C@]([H])(C([H])([H])c2c([H])nc([H])n2[H])N([H])C(=O)C([H])(N([H])C(=O)N(C(=O)N([H])[C@]([H])(C(=O)O[H])C([H])([H])C([H])(C([H])([H])[H])C([H])([H])[H])C([H])([H])[H])C([H])([H])C([H])([H])C1([H])[H]
     RDKit          3D

 99101  0  0  0  0  0  0  0  0999 V2000
   10.1949   -0.1965   -2.6627 C   0  0  0  0  0  0  0  0  0  0  0  0
    9.2490   -1.4149   -2.3716 C   0  0  0  0  0  0  0  0  0  0  0  0
    9.8901   -1.9686   -1.0851 C   0  0  0  0  0  0  0  0  0  0  0  0
    7.8982   -0.8199   -2.1159 C   0  0  0  0  0  0  0  0  0  0  0  0
    6.7547   -1.7540   -1.9784 C   0  0  2  0  0  0  0  0  0  0  0  0
    5.5179   -1.0332   -1.6424 N   0  0  0  0  0  0  0  0  0  0  0  0
    4.9004   -0.0570   -2.4150 C   0  0  0  0  0  0  0  0  0  0  0  0
    5.4632    0.2822   -3.5146 O   0  0  0  0  0  0  0  0  0  0  0  0
    3.6912    0.6418   -2.1168 N   0  0  0  0  0  0  0  0  0  0  0  0
    3.3488    1.8345   -2.9373 C   0  0  0  0  0  0  0  0  0  0  0  0
    2.7372    0.2992   -1.1599 C   0  0  0  0  0  0  0  0  0  0  0  0
    2.7749   -0.7640   -0.5294 O   0  0  0  0  0  0  0  0  0  0  0  0
    1.6351    1.1910   -0.8547 N   0  0  0  0  0  0  0  0  0  0  0  0
    0.6111    0.7851    0.0693 C   0  0  0  0  0  0  0  0  0  0  0  0
   -0.5157    1.7228    0.0207 C   0  0  0  0  0  0  0  0  0  0  0  0
   -1.4588    1.5485   -1.1484 C   0  0  0  0  0  0  0  0  0  0  0  0
   -2.8743    1.8784   -0.6770 C   0  0  0  0  0  0  0  0  0  0  0  0
   -3.8016    0.8182   -1.0392 N   0  0  0  0  0  0  0  0  0  0  0  0
   -4.5564    0.0274   -0.1758 C   0  0  0  0  0  0  0  0  0  0  0  0
   -4.5362   -1.2492   -0.4355 O   0  0  0  0  0  0  0  0  0  0  0  0
   -5.3879    0.3353    0.9906 C   0  0  2  0  0  0  0  0  0  0  0  0
   -5.9083    1.7020    1.2009 C   0  0  0  0  0  0  0  0  0  0  0  0
   -6.8405    2.2374    0.1877 C   0  0  0  0  0  0  0  0  0  0  0  0
   -8.2102    1.9127    0.2806 C   0  0  0  0  0  0  0  0  0  0  0  0
   -9.1493    2.3995   -0.5963 C   0  0  0  0  0  0  0  0  0  0  0  0
   -8.8049    3.2373   -1.6224 C   0  0  0  0  0  0  0  0  0  0  0  0
   -9.7641    3.7580   -2.5464 N   0  0  0  0  0  0  0  0  0  0  0  0
   -7.4609    3.5729   -1.7365 C   0  0  0  0  0  0  0  0  0  0  0  0
   -6.5368    3.0773   -0.8519 C   0  0  0  0  0  0  0  0  0  0  0  0
   -5.1011   -0.4199    2.1931 N   0  0  0  0  0  0  0  0  0  0  0  0
   -4.0234   -0.5853    3.0192 C   0  0  0  0  0  0  0  0  0  0  0  0
   -3.5123   -1.7838    3.0243 O   0  0  0  0  0  0  0  0  0  0  0  0
   -3.2791    0.2848    3.9376 C   0  0  2  0  0  0  0  0  0  0  0  0
   -3.2136    1.7350    3.6313 C   0  0  0  0  0  0  0  0  0  0  0  0
   -1.9458   -0.1527    4.2518 N   0  0  0  0  0  0  0  0  0  0  0  0
   -1.0986   -1.1057    3.7040 C   0  0  0  0  0  0  0  0  0  0  0  0
   -0.8100   -2.0877    4.4787 O   0  0  0  0  0  0  0  0  0  0  0  0
   -0.4788   -1.1592    2.3630 C   0  0  2  0  0  0  0  0  0  0  0  0
   -0.2452   -2.5002    1.7858 C   0  0  0  0  0  0  0  0  0  0  0  0
    0.6029   -3.4612    2.4713 C   0  0  0  0  0  0  0  0  0  0  0  0
    1.9738   -3.4823    2.3667 C   0  0  0  0  0  0  0  0  0  0  0  0
    2.4109   -4.5269    3.0773 N   0  0  0  0  0  0  0  0  0  0  0  0
    1.3526   -5.1344    3.6048 C   0  0  0  0  0  0  0  0  0  0  0  0
    0.2417   -4.4841    3.2355 N   0  0  0  0  0  0  0  0  0  0  0  0
    0.7571   -0.3526    2.3940 N   0  0  0  0  0  0  0  0  0  0  0  0
    1.1789    0.5686    1.4426 C   0  0  0  0  0  0  0  0  0  0  0  0
    2.1375    1.3330    1.7029 O   0  0  0  0  0  0  0  0  0  0  0  0
   -3.8809    0.6163   -2.4668 C   0  0  0  0  0  0  0  0  0  0  0  0
   -4.6969   -0.3522   -3.0441 O   0  0  0  0  0  0  0  0  0  0  0  0
   -3.2107    1.3066   -3.2634 O   0  0  0  0  0  0  0  0  0  0  0  0
    6.9318   -2.9263   -1.1756 C   0  0  0  0  0  0  0  0  0  0  0  0
    7.7400   -4.0110   -1.4561 O   0  0  0  0  0  0  0  0  0  0  0  0
    6.2559   -2.9916   -0.0645 O   0  0  0  0  0  0  0  0  0  0  0  0
   10.0595    0.4822   -1.8051 H   0  0  0  0  0  0  0  0  0  0  0  0
    9.7324    0.2104   -3.6170 H   0  0  0  0  0  0  0  0  0  0  0  0
   11.2119   -0.5626   -2.8013 H   0  0  0  0  0  0  0  0  0  0  0  0
    9.3152   -2.1704   -3.1376 H   0  0  0  0  0  0  0  0  0  0  0  0
   10.7764   -1.3054   -0.8144 H   0  0  0  0  0  0  0  0  0  0  0  0
   10.2988   -2.9738   -1.2092 H   0  0  0  0  0  0  0  0  0  0  0  0
    9.1562   -1.8229   -0.2809 H   0  0  0  0  0  0  0  0  0  0  0  0
    7.6426   -0.1120   -2.9815 H   0  0  0  0  0  0  0  0  0  0  0  0
    7.9557   -0.1113   -1.2320 H   0  0  0  0  0  0  0  0  0  0  0  0
    6.5185   -2.0851   -3.0813 H   0  0  0  0  0  0  0  0  0  0  0  0
    5.0811   -1.3019   -0.7071 H   0  0  0  0  0  0  0  0  0  0  0  0
    3.3316    2.6885   -2.2668 H   0  0  0  0  0  0  0  0  0  0  0  0
    4.1169    1.8880   -3.7267 H   0  0  0  0  0  0  0  0  0  0  0  0
    2.3426    1.5612   -3.3560 H   0  0  0  0  0  0  0  0  0  0  0  0
    1.6279    2.1035   -1.3250 H   0  0  0  0  0  0  0  0  0  0  0  0
    0.2601   -0.2644   -0.1930 H   0  0  0  0  0  0  0  0  0  0  0  0
   -1.0893    1.8094    0.9854 H   0  0  0  0  0  0  0  0  0  0  0  0
   -0.0888    2.7665   -0.0910 H   0  0  0  0  0  0  0  0  0  0  0  0
   -1.1459    2.2200   -1.9653 H   0  0  0  0  0  0  0  0  0  0  0  0
   -1.4161    0.4958   -1.5379 H   0  0  0  0  0  0  0  0  0  0  0  0
   -2.8516    2.1167    0.3825 H   0  0  0  0  0  0  0  0  0  0  0  0
   -3.2051    2.7640   -1.2992 H   0  0  0  0  0  0  0  0  0  0  0  0
   -6.4217   -0.1601    0.5712 H   0  0  0  0  0  0  0  0  0  0  0  0
   -5.1190    2.4822    1.3085 H   0  0  0  0  0  0  0  0  0  0  0  0
   -6.4760    1.6896    2.1705 H   0  0  0  0  0  0  0  0  0  0  0  0
   -8.4690    1.2439    1.1024 H   0  0  0  0  0  0  0  0  0  0  0  0
  -10.1928    2.1234   -0.4825 H   0  0  0  0  0  0  0  0  0  0  0  0
   -9.4365    4.2054   -3.4464 H   0  0  0  0  0  0  0  0  0  0  0  0
  -10.7660    3.7097   -2.3525 H   0  0  0  0  0  0  0  0  0  0  0  0
   -7.1936    4.2362   -2.5437 H   0  0  0  0  0  0  0  0  0  0  0  0
   -5.4871    3.3729   -0.9572 H   0  0  0  0  0  0  0  0  0  0  0  0
   -5.9915   -1.0075    2.5016 H   0  0  0  0  0  0  0  0  0  0  0  0
   -3.8365    0.2737    4.9713 H   0  0  0  0  0  0  0  0  0  0  0  0
   -2.7072    2.0444    2.7287 H   0  0  0  0  0  0  0  0  0  0  0  0
   -4.2266    2.1760    3.7842 H   0  0  0  0  0  0  0  0  0  0  0  0
   -2.6144    2.1995    4.4745 H   0  0  0  0  0  0  0  0  0  0  0  0
   -1.5403    0.3884    5.1129 H   0  0  0  0  0  0  0  0  0  0  0  0
   -1.2196   -0.6601    1.6840 H   0  0  0  0  0  0  0  0  0  0  0  0
   -1.2931   -2.9329    1.6047 H   0  0  0  0  0  0  0  0  0  0  0  0
    0.0933   -2.3415    0.7102 H   0  0  0  0  0  0  0  0  0  0  0  0
    2.6147   -2.7901    1.8147 H   0  0  0  0  0  0  0  0  0  0  0  0
    1.4141   -6.0128    4.2318 H   0  0  0  0  0  0  0  0  0  0  0  0
   -0.7570   -4.7710    3.5214 H   0  0  0  0  0  0  0  0  0  0  0  0
    1.3373   -0.5332    3.2405 H   0  0  0  0  0  0  0  0  0  0  0  0
   -4.3882   -1.0950   -3.6368 H   0  0  0  0  0  0  0  0  0  0  0  0
    8.0984   -4.5693   -0.7095 H   0  0  0  0  0  0  0  0  0  0  0  0
  1  2  1  0
  2  3  1  0
  2  4  1  0
  4  5  1  0
  5  6  1  0
  6  7  1  0
  7  8  2  0
  7  9  1  0
  9 10  1  0
  9 11  1  0
 11 12  2  0
 11 13  1  0
 13 14  1  0
 14 15  1  0
 15 16  1  0
 16 17  1  0
 17 18  1  0
 18 19  1  0
 19 20  2  0
 19 21  1  0
 21 22  1  0
 22 23  1  0
 23 24  2  0
 24 25  1  0
 25 26  2  0
 26 27  1  0
 26 28  1  0
 28 29  2  0
 21 30  1  0
 30 31  1  0
 31 32  2  0
 31 33  1  0
 33 34  1  0
 33 35  1  0
 35 36  1  0
 36 37  2  0
 36 38  1  0
 38 39  1  0
 39 40  1  0
 40 41  2  0
 41 42  1  0
 42 43  2  0
 43 44  1  0
 38 45  1  0
 45 46  1  0
 46 47  2  0
 18 48  1  0
 48 49  1  0
 48 50  2  0
  5 51  1  0
 51 52  1  0
 51 53  2  0
 46 14  1  0
 29 23  1  0
 44 40  1  0
  1 54  1  0
  1 55  1  0
  1 56  1  0
  2 57  1  0
  3 58  1  0
  3 59  1  0
  3 60  1  0
  4 61  1  0
  4 62  1  0
  5 63  1  6
  6 64  1  0
 10 65  1  0
 10 66  1  0
 10 67  1  0
 13 68  1  0
 14 69  1  0
 15 70  1  0
 15 71  1  0
 16 72  1  0
 16 73  1  0
 17 74  1  0
 17 75  1  0
 21 76  1  6
 22 77  1  0
 22 78  1  0
 24 79  1  0
 25 80  1  0
 27 81  1  0
 27 82  1  0
 28 83  1  0
 29 84  1  0
 30 85  1  0
 33 86  1  1
 34 87  1  0
 34 88  1  0
 34 89  1  0
 35 90  1  0
 38 91  1  6
 39 92  1  0
 39 93  1  0
 41 94  1  0
 43 95  1  0
 44 96  1  0
 45 97  1  0
 49 98  1  0
 52 99  1  0
M  END
$$$$
[H]c1c([H])c([H])c(C([H])([H])C([H])([H])C([H])([H])C([H])([H])N(C([H])([H])C([H])([H])[H])S(=O)(=O)N([H])C([H])(C(=O)OC([H])([H])C([H])([H])[H])C([H])([H])N([H])C([H])([H])c2c([H])c([H])c(Cl)c([H])c2Cl)c([H])c1[H]
     RDKit          3D

 67 68  0  0  0  0  0  0  0  0999 V2000
   -3.3513   -5.9726    0.9792 C   0  0  0  0  0  0  0  0  0  0  0  0
   -3.3466   -5.0185    2.1804 C   0  0  0  0  0  0  0  0  0  0  0  0
   -3.3381   -3.7072    1.6469 O   0  0  0  0  0  0  0  0  0  0  0  0
   -2.3438   -3.2230    0.8313 C   0  0  0  0  0  0  0  0  0  0  0  0
   -1.3835   -3.9544    0.5279 O   0  0  0  0  0  0  0  0  0  0  0  0
   -2.3618   -1.8027    0.2692 C   0  0  0  0  0  0  0  0  0  0  0  0
   -3.6419   -1.7083   -0.5734 C   0  0  0  0  0  0  0  0  0  0  0  0
   -3.8047   -0.4291   -1.1386 N   0  0  0  0  0  0  0  0  0  0  0  0
   -4.1615    0.5959   -0.1816 C   0  0  0  0  0  0  0  0  0  0  0  0
   -4.3100    1.9259   -0.8216 C   0  0  0  0  0  0  0  0  0  0  0  0
   -4.1181    2.0446   -2.1781 C   0  0  0  0  0  0  0  0  0  0  0  0
   -4.2705    3.3116   -2.7477 C   0  0  0  0  0  0  0  0  0  0  0  0
   -4.6030    4.3845   -1.9430 C   0  0  0  0  0  0  0  0  0  0  0  0
   -4.8021    5.9883   -2.6257 Cl  0  0  0  0  0  0  0  0  0  0  0  0
   -4.7870    4.2279   -0.5908 C   0  0  0  0  0  0  0  0  0  0  0  0
   -4.6419    2.9938   -0.0148 C   0  0  0  0  0  0  0  0  0  0  0  0
   -4.8698    2.7503    1.7228 Cl  0  0  0  0  0  0  0  0  0  0  0  0
   -1.2011   -1.5731   -0.5053 N   0  0  0  0  0  0  0  0  0  0  0  0
   -0.1337   -0.3300   -0.1480 S   0  0  0  0  0  0  0  0  0  0  0  0
    0.2724    0.4560   -1.3760 O   0  0  0  0  0  0  0  0  0  0  0  0
   -0.7246    0.6928    0.8282 O   0  0  0  0  0  0  0  0  0  0  0  0
    1.2551   -0.9179    0.6316 N   0  0  0  0  0  0  0  0  0  0  0  0
    1.2526   -0.9138    2.0413 C   0  0  0  0  0  0  0  0  0  0  0  0
    0.8328   -2.1576    2.7433 C   0  0  0  0  0  0  0  0  0  0  0  0
    2.4648   -0.9633   -0.0654 C   0  0  0  0  0  0  0  0  0  0  0  0
    3.4469    0.0757    0.3300 C   0  0  0  0  0  0  0  0  0  0  0  0
    2.9291    1.4512    0.0961 C   0  0  0  0  0  0  0  0  0  0  0  0
    3.9186    2.5223    0.5414 C   0  0  0  0  0  0  0  0  0  0  0  0
    5.2065    2.4669   -0.1438 C   0  0  0  0  0  0  0  0  0  0  0  0
    5.4029    3.1428   -1.3260 C   0  0  0  0  0  0  0  0  0  0  0  0
    6.6134    3.0845   -1.9448 C   0  0  0  0  0  0  0  0  0  0  0  0
    7.6570    2.3671   -1.4255 C   0  0  0  0  0  0  0  0  0  0  0  0
    7.4710    1.6832   -0.2365 C   0  0  0  0  0  0  0  0  0  0  0  0
    6.2584    1.7386    0.3883 C   0  0  0  0  0  0  0  0  0  0  0  0
   -3.9628   -5.5545    0.1593 H   0  0  0  0  0  0  0  0  0  0  0  0
   -3.8371   -6.9081    1.2978 H   0  0  0  0  0  0  0  0  0  0  0  0
   -2.3196   -6.2405    0.6774 H   0  0  0  0  0  0  0  0  0  0  0  0
   -4.3139   -5.1912    2.6985 H   0  0  0  0  0  0  0  0  0  0  0  0
   -2.4762   -5.2184    2.8341 H   0  0  0  0  0  0  0  0  0  0  0  0
   -2.4456   -1.0537    1.0550 H   0  0  0  0  0  0  0  0  0  0  0  0
   -4.4695   -1.9083    0.1699 H   0  0  0  0  0  0  0  0  0  0  0  0
   -3.7079   -2.5526   -1.2839 H   0  0  0  0  0  0  0  0  0  0  0  0
   -2.8973   -0.0738   -1.5771 H   0  0  0  0  0  0  0  0  0  0  0  0
   -3.5515    0.6159    0.7231 H   0  0  0  0  0  0  0  0  0  0  0  0
   -5.2015    0.3352    0.1764 H   0  0  0  0  0  0  0  0  0  0  0  0
   -3.8580    1.2016   -2.8126 H   0  0  0  0  0  0  0  0  0  0  0  0
   -4.1256    3.4205   -3.7952 H   0  0  0  0  0  0  0  0  0  0  0  0
   -5.0501    5.0747    0.0546 H   0  0  0  0  0  0  0  0  0  0  0  0
   -1.4199   -1.6292   -1.5055 H   0  0  0  0  0  0  0  0  0  0  0  0
    2.2167   -0.5201    2.4242 H   0  0  0  0  0  0  0  0  0  0  0  0
    0.5056   -0.1135    2.3521 H   0  0  0  0  0  0  0  0  0  0  0  0
    1.4540   -2.2675    3.6567 H   0  0  0  0  0  0  0  0  0  0  0  0
    0.8901   -3.0679    2.1286 H   0  0  0  0  0  0  0  0  0  0  0  0
   -0.2221   -2.1049    3.1088 H   0  0  0  0  0  0  0  0  0  0  0  0
    2.9242   -1.9839   -0.1323 H   0  0  0  0  0  0  0  0  0  0  0  0
    2.2231   -0.7438   -1.1580 H   0  0  0  0  0  0  0  0  0  0  0  0
    3.8188    0.0227    1.3725 H   0  0  0  0  0  0  0  0  0  0  0  0
    4.3970    0.0016   -0.2929 H   0  0  0  0  0  0  0  0  0  0  0  0
    2.8076    1.5717   -1.0132 H   0  0  0  0  0  0  0  0  0  0  0  0
    1.9822    1.6573    0.6096 H   0  0  0  0  0  0  0  0  0  0  0  0
    4.0103    2.5179    1.6347 H   0  0  0  0  0  0  0  0  0  0  0  0
    3.4423    3.5046    0.2627 H   0  0  0  0  0  0  0  0  0  0  0  0
    4.6152    3.7228   -1.7778 H   0  0  0  0  0  0  0  0  0  0  0  0
    6.7841    3.6104   -2.8760 H   0  0  0  0  0  0  0  0  0  0  0  0
    8.6306    2.3181   -1.9209 H   0  0  0  0  0  0  0  0  0  0  0  0
    8.2830    1.1173    0.1824 H   0  0  0  0  0  0  0  0  0  0  0  0
    6.0873    1.2068    1.3272 H   0  0  0  0  0  0  0  0  0  0  0  0
  1  2  1  0
  2  3  1  0
  3  4  1  0
  4  5  2  0
  4  6  1  0
  6  7  1  0
  7  8  1  0
  8  9  1  0
  9 10  1  0
 10 11  2  0
 11 12  1  0
 12 13  2  0
 13 14  1  0
 13 15  1  0
 15 16  2  0
 16 17  1  0
  6 18  1  0
 18 19  1  0
 19 20  2  0
 19 21  2  0
 19 22  1  0
 22 23  1  0
 23 24  1  0
 22 25  1  0
 25 26  1  0
 26 27  1  0
 27 28  1  0
 28 29  1  0
 29 30  2  0
 30 31  1  0
 31 32  2  0
 32 33  1  0
 33 34  2  0
 16 10  1  0
 34 29  1  0
  1 35  1  0
  1 36  1  0
  1 37  1  0
  2 38  1  0
  2 39  1  0
  6 40  1  0
  7 41  1  0
  7 42  1  0
  8 43  1  0
  9 44  1  0
  9 45  1  0
 11 46  1  0
 12 47  1  0
 15 48  1  0
 18 49  1  0
 23 50  1  0
 23 51  1  0
 24 52  1  0
 24 53  1  0
 24 54  1  0
 25 55  1  0
 25 56  1  0
 26 57  1  0
 26 58  1  0
 27 59  1  0
 27 60  1  0
 28 61  1  0
 28 62  1  0
 30 63  1  0
 31 64  1  0
 32 65  1  0
 33 66  1  0
 34 67  1  0
M  END
$$$$
[H]OC(=O)C([H])([H])c1c([H])c([H])c([H])c([H])c1C(=O)c1c([H])c([H])c2c(c1[H])OC([H])([H])O2
     RDKit          3D

 33 35  0  0  0  0  0  0  0  0999 V2000
   -4.5065   -2.8967    0.1045 O   0  0  0  0  0  0  0  0  0  0  0  0
   -3.7593   -1.9094   -0.5635 C   0  0  0  0  0  0  0  0  0  0  0  0
   -4.1135   -1.5221   -1.6885 O   0  0  0  0  0  0  0  0  0  0  0  0
   -2.5733   -1.3868    0.1402 C   0  0  0  0  0  0  0  0  0  0  0  0
   -2.4821    0.0915    0.1683 C   0  0  0  0  0  0  0  0  0  0  0  0
   -3.6559    0.7799   -0.0417 C   0  0  0  0  0  0  0  0  0  0  0  0
   -3.5926    2.1613    0.0114 C   0  0  0  0  0  0  0  0  0  0  0  0
   -2.4081    2.7973    0.2642 C   0  0  0  0  0  0  0  0  0  0  0  0
   -1.2235    2.1022    0.4772 C   0  0  0  0  0  0  0  0  0  0  0  0
   -1.2575    0.7357    0.4273 C   0  0  0  0  0  0  0  0  0  0  0  0
   -0.0941   -0.0520    0.6870 C   0  0  0  0  0  0  0  0  0  0  0  0
   -0.3330   -1.0246    1.5407 O   0  0  0  0  0  0  0  0  0  0  0  0
    1.2526    0.0483    0.1749 C   0  0  0  0  0  0  0  0  0  0  0  0
    1.7500    1.1105   -0.4936 C   0  0  0  0  0  0  0  0  0  0  0  0
    3.0757    1.2073   -0.9600 C   0  0  0  0  0  0  0  0  0  0  0  0
    3.9356    0.1447   -0.7207 C   0  0  0  0  0  0  0  0  0  0  0  0
    5.2824   -0.0631   -1.0455 O   0  0  0  0  0  0  0  0  0  0  0  0
    5.7597   -1.0692   -0.1368 C   0  0  0  0  0  0  0  0  0  0  0  0
    4.5468   -1.8252    0.0240 O   0  0  0  0  0  0  0  0  0  0  0  0
    3.4609   -0.9400   -0.0515 C   0  0  0  0  0  0  0  0  0  0  0  0
    2.1587   -1.0199    0.4004 C   0  0  0  0  0  0  0  0  0  0  0  0
   -4.0300   -3.5078    0.7680 H   0  0  0  0  0  0  0  0  0  0  0  0
   -1.6308   -1.7578   -0.3646 H   0  0  0  0  0  0  0  0  0  0  0  0
   -2.5932   -1.7057    1.2213 H   0  0  0  0  0  0  0  0  0  0  0  0
   -4.6161    0.3020   -0.2358 H   0  0  0  0  0  0  0  0  0  0  0  0
   -4.5369    2.7129   -0.1596 H   0  0  0  0  0  0  0  0  0  0  0  0
   -2.3745    3.8809    0.3005 H   0  0  0  0  0  0  0  0  0  0  0  0
   -0.3140    2.6882    0.7095 H   0  0  0  0  0  0  0  0  0  0  0  0
    1.1185    1.9716   -0.7383 H   0  0  0  0  0  0  0  0  0  0  0  0
    3.4389    2.0764   -1.4852 H   0  0  0  0  0  0  0  0  0  0  0  0
    5.9568   -0.6151    0.8680 H   0  0  0  0  0  0  0  0  0  0  0  0
    6.5830   -1.6503   -0.5275 H   0  0  0  0  0  0  0  0  0  0  0  0
    1.7756   -1.8652    0.9254 H   0  0  0  0  0  0  0  0  0  0  0  0
  1  2  1  0
  2  3  2  0
  2  4  1  0
  4  5  1  0
  5  6  2  0
  6  7  1  0
  7  8  2  0
  8  9  1  0
  9 10  2  0
 10 11  1  0
 11 12  2  0
 11 13  1  0
 13 14  2  0
 14 15  1  0
 15 16  2  0
 16 17  1  0
 17 18  1  0
 18 19  1  0
 19 20  1  0
 20 21  2  0
 10  5  1  0
 21 13  1  0
 20 16  1  0
  1 22  1  0
  4 23  1  0
  4 24  1  0
  6 25  1  0
  7 26  1  0
  8 27  1  0
  9 28  1  0
 14 29  1  0
 15 30  1  0
 18 31  1  0
 18 32  1  0
 21 33  1  0
M  END
$$$$
[H]OC(=O)C([H])([H])[C@@]([H])(C(=O)N([H])C([H])([H])C(=O)N([H])[C@]([H])(C(=O)O[H])C([H])([H])c1c([H])c([H])c2c([H])c([H])c([H])c([H])c2c1[H])N([H])[H]
     RDKit          3D

 49 50  0  0  0  0  0  0  0  0999 V2000
    7.2235    1.0358    0.8999 N   0  0  0  0  0  0  0  0  0  0  0  0
    5.9865    0.6784    0.2775 C   0  0  1  0  0  0  0  0  0  0  0  0
    6.1333   -0.6935   -0.3261 C   0  0  0  0  0  0  0  0  0  0  0  0
    7.2153   -0.6867   -1.3332 C   0  0  0  0  0  0  0  0  0  0  0  0
    7.5752   -1.8139   -2.0519 O   0  0  0  0  0  0  0  0  0  0  0  0
    7.8365    0.3784   -1.5510 O   0  0  0  0  0  0  0  0  0  0  0  0
    4.8511    0.6612    1.2413 C   0  0  0  0  0  0  0  0  0  0  0  0
    5.0181    0.9376    2.4494 O   0  0  0  0  0  0  0  0  0  0  0  0
    3.5586    0.3229    0.7677 N   0  0  0  0  0  0  0  0  0  0  0  0
    2.4598    0.3027    1.6848 C   0  0  0  0  0  0  0  0  0  0  0  0
    1.1780   -0.0691    1.0367 C   0  0  0  0  0  0  0  0  0  0  0  0
    1.2001   -0.3111   -0.1776 O   0  0  0  0  0  0  0  0  0  0  0  0
    0.0134   -0.1315    1.8063 N   0  0  0  0  0  0  0  0  0  0  0  0
   -1.2936   -0.4893    1.2567 C   0  0  1  0  0  0  0  0  0  0  0  0
   -1.6854    0.6366    0.3512 C   0  0  0  0  0  0  0  0  0  0  0  0
   -2.9823    0.4364   -0.2838 C   0  0  0  0  0  0  0  0  0  0  0  0
   -3.0985   -0.0992   -1.5298 C   0  0  0  0  0  0  0  0  0  0  0  0
   -4.3464   -0.2639   -2.0769 C   0  0  0  0  0  0  0  0  0  0  0  0
   -5.4771    0.1117   -1.3669 C   0  0  0  0  0  0  0  0  0  0  0  0
   -6.7274   -0.0607   -1.9316 C   0  0  0  0  0  0  0  0  0  0  0  0
   -7.8473    0.3219   -1.2040 C   0  0  0  0  0  0  0  0  0  0  0  0
   -7.7401    0.8633    0.0543 C   0  0  0  0  0  0  0  0  0  0  0  0
   -6.4911    1.0325    0.6114 C   0  0  0  0  0  0  0  0  0  0  0  0
   -5.3559    0.6535   -0.1060 C   0  0  0  0  0  0  0  0  0  0  0  0
   -4.1150    0.8180    0.4396 C   0  0  0  0  0  0  0  0  0  0  0  0
   -1.2817   -1.8325    0.7145 C   0  0  0  0  0  0  0  0  0  0  0  0
   -2.3960   -2.4214    0.1754 O   0  0  0  0  0  0  0  0  0  0  0  0
   -0.2265   -2.5469    0.7126 O   0  0  0  0  0  0  0  0  0  0  0  0
    7.5529    1.9928    0.6600 H   0  0  0  0  0  0  0  0  0  0  0  0
    7.3077    0.7808    1.8889 H   0  0  0  0  0  0  0  0  0  0  0  0
    5.7634    1.4148   -0.5102 H   0  0  0  0  0  0  0  0  0  0  0  0
    5.1701   -0.9538   -0.8442 H   0  0  0  0  0  0  0  0  0  0  0  0
    6.3386   -1.3986    0.5060 H   0  0  0  0  0  0  0  0  0  0  0  0
    8.4695   -1.9880   -2.4450 H   0  0  0  0  0  0  0  0  0  0  0  0
    3.3935    0.0860   -0.2486 H   0  0  0  0  0  0  0  0  0  0  0  0
    2.2739    1.3006    2.1706 H   0  0  0  0  0  0  0  0  0  0  0  0
    2.6586   -0.4205    2.4991 H   0  0  0  0  0  0  0  0  0  0  0  0
    0.0682    0.0924    2.8541 H   0  0  0  0  0  0  0  0  0  0  0  0
   -1.9990   -0.4859    2.1500 H   0  0  0  0  0  0  0  0  0  0  0  0
   -0.8818    0.8048   -0.4060 H   0  0  0  0  0  0  0  0  0  0  0  0
   -1.6866    1.5640    1.0165 H   0  0  0  0  0  0  0  0  0  0  0  0
   -2.1836   -0.3794   -2.0499 H   0  0  0  0  0  0  0  0  0  0  0  0
   -4.4373   -0.6893   -3.0664 H   0  0  0  0  0  0  0  0  0  0  0  0
   -6.8324   -0.4840   -2.9178 H   0  0  0  0  0  0  0  0  0  0  0  0
   -8.8020    0.1769   -1.6659 H   0  0  0  0  0  0  0  0  0  0  0  0
   -8.6127    1.1603    0.6189 H   0  0  0  0  0  0  0  0  0  0  0  0
   -6.3303    1.4537    1.6006 H   0  0  0  0  0  0  0  0  0  0  0  0
   -4.0149    1.2436    1.4307 H   0  0  0  0  0  0  0  0  0  0  0  0
   -2.4009   -3.0424   -0.6154 H   0  0  0  0  0  0  0  0  0  0  0  0
  1  2  1  0
  2  3  1  0
  3  4  1  0
  4  5  1  0
  4  6  2  0
  2  7  1  0
  7  8  2  0
  7  9  1  0
  9 10  1  0
 10 11  1  0
 11 12  2  0
 11 13  1  0
 13 14  1  0
 14 15  1  0
 15 16  1  0
 16 17  2  0
 17 18  1  0
 18 19  2  0
 19 20  1  0
 20 21  2  0
 21 22  1  0
 22 23  2  0
 23 24  1  0
 24 25  2  0
 14 26  1  0
 26 27  1  0
 26 28  2  0
 25 16  1  0
 24 19  1  0
  1 29  1  0
  1 30  1  0
  2 31  1  6
  3 32  1  0
  3 33  1  0
  5 34  1  0
  9 35  1  0
 10 36  1  0
 10 37  1  0
 13 38  1  0
 14 39  1  1
 15 40  1  0
 15 41  1  0
 17 42  1  0
 18 43  1  0
 20 44  1  0
 21 45  1  0
 22 46  1  0
 23 47  1  0
 25 48  1  0
 27 49  1  0
M  END
$$$$
[H]OC(=O)C1([H])C([H])([H])C([H])=C(c2nc3c(c([H])c2[H])C([H])([H])N(C([H])([H])C(F)(F)F)C([H])([H])C3([H])[H])C([H])([H])C1([H])[H]
     RDKit          3D

 43 45  0  0  0  0  0  0  0  0999 V2000
    6.9514   -0.5885    1.4327 O   0  0  0  0  0  0  0  0  0  0  0  0
    6.2904   -0.5563    0.2245 C   0  0  0  0  0  0  0  0  0  0  0  0
    6.7509   -1.1949   -0.7417 O   0  0  0  0  0  0  0  0  0  0  0  0
    5.0499    0.2300    0.0868 C   0  0  0  0  0  0  0  0  0  0  0  0
    4.0373   -0.3389    1.0568 C   0  0  0  0  0  0  0  0  0  0  0  0
    2.7792    0.4861    0.9123 C   0  0  0  0  0  0  0  0  0  0  0  0
    2.2320    0.2564   -0.4477 C   0  0  0  0  0  0  0  0  0  0  0  0
    3.0691    0.1564   -1.4383 C   0  0  0  0  0  0  0  0  0  0  0  0
    4.5543    0.2547   -1.3180 C   0  0  0  0  0  0  0  0  0  0  0  0
    0.7838    0.1609   -0.5783 C   0  0  0  0  0  0  0  0  0  0  0  0
    0.1384   -0.0490   -1.7745 C   0  0  0  0  0  0  0  0  0  0  0  0
   -1.2474   -0.1391   -1.8953 C   0  0  0  0  0  0  0  0  0  0  0  0
   -2.0170   -0.0097   -0.7420 C   0  0  0  0  0  0  0  0  0  0  0  0
   -3.4739   -0.1011   -0.8455 C   0  0  0  0  0  0  0  0  0  0  0  0
   -4.1531   -0.3518    0.3702 N   0  0  0  0  0  0  0  0  0  0  0  0
   -5.4127    0.2936    0.5295 C   0  0  0  0  0  0  0  0  0  0  0  0
   -6.4921   -0.2296   -0.3990 C   0  0  0  0  0  0  0  0  0  0  0  0
   -6.6638   -1.5744   -0.1371 F   0  0  0  0  0  0  0  0  0  0  0  0
   -6.2062   -0.0125   -1.7314 F   0  0  0  0  0  0  0  0  0  0  0  0
   -7.6983    0.4047   -0.1476 F   0  0  0  0  0  0  0  0  0  0  0  0
   -3.3825   -0.5476    1.5405 C   0  0  0  0  0  0  0  0  0  0  0  0
   -2.1737    0.3392    1.6702 C   0  0  0  0  0  0  0  0  0  0  0  0
   -1.3558    0.1999    0.4457 C   0  0  0  0  0  0  0  0  0  0  0  0
   -0.0211    0.2803    0.5177 N   0  0  0  0  0  0  0  0  0  0  0  0
    7.1508    0.2568    1.9483 H   0  0  0  0  0  0  0  0  0  0  0  0
    5.2351    1.2844    0.4364 H   0  0  0  0  0  0  0  0  0  0  0  0
    3.8795   -1.3974    0.7804 H   0  0  0  0  0  0  0  0  0  0  0  0
    4.4222   -0.2135    2.0889 H   0  0  0  0  0  0  0  0  0  0  0  0
    2.0149    0.2205    1.6532 H   0  0  0  0  0  0  0  0  0  0  0  0
    3.0653    1.5608    0.9511 H   0  0  0  0  0  0  0  0  0  0  0  0
    2.6984   -0.0101   -2.4347 H   0  0  0  0  0  0  0  0  0  0  0  0
    4.9084    1.1816   -1.8452 H   0  0  0  0  0  0  0  0  0  0  0  0
    4.9932   -0.6017   -1.8995 H   0  0  0  0  0  0  0  0  0  0  0  0
    0.7157   -0.1520   -2.6793 H   0  0  0  0  0  0  0  0  0  0  0  0
   -1.7243   -0.3047   -2.8530 H   0  0  0  0  0  0  0  0  0  0  0  0
   -3.8871    0.8003   -1.3651 H   0  0  0  0  0  0  0  0  0  0  0  0
   -3.6985   -0.9562   -1.5462 H   0  0  0  0  0  0  0  0  0  0  0  0
   -5.2614    1.3726    0.2243 H   0  0  0  0  0  0  0  0  0  0  0  0
   -5.8050    0.2281    1.5560 H   0  0  0  0  0  0  0  0  0  0  0  0
   -3.0221   -1.5989    1.5483 H   0  0  0  0  0  0  0  0  0  0  0  0
   -4.0115   -0.3985    2.4383 H   0  0  0  0  0  0  0  0  0  0  0  0
   -2.4325    1.3966    1.8745 H   0  0  0  0  0  0  0  0  0  0  0  0
   -1.5800   -0.0378    2.5327 H   0  0  0  0  0  0  0  0  0  0  0  0
  1  2  1  0
  2  3  2  0
  2  4  1  0
  4  5  1  0
  5  6  1  0
  6  7  1  0
  7  8  2  0
  8  9  1  0
  7 10  1  0
 10 11  2  0
 11 12  1  0
 12 13  2  0
 13 14  1  0
 14 15  1  0
 15 16  1  0
 16 17  1  0
 17 18  1  0
 17 19  1  0
 17 20  1  0
 15 21  1  0
 21 22  1  0
 22 23  1  0
 23 24  2  0
  9  4  1  0
 24 10  1  0
 23 13  1  0
  1 25  1  0
  4 26  1  0
  5 27  1  0
  5 28  1  0
  6 29  1  0
  6 30  1  0
  8 31  1  0
  9 32  1  0
  9 33  1  0
 11 34  1  0
 12 35  1  0
 14 36  1  0
 14 37  1  0
 16 38  1  0
 16 39  1  0
 21 40  1  0
 21 41  1  0
 22 42  1  0
 22 43  1  0
M  END
$$$$
[H]C1=C([H])C([H])(F)C([H])([H])C([H])=C1N([H])C(=O)C1(C(=O)N([H])c2c([H])c([H])c(Oc3c([H])c([H])nc4c([H])c(OC([H])([H])C([H])([H])C([H])([H])N5C([H])([H])C([H])([H])C([H])([H])C5([H])[H])c(OC([H])([H])[H])c([H])c34)c(F)c2[H])C([H])([H])C1([H])[H]
     RDKit          3D

 81 86  0  0  0  0  0  0  0  0999 V2000
   -3.5877    0.0230   -2.5605 C   0  0  0  0  0  0  0  0  0  0  0  0
   -4.4433   -0.0435   -1.4508 O   0  0  0  0  0  0  0  0  0  0  0  0
   -3.9880   -0.2494   -0.1491 C   0  0  0  0  0  0  0  0  0  0  0  0
   -2.6478   -0.3994    0.1096 C   0  0  0  0  0  0  0  0  0  0  0  0
   -2.1587   -0.6042    1.3755 C   0  0  0  0  0  0  0  0  0  0  0  0
   -0.7923   -0.7567    1.6112 C   0  0  0  0  0  0  0  0  0  0  0  0
    0.0250   -0.6916    0.5279 O   0  0  0  0  0  0  0  0  0  0  0  0
    1.3913   -0.8525    0.4754 C   0  0  0  0  0  0  0  0  0  0  0  0
    2.2342    0.1729    0.0692 C   0  0  0  0  0  0  0  0  0  0  0  0
    3.5918   -0.0103    0.0220 C   0  0  0  0  0  0  0  0  0  0  0  0
    4.2120   -1.2204    0.3732 C   0  0  0  0  0  0  0  0  0  0  0  0
    5.6358   -1.3113    0.3171 N   0  0  0  0  0  0  0  0  0  0  0  0
    6.4056   -2.4553    0.1478 C   0  0  0  0  0  0  0  0  0  0  0  0
    5.7718   -3.5663    0.0427 O   0  0  0  0  0  0  0  0  0  0  0  0
    7.8601   -2.5227    0.0895 C   0  0  0  0  0  0  0  0  0  0  0  0
    8.4588   -3.8753   -0.2867 C   0  0  0  0  0  0  0  0  0  0  0  0
    8.4428   -3.4847    1.1392 C   0  0  0  0  0  0  0  0  0  0  0  0
    8.7035   -1.3424   -0.2300 C   0  0  0  0  0  0  0  0  0  0  0  0
    9.9255   -1.4864    0.1717 O   0  0  0  0  0  0  0  0  0  0  0  0
    8.2626   -0.2155   -0.8859 N   0  0  0  0  0  0  0  0  0  0  0  0
    8.9663    0.9916   -1.2279 C   0  0  0  0  0  0  0  0  0  0  0  0
   10.2261    1.1961   -0.9431 C   0  0  0  0  0  0  0  0  0  0  0  0
   10.9546    2.4310   -1.2907 C   0  0  0  0  0  0  0  0  0  0  0  0
   10.1946    3.4846   -1.9837 C   0  0  0  0  0  0  0  0  0  0  0  0
   10.2335    4.6437   -1.1848 F   0  0  0  0  0  0  0  0  0  0  0  0
    8.8021    3.1813   -2.2644 C   0  0  0  0  0  0  0  0  0  0  0  0
    8.2359    2.0634   -1.9301 C   0  0  0  0  0  0  0  0  0  0  0  0
    3.3805   -2.2291    0.7736 C   0  0  0  0  0  0  0  0  0  0  0  0
    1.9865   -2.0377    0.8203 C   0  0  0  0  0  0  0  0  0  0  0  0
    1.2365   -3.0982    1.2142 F   0  0  0  0  0  0  0  0  0  0  0  0
   -0.4287   -0.9581    2.9201 C   0  0  0  0  0  0  0  0  0  0  0  0
   -1.3521   -1.0070    3.9339 C   0  0  0  0  0  0  0  0  0  0  0  0
   -2.6377   -0.8567    3.6575 N   0  0  0  0  0  0  0  0  0  0  0  0
   -3.0892   -0.6527    2.3915 C   0  0  0  0  0  0  0  0  0  0  0  0
   -4.4416   -0.5052    2.1646 C   0  0  0  0  0  0  0  0  0  0  0  0
   -4.8811   -0.3029    0.8827 C   0  0  0  0  0  0  0  0  0  0  0  0
   -6.2490   -0.1596    0.6965 O   0  0  0  0  0  0  0  0  0  0  0  0
   -7.1921   -0.2052    1.7204 C   0  0  0  0  0  0  0  0  0  0  0  0
   -8.5663   -0.0150    1.1322 C   0  0  0  0  0  0  0  0  0  0  0  0
   -8.6955    1.3020    0.4220 C   0  0  0  0  0  0  0  0  0  0  0  0
  -10.0037    1.4621   -0.1281 N   0  0  0  0  0  0  0  0  0  0  0  0
  -10.2287    2.6808   -0.8350 C   0  0  0  0  0  0  0  0  0  0  0  0
  -11.1566    2.3511   -2.0081 C   0  0  0  0  0  0  0  0  0  0  0  0
  -11.7165    1.0092   -1.5741 C   0  0  0  0  0  0  0  0  0  0  0  0
  -10.4689    0.3786   -0.9383 C   0  0  0  0  0  0  0  0  0  0  0  0
   -4.1462    0.4826   -3.4058 H   0  0  0  0  0  0  0  0  0  0  0  0
   -2.7486    0.7305   -2.3481 H   0  0  0  0  0  0  0  0  0  0  0  0
   -3.2042   -0.9751   -2.8684 H   0  0  0  0  0  0  0  0  0  0  0  0
   -1.9172   -0.3599   -0.6920 H   0  0  0  0  0  0  0  0  0  0  0  0
    1.7492    1.1006   -0.1989 H   0  0  0  0  0  0  0  0  0  0  0  0
    4.2444    0.7990   -0.2985 H   0  0  0  0  0  0  0  0  0  0  0  0
    6.1068   -0.3582    0.4880 H   0  0  0  0  0  0  0  0  0  0  0  0
    7.7266   -4.6220   -0.6534 H   0  0  0  0  0  0  0  0  0  0  0  0
    9.4183   -3.8918   -0.8472 H   0  0  0  0  0  0  0  0  0  0  0  0
    9.4104   -3.1476    1.6028 H   0  0  0  0  0  0  0  0  0  0  0  0
    7.7630   -3.9592    1.8454 H   0  0  0  0  0  0  0  0  0  0  0  0
    7.2650   -0.2466   -1.2614 H   0  0  0  0  0  0  0  0  0  0  0  0
   10.8241    0.4296   -0.4110 H   0  0  0  0  0  0  0  0  0  0  0  0
   11.8456    2.1794   -1.9484 H   0  0  0  0  0  0  0  0  0  0  0  0
   11.3908    2.8108   -0.3161 H   0  0  0  0  0  0  0  0  0  0  0  0
   10.6645    3.7949   -2.9610 H   0  0  0  0  0  0  0  0  0  0  0  0
    8.2315    3.9729   -2.7929 H   0  0  0  0  0  0  0  0  0  0  0  0
    7.1670    1.8981   -2.1758 H   0  0  0  0  0  0  0  0  0  0  0  0
    3.7856   -3.1876    1.0764 H   0  0  0  0  0  0  0  0  0  0  0  0
    0.6075   -1.0712    3.1537 H   0  0  0  0  0  0  0  0  0  0  0  0
   -1.0717   -1.1659    4.9745 H   0  0  0  0  0  0  0  0  0  0  0  0
   -5.1120   -0.5552    3.0169 H   0  0  0  0  0  0  0  0  0  0  0  0
   -7.1820   -1.2490    2.1462 H   0  0  0  0  0  0  0  0  0  0  0  0
   -6.9796    0.4646    2.5680 H   0  0  0  0  0  0  0  0  0  0  0  0
   -9.3685   -0.0413    1.9143 H   0  0  0  0  0  0  0  0  0  0  0  0
   -8.7385   -0.8568    0.4359 H   0  0  0  0  0  0  0  0  0  0  0  0
   -8.5595    2.1075    1.1881 H   0  0  0  0  0  0  0  0  0  0  0  0
   -7.8715    1.4342   -0.3151 H   0  0  0  0  0  0  0  0  0  0  0  0
  -10.7856    3.4045   -0.1999 H   0  0  0  0  0  0  0  0  0  0  0  0
   -9.3011    3.1863   -1.1756 H   0  0  0  0  0  0  0  0  0  0  0  0
  -11.9700    3.1048   -2.1030 H   0  0  0  0  0  0  0  0  0  0  0  0
  -10.5960    2.2617   -2.9622 H   0  0  0  0  0  0  0  0  0  0  0  0
  -12.4672    1.2054   -0.7918 H   0  0  0  0  0  0  0  0  0  0  0  0
  -12.0978    0.4163   -2.4102 H   0  0  0  0  0  0  0  0  0  0  0  0
  -10.7030   -0.5229   -0.3684 H   0  0  0  0  0  0  0  0  0  0  0  0
   -9.7919    0.1704   -1.8195 H   0  0  0  0  0  0  0  0  0  0  0  0
  1  2  1  0
  2  3  1  0
  3  4  2  0
  4  5  1  0
  5  6  2  0
  6  7  1  0
  7  8  1  0
  8  9  2  0
  9 10  1  0
 10 11  2  0
 11 12  1  0
 12 13  1  0
 13 14  2  0
 13 15  1  0
 15 16  1  0
 16 17  1  0
 15 18  1  0
 18 19  2  0
 18 20  1  0
 20 21  1  0
 21 22  2  0
 22 23  1  0
 23 24  1  0
 24 25  1  0
 24 26  1  0
 26 27  2  0
 11 28  1  0
 28 29  2  0
 29 30  1  0
  6 31  1  0
 31 32  2  0
 32 33  1  0
 33 34  2  0
 34 35  1  0
 35 36  2  0
 36 37  1  0
 37 38  1  0
 38 39  1  0
 39 40  1  0
 40 41  1  0
 41 42  1  0
 42 43  1  0
 43 44  1  0
 44 45  1  0
 36  3  1  0
 45 41  1  0
 34  5  1  0
 29  8  1  0
 17 15  1  0
 27 21  1  0
  1 46  1  0
  1 47  1  0
  1 48  1  0
  4 49  1  0
  9 50  1  0
 10 51  1  0
 12 52  1  0
 16 53  1  0
 16 54  1  0
 17 55  1  0
 17 56  1  0
 20 57  1  0
 22 58  1  0
 23 59  1  0
 23 60  1  0
 24 61  1  0
 26 62  1  0
 27 63  1  0
 28 64  1  0
 31 65  1  0
 32 66  1  0
 35 67  1  0
 38 68  1  0
 38 69  1  0
 39 70  1  0
 39 71  1  0
 40 72  1  0
 40 73  1  0
 42 74  1  0
 42 75  1  0
 43 76  1  0
 43 77  1  0
 44 78  1  0
 44 79  1  0
 45 80  1  0
 45 81  1  0
M  END
$$$$
[H]c1c(N([H])c2nc(N([H])[C@]([H])(C(=O)OC([H])([H])[H])C([H])([H])[H])c3c(N([H])[H])nn([H])c3c2[H])c([H])c(N2C([H])([H])C([H])([H])C([H])([H])C([H])([H])C2([H])[H])c([H])c1N([H])N1C([H])([H])C([H])([H])N(C([H])([H])[H])C([H])([H])C1([H])[H]
     RDKit          3D

 76 80  0  0  0  0  0  0  0  0999 V2000
    6.3798   -0.0725    3.6231 C   0  0  0  0  0  0  0  0  0  0  0  0
    6.4827    0.8219    2.5067 O   0  0  0  0  0  0  0  0  0  0  0  0
    6.2012    0.4129    1.2232 C   0  0  0  0  0  0  0  0  0  0  0  0
    5.8466   -0.7686    1.0255 O   0  0  0  0  0  0  0  0  0  0  0  0
    6.3090    1.3391    0.0772 C   0  0  2  0  0  0  0  0  0  0  0  0
    5.4024    2.5482    0.3244 C   0  0  0  0  0  0  0  0  0  0  0  0
    5.9238    0.7080   -1.1815 N   0  0  0  0  0  0  0  0  0  0  0  0
    4.5930    0.2939   -1.4097 C   0  0  0  0  0  0  0  0  0  0  0  0
    3.6333    0.4932   -0.4846 N   0  0  0  0  0  0  0  0  0  0  0  0
    2.3375    0.1419   -0.6205 C   0  0  0  0  0  0  0  0  0  0  0  0
    1.4366    0.4487    0.4278 N   0  0  0  0  0  0  0  0  0  0  0  0
    0.0766    0.0629    0.5290 C   0  0  0  0  0  0  0  0  0  0  0  0
   -0.8399    0.9944    1.0511 C   0  0  0  0  0  0  0  0  0  0  0  0
   -2.1692    0.7240    1.2326 C   0  0  0  0  0  0  0  0  0  0  0  0
   -2.5943   -0.5605    0.8651 C   0  0  0  0  0  0  0  0  0  0  0  0
   -1.7434   -1.4899    0.3581 C   0  0  0  0  0  0  0  0  0  0  0  0
   -0.4066   -1.1770    0.1909 C   0  0  0  0  0  0  0  0  0  0  0  0
   -2.1471   -2.7873   -0.0021 N   0  0  0  0  0  0  0  0  0  0  0  0
   -3.3800   -3.3667    0.5022 C   0  0  0  0  0  0  0  0  0  0  0  0
   -2.9479   -4.6009    1.3027 C   0  0  0  0  0  0  0  0  0  0  0  0
   -2.1435   -5.5270    0.4386 C   0  0  0  0  0  0  0  0  0  0  0  0
   -0.9077   -4.8094   -0.0900 C   0  0  0  0  0  0  0  0  0  0  0  0
   -1.3883   -3.6509   -0.9082 C   0  0  0  0  0  0  0  0  0  0  0  0
   -3.0954    1.6643    1.7602 N   0  0  0  0  0  0  0  0  0  0  0  0
   -3.8198    2.5524    0.9999 N   0  0  0  0  0  0  0  0  0  0  0  0
   -4.3879    1.9339   -0.1529 C   0  0  0  0  0  0  0  0  0  0  0  0
   -5.3258    2.8426   -0.9145 C   0  0  0  0  0  0  0  0  0  0  0  0
   -6.2407    3.5358   -0.0303 N   0  0  0  0  0  0  0  0  0  0  0  0
   -6.1327    4.9510   -0.2364 C   0  0  0  0  0  0  0  0  0  0  0  0
   -6.1200    3.1125    1.3342 C   0  0  0  0  0  0  0  0  0  0  0  0
   -4.7198    3.2885    1.8276 C   0  0  0  0  0  0  0  0  0  0  0  0
    1.9999   -0.4640   -1.8072 C   0  0  0  0  0  0  0  0  0  0  0  0
    2.9653   -0.6881   -2.7894 C   0  0  0  0  0  0  0  0  0  0  0  0
    2.8950   -1.2539   -4.0147 N   0  0  0  0  0  0  0  0  0  0  0  0
    4.0820   -1.2419   -4.5780 N   0  0  0  0  0  0  0  0  0  0  0  0
    5.0005   -0.6635   -3.7468 C   0  0  0  0  0  0  0  0  0  0  0  0
    6.3761   -0.4774   -4.0143 N   0  0  0  0  0  0  0  0  0  0  0  0
    4.2785   -0.3147   -2.6110 C   0  0  0  0  0  0  0  0  0  0  0  0
    7.2147   -0.8126    3.5460 H   0  0  0  0  0  0  0  0  0  0  0  0
    5.4102   -0.6060    3.4917 H   0  0  0  0  0  0  0  0  0  0  0  0
    6.4190    0.4875    4.5708 H   0  0  0  0  0  0  0  0  0  0  0  0
    7.3571    1.7046    0.0482 H   0  0  0  0  0  0  0  0  0  0  0  0
    6.0228    3.3894    0.7538 H   0  0  0  0  0  0  0  0  0  0  0  0
    4.9821    2.9449   -0.6161 H   0  0  0  0  0  0  0  0  0  0  0  0
    4.6568    2.3088    1.0910 H   0  0  0  0  0  0  0  0  0  0  0  0
    6.6656    0.5895   -1.8702 H   0  0  0  0  0  0  0  0  0  0  0  0
    1.8165    1.0287    1.2216 H   0  0  0  0  0  0  0  0  0  0  0  0
   -0.4574    1.9701    1.3178 H   0  0  0  0  0  0  0  0  0  0  0  0
   -3.6301   -0.7926    0.9929 H   0  0  0  0  0  0  0  0  0  0  0  0
    0.2995   -1.9144   -0.1863 H   0  0  0  0  0  0  0  0  0  0  0  0
   -3.9428   -3.7264   -0.3804 H   0  0  0  0  0  0  0  0  0  0  0  0
   -3.9560   -2.7272    1.1655 H   0  0  0  0  0  0  0  0  0  0  0  0
   -3.8214   -5.1258    1.7233 H   0  0  0  0  0  0  0  0  0  0  0  0
   -2.2878   -4.2321    2.1134 H   0  0  0  0  0  0  0  0  0  0  0  0
   -1.7764   -6.3490    1.1071 H   0  0  0  0  0  0  0  0  0  0  0  0
   -2.7055   -5.9528   -0.4000 H   0  0  0  0  0  0  0  0  0  0  0  0
   -0.3340   -5.5386   -0.6927 H   0  0  0  0  0  0  0  0  0  0  0  0
   -0.3360   -4.4766    0.8152 H   0  0  0  0  0  0  0  0  0  0  0  0
   -2.1586   -4.0490   -1.6246 H   0  0  0  0  0  0  0  0  0  0  0  0
   -0.6282   -3.1164   -1.4683 H   0  0  0  0  0  0  0  0  0  0  0  0
   -3.2012    1.6430    2.8139 H   0  0  0  0  0  0  0  0  0  0  0  0
   -3.5609    1.6691   -0.8481 H   0  0  0  0  0  0  0  0  0  0  0  0
   -4.9338    0.9936    0.0617 H   0  0  0  0  0  0  0  0  0  0  0  0
   -5.9455    2.1948   -1.5683 H   0  0  0  0  0  0  0  0  0  0  0  0
   -4.7772    3.5358   -1.5880 H   0  0  0  0  0  0  0  0  0  0  0  0
   -5.7011    5.1134   -1.2587 H   0  0  0  0  0  0  0  0  0  0  0  0
   -7.1375    5.4481   -0.2777 H   0  0  0  0  0  0  0  0  0  0  0  0
   -5.5345    5.4935    0.4942 H   0  0  0  0  0  0  0  0  0  0  0  0
   -6.7910    3.7888    1.9350 H   0  0  0  0  0  0  0  0  0  0  0  0
   -6.5251    2.1021    1.4668 H   0  0  0  0  0  0  0  0  0  0  0  0
   -4.5029    4.3795    1.8509 H   0  0  0  0  0  0  0  0  0  0  0  0
   -4.6840    2.8840    2.8688 H   0  0  0  0  0  0  0  0  0  0  0  0
    0.9898   -0.7547   -2.0077 H   0  0  0  0  0  0  0  0  0  0  0  0
    2.0283   -1.6397   -4.4439 H   0  0  0  0  0  0  0  0  0  0  0  0
    6.7046    0.4288   -4.3921 H   0  0  0  0  0  0  0  0  0  0  0  0
    7.0518   -1.2403   -3.8347 H   0  0  0  0  0  0  0  0  0  0  0  0
  1  2  1  0
  2  3  1  0
  3  4  2  0
  3  5  1  0
  5  6  1  0
  5  7  1  0
  7  8  1  0
  8  9  2  0
  9 10  1  0
 10 11  1  0
 11 12  1  0
 12 13  2  0
 13 14  1  0
 14 15  2  0
 15 16  1  0
 16 17  2  0
 16 18  1  0
 18 19  1  0
 19 20  1  0
 20 21  1  0
 21 22  1  0
 22 23  1  0
 14 24  1  0
 24 25  1  0
 25 26  1  0
 26 27  1  0
 27 28  1  0
 28 29  1  0
 28 30  1  0
 30 31  1  0
 10 32  2  0
 32 33  1  0
 33 34  1  0
 34 35  1  0
 35 36  2  0
 36 37  1  0
 36 38  1  0
 38  8  1  0
 17 12  1  0
 23 18  1  0
 31 25  1  0
 38 33  2  0
  1 39  1  0
  1 40  1  0
  1 41  1  0
  5 42  1  6
  6 43  1  0
  6 44  1  0
  6 45  1  0
  7 46  1  0
 11 47  1  0
 13 48  1  0
 15 49  1  0
 17 50  1  0
 19 51  1  0
 19 52  1  0
 20 53  1  0
 20 54  1  0
 21 55  1  0
 21 56  1  0
 22 57  1  0
 22 58  1  0
 23 59  1  0
 23 60  1  0
 24 61  1  0
 26 62  1  0
 26 63  1  0
 27 64  1  0
 27 65  1  0
 29 66  1  0
 29 67  1  0
 29 68  1  0
 30 69  1  0
 30 70  1  0
 31 71  1  0
 31 72  1  0
 32 73  1  0
 34 74  1  0
 37 75  1  0
 37 76  1  0
M  END
$$$$
[H]c1c([H])c(Cl)c(F)c([C@@]2([H])N(c3nc(N4C(=O)C([H])([H])C([H])([H])C4([H])[H])nc(OC([H])([H])[H])c3N([H])c3c([H])c([H])c(C#N)c([H])c3[H])[C@]([H])(C([H])([H])[H])C([H])([H])[C@]2([H])c2c([H])c([H])c(Cl)c([H])c2[H])c1[H]
     RDKit          3D

 73 78  0  0  0  0  0  0  0  0999 V2000
   -5.1918    0.6983    2.0411 C   0  0  0  0  0  0  0  0  0  0  0  0
   -3.9089    0.9522    1.6648 O   0  0  0  0  0  0  0  0  0  0  0  0
   -2.9367    0.1448    1.1241 C   0  0  0  0  0  0  0  0  0  0  0  0
   -3.1380   -1.1337    0.8577 N   0  0  0  0  0  0  0  0  0  0  0  0
   -2.1433   -1.8627    0.3413 C   0  0  0  0  0  0  0  0  0  0  0  0
   -0.9534   -1.3268    0.0974 N   0  0  0  0  0  0  0  0  0  0  0  0
   -0.6560    0.0039    0.3444 C   0  0  0  0  0  0  0  0  0  0  0  0
   -1.6802    0.7212    0.8581 C   0  0  0  0  0  0  0  0  0  0  0  0
   -1.6424    2.1066    1.1397 N   0  0  0  0  0  0  0  0  0  0  0  0
   -2.1373    3.1301    0.2945 C   0  0  0  0  0  0  0  0  0  0  0  0
   -3.0067    2.8535   -0.7376 C   0  0  0  0  0  0  0  0  0  0  0  0
   -3.4321    3.9210   -1.5317 C   0  0  0  0  0  0  0  0  0  0  0  0
   -3.0132    5.2142   -1.3145 C   0  0  0  0  0  0  0  0  0  0  0  0
   -2.1322    5.4806   -0.2686 C   0  0  0  0  0  0  0  0  0  0  0  0
   -1.7216    4.4215    0.5052 C   0  0  0  0  0  0  0  0  0  0  0  0
   -3.4856    6.3099   -2.1546 C   0  0  0  0  0  0  0  0  0  0  0  0
   -3.8675    7.1842   -2.8059 N   0  0  0  0  0  0  0  0  0  0  0  0
    0.6789    0.4436    0.0665 N   0  0  0  0  0  0  0  0  0  0  0  0
    1.8696   -0.2403    0.4177 C   0  0  1  0  0  0  0  0  0  0  0  0
    3.0611    0.3897   -0.1434 C   0  0  2  0  0  0  0  0  0  0  0  0
    2.5694    1.7830   -0.5535 C   0  0  0  0  0  0  0  0  0  0  0  0
    1.0705    1.5748   -0.7090 C   0  0  1  0  0  0  0  0  0  0  0  0
    0.7636    1.2992   -2.1837 C   0  0  0  0  0  0  0  0  0  0  0  0
    3.9365   -0.1224   -1.1392 C   0  0  0  0  0  0  0  0  0  0  0  0
    4.0076   -1.3467   -1.7402 C   0  0  0  0  0  0  0  0  0  0  0  0
    4.9659   -1.6858   -2.6686 C   0  0  0  0  0  0  0  0  0  0  0  0
    5.9318   -0.7578   -3.0461 C   0  0  0  0  0  0  0  0  0  0  0  0
    7.1831   -1.1451   -4.2123 Cl  0  0  0  0  0  0  0  0  0  0  0  0
    5.8891    0.4868   -2.4680 C   0  0  0  0  0  0  0  0  0  0  0  0
    4.9404    0.7899   -1.5606 C   0  0  0  0  0  0  0  0  0  0  0  0
    2.1783   -0.6183    1.7994 C   0  0  0  0  0  0  0  0  0  0  0  0
    2.9977   -1.7670    1.9766 C   0  0  0  0  0  0  0  0  0  0  0  0
    3.2559   -2.3378    3.1772 C   0  0  0  0  0  0  0  0  0  0  0  0
    2.7061   -1.7998    4.3270 C   0  0  0  0  0  0  0  0  0  0  0  0
    1.9069   -0.6860    4.2090 C   0  0  0  0  0  0  0  0  0  0  0  0
    1.2134    0.0299    5.6473 Cl  0  0  0  0  0  0  0  0  0  0  0  0
    1.6623   -0.1193    2.9518 C   0  0  0  0  0  0  0  0  0  0  0  0
    0.9795    1.0440    3.0047 F   0  0  0  0  0  0  0  0  0  0  0  0
   -2.4909   -3.2293    0.0168 N   0  0  0  0  0  0  0  0  0  0  0  0
   -1.7089   -4.1345   -0.8330 C   0  0  0  0  0  0  0  0  0  0  0  0
   -2.7170   -5.1333   -1.3767 C   0  0  0  0  0  0  0  0  0  0  0  0
   -3.6394   -5.2971   -0.1948 C   0  0  0  0  0  0  0  0  0  0  0  0
   -3.6404   -3.9587    0.4102 C   0  0  0  0  0  0  0  0  0  0  0  0
   -4.5351   -3.5285    1.1667 O   0  0  0  0  0  0  0  0  0  0  0  0
   -5.5659   -0.3308    1.9099 H   0  0  0  0  0  0  0  0  0  0  0  0
   -5.9021    1.4000    1.5327 H   0  0  0  0  0  0  0  0  0  0  0  0
   -5.3494    0.8830    3.1695 H   0  0  0  0  0  0  0  0  0  0  0  0
   -1.2330    2.4058    2.0581 H   0  0  0  0  0  0  0  0  0  0  0  0
   -3.3732    1.8688   -0.9679 H   0  0  0  0  0  0  0  0  0  0  0  0
   -4.1205    3.6823   -2.3341 H   0  0  0  0  0  0  0  0  0  0  0  0
   -1.8139    6.5016   -0.1271 H   0  0  0  0  0  0  0  0  0  0  0  0
   -1.0274    4.6399    1.3293 H   0  0  0  0  0  0  0  0  0  0  0  0
    1.7020   -1.2780   -0.1261 H   0  0  0  0  0  0  0  0  0  0  0  0
    3.7845    0.6845    0.7438 H   0  0  0  0  0  0  0  0  0  0  0  0
    2.7901    2.5625    0.1951 H   0  0  0  0  0  0  0  0  0  0  0  0
    2.9632    2.1143   -1.5248 H   0  0  0  0  0  0  0  0  0  0  0  0
    0.6337    2.5357   -0.4844 H   0  0  0  0  0  0  0  0  0  0  0  0
    0.9927    2.2752   -2.7059 H   0  0  0  0  0  0  0  0  0  0  0  0
    1.3788    0.4797   -2.5868 H   0  0  0  0  0  0  0  0  0  0  0  0
   -0.3110    1.1145   -2.2662 H   0  0  0  0  0  0  0  0  0  0  0  0
    3.2530   -2.0582   -1.4298 H   0  0  0  0  0  0  0  0  0  0  0  0
    5.0072   -2.6633   -3.1247 H   0  0  0  0  0  0  0  0  0  0  0  0
    6.6530    1.2321   -2.7605 H   0  0  0  0  0  0  0  0  0  0  0  0
    4.9530    1.8062   -1.1346 H   0  0  0  0  0  0  0  0  0  0  0  0
    3.4356   -2.2245    1.1038 H   0  0  0  0  0  0  0  0  0  0  0  0
    3.8823   -3.2282    3.3099 H   0  0  0  0  0  0  0  0  0  0  0  0
    2.9174   -2.2627    5.2896 H   0  0  0  0  0  0  0  0  0  0  0  0
   -1.3212   -3.5914   -1.7262 H   0  0  0  0  0  0  0  0  0  0  0  0
   -0.9594   -4.6830   -0.2688 H   0  0  0  0  0  0  0  0  0  0  0  0
   -2.2452   -6.1318   -1.5580 H   0  0  0  0  0  0  0  0  0  0  0  0
   -3.2617   -4.7733   -2.2566 H   0  0  0  0  0  0  0  0  0  0  0  0
   -3.2424   -6.0719    0.5175 H   0  0  0  0  0  0  0  0  0  0  0  0
   -4.6093   -5.6405   -0.5734 H   0  0  0  0  0  0  0  0  0  0  0  0
  1  2  1  0
  2  3  1  0
  3  4  2  0
  4  5  1  0
  5  6  2  0
  6  7  1  0
  7  8  2  0
  8  9  1  0
  9 10  1  0
 10 11  2  0
 11 12  1  0
 12 13  2  0
 13 14  1  0
 14 15  2  0
 13 16  1  0
 16 17  3  0
  7 18  1  0
 18 19  1  0
 19 20  1  0
 20 21  1  0
 21 22  1  0
 22 23  1  0
 20 24  1  0
 24 25  2  0
 25 26  1  0
 26 27  2  0
 27 28  1  0
 27 29  1  0
 29 30  2  0
 19 31  1  0
 31 32  2  0
 32 33  1  0
 33 34  2  0
 34 35  1  0
 35 36  1  0
 35 37  2  0
 37 38  1  0
  5 39  1  0
 39 40  1  0
 40 41  1  0
 41 42  1  0
 42 43  1  0
 43 44  2  0
  8  3  1  0
 15 10  1  0
 22 18  1  0
 30 24  1  0
 37 31  1  0
 43 39  1  0
  1 45  1  0
  1 46  1  0
  1 47  1  0
  9 48  1  0
 11 49  1  0
 12 50  1  0
 14 51  1  0
 15 52  1  0
 19 53  1  6
 20 54  1  1
 21 55  1  0
 21 56  1  0
 22 57  1  1
 23 58  1  0
 23 59  1  0
 23 60  1  0
 25 61  1  0
 26 62  1  0
 29 63  1  0
 30 64  1  0
 32 65  1  0
 33 66  1  0
 34 67  1  0
 40 68  1  0
 40 69  1  0
 41 70  1  0
 41 71  1  0
 42 72  1  0
 42 73  1  0
M  END
$$$$
[H]OC(=O)C([H])([H])C([H])([H])C([H])([H])C(=O)N([H])c1nc2c([H])c([H])c(N([H])C(=O)N([H])C([H])([H])C([H])([H])[H])c([H])c2n1-c1c([H])c([H])c2c([H])c([H])c([H])c([H])c2c1[H]
     RDKit          3D

 59 62  0  0  0  0  0  0  0  0999 V2000
    9.3981   -1.3445    0.3533 C   0  0  0  0  0  0  0  0  0  0  0  0
    8.1609   -2.2038    0.1915 C   0  0  0  0  0  0  0  0  0  0  0  0
    7.0089   -1.3418    0.3152 N   0  0  0  0  0  0  0  0  0  0  0  0
    5.6798   -1.9260    0.1970 C   0  0  0  0  0  0  0  0  0  0  0  0
    5.6249   -3.1603   -0.0080 O   0  0  0  0  0  0  0  0  0  0  0  0
    4.5487   -1.1031    0.3149 N   0  0  0  0  0  0  0  0  0  0  0  0
    3.2050   -1.5363    0.2327 C   0  0  0  0  0  0  0  0  0  0  0  0
    2.7765   -2.8299    0.2681 C   0  0  0  0  0  0  0  0  0  0  0  0
    1.4090   -3.1399    0.1606 C   0  0  0  0  0  0  0  0  0  0  0  0
    0.4572   -2.1604    0.0171 C   0  0  0  0  0  0  0  0  0  0  0  0
   -0.8756   -2.1445   -0.1055 N   0  0  0  0  0  0  0  0  0  0  0  0
   -1.3120   -0.8624   -0.2187 C   0  0  0  0  0  0  0  0  0  0  0  0
   -2.6665   -0.4390   -0.3667 N   0  0  0  0  0  0  0  0  0  0  0  0
   -3.6818   -1.4218   -0.4068 C   0  0  0  0  0  0  0  0  0  0  0  0
   -3.3848   -2.6320   -0.3147 O   0  0  0  0  0  0  0  0  0  0  0  0
   -5.1286   -1.0356   -0.5600 C   0  0  0  0  0  0  0  0  0  0  0  0
   -5.9475   -2.2762   -0.5829 C   0  0  0  0  0  0  0  0  0  0  0  0
   -7.4238   -2.0966   -0.7393 C   0  0  0  0  0  0  0  0  0  0  0  0
   -8.0228   -1.3484    0.3708 C   0  0  0  0  0  0  0  0  0  0  0  0
   -9.3889   -1.0231    0.3353 O   0  0  0  0  0  0  0  0  0  0  0  0
   -7.3819   -0.9761    1.3632 O   0  0  0  0  0  0  0  0  0  0  0  0
   -0.2366   -0.0746   -0.1657 N   0  0  0  0  0  0  0  0  0  0  0  0
   -0.2400    1.3330   -0.2473 C   0  0  0  0  0  0  0  0  0  0  0  0
    0.3830    1.9624   -1.3031 C   0  0  0  0  0  0  0  0  0  0  0  0
    0.3878    3.3397   -1.3960 C   0  0  0  0  0  0  0  0  0  0  0  0
   -0.2447    4.0651   -0.4085 C   0  0  0  0  0  0  0  0  0  0  0  0
   -0.2498    5.4437   -0.4851 C   0  0  0  0  0  0  0  0  0  0  0  0
   -0.8654    6.2283    0.4715 C   0  0  0  0  0  0  0  0  0  0  0  0
   -1.4955    5.6024    1.5388 C   0  0  0  0  0  0  0  0  0  0  0  0
   -1.5006    4.2269    1.6319 C   0  0  0  0  0  0  0  0  0  0  0  0
   -0.8775    3.4629    0.6616 C   0  0  0  0  0  0  0  0  0  0  0  0
   -0.8592    2.0897    0.7166 C   0  0  0  0  0  0  0  0  0  0  0  0
    0.8634   -0.8422   -0.0214 C   0  0  0  0  0  0  0  0  0  0  0  0
    2.2068   -0.5649    0.0856 C   0  0  0  0  0  0  0  0  0  0  0  0
    9.1496   -0.3434   -0.0521 H   0  0  0  0  0  0  0  0  0  0  0  0
   10.2834   -1.7830   -0.1414 H   0  0  0  0  0  0  0  0  0  0  0  0
    9.5450   -1.2186    1.4545 H   0  0  0  0  0  0  0  0  0  0  0  0
    8.1905   -2.9951    0.9645 H   0  0  0  0  0  0  0  0  0  0  0  0
    8.1607   -2.7219   -0.8105 H   0  0  0  0  0  0  0  0  0  0  0  0
    7.0702   -0.3185    0.4854 H   0  0  0  0  0  0  0  0  0  0  0  0
    4.7597   -0.0736    0.4820 H   0  0  0  0  0  0  0  0  0  0  0  0
    3.4655   -3.6481    0.3899 H   0  0  0  0  0  0  0  0  0  0  0  0
    1.0880   -4.1762    0.1905 H   0  0  0  0  0  0  0  0  0  0  0  0
   -2.8932    0.5746   -0.4419 H   0  0  0  0  0  0  0  0  0  0  0  0
   -5.2608   -0.4084   -1.4765 H   0  0  0  0  0  0  0  0  0  0  0  0
   -5.3636   -0.3818    0.2952 H   0  0  0  0  0  0  0  0  0  0  0  0
   -5.7964   -2.8146    0.3845 H   0  0  0  0  0  0  0  0  0  0  0  0
   -5.5939   -2.9422   -1.4298 H   0  0  0  0  0  0  0  0  0  0  0  0
   -7.8513   -3.1475   -0.7708 H   0  0  0  0  0  0  0  0  0  0  0  0
   -7.6980   -1.6575   -1.7297 H   0  0  0  0  0  0  0  0  0  0  0  0
   -9.9922   -1.6482    0.8767 H   0  0  0  0  0  0  0  0  0  0  0  0
    0.8844    1.3968   -2.0863 H   0  0  0  0  0  0  0  0  0  0  0  0
    0.8883    3.7929   -2.2409 H   0  0  0  0  0  0  0  0  0  0  0  0
    0.2489    5.9173   -1.3282 H   0  0  0  0  0  0  0  0  0  0  0  0
   -0.8354    7.2848    0.3569 H   0  0  0  0  0  0  0  0  0  0  0  0
   -1.9694    6.2168    2.2745 H   0  0  0  0  0  0  0  0  0  0  0  0
   -2.0029    3.7720    2.4802 H   0  0  0  0  0  0  0  0  0  0  0  0
   -1.3405    1.5803    1.5334 H   0  0  0  0  0  0  0  0  0  0  0  0
    2.5369    0.4725    0.0561 H   0  0  0  0  0  0  0  0  0  0  0  0
  1  2  1  0
  2  3  1  0
  3  4  1  0
  4  5  2  0
  4  6  1  0
  6  7  1  0
  7  8  2  0
  8  9  1  0
  9 10  2  0
 10 11  1  0
 11 12  2  0
 12 13  1  0
 13 14  1  0
 14 15  2  0
 14 16  1  0
 16 17  1  0
 17 18  1  0
 18 19  1  0
 19 20  1  0
 19 21  2  0
 12 22  1  0
 22 23  1  0
 23 24  2  0
 24 25  1  0
 25 26  2  0
 26 27  1  0
 27 28  2  0
 28 29  1  0
 29 30  2  0
 30 31  1  0
 31 32  2  0
 22 33  1  0
 33 34  2  0
 34  7  1  0
 33 10  1  0
 32 23  1  0
 31 26  1  0
  1 35  1  0
  1 36  1  0
  1 37  1  0
  2 38  1  0
  2 39  1  0
  3 40  1  0
  6 41  1  0
  8 42  1  0
  9 43  1  0
 13 44  1  0
 16 45  1  0
 16 46  1  0
 17 47  1  0
 17 48  1  0
 18 49  1  0
 18 50  1  0
 20 51  1  0
 24 52  1  0
 25 53  1  0
 27 54  1  0
 28 55  1  0
 29 56  1  0
 30 57  1  0
 32 58  1  0
 34 59  1  0
M  END
$$$$
[H]C1=C([H])[C@@]([H])(c2c([H])c([H])c(Br)c([H])c2[H])C([H])([H])C([H])([H])Oc2c([H])c([H])c(N([H])C(=O)C([H])([H])c3c([H])c([H])c(S(=O)(=O)N([H])[H])c([H])c3[H])c([H])c21
     RDKit          3D

 56 59  0  0  0  0  0  0  0  0999 V2000
   10.4082    0.4720   -0.3398 N   0  0  0  0  0  0  0  0  0  0  0  0
    9.1721   -0.6003   -0.8840 S   0  0  0  0  0  0  0  0  0  0  0  0
    9.1421   -0.6859   -2.3859 O   0  0  0  0  0  0  0  0  0  0  0  0
    9.3233   -1.9707   -0.2583 O   0  0  0  0  0  0  0  0  0  0  0  0
    7.6271    0.0682   -0.3662 C   0  0  0  0  0  0  0  0  0  0  0  0
    6.9425    0.9403   -1.1860 C   0  0  0  0  0  0  0  0  0  0  0  0
    5.7356    1.4778   -0.8094 C   0  0  0  0  0  0  0  0  0  0  0  0
    5.1567    1.1593    0.4210 C   0  0  0  0  0  0  0  0  0  0  0  0
    3.8526    1.7608    0.7902 C   0  0  0  0  0  0  0  0  0  0  0  0
    2.7492    0.8390    0.2947 C   0  0  0  0  0  0  0  0  0  0  0  0
    3.0636   -0.2035   -0.3004 O   0  0  0  0  0  0  0  0  0  0  0  0
    1.4462    1.2332    0.5461 N   0  0  0  0  0  0  0  0  0  0  0  0
    0.2983    0.4804    0.1356 C   0  0  0  0  0  0  0  0  0  0  0  0
    0.3135   -0.4431   -0.8613 C   0  0  0  0  0  0  0  0  0  0  0  0
   -0.8425   -1.1656   -1.1995 C   0  0  0  0  0  0  0  0  0  0  0  0
   -2.0031   -0.9358   -0.5152 C   0  0  0  0  0  0  0  0  0  0  0  0
   -2.9718   -1.7711   -1.0451 O   0  0  0  0  0  0  0  0  0  0  0  0
   -4.2159   -2.3582   -0.7292 C   0  0  0  0  0  0  0  0  0  0  0  0
   -4.6505   -2.2073    0.6789 C   0  0  0  0  0  0  0  0  0  0  0  0
   -5.3011   -0.9342    1.0744 C   0  0  1  0  0  0  0  0  0  0  0  0
   -4.3321    0.0823    1.5880 C   0  0  0  0  0  0  0  0  0  0  0  0
   -3.0907    0.4715    1.4017 C   0  0  0  0  0  0  0  0  0  0  0  0
   -2.0196    0.0011    0.4952 C   0  0  0  0  0  0  0  0  0  0  0  0
   -0.9053    0.7001    0.8247 C   0  0  0  0  0  0  0  0  0  0  0  0
   -6.2295   -0.3506    0.0791 C   0  0  0  0  0  0  0  0  0  0  0  0
   -5.7930    0.3328   -1.0370 C   0  0  0  0  0  0  0  0  0  0  0  0
   -6.6825    0.8751   -1.9686 C   0  0  0  0  0  0  0  0  0  0  0  0
   -8.0235    0.7397   -1.7937 C   0  0  0  0  0  0  0  0  0  0  0  0
   -9.2640    1.4714   -3.0519 Br  0  0  0  0  0  0  0  0  0  0  0  0
   -8.4971    0.0599   -0.6847 C   0  0  0  0  0  0  0  0  0  0  0  0
   -7.5989   -0.4657    0.2193 C   0  0  0  0  0  0  0  0  0  0  0  0
    5.8526    0.2877    1.2273 C   0  0  0  0  0  0  0  0  0  0  0  0
    7.0652   -0.2540    0.8520 C   0  0  0  0  0  0  0  0  0  0  0  0
   10.0669    1.0897    0.4033 H   0  0  0  0  0  0  0  0  0  0  0  0
   10.6443    1.0971   -1.1589 H   0  0  0  0  0  0  0  0  0  0  0  0
    7.3839    1.1846   -2.1271 H   0  0  0  0  0  0  0  0  0  0  0  0
    5.1832    2.1634   -1.4377 H   0  0  0  0  0  0  0  0  0  0  0  0
    3.7085    2.7382    0.2739 H   0  0  0  0  0  0  0  0  0  0  0  0
    3.8014    1.8644    1.8789 H   0  0  0  0  0  0  0  0  0  0  0  0
    1.2684    2.1469    1.0725 H   0  0  0  0  0  0  0  0  0  0  0  0
    1.1897   -0.6587   -1.4509 H   0  0  0  0  0  0  0  0  0  0  0  0
   -0.8083   -1.8858   -1.9845 H   0  0  0  0  0  0  0  0  0  0  0  0
   -4.9867   -2.1394   -1.4966 H   0  0  0  0  0  0  0  0  0  0  0  0
   -4.0300   -3.4725   -0.8777 H   0  0  0  0  0  0  0  0  0  0  0  0
   -5.3492   -3.0703    0.8973 H   0  0  0  0  0  0  0  0  0  0  0  0
   -3.7753   -2.4005    1.3354 H   0  0  0  0  0  0  0  0  0  0  0  0
   -5.9262   -1.2004    1.9915 H   0  0  0  0  0  0  0  0  0  0  0  0
   -4.7727    0.7203    2.3720 H   0  0  0  0  0  0  0  0  0  0  0  0
   -2.7583    1.3035    2.0248 H   0  0  0  0  0  0  0  0  0  0  0  0
   -0.9078    1.4299    1.6080 H   0  0  0  0  0  0  0  0  0  0  0  0
   -4.7571    0.4826   -1.2424 H   0  0  0  0  0  0  0  0  0  0  0  0
   -6.3231    1.4096   -2.8410 H   0  0  0  0  0  0  0  0  0  0  0  0
   -9.5689   -0.0281   -0.5784 H   0  0  0  0  0  0  0  0  0  0  0  0
   -7.9971   -0.9909    1.0747 H   0  0  0  0  0  0  0  0  0  0  0  0
    5.4187    0.0329    2.1789 H   0  0  0  0  0  0  0  0  0  0  0  0
    7.5678   -0.9231    1.5063 H   0  0  0  0  0  0  0  0  0  0  0  0
  1  2  1  0
  2  3  2  0
  2  4  2  0
  2  5  1  0
  5  6  2  0
  6  7  1  0
  7  8  2  0
  8  9  1  0
  9 10  1  0
 10 11  2  0
 10 12  1  0
 12 13  1  0
 13 14  2  0
 14 15  1  0
 15 16  2  0
 16 17  1  0
 17 18  1  0
 18 19  1  0
 19 20  1  0
 20 21  1  0
 21 22  2  0
 22 23  1  0
 23 24  2  0
 20 25  1  0
 25 26  2  0
 26 27  1  0
 27 28  2  0
 28 29  1  0
 28 30  1  0
 30 31  2  0
  8 32  1  0
 32 33  2  0
 33  5  1  0
 24 13  1  0
 31 25  1  0
 23 16  1  0
  1 34  1  0
  1 35  1  0
  6 36  1  0
  7 37  1  0
  9 38  1  0
  9 39  1  0
 12 40  1  0
 14 41  1  0
 15 42  1  0
 18 43  1  0
 18 44  1  0
 19 45  1  0
 19 46  1  0
 20 47  1  1
 21 48  1  0
 22 49  1  0
 24 50  1  0
 26 51  1  0
 27 52  1  0
 30 53  1  0
 31 54  1  0
 32 55  1  0
 33 56  1  0
M  END
$$$$
[H]c1nc(N([H])C(=O)N([H])C(C([H])([H])[H])(C([H])([H])[H])C([H])([H])[H])c([H])c(Oc2c([H])c([H])c(OC([H])([H])C(=O)N([H])c3c([H])c([H])c(Cl)c([H])c3[H])c(Cl)c2[H])c1[H]
     RDKit          3D

 58 60  0  0  0  0  0  0  0  0999 V2000
   -8.1263    0.1446    1.8402 C   0  0  0  0  0  0  0  0  0  0  0  0
   -8.1232    0.8777    0.4958 C   0  0  0  0  0  0  0  0  0  0  0  0
   -8.5959   -0.0788   -0.5769 C   0  0  0  0  0  0  0  0  0  0  0  0
   -9.1514    1.9826    0.6065 C   0  0  0  0  0  0  0  0  0  0  0  0
   -6.8521    1.4611    0.2054 N   0  0  0  0  0  0  0  0  0  0  0  0
   -5.6632    0.6479    0.0967 C   0  0  0  0  0  0  0  0  0  0  0  0
   -5.7357   -0.6026    0.2593 O   0  0  0  0  0  0  0  0  0  0  0  0
   -4.4068    1.2133   -0.1889 N   0  0  0  0  0  0  0  0  0  0  0  0
   -3.2542    0.3936   -0.2906 C   0  0  0  0  0  0  0  0  0  0  0  0
   -2.0031    0.9455   -0.5738 C   0  0  0  0  0  0  0  0  0  0  0  0
   -0.8731    0.1698   -0.6767 C   0  0  0  0  0  0  0  0  0  0  0  0
    0.3769    0.7512   -0.9633 O   0  0  0  0  0  0  0  0  0  0  0  0
    1.4634   -0.1264   -1.0465 C   0  0  0  0  0  0  0  0  0  0  0  0
    2.2261   -0.4488    0.0390 C   0  0  0  0  0  0  0  0  0  0  0  0
    3.2981   -1.3133   -0.0379 C   0  0  0  0  0  0  0  0  0  0  0  0
    3.6227   -1.8752   -1.2316 C   0  0  0  0  0  0  0  0  0  0  0  0
    4.6788   -2.7487   -1.3723 O   0  0  0  0  0  0  0  0  0  0  0  0
    5.5414   -3.1473   -0.3721 C   0  0  0  0  0  0  0  0  0  0  0  0
    6.3916   -2.0381    0.1922 C   0  0  0  0  0  0  0  0  0  0  0  0
    7.0099   -2.3478    1.2311 O   0  0  0  0  0  0  0  0  0  0  0  0
    6.4928   -0.7680   -0.3887 N   0  0  0  0  0  0  0  0  0  0  0  0
    7.2626    0.2783    0.1244 C   0  0  0  0  0  0  0  0  0  0  0  0
    7.6990    0.4128    1.4154 C   0  0  0  0  0  0  0  0  0  0  0  0
    8.4962    1.4979    1.8217 C   0  0  0  0  0  0  0  0  0  0  0  0
    8.8633    2.4602    0.9369 C   0  0  0  0  0  0  0  0  0  0  0  0
    9.8573    3.7881    1.5017 Cl  0  0  0  0  0  0  0  0  0  0  0  0
    8.4406    2.3538   -0.3656 C   0  0  0  0  0  0  0  0  0  0  0  0
    7.6678    1.2957   -0.7468 C   0  0  0  0  0  0  0  0  0  0  0  0
    2.8652   -1.5674   -2.3569 C   0  0  0  0  0  0  0  0  0  0  0  0
    3.2652   -2.2793   -3.9021 Cl  0  0  0  0  0  0  0  0  0  0  0  0
    1.7979   -0.7018   -2.2611 C   0  0  0  0  0  0  0  0  0  0  0  0
   -1.0165   -1.1818   -0.4898 C   0  0  0  0  0  0  0  0  0  0  0  0
   -2.2520   -1.7208   -0.2109 C   0  0  0  0  0  0  0  0  0  0  0  0
   -3.3178   -0.9396   -0.1197 N   0  0  0  0  0  0  0  0  0  0  0  0
   -9.2109    0.0380    2.1163 H   0  0  0  0  0  0  0  0  0  0  0  0
   -7.6579   -0.8375    1.7843 H   0  0  0  0  0  0  0  0  0  0  0  0
   -7.6900    0.8163    2.6095 H   0  0  0  0  0  0  0  0  0  0  0  0
   -9.6848    0.0157   -0.7571 H   0  0  0  0  0  0  0  0  0  0  0  0
   -8.4200   -1.1179   -0.2054 H   0  0  0  0  0  0  0  0  0  0  0  0
   -8.0858    0.0730   -1.5398 H   0  0  0  0  0  0  0  0  0  0  0  0
   -9.4162    2.2665   -0.4533 H   0  0  0  0  0  0  0  0  0  0  0  0
  -10.0570    1.5071    1.0780 H   0  0  0  0  0  0  0  0  0  0  0  0
   -8.7801    2.8430    1.1660 H   0  0  0  0  0  0  0  0  0  0  0  0
   -6.7326    2.4857    0.0618 H   0  0  0  0  0  0  0  0  0  0  0  0
   -4.3260    2.2355   -0.3255 H   0  0  0  0  0  0  0  0  0  0  0  0
   -1.9495    2.0259   -0.7126 H   0  0  0  0  0  0  0  0  0  0  0  0
    1.9921   -0.0157    1.0079 H   0  0  0  0  0  0  0  0  0  0  0  0
    3.8613   -1.5345    0.8646 H   0  0  0  0  0  0  0  0  0  0  0  0
    6.2152   -3.9703   -0.6470 H   0  0  0  0  0  0  0  0  0  0  0  0
    4.9450   -3.5225    0.4948 H   0  0  0  0  0  0  0  0  0  0  0  0
    5.9578   -0.5552   -1.3075 H   0  0  0  0  0  0  0  0  0  0  0  0
    7.4171   -0.3215    2.1619 H   0  0  0  0  0  0  0  0  0  0  0  0
    8.7865    1.5136    2.8494 H   0  0  0  0  0  0  0  0  0  0  0  0
    8.7408    3.1280   -1.0584 H   0  0  0  0  0  0  0  0  0  0  0  0
    7.3493    1.2325   -1.7719 H   0  0  0  0  0  0  0  0  0  0  0  0
    1.2332   -0.4868   -3.1562 H   0  0  0  0  0  0  0  0  0  0  0  0
   -0.1114   -1.8016   -0.5725 H   0  0  0  0  0  0  0  0  0  0  0  0
   -2.3215   -2.8058   -0.0687 H   0  0  0  0  0  0  0  0  0  0  0  0
  1  2  1  0
  2  3  1  0
  2  4  1  0
  2  5  1  0
  5  6  1  0
  6  7  2  0
  6  8  1  0
  8  9  1  0
  9 10  2  0
 10 11  1  0
 11 12  1  0
 12 13  1  0
 13 14  2  0
 14 15  1  0
 15 16  2  0
 16 17  1  0
 17 18  1  0
 18 19  1  0
 19 20  2  0
 19 21  1  0
 21 22  1  0
 22 23  2  0
 23 24  1  0
 24 25  2  0
 25 26  1  0
 25 27  1  0
 27 28  2  0
 16 29  1  0
 29 30  1  0
 29 31  2  0
 11 32  2  0
 32 33  1  0
 33 34  2  0
 34  9  1  0
 31 13  1  0
 28 22  1  0
  1 35  1  0
  1 36  1  0
  1 37  1  0
  3 38  1  0
  3 39  1  0
  3 40  1  0
  4 41  1  0
  4 42  1  0
  4 43  1  0
  5 44  1  0
  8 45  1  0
 10 46  1  0
 14 47  1  0
 15 48  1  0
 18 49  1  0
 18 50  1  0
 21 51  1  0
 23 52  1  0
 24 53  1  0
 27 54  1  0
 28 55  1  0
 31 56  1  0
 32 57  1  0
 33 58  1  0
M  END
$$$$
[H]O[C@@]1([H])C([H])([H])[C@]([H])(C([H])([H])c2c([H])c([H])c([H])c([H])c2[H])N(C([H])([H])C([H])([H])C([H])([H])C([H])([H])C([H])([H])C([H])([H])C([H])([H])[H])C(=O)[C@]1([H])O[H]
     RDKit          3D

 52 53  0  0  0  0  0  0  0  0999 V2000
    5.9970    2.3748   -0.9047 C   0  0  0  0  0  0  0  0  0  0  0  0
    4.6832    1.6247   -1.1223 C   0  0  0  0  0  0  0  0  0  0  0  0
    4.9307    0.2036   -0.6360 C   0  0  0  0  0  0  0  0  0  0  0  0
    3.6724   -0.6280   -0.8122 C   0  0  0  0  0  0  0  0  0  0  0  0
    2.5361   -0.0524   -0.0336 C   0  0  0  0  0  0  0  0  0  0  0  0
    1.3067   -0.9045   -0.2335 C   0  0  0  0  0  0  0  0  0  0  0  0
    0.1907   -0.2345    0.6050 C   0  0  0  0  0  0  0  0  0  0  0  0
   -1.0278   -0.9374    0.5072 N   0  0  0  0  0  0  0  0  0  0  0  0
   -2.1256   -0.9040   -0.3600 C   0  0  1  0  0  0  0  0  0  0  0  0
   -2.4824    0.1585   -1.2766 C   0  0  0  0  0  0  0  0  0  0  0  0
   -2.8105    1.4924   -0.7605 C   0  0  0  0  0  0  0  0  0  0  0  0
   -1.9120    2.5107   -0.7096 C   0  0  0  0  0  0  0  0  0  0  0  0
   -2.2090    3.7799   -0.2205 C   0  0  0  0  0  0  0  0  0  0  0  0
   -3.4808    4.0450    0.2448 C   0  0  0  0  0  0  0  0  0  0  0  0
   -4.4194    3.0387    0.2096 C   0  0  0  0  0  0  0  0  0  0  0  0
   -4.0969    1.7984   -0.2780 C   0  0  0  0  0  0  0  0  0  0  0  0
   -2.0786   -2.2654   -1.0990 C   0  0  0  0  0  0  0  0  0  0  0  0
   -2.3897   -3.3841   -0.1417 C   0  0  2  0  0  0  0  0  0  0  0  0
   -3.7045   -3.8448   -0.2738 O   0  0  0  0  0  0  0  0  0  0  0  0
   -2.1609   -3.0708    1.3067 C   0  0  1  0  0  0  0  0  0  0  0  0
   -1.7142   -4.2019    1.9889 O   0  0  0  0  0  0  0  0  0  0  0  0
   -1.1795   -1.9969    1.5292 C   0  0  0  0  0  0  0  0  0  0  0  0
   -0.4965   -2.0051    2.5751 O   0  0  0  0  0  0  0  0  0  0  0  0
    6.6631    2.1575   -1.7569 H   0  0  0  0  0  0  0  0  0  0  0  0
    6.4603    2.0196    0.0596 H   0  0  0  0  0  0  0  0  0  0  0  0
    5.7539    3.4429   -0.8861 H   0  0  0  0  0  0  0  0  0  0  0  0
    3.9329    2.1391   -0.5081 H   0  0  0  0  0  0  0  0  0  0  0  0
    4.4283    1.6751   -2.1811 H   0  0  0  0  0  0  0  0  0  0  0  0
    5.2534    0.2368    0.4085 H   0  0  0  0  0  0  0  0  0  0  0  0
    5.7061   -0.2540   -1.2781 H   0  0  0  0  0  0  0  0  0  0  0  0
    3.3933   -0.6011   -1.8883 H   0  0  0  0  0  0  0  0  0  0  0  0
    3.8677   -1.6451   -0.4346 H   0  0  0  0  0  0  0  0  0  0  0  0
    2.7586    0.0284    1.0527 H   0  0  0  0  0  0  0  0  0  0  0  0
    2.2625    0.9778   -0.3587 H   0  0  0  0  0  0  0  0  0  0  0  0
    1.0454   -0.8501   -1.3099 H   0  0  0  0  0  0  0  0  0  0  0  0
    1.4342   -1.9502    0.0308 H   0  0  0  0  0  0  0  0  0  0  0  0
    0.5333   -0.2685    1.6856 H   0  0  0  0  0  0  0  0  0  0  0  0
    0.2541    0.8037    0.3366 H   0  0  0  0  0  0  0  0  0  0  0  0
   -3.1018   -1.0670    0.2671 H   0  0  0  0  0  0  0  0  0  0  0  0
   -3.4500   -0.1825   -1.7897 H   0  0  0  0  0  0  0  0  0  0  0  0
   -1.8120    0.2650   -2.1740 H   0  0  0  0  0  0  0  0  0  0  0  0
   -0.9038    2.3553   -1.0634 H   0  0  0  0  0  0  0  0  0  0  0  0
   -1.4803    4.5761   -0.1884 H   0  0  0  0  0  0  0  0  0  0  0  0
   -3.7432    5.0268    0.6330 H   0  0  0  0  0  0  0  0  0  0  0  0
   -5.4206    3.2469    0.5757 H   0  0  0  0  0  0  0  0  0  0  0  0
   -4.8171    0.9746   -0.3213 H   0  0  0  0  0  0  0  0  0  0  0  0
   -1.0455   -2.3657   -1.4822 H   0  0  0  0  0  0  0  0  0  0  0  0
   -2.8272   -2.2953   -1.9138 H   0  0  0  0  0  0  0  0  0  0  0  0
   -1.7306   -4.2384   -0.4156 H   0  0  0  0  0  0  0  0  0  0  0  0
   -4.2828   -3.3776    0.3863 H   0  0  0  0  0  0  0  0  0  0  0  0
   -3.1183   -2.7623    1.8176 H   0  0  0  0  0  0  0  0  0  0  0  0
   -1.0428   -4.6647    1.3968 H   0  0  0  0  0  0  0  0  0  0  0  0
  1  2  1  0
  2  3  1  0
  3  4  1  0
  4  5  1  0
  5  6  1  0
  6  7  1  0
  7  8  1  0
  8  9  1  0
  9 10  1  0
 10 11  1  0
 11 12  2  0
 12 13  1  0
 13 14  2  0
 14 15  1  0
 15 16  2  0
  9 17  1  0
 17 18  1  0
 18 19  1  0
 18 20  1  0
 20 21  1  0
 20 22  1  0
 22 23  2  0
 22  8  1  0
 16 11  1  0
  1 24  1  0
  1 25  1  0
  1 26  1  0
  2 27  1  0
  2 28  1  0
  3 29  1  0
  3 30  1  0
  4 31  1  0
  4 32  1  0
  5 33  1  0
  5 34  1  0
  6 35  1  0
  6 36  1  0
  7 37  1  0
  7 38  1  0
  9 39  1  1
 10 40  1  0
 10 41  1  0
 12 42  1  0
 13 43  1  0
 14 44  1  0
 15 45  1  0
 16 46  1  0
 17 47  1  0
 17 48  1  0
 18 49  1  6
 19 50  1  0
 20 51  1  1
 21 52  1  0
M  END
$$$$
[H]ON([H])C(=O)C([H])([H])C([H])([H])C([H])([H])C([H])([H])C([H])([H])C([H])([H])C(=O)N([H])c1sc2c(N([H])c3c([H])c([H])c([H])c(Br)c3[H])nc([H])nc2c1[H]
     RDKit          3D

 52 54  0  0  0  0  0  0  0  0999 V2000
   -8.4853    0.4307    3.8715 O   0  0  0  0  0  0  0  0  0  0  0  0
   -8.1019    0.3802    2.5865 N   0  0  0  0  0  0  0  0  0  0  0  0
   -6.8423    0.9167    2.2062 C   0  0  0  0  0  0  0  0  0  0  0  0
   -6.0924    1.4351    3.0685 O   0  0  0  0  0  0  0  0  0  0  0  0
   -6.4703    0.8302    0.7530 C   0  0  0  0  0  0  0  0  0  0  0  0
   -5.1168    1.4565    0.6220 C   0  0  0  0  0  0  0  0  0  0  0  0
   -4.5883    1.4547   -0.8037 C   0  0  0  0  0  0  0  0  0  0  0  0
   -4.4968   -0.0043   -1.2562 C   0  0  0  0  0  0  0  0  0  0  0  0
   -3.9917   -0.0906   -2.6522 C   0  0  0  0  0  0  0  0  0  0  0  0
   -2.6496    0.4874   -2.8637 C   0  0  0  0  0  0  0  0  0  0  0  0
   -1.5636   -0.1749   -2.0941 C   0  0  0  0  0  0  0  0  0  0  0  0
   -1.8548   -1.1954   -1.4485 O   0  0  0  0  0  0  0  0  0  0  0  0
   -0.2621    0.3258   -2.0921 N   0  0  0  0  0  0  0  0  0  0  0  0
    0.8386   -0.2394   -1.3873 C   0  0  0  0  0  0  0  0  0  0  0  0
    0.9491   -1.3325   -0.5800 C   0  0  0  0  0  0  0  0  0  0  0  0
    2.1522   -1.6119   -0.0499 C   0  0  0  0  0  0  0  0  0  0  0  0
    2.4858   -2.6589    0.7864 N   0  0  0  0  0  0  0  0  0  0  0  0
    3.7316   -2.8151    1.2410 C   0  0  0  0  0  0  0  0  0  0  0  0
    4.7506   -1.9963    0.9399 N   0  0  0  0  0  0  0  0  0  0  0  0
    4.5011   -0.9560    0.1315 C   0  0  0  0  0  0  0  0  0  0  0  0
    5.4429   -0.0106   -0.3133 N   0  0  0  0  0  0  0  0  0  0  0  0
    6.7941   -0.0174    0.0967 C   0  0  0  0  0  0  0  0  0  0  0  0
    7.7141    0.5997   -0.7722 C   0  0  0  0  0  0  0  0  0  0  0  0
    9.0535    0.6976   -0.5034 C   0  0  0  0  0  0  0  0  0  0  0  0
    9.5164    0.1660    0.6729 C   0  0  0  0  0  0  0  0  0  0  0  0
    8.6773   -0.4399    1.5491 C   0  0  0  0  0  0  0  0  0  0  0  0
    9.3222   -1.1720    3.1717 Br  0  0  0  0  0  0  0  0  0  0  0  0
    7.3057   -0.5271    1.2497 C   0  0  0  0  0  0  0  0  0  0  0  0
    3.1866   -0.7872   -0.3510 C   0  0  0  0  0  0  0  0  0  0  0  0
    2.4698    0.3680   -1.3695 S   0  0  0  0  0  0  0  0  0  0  0  0
   -7.8020   -0.0295    4.4292 H   0  0  0  0  0  0  0  0  0  0  0  0
   -8.7561   -0.0594    1.9042 H   0  0  0  0  0  0  0  0  0  0  0  0
   -6.5123   -0.2358    0.4986 H   0  0  0  0  0  0  0  0  0  0  0  0
   -7.2629    1.3916    0.2144 H   0  0  0  0  0  0  0  0  0  0  0  0
   -5.1859    2.5004    0.9849 H   0  0  0  0  0  0  0  0  0  0  0  0
   -4.4115    0.8513    1.2351 H   0  0  0  0  0  0  0  0  0  0  0  0
   -3.5183    1.8130   -0.7706 H   0  0  0  0  0  0  0  0  0  0  0  0
   -5.1878    2.0709   -1.4799 H   0  0  0  0  0  0  0  0  0  0  0  0
   -5.5407   -0.4463   -1.2664 H   0  0  0  0  0  0  0  0  0  0  0  0
   -3.8946   -0.5037   -0.4848 H   0  0  0  0  0  0  0  0  0  0  0  0
   -4.6976    0.4630   -3.3427 H   0  0  0  0  0  0  0  0  0  0  0  0
   -3.9531   -1.1653   -3.0062 H   0  0  0  0  0  0  0  0  0  0  0  0
   -2.6192    1.5669   -2.5450 H   0  0  0  0  0  0  0  0  0  0  0  0
   -2.3770    0.5449   -3.9567 H   0  0  0  0  0  0  0  0  0  0  0  0
   -0.0656    1.2050   -2.6632 H   0  0  0  0  0  0  0  0  0  0  0  0
    0.0566   -1.9777   -0.3673 H   0  0  0  0  0  0  0  0  0  0  0  0
    3.8807   -3.6877    1.9026 H   0  0  0  0  0  0  0  0  0  0  0  0
    5.1148    0.7472   -0.9925 H   0  0  0  0  0  0  0  0  0  0  0  0
    7.3552    1.0271   -1.7134 H   0  0  0  0  0  0  0  0  0  0  0  0
    9.7676    1.1683   -1.1620 H   0  0  0  0  0  0  0  0  0  0  0  0
   10.5826    0.2324    0.9081 H   0  0  0  0  0  0  0  0  0  0  0  0
    6.6518   -0.9957    1.9687 H   0  0  0  0  0  0  0  0  0  0  0  0
  1  2  1  0
  2  3  1  0
  3  4  2  0
  3  5  1  0
  5  6  1  0
  6  7  1  0
  7  8  1  0
  8  9  1  0
  9 10  1  0
 10 11  1  0
 11 12  2  0
 11 13  1  0
 13 14  1  0
 14 15  2  0
 15 16  1  0
 16 17  2  0
 17 18  1  0
 18 19  2  0
 19 20  1  0
 20 21  1  0
 21 22  1  0
 22 23  2  0
 23 24  1  0
 24 25  2  0
 25 26  1  0
 26 27  1  0
 26 28  2  0
 20 29  2  0
 29 30  1  0
 30 14  1  0
 29 16  1  0
 28 22  1  0
  1 31  1  0
  2 32  1  0
  5 33  1  0
  5 34  1  0
  6 35  1  0
  6 36  1  0
  7 37  1  0
  7 38  1  0
  8 39  1  0
  8 40  1  0
  9 41  1  0
  9 42  1  0
 10 43  1  0
 10 44  1  0
 13 45  1  0
 15 46  1  0
 18 47  1  0
 21 48  1  0
 23 49  1  0
 24 50  1  0
 25 51  1  0
 28 52  1  0
M  END
$$$$
[H]OC([H])([H])[C@@]1(O[H])C([H])([H])[C@@]2([H])O[C@]1(C([H])([H])[H])n1c3c([H])c([H])c([H])c([H])c3c3c4c(c5c6c([H])c([H])c([H])c([H])c6n2c5c31)C(=O)N([H])C4([H])[H]
     RDKit          3D

 54 61  0  0  0  0  0  0  0  0999 V2000
    3.1800    0.8838    1.3878 C   0  0  0  0  0  0  0  0  0  0  0  0
    2.1176    0.2237    0.5774 C   0  0  2  0  0  0  0  0  0  0  0  0
    1.6968   -0.7870    1.4854 O   0  0  0  0  0  0  0  0  0  0  0  0
    1.2511   -1.8639    0.7986 C   0  0  2  0  0  0  0  0  0  0  0  0
    2.0328   -1.9517   -0.4419 C   0  0  0  0  0  0  0  0  0  0  0  0
    2.6347   -0.5714   -0.5849 C   0  0  1  0  0  0  0  0  0  0  0  0
    2.2138   -0.0799   -1.8115 O   0  0  0  0  0  0  0  0  0  0  0  0
    4.1191   -0.7109   -0.6110 C   0  0  0  0  0  0  0  0  0  0  0  0
    4.4589   -1.5975   -1.6334 O   0  0  0  0  0  0  0  0  0  0  0  0
   -0.2014   -1.7853    0.5955 N   0  0  0  0  0  0  0  0  0  0  0  0
   -1.1044   -2.7499    0.6347 C   0  0  0  0  0  0  0  0  0  0  0  0
   -0.9179   -4.0868    0.8734 C   0  0  0  0  0  0  0  0  0  0  0  0
   -2.0299   -4.9199    0.8648 C   0  0  0  0  0  0  0  0  0  0  0  0
   -3.2823   -4.4161    0.6235 C   0  0  0  0  0  0  0  0  0  0  0  0
   -3.4758   -3.0511    0.3794 C   0  0  0  0  0  0  0  0  0  0  0  0
   -2.3768   -2.2421    0.3902 C   0  0  0  0  0  0  0  0  0  0  0  0
   -2.2053   -0.8905    0.1945 C   0  0  0  0  0  0  0  0  0  0  0  0
   -3.0670    0.1511   -0.0975 C   0  0  0  0  0  0  0  0  0  0  0  0
   -4.5001    0.2660   -0.2996 C   0  0  0  0  0  0  0  0  0  0  0  0
   -5.3884   -0.5871   -0.2658 O   0  0  0  0  0  0  0  0  0  0  0  0
   -4.7851    1.6416   -0.5724 N   0  0  0  0  0  0  0  0  0  0  0  0
   -3.5735    2.4248   -0.5610 C   0  0  0  0  0  0  0  0  0  0  0  0
   -2.5314    1.4168   -0.2472 C   0  0  0  0  0  0  0  0  0  0  0  0
   -1.1701    1.6669   -0.1133 C   0  0  0  0  0  0  0  0  0  0  0  0
   -0.3770    2.7657   -0.2198 C   0  0  0  0  0  0  0  0  0  0  0  0
   -0.7006    4.0705   -0.5126 C   0  0  0  0  0  0  0  0  0  0  0  0
    0.3203    5.0230   -0.5829 C   0  0  0  0  0  0  0  0  0  0  0  0
    1.6233    4.6180   -0.3553 C   0  0  0  0  0  0  0  0  0  0  0  0
    1.9232    3.2989   -0.0625 C   0  0  0  0  0  0  0  0  0  0  0  0
    0.9354    2.3466    0.0129 C   0  0  0  0  0  0  0  0  0  0  0  0
    0.9590    1.0103    0.2643 N   0  0  0  0  0  0  0  0  0  0  0  0
   -0.3578    0.6223    0.1746 C   0  0  0  0  0  0  0  0  0  0  0  0
   -0.8544   -0.6533    0.3299 C   0  0  0  0  0  0  0  0  0  0  0  0
    4.0624    1.2462    0.8471 H   0  0  0  0  0  0  0  0  0  0  0  0
    3.5596    0.1949    2.1815 H   0  0  0  0  0  0  0  0  0  0  0  0
    2.7312    1.7230    1.9466 H   0  0  0  0  0  0  0  0  0  0  0  0
    1.4219   -2.7643    1.4120 H   0  0  0  0  0  0  0  0  0  0  0  0
    1.4720   -2.2700   -1.3403 H   0  0  0  0  0  0  0  0  0  0  0  0
    2.8377   -2.7359   -0.3258 H   0  0  0  0  0  0  0  0  0  0  0  0
    2.8799   -0.3390   -2.4928 H   0  0  0  0  0  0  0  0  0  0  0  0
    4.5238   -1.1579    0.3296 H   0  0  0  0  0  0  0  0  0  0  0  0
    4.6358    0.2581   -0.8438 H   0  0  0  0  0  0  0  0  0  0  0  0
    4.7979   -2.4633   -1.2908 H   0  0  0  0  0  0  0  0  0  0  0  0
    0.0592   -4.4684    1.0598 H   0  0  0  0  0  0  0  0  0  0  0  0
   -1.8569   -5.9719    1.0560 H   0  0  0  0  0  0  0  0  0  0  0  0
   -4.1224   -5.0759    0.6219 H   0  0  0  0  0  0  0  0  0  0  0  0
   -4.4721   -2.7398    0.2018 H   0  0  0  0  0  0  0  0  0  0  0  0
   -5.7336    2.0654   -0.7610 H   0  0  0  0  0  0  0  0  0  0  0  0
   -3.6366    3.2333    0.1993 H   0  0  0  0  0  0  0  0  0  0  0  0
   -3.3846    2.8954   -1.5673 H   0  0  0  0  0  0  0  0  0  0  0  0
   -1.7294    4.3700   -0.6881 H   0  0  0  0  0  0  0  0  0  0  0  0
    0.0587    6.0490   -0.8135 H   0  0  0  0  0  0  0  0  0  0  0  0
    2.3774    5.3965   -0.4223 H   0  0  0  0  0  0  0  0  0  0  0  0
    2.9510    3.0689    0.0761 H   0  0  0  0  0  0  0  0  0  0  0  0
  2  1  1  1
  2  3  1  0
  3  4  1  0
  4  5  1  0
  5  6  1  0
  6  7  1  6
  6  8  1  0
  8  9  1  0
  4 10  1  0
 10 11  1  0
 11 12  2  0
 12 13  1  0
 13 14  2  0
 14 15  1  0
 15 16  2  0
 16 17  1  0
 17 18  2  0
 18 19  1  0
 19 20  2  0
 19 21  1  0
 21 22  1  0
 22 23  1  0
 23 24  2  0
 24 25  1  0
 25 26  2  0
 26 27  1  0
 27 28  2  0
 28 29  1  0
 29 30  2  0
 30 31  1  0
 31 32  1  0
 32 33  2  0
  6  2  1  0
 33 10  1  0
 31  2  1  0
 16 11  1  0
 33 17  1  0
 23 18  1  0
 32 24  1  0
 30 25  1  0
  1 34  1  0
  1 35  1  0
  1 36  1  0
  4 37  1  1
  5 38  1  0
  5 39  1  0
  7 40  1  0
  8 41  1  0
  8 42  1  0
  9 43  1  0
 12 44  1  0
 13 45  1  0
 14 46  1  0
 15 47  1  0
 21 48  1  0
 22 49  1  0
 22 50  1  0
 26 51  1  0
 27 52  1  0
 28 53  1  0
 29 54  1  0
M  END
$$$$
[H]c1nc(OC2([H])C([H])([H])N(c3nc4c([H])c([H])c([H])c([H])c4c([H])c3[H])C2([H])[H])c(C(=O)N([H])C([H])(C([H])([H])[H])C([H])([H])C([H])([H])[H])nc1[H]
     RDKit          3D

 51 54  0  0  0  0  0  0  0  0999 V2000
    5.7289   -0.0356   -2.4648 C   0  0  0  0  0  0  0  0  0  0  0  0
    6.3776   -1.0238   -1.5542 C   0  0  0  0  0  0  0  0  0  0  0  0
    5.4313   -1.5468   -0.4842 C   0  0  0  0  0  0  0  0  0  0  0  0
    6.1991   -2.5349    0.3688 C   0  0  0  0  0  0  0  0  0  0  0  0
    4.8958   -0.4582    0.3010 N   0  0  0  0  0  0  0  0  0  0  0  0
    3.5257   -0.1635    0.4124 C   0  0  0  0  0  0  0  0  0  0  0  0
    2.7148   -0.8866   -0.2045 O   0  0  0  0  0  0  0  0  0  0  0  0
    3.0335    0.9473    1.2171 C   0  0  0  0  0  0  0  0  0  0  0  0
    3.9105    1.7444    1.8829 N   0  0  0  0  0  0  0  0  0  0  0  0
    3.4846    2.7684    2.6272 C   0  0  0  0  0  0  0  0  0  0  0  0
    2.1385    3.0288    2.7279 C   0  0  0  0  0  0  0  0  0  0  0  0
    1.2793    2.2348    2.0658 N   0  0  0  0  0  0  0  0  0  0  0  0
    1.6864    1.2000    1.3121 C   0  0  0  0  0  0  0  0  0  0  0  0
    0.7981    0.3674    0.6193 O   0  0  0  0  0  0  0  0  0  0  0  0
   -0.5960    0.5543    0.6704 C   0  0  0  0  0  0  0  0  0  0  0  0
   -1.3843   -0.7419    0.8630 C   0  0  0  0  0  0  0  0  0  0  0  0
   -2.4184   -0.1344    0.0248 N   0  0  0  0  0  0  0  0  0  0  0  0
   -1.3140    0.5529   -0.6622 C   0  0  0  0  0  0  0  0  0  0  0  0
   -3.8155   -0.2192   -0.0356 C   0  0  0  0  0  0  0  0  0  0  0  0
   -4.4952   -1.0199    0.8441 C   0  0  0  0  0  0  0  0  0  0  0  0
   -5.8861   -1.1318    0.8149 C   0  0  0  0  0  0  0  0  0  0  0  0
   -6.6013   -0.4269   -0.1139 C   0  0  0  0  0  0  0  0  0  0  0  0
   -7.9762   -0.5101   -0.1758 C   0  0  0  0  0  0  0  0  0  0  0  0
   -8.6839    0.1976   -1.1073 C   0  0  0  0  0  0  0  0  0  0  0  0
   -7.9970    1.0012   -1.9892 C   0  0  0  0  0  0  0  0  0  0  0  0
   -6.6021    1.0839   -1.9244 C   0  0  0  0  0  0  0  0  0  0  0  0
   -5.8811    0.3784   -0.9942 C   0  0  0  0  0  0  0  0  0  0  0  0
   -4.5358    0.4653   -0.9403 N   0  0  0  0  0  0  0  0  0  0  0  0
    5.4807   -0.5496   -3.4304 H   0  0  0  0  0  0  0  0  0  0  0  0
    4.8192    0.4349   -2.0358 H   0  0  0  0  0  0  0  0  0  0  0  0
    6.4506    0.7798   -2.7170 H   0  0  0  0  0  0  0  0  0  0  0  0
    6.7327   -1.8961   -2.1296 H   0  0  0  0  0  0  0  0  0  0  0  0
    7.2708   -0.5882   -1.0457 H   0  0  0  0  0  0  0  0  0  0  0  0
    4.6362   -2.1242   -0.9979 H   0  0  0  0  0  0  0  0  0  0  0  0
    5.7558   -3.5457    0.3521 H   0  0  0  0  0  0  0  0  0  0  0  0
    7.2443   -2.6418    0.0172 H   0  0  0  0  0  0  0  0  0  0  0  0
    6.2693   -2.2030    1.4237 H   0  0  0  0  0  0  0  0  0  0  0  0
    5.5752    0.1412    0.8153 H   0  0  0  0  0  0  0  0  0  0  0  0
    4.1647    3.4326    3.1771 H   0  0  0  0  0  0  0  0  0  0  0  0
    1.8110    3.8726    3.3425 H   0  0  0  0  0  0  0  0  0  0  0  0
   -0.9634    1.3884    1.2873 H   0  0  0  0  0  0  0  0  0  0  0  0
   -1.6851   -0.9473    1.8923 H   0  0  0  0  0  0  0  0  0  0  0  0
   -0.9185   -1.5610    0.3032 H   0  0  0  0  0  0  0  0  0  0  0  0
   -0.8413   -0.1646   -1.3649 H   0  0  0  0  0  0  0  0  0  0  0  0
   -1.5627    1.5364   -1.0679 H   0  0  0  0  0  0  0  0  0  0  0  0
   -3.9483   -1.5885    1.5888 H   0  0  0  0  0  0  0  0  0  0  0  0
   -6.4263   -1.7620    1.5068 H   0  0  0  0  0  0  0  0  0  0  0  0
   -8.5067   -1.1532    0.5324 H   0  0  0  0  0  0  0  0  0  0  0  0
   -9.7432    0.1501   -1.1748 H   0  0  0  0  0  0  0  0  0  0  0  0
   -8.5340    1.5726   -2.7365 H   0  0  0  0  0  0  0  0  0  0  0  0
   -6.0985    1.7258   -2.6342 H   0  0  0  0  0  0  0  0  0  0  0  0
  1  2  1  0
  2  3  1  0
  3  4  1  0
  3  5  1  0
  5  6  1  0
  6  7  2  0
  6  8  1  0
  8  9  2  0
  9 10  1  0
 10 11  2  0
 11 12  1  0
 12 13  2  0
 13 14  1  0
 14 15  1  0
 15 16  1  0
 16 17  1  0
 17 18  1  0
 17 19  1  0
 19 20  2  0
 20 21  1  0
 21 22  2  0
 22 23  1  0
 23 24  2  0
 24 25  1  0
 25 26  2  0
 26 27  1  0
 27 28  2  0
 13  8  1  0
 18 15  1  0
 28 19  1  0
 27 22  1  0
  1 29  1  0
  1 30  1  0
  1 31  1  0
  2 32  1  0
  2 33  1  0
  3 34  1  0
  4 35  1  0
  4 36  1  0
  4 37  1  0
  5 38  1  0
 10 39  1  0
 11 40  1  0
 15 41  1  0
 16 42  1  0
 16 43  1  0
 18 44  1  0
 18 45  1  0
 20 46  1  0
 21 47  1  0
 23 48  1  0
 24 49  1  0
 25 50  1  0
 26 51  1  0
M  END
$$$$
[H]c1c([H])c(N([H])C(=O)N([H])C2([H])C([H])([H])C([H])([H])N(C(=O)c3c([H])c([H])c(C([H])([H])C([H])([H])C([H])([H])[H])c([H])c3[H])C([H])([H])C2([H])[H])c([H])c([H])c1OC(F)(F)F
     RDKit          3D

 58 60  0  0  0  0  0  0  0  0999 V2000
   -7.0169    2.9500    0.3941 C   0  0  0  0  0  0  0  0  0  0  0  0
   -8.0814    1.9699   -0.0455 C   0  0  0  0  0  0  0  0  0  0  0  0
   -7.7850    0.5525    0.3003 C   0  0  0  0  0  0  0  0  0  0  0  0
   -6.5397    0.0183   -0.2869 C   0  0  0  0  0  0  0  0  0  0  0  0
   -5.3987    0.1356    0.4634 C   0  0  0  0  0  0  0  0  0  0  0  0
   -4.1893   -0.3538   -0.0464 C   0  0  0  0  0  0  0  0  0  0  0  0
   -4.0597   -0.9567   -1.2681 C   0  0  0  0  0  0  0  0  0  0  0  0
   -5.2689   -1.0486   -1.9970 C   0  0  0  0  0  0  0  0  0  0  0  0
   -6.4567   -0.5721   -1.5064 C   0  0  0  0  0  0  0  0  0  0  0  0
   -2.8559   -1.5136   -1.8229 C   0  0  0  0  0  0  0  0  0  0  0  0
   -2.9541   -1.8852   -3.0711 O   0  0  0  0  0  0  0  0  0  0  0  0
   -1.6051   -1.7290   -1.2673 N   0  0  0  0  0  0  0  0  0  0  0  0
   -1.1825   -1.4757    0.0656 C   0  0  0  0  0  0  0  0  0  0  0  0
    0.1661   -2.1470    0.3686 C   0  0  0  0  0  0  0  0  0  0  0  0
    1.1982   -1.6030   -0.5662 C   0  0  0  0  0  0  0  0  0  0  0  0
    0.6246   -1.2772   -1.9324 C   0  0  0  0  0  0  0  0  0  0  0  0
   -0.5158   -2.2807   -2.1479 C   0  0  0  0  0  0  0  0  0  0  0  0
    1.8962   -0.4895   -0.0026 N   0  0  0  0  0  0  0  0  0  0  0  0
    3.3225   -0.5996    0.2287 C   0  0  0  0  0  0  0  0  0  0  0  0
    3.8804   -1.6876   -0.0882 O   0  0  0  0  0  0  0  0  0  0  0  0
    4.0303    0.4740    0.7849 N   0  0  0  0  0  0  0  0  0  0  0  0
    5.4051    0.4749    1.0327 C   0  0  0  0  0  0  0  0  0  0  0  0
    6.3051   -0.3142    0.3674 C   0  0  0  0  0  0  0  0  0  0  0  0
    7.6643   -0.2782    0.7042 C   0  0  0  0  0  0  0  0  0  0  0  0
    8.1354    0.5418    1.7017 C   0  0  0  0  0  0  0  0  0  0  0  0
    9.4758    0.5670    2.0234 O   0  0  0  0  0  0  0  0  0  0  0  0
   10.3186    1.4751    1.3646 C   0  0  0  0  0  0  0  0  0  0  0  0
   11.6002    1.2783    1.8837 F   0  0  0  0  0  0  0  0  0  0  0  0
    9.9524    2.7933    1.6315 F   0  0  0  0  0  0  0  0  0  0  0  0
   10.3804    1.3129    0.0062 F   0  0  0  0  0  0  0  0  0  0  0  0
    7.1926    1.3207    2.3448 C   0  0  0  0  0  0  0  0  0  0  0  0
    5.8756    1.3206    2.0572 C   0  0  0  0  0  0  0  0  0  0  0  0
   -6.6386    2.6618    1.3914 H   0  0  0  0  0  0  0  0  0  0  0  0
   -6.2333    3.0701   -0.3639 H   0  0  0  0  0  0  0  0  0  0  0  0
   -7.4807    3.9715    0.5266 H   0  0  0  0  0  0  0  0  0  0  0  0
   -8.3543    2.1145   -1.1166 H   0  0  0  0  0  0  0  0  0  0  0  0
   -9.0173    2.2428    0.5179 H   0  0  0  0  0  0  0  0  0  0  0  0
   -7.7612    0.4365    1.3854 H   0  0  0  0  0  0  0  0  0  0  0  0
   -8.6279   -0.0661   -0.1100 H   0  0  0  0  0  0  0  0  0  0  0  0
   -5.4269    0.6035    1.4499 H   0  0  0  0  0  0  0  0  0  0  0  0
   -3.3300   -0.2113    0.5786 H   0  0  0  0  0  0  0  0  0  0  0  0
   -5.2223   -1.5148   -2.9642 H   0  0  0  0  0  0  0  0  0  0  0  0
   -7.3735   -0.6534   -2.0822 H   0  0  0  0  0  0  0  0  0  0  0  0
   -1.8797   -1.9232    0.8376 H   0  0  0  0  0  0  0  0  0  0  0  0
   -1.0214   -0.4118    0.3001 H   0  0  0  0  0  0  0  0  0  0  0  0
    0.4240   -2.0045    1.4355 H   0  0  0  0  0  0  0  0  0  0  0  0
    0.0553   -3.2256    0.2112 H   0  0  0  0  0  0  0  0  0  0  0  0
    1.9283   -2.4300   -0.7507 H   0  0  0  0  0  0  0  0  0  0  0  0
    1.4062   -1.3937   -2.6936 H   0  0  0  0  0  0  0  0  0  0  0  0
    0.1514   -0.2709   -1.9520 H   0  0  0  0  0  0  0  0  0  0  0  0
   -0.8702   -2.2790   -3.1968 H   0  0  0  0  0  0  0  0  0  0  0  0
   -0.1904   -3.2608   -1.7924 H   0  0  0  0  0  0  0  0  0  0  0  0
    1.4179    0.3944    0.2459 H   0  0  0  0  0  0  0  0  0  0  0  0
    3.4806    1.3536    1.0334 H   0  0  0  0  0  0  0  0  0  0  0  0
    6.0232   -0.9726   -0.4378 H   0  0  0  0  0  0  0  0  0  0  0  0
    8.3479   -0.9135    0.1597 H   0  0  0  0  0  0  0  0  0  0  0  0
    7.5453    1.9784    3.1375 H   0  0  0  0  0  0  0  0  0  0  0  0
    5.1332    1.9438    2.5755 H   0  0  0  0  0  0  0  0  0  0  0  0
  1  2  1  0
  2  3  1  0
  3  4  1  0
  4  5  2  0
  5  6  1  0
  6  7  2  0
  7  8  1  0
  8  9  2  0
  7 10  1  0
 10 11  2  0
 10 12  1  0
 12 13  1  0
 13 14  1  0
 14 15  1  0
 15 16  1  0
 16 17  1  0
 15 18  1  0
 18 19  1  0
 19 20  2  0
 19 21  1  0
 21 22  1  0
 22 23  2  0
 23 24  1  0
 24 25  2  0
 25 26  1  0
 26 27  1  0
 27 28  1  0
 27 29  1  0
 27 30  1  0
 25 31  1  0
 31 32  2  0
  9  4  1  0
 17 12  1  0
 32 22  1  0
  1 33  1  0
  1 34  1  0
  1 35  1  0
  2 36  1  0
  2 37  1  0
  3 38  1  0
  3 39  1  0
  5 40  1  0
  6 41  1  0
  8 42  1  0
  9 43  1  0
 13 44  1  0
 13 45  1  0
 14 46  1  0
 14 47  1  0
 15 48  1  0
 16 49  1  0
 16 50  1  0
 17 51  1  0
 17 52  1  0
 18 53  1  0
 21 54  1  0
 23 55  1  0
 24 56  1  0
 31 57  1  0
 32 58  1  0
M  END
$$$$
[H]c1nc([H])c(-c2c([H])c([H])c(C([H])([H])C([H])([H])Oc3c([H])c([H])c(Cl)c(C(F)(F)F)c3[H])c([H])c2[H])o1
     RDKit          3D

 38 40  0  0  0  0  0  0  0  0999 V2000
   -0.6578   -0.8554   -0.9458 C   0  0  0  0  0  0  0  0  0  0  0  0
   -0.1068   -0.6144    0.4329 C   0  0  0  0  0  0  0  0  0  0  0  0
    1.3807   -0.3781    0.3511 C   0  0  0  0  0  0  0  0  0  0  0  0
    1.8497    0.9045    0.1892 C   0  0  0  0  0  0  0  0  0  0  0  0
    3.2014    1.1136    0.1146 C   0  0  0  0  0  0  0  0  0  0  0  0
    4.1264    0.0988    0.1938 C   0  0  0  0  0  0  0  0  0  0  0  0
    3.6352   -1.1766    0.3558 C   0  0  0  0  0  0  0  0  0  0  0  0
    2.2676   -1.4207    0.4349 C   0  0  0  0  0  0  0  0  0  0  0  0
    5.5614    0.3679    0.1093 C   0  0  0  0  0  0  0  0  0  0  0  0
    6.5607   -0.5821    0.1784 C   0  0  0  0  0  0  0  0  0  0  0  0
    7.7297    0.0704    0.0609 N   0  0  0  0  0  0  0  0  0  0  0  0
    7.4691    1.3920   -0.0779 C   0  0  0  0  0  0  0  0  0  0  0  0
    6.1740    1.5064   -0.0419 O   0  0  0  0  0  0  0  0  0  0  0  0
   -2.0102   -1.0785   -1.0052 O   0  0  0  0  0  0  0  0  0  0  0  0
   -3.0793   -0.3004   -0.6910 C   0  0  0  0  0  0  0  0  0  0  0  0
   -3.0121    0.9898   -0.2280 C   0  0  0  0  0  0  0  0  0  0  0  0
   -4.1304    1.7337    0.0787 C   0  0  0  0  0  0  0  0  0  0  0  0
   -5.3844    1.1905   -0.0749 C   0  0  0  0  0  0  0  0  0  0  0  0
   -6.8266    2.1271    0.3124 Cl  0  0  0  0  0  0  0  0  0  0  0  0
   -5.4943   -0.0997   -0.5372 C   0  0  0  0  0  0  0  0  0  0  0  0
   -4.3706   -0.8181   -0.8345 C   0  0  0  0  0  0  0  0  0  0  0  0
   -6.8610   -0.7030   -0.7090 C   0  0  0  0  0  0  0  0  0  0  0  0
   -7.5857    0.0512   -1.6140 F   0  0  0  0  0  0  0  0  0  0  0  0
   -6.7249   -1.9662   -1.2421 F   0  0  0  0  0  0  0  0  0  0  0  0
   -7.5447   -0.7205    0.4943 F   0  0  0  0  0  0  0  0  0  0  0  0
   -0.3196    0.0053   -1.6034 H   0  0  0  0  0  0  0  0  0  0  0  0
   -0.0984   -1.7354   -1.3909 H   0  0  0  0  0  0  0  0  0  0  0  0
   -0.1948   -1.5701    1.0180 H   0  0  0  0  0  0  0  0  0  0  0  0
   -0.5772    0.1491    1.0284 H   0  0  0  0  0  0  0  0  0  0  0  0
    1.1202    1.7219    0.1248 H   0  0  0  0  0  0  0  0  0  0  0  0
    3.5819    2.1247   -0.0134 H   0  0  0  0  0  0  0  0  0  0  0  0
    4.3213   -2.0078    0.4233 H   0  0  0  0  0  0  0  0  0  0  0  0
    1.9094   -2.4325    0.5622 H   0  0  0  0  0  0  0  0  0  0  0  0
    6.4109   -1.6434    0.3035 H   0  0  0  0  0  0  0  0  0  0  0  0
    8.2315    2.1635   -0.1935 H   0  0  0  0  0  0  0  0  0  0  0  0
   -2.0652    1.4754   -0.1015 H   0  0  0  0  0  0  0  0  0  0  0  0
   -4.0229    2.7536    0.4434 H   0  0  0  0  0  0  0  0  0  0  0  0
   -4.4640   -1.8362   -1.1991 H   0  0  0  0  0  0  0  0  0  0  0  0
  1  2  1  0
  2  3  1  0
  3  4  2  0
  4  5  1  0
  5  6  2  0
  6  7  1  0
  7  8  2  0
  6  9  1  0
  9 10  2  0
 10 11  1  0
 11 12  2  0
 12 13  1  0
  1 14  1  0
 14 15  1  0
 15 16  2  0
 16 17  1  0
 17 18  2  0
 18 19  1  0
 18 20  1  0
 20 21  2  0
 20 22  1  0
 22 23  1  0
 22 24  1  0
 22 25  1  0
  8  3  1  0
 13  9  1  0
 21 15  1  0
  1 26  1  0
  1 27  1  0
  2 28  1  0
  2 29  1  0
  4 30  1  0
  5 31  1  0
  7 32  1  0
  8 33  1  0
 10 34  1  0
 12 35  1  0
 16 36  1  0
 17 37  1  0
 21 38  1  0
M  END
$$$$
[H]c1nc(C([H])([H])[H])c([H])c(-c2c([H])nc(N([H])S(=O)(=O)c3c([H])c([H])c(OC([H])([H])[H])c([H])c3[H])nc2C([H])([H])[H])c1[H]
     RDKit          3D

 44 46  0  0  0  0  0  0  0  0999 V2000
    5.0470   -2.5458    1.2346 C   0  0  0  0  0  0  0  0  0  0  0  0
    5.3204   -1.2275    0.8162 O   0  0  0  0  0  0  0  0  0  0  0  0
    4.5254   -0.6178   -0.1463 C   0  0  0  0  0  0  0  0  0  0  0  0
    4.7884    0.6697   -0.5583 C   0  0  0  0  0  0  0  0  0  0  0  0
    4.0022    1.2783   -1.5126 C   0  0  0  0  0  0  0  0  0  0  0  0
    2.9396    0.5987   -2.0657 C   0  0  0  0  0  0  0  0  0  0  0  0
    2.6456   -0.6824   -1.6833 C   0  0  0  0  0  0  0  0  0  0  0  0
    3.4626   -1.2685   -0.7140 C   0  0  0  0  0  0  0  0  0  0  0  0
    1.9843    1.3806   -3.2719 S   0  0  0  0  0  0  0  0  0  0  0  0
    1.2325    0.3867   -4.1285 O   0  0  0  0  0  0  0  0  0  0  0  0
    2.8767    2.1404   -4.2314 O   0  0  0  0  0  0  0  0  0  0  0  0
    0.8223    2.4799   -2.6515 N   0  0  0  0  0  0  0  0  0  0  0  0
   -0.2045    1.9999   -1.7943 C   0  0  0  0  0  0  0  0  0  0  0  0
   -1.1336    2.8671   -1.2936 N   0  0  0  0  0  0  0  0  0  0  0  0
   -2.1318    2.4871   -0.4810 C   0  0  0  0  0  0  0  0  0  0  0  0
   -2.2412    1.1499   -0.1204 C   0  0  0  0  0  0  0  0  0  0  0  0
   -3.3015    0.7022    0.7730 C   0  0  0  0  0  0  0  0  0  0  0  0
   -4.6338    1.0353    0.4967 C   0  0  0  0  0  0  0  0  0  0  0  0
   -5.6503    0.6432    1.3279 C   0  0  0  0  0  0  0  0  0  0  0  0
   -5.3367   -0.0726    2.4208 N   0  0  0  0  0  0  0  0  0  0  0  0
   -4.0807   -0.4209    2.7368 C   0  0  0  0  0  0  0  0  0  0  0  0
   -3.7973   -1.2289    3.9842 C   0  0  0  0  0  0  0  0  0  0  0  0
   -3.0626   -0.0291    1.9059 C   0  0  0  0  0  0  0  0  0  0  0  0
   -1.3266    0.2695   -0.6084 C   0  0  0  0  0  0  0  0  0  0  0  0
   -1.4151   -1.1653   -0.2645 C   0  0  0  0  0  0  0  0  0  0  0  0
   -0.3299    0.7186   -1.4341 N   0  0  0  0  0  0  0  0  0  0  0  0
    5.0351   -3.1672    0.2914 H   0  0  0  0  0  0  0  0  0  0  0  0
    5.8564   -2.8686    1.9029 H   0  0  0  0  0  0  0  0  0  0  0  0
    4.0718   -2.5988    1.7549 H   0  0  0  0  0  0  0  0  0  0  0  0
    5.6235    1.2448   -0.1438 H   0  0  0  0  0  0  0  0  0  0  0  0
    4.2491    2.3009   -1.8081 H   0  0  0  0  0  0  0  0  0  0  0  0
    1.8102   -1.2617   -2.1094 H   0  0  0  0  0  0  0  0  0  0  0  0
    3.2355   -2.2929   -0.4011 H   0  0  0  0  0  0  0  0  0  0  0  0
    0.8701    3.5066   -2.9049 H   0  0  0  0  0  0  0  0  0  0  0  0
   -2.8663    3.1769   -0.0861 H   0  0  0  0  0  0  0  0  0  0  0  0
   -4.8119    1.6101   -0.3954 H   0  0  0  0  0  0  0  0  0  0  0  0
   -6.6853    0.9132    1.0952 H   0  0  0  0  0  0  0  0  0  0  0  0
   -3.9006   -2.2993    3.6463 H   0  0  0  0  0  0  0  0  0  0  0  0
   -4.5517   -1.0017    4.7362 H   0  0  0  0  0  0  0  0  0  0  0  0
   -2.7624   -1.0167    4.2585 H   0  0  0  0  0  0  0  0  0  0  0  0
   -2.0510   -0.3103    2.1740 H   0  0  0  0  0  0  0  0  0  0  0  0
   -0.7150   -1.4258    0.5622 H   0  0  0  0  0  0  0  0  0  0  0  0
   -0.9810   -1.7292   -1.1519 H   0  0  0  0  0  0  0  0  0  0  0  0
   -2.4277   -1.5593   -0.1573 H   0  0  0  0  0  0  0  0  0  0  0  0
  1  2  1  0
  2  3  1  0
  3  4  2  0
  4  5  1  0
  5  6  2  0
  6  7  1  0
  7  8  2  0
  6  9  1  0
  9 10  2  0
  9 11  2  0
  9 12  1  0
 12 13  1  0
 13 14  2  0
 14 15  1  0
 15 16  2  0
 16 17  1  0
 17 18  2  0
 18 19  1  0
 19 20  2  0
 20 21  1  0
 21 22  1  0
 21 23  2  0
 16 24  1  0
 24 25  1  0
 24 26  2  0
  8  3  1  0
 26 13  1  0
 23 17  1  0
  1 27  1  0
  1 28  1  0
  1 29  1  0
  4 30  1  0
  5 31  1  0
  7 32  1  0
  8 33  1  0
 12 34  1  0
 15 35  1  0
 18 36  1  0
 19 37  1  0
 22 38  1  0
 22 39  1  0
 22 40  1  0
 23 41  1  0
 25 42  1  0
 25 43  1  0
 25 44  1  0
M  END
$$$$
[H]N(C1=NC([H])([H])C([H])([H])O1)C1([H])C([H])([H])C([H])([H])C([H])([H])C([H])([H])C1([H])[H]
     RDKit          3D

 28 29  0  0  0  0  0  0  0  0999 V2000
   -3.9869   -0.3104   -0.4703 C   0  0  0  0  0  0  0  0  0  0  0  0
   -3.6790   -0.5053    0.9855 C   0  0  0  0  0  0  0  0  0  0  0  0
   -2.4394    0.2100    1.1672 N   0  0  0  0  0  0  0  0  0  0  0  0
   -1.8962    0.4160    0.0276 C   0  0  0  0  0  0  0  0  0  0  0  0
   -0.6698    1.0805   -0.2802 N   0  0  0  0  0  0  0  0  0  0  0  0
    0.4814    0.2769   -0.6326 C   0  0  0  0  0  0  0  0  0  0  0  0
    0.7665   -0.6281    0.5657 C   0  0  0  0  0  0  0  0  0  0  0  0
    2.0585   -1.3533    0.2555 C   0  0  0  0  0  0  0  0  0  0  0  0
    3.1764   -0.3477    0.2824 C   0  0  0  0  0  0  0  0  0  0  0  0
    2.7116    1.0596    0.0403 C   0  0  0  0  0  0  0  0  0  0  0  0
    1.6659    1.0942   -1.0256 C   0  0  0  0  0  0  0  0  0  0  0  0
   -2.6862   -0.1200   -1.0044 O   0  0  0  0  0  0  0  0  0  0  0  0
   -4.4214   -1.1890   -0.9624 H   0  0  0  0  0  0  0  0  0  0  0  0
   -4.5556    0.6183   -0.6830 H   0  0  0  0  0  0  0  0  0  0  0  0
   -4.4736   -0.1203    1.6576 H   0  0  0  0  0  0  0  0  0  0  0  0
   -3.4697   -1.5798    1.1507 H   0  0  0  0  0  0  0  0  0  0  0  0
   -0.6457    2.1201   -0.2407 H   0  0  0  0  0  0  0  0  0  0  0  0
    0.2291   -0.4365   -1.4705 H   0  0  0  0  0  0  0  0  0  0  0  0
   -0.0936   -1.3359    0.6228 H   0  0  0  0  0  0  0  0  0  0  0  0
    0.8124   -0.0385    1.4822 H   0  0  0  0  0  0  0  0  0  0  0  0
    2.2266   -2.1983    0.9582 H   0  0  0  0  0  0  0  0  0  0  0  0
    1.9440   -1.7572   -0.7895 H   0  0  0  0  0  0  0  0  0  0  0  0
    3.8974   -0.6233   -0.5032 H   0  0  0  0  0  0  0  0  0  0  0  0
    3.6290   -0.3779    1.3116 H   0  0  0  0  0  0  0  0  0  0  0  0
    3.5894    1.6521   -0.3430 H   0  0  0  0  0  0  0  0  0  0  0  0
    2.2882    1.5424    0.9579 H   0  0  0  0  0  0  0  0  0  0  0  0
    1.4216    2.1589   -1.2248 H   0  0  0  0  0  0  0  0  0  0  0  0
    2.1191    0.6926   -1.9639 H   0  0  0  0  0  0  0  0  0  0  0  0
  1  2  1  0
  2  3  1  0
  3  4  2  0
  4  5  1  0
  5  6  1  0
  6  7  1  0
  7  8  1  0
  8  9  1  0
  9 10  1  0
 10 11  1  0
  4 12  1  0
 12  1  1  0
 11  6  1  0
  1 13  1  0
  1 14  1  0
  2 15  1  0
  2 16  1  0
  5 17  1  0
  6 18  1  0
  7 19  1  0
  7 20  1  0
  8 21  1  0
  8 22  1  0
  9 23  1  0
  9 24  1  0
 10 25  1  0
 10 26  1  0
 11 27  1  0
 11 28  1  0
M  END
$$$$
[H]c1c([H])c([H])c(N(C(=O)c2c([H])c3c([H])c([H])c([H])c([H])c3n(C([H])([H])c3c([H])c([H])c([H])c([H])c3F)c2=O)C([H])([H])[H])c([H])c1[H]
     RDKit          3D

 48 51  0  0  0  0  0  0  0  0999 V2000
    2.8188    1.2339   -1.0282 C   0  0  0  0  0  0  0  0  0  0  0  0
    2.9858    0.3307    0.1206 N   0  0  0  0  0  0  0  0  0  0  0  0
    1.9542   -0.5493    0.5002 C   0  0  0  0  0  0  0  0  0  0  0  0
    2.1284   -1.2981    1.4768 O   0  0  0  0  0  0  0  0  0  0  0  0
    0.7105   -0.5757   -0.2417 C   0  0  0  0  0  0  0  0  0  0  0  0
    0.5357   -1.4288   -1.3379 C   0  0  0  0  0  0  0  0  0  0  0  0
   -0.6386   -1.4718   -2.0589 C   0  0  0  0  0  0  0  0  0  0  0  0
   -0.7305   -2.3393   -3.1263 C   0  0  0  0  0  0  0  0  0  0  0  0
   -1.9058   -2.3732   -3.8390 C   0  0  0  0  0  0  0  0  0  0  0  0
   -2.9598   -1.5556   -3.4861 C   0  0  0  0  0  0  0  0  0  0  0  0
   -2.8404   -0.6976   -2.4140 C   0  0  0  0  0  0  0  0  0  0  0  0
   -1.6767   -0.6352   -1.6748 C   0  0  0  0  0  0  0  0  0  0  0  0
   -1.5459    0.2050   -0.6190 N   0  0  0  0  0  0  0  0  0  0  0  0
   -2.5885    1.0855   -0.2250 C   0  0  0  0  0  0  0  0  0  0  0  0
   -3.5799    0.6028    0.7323 C   0  0  0  0  0  0  0  0  0  0  0  0
   -4.6147    1.5146    1.0107 C   0  0  0  0  0  0  0  0  0  0  0  0
   -5.6214    1.2070    1.8873 C   0  0  0  0  0  0  0  0  0  0  0  0
   -5.6668   -0.0065    2.5351 C   0  0  0  0  0  0  0  0  0  0  0  0
   -4.6616   -0.9075    2.2725 C   0  0  0  0  0  0  0  0  0  0  0  0
   -3.6400   -0.5840    1.3772 C   0  0  0  0  0  0  0  0  0  0  0  0
   -2.6569   -1.4976    1.1394 F   0  0  0  0  0  0  0  0  0  0  0  0
   -0.3734    0.2181    0.0661 C   0  0  0  0  0  0  0  0  0  0  0  0
   -0.2428    0.9987    1.0523 O   0  0  0  0  0  0  0  0  0  0  0  0
    4.2231    0.3775    0.8328 C   0  0  0  0  0  0  0  0  0  0  0  0
    4.2713    0.5815    2.1992 C   0  0  0  0  0  0  0  0  0  0  0  0
    5.4797    0.6229    2.8687 C   0  0  0  0  0  0  0  0  0  0  0  0
    6.6807    0.4645    2.2118 C   0  0  0  0  0  0  0  0  0  0  0  0
    6.6345    0.2609    0.8485 C   0  0  0  0  0  0  0  0  0  0  0  0
    5.4292    0.2192    0.1788 C   0  0  0  0  0  0  0  0  0  0  0  0
    2.6858    0.6711   -1.9662 H   0  0  0  0  0  0  0  0  0  0  0  0
    3.6612    1.9354   -1.0891 H   0  0  0  0  0  0  0  0  0  0  0  0
    1.8989    1.8228   -0.8637 H   0  0  0  0  0  0  0  0  0  0  0  0
    1.3862   -2.0526   -1.5804 H   0  0  0  0  0  0  0  0  0  0  0  0
    0.0955   -2.9927   -3.4177 H   0  0  0  0  0  0  0  0  0  0  0  0
   -1.9828   -3.0551   -4.6809 H   0  0  0  0  0  0  0  0  0  0  0  0
   -3.8919   -1.5989   -4.0706 H   0  0  0  0  0  0  0  0  0  0  0  0
   -3.6837   -0.0743   -2.1618 H   0  0  0  0  0  0  0  0  0  0  0  0
   -2.1651    2.0370    0.2556 H   0  0  0  0  0  0  0  0  0  0  0  0
   -3.1231    1.5273   -1.1212 H   0  0  0  0  0  0  0  0  0  0  0  0
   -4.6418    2.4982    0.5314 H   0  0  0  0  0  0  0  0  0  0  0  0
   -6.4225    1.9120    2.1033 H   0  0  0  0  0  0  0  0  0  0  0  0
   -6.4647   -0.2577    3.2336 H   0  0  0  0  0  0  0  0  0  0  0  0
   -4.6605   -1.8740    2.7620 H   0  0  0  0  0  0  0  0  0  0  0  0
    3.3149    0.7038    2.6973 H   0  0  0  0  0  0  0  0  0  0  0  0
    5.4979    0.7841    3.9414 H   0  0  0  0  0  0  0  0  0  0  0  0
    7.6247    0.5002    2.7569 H   0  0  0  0  0  0  0  0  0  0  0  0
    7.5816    0.1340    0.3174 H   0  0  0  0  0  0  0  0  0  0  0  0
    5.3811    0.0576   -0.9066 H   0  0  0  0  0  0  0  0  0  0  0  0
  1  2  1  0
  2  3  1  0
  3  4  2  0
  3  5  1  0
  5  6  2  0
  6  7  1  0
  7  8  2  0
  8  9  1  0
  9 10  2  0
 10 11  1  0
 11 12  2  0
 12 13  1  0
 13 14  1  0
 14 15  1  0
 15 16  2  0
 16 17  1  0
 17 18  2  0
 18 19  1  0
 19 20  2  0
 20 21  1  0
 13 22  1  0
 22 23  2  0
  2 24  1  0
 24 25  2  0
 25 26  1  0
 26 27  2  0
 27 28  1  0
 28 29  2  0
 22  5  1  0
 29 24  1  0
 12  7  1  0
 20 15  1  0
  1 30  1  0
  1 31  1  0
  1 32  1  0
  6 33  1  0
  8 34  1  0
  9 35  1  0
 10 36  1  0
 11 37  1  0
 14 38  1  0
 14 39  1  0
 16 40  1  0
 17 41  1  0
 18 42  1  0
 19 43  1  0
 25 44  1  0
 26 45  1  0
 27 46  1  0
 28 47  1  0
 29 48  1  0
M  END
$$$$
[H]c1c([H])c(S(=O)(=O)C([H])([H])[H])c([H])c(OC([H])([H])C([H])([H])[H])c1C(=O)N([H])C([H])([H])[C@@]1([H])N(C(=O)OC(C([H])([H])[H])(C([H])([H])[H])C([H])([H])[H])C([H])([H])C([H])([H])C1([H])[H]
     RDKit          3D

 59 60  0  0  0  0  0  0  0  0999 V2000
   -4.5692   -1.5957   -2.3878 C   0  0  0  0  0  0  0  0  0  0  0  0
   -3.7196   -2.2135   -1.3068 C   0  0  0  0  0  0  0  0  0  0  0  0
   -3.0632   -1.2348   -0.5872 O   0  0  0  0  0  0  0  0  0  0  0  0
   -3.6257   -0.2751    0.1718 C   0  0  0  0  0  0  0  0  0  0  0  0
   -5.0217   -0.2313    0.2999 C   0  0  0  0  0  0  0  0  0  0  0  0
   -5.6415    0.7251    1.0634 C   0  0  0  0  0  0  0  0  0  0  0  0
   -4.8355    1.6370    1.6972 C   0  0  0  0  0  0  0  0  0  0  0  0
   -3.4688    1.6134    1.5871 C   0  0  0  0  0  0  0  0  0  0  0  0
   -2.8022    0.6477    0.8130 C   0  0  0  0  0  0  0  0  0  0  0  0
   -1.3642    0.6747    0.7343 C   0  0  0  0  0  0  0  0  0  0  0  0
   -0.8117    1.6198    1.4145 O   0  0  0  0  0  0  0  0  0  0  0  0
   -0.4855   -0.1495    0.0478 N   0  0  0  0  0  0  0  0  0  0  0  0
    0.9287   -0.1392   -0.0123 C   0  0  0  0  0  0  0  0  0  0  0  0
    1.7723   -0.4339    1.1334 C   0  0  2  0  0  0  0  0  0  0  0  0
    1.7419    0.3613    2.3715 C   0  0  0  0  0  0  0  0  0  0  0  0
    3.0261   -0.1128    3.0946 C   0  0  0  0  0  0  0  0  0  0  0  0
    3.7752   -0.9471    2.0779 C   0  0  0  0  0  0  0  0  0  0  0  0
    3.1913   -0.4921    0.8421 N   0  0  0  0  0  0  0  0  0  0  0  0
    3.8963   -0.1949   -0.3295 C   0  0  0  0  0  0  0  0  0  0  0  0
    3.3800    0.2058   -1.4200 O   0  0  0  0  0  0  0  0  0  0  0  0
    5.2863   -0.3179   -0.4059 O   0  0  0  0  0  0  0  0  0  0  0  0
    6.0306   -0.0276   -1.5689 C   0  0  0  0  0  0  0  0  0  0  0  0
    7.4920   -0.2906   -1.2278 C   0  0  0  0  0  0  0  0  0  0  0  0
    5.9328    1.4318   -1.9594 C   0  0  0  0  0  0  0  0  0  0  0  0
    5.5894   -0.8386   -2.7632 C   0  0  0  0  0  0  0  0  0  0  0  0
   -7.3691    0.7850    1.2252 S   0  0  0  0  0  0  0  0  0  0  0  0
   -8.0877    1.8005   -0.0331 C   0  0  0  0  0  0  0  0  0  0  0  0
   -7.9192   -0.6214    1.1762 O   0  0  0  0  0  0  0  0  0  0  0  0
   -7.7892    1.3537    2.5615 O   0  0  0  0  0  0  0  0  0  0  0  0
   -5.6266   -1.9448   -2.3609 H   0  0  0  0  0  0  0  0  0  0  0  0
   -4.1320   -1.8446   -3.3685 H   0  0  0  0  0  0  0  0  0  0  0  0
   -4.5391   -0.4707   -2.3068 H   0  0  0  0  0  0  0  0  0  0  0  0
   -2.9186   -2.8281   -1.8251 H   0  0  0  0  0  0  0  0  0  0  0  0
   -4.3248   -2.9029   -0.6628 H   0  0  0  0  0  0  0  0  0  0  0  0
   -5.6513   -0.9582   -0.1855 H   0  0  0  0  0  0  0  0  0  0  0  0
   -5.3372    2.3930    2.3015 H   0  0  0  0  0  0  0  0  0  0  0  0
   -2.8599    2.3481    2.1007 H   0  0  0  0  0  0  0  0  0  0  0  0
   -0.9578   -0.9261   -0.5363 H   0  0  0  0  0  0  0  0  0  0  0  0
    1.2463   -0.8430   -0.8470 H   0  0  0  0  0  0  0  0  0  0  0  0
    1.2547    0.8597   -0.4304 H   0  0  0  0  0  0  0  0  0  0  0  0
    1.5518   -1.5226    1.4747 H   0  0  0  0  0  0  0  0  0  0  0  0
    0.8706    0.0981    3.0199 H   0  0  0  0  0  0  0  0  0  0  0  0
    1.9014    1.4436    2.2451 H   0  0  0  0  0  0  0  0  0  0  0  0
    2.7407   -0.7519    3.9635 H   0  0  0  0  0  0  0  0  0  0  0  0
    3.6648    0.7135    3.3978 H   0  0  0  0  0  0  0  0  0  0  0  0
    3.5203   -2.0357    2.2139 H   0  0  0  0  0  0  0  0  0  0  0  0
    4.8687   -0.7834    2.1246 H   0  0  0  0  0  0  0  0  0  0  0  0
    7.6800   -1.3720   -1.3365 H   0  0  0  0  0  0  0  0  0  0  0  0
    7.6278   -0.0074   -0.1636 H   0  0  0  0  0  0  0  0  0  0  0  0
    8.1791    0.3325   -1.8346 H   0  0  0  0  0  0  0  0  0  0  0  0
    6.9022    1.7403   -2.4041 H   0  0  0  0  0  0  0  0  0  0  0  0
    5.1799    1.5765   -2.7883 H   0  0  0  0  0  0  0  0  0  0  0  0
    5.7429    2.0941   -1.1115 H   0  0  0  0  0  0  0  0  0  0  0  0
    6.5128   -1.2989   -3.2016 H   0  0  0  0  0  0  0  0  0  0  0  0
    4.8825   -1.6347   -2.5254 H   0  0  0  0  0  0  0  0  0  0  0  0
    5.1735   -0.2001   -3.5780 H   0  0  0  0  0  0  0  0  0  0  0  0
   -8.3087    1.1479   -0.9045 H   0  0  0  0  0  0  0  0  0  0  0  0
   -7.3326    2.5342   -0.3535 H   0  0  0  0  0  0  0  0  0  0  0  0
   -8.9800    2.3039    0.3627 H   0  0  0  0  0  0  0  0  0  0  0  0
  1  2  1  0
  2  3  1  0
  3  4  1  0
  4  5  2  0
  5  6  1  0
  6  7  2  0
  7  8  1  0
  8  9  2  0
  9 10  1  0
 10 11  2  0
 10 12  1  0
 12 13  1  0
 13 14  1  0
 14 15  1  0
 15 16  1  0
 16 17  1  0
 17 18  1  0
 18 19  1  0
 19 20  2  0
 19 21  1  0
 21 22  1  0
 22 23  1  0
 22 24  1  0
 22 25  1  0
  6 26  1  0
 26 27  1  0
 26 28  2  0
 26 29  2  0
  9  4  1  0
 18 14  1  0
  1 30  1  0
  1 31  1  0
  1 32  1  0
  2 33  1  0
  2 34  1  0
  5 35  1  0
  7 36  1  0
  8 37  1  0
 12 38  1  0
 13 39  1  0
 13 40  1  0
 14 41  1  1
 15 42  1  0
 15 43  1  0
 16 44  1  0
 16 45  1  0
 17 46  1  0
 17 47  1  0
 23 48  1  0
 23 49  1  0
 23 50  1  0
 24 51  1  0
 24 52  1  0
 24 53  1  0
 25 54  1  0
 25 55  1  0
 25 56  1  0
 27 57  1  0
 27 58  1  0
 27 59  1  0
M  END
$$$$
[H]c1nc2c(N([H])c3c([H])c([H])c(N4C([H])([H])C([H])([H])N(C([H])([H])C([H])([H])[H])C([H])([H])C4([H])[H])c([H])c3[H])c(C([H])([H])[H])c([H])nc2c([H])c1Cl
     RDKit          3D

 51 54  0  0  0  0  0  0  0  0999 V2000
    7.1799    1.6164    0.4520 C   0  0  0  0  0  0  0  0  0  0  0  0
    6.2466    0.8357    1.3487 C   0  0  0  0  0  0  0  0  0  0  0  0
    4.8585    1.2321    1.1404 N   0  0  0  0  0  0  0  0  0  0  0  0
    4.0004    0.4612    2.0156 C   0  0  0  0  0  0  0  0  0  0  0  0
    2.5497    0.7437    1.6288 C   0  0  0  0  0  0  0  0  0  0  0  0
    2.3626    0.1532    0.3159 N   0  0  0  0  0  0  0  0  0  0  0  0
    3.5345   -0.0564   -0.4866 C   0  0  0  0  0  0  0  0  0  0  0  0
    4.5210    1.0701   -0.2372 C   0  0  0  0  0  0  0  0  0  0  0  0
    1.0514   -0.1941   -0.1444 C   0  0  0  0  0  0  0  0  0  0  0  0
   -0.0392    0.1811    0.6257 C   0  0  0  0  0  0  0  0  0  0  0  0
   -1.2934   -0.1531    0.1934 C   0  0  0  0  0  0  0  0  0  0  0  0
   -1.5031   -0.8389   -0.9630 C   0  0  0  0  0  0  0  0  0  0  0  0
   -2.7985   -1.1554   -1.3610 N   0  0  0  0  0  0  0  0  0  0  0  0
   -3.9922   -0.8411   -0.6872 C   0  0  0  0  0  0  0  0  0  0  0  0
   -4.5301   -1.6960    0.2466 C   0  0  0  0  0  0  0  0  0  0  0  0
   -3.8045   -2.9488    0.5075 C   0  0  0  0  0  0  0  0  0  0  0  0
   -5.7214   -1.3759    0.9148 C   0  0  0  0  0  0  0  0  0  0  0  0
   -6.3398   -0.2150    0.6323 N   0  0  0  0  0  0  0  0  0  0  0  0
   -5.8348    0.6427   -0.2793 C   0  0  0  0  0  0  0  0  0  0  0  0
   -6.5188    1.8125   -0.5206 C   0  0  0  0  0  0  0  0  0  0  0  0
   -5.9860    2.6728   -1.4553 C   0  0  0  0  0  0  0  0  0  0  0  0
   -6.8220    4.1622   -1.7897 Cl  0  0  0  0  0  0  0  0  0  0  0  0
   -4.8121    2.3605   -2.1154 C   0  0  0  0  0  0  0  0  0  0  0  0
   -4.1562    1.2076   -1.8643 N   0  0  0  0  0  0  0  0  0  0  0  0
   -4.6447    0.3411   -0.9581 C   0  0  0  0  0  0  0  0  0  0  0  0
   -0.4241   -1.2023   -1.7113 C   0  0  0  0  0  0  0  0  0  0  0  0
    0.8826   -0.8877   -1.3187 C   0  0  0  0  0  0  0  0  0  0  0  0
    8.0787    1.9255    1.0190 H   0  0  0  0  0  0  0  0  0  0  0  0
    6.6159    2.5003    0.0631 H   0  0  0  0  0  0  0  0  0  0  0  0
    7.5334    1.0023   -0.4051 H   0  0  0  0  0  0  0  0  0  0  0  0
    6.5337    0.9707    2.4274 H   0  0  0  0  0  0  0  0  0  0  0  0
    6.3989   -0.2415    1.1268 H   0  0  0  0  0  0  0  0  0  0  0  0
    4.2042    0.7241    3.0565 H   0  0  0  0  0  0  0  0  0  0  0  0
    4.1758   -0.6405    1.9127 H   0  0  0  0  0  0  0  0  0  0  0  0
    1.8922    0.2420    2.3970 H   0  0  0  0  0  0  0  0  0  0  0  0
    2.3727    1.8173    1.5893 H   0  0  0  0  0  0  0  0  0  0  0  0
    4.0511   -1.0104   -0.2537 H   0  0  0  0  0  0  0  0  0  0  0  0
    3.3391   -0.0594   -1.5818 H   0  0  0  0  0  0  0  0  0  0  0  0
    4.1235    2.0323   -0.6362 H   0  0  0  0  0  0  0  0  0  0  0  0
    5.4196    0.8196   -0.8730 H   0  0  0  0  0  0  0  0  0  0  0  0
    0.1181    0.7401    1.5663 H   0  0  0  0  0  0  0  0  0  0  0  0
   -2.1343    0.1424    0.7982 H   0  0  0  0  0  0  0  0  0  0  0  0
   -2.8830   -1.6940   -2.2764 H   0  0  0  0  0  0  0  0  0  0  0  0
   -4.5638   -3.6893    0.8764 H   0  0  0  0  0  0  0  0  0  0  0  0
   -3.0484   -2.8739    1.2868 H   0  0  0  0  0  0  0  0  0  0  0  0
   -3.4132   -3.4252   -0.4341 H   0  0  0  0  0  0  0  0  0  0  0  0
   -6.1113   -2.0802    1.6451 H   0  0  0  0  0  0  0  0  0  0  0  0
   -7.4319    2.0260    0.0120 H   0  0  0  0  0  0  0  0  0  0  0  0
   -4.4465    3.0857   -2.8421 H   0  0  0  0  0  0  0  0  0  0  0  0
   -0.5146   -1.7581   -2.6574 H   0  0  0  0  0  0  0  0  0  0  0  0
    1.7239   -1.1990   -1.9464 H   0  0  0  0  0  0  0  0  0  0  0  0
  1  2  1  0
  2  3  1  0
  3  4  1  0
  4  5  1  0
  5  6  1  0
  6  7  1  0
  7  8  1  0
  6  9  1  0
  9 10  2  0
 10 11  1  0
 11 12  2  0
 12 13  1  0
 13 14  1  0
 14 15  2  0
 15 16  1  0
 15 17  1  0
 17 18  2  0
 18 19  1  0
 19 20  2  0
 20 21  1  0
 21 22  1  0
 21 23  2  0
 23 24  1  0
 24 25  2  0
 12 26  1  0
 26 27  2  0
  8  3  1  0
 27  9  1  0
 25 14  1  0
 25 19  1  0
  1 28  1  0
  1 29  1  0
  1 30  1  0
  2 31  1  0
  2 32  1  0
  4 33  1  0
  4 34  1  0
  5 35  1  0
  5 36  1  0
  7 37  1  0
  7 38  1  0
  8 39  1  0
  8 40  1  0
 10 41  1  0
 11 42  1  0
 13 43  1  0
 16 44  1  0
 16 45  1  0
 16 46  1  0
 17 47  1  0
 20 48  1  0
 23 49  1  0
 26 50  1  0
 27 51  1  0
M  END
$$$$
[H]c1c([H])c(F)c([H])c(C(=O)N([H])C([H])([H])c2c([H])c([H])c(-c3c([H])c4c([H])nc(N([H])C([H])([H])[H])nc4n(C([H])([H])[H])c3=O)c([H])c2[H])c1[H]
     RDKit          3D

 51 54  0  0  0  0  0  0  0  0999 V2000
   -8.3529    1.0933    1.0753 C   0  0  0  0  0  0  0  0  0  0  0  0
   -7.3033    2.0828    1.0907 N   0  0  0  0  0  0  0  0  0  0  0  0
   -5.9450    1.6853    0.8201 C   0  0  0  0  0  0  0  0  0  0  0  0
   -4.9772    2.6181    0.8378 N   0  0  0  0  0  0  0  0  0  0  0  0
   -3.7001    2.3089    0.5947 C   0  0  0  0  0  0  0  0  0  0  0  0
   -3.3938    0.9715    0.3179 C   0  0  0  0  0  0  0  0  0  0  0  0
   -2.0938    0.6038    0.0616 C   0  0  0  0  0  0  0  0  0  0  0  0
   -1.8232   -0.7161   -0.2066 C   0  0  0  0  0  0  0  0  0  0  0  0
   -0.4174   -1.0624   -0.4742 C   0  0  0  0  0  0  0  0  0  0  0  0
    0.5988   -0.5649    0.3150 C   0  0  0  0  0  0  0  0  0  0  0  0
    1.9278   -0.8726    0.0880 C   0  0  0  0  0  0  0  0  0  0  0  0
    2.2900   -1.7010   -0.9520 C   0  0  0  0  0  0  0  0  0  0  0  0
    3.7051   -2.0694   -1.2508 C   0  0  0  0  0  0  0  0  0  0  0  0
    4.6417   -1.3950   -0.4113 N   0  0  0  0  0  0  0  0  0  0  0  0
    4.9507   -0.0335   -0.6508 C   0  0  0  0  0  0  0  0  0  0  0  0
    4.4023    0.5943   -1.6065 O   0  0  0  0  0  0  0  0  0  0  0  0
    5.9015    0.7302    0.1661 C   0  0  0  0  0  0  0  0  0  0  0  0
    6.5565    0.1723    1.2466 C   0  0  0  0  0  0  0  0  0  0  0  0
    7.4405    0.9315    1.9827 C   0  0  0  0  0  0  0  0  0  0  0  0
    7.7101    2.2596    1.6835 C   0  0  0  0  0  0  0  0  0  0  0  0
    7.0632    2.8303    0.6071 C   0  0  0  0  0  0  0  0  0  0  0  0
    7.2944    4.1262    0.2753 F   0  0  0  0  0  0  0  0  0  0  0  0
    6.1848    2.0535   -0.1137 C   0  0  0  0  0  0  0  0  0  0  0  0
    1.2773   -2.2005   -1.7432 C   0  0  0  0  0  0  0  0  0  0  0  0
   -0.0505   -1.8911   -1.5139 C   0  0  0  0  0  0  0  0  0  0  0  0
   -2.8257   -1.6342   -0.2167 C   0  0  0  0  0  0  0  0  0  0  0  0
   -2.5589   -2.8558   -0.4674 O   0  0  0  0  0  0  0  0  0  0  0  0
   -4.1013   -1.2877    0.0323 N   0  0  0  0  0  0  0  0  0  0  0  0
   -5.2039   -2.2273    0.0327 C   0  0  0  0  0  0  0  0  0  0  0  0
   -4.3831    0.0143    0.2992 C   0  0  0  0  0  0  0  0  0  0  0  0
   -5.6665    0.3954    0.5556 N   0  0  0  0  0  0  0  0  0  0  0  0
   -7.9565    0.1899    1.5775 H   0  0  0  0  0  0  0  0  0  0  0  0
   -9.2280    1.4334    1.6563 H   0  0  0  0  0  0  0  0  0  0  0  0
   -8.5891    0.8099    0.0312 H   0  0  0  0  0  0  0  0  0  0  0  0
   -7.5245    3.0609    1.2931 H   0  0  0  0  0  0  0  0  0  0  0  0
   -2.9099    3.0438    0.6047 H   0  0  0  0  0  0  0  0  0  0  0  0
   -1.3138    1.3341    0.0722 H   0  0  0  0  0  0  0  0  0  0  0  0
    0.3145    0.0955    1.1447 H   0  0  0  0  0  0  0  0  0  0  0  0
    2.7018   -0.4697    0.7218 H   0  0  0  0  0  0  0  0  0  0  0  0
    3.7562   -3.1814   -1.1584 H   0  0  0  0  0  0  0  0  0  0  0  0
    3.8885   -1.8582   -2.3400 H   0  0  0  0  0  0  0  0  0  0  0  0
    5.0916   -1.9088    0.3716 H   0  0  0  0  0  0  0  0  0  0  0  0
    6.3803   -0.8615    1.5211 H   0  0  0  0  0  0  0  0  0  0  0  0
    7.9759    0.5306    2.8399 H   0  0  0  0  0  0  0  0  0  0  0  0
    8.4102    2.8383    2.2771 H   0  0  0  0  0  0  0  0  0  0  0  0
    5.6750    2.5063   -0.9635 H   0  0  0  0  0  0  0  0  0  0  0  0
    1.5466   -2.8615   -2.5757 H   0  0  0  0  0  0  0  0  0  0  0  0
   -0.8203   -2.2985   -2.1519 H   0  0  0  0  0  0  0  0  0  0  0  0
   -5.7675   -2.0473   -0.9271 H   0  0  0  0  0  0  0  0  0  0  0  0
   -5.9304   -2.0456    0.8395 H   0  0  0  0  0  0  0  0  0  0  0  0
   -4.8486   -3.2703   -0.0242 H   0  0  0  0  0  0  0  0  0  0  0  0
  1  2  1  0
  2  3  1  0
  3  4  2  0
  4  5  1  0
  5  6  2  0
  6  7  1  0
  7  8  2  0
  8  9  1  0
  9 10  2  0
 10 11  1  0
 11 12  2  0
 12 13  1  0
 13 14  1  0
 14 15  1  0
 15 16  2  0
 15 17  1  0
 17 18  2  0
 18 19  1  0
 19 20  2  0
 20 21  1  0
 21 22  1  0
 21 23  2  0
 12 24  1  0
 24 25  2  0
  8 26  1  0
 26 27  2  0
 26 28  1  0
 28 29  1  0
 28 30  1  0
 30 31  2  0
 31  3  1  0
 30  6  1  0
 25  9  1  0
 23 17  1  0
  1 32  1  0
  1 33  1  0
  1 34  1  0
  2 35  1  0
  5 36  1  0
  7 37  1  0
 10 38  1  0
 11 39  1  0
 13 40  1  0
 13 41  1  0
 14 42  1  0
 18 43  1  0
 19 44  1  0
 20 45  1  0
 23 46  1  0
 24 47  1  0
 25 48  1  0
 29 49  1  0
 29 50  1  0
 29 51  1  0
M  END
$$$$
[H]c1nc(N2C([H])([H])C([H])([H])OC([H])([H])C2([H])[H])c([H])c(Oc2c([H])c([H])c(N([H])C(=O)c3c([H])n(C4([H])C([H])([H])N(C([H])([H])[H])C4([H])[H])c4c([H])c([H])c([H])c([H])c34)c([H])c2-c2c([H])nn(C([H])([H])[H])c2[H])c1[H]
     RDKit          3D

 75 81  0  0  0  0  0  0  0  0999 V2000
   -9.0584    3.1051   -1.7929 C   0  0  0  0  0  0  0  0  0  0  0  0
   -8.8888    2.6648   -0.4217 N   0  0  0  0  0  0  0  0  0  0  0  0
   -8.8678    1.2225   -0.2795 C   0  0  0  0  0  0  0  0  0  0  0  0
   -7.7924    1.3784    0.7606 C   0  0  0  0  0  0  0  0  0  0  0  0
   -7.5537    2.7174    0.0822 C   0  0  0  0  0  0  0  0  0  0  0  0
   -6.7191    0.4312    0.5847 N   0  0  0  0  0  0  0  0  0  0  0  0
   -5.4114    0.7496    0.5497 C   0  0  0  0  0  0  0  0  0  0  0  0
   -4.6670   -0.3886    0.3640 C   0  0  0  0  0  0  0  0  0  0  0  0
   -3.2110   -0.5692    0.2589 C   0  0  0  0  0  0  0  0  0  0  0  0
   -2.8154   -1.1101   -0.7853 O   0  0  0  0  0  0  0  0  0  0  0  0
   -2.3480   -0.1519    1.2756 N   0  0  0  0  0  0  0  0  0  0  0  0
   -0.9481   -0.3011    1.2004 C   0  0  0  0  0  0  0  0  0  0  0  0
   -0.2531   -0.2548    2.4039 C   0  0  0  0  0  0  0  0  0  0  0  0
    1.1107   -0.3730    2.4228 C   0  0  0  0  0  0  0  0  0  0  0  0
    1.8562   -0.5430    1.2560 C   0  0  0  0  0  0  0  0  0  0  0  0
    3.2132   -0.6529    1.3974 O   0  0  0  0  0  0  0  0  0  0  0  0
    4.0978    0.2705    0.9165 C   0  0  0  0  0  0  0  0  0  0  0  0
    3.6955    1.5081    0.4400 C   0  0  0  0  0  0  0  0  0  0  0  0
    4.6851    2.3542   -0.0199 C   0  0  0  0  0  0  0  0  0  0  0  0
    5.9777    2.0223   -0.0183 N   0  0  0  0  0  0  0  0  0  0  0  0
    6.4339    0.8105    0.4416 C   0  0  0  0  0  0  0  0  0  0  0  0
    5.4482   -0.0290    0.8987 C   0  0  0  0  0  0  0  0  0  0  0  0
    7.8158    0.5179    0.4166 N   0  0  0  0  0  0  0  0  0  0  0  0
    8.7437    1.5653    0.0573 C   0  0  0  0  0  0  0  0  0  0  0  0
    9.8806    1.5423    1.0531 C   0  0  0  0  0  0  0  0  0  0  0  0
    9.5963    0.6908    2.1396 O   0  0  0  0  0  0  0  0  0  0  0  0
    9.4713   -0.6281    1.7086 C   0  0  0  0  0  0  0  0  0  0  0  0
    8.3334   -0.7834    0.7203 C   0  0  0  0  0  0  0  0  0  0  0  0
    1.1943   -0.5922    0.0606 C   0  0  0  0  0  0  0  0  0  0  0  0
   -0.2070   -0.4664    0.0785 C   0  0  0  0  0  0  0  0  0  0  0  0
    1.8824   -0.8061   -1.1895 C   0  0  0  0  0  0  0  0  0  0  0  0
    1.6440   -0.1202   -2.3654 C   0  0  0  0  0  0  0  0  0  0  0  0
    2.4703   -0.6183   -3.3306 N   0  0  0  0  0  0  0  0  0  0  0  0
    3.1997   -1.5829   -2.7749 N   0  0  0  0  0  0  0  0  0  0  0  0
    4.1970   -2.3663   -3.4526 C   0  0  0  0  0  0  0  0  0  0  0  0
    2.8595   -1.7203   -1.4599 C   0  0  0  0  0  0  0  0  0  0  0  0
   -5.5907   -1.4244    0.2874 C   0  0  0  0  0  0  0  0  0  0  0  0
   -5.3843   -2.7761    0.1007 C   0  0  0  0  0  0  0  0  0  0  0  0
   -6.4619   -3.6514    0.0473 C   0  0  0  0  0  0  0  0  0  0  0  0
   -7.7183   -3.1373    0.1838 C   0  0  0  0  0  0  0  0  0  0  0  0
   -7.9191   -1.7881    0.3698 C   0  0  0  0  0  0  0  0  0  0  0  0
   -6.8582   -0.8949    0.4264 C   0  0  0  0  0  0  0  0  0  0  0  0
   -8.1208    3.5287   -2.2077 H   0  0  0  0  0  0  0  0  0  0  0  0
   -9.8881    3.8368   -1.8024 H   0  0  0  0  0  0  0  0  0  0  0  0
   -9.4055    2.2199   -2.3749 H   0  0  0  0  0  0  0  0  0  0  0  0
   -9.8357    0.8606    0.0755 H   0  0  0  0  0  0  0  0  0  0  0  0
   -8.5022    0.7685   -1.2307 H   0  0  0  0  0  0  0  0  0  0  0  0
   -8.2069    1.4459    1.7742 H   0  0  0  0  0  0  0  0  0  0  0  0
   -6.7356    2.6625   -0.6590 H   0  0  0  0  0  0  0  0  0  0  0  0
   -7.3519    3.5003    0.8518 H   0  0  0  0  0  0  0  0  0  0  0  0
   -4.9712    1.7527    0.6516 H   0  0  0  0  0  0  0  0  0  0  0  0
   -2.7659    0.3117    2.1563 H   0  0  0  0  0  0  0  0  0  0  0  0
   -0.7995   -0.1259    3.3200 H   0  0  0  0  0  0  0  0  0  0  0  0
    1.6280   -0.3343    3.3655 H   0  0  0  0  0  0  0  0  0  0  0  0
    2.6494    1.7765    0.4385 H   0  0  0  0  0  0  0  0  0  0  0  0
    4.4062    3.3307   -0.3996 H   0  0  0  0  0  0  0  0  0  0  0  0
    5.7215   -0.9897    1.2765 H   0  0  0  0  0  0  0  0  0  0  0  0
    8.2383    2.5577    0.0381 H   0  0  0  0  0  0  0  0  0  0  0  0
    9.1353    1.3782   -0.9870 H   0  0  0  0  0  0  0  0  0  0  0  0
    9.9668    2.5583    1.4905 H   0  0  0  0  0  0  0  0  0  0  0  0
   10.8506    1.2660    0.5628 H   0  0  0  0  0  0  0  0  0  0  0  0
   10.4268   -1.0361    1.3396 H   0  0  0  0  0  0  0  0  0  0  0  0
    9.2027   -1.2392    2.6121 H   0  0  0  0  0  0  0  0  0  0  0  0
    8.8105   -1.1598   -0.2218 H   0  0  0  0  0  0  0  0  0  0  0  0
    7.6090   -1.5353    1.0249 H   0  0  0  0  0  0  0  0  0  0  0  0
   -0.6665   -0.4935   -0.8901 H   0  0  0  0  0  0  0  0  0  0  0  0
    0.9385    0.6651   -2.5202 H   0  0  0  0  0  0  0  0  0  0  0  0
    4.1037   -2.2164   -4.5368 H   0  0  0  0  0  0  0  0  0  0  0  0
    5.2106   -2.0670   -3.0727 H   0  0  0  0  0  0  0  0  0  0  0  0
    4.0637   -3.4474   -3.2117 H   0  0  0  0  0  0  0  0  0  0  0  0
    3.3251   -2.4479   -0.8085 H   0  0  0  0  0  0  0  0  0  0  0  0
   -4.3699   -3.1881   -0.0078 H   0  0  0  0  0  0  0  0  0  0  0  0
   -6.3050   -4.7248   -0.1008 H   0  0  0  0  0  0  0  0  0  0  0  0
   -8.5844   -3.8161    0.1425 H   0  0  0  0  0  0  0  0  0  0  0  0
   -8.9107   -1.4191    0.4709 H   0  0  0  0  0  0  0  0  0  0  0  0
  1  2  1  0
  2  3  1  0
  3  4  1  0
  4  5  1  0
  4  6  1  0
  6  7  1  0
  7  8  2  0
  8  9  1  0
  9 10  2  0
  9 11  1  0
 11 12  1  0
 12 13  2  0
 13 14  1  0
 14 15  2  0
 15 16  1  0
 16 17  1  0
 17 18  2  0
 18 19  1  0
 19 20  2  0
 20 21  1  0
 21 22  2  0
 21 23  1  0
 23 24  1  0
 24 25  1  0
 25 26  1  0
 26 27  1  0
 27 28  1  0
 15 29  1  0
 29 30  2  0
 29 31  1  0
 31 32  1  0
 32 33  2  0
 33 34  1  0
 34 35  1  0
 34 36  1  0
  8 37  1  0
 37 38  2  0
 38 39  1  0
 39 40  2  0
 40 41  1  0
 41 42  2  0
  5  2  1  0
 42  6  1  0
 30 12  1  0
 36 31  2  0
 42 37  1  0
 22 17  1  0
 28 23  1  0
  1 43  1  0
  1 44  1  0
  1 45  1  0
  3 46  1  0
  3 47  1  0
  4 48  1  0
  5 49  1  0
  5 50  1  0
  7 51  1  0
 11 52  1  0
 13 53  1  0
 14 54  1  0
 18 55  1  0
 19 56  1  0
 22 57  1  0
 24 58  1  0
 24 59  1  0
 25 60  1  0
 25 61  1  0
 27 62  1  0
 27 63  1  0
 28 64  1  0
 28 65  1  0
 30 66  1  0
 32 67  1  0
 35 68  1  0
 35 69  1  0
 35 70  1  0
 36 71  1  0
 38 72  1  0
 39 73  1  0
 40 74  1  0
 41 75  1  0
M  END
$$$$
[H]c1c([H])c(Cl)c([H])c(N([H])C(=O)C2([H])C([H])([H])N(C([H])([H])C([H])([H])OC([H])([H])[H])C([H])([H])C([H])([H])C2([H])[H])c1[H]
     RDKit          3D

 41 42  0  0  0  0  0  0  0  0999 V2000
    5.3557   -0.9262    0.8306 C   0  0  0  0  0  0  0  0  0  0  0  0
    4.2172   -1.2153    1.5512 O   0  0  0  0  0  0  0  0  0  0  0  0
    3.6430   -0.1199    2.1473 C   0  0  0  0  0  0  0  0  0  0  0  0
    3.0907    0.8699    1.1850 C   0  0  0  0  0  0  0  0  0  0  0  0
    2.0319    0.4359    0.3572 N   0  0  0  0  0  0  0  0  0  0  0  0
    2.2191   -0.5098   -0.6297 C   0  0  0  0  0  0  0  0  0  0  0  0
    1.1235   -0.7078   -1.6289 C   0  0  0  0  0  0  0  0  0  0  0  0
    0.3480    0.5417   -1.9364 C   0  0  0  0  0  0  0  0  0  0  0  0
   -0.0964    1.1974   -0.6785 C   0  0  0  0  0  0  0  0  0  0  0  0
    1.0550    1.4447    0.2062 C   0  0  0  0  0  0  0  0  0  0  0  0
   -1.2405    0.4971   -0.0124 C   0  0  0  0  0  0  0  0  0  0  0  0
   -1.1383    0.0399    1.1370 O   0  0  0  0  0  0  0  0  0  0  0  0
   -2.4456    0.3729   -0.7364 N   0  0  0  0  0  0  0  0  0  0  0  0
   -3.6533   -0.2344   -0.3490 C   0  0  0  0  0  0  0  0  0  0  0  0
   -3.7538   -1.0462    0.7357 C   0  0  0  0  0  0  0  0  0  0  0  0
   -4.9703   -1.6038    1.0873 C   0  0  0  0  0  0  0  0  0  0  0  0
   -6.0689   -1.3355    0.3402 C   0  0  0  0  0  0  0  0  0  0  0  0
   -6.0082   -0.5236   -0.7589 C   0  0  0  0  0  0  0  0  0  0  0  0
   -7.4473   -0.2124   -1.6830 Cl  0  0  0  0  0  0  0  0  0  0  0  0
   -4.8161    0.0181   -1.0970 C   0  0  0  0  0  0  0  0  0  0  0  0
    5.1983   -0.2071    0.0143 H   0  0  0  0  0  0  0  0  0  0  0  0
    5.7943   -1.8909    0.4430 H   0  0  0  0  0  0  0  0  0  0  0  0
    6.1662   -0.4963    1.4797 H   0  0  0  0  0  0  0  0  0  0  0  0
    2.9080   -0.4080    2.9439 H   0  0  0  0  0  0  0  0  0  0  0  0
    4.4690    0.4084    2.7205 H   0  0  0  0  0  0  0  0  0  0  0  0
    3.9679    1.2794    0.6031 H   0  0  0  0  0  0  0  0  0  0  0  0
    2.6821    1.7310    1.8051 H   0  0  0  0  0  0  0  0  0  0  0  0
    3.1298   -0.2404   -1.2458 H   0  0  0  0  0  0  0  0  0  0  0  0
    2.4624   -1.5047   -0.1878 H   0  0  0  0  0  0  0  0  0  0  0  0
    1.4779   -1.1187   -2.5960 H   0  0  0  0  0  0  0  0  0  0  0  0
    0.3836   -1.4583   -1.2400 H   0  0  0  0  0  0  0  0  0  0  0  0
    0.9275    1.2461   -2.5558 H   0  0  0  0  0  0  0  0  0  0  0  0
   -0.5416    0.2388   -2.5488 H   0  0  0  0  0  0  0  0  0  0  0  0
   -0.5247    2.2015   -0.9764 H   0  0  0  0  0  0  0  0  0  0  0  0
    1.5837    2.3633   -0.1895 H   0  0  0  0  0  0  0  0  0  0  0  0
    0.6833    1.7442    1.2064 H   0  0  0  0  0  0  0  0  0  0  0  0
   -2.4543    0.7939   -1.7256 H   0  0  0  0  0  0  0  0  0  0  0  0
   -2.9225   -1.3245    1.3856 H   0  0  0  0  0  0  0  0  0  0  0  0
   -5.0457   -2.2375    1.9363 H   0  0  0  0  0  0  0  0  0  0  0  0
   -7.0121   -1.7869    0.6395 H   0  0  0  0  0  0  0  0  0  0  0  0
   -4.7786    0.6657   -1.9791 H   0  0  0  0  0  0  0  0  0  0  0  0
  1  2  1  0
  2  3  1  0
  3  4  1  0
  4  5  1  0
  5  6  1  0
  6  7  1  0
  7  8  1  0
  8  9  1  0
  9 10  1  0
  9 11  1  0
 11 12  2  0
 11 13  1  0
 13 14  1  0
 14 15  2  0
 15 16  1  0
 16 17  2  0
 17 18  1  0
 18 19  1  0
 18 20  2  0
 10  5  1  0
 20 14  1  0
  1 21  1  0
  1 22  1  0
  1 23  1  0
  3 24  1  0
  3 25  1  0
  4 26  1  0
  4 27  1  0
  6 28  1  0
  6 29  1  0
  7 30  1  0
  7 31  1  0
  8 32  1  0
  8 33  1  0
  9 34  1  0
 10 35  1  0
 10 36  1  0
 13 37  1  0
 15 38  1  0
 16 39  1  0
 17 40  1  0
 20 41  1  0
M  END
$$$$
[H]c1nc([H])c(C([H])([H])C(=O)N2C([H])([H])C([H])([H])[C@]3([H])C([H])([H])[C@]2([H])C3([H])[H])c([H])c1Cl
     RDKit          2D

 32 34  0  0  0  0  0  0  0  0999 V2000
   -1.5000    9.3316    0.0000 Cl  0  0  0  0  0  0  0  0  0  0  0  0
   -0.7500    8.0326    0.0000 C   0  0  0  0  0  0  0  0  0  0  0  0
    0.7500    8.0326    0.0000 C   0  0  0  0  0  0  0  0  0  0  0  0
    1.5000    6.7336    0.0000 N   0  0  0  0  0  0  0  0  0  0  0  0
    0.7500    5.4345    0.0000 C   0  0  0  0  0  0  0  0  0  0  0  0
   -0.7500    5.4345    0.0000 C   0  0  0  0  0  0  0  0  0  0  0  0
   -1.5000    4.1355    0.0000 C   0  0  0  0  0  0  0  0  0  0  0  0
   -2.2500    2.8365    0.0000 C   0  0  0  0  0  0  0  0  0  0  0  0
   -3.7500    2.8365    0.0000 O   0  0  0  0  0  0  0  0  0  0  0  0
   -1.5000    1.5374    0.0000 N   0  0  0  0  0  0  0  0  0  0  0  0
   -2.2500    0.2384    0.0000 C   0  0  0  0  0  0  0  0  0  0  0  0
   -1.5000   -1.0607    0.0000 C   0  0  0  0  0  0  0  0  0  0  0  0
   -0.0000   -1.0607    0.0000 C   0  0  0  0  0  0  0  0  0  0  0  0
    1.0607    0.0000    0.0000 C   0  0  0  0  0  0  0  0  0  0  0  0
    0.0000    1.0607    0.0000 C   0  0  0  0  0  0  0  0  0  0  0  0
   -1.0607    0.0000    0.0000 C   0  0  0  0  0  0  0  0  0  0  0  0
   -1.5000    6.7336    0.0000 C   0  0  0  0  0  0  0  0  0  0  0  0
    1.5000    9.3316    0.0000 H   0  0  0  0  0  0  0  0  0  0  0  0
    1.5000    4.1355    0.0000 H   0  0  0  0  0  0  0  0  0  0  0  0
   -2.7990    4.8855    0.0000 H   0  0  0  0  0  0  0  0  0  0  0  0
   -0.1192    3.5494    0.0000 H   0  0  0  0  0  0  0  0  0  0  0  0
   -3.3991   -0.7258    0.0000 H   0  0  0  0  0  0  0  0  0  0  0  0
   -3.3991    1.2026    0.0000 H   0  0  0  0  0  0  0  0  0  0  0  0
   -1.2395   -2.5379    0.0000 H   0  0  0  0  0  0  0  0  0  0  0  0
   -2.9095   -1.5737    0.0000 H   0  0  0  0  0  0  0  0  0  0  0  0
   -0.0000   -2.5607    0.0000 H   0  0  0  0  0  0  0  0  0  0  0  0
    2.1213    1.0607    0.0000 H   0  0  0  0  0  0  0  0  0  0  0  0
    2.1213   -1.0607    0.0000 H   0  0  0  0  0  0  0  0  0  0  0  0
    0.1828    2.5495    0.0000 H   0  0  0  0  0  0  0  0  0  0  0  0
   -2.3465   -0.7725    0.0000 H   0  0  0  0  0  0  0  0  0  0  0  0
   -1.7440    0.4105    0.0000 H   0  0  0  0  0  0  0  0  0  0  0  0
   -3.0000    6.7336    0.0000 H   0  0  0  0  0  0  0  0  0  0  0  0
  1  2  1  0
  2  3  2  0
  3  4  1  0
  4  5  2  0
  5  6  1  0
  6  7  1  0
  7  8  1  0
  8  9  2  0
  8 10  1  0
 10 11  1  0
 11 12  1  0
 12 13  1  0
 13 14  1  0
 14 15  1  0
 15 16  1  0
  6 17  2  0
 17  2  1  0
 15 10  1  0
 16 13  1  0
  3 18  1  0
  5 19  1  0
  7 20  1  0
  7 21  1  0
 11 22  1  0
 11 23  1  0
 12 24  1  0
 12 25  1  0
 13 26  1  6
 14 27  1  0
 14 28  1  0
 15 29  1  1
 16 30  1  0
 16 31  1  0
 17 32  1  0
M  END
$$$$
[H]c1nc(-c2nc(N3C([H])([H])C([H])([H])OC([H])([H])C3([H])[H])c3c(n2)N(C([H])(C([H])([H])[H])C([H])([H])[H])C([H])([H])C3([H])[H])n(C([H])(C([H])([H])[H])C([H])([H])[H])n1
     RDKit          3D

 53 56  0  0  0  0  0  0  0  0999 V2000
   -1.5910   -3.7538    1.2333 C   0  0  0  0  0  0  0  0  0  0  0  0
   -1.8852   -3.3495   -0.1926 C   0  0  0  0  0  0  0  0  0  0  0  0
   -2.5965   -4.5389   -0.8434 C   0  0  0  0  0  0  0  0  0  0  0  0
   -2.8092   -2.2435   -0.1766 N   0  0  0  0  0  0  0  0  0  0  0  0
   -4.1336   -2.4119   -0.1932 N   0  0  0  0  0  0  0  0  0  0  0  0
   -4.7392   -1.2155   -0.1705 C   0  0  0  0  0  0  0  0  0  0  0  0
   -3.7475   -0.3162   -0.1396 N   0  0  0  0  0  0  0  0  0  0  0  0
   -2.5257   -0.9517   -0.1431 C   0  0  0  0  0  0  0  0  0  0  0  0
   -1.2380   -0.2739   -0.1103 C   0  0  0  0  0  0  0  0  0  0  0  0
   -0.0613   -0.8929   -0.1144 N   0  0  0  0  0  0  0  0  0  0  0  0
    1.0977   -0.2041   -0.0761 C   0  0  0  0  0  0  0  0  0  0  0  0
    2.4255   -0.6490   -0.0736 N   0  0  0  0  0  0  0  0  0  0  0  0
    3.1947    0.4294    0.5655 C   0  0  0  0  0  0  0  0  0  0  0  0
    2.4632    1.6368    0.0071 C   0  0  0  0  0  0  0  0  0  0  0  0
    1.0565    1.1762   -0.0315 C   0  0  0  0  0  0  0  0  0  0  0  0
   -0.1558    1.8562   -0.0262 C   0  0  0  0  0  0  0  0  0  0  0  0
   -1.2505    1.0888   -0.0662 N   0  0  0  0  0  0  0  0  0  0  0  0
   -0.1929    3.2689    0.0178 N   0  0  0  0  0  0  0  0  0  0  0  0
    0.3538    4.0615    1.0748 C   0  0  0  0  0  0  0  0  0  0  0  0
   -0.4725    5.2865    1.3774 C   0  0  0  0  0  0  0  0  0  0  0  0
   -1.5904    5.3903    0.5574 O   0  0  0  0  0  0  0  0  0  0  0  0
   -1.1249    5.3967   -0.7568 C   0  0  0  0  0  0  0  0  0  0  0  0
   -0.8486    3.9494   -1.1107 C   0  0  0  0  0  0  0  0  0  0  0  0
    3.0289   -1.8467   -0.5484 C   0  0  0  0  0  0  0  0  0  0  0  0
    2.0985   -2.8121   -1.1873 C   0  0  0  0  0  0  0  0  0  0  0  0
    3.8191   -2.5088    0.5814 C   0  0  0  0  0  0  0  0  0  0  0  0
   -2.5262   -3.5944    1.8079 H   0  0  0  0  0  0  0  0  0  0  0  0
   -1.4223   -4.8672    1.2250 H   0  0  0  0  0  0  0  0  0  0  0  0
   -0.7397   -3.2285    1.6764 H   0  0  0  0  0  0  0  0  0  0  0  0
   -0.9608   -3.1511   -0.7240 H   0  0  0  0  0  0  0  0  0  0  0  0
   -2.1433   -5.4487   -0.4157 H   0  0  0  0  0  0  0  0  0  0  0  0
   -3.6528   -4.4621   -0.5599 H   0  0  0  0  0  0  0  0  0  0  0  0
   -2.4179   -4.5517   -1.9219 H   0  0  0  0  0  0  0  0  0  0  0  0
   -5.8091   -1.0644   -0.1771 H   0  0  0  0  0  0  0  0  0  0  0  0
    3.0106    0.3921    1.6409 H   0  0  0  0  0  0  0  0  0  0  0  0
    4.2458    0.3989    0.2692 H   0  0  0  0  0  0  0  0  0  0  0  0
    2.6607    2.4577    0.6935 H   0  0  0  0  0  0  0  0  0  0  0  0
    2.8200    1.7992   -1.0091 H   0  0  0  0  0  0  0  0  0  0  0  0
    0.4408    3.4916    2.0178 H   0  0  0  0  0  0  0  0  0  0  0  0
    1.3556    4.4527    0.7289 H   0  0  0  0  0  0  0  0  0  0  0  0
    0.1123    6.2209    1.2724 H   0  0  0  0  0  0  0  0  0  0  0  0
   -0.8546    5.2865    2.4245 H   0  0  0  0  0  0  0  0  0  0  0  0
   -1.8887    5.7591   -1.4740 H   0  0  0  0  0  0  0  0  0  0  0  0
   -0.1749    5.9619   -0.8685 H   0  0  0  0  0  0  0  0  0  0  0  0
   -1.8376    3.4542   -1.2161 H   0  0  0  0  0  0  0  0  0  0  0  0
   -0.3032    3.8214   -2.0461 H   0  0  0  0  0  0  0  0  0  0  0  0
    3.7997   -1.5508   -1.3175 H   0  0  0  0  0  0  0  0  0  0  0  0
    2.6761   -3.4916   -1.8456 H   0  0  0  0  0  0  0  0  0  0  0  0
    1.4037   -2.2523   -1.8490 H   0  0  0  0  0  0  0  0  0  0  0  0
    1.5631   -3.4389   -0.4462 H   0  0  0  0  0  0  0  0  0  0  0  0
    3.6953   -3.6005    0.5703 H   0  0  0  0  0  0  0  0  0  0  0  0
    3.4747   -2.1086    1.5700 H   0  0  0  0  0  0  0  0  0  0  0  0
    4.8975   -2.2579    0.5200 H   0  0  0  0  0  0  0  0  0  0  0  0
  1  2  1  0
  2  3  1  0
  2  4  1  0
  4  5  1  0
  5  6  2  0
  6  7  1  0
  7  8  2  0
  8  9  1  0
  9 10  2  0
 10 11  1  0
 11 12  1  0
 12 13  1  0
 13 14  1  0
 14 15  1  0
 15 16  1  0
 16 17  2  0
 16 18  1  0
 18 19  1  0
 19 20  1  0
 20 21  1  0
 21 22  1  0
 22 23  1  0
 12 24  1  0
 24 25  1  0
 24 26  1  0
  8  4  1  0
 17  9  1  0
 23 18  1  0
 15 11  2  0
  1 27  1  0
  1 28  1  0
  1 29  1  0
  2 30  1  0
  3 31  1  0
  3 32  1  0
  3 33  1  0
  6 34  1  0
 13 35  1  0
 13 36  1  0
 14 37  1  0
 14 38  1  0
 19 39  1  0
 19 40  1  0
 20 41  1  0
 20 42  1  0
 22 43  1  0
 22 44  1  0
 23 45  1  0
 23 46  1  0
 24 47  1  0
 25 48  1  0
 25 49  1  0
 25 50  1  0
 26 51  1  0
 26 52  1  0
 26 53  1  0
M  END
$$$$
[H]N=C1N(C([H])([H])[H])[C@@]([H])(C([H])([H])O[H])O[C@@]([H])(C(=N[H])N([H])[H])[C@@]([H])(C([H])([H])C(=C([H])[H])C([H])([H])[H])N1[H]
     RDKit          3D

 39 39  0  0  0  0  0  0  0  0999 V2000
    4.5194   -0.8497   -0.4330 C   0  0  0  0  0  0  0  0  0  0  0  0
    3.2461   -0.3208    0.1835 C   0  0  0  0  0  0  0  0  0  0  0  0
    3.3621    0.6826    1.0281 C   0  0  0  0  0  0  0  0  0  0  0  0
    1.9757   -0.9766   -0.2289 C   0  0  0  0  0  0  0  0  0  0  0  0
    0.7490   -0.3331    0.3163 C   0  0  1  0  0  0  0  0  0  0  0  0
    0.6614    1.0226   -0.1712 N   0  0  0  0  0  0  0  0  0  0  0  0
   -0.4350    1.9455    0.0042 C   0  0  0  0  0  0  0  0  0  0  0  0
   -0.1601    3.1871   -0.1071 N   0  0  0  0  0  0  0  0  0  0  0  0
   -1.7916    1.6161    0.2864 N   0  0  0  0  0  0  0  0  0  0  0  0
   -2.6660    2.7503    0.4705 C   0  0  0  0  0  0  0  0  0  0  0  0
   -2.3229    0.2782    0.3952 C   0  0  1  0  0  0  0  0  0  0  0  0
   -3.7896    0.1946    0.0829 C   0  0  0  0  0  0  0  0  0  0  0  0
   -4.1159    0.6037   -1.1875 O   0  0  0  0  0  0  0  0  0  0  0  0
   -1.5551   -0.5325   -0.4440 O   0  0  0  0  0  0  0  0  0  0  0  0
   -0.5009   -1.1238    0.2629 C   0  0  1  0  0  0  0  0  0  0  0  0
   -0.2384   -2.4541   -0.3251 C   0  0  0  0  0  0  0  0  0  0  0  0
    0.1145   -2.5940   -1.6866 N   0  0  0  0  0  0  0  0  0  0  0  0
   -0.3309   -3.4997    0.4074 N   0  0  0  0  0  0  0  0  0  0  0  0
    4.3581   -0.9213   -1.5250 H   0  0  0  0  0  0  0  0  0  0  0  0
    5.3587   -0.1724   -0.2603 H   0  0  0  0  0  0  0  0  0  0  0  0
    4.7184   -1.8268    0.0500 H   0  0  0  0  0  0  0  0  0  0  0  0
    2.5078    1.1500    1.5393 H   0  0  0  0  0  0  0  0  0  0  0  0
    4.3736    1.0683    1.2274 H   0  0  0  0  0  0  0  0  0  0  0  0
    1.9656   -0.8937   -1.3612 H   0  0  0  0  0  0  0  0  0  0  0  0
    2.0101   -2.0783   -0.0177 H   0  0  0  0  0  0  0  0  0  0  0  0
    0.9693   -0.1833    1.4379 H   0  0  0  0  0  0  0  0  0  0  0  0
    1.4869    1.3523   -0.7063 H   0  0  0  0  0  0  0  0  0  0  0  0
    0.8214    3.4636   -0.3146 H   0  0  0  0  0  0  0  0  0  0  0  0
   -2.6114    3.1220    1.5297 H   0  0  0  0  0  0  0  0  0  0  0  0
   -2.2800    3.5944   -0.1562 H   0  0  0  0  0  0  0  0  0  0  0  0
   -3.7171    2.5525    0.2668 H   0  0  0  0  0  0  0  0  0  0  0  0
   -2.1774   -0.0702    1.4355 H   0  0  0  0  0  0  0  0  0  0  0  0
   -4.0725   -0.8819    0.1657 H   0  0  0  0  0  0  0  0  0  0  0  0
   -4.3401    0.7129    0.8889 H   0  0  0  0  0  0  0  0  0  0  0  0
   -5.0413    0.3026   -1.3699 H   0  0  0  0  0  0  0  0  0  0  0  0
   -0.8964   -1.2566    1.3156 H   0  0  0  0  0  0  0  0  0  0  0  0
   -0.4241   -2.0186   -2.3764 H   0  0  0  0  0  0  0  0  0  0  0  0
    0.8593   -3.2199   -2.0308 H   0  0  0  0  0  0  0  0  0  0  0  0
   -0.5903   -3.3922    1.4075 H   0  0  0  0  0  0  0  0  0  0  0  0
  1  2  1  0
  2  3  2  3
  2  4  1  0
  4  5  1  0
  5  6  1  0
  6  7  1  0
  7  8  2  3
  7  9  1  0
  9 10  1  0
  9 11  1  0
 11 12  1  0
 12 13  1  0
 11 14  1  0
 14 15  1  0
 15 16  1  0
 16 17  1  0
 16 18  2  3
 15  5  1  0
  1 19  1  0
  1 20  1  0
  1 21  1  0
  3 22  1  0
  3 23  1  0
  4 24  1  0
  4 25  1  0
  5 26  1  1
  6 27  1  0
  8 28  1  0
 10 29  1  0
 10 30  1  0
 10 31  1  0
 11 32  1  1
 12 33  1  0
 12 34  1  0
 13 35  1  0
 15 36  1  1
 17 37  1  0
 17 38  1  0
 18 39  1  0
M  END
$$$$
[H]c1c([H])c([H])c(C([H])([H])[C@@]2([H])N(C(=O)c3c([H])c(C(F)(F)F)c([H])c(C(F)(F)F)c3[H])C([H])([H])C([H])([H])[C@]([H])(N3C(=O)C([H])([H])C([H])([H])C3([H])[H])C2([H])[H])c([H])c1[H]
     RDKit          3D

 59 62  0  0  0  0  0  0  0  0999 V2000
    5.9325    3.2580   -1.9499 F   0  0  0  0  0  0  0  0  0  0  0  0
    5.9016    1.8612   -2.0950 C   0  0  0  0  0  0  0  0  0  0  0  0
    7.1326    1.3299   -1.8496 F   0  0  0  0  0  0  0  0  0  0  0  0
    5.3885    1.5854   -3.3425 F   0  0  0  0  0  0  0  0  0  0  0  0
    4.9440    1.3720   -1.0620 C   0  0  0  0  0  0  0  0  0  0  0  0
    3.6133    1.0798   -1.3409 C   0  0  0  0  0  0  0  0  0  0  0  0
    2.7285    0.6341   -0.4215 C   0  0  0  0  0  0  0  0  0  0  0  0
    3.2031    0.4717    0.8850 C   0  0  0  0  0  0  0  0  0  0  0  0
    4.5305    0.7543    1.2067 C   0  0  0  0  0  0  0  0  0  0  0  0
    5.3691    1.1927    0.2350 C   0  0  0  0  0  0  0  0  0  0  0  0
    5.0232    0.4932    2.5844 C   0  0  0  0  0  0  0  0  0  0  0  0
    3.9701    0.1595    3.4277 F   0  0  0  0  0  0  0  0  0  0  0  0
    5.7676    1.5343    3.0384 F   0  0  0  0  0  0  0  0  0  0  0  0
    5.8523   -0.6304    2.4582 F   0  0  0  0  0  0  0  0  0  0  0  0
    1.4176    0.0039   -0.7206 C   0  0  0  0  0  0  0  0  0  0  0  0
    1.4212   -0.5948   -1.8415 O   0  0  0  0  0  0  0  0  0  0  0  0
    0.3555    0.0777    0.1651 N   0  0  0  0  0  0  0  0  0  0  0  0
    0.2429    1.0480    1.2763 C   0  0  0  0  0  0  0  0  0  0  0  0
   -1.1559    1.6717    1.1577 C   0  0  0  0  0  0  0  0  0  0  0  0
   -1.7672    1.1955   -0.1456 C   0  0  1  0  0  0  0  0  0  0  0  0
   -2.0020   -0.3019   -0.0434 C   0  0  0  0  0  0  0  0  0  0  0  0
   -0.7245   -0.9813    0.2884 C   0  0  1  0  0  0  0  0  0  0  0  0
   -0.2521   -2.1561   -0.4506 C   0  0  0  0  0  0  0  0  0  0  0  0
   -1.0089   -3.4082   -0.3742 C   0  0  0  0  0  0  0  0  0  0  0  0
   -1.9811   -3.7498   -1.2476 C   0  0  0  0  0  0  0  0  0  0  0  0
   -2.6813   -4.9592   -1.0942 C   0  0  0  0  0  0  0  0  0  0  0  0
   -2.3952   -5.8113   -0.0684 C   0  0  0  0  0  0  0  0  0  0  0  0
   -1.4031   -5.4750    0.8262 C   0  0  0  0  0  0  0  0  0  0  0  0
   -0.7253   -4.2956    0.6795 C   0  0  0  0  0  0  0  0  0  0  0  0
   -3.0085    1.9300   -0.3791 N   0  0  0  0  0  0  0  0  0  0  0  0
   -4.2645    1.7389    0.3524 C   0  0  0  0  0  0  0  0  0  0  0  0
   -5.0666    2.9815    0.0393 C   0  0  0  0  0  0  0  0  0  0  0  0
   -4.2113    3.8573   -0.8304 C   0  0  0  0  0  0  0  0  0  0  0  0
   -3.2171    2.8641   -1.3943 C   0  0  0  0  0  0  0  0  0  0  0  0
   -2.7229    2.9294   -2.5439 O   0  0  0  0  0  0  0  0  0  0  0  0
    3.2829    1.2036   -2.3842 H   0  0  0  0  0  0  0  0  0  0  0  0
    2.5585    0.0993    1.6444 H   0  0  0  0  0  0  0  0  0  0  0  0
    6.4270    1.4114    0.4482 H   0  0  0  0  0  0  0  0  0  0  0  0
    0.3810    0.5467    2.2526 H   0  0  0  0  0  0  0  0  0  0  0  0
    0.9741    1.8324    1.1736 H   0  0  0  0  0  0  0  0  0  0  0  0
   -1.7674    1.3502    2.0060 H   0  0  0  0  0  0  0  0  0  0  0  0
   -1.0935    2.7879    1.2282 H   0  0  0  0  0  0  0  0  0  0  0  0
   -1.0738    1.4193   -0.9580 H   0  0  0  0  0  0  0  0  0  0  0  0
   -2.7510   -0.3814    0.8457 H   0  0  0  0  0  0  0  0  0  0  0  0
   -2.5370   -0.6983   -0.8972 H   0  0  0  0  0  0  0  0  0  0  0  0
   -0.7367   -1.1564    1.4063 H   0  0  0  0  0  0  0  0  0  0  0  0
   -0.3512   -1.8785   -1.5694 H   0  0  0  0  0  0  0  0  0  0  0  0
    0.8081   -2.4094   -0.2082 H   0  0  0  0  0  0  0  0  0  0  0  0
   -2.2700   -3.1410   -2.0843 H   0  0  0  0  0  0  0  0  0  0  0  0
   -3.4388   -5.2313   -1.8099 H   0  0  0  0  0  0  0  0  0  0  0  0
   -2.9599   -6.7616    0.0302 H   0  0  0  0  0  0  0  0  0  0  0  0
   -1.2193   -6.2011    1.6069 H   0  0  0  0  0  0  0  0  0  0  0  0
    0.0543   -4.0422    1.3896 H   0  0  0  0  0  0  0  0  0  0  0  0
   -4.8080    0.8400   -0.0874 H   0  0  0  0  0  0  0  0  0  0  0  0
   -4.1389    1.5587    1.4122 H   0  0  0  0  0  0  0  0  0  0  0  0
   -5.9518    2.7170   -0.5474 H   0  0  0  0  0  0  0  0  0  0  0  0
   -5.2739    3.5273    0.9864 H   0  0  0  0  0  0  0  0  0  0  0  0
   -4.7305    4.3748   -1.6397 H   0  0  0  0  0  0  0  0  0  0  0  0
   -3.5907    4.5722   -0.2580 H   0  0  0  0  0  0  0  0  0  0  0  0
  1  2  1  0
  2  3  1  0
  2  4  1  0
  2  5  1  0
  5  6  2  0
  6  7  1  0
  7  8  2  0
  8  9  1  0
  9 10  2  0
  9 11  1  0
 11 12  1  0
 11 13  1  0
 11 14  1  0
  7 15  1  0
 15 16  2  0
 15 17  1  0
 17 18  1  0
 18 19  1  0
 19 20  1  0
 20 21  1  0
 21 22  1  0
 22 23  1  0
 23 24  1  0
 24 25  2  0
 25 26  1  0
 26 27  2  0
 27 28  1  0
 28 29  2  0
 20 30  1  0
 30 31  1  0
 31 32  1  0
 32 33  1  0
 33 34  1  0
 34 35  2  0
 10  5  1  0
 22 17  1  0
 29 24  1  0
 34 30  1  0
  6 36  1  0
  8 37  1  0
 10 38  1  0
 18 39  1  0
 18 40  1  0
 19 41  1  0
 19 42  1  0
 20 43  1  6
 21 44  1  0
 21 45  1  0
 22 46  1  1
 23 47  1  0
 23 48  1  0
 25 49  1  0
 26 50  1  0
 27 51  1  0
 28 52  1  0
 29 53  1  0
 31 54  1  0
 31 55  1  0
 32 56  1  0
 32 57  1  0
 33 58  1  0
 33 59  1  0
M  END
$$$$
[H]c1nc2c(nc1-c1sc(C(=O)N([H])[H])c(O[C@@]([H])(c3c([H])c([H])c(Cl)c([H])c3[H])C([H])([H])[H])c1[H])c(-c1c([H])c([H])c([H])c(C([H])([H])C([H])([H])C#N)c1[H])c([H])n2[H]
     RDKit          3D

 59 63  0  0  0  0  0  0  0  0999 V2000
   -3.5605   -2.4932    0.7904 C   0  0  0  0  0  0  0  0  0  0  0  0
   -4.3110   -1.1322    0.8991 C   0  0  1  0  0  0  0  0  0  0  0  0
   -3.5856   -0.2718    1.4898 O   0  0  0  0  0  0  0  0  0  0  0  0
   -2.8241    0.6322    2.1108 C   0  0  0  0  0  0  0  0  0  0  0  0
   -1.5011    0.8403    1.7490 C   0  0  0  0  0  0  0  0  0  0  0  0
   -0.8051    1.7677    2.4184 C   0  0  0  0  0  0  0  0  0  0  0  0
   -1.9059    2.3757    3.5404 S   0  0  0  0  0  0  0  0  0  0  0  0
   -3.2800    1.4202    3.1399 C   0  0  0  0  0  0  0  0  0  0  0  0
   -4.6086    1.4747    3.7842 C   0  0  0  0  0  0  0  0  0  0  0  0
   -5.6424    0.6398    3.3626 N   0  0  0  0  0  0  0  0  0  0  0  0
   -4.7600    2.2964    4.7165 O   0  0  0  0  0  0  0  0  0  0  0  0
    0.5857    2.1631    2.2119 C   0  0  0  0  0  0  0  0  0  0  0  0
    1.1192    3.2021    2.9589 C   0  0  0  0  0  0  0  0  0  0  0  0
    2.3979    3.5934    2.8100 N   0  0  0  0  0  0  0  0  0  0  0  0
    3.2127    2.9962    1.9322 C   0  0  0  0  0  0  0  0  0  0  0  0
    4.4958    3.1367    1.5507 N   0  0  0  0  0  0  0  0  0  0  0  0
    4.7937    2.2263    0.5929 C   0  0  0  0  0  0  0  0  0  0  0  0
    3.6673    1.4595    0.3347 C   0  0  0  0  0  0  0  0  0  0  0  0
    3.5685    0.3591   -0.6168 C   0  0  0  0  0  0  0  0  0  0  0  0
    2.4799    0.2143   -1.4443 C   0  0  0  0  0  0  0  0  0  0  0  0
    2.3863   -0.8338   -2.3478 C   0  0  0  0  0  0  0  0  0  0  0  0
    3.4144   -1.7625   -2.4225 C   0  0  0  0  0  0  0  0  0  0  0  0
    4.5234   -1.6558   -1.6122 C   0  0  0  0  0  0  0  0  0  0  0  0
    5.6442   -2.6608   -1.6818 C   0  0  0  0  0  0  0  0  0  0  0  0
    6.6914   -2.2664   -2.6795 C   0  0  0  0  0  0  0  0  0  0  0  0
    7.2596   -0.9704   -2.2969 C   0  0  0  0  0  0  0  0  0  0  0  0
    7.7285    0.0694   -2.0068 N   0  0  0  0  0  0  0  0  0  0  0  0
    4.5757   -0.5982   -0.7283 C   0  0  0  0  0  0  0  0  0  0  0  0
    2.6926    1.9513    1.1752 C   0  0  0  0  0  0  0  0  0  0  0  0
    1.3941    1.5591    1.3310 N   0  0  0  0  0  0  0  0  0  0  0  0
   -4.6571   -0.8412   -0.5559 C   0  0  0  0  0  0  0  0  0  0  0  0
   -3.6974   -0.3915   -1.4377 C   0  0  0  0  0  0  0  0  0  0  0  0
   -4.0441   -0.1321   -2.7448 C   0  0  0  0  0  0  0  0  0  0  0  0
   -5.3192   -0.3033   -3.2130 C   0  0  0  0  0  0  0  0  0  0  0  0
   -5.7549    0.0298   -4.8716 Cl  0  0  0  0  0  0  0  0  0  0  0  0
   -6.2626   -0.7532   -2.3163 C   0  0  0  0  0  0  0  0  0  0  0  0
   -5.9355   -1.0181   -1.0075 C   0  0  0  0  0  0  0  0  0  0  0  0
   -2.9335   -2.5724    1.7043 H   0  0  0  0  0  0  0  0  0  0  0  0
   -2.8643   -2.4397   -0.0820 H   0  0  0  0  0  0  0  0  0  0  0  0
   -4.2597   -3.3165    0.6677 H   0  0  0  0  0  0  0  0  0  0  0  0
   -5.3068   -1.4394    1.3491 H   0  0  0  0  0  0  0  0  0  0  0  0
   -1.0356    0.2449    0.9178 H   0  0  0  0  0  0  0  0  0  0  0  0
   -5.9155   -0.2278    3.9081 H   0  0  0  0  0  0  0  0  0  0  0  0
   -6.2333    0.7802    2.4976 H   0  0  0  0  0  0  0  0  0  0  0  0
    0.4433    3.6769    3.6672 H   0  0  0  0  0  0  0  0  0  0  0  0
    5.1303    3.8561    1.9595 H   0  0  0  0  0  0  0  0  0  0  0  0
    5.7401    2.1062    0.1059 H   0  0  0  0  0  0  0  0  0  0  0  0
    1.6754    0.9372   -1.3890 H   0  0  0  0  0  0  0  0  0  0  0  0
    1.5475   -0.9751   -3.0095 H   0  0  0  0  0  0  0  0  0  0  0  0
    3.3841   -2.5972   -3.1134 H   0  0  0  0  0  0  0  0  0  0  0  0
    6.0759   -2.7050   -0.6538 H   0  0  0  0  0  0  0  0  0  0  0  0
    5.1795   -3.6247   -1.8797 H   0  0  0  0  0  0  0  0  0  0  0  0
    6.2604   -2.2153   -3.6890 H   0  0  0  0  0  0  0  0  0  0  0  0
    7.4925   -3.0465   -2.6123 H   0  0  0  0  0  0  0  0  0  0  0  0
    5.4331   -0.4786   -0.0715 H   0  0  0  0  0  0  0  0  0  0  0  0
   -2.6764   -0.2406   -1.1164 H   0  0  0  0  0  0  0  0  0  0  0  0
   -3.3068    0.2290   -3.4768 H   0  0  0  0  0  0  0  0  0  0  0  0
   -7.2937   -0.9019   -2.6539 H   0  0  0  0  0  0  0  0  0  0  0  0
   -6.7122   -1.3725   -0.3328 H   0  0  0  0  0  0  0  0  0  0  0  0
  1  2  1  0
  2  3  1  0
  3  4  1  0
  4  5  1  0
  5  6  2  0
  6  7  1  0
  7  8  1  0
  8  9  1  0
  9 10  1  0
  9 11  2  0
  6 12  1  0
 12 13  2  0
 13 14  1  0
 14 15  2  0
 15 16  1  0
 16 17  1  0
 17 18  2  0
 18 19  1  0
 19 20  2  0
 20 21  1  0
 21 22  2  0
 22 23  1  0
 23 24  1  0
 24 25  1  0
 25 26  1  0
 26 27  3  0
 23 28  2  0
 18 29  1  0
 29 30  2  0
  2 31  1  0
 31 32  2  0
 32 33  1  0
 33 34  2  0
 34 35  1  0
 34 36  1  0
 36 37  2  0
  8  4  2  0
 30 12  1  0
 37 31  1  0
 29 15  1  0
 28 19  1  0
  1 38  1  0
  1 39  1  0
  1 40  1  0
  2 41  1  1
  5 42  1  0
 10 43  1  0
 10 44  1  0
 13 45  1  0
 16 46  1  0
 17 47  1  0
 20 48  1  0
 21 49  1  0
 22 50  1  0
 24 51  1  0
 24 52  1  0
 25 53  1  0
 25 54  1  0
 28 55  1  0
 32 56  1  0
 33 57  1  0
 36 58  1  0
 37 59  1  0
M  END
$$$$
[H]OC([H])(c1c([H])c([H])c([H])c(C2=C([H])N3C(=O)C2([H])C([H])([H])C3([H])[H])c1[H])C([H])([H])[H]
     RDKit          2D

 32 34  0  0  0  0  0  0  0  0999 V2000
   -1.6897    7.4108    0.0000 C   0  0  0  0  0  0  0  0  0  0  0  0
   -0.6860    6.2961    0.0000 C   0  0  0  0  0  0  0  0  0  0  0  0
    0.4287    7.2998    0.0000 O   0  0  0  0  0  0  0  0  0  0  0  0
    0.3177    5.1814    0.0000 C   0  0  0  0  0  0  0  0  0  0  0  0
    1.7849    5.4933    0.0000 C   0  0  0  0  0  0  0  0  0  0  0  0
    2.7886    4.3786    0.0000 C   0  0  0  0  0  0  0  0  0  0  0  0
    2.3250    2.9520    0.0000 C   0  0  0  0  0  0  0  0  0  0  0  0
    0.8578    2.6401    0.0000 C   0  0  0  0  0  0  0  0  0  0  0  0
   -0.1459    3.7548    0.0000 C   0  0  0  0  0  0  0  0  0  0  0  0
    0.3943    1.2135    0.0000 C   0  0  0  0  0  0  0  0  0  0  0  0
    1.2760    0.0000    0.0000 C   0  0  0  0  0  0  0  0  0  0  0  0
    0.3943   -1.2135    0.0000 N   0  0  0  0  0  0  0  0  0  0  0  0
   -1.0323   -1.6771    0.0000 C   0  0  0  0  0  0  0  0  0  0  0  0
   -1.9140   -0.4635    0.0000 C   0  0  0  0  0  0  0  0  0  0  0  0
   -1.0323    0.7500    0.0000 C   0  0  0  0  0  0  0  0  0  0  0  0
   -1.0323   -0.7500    0.0000 C   0  0  0  0  0  0  0  0  0  0  0  0
   -2.2458   -1.6317    0.0000 O   0  0  0  0  0  0  0  0  0  0  0  0
   -2.6934    8.5256    0.0000 H   0  0  0  0  0  0  0  0  0  0  0  0
   -2.8045    6.4072    0.0000 H   0  0  0  0  0  0  0  0  0  0  0  0
   -0.7057    8.5429    0.0000 H   0  0  0  0  0  0  0  0  0  0  0  0
   -1.8008    5.2924    0.0000 H   0  0  0  0  0  0  0  0  0  0  0  0
    0.2980    8.7941    0.0000 H   0  0  0  0  0  0  0  0  0  0  0  0
    2.2484    6.9199    0.0000 H   0  0  0  0  0  0  0  0  0  0  0  0
    4.2558    4.6904    0.0000 H   0  0  0  0  0  0  0  0  0  0  0  0
    3.3287    1.8373    0.0000 H   0  0  0  0  0  0  0  0  0  0  0  0
   -1.6131    3.4430    0.0000 H   0  0  0  0  0  0  0  0  0  0  0  0
    2.7760    0.0000    0.0000 H   0  0  0  0  0  0  0  0  0  0  0  0
   -0.4222   -3.0474    0.0000 H   0  0  0  0  0  0  0  0  0  0  0  0
   -2.2302   -2.5798    0.0000 H   0  0  0  0  0  0  0  0  0  0  0  0
   -3.1427   -1.3239    0.0000 H   0  0  0  0  0  0  0  0  0  0  0  0
   -3.0287    0.5402    0.0000 H   0  0  0  0  0  0  0  0  0  0  0  0
   -2.2458    1.6317    0.0000 H   0  0  0  0  0  0  0  0  0  0  0  0
  1  2  1  0
  2  3  1  0
  2  4  1  0
  4  5  2  0
  5  6  1  0
  6  7  2  0
  7  8  1  0
  8  9  2  0
  8 10  1  0
 10 11  2  0
 11 12  1  0
 12 13  1  0
 13 14  1  0
 14 15  1  0
 15 16  1  0
 16 17  2  0
  9  4  1  0
 15 10  1  0
 16 12  1  0
  1 18  1  0
  1 19  1  0
  1 20  1  0
  2 21  1  0
  3 22  1  0
  5 23  1  0
  6 24  1  0
  7 25  1  0
  9 26  1  0
 11 27  1  0
 13 28  1  0
 13 29  1  0
 14 30  1  0
 14 31  1  0
 15 32  1  0
M  END
$$$$
[H]c1nc(C([H])(C([H])([H])[H])C([H])([H])[H])c([H])c(-c2sc([H])c([H])c2OC([H])([H])C([H])([H])C([H])([H])C([H])([H])C([H])([H])N([H])C(=O)c2c([H])c([H])c3c(c2[H])C([H])([H])C(=O)N3C([H])([H])[H])c1[H]
     RDKit          3D

 65 68  0  0  0  0  0  0  0  0999 V2000
    9.1592   -1.8617    1.5526 C   0  0  0  0  0  0  0  0  0  0  0  0
    8.6720   -1.5044    0.1426 C   0  0  0  0  0  0  0  0  0  0  0  0
    9.8020   -0.9044   -0.6416 C   0  0  0  0  0  0  0  0  0  0  0  0
    7.5524   -0.5584    0.3079 C   0  0  0  0  0  0  0  0  0  0  0  0
    6.3017   -0.9266   -0.1102 C   0  0  0  0  0  0  0  0  0  0  0  0
    5.2214   -0.0512    0.0352 C   0  0  0  0  0  0  0  0  0  0  0  0
    5.4425    1.1620    0.5964 C   0  0  0  0  0  0  0  0  0  0  0  0
    6.7063    1.5142    1.0104 C   0  0  0  0  0  0  0  0  0  0  0  0
    7.7385    0.6454    0.8577 N   0  0  0  0  0  0  0  0  0  0  0  0
    3.9087   -0.5385   -0.4477 C   0  0  0  0  0  0  0  0  0  0  0  0
    3.6417   -2.0617   -1.1590 S   0  0  0  0  0  0  0  0  0  0  0  0
    1.9796   -1.9572   -1.4587 C   0  0  0  0  0  0  0  0  0  0  0  0
    1.6617   -0.7192   -0.9913 C   0  0  0  0  0  0  0  0  0  0  0  0
    2.6625    0.0465   -0.4544 C   0  0  0  0  0  0  0  0  0  0  0  0
    2.4498    1.2793    0.0349 O   0  0  0  0  0  0  0  0  0  0  0  0
    1.7094    2.3201    0.3222 C   0  0  0  0  0  0  0  0  0  0  0  0
    1.0080    3.1486   -0.6853 C   0  0  0  0  0  0  0  0  0  0  0  0
   -0.0458    2.5468   -1.5186 C   0  0  0  0  0  0  0  0  0  0  0  0
   -1.2279    2.0330   -0.7112 C   0  0  0  0  0  0  0  0  0  0  0  0
   -2.2595    1.4346   -1.6437 C   0  0  0  0  0  0  0  0  0  0  0  0
   -3.3852    0.9468   -0.8807 N   0  0  0  0  0  0  0  0  0  0  0  0
   -4.4895    0.3406   -1.5103 C   0  0  0  0  0  0  0  0  0  0  0  0
   -4.4731    0.2319   -2.7638 O   0  0  0  0  0  0  0  0  0  0  0  0
   -5.6435   -0.1638   -0.7848 C   0  0  0  0  0  0  0  0  0  0  0  0
   -6.6572   -0.7774   -1.5118 C   0  0  0  0  0  0  0  0  0  0  0  0
   -7.7569   -1.2601   -0.8503 C   0  0  0  0  0  0  0  0  0  0  0  0
   -7.9015   -1.1623    0.5164 C   0  0  0  0  0  0  0  0  0  0  0  0
   -8.9463   -1.5944    1.3617 N   0  0  0  0  0  0  0  0  0  0  0  0
  -10.1558   -2.2678    0.9624 C   0  0  0  0  0  0  0  0  0  0  0  0
   -8.5783   -1.2377    2.6925 C   0  0  0  0  0  0  0  0  0  0  0  0
   -9.2699   -1.4672    3.7124 O   0  0  0  0  0  0  0  0  0  0  0  0
   -7.2581   -0.5556    2.6955 C   0  0  0  0  0  0  0  0  0  0  0  0
   -6.9064   -0.5571    1.2529 C   0  0  0  0  0  0  0  0  0  0  0  0
   -5.7913   -0.0675    0.5830 C   0  0  0  0  0  0  0  0  0  0  0  0
    9.1985   -0.9333    2.1560 H   0  0  0  0  0  0  0  0  0  0  0  0
    8.4013   -2.5122    2.0566 H   0  0  0  0  0  0  0  0  0  0  0  0
   10.0997   -2.4270    1.5336 H   0  0  0  0  0  0  0  0  0  0  0  0
    8.3312   -2.4439   -0.3362 H   0  0  0  0  0  0  0  0  0  0  0  0
    9.3651   -0.0994   -1.2844 H   0  0  0  0  0  0  0  0  0  0  0  0
   10.2641   -1.7011   -1.2482 H   0  0  0  0  0  0  0  0  0  0  0  0
   10.5329   -0.4926    0.0881 H   0  0  0  0  0  0  0  0  0  0  0  0
    6.1404   -1.9175   -0.5645 H   0  0  0  0  0  0  0  0  0  0  0  0
    4.6507    1.8704    0.7311 H   0  0  0  0  0  0  0  0  0  0  0  0
    6.9418    2.4645    1.4630 H   0  0  0  0  0  0  0  0  0  0  0  0
    1.2811   -2.6896   -1.9190 H   0  0  0  0  0  0  0  0  0  0  0  0
    0.5904   -0.4029   -1.0643 H   0  0  0  0  0  0  0  0  0  0  0  0
    2.2148    3.0868    1.0215 H   0  0  0  0  0  0  0  0  0  0  0  0
    0.8642    1.9767    1.0427 H   0  0  0  0  0  0  0  0  0  0  0  0
    0.5152    3.9976   -0.1063 H   0  0  0  0  0  0  0  0  0  0  0  0
    1.7391    3.6938   -1.3386 H   0  0  0  0  0  0  0  0  0  0  0  0
   -0.4873    3.3720   -2.1567 H   0  0  0  0  0  0  0  0  0  0  0  0
    0.3043    1.8043   -2.2621 H   0  0  0  0  0  0  0  0  0  0  0  0
   -0.9222    1.2730    0.0147 H   0  0  0  0  0  0  0  0  0  0  0  0
   -1.6688    2.9039   -0.2029 H   0  0  0  0  0  0  0  0  0  0  0  0
   -1.7512    0.6391   -2.2215 H   0  0  0  0  0  0  0  0  0  0  0  0
   -2.6296    2.2495   -2.3205 H   0  0  0  0  0  0  0  0  0  0  0  0
   -3.3857    1.0420    0.1528 H   0  0  0  0  0  0  0  0  0  0  0  0
   -6.5997   -0.8850   -2.6009 H   0  0  0  0  0  0  0  0  0  0  0  0
   -8.5280   -1.7319   -1.4432 H   0  0  0  0  0  0  0  0  0  0  0  0
  -10.2629   -2.2230   -0.1408 H   0  0  0  0  0  0  0  0  0  0  0  0
  -10.0972   -3.3303    1.3127 H   0  0  0  0  0  0  0  0  0  0  0  0
  -11.0526   -1.8235    1.4445 H   0  0  0  0  0  0  0  0  0  0  0  0
   -6.5359   -1.1244    3.3136 H   0  0  0  0  0  0  0  0  0  0  0  0
   -7.3702    0.5049    3.0551 H   0  0  0  0  0  0  0  0  0  0  0  0
   -5.0147    0.4034    1.1452 H   0  0  0  0  0  0  0  0  0  0  0  0
  1  2  1  0
  2  3  1  0
  2  4  1  0
  4  5  2  0
  5  6  1  0
  6  7  2  0
  7  8  1  0
  8  9  2  0
  6 10  1  0
 10 11  1  0
 11 12  1  0
 12 13  2  0
 13 14  1  0
 14 15  1  0
 15 16  1  0
 16 17  1  0
 17 18  1  0
 18 19  1  0
 19 20  1  0
 20 21  1  0
 21 22  1  0
 22 23  2  0
 22 24  1  0
 24 25  2  0
 25 26  1  0
 26 27  2  0
 27 28  1  0
 28 29  1  0
 28 30  1  0
 30 31  2  0
 30 32  1  0
 32 33  1  0
 33 34  2  0
  9  4  1  0
 14 10  2  0
 34 24  1  0
 33 27  1  0
  1 35  1  0
  1 36  1  0
  1 37  1  0
  2 38  1  0
  3 39  1  0
  3 40  1  0
  3 41  1  0
  5 42  1  0
  7 43  1  0
  8 44  1  0
 12 45  1  0
 13 46  1  0
 16 47  1  0
 16 48  1  0
 17 49  1  0
 17 50  1  0
 18 51  1  0
 18 52  1  0
 19 53  1  0
 19 54  1  0
 20 55  1  0
 20 56  1  0
 21 57  1  0
 25 58  1  0
 26 59  1  0
 29 60  1  0
 29 61  1  0
 29 62  1  0
 32 63  1  0
 32 64  1  0
 34 65  1  0
M  END
$$$$
[H]c1nc(N([H])c2c([H])c([H])c(N3C([H])([H])C([H])([H])C([H])(N4C([H])([H])C([H])([H])N(C([H])([H])[H])C([H])([H])C4([H])[H])C([H])([H])C3([H])[H])c([H])c2OC([H])([H])[H])nc(N([H])c2c([H])c([H])c([H])c([H])c2S(=O)(=O)C([H])(C([H])([H])[H])C([H])([H])[H])c1Cl
     RDKit          3D

 82 86  0  0  0  0  0  0  0  0999 V2000
   -0.1870    3.7228   -1.2569 C   0  0  0  0  0  0  0  0  0  0  0  0
    0.4390    2.5297   -0.8437 O   0  0  0  0  0  0  0  0  0  0  0  0
   -0.3483    1.4775   -0.4024 C   0  0  0  0  0  0  0  0  0  0  0  0
   -1.7220    1.6350   -0.3827 C   0  0  0  0  0  0  0  0  0  0  0  0
   -2.5624    0.6308    0.0436 C   0  0  0  0  0  0  0  0  0  0  0  0
   -1.9599   -0.5357    0.4478 C   0  0  0  0  0  0  0  0  0  0  0  0
   -0.5748   -0.7280    0.4408 C   0  0  0  0  0  0  0  0  0  0  0  0
    0.2576    0.2764    0.0150 C   0  0  0  0  0  0  0  0  0  0  0  0
    1.6540    0.2011   -0.0367 N   0  0  0  0  0  0  0  0  0  0  0  0
    2.4984   -0.8842    0.3177 C   0  0  0  0  0  0  0  0  0  0  0  0
    2.1033   -2.0726    0.7812 N   0  0  0  0  0  0  0  0  0  0  0  0
    2.9559   -3.0558    1.0957 C   0  0  0  0  0  0  0  0  0  0  0  0
    4.3092   -2.8632    0.9451 C   0  0  0  0  0  0  0  0  0  0  0  0
    5.4455   -4.1449    1.3534 Cl  0  0  0  0  0  0  0  0  0  0  0  0
    4.7527   -1.6166    0.4572 C   0  0  0  0  0  0  0  0  0  0  0  0
    6.1380   -1.4466    0.3110 N   0  0  0  0  0  0  0  0  0  0  0  0
    6.9009   -0.3576   -0.1368 C   0  0  0  0  0  0  0  0  0  0  0  0
    6.2766    0.8084   -0.5266 C   0  0  0  0  0  0  0  0  0  0  0  0
    7.0240    1.9039   -0.9778 C   0  0  0  0  0  0  0  0  0  0  0  0
    8.3820    1.8034   -1.0274 C   0  0  0  0  0  0  0  0  0  0  0  0
    9.0024    0.6381   -0.6374 C   0  0  0  0  0  0  0  0  0  0  0  0
    8.2961   -0.4485   -0.1920 C   0  0  0  0  0  0  0  0  0  0  0  0
    9.0842   -1.8926    0.2913 S   0  0  0  0  0  0  0  0  0  0  0  0
    8.6633   -3.0312   -0.6035 O   0  0  0  0  0  0  0  0  0  0  0  0
    8.8235   -2.3045    1.7132 O   0  0  0  0  0  0  0  0  0  0  0  0
   10.8572   -1.7881    0.1370 C   0  0  0  0  0  0  0  0  0  0  0  0
   11.2609   -1.6791   -1.2975 C   0  0  0  0  0  0  0  0  0  0  0  0
   11.4760   -0.7869    1.0544 C   0  0  0  0  0  0  0  0  0  0  0  0
    3.8248   -0.7008    0.1721 N   0  0  0  0  0  0  0  0  0  0  0  0
   -3.9818    0.8060    0.0512 N   0  0  0  0  0  0  0  0  0  0  0  0
   -4.5241    1.9609   -0.5784 C   0  0  0  0  0  0  0  0  0  0  0  0
   -6.0011    1.9283   -0.8544 C   0  0  0  0  0  0  0  0  0  0  0  0
   -6.8245    1.3726    0.2584 C   0  0  0  0  0  0  0  0  0  0  0  0
   -6.0036    0.6088    1.2781 C   0  0  0  0  0  0  0  0  0  0  0  0
   -4.8657   -0.1463    0.6796 C   0  0  0  0  0  0  0  0  0  0  0  0
   -7.9560    0.6086   -0.0875 N   0  0  0  0  0  0  0  0  0  0  0  0
   -7.7905   -0.5856   -0.8057 C   0  0  0  0  0  0  0  0  0  0  0  0
   -9.1362   -1.0235   -1.3907 C   0  0  0  0  0  0  0  0  0  0  0  0
  -10.1390   -0.8718   -0.3544 N   0  0  0  0  0  0  0  0  0  0  0  0
  -10.0361   -1.8235    0.7053 C   0  0  0  0  0  0  0  0  0  0  0  0
  -10.3349    0.4834    0.0484 C   0  0  0  0  0  0  0  0  0  0  0  0
   -9.1475    1.3193   -0.4248 C   0  0  0  0  0  0  0  0  0  0  0  0
    0.5375    4.4499   -1.6799 H   0  0  0  0  0  0  0  0  0  0  0  0
   -0.9481    3.5330   -2.0530 H   0  0  0  0  0  0  0  0  0  0  0  0
   -0.6880    4.2523   -0.4156 H   0  0  0  0  0  0  0  0  0  0  0  0
   -2.1476    2.5764   -0.7105 H   0  0  0  0  0  0  0  0  0  0  0  0
   -2.6020   -1.3517    0.7883 H   0  0  0  0  0  0  0  0  0  0  0  0
   -0.2121   -1.6859    0.7807 H   0  0  0  0  0  0  0  0  0  0  0  0
    2.1500    1.0935   -0.3956 H   0  0  0  0  0  0  0  0  0  0  0  0
    2.6174   -4.0222    1.4737 H   0  0  0  0  0  0  0  0  0  0  0  0
    6.7215   -2.3022    0.5911 H   0  0  0  0  0  0  0  0  0  0  0  0
    5.2202    0.9989   -0.5296 H   0  0  0  0  0  0  0  0  0  0  0  0
    6.5603    2.8305   -1.2896 H   0  0  0  0  0  0  0  0  0  0  0  0
    9.0220    2.6252   -1.3712 H   0  0  0  0  0  0  0  0  0  0  0  0
   10.0936    0.6299   -0.7052 H   0  0  0  0  0  0  0  0  0  0  0  0
   11.2252   -2.8031    0.4806 H   0  0  0  0  0  0  0  0  0  0  0  0
   11.9033   -0.7785   -1.4926 H   0  0  0  0  0  0  0  0  0  0  0  0
   10.3307   -1.5514   -1.9199 H   0  0  0  0  0  0  0  0  0  0  0  0
   11.7765   -2.5763   -1.6995 H   0  0  0  0  0  0  0  0  0  0  0  0
   12.0225   -1.2557    1.8769 H   0  0  0  0  0  0  0  0  0  0  0  0
   12.1781   -0.1622    0.4319 H   0  0  0  0  0  0  0  0  0  0  0  0
   10.7434   -0.0899    1.5079 H   0  0  0  0  0  0  0  0  0  0  0  0
   -4.2803    2.8410    0.0525 H   0  0  0  0  0  0  0  0  0  0  0  0
   -3.9354    2.1199   -1.5269 H   0  0  0  0  0  0  0  0  0  0  0  0
   -6.3084    2.9635   -1.1164 H   0  0  0  0  0  0  0  0  0  0  0  0
   -6.1470    1.3325   -1.7818 H   0  0  0  0  0  0  0  0  0  0  0  0
   -7.2139    2.2642    0.8421 H   0  0  0  0  0  0  0  0  0  0  0  0
   -6.6586   -0.1075    1.8153 H   0  0  0  0  0  0  0  0  0  0  0  0
   -5.5929    1.2907    2.0626 H   0  0  0  0  0  0  0  0  0  0  0  0
   -5.1731   -0.8869   -0.0780 H   0  0  0  0  0  0  0  0  0  0  0  0
   -4.3121   -0.6097    1.5260 H   0  0  0  0  0  0  0  0  0  0  0  0
   -7.5080   -1.4012   -0.0997 H   0  0  0  0  0  0  0  0  0  0  0  0
   -7.0082   -0.5774   -1.5870 H   0  0  0  0  0  0  0  0  0  0  0  0
   -9.4445   -0.3742   -2.2343 H   0  0  0  0  0  0  0  0  0  0  0  0
   -9.0261   -2.0597   -1.7202 H   0  0  0  0  0  0  0  0  0  0  0  0
   -9.1822   -2.5377    0.5321 H   0  0  0  0  0  0  0  0  0  0  0  0
   -9.9814   -1.3564    1.7041 H   0  0  0  0  0  0  0  0  0  0  0  0
  -10.9456   -2.4645    0.6802 H   0  0  0  0  0  0  0  0  0  0  0  0
  -11.2261    0.8855   -0.4545 H   0  0  0  0  0  0  0  0  0  0  0  0
  -10.4517    0.5517    1.1515 H   0  0  0  0  0  0  0  0  0  0  0  0
   -9.2778    1.5186   -1.4917 H   0  0  0  0  0  0  0  0  0  0  0  0
   -9.1611    2.2698    0.1783 H   0  0  0  0  0  0  0  0  0  0  0  0
  1  2  1  0
  2  3  1  0
  3  4  2  0
  4  5  1  0
  5  6  2  0
  6  7  1  0
  7  8  2  0
  8  9  1  0
  9 10  1  0
 10 11  2  0
 11 12  1  0
 12 13  2  0
 13 14  1  0
 13 15  1  0
 15 16  1  0
 16 17  1  0
 17 18  2  0
 18 19  1  0
 19 20  2  0
 20 21  1  0
 21 22  2  0
 22 23  1  0
 23 24  2  0
 23 25  2  0
 23 26  1  0
 26 27  1  0
 26 28  1  0
 15 29  2  0
  5 30  1  0
 30 31  1  0
 31 32  1  0
 32 33  1  0
 33 34  1  0
 34 35  1  0
 33 36  1  0
 36 37  1  0
 37 38  1  0
 38 39  1  0
 39 40  1  0
 39 41  1  0
 41 42  1  0
  8  3  1  0
 29 10  1  0
 35 30  1  0
 42 36  1  0
 22 17  1  0
  1 43  1  0
  1 44  1  0
  1 45  1  0
  4 46  1  0
  6 47  1  0
  7 48  1  0
  9 49  1  0
 12 50  1  0
 16 51  1  0
 18 52  1  0
 19 53  1  0
 20 54  1  0
 21 55  1  0
 26 56  1  0
 27 57  1  0
 27 58  1  0
 27 59  1  0
 28 60  1  0
 28 61  1  0
 28 62  1  0
 31 63  1  0
 31 64  1  0
 32 65  1  0
 32 66  1  0
 33 67  1  0
 34 68  1  0
 34 69  1  0
 35 70  1  0
 35 71  1  0
 37 72  1  0
 37 73  1  0
 38 74  1  0
 38 75  1  0
 40 76  1  0
 40 77  1  0
 40 78  1  0
 41 79  1  0
 41 80  1  0
 42 81  1  0
 42 82  1  0
M  END
$$$$
[H]c1nc([H])c(-c2c([H])c([H])c([H])c3c2C([H])([H])C([H])([H])N3C(=O)N([H])c2c([H])c([H])c([H])c(C([H])([H])[H])c2[H])c([H])c1[H]
     RDKit          3D

 44 47  0  0  0  0  0  0  0  0999 V2000
    6.4746   -1.8029   -0.1182 C   0  0  0  0  0  0  0  0  0  0  0  0
    5.6716   -0.6190    0.2896 C   0  0  0  0  0  0  0  0  0  0  0  0
    6.2927    0.4309    0.9100 C   0  0  0  0  0  0  0  0  0  0  0  0
    5.5717    1.5151    1.2867 C   0  0  0  0  0  0  0  0  0  0  0  0
    4.1904    1.5587    1.0398 C   0  0  0  0  0  0  0  0  0  0  0  0
    3.5218    0.5314    0.4204 C   0  0  0  0  0  0  0  0  0  0  0  0
    2.1462    0.5007    0.1147 N   0  0  0  0  0  0  0  0  0  0  0  0
    1.2186    1.5354    0.0955 C   0  0  0  0  0  0  0  0  0  0  0  0
    1.6026    2.7152    0.3924 O   0  0  0  0  0  0  0  0  0  0  0  0
   -0.1508    1.4024   -0.2279 N   0  0  0  0  0  0  0  0  0  0  0  0
   -1.2113    2.4189   -0.0789 C   0  0  0  0  0  0  0  0  0  0  0  0
   -2.2566    1.5262    0.6255 C   0  0  0  0  0  0  0  0  0  0  0  0
   -2.1550    0.2938   -0.2252 C   0  0  0  0  0  0  0  0  0  0  0  0
   -0.8679    0.2723   -0.7295 C   0  0  0  0  0  0  0  0  0  0  0  0
   -0.4767   -0.7521   -1.5746 C   0  0  0  0  0  0  0  0  0  0  0  0
   -1.3364   -1.7702   -1.9373 C   0  0  0  0  0  0  0  0  0  0  0  0
   -2.6245   -1.7148   -1.4082 C   0  0  0  0  0  0  0  0  0  0  0  0
   -3.0425   -0.7038   -0.5632 C   0  0  0  0  0  0  0  0  0  0  0  0
   -4.4116   -0.7319   -0.0603 C   0  0  0  0  0  0  0  0  0  0  0  0
   -4.7389   -0.4942    1.2585 C   0  0  0  0  0  0  0  0  0  0  0  0
   -6.0729   -0.5440    1.6385 C   0  0  0  0  0  0  0  0  0  0  0  0
   -7.0860   -0.8228    0.7450 C   0  0  0  0  0  0  0  0  0  0  0  0
   -6.7336   -1.0498   -0.5333 N   0  0  0  0  0  0  0  0  0  0  0  0
   -5.4419   -1.0066   -0.9256 C   0  0  0  0  0  0  0  0  0  0  0  0
    4.3417   -0.5578    0.0608 C   0  0  0  0  0  0  0  0  0  0  0  0
    7.5555   -1.4908   -0.2081 H   0  0  0  0  0  0  0  0  0  0  0  0
    6.3991   -2.5974    0.6441 H   0  0  0  0  0  0  0  0  0  0  0  0
    6.1645   -2.1738   -1.1255 H   0  0  0  0  0  0  0  0  0  0  0  0
    7.3662    0.4000    1.1030 H   0  0  0  0  0  0  0  0  0  0  0  0
    5.9963    2.3754    1.7787 H   0  0  0  0  0  0  0  0  0  0  0  0
    3.6324    2.4367    1.3633 H   0  0  0  0  0  0  0  0  0  0  0  0
    1.7568   -0.4664   -0.1150 H   0  0  0  0  0  0  0  0  0  0  0  0
   -0.9040    3.2590    0.5374 H   0  0  0  0  0  0  0  0  0  0  0  0
   -1.6307    2.6532   -1.0630 H   0  0  0  0  0  0  0  0  0  0  0  0
   -3.2172    2.0295    0.5297 H   0  0  0  0  0  0  0  0  0  0  0  0
   -1.9150    1.3613    1.6474 H   0  0  0  0  0  0  0  0  0  0  0  0
    0.5041   -0.7681   -1.9771 H   0  0  0  0  0  0  0  0  0  0  0  0
   -1.0173   -2.5663   -2.5991 H   0  0  0  0  0  0  0  0  0  0  0  0
   -3.2975   -2.5038   -1.6863 H   0  0  0  0  0  0  0  0  0  0  0  0
   -3.9409   -0.2727    1.9716 H   0  0  0  0  0  0  0  0  0  0  0  0
   -6.3586   -0.3623    2.6632 H   0  0  0  0  0  0  0  0  0  0  0  0
   -8.1381   -0.8584    1.0630 H   0  0  0  0  0  0  0  0  0  0  0  0
   -5.2149   -1.1936   -1.9490 H   0  0  0  0  0  0  0  0  0  0  0  0
    3.8337   -1.3927   -0.4366 H   0  0  0  0  0  0  0  0  0  0  0  0
  1  2  1  0
  2  3  2  0
  3  4  1  0
  4  5  2  0
  5  6  1  0
  6  7  1  0
  7  8  1  0
  8  9  2  0
  8 10  1  0
 10 11  1  0
 11 12  1  0
 12 13  1  0
 13 14  2  0
 14 15  1  0
 15 16  2  0
 16 17  1  0
 17 18  2  0
 18 19  1  0
 19 20  2  0
 20 21  1  0
 21 22  2  0
 22 23  1  0
 23 24  2  0
  6 25  2  0
 25  2  1  0
 14 10  1  0
 24 19  1  0
 18 13  1  0
  1 26  1  0
  1 27  1  0
  1 28  1  0
  3 29  1  0
  4 30  1  0
  5 31  1  0
  7 32  1  0
 11 33  1  0
 11 34  1  0
 12 35  1  0
 12 36  1  0
 15 37  1  0
 16 38  1  0
 17 39  1  0
 20 40  1  0
 21 41  1  0
 22 42  1  0
 24 43  1  0
 25 44  1  0
M  END
$$$$
