[H]c1nc([H])n([H])c1C#Cc1c([H])c(C(=O)N([H])c2c([H])c([H])c(C([H])([H])N3C([H])([H])C([H])([H])N(C([H])([H])[H])C([H])([H])C3([H])[H])c(C(F)(F)F)c2[H])c([H])c([H])c1C([H])([H])[H]
     RDKit          3D

 61 64  0  0  0  0  0  0  0  0999 V2000
   -7.6406    0.2362   -2.9984 C   0  0  0  0  0  0  0  0  0  0  0  0
   -7.2718    0.8912   -1.7607 N   0  0  0  0  0  0  0  0  0  0  0  0
   -5.9861    1.5003   -1.8299 C   0  0  0  0  0  0  0  0  0  0  0  0
   -4.8411    0.6253   -1.4402 C   0  0  0  0  0  0  0  0  0  0  0  0
   -5.0929    0.0524   -0.1756 N   0  0  0  0  0  0  0  0  0  0  0  0
   -4.4225    0.5983    0.9529 C   0  0  0  0  0  0  0  0  0  0  0  0
   -2.9700    0.4280    0.9989 C   0  0  0  0  0  0  0  0  0  0  0  0
   -2.2538   -0.2831    0.0469 C   0  0  0  0  0  0  0  0  0  0  0  0
   -0.8908   -0.4576    0.1249 C   0  0  0  0  0  0  0  0  0  0  0  0
   -0.1259    0.0738    1.1786 C   0  0  0  0  0  0  0  0  0  0  0  0
    1.2750   -0.1328    1.1766 N   0  0  0  0  0  0  0  0  0  0  0  0
    2.0855    0.0575    2.3071 C   0  0  0  0  0  0  0  0  0  0  0  0
    1.7191    0.4142    3.4428 O   0  0  0  0  0  0  0  0  0  0  0  0
    3.5422   -0.1923    2.1404 C   0  0  0  0  0  0  0  0  0  0  0  0
    4.3178   -0.3897    3.2648 C   0  0  0  0  0  0  0  0  0  0  0  0
    5.6705   -0.6187    3.1918 C   0  0  0  0  0  0  0  0  0  0  0  0
    6.2367   -0.6450    1.9368 C   0  0  0  0  0  0  0  0  0  0  0  0
    7.6978   -0.8920    1.8515 C   0  0  0  0  0  0  0  0  0  0  0  0
    5.5220   -0.4562    0.7816 C   0  0  0  0  0  0  0  0  0  0  0  0
    4.1528   -0.2274    0.9091 C   0  0  0  0  0  0  0  0  0  0  0  0
    6.1374   -0.4878   -0.5269 C   0  0  0  0  0  0  0  0  0  0  0  0
    6.6318   -0.5097   -1.6269 C   0  0  0  0  0  0  0  0  0  0  0  0
    7.1972   -0.5332   -2.9463 C   0  0  0  0  0  0  0  0  0  0  0  0
    6.4459   -0.6604   -4.0949 C   0  0  0  0  0  0  0  0  0  0  0  0
    7.2770   -0.6468   -5.1538 N   0  0  0  0  0  0  0  0  0  0  0  0
    8.5384   -0.5137   -4.6998 C   0  0  0  0  0  0  0  0  0  0  0  0
    8.4798   -0.4445   -3.3389 N   0  0  0  0  0  0  0  0  0  0  0  0
   -0.8375    0.7698    2.1077 C   0  0  0  0  0  0  0  0  0  0  0  0
   -2.2354    0.9546    2.0368 C   0  0  0  0  0  0  0  0  0  0  0  0
   -2.9007    1.7460    3.1099 C   0  0  0  0  0  0  0  0  0  0  0  0
   -3.5118    2.8890    2.6355 F   0  0  0  0  0  0  0  0  0  0  0  0
   -3.7958    0.9598    3.8526 F   0  0  0  0  0  0  0  0  0  0  0  0
   -1.9219    2.0953    4.0599 F   0  0  0  0  0  0  0  0  0  0  0  0
   -6.3696   -0.4791    0.0908 C   0  0  0  0  0  0  0  0  0  0  0  0
   -7.5243    0.0872   -0.6144 C   0  0  0  0  0  0  0  0  0  0  0  0
   -7.4132   -0.8506   -2.9270 H   0  0  0  0  0  0  0  0  0  0  0  0
   -8.7378    0.3500   -3.1467 H   0  0  0  0  0  0  0  0  0  0  0  0
   -7.0827    0.6181   -3.8719 H   0  0  0  0  0  0  0  0  0  0  0  0
   -5.8179    1.7932   -2.9084 H   0  0  0  0  0  0  0  0  0  0  0  0
   -5.9579    2.4766   -1.2791 H   0  0  0  0  0  0  0  0  0  0  0  0
   -4.6583   -0.1528   -2.2040 H   0  0  0  0  0  0  0  0  0  0  0  0
   -3.9445    1.2779   -1.3793 H   0  0  0  0  0  0  0  0  0  0  0  0
   -4.7761    1.6474    1.0592 H   0  0  0  0  0  0  0  0  0  0  0  0
   -4.8707    0.0713    1.8524 H   0  0  0  0  0  0  0  0  0  0  0  0
   -2.7945   -0.7307   -0.7838 H   0  0  0  0  0  0  0  0  0  0  0  0
   -0.3426   -1.0216   -0.6342 H   0  0  0  0  0  0  0  0  0  0  0  0
    1.6998   -0.4487    0.2536 H   0  0  0  0  0  0  0  0  0  0  0  0
    3.8216   -0.3600    4.2424 H   0  0  0  0  0  0  0  0  0  0  0  0
    6.2070   -0.7636    4.1174 H   0  0  0  0  0  0  0  0  0  0  0  0
    8.2574    0.0721    1.8906 H   0  0  0  0  0  0  0  0  0  0  0  0
    7.9070   -1.3638    0.8688 H   0  0  0  0  0  0  0  0  0  0  0  0
    8.0298   -1.5442    2.6963 H   0  0  0  0  0  0  0  0  0  0  0  0
    3.6229   -0.0797   -0.0031 H   0  0  0  0  0  0  0  0  0  0  0  0
    5.3532   -0.7569   -4.1438 H   0  0  0  0  0  0  0  0  0  0  0  0
    9.4680   -0.4640   -5.2503 H   0  0  0  0  0  0  0  0  0  0  0  0
    9.2712   -0.3399   -2.6677 H   0  0  0  0  0  0  0  0  0  0  0  0
   -0.3357    1.2221    2.9408 H   0  0  0  0  0  0  0  0  0  0  0  0
   -6.5535   -0.3881    1.2037 H   0  0  0  0  0  0  0  0  0  0  0  0
   -6.3111   -1.5993   -0.0612 H   0  0  0  0  0  0  0  0  0  0  0  0
   -8.2064   -0.7473   -0.9346 H   0  0  0  0  0  0  0  0  0  0  0  0
   -8.1690    0.7058    0.0782 H   0  0  0  0  0  0  0  0  0  0  0  0
  1  2  1  0
  2  3  1  0
  3  4  1  0
  4  5  1  0
  5  6  1  0
  6  7  1  0
  7  8  2  0
  8  9  1  0
  9 10  2  0
 10 11  1  0
 11 12  1  0
 12 13  2  0
 12 14  1  0
 14 15  2  0
 15 16  1  0
 16 17  2  0
 17 18  1  0
 17 19  1  0
 19 20  2  0
 19 21  1  0
 21 22  3  0
 22 23  1  0
 23 24  2  0
 24 25  1  0
 25 26  2  0
 26 27  1  0
 10 28  1  0
 28 29  2  0
 29 30  1  0
 30 31  1  0
 30 32  1  0
 30 33  1  0
  5 34  1  0
 34 35  1  0
 35  2  1  0
 29  7  1  0
 20 14  1  0
 27 23  1  0
  1 36  1  0
  1 37  1  0
  1 38  1  0
  3 39  1  0
  3 40  1  0
  4 41  1  0
  4 42  1  0
  6 43  1  0
  6 44  1  0
  8 45  1  0
  9 46  1  0
 11 47  1  0
 15 48  1  0
 16 49  1  0
 18 50  1  0
 18 51  1  0
 18 52  1  0
 20 53  1  0
 24 54  1  0
 26 55  1  0
 27 56  1  0
 28 57  1  0
 34 58  1  0
 34 59  1  0
 35 60  1  0
 35 61  1  0
M  END
$$$$
[H]c1nc2c(C([H])([H])[H])c([H])c(-c3c(C([H])(C([H])([H])[H])C([H])([H])[H])c4c([H])c(C5([H])C([H])([H])C([H])([H])N(S(=O)(=O)C([H])([H])[H])C([H])([H])C5([H])[H])c([H])c([H])c4n3[H])c([H])n2n1
     RDKit          3D

 61 65  0  0  0  0  0  0  0  0999 V2000
   -2.0738   -2.5781   -1.4606 C   0  0  0  0  0  0  0  0  0  0  0  0
   -2.4436   -1.5855   -0.4531 C   0  0  0  0  0  0  0  0  0  0  0  0
   -1.7895   -2.2117    0.9026 C   0  0  0  0  0  0  0  0  0  0  0  0
   -1.9627   -0.2177   -0.4811 C   0  0  0  0  0  0  0  0  0  0  0  0
   -2.6354    0.9624   -0.1975 C   0  0  0  0  0  0  0  0  0  0  0  0
   -1.7547    1.9385   -0.0681 N   0  0  0  0  0  0  0  0  0  0  0  0
   -0.5079    1.4884   -0.2483 C   0  0  0  0  0  0  0  0  0  0  0  0
    0.6854    2.1620   -0.1201 C   0  0  0  0  0  0  0  0  0  0  0  0
    1.8377    1.4364   -0.2478 C   0  0  0  0  0  0  0  0  0  0  0  0
    1.7832    0.0640   -0.5034 C   0  0  0  0  0  0  0  0  0  0  0  0
    0.5772   -0.5659   -0.6350 C   0  0  0  0  0  0  0  0  0  0  0  0
   -0.6200    0.1394   -0.5080 C   0  0  0  0  0  0  0  0  0  0  0  0
    3.0911   -0.6732   -0.4204 C   0  0  0  0  0  0  0  0  0  0  0  0
    3.6947   -0.3354    0.9500 C   0  0  0  0  0  0  0  0  0  0  0  0
    5.1175    0.1179    0.8881 C   0  0  0  0  0  0  0  0  0  0  0  0
    5.9229   -0.7882    0.1226 N   0  0  0  0  0  0  0  0  0  0  0  0
    5.4322   -0.9512   -1.1995 C   0  0  0  0  0  0  0  0  0  0  0  0
    4.0734   -0.3718   -1.4758 C   0  0  0  0  0  0  0  0  0  0  0  0
    7.5530   -0.3499    0.2921 S   0  0  0  0  0  0  0  0  0  0  0  0
    7.9352    1.2620   -0.2926 C   0  0  0  0  0  0  0  0  0  0  0  0
    8.4389   -1.3592   -0.4164 O   0  0  0  0  0  0  0  0  0  0  0  0
    7.9279   -0.4257    1.7680 O   0  0  0  0  0  0  0  0  0  0  0  0
   -4.0704    1.0381    0.0006 C   0  0  0  0  0  0  0  0  0  0  0  0
   -4.9359    0.2202   -0.6682 C   0  0  0  0  0  0  0  0  0  0  0  0
   -6.2723    0.1794   -0.3645 C   0  0  0  0  0  0  0  0  0  0  0  0
   -7.2576   -0.7064   -1.0600 C   0  0  0  0  0  0  0  0  0  0  0  0
   -6.7233    0.9974    0.6411 C   0  0  0  0  0  0  0  0  0  0  0  0
   -7.9494    1.1905    1.1917 N   0  0  0  0  0  0  0  0  0  0  0  0
   -7.8618    2.0975    2.1730 C   0  0  0  0  0  0  0  0  0  0  0  0
   -6.5728    2.4694    2.2298 N   0  0  0  0  0  0  0  0  0  0  0  0
   -5.8684    1.7990    1.2903 N   0  0  0  0  0  0  0  0  0  0  0  0
   -4.5492    1.8391    0.9909 C   0  0  0  0  0  0  0  0  0  0  0  0
   -1.5203   -2.2088   -2.3739 H   0  0  0  0  0  0  0  0  0  0  0  0
   -3.0205   -3.1259   -1.8487 H   0  0  0  0  0  0  0  0  0  0  0  0
   -1.4909   -3.4057   -1.0532 H   0  0  0  0  0  0  0  0  0  0  0  0
   -3.4951   -1.6839   -0.1631 H   0  0  0  0  0  0  0  0  0  0  0  0
   -1.0736   -2.9754    0.6085 H   0  0  0  0  0  0  0  0  0  0  0  0
   -2.5845   -2.6125    1.5188 H   0  0  0  0  0  0  0  0  0  0  0  0
   -1.2808   -1.3973    1.4233 H   0  0  0  0  0  0  0  0  0  0  0  0
   -1.9986    2.9350    0.1406 H   0  0  0  0  0  0  0  0  0  0  0  0
    0.7748    3.2239    0.0699 H   0  0  0  0  0  0  0  0  0  0  0  0
    2.7945    1.9525   -0.1493 H   0  0  0  0  0  0  0  0  0  0  0  0
    0.5161   -1.6077   -0.8368 H   0  0  0  0  0  0  0  0  0  0  0  0
    2.8821   -1.7716   -0.4453 H   0  0  0  0  0  0  0  0  0  0  0  0
    3.1056    0.5577    1.3485 H   0  0  0  0  0  0  0  0  0  0  0  0
    3.5688   -1.1867    1.6171 H   0  0  0  0  0  0  0  0  0  0  0  0
    5.5223    0.2026    1.8996 H   0  0  0  0  0  0  0  0  0  0  0  0
    5.1962    1.1335    0.4097 H   0  0  0  0  0  0  0  0  0  0  0  0
    5.3540   -2.0504   -1.3888 H   0  0  0  0  0  0  0  0  0  0  0  0
    6.1822   -0.5557   -1.9490 H   0  0  0  0  0  0  0  0  0  0  0  0
    3.7414   -0.8461   -2.4530 H   0  0  0  0  0  0  0  0  0  0  0  0
    4.2104    0.7346   -1.6574 H   0  0  0  0  0  0  0  0  0  0  0  0
    9.0374    1.4244   -0.2224 H   0  0  0  0  0  0  0  0  0  0  0  0
    7.6681    1.3211   -1.3673 H   0  0  0  0  0  0  0  0  0  0  0  0
    7.3572    2.0379    0.2676 H   0  0  0  0  0  0  0  0  0  0  0  0
   -4.6322   -0.4141   -1.5017 H   0  0  0  0  0  0  0  0  0  0  0  0
   -6.7717   -1.2471   -1.9209 H   0  0  0  0  0  0  0  0  0  0  0  0
   -7.5033   -1.5170   -0.3263 H   0  0  0  0  0  0  0  0  0  0  0  0
   -8.1882   -0.2130   -1.3542 H   0  0  0  0  0  0  0  0  0  0  0  0
   -8.6508    2.4815    2.8122 H   0  0  0  0  0  0  0  0  0  0  0  0
   -3.9224    2.5326    1.5881 H   0  0  0  0  0  0  0  0  0  0  0  0
  1  2  1  0
  2  3  1  0
  2  4  1  0
  4  5  2  0
  5  6  1  0
  6  7  1  0
  7  8  2  0
  8  9  1  0
  9 10  2  0
 10 11  1  0
 11 12  2  0
 10 13  1  0
 13 14  1  0
 14 15  1  0
 15 16  1  0
 16 17  1  0
 17 18  1  0
 16 19  1  0
 19 20  1  0
 19 21  2  0
 19 22  2  0
  5 23  1  0
 23 24  1  0
 24 25  2  0
 25 26  1  0
 25 27  1  0
 27 28  2  0
 28 29  1  0
 29 30  2  0
 30 31  1  0
 31 32  1  0
 12  4  1  0
 18 13  1  0
 32 23  2  0
 12  7  1  0
 31 27  1  0
  1 33  1  0
  1 34  1  0
  1 35  1  0
  2 36  1  0
  3 37  1  0
  3 38  1  0
  3 39  1  0
  6 40  1  0
  8 41  1  0
  9 42  1  0
 11 43  1  0
 13 44  1  0
 14 45  1  0
 14 46  1  0
 15 47  1  0
 15 48  1  0
 17 49  1  0
 17 50  1  0
 18 51  1  0
 18 52  1  0
 20 53  1  0
 20 54  1  0
 20 55  1  0
 24 56  1  0
 26 57  1  0
 26 58  1  0
 26 59  1  0
 29 60  1  0
 32 61  1  0
M  END
$$$$
[H]C1=C([H])C([H])(F)C([H])([H])C([H])=C1N([H])C(=O)C1(C(=O)N([H])c2c([H])c([H])c(Oc3c([H])c([H])nc4c([H])c(OC([H])([H])C([H])([H])C([H])([H])N5C([H])([H])C([H])([H])C([H])([H])C([H])([H])C5([H])[H])c(OC([H])([H])[H])c([H])c34)c(F)c2[H])C([H])([H])C1([H])[H]
     RDKit          3D

 84 89  0  0  0  0  0  0  0  0999 V2000
    3.8941   -3.7132    0.1913 C   0  0  0  0  0  0  0  0  0  0  0  0
    4.6565   -2.6079   -0.2681 O   0  0  0  0  0  0  0  0  0  0  0  0
    4.0305   -1.4283   -0.6539 C   0  0  0  0  0  0  0  0  0  0  0  0
    2.6597   -1.2972   -0.6016 C   0  0  0  0  0  0  0  0  0  0  0  0
    2.0436   -0.1222   -0.9870 C   0  0  0  0  0  0  0  0  0  0  0  0
    0.6510    0.0367   -0.9451 C   0  0  0  0  0  0  0  0  0  0  0  0
   -0.0755   -1.0256   -0.4996 O   0  0  0  0  0  0  0  0  0  0  0  0
   -1.4492   -1.0402   -0.3255 C   0  0  0  0  0  0  0  0  0  0  0  0
   -2.2606   -1.8743   -1.0649 C   0  0  0  0  0  0  0  0  0  0  0  0
   -3.6423   -1.8715   -0.8692 C   0  0  0  0  0  0  0  0  0  0  0  0
   -4.2526   -1.0654    0.0403 C   0  0  0  0  0  0  0  0  0  0  0  0
   -5.6503   -1.0411    0.3103 N   0  0  0  0  0  0  0  0  0  0  0  0
   -6.4608   -2.1680    0.2347 C   0  0  0  0  0  0  0  0  0  0  0  0
   -5.8498   -3.2675   -0.0680 O   0  0  0  0  0  0  0  0  0  0  0  0
   -7.9176   -2.3168    0.4538 C   0  0  0  0  0  0  0  0  0  0  0  0
   -8.5358   -3.5604   -0.1118 C   0  0  0  0  0  0  0  0  0  0  0  0
   -8.2258   -3.5095    1.3287 C   0  0  0  0  0  0  0  0  0  0  0  0
   -8.8577   -1.1862    0.5085 C   0  0  0  0  0  0  0  0  0  0  0  0
  -10.0295   -1.5183    0.9875 O   0  0  0  0  0  0  0  0  0  0  0  0
   -8.6712    0.1344    0.1256 N   0  0  0  0  0  0  0  0  0  0  0  0
   -9.7018    1.1257    0.2594 C   0  0  0  0  0  0  0  0  0  0  0  0
  -10.1675    1.7824   -0.7844 C   0  0  0  0  0  0  0  0  0  0  0  0
  -11.2276    2.8066   -0.6621 C   0  0  0  0  0  0  0  0  0  0  0  0
  -11.7828    3.0373    0.6810 C   0  0  0  0  0  0  0  0  0  0  0  0
  -13.1708    2.8095    0.6256 F   0  0  0  0  0  0  0  0  0  0  0  0
  -11.1912    2.2557    1.7682 C   0  0  0  0  0  0  0  0  0  0  0  0
  -10.2373    1.3788    1.5761 C   0  0  0  0  0  0  0  0  0  0  0  0
   -3.4356   -0.2282    0.7824 C   0  0  0  0  0  0  0  0  0  0  0  0
   -2.0698   -0.2231    0.5976 C   0  0  0  0  0  0  0  0  0  0  0  0
   -1.3225    0.6137    1.3883 F   0  0  0  0  0  0  0  0  0  0  0  0
    0.0582    1.2154   -1.3358 C   0  0  0  0  0  0  0  0  0  0  0  0
    0.8455    2.2647   -1.7771 C   0  0  0  0  0  0  0  0  0  0  0  0
    2.1789    2.1086   -1.8152 N   0  0  0  0  0  0  0  0  0  0  0  0
    2.7728    0.9564   -1.4354 C   0  0  0  0  0  0  0  0  0  0  0  0
    4.1549    0.8104   -1.4827 C   0  0  0  0  0  0  0  0  0  0  0  0
    4.7873   -0.3669   -1.0977 C   0  0  0  0  0  0  0  0  0  0  0  0
    6.1653   -0.5173   -1.1421 O   0  0  0  0  0  0  0  0  0  0  0  0
    6.9247    0.5946   -1.5969 C   0  0  0  0  0  0  0  0  0  0  0  0
    8.3981    0.2160   -1.5674 C   0  0  0  0  0  0  0  0  0  0  0  0
    8.7652   -0.1374   -0.1628 C   0  0  0  0  0  0  0  0  0  0  0  0
    8.5410    0.9713    0.7124 N   0  0  0  0  0  0  0  0  0  0  0  0
    8.8626    0.5943    2.0908 C   0  0  0  0  0  0  0  0  0  0  0  0
   10.1341    1.2231    2.5590 C   0  0  0  0  0  0  0  0  0  0  0  0
   11.2236    1.2674    1.5088 C   0  0  0  0  0  0  0  0  0  0  0  0
   10.7617    1.8537    0.2168 C   0  0  0  0  0  0  0  0  0  0  0  0
    9.2894    2.1446    0.3223 C   0  0  0  0  0  0  0  0  0  0  0  0
    4.5297   -4.6049    0.2046 H   0  0  0  0  0  0  0  0  0  0  0  0
    3.0368   -3.9207   -0.4537 H   0  0  0  0  0  0  0  0  0  0  0  0
    3.5857   -3.4838    1.2349 H   0  0  0  0  0  0  0  0  0  0  0  0
    2.0594   -2.1200   -0.2574 H   0  0  0  0  0  0  0  0  0  0  0  0
   -1.7910   -2.5214   -1.7915 H   0  0  0  0  0  0  0  0  0  0  0  0
   -4.2011   -2.5275   -1.4890 H   0  0  0  0  0  0  0  0  0  0  0  0
   -5.9930   -0.0843    0.6053 H   0  0  0  0  0  0  0  0  0  0  0  0
   -7.8776   -4.1574   -0.7922 H   0  0  0  0  0  0  0  0  0  0  0  0
   -9.5862   -3.5314   -0.4675 H   0  0  0  0  0  0  0  0  0  0  0  0
   -9.0668   -3.4296    2.0590 H   0  0  0  0  0  0  0  0  0  0  0  0
   -7.4089   -4.1370    1.6985 H   0  0  0  0  0  0  0  0  0  0  0  0
   -7.7902    0.4562   -0.3104 H   0  0  0  0  0  0  0  0  0  0  0  0
   -9.7650    1.5684   -1.7719 H   0  0  0  0  0  0  0  0  0  0  0  0
  -10.7674    3.7837   -1.0343 H   0  0  0  0  0  0  0  0  0  0  0  0
  -12.0168    2.5426   -1.4224 H   0  0  0  0  0  0  0  0  0  0  0  0
  -11.6408    4.1294    0.9469 H   0  0  0  0  0  0  0  0  0  0  0  0
  -11.5771    2.4212    2.8054 H   0  0  0  0  0  0  0  0  0  0  0  0
   -9.8450    0.8363    2.4194 H   0  0  0  0  0  0  0  0  0  0  0  0
   -3.9079    0.4182    1.5091 H   0  0  0  0  0  0  0  0  0  0  0  0
   -0.9995    1.3667   -1.3304 H   0  0  0  0  0  0  0  0  0  0  0  0
    0.3645    3.1827   -2.0801 H   0  0  0  0  0  0  0  0  0  0  0  0
    4.7341    1.6500   -1.8317 H   0  0  0  0  0  0  0  0  0  0  0  0
    6.7902    1.4564   -0.9075 H   0  0  0  0  0  0  0  0  0  0  0  0
    6.6790    0.8981   -2.6163 H   0  0  0  0  0  0  0  0  0  0  0  0
    8.5172   -0.6510   -2.2580 H   0  0  0  0  0  0  0  0  0  0  0  0
    8.9717    1.0419   -1.9999 H   0  0  0  0  0  0  0  0  0  0  0  0
    8.1514   -1.0174    0.1504 H   0  0  0  0  0  0  0  0  0  0  0  0
    9.8226   -0.4865   -0.1718 H   0  0  0  0  0  0  0  0  0  0  0  0
    8.8820   -0.5200    2.1502 H   0  0  0  0  0  0  0  0  0  0  0  0
    8.0335    0.9450    2.7222 H   0  0  0  0  0  0  0  0  0  0  0  0
   10.5337    0.5668    3.3880 H   0  0  0  0  0  0  0  0  0  0  0  0
    9.9539    2.2035    3.0123 H   0  0  0  0  0  0  0  0  0  0  0  0
   11.7159    0.2783    1.3726 H   0  0  0  0  0  0  0  0  0  0  0  0
   12.0186    1.9324    1.9308 H   0  0  0  0  0  0  0  0  0  0  0  0
   10.9303    1.1781   -0.6500 H   0  0  0  0  0  0  0  0  0  0  0  0
   11.3098    2.7776   -0.0117 H   0  0  0  0  0  0  0  0  0  0  0  0
    9.0848    2.9287    1.0867 H   0  0  0  0  0  0  0  0  0  0  0  0
    8.9162    2.5157   -0.6375 H   0  0  0  0  0  0  0  0  0  0  0  0
  1  2  1  0
  2  3  1  0
  3  4  2  0
  4  5  1  0
  5  6  2  0
  6  7  1  0
  7  8  1  0
  8  9  2  0
  9 10  1  0
 10 11  2  0
 11 12  1  0
 12 13  1  0
 13 14  2  0
 13 15  1  0
 15 16  1  0
 16 17  1  0
 15 18  1  0
 18 19  2  0
 18 20  1  0
 20 21  1  0
 21 22  2  0
 22 23  1  0
 23 24  1  0
 24 25  1  0
 24 26  1  0
 26 27  2  0
 11 28  1  0
 28 29  2  0
 29 30  1  0
  6 31  1  0
 31 32  2  0
 32 33  1  0
 33 34  2  0
 34 35  1  0
 35 36  2  0
 36 37  1  0
 37 38  1  0
 38 39  1  0
 39 40  1  0
 40 41  1  0
 41 42  1  0
 42 43  1  0
 43 44  1  0
 44 45  1  0
 45 46  1  0
 36  3  1  0
 46 41  1  0
 34  5  1  0
 29  8  1  0
 17 15  1  0
 27 21  1  0
  1 47  1  0
  1 48  1  0
  1 49  1  0
  4 50  1  0
  9 51  1  0
 10 52  1  0
 12 53  1  0
 16 54  1  0
 16 55  1  0
 17 56  1  0
 17 57  1  0
 20 58  1  0
 22 59  1  0
 23 60  1  0
 23 61  1  0
 24 62  1  0
 26 63  1  0
 27 64  1  0
 28 65  1  0
 31 66  1  0
 32 67  1  0
 35 68  1  0
 38 69  1  0
 38 70  1  0
 39 71  1  0
 39 72  1  0
 40 73  1  0
 40 74  1  0
 42 75  1  0
 42 76  1  0
 43 77  1  0
 43 78  1  0
 44 79  1  0
 44 80  1  0
 45 81  1  0
 45 82  1  0
 46 83  1  0
 46 84  1  0
M  END
$$$$
[H]c1c(F)c([H])c(C([H])([H])[H])c([H])c1-c1c(F)c([H])c2c(c(C(=O)N([H])[H])nn2[H])c1[H]
     RDKit          3D

 32 34  0  0  0  0  0  0  0  0999 V2000
    4.5119    0.8514    1.5433 C   0  0  0  0  0  0  0  0  0  0  0  0
    3.4421    0.8447    0.4933 C   0  0  0  0  0  0  0  0  0  0  0  0
    3.5920    1.5051   -0.6888 C   0  0  0  0  0  0  0  0  0  0  0  0
    2.5941    1.4785   -1.6271 C   0  0  0  0  0  0  0  0  0  0  0  0
    2.6909    2.1195   -2.8227 F   0  0  0  0  0  0  0  0  0  0  0  0
    1.4548    0.7843   -1.3609 C   0  0  0  0  0  0  0  0  0  0  0  0
    1.2567    0.0918   -0.1624 C   0  0  0  0  0  0  0  0  0  0  0  0
    2.2826    0.1497    0.7411 C   0  0  0  0  0  0  0  0  0  0  0  0
    0.0127   -0.6313    0.0634 C   0  0  0  0  0  0  0  0  0  0  0  0
   -1.2261   -0.0722   -0.2132 C   0  0  0  0  0  0  0  0  0  0  0  0
   -2.4038   -0.7672    0.0068 C   0  0  0  0  0  0  0  0  0  0  0  0
   -3.7118   -0.4568   -0.1751 C   0  0  0  0  0  0  0  0  0  0  0  0
   -4.4386   -1.5315    0.2150 N   0  0  0  0  0  0  0  0  0  0  0  0
   -3.6527   -2.4981    0.6315 N   0  0  0  0  0  0  0  0  0  0  0  0
   -2.3823   -2.0615    0.5175 C   0  0  0  0  0  0  0  0  0  0  0  0
   -1.1493   -2.6146    0.7914 C   0  0  0  0  0  0  0  0  0  0  0  0
    0.0268   -1.9092    0.5673 C   0  0  0  0  0  0  0  0  0  0  0  0
    1.2166   -2.4872    0.8469 F   0  0  0  0  0  0  0  0  0  0  0  0
   -4.2373    0.8003   -0.6941 C   0  0  0  0  0  0  0  0  0  0  0  0
   -3.4550    1.9035   -1.0929 N   0  0  0  0  0  0  0  0  0  0  0  0
   -5.4896    0.9415   -0.8068 O   0  0  0  0  0  0  0  0  0  0  0  0
    5.2802    0.0817    1.3015 H   0  0  0  0  0  0  0  0  0  0  0  0
    4.9689    1.8834    1.5915 H   0  0  0  0  0  0  0  0  0  0  0  0
    4.0372    0.6454    2.5241 H   0  0  0  0  0  0  0  0  0  0  0  0
    4.4867    2.0589   -0.9152 H   0  0  0  0  0  0  0  0  0  0  0  0
    0.6301    0.7289   -2.0693 H   0  0  0  0  0  0  0  0  0  0  0  0
    2.1883   -0.3702    1.6989 H   0  0  0  0  0  0  0  0  0  0  0  0
   -1.1946    0.9343   -0.6082 H   0  0  0  0  0  0  0  0  0  0  0  0
   -3.8819   -3.4446    0.9938 H   0  0  0  0  0  0  0  0  0  0  0  0
   -1.1344   -3.6181    1.1873 H   0  0  0  0  0  0  0  0  0  0  0  0
   -2.9153    1.9056   -1.9845 H   0  0  0  0  0  0  0  0  0  0  0  0
   -3.4002    2.7540   -0.4933 H   0  0  0  0  0  0  0  0  0  0  0  0
  1  2  1  0
  2  3  2  0
  3  4  1  0
  4  5  1  0
  4  6  2  0
  6  7  1  0
  7  8  2  0
  7  9  1  0
  9 10  2  0
 10 11  1  0
 11 12  1  0
 12 13  2  0
 13 14  1  0
 14 15  1  0
 15 16  1  0
 16 17  2  0
 17 18  1  0
 12 19  1  0
 19 20  1  0
 19 21  2  0
  8  2  1  0
 17  9  1  0
 15 11  2  0
  1 22  1  0
  1 23  1  0
  1 24  1  0
  3 25  1  0
  6 26  1  0
  8 27  1  0
 10 28  1  0
 14 29  1  0
 16 30  1  0
 20 31  1  0
 20 32  1  0
M  END
$$$$
[H]OC(=O)[C@]([H])(Oc1c([H])c([H])c(-c2c([H])c([H])c(-c3c(C([H])([H])c4c([H])c([H])c([H])c([H])c4[H])oc4c([H])c([H])c([H])c([H])c34)c([H])c2[H])c([H])c1[H])C([H])([H])c1c([H])c([H])c([H])c([H])c1[H]
     RDKit          3D

 68 73  0  0  0  0  0  0  0  0999 V2000
    7.8851   -2.7884    0.1646 O   0  0  0  0  0  0  0  0  0  0  0  0
    6.9075   -2.0461   -0.4499 C   0  0  0  0  0  0  0  0  0  0  0  0
    6.7879   -2.0858   -1.6906 O   0  0  0  0  0  0  0  0  0  0  0  0
    5.9904   -1.1982    0.3447 C   0  0  1  0  0  0  0  0  0  0  0  0
    6.7425   -0.1302    1.1340 C   0  0  0  0  0  0  0  0  0  0  0  0
    7.5071    0.7934    0.2805 C   0  0  0  0  0  0  0  0  0  0  0  0
    8.8258    0.5106   -0.0030 C   0  0  0  0  0  0  0  0  0  0  0  0
    9.5202    1.3990   -0.8270 C   0  0  0  0  0  0  0  0  0  0  0  0
    8.9430    2.5353   -1.3611 C   0  0  0  0  0  0  0  0  0  0  0  0
    7.6203    2.7663   -1.0422 C   0  0  0  0  0  0  0  0  0  0  0  0
    6.9133    1.9273   -0.2461 C   0  0  0  0  0  0  0  0  0  0  0  0
    5.0389   -0.5576   -0.4055 O   0  0  0  0  0  0  0  0  0  0  0  0
    3.6801   -0.6082   -0.2059 C   0  0  0  0  0  0  0  0  0  0  0  0
    2.8329    0.0980   -1.0885 C   0  0  0  0  0  0  0  0  0  0  0  0
    1.4745    0.0824   -0.9350 C   0  0  0  0  0  0  0  0  0  0  0  0
    0.8771   -0.6272    0.0937 C   0  0  0  0  0  0  0  0  0  0  0  0
    1.7122   -1.3080    0.9432 C   0  0  0  0  0  0  0  0  0  0  0  0
    3.0899   -1.3142    0.8174 C   0  0  0  0  0  0  0  0  0  0  0  0
   -0.5774   -0.6422    0.2409 C   0  0  0  0  0  0  0  0  0  0  0  0
   -1.4374   -0.5795   -0.8288 C   0  0  0  0  0  0  0  0  0  0  0  0
   -2.8161   -0.5880   -0.6010 C   0  0  0  0  0  0  0  0  0  0  0  0
   -3.3693   -0.6562    0.6508 C   0  0  0  0  0  0  0  0  0  0  0  0
   -2.4785   -0.7193    1.7291 C   0  0  0  0  0  0  0  0  0  0  0  0
   -1.1239   -0.7106    1.4929 C   0  0  0  0  0  0  0  0  0  0  0  0
   -4.7757   -0.6792    0.9583 C   0  0  0  0  0  0  0  0  0  0  0  0
   -5.6518    0.3342    1.1840 C   0  0  0  0  0  0  0  0  0  0  0  0
   -5.4209    1.7895    1.1569 C   0  0  0  0  0  0  0  0  0  0  0  0
   -5.4698    2.4127   -0.1710 C   0  0  0  0  0  0  0  0  0  0  0  0
   -6.7314    2.6545   -0.7396 C   0  0  0  0  0  0  0  0  0  0  0  0
   -6.8505    3.2651   -1.9705 C   0  0  0  0  0  0  0  0  0  0  0  0
   -5.7403    3.6579   -2.6835 C   0  0  0  0  0  0  0  0  0  0  0  0
   -4.4982    3.4263   -2.1370 C   0  0  0  0  0  0  0  0  0  0  0  0
   -4.3974    2.8154   -0.9066 C   0  0  0  0  0  0  0  0  0  0  0  0
   -6.8451   -0.2113    1.4528 O   0  0  0  0  0  0  0  0  0  0  0  0
   -6.8003   -1.5005    1.4158 C   0  0  0  0  0  0  0  0  0  0  0  0
   -7.7626   -2.4821    1.6219 C   0  0  0  0  0  0  0  0  0  0  0  0
   -7.3659   -3.7937    1.5031 C   0  0  0  0  0  0  0  0  0  0  0  0
   -6.0868   -4.1808    1.1951 C   0  0  0  0  0  0  0  0  0  0  0  0
   -5.1404   -3.1991    0.9926 C   0  0  0  0  0  0  0  0  0  0  0  0
   -5.5108   -1.8770    1.1057 C   0  0  0  0  0  0  0  0  0  0  0  0
    7.8449   -3.7878    0.3216 H   0  0  0  0  0  0  0  0  0  0  0  0
    5.5457   -1.8554    1.1055 H   0  0  0  0  0  0  0  0  0  0  0  0
    5.9777    0.4220    1.7182 H   0  0  0  0  0  0  0  0  0  0  0  0
    7.3969   -0.6369    1.8687 H   0  0  0  0  0  0  0  0  0  0  0  0
    9.3701   -0.3519    0.3723 H   0  0  0  0  0  0  0  0  0  0  0  0
   10.5575    1.2284   -1.0846 H   0  0  0  0  0  0  0  0  0  0  0  0
    9.5097    3.2043   -1.9975 H   0  0  0  0  0  0  0  0  0  0  0  0
    7.0967    3.6492   -1.4316 H   0  0  0  0  0  0  0  0  0  0  0  0
    5.8611    2.0811    0.0274 H   0  0  0  0  0  0  0  0  0  0  0  0
    3.3201    0.6459   -1.8836 H   0  0  0  0  0  0  0  0  0  0  0  0
    0.8200    0.6298   -1.6183 H   0  0  0  0  0  0  0  0  0  0  0  0
    1.2704   -1.8841    1.7730 H   0  0  0  0  0  0  0  0  0  0  0  0
    3.6849   -1.8908    1.5495 H   0  0  0  0  0  0  0  0  0  0  0  0
   -1.0233   -0.5250   -1.8241 H   0  0  0  0  0  0  0  0  0  0  0  0
   -3.4951   -0.5390   -1.4498 H   0  0  0  0  0  0  0  0  0  0  0  0
   -2.9192   -0.7742    2.7113 H   0  0  0  0  0  0  0  0  0  0  0  0
   -0.4832   -0.7615    2.3626 H   0  0  0  0  0  0  0  0  0  0  0  0
   -6.1786    2.2710    1.8503 H   0  0  0  0  0  0  0  0  0  0  0  0
   -4.4399    2.0125    1.6494 H   0  0  0  0  0  0  0  0  0  0  0  0
   -7.6079    2.3456   -0.1749 H   0  0  0  0  0  0  0  0  0  0  0  0
   -7.8461    3.4401   -2.3876 H   0  0  0  0  0  0  0  0  0  0  0  0
   -5.8893    4.1352   -3.6484 H   0  0  0  0  0  0  0  0  0  0  0  0
   -3.6321    3.7335   -2.6951 H   0  0  0  0  0  0  0  0  0  0  0  0
   -3.3996    2.6407   -0.4926 H   0  0  0  0  0  0  0  0  0  0  0  0
   -8.7915   -2.1836    1.8682 H   0  0  0  0  0  0  0  0  0  0  0  0
   -8.1143   -4.5600    1.6638 H   0  0  0  0  0  0  0  0  0  0  0  0
   -5.8109   -5.2465    1.1104 H   0  0  0  0  0  0  0  0  0  0  0  0
   -4.1228   -3.4267    0.7500 H   0  0  0  0  0  0  0  0  0  0  0  0
  1  2  1  0
  2  3  2  0
  2  4  1  0
  4  5  1  0
  5  6  1  0
  6  7  2  0
  7  8  1  0
  8  9  2  0
  9 10  1  0
 10 11  2  0
  4 12  1  0
 12 13  1  0
 13 14  2  0
 14 15  1  0
 15 16  2  0
 16 17  1  0
 17 18  2  0
 16 19  1  0
 19 20  2  0
 20 21  1  0
 21 22  2  0
 22 23  1  0
 23 24  2  0
 22 25  1  0
 25 26  2  0
 26 27  1  0
 27 28  1  0
 28 29  2  0
 29 30  1  0
 30 31  2  0
 31 32  1  0
 32 33  2  0
 26 34  1  0
 34 35  1  0
 35 36  2  0
 36 37  1  0
 37 38  2  0
 38 39  1  0
 39 40  2  0
 11  6  1  0
 18 13  1  0
 24 19  1  0
 40 25  1  0
 33 28  1  0
 40 35  1  0
  1 41  1  0
  4 42  1  1
  5 43  1  0
  5 44  1  0
  7 45  1  0
  8 46  1  0
  9 47  1  0
 10 48  1  0
 11 49  1  0
 14 50  1  0
 15 51  1  0
 17 52  1  0
 18 53  1  0
 20 54  1  0
 21 55  1  0
 23 56  1  0
 24 57  1  0
 27 58  1  0
 27 59  1  0
 29 60  1  0
 30 61  1  0
 31 62  1  0
 32 63  1  0
 33 64  1  0
 36 65  1  0
 37 66  1  0
 38 67  1  0
 39 68  1  0
M  END
$$$$
[H]c1c(-c2c([H])c([H])c(N([H])C(=O)N([H])c3c([H])c([H])c(N4C([H])([H])C([H])([H])OC([H])([H])C4([H])[H])c([H])c3[H])c([H])c2[H])nc(N2C([H])([H])C([H])([H])OC([H])([H])[C@@]2([H])C([H])([H])[H])nc1C1([H])C([H])([H])C([H])([H])OC([H])([H])C1([H])[H]
     RDKit          3D

 79 84  0  0  0  0  0  0  0  0999 V2000
   -8.3194    0.9458   -1.1469 C   0  0  0  0  0  0  0  0  0  0  0  0
   -7.8526    2.1563   -0.3917 C   0  0  2  0  0  0  0  0  0  0  0  0
   -8.5541    3.3701   -0.9461 C   0  0  0  0  0  0  0  0  0  0  0  0
   -8.1464    4.5673   -0.4348 O   0  0  0  0  0  0  0  0  0  0  0  0
   -6.9144    4.6007    0.1566 C   0  0  0  0  0  0  0  0  0  0  0  0
   -5.9501    3.7115   -0.6341 C   0  0  0  0  0  0  0  0  0  0  0  0
   -6.4301    2.3664   -0.4437 N   0  0  0  0  0  0  0  0  0  0  0  0
   -5.5295    1.2864   -0.3109 C   0  0  0  0  0  0  0  0  0  0  0  0
   -5.9579    0.0135   -0.1361 N   0  0  0  0  0  0  0  0  0  0  0  0
   -5.1434   -1.0434   -0.0046 C   0  0  0  0  0  0  0  0  0  0  0  0
   -3.7814   -0.8099   -0.0516 C   0  0  0  0  0  0  0  0  0  0  0  0
   -3.2941    0.4620   -0.2268 C   0  0  0  0  0  0  0  0  0  0  0  0
   -4.1897    1.4518   -0.3485 N   0  0  0  0  0  0  0  0  0  0  0  0
   -1.8589    0.7835   -0.2816 C   0  0  0  0  0  0  0  0  0  0  0  0
   -0.8755   -0.1663   -0.1763 C   0  0  0  0  0  0  0  0  0  0  0  0
    0.4862    0.1728   -0.2287 C   0  0  0  0  0  0  0  0  0  0  0  0
    0.9075    1.4660   -0.3870 C   0  0  0  0  0  0  0  0  0  0  0  0
    2.2553    1.8715   -0.4347 N   0  0  0  0  0  0  0  0  0  0  0  0
    3.3951    1.0716   -0.1634 C   0  0  0  0  0  0  0  0  0  0  0  0
    3.3383   -0.1313    0.1649 O   0  0  0  0  0  0  0  0  0  0  0  0
    4.6888    1.6384   -0.2614 N   0  0  0  0  0  0  0  0  0  0  0  0
    5.9079    0.9868   -0.0404 C   0  0  0  0  0  0  0  0  0  0  0  0
    6.0634   -0.3628   -0.1578 C   0  0  0  0  0  0  0  0  0  0  0  0
    7.2973   -0.9316    0.1023 C   0  0  0  0  0  0  0  0  0  0  0  0
    8.4070   -0.1717    0.4848 C   0  0  0  0  0  0  0  0  0  0  0  0
    8.2090    1.1800    0.5903 C   0  0  0  0  0  0  0  0  0  0  0  0
    7.0041    1.7811    0.3420 C   0  0  0  0  0  0  0  0  0  0  0  0
    9.6252   -0.8275    0.7232 N   0  0  0  0  0  0  0  0  0  0  0  0
    9.7564   -2.2555    0.4515 C   0  0  0  0  0  0  0  0  0  0  0  0
   11.2656   -2.5085    0.3362 C   0  0  0  0  0  0  0  0  0  0  0  0
   11.8417   -1.5252   -0.4504 O   0  0  0  0  0  0  0  0  0  0  0  0
   11.8807   -0.2829    0.1782 C   0  0  0  0  0  0  0  0  0  0  0  0
   10.7886   -0.1718    1.2369 C   0  0  0  0  0  0  0  0  0  0  0  0
   -0.1078    2.4303   -0.4941 C   0  0  0  0  0  0  0  0  0  0  0  0
   -1.4300    2.0836   -0.4414 C   0  0  0  0  0  0  0  0  0  0  0  0
   -5.5916   -2.4374    0.1883 C   0  0  0  0  0  0  0  0  0  0  0  0
   -5.1216   -2.9808    1.5430 C   0  0  0  0  0  0  0  0  0  0  0  0
   -5.8130   -4.3136    1.7339 C   0  0  0  0  0  0  0  0  0  0  0  0
   -6.4065   -4.7803    0.5756 O   0  0  0  0  0  0  0  0  0  0  0  0
   -5.5321   -4.7731   -0.5095 C   0  0  0  0  0  0  0  0  0  0  0  0
   -5.0932   -3.3698   -0.8664 C   0  0  0  0  0  0  0  0  0  0  0  0
   -7.6679    0.6805   -1.9873 H   0  0  0  0  0  0  0  0  0  0  0  0
   -9.3245    1.1739   -1.5968 H   0  0  0  0  0  0  0  0  0  0  0  0
   -8.5263    0.0808   -0.4585 H   0  0  0  0  0  0  0  0  0  0  0  0
   -8.1096    1.9839    0.6821 H   0  0  0  0  0  0  0  0  0  0  0  0
   -9.6546    3.2283   -0.7788 H   0  0  0  0  0  0  0  0  0  0  0  0
   -8.4304    3.3243   -2.0675 H   0  0  0  0  0  0  0  0  0  0  0  0
   -6.5438    5.6639    0.1134 H   0  0  0  0  0  0  0  0  0  0  0  0
   -6.9062    4.3211    1.2369 H   0  0  0  0  0  0  0  0  0  0  0  0
   -4.9247    3.8698   -0.2138 H   0  0  0  0  0  0  0  0  0  0  0  0
   -6.0357    4.0449   -1.6870 H   0  0  0  0  0  0  0  0  0  0  0  0
   -3.0918   -1.6339    0.0503 H   0  0  0  0  0  0  0  0  0  0  0  0
   -1.1294   -1.1951   -0.0507 H   0  0  0  0  0  0  0  0  0  0  0  0
    1.1811   -0.6462   -0.1455 H   0  0  0  0  0  0  0  0  0  0  0  0
    2.4492    2.8979   -0.7089 H   0  0  0  0  0  0  0  0  0  0  0  0
    4.7282    2.6693   -0.5361 H   0  0  0  0  0  0  0  0  0  0  0  0
    5.2932   -1.0652   -0.4631 H   0  0  0  0  0  0  0  0  0  0  0  0
    7.4346   -2.0010    0.0150 H   0  0  0  0  0  0  0  0  0  0  0  0
    9.0185    1.8509    0.8801 H   0  0  0  0  0  0  0  0  0  0  0  0
    6.8648    2.8572    0.4310 H   0  0  0  0  0  0  0  0  0  0  0  0
    9.2955   -2.8858    1.2096 H   0  0  0  0  0  0  0  0  0  0  0  0
    9.3274   -2.4658   -0.5509 H   0  0  0  0  0  0  0  0  0  0  0  0
   11.4621   -3.4813   -0.1759 H   0  0  0  0  0  0  0  0  0  0  0  0
   11.7394   -2.5439    1.3215 H   0  0  0  0  0  0  0  0  0  0  0  0
   12.8479   -0.2398    0.7198 H   0  0  0  0  0  0  0  0  0  0  0  0
   11.7629    0.5593   -0.5275 H   0  0  0  0  0  0  0  0  0  0  0  0
   10.6265    0.8974    1.3893 H   0  0  0  0  0  0  0  0  0  0  0  0
   11.1555   -0.6841    2.1631 H   0  0  0  0  0  0  0  0  0  0  0  0
    0.2197    3.4701   -0.6205 H   0  0  0  0  0  0  0  0  0  0  0  0
   -2.2006    2.8547   -0.5280 H   0  0  0  0  0  0  0  0  0  0  0  0
   -6.6979   -2.5071    0.2124 H   0  0  0  0  0  0  0  0  0  0  0  0
   -4.0370   -3.1618    1.4287 H   0  0  0  0  0  0  0  0  0  0  0  0
   -5.3580   -2.2641    2.3506 H   0  0  0  0  0  0  0  0  0  0  0  0
   -5.1442   -5.0630    2.2073 H   0  0  0  0  0  0  0  0  0  0  0  0
   -6.6320   -4.1288    2.4737 H   0  0  0  0  0  0  0  0  0  0  0  0
   -4.6865   -5.4457   -0.3133 H   0  0  0  0  0  0  0  0  0  0  0  0
   -6.0911   -5.1776   -1.3746 H   0  0  0  0  0  0  0  0  0  0  0  0
   -3.9761   -3.3397   -0.8346 H   0  0  0  0  0  0  0  0  0  0  0  0
   -5.4631   -3.0527   -1.8615 H   0  0  0  0  0  0  0  0  0  0  0  0
  1  2  1  0
  2  3  1  0
  3  4  1  0
  4  5  1  0
  5  6  1  0
  6  7  1  0
  7  8  1  0
  8  9  2  0
  9 10  1  0
 10 11  2  0
 11 12  1  0
 12 13  2  0
 12 14  1  0
 14 15  2  0
 15 16  1  0
 16 17  2  0
 17 18  1  0
 18 19  1  0
 19 20  2  0
 19 21  1  0
 21 22  1  0
 22 23  2  0
 23 24  1  0
 24 25  2  0
 25 26  1  0
 26 27  2  0
 25 28  1  0
 28 29  1  0
 29 30  1  0
 30 31  1  0
 31 32  1  0
 32 33  1  0
 17 34  1  0
 34 35  2  0
 10 36  1  0
 36 37  1  0
 37 38  1  0
 38 39  1  0
 39 40  1  0
 40 41  1  0
  7  2  1  0
 13  8  1  0
 35 14  1  0
 41 36  1  0
 27 22  1  0
 33 28  1  0
  1 42  1  0
  1 43  1  0
  1 44  1  0
  2 45  1  1
  3 46  1  0
  3 47  1  0
  5 48  1  0
  5 49  1  0
  6 50  1  0
  6 51  1  0
 11 52  1  0
 15 53  1  0
 16 54  1  0
 18 55  1  0
 21 56  1  0
 23 57  1  0
 24 58  1  0
 26 59  1  0
 27 60  1  0
 29 61  1  0
 29 62  1  0
 30 63  1  0
 30 64  1  0
 32 65  1  0
 32 66  1  0
 33 67  1  0
 33 68  1  0
 34 69  1  0
 35 70  1  0
 36 71  1  0
 37 72  1  0
 37 73  1  0
 38 74  1  0
 38 75  1  0
 40 76  1  0
 40 77  1  0
 41 78  1  0
 41 79  1  0
M  END
$$$$
[H]c1c([H])c([H])c(C([H])([H])[C@@]2([H])C(=O)N([H])[C@@]([H])(C([H])([H])C(=O)N([H])[H])C(=O)N([H])[C@]([H])(C(=O)N([H])[H])C([H])([H])SSC([H])([H])[C@]([H])(N([H])[H])C(=O)N([H])[C@@]([H])(C([H])([H])c3c([H])c([H])c([H])c([H])c3[H])C(=O)N([H])[C@@]([H])([C@@]([H])(C([H])([H])[H])C([H])([H])C([H])([H])[H])C(=O)N2[H])c([H])c1[H]
     RDKit          3D

 97 99  0  0  0  0  0  0  0  0999 V2000
    2.6817   -3.8027    3.1691 C   0  0  0  0  0  0  0  0  0  0  0  0
    2.5236   -2.6764    2.2078 C   0  0  0  0  0  0  0  0  0  0  0  0
    1.2972   -2.8943    1.2912 C   0  0  2  0  0  0  0  0  0  0  0  0
    1.6193   -4.2025    0.5752 C   0  0  0  0  0  0  0  0  0  0  0  0
    1.2809   -1.7044    0.3610 C   0  0  2  0  0  0  0  0  0  0  0  0
    1.1849   -0.5004    1.1304 N   0  0  0  0  0  0  0  0  0  0  0  0
    1.4957    0.8196    0.7604 C   0  0  0  0  0  0  0  0  0  0  0  0
    0.5515    1.7081    0.7975 O   0  0  0  0  0  0  0  0  0  0  0  0
    2.8046    1.3661    0.3162 C   0  0  2  0  0  0  0  0  0  0  0  0
    3.9929    0.7870    1.0250 C   0  0  0  0  0  0  0  0  0  0  0  0
    5.2957    1.3082    0.6108 C   0  0  0  0  0  0  0  0  0  0  0  0
    5.9569    0.7283   -0.4436 C   0  0  0  0  0  0  0  0  0  0  0  0
    7.1879    1.1699   -0.8643 C   0  0  0  0  0  0  0  0  0  0  0  0
    7.7605    2.2272   -0.1959 C   0  0  0  0  0  0  0  0  0  0  0  0
    7.1290    2.8286    0.8596 C   0  0  0  0  0  0  0  0  0  0  0  0
    5.8774    2.3572    1.2650 C   0  0  0  0  0  0  0  0  0  0  0  0
    2.8589    2.8007    0.5120 N   0  0  0  0  0  0  0  0  0  0  0  0
    2.4618    3.8043   -0.3827 C   0  0  0  0  0  0  0  0  0  0  0  0
    1.8573    4.8440    0.0925 O   0  0  0  0  0  0  0  0  0  0  0  0
    2.6436    3.8430   -1.8450 C   0  0  1  0  0  0  0  0  0  0  0  0
    3.6915    3.0254   -2.3604 N   0  0  0  0  0  0  0  0  0  0  0  0
    1.2985    3.5100   -2.4888 C   0  0  0  0  0  0  0  0  0  0  0  0
    0.2117    4.9609   -2.3344 S   0  0  0  0  0  0  0  0  0  0  0  0
   -1.1578    4.6014   -0.7372 S   0  0  0  0  0  0  0  0  0  0  0  0
   -2.6008    3.7135   -1.3099 C   0  0  0  0  0  0  0  0  0  0  0  0
   -3.1793    2.8117   -0.2322 C   0  0  2  0  0  0  0  0  0  0  0  0
   -4.3867    2.2096   -0.7517 N   0  0  0  0  0  0  0  0  0  0  0  0
   -5.1922    1.2439   -0.1203 C   0  0  0  0  0  0  0  0  0  0  0  0
   -6.4543    1.5064   -0.0549 O   0  0  0  0  0  0  0  0  0  0  0  0
   -4.8015   -0.0322    0.4778 C   0  0  2  0  0  0  0  0  0  0  0  0
   -5.7646   -0.4192    1.5835 C   0  0  0  0  0  0  0  0  0  0  0  0
   -5.8315    0.5372    2.6974 C   0  0  0  0  0  0  0  0  0  0  0  0
   -4.9462    0.4422    3.8367 N   0  0  0  0  0  0  0  0  0  0  0  0
   -6.6406    1.4963    2.7588 O   0  0  0  0  0  0  0  0  0  0  0  0
   -3.4869   -0.0650    1.0917 N   0  0  0  0  0  0  0  0  0  0  0  0
   -2.5622   -1.1445    0.8700 C   0  0  0  0  0  0  0  0  0  0  0  0
   -2.0182   -1.6217    1.8881 O   0  0  0  0  0  0  0  0  0  0  0  0
   -2.2401   -1.7001   -0.4745 C   0  0  2  0  0  0  0  0  0  0  0  0
   -2.7601   -3.1065   -0.4721 C   0  0  0  0  0  0  0  0  0  0  0  0
   -2.6238   -3.8672   -1.7106 C   0  0  0  0  0  0  0  0  0  0  0  0
   -1.5904   -4.7252   -1.9470 C   0  0  0  0  0  0  0  0  0  0  0  0
   -1.5255   -5.4160   -3.1597 C   0  0  0  0  0  0  0  0  0  0  0  0
   -2.4640   -5.2756   -4.1455 C   0  0  0  0  0  0  0  0  0  0  0  0
   -3.5070   -4.4149   -3.9163 C   0  0  0  0  0  0  0  0  0  0  0  0
   -3.5785   -3.7276   -2.7197 C   0  0  0  0  0  0  0  0  0  0  0  0
   -0.9630   -1.4195   -0.9907 N   0  0  0  0  0  0  0  0  0  0  0  0
    0.3614   -1.7807   -0.7781 C   0  0  0  0  0  0  0  0  0  0  0  0
    0.9543   -2.3102   -1.8218 O   0  0  0  0  0  0  0  0  0  0  0  0
   -3.4881    3.7219    0.9229 C   0  0  0  0  0  0  0  0  0  0  0  0
   -2.4542    4.3985    1.5850 N   0  0  0  0  0  0  0  0  0  0  0  0
   -4.7060    3.8321    1.2469 O   0  0  0  0  0  0  0  0  0  0  0  0
    1.7099   -4.2741    3.4230 H   0  0  0  0  0  0  0  0  0  0  0  0
    3.4425   -4.5404    2.8396 H   0  0  0  0  0  0  0  0  0  0  0  0
    3.0678   -3.3937    4.1490 H   0  0  0  0  0  0  0  0  0  0  0  0
    2.4721   -1.7257    2.7318 H   0  0  0  0  0  0  0  0  0  0  0  0
    3.3944   -2.6909    1.4989 H   0  0  0  0  0  0  0  0  0  0  0  0
    0.4325   -2.9876    1.9439 H   0  0  0  0  0  0  0  0  0  0  0  0
    2.4227   -4.7780    1.0919 H   0  0  0  0  0  0  0  0  0  0  0  0
    2.0390   -3.9536   -0.4148 H   0  0  0  0  0  0  0  0  0  0  0  0
    0.6871   -4.7823    0.5644 H   0  0  0  0  0  0  0  0  0  0  0  0
    2.3696   -1.6953   -0.0016 H   0  0  0  0  0  0  0  0  0  0  0  0
    0.8121   -0.6033    2.1277 H   0  0  0  0  0  0  0  0  0  0  0  0
    2.8830    1.1608   -0.7823 H   0  0  0  0  0  0  0  0  0  0  0  0
    4.0080   -0.3310    0.8835 H   0  0  0  0  0  0  0  0  0  0  0  0
    3.8453    0.9833    2.1279 H   0  0  0  0  0  0  0  0  0  0  0  0
    5.5342   -0.1138   -0.9998 H   0  0  0  0  0  0  0  0  0  0  0  0
    7.7049    0.6911   -1.7122 H   0  0  0  0  0  0  0  0  0  0  0  0
    8.7446    2.6134   -0.4985 H   0  0  0  0  0  0  0  0  0  0  0  0
    7.6044    3.6674    1.3759 H   0  0  0  0  0  0  0  0  0  0  0  0
    5.4453    2.8779    2.1150 H   0  0  0  0  0  0  0  0  0  0  0  0
    3.2307    3.1438    1.4442 H   0  0  0  0  0  0  0  0  0  0  0  0
    2.8525    4.9000   -2.1779 H   0  0  0  0  0  0  0  0  0  0  0  0
    4.5937    3.3212   -1.9313 H   0  0  0  0  0  0  0  0  0  0  0  0
    3.7497    3.2031   -3.3853 H   0  0  0  0  0  0  0  0  0  0  0  0
    0.8139    2.6508   -1.9909 H   0  0  0  0  0  0  0  0  0  0  0  0
    1.5219    3.3064   -3.5719 H   0  0  0  0  0  0  0  0  0  0  0  0
   -2.3996    3.0684   -2.1984 H   0  0  0  0  0  0  0  0  0  0  0  0
   -3.3706    4.4398   -1.6344 H   0  0  0  0  0  0  0  0  0  0  0  0
   -2.3851    2.1142    0.0298 H   0  0  0  0  0  0  0  0  0  0  0  0
   -4.7242    2.5215   -1.7228 H   0  0  0  0  0  0  0  0  0  0  0  0
   -4.8918   -0.8397   -0.2940 H   0  0  0  0  0  0  0  0  0  0  0  0
   -5.4418   -1.3986    2.0295 H   0  0  0  0  0  0  0  0  0  0  0  0
   -6.7969   -0.5674    1.1957 H   0  0  0  0  0  0  0  0  0  0  0  0
   -4.8977   -0.3638    4.4616 H   0  0  0  0  0  0  0  0  0  0  0  0
   -4.3343    1.2719    3.9933 H   0  0  0  0  0  0  0  0  0  0  0  0
   -3.2066    0.6918    1.7178 H   0  0  0  0  0  0  0  0  0  0  0  0
   -3.0467   -1.1887   -1.1426 H   0  0  0  0  0  0  0  0  0  0  0  0
   -3.8774   -3.0290   -0.2788 H   0  0  0  0  0  0  0  0  0  0  0  0
   -2.3599   -3.6989    0.3910 H   0  0  0  0  0  0  0  0  0  0  0  0
   -0.7981   -4.9204   -1.2505 H   0  0  0  0  0  0  0  0  0  0  0  0
   -0.6905   -6.0804   -3.2988 H   0  0  0  0  0  0  0  0  0  0  0  0
   -2.3477   -5.8429   -5.0594 H   0  0  0  0  0  0  0  0  0  0  0  0
   -4.2513   -4.3035   -4.6965 H   0  0  0  0  0  0  0  0  0  0  0  0
   -4.4331   -3.0638   -2.6085 H   0  0  0  0  0  0  0  0  0  0  0  0
   -1.0308   -0.6806   -1.8285 H   0  0  0  0  0  0  0  0  0  0  0  0
   -1.6100    3.9720    2.0160 H   0  0  0  0  0  0  0  0  0  0  0  0
   -2.5425    5.4520    1.6528 H   0  0  0  0  0  0  0  0  0  0  0  0
  1  2  1  0
  2  3  1  0
  3  4  1  0
  3  5  1  0
  5  6  1  0
  6  7  1  0
  7  8  2  0
  7  9  1  0
  9 10  1  0
 10 11  1  0
 11 12  2  0
 12 13  1  0
 13 14  2  0
 14 15  1  0
 15 16  2  0
  9 17  1  0
 17 18  1  0
 18 19  2  0
 18 20  1  0
 20 21  1  0
 20 22  1  0
 22 23  1  0
 23 24  1  0
 24 25  1  0
 25 26  1  0
 26 27  1  0
 27 28  1  0
 28 29  2  0
 28 30  1  0
 30 31  1  0
 31 32  1  0
 32 33  1  0
 32 34  2  0
 30 35  1  0
 35 36  1  0
 36 37  2  0
 36 38  1  0
 38 39  1  0
 39 40  1  0
 40 41  2  0
 41 42  1  0
 42 43  2  0
 43 44  1  0
 44 45  2  0
 38 46  1  0
 46 47  1  0
 47 48  2  0
 26 49  1  0
 49 50  1  0
 49 51  2  0
 47  5  1  0
 16 11  1  0
 45 40  1  0
  1 52  1  0
  1 53  1  0
  1 54  1  0
  2 55  1  0
  2 56  1  0
  3 57  1  1
  4 58  1  0
  4 59  1  0
  4 60  1  0
  5 61  1  6
  6 62  1  0
  9 63  1  6
 10 64  1  0
 10 65  1  0
 12 66  1  0
 13 67  1  0
 14 68  1  0
 15 69  1  0
 16 70  1  0
 17 71  1  0
 20 72  1  6
 21 73  1  0
 21 74  1  0
 22 75  1  0
 22 76  1  0
 25 77  1  0
 25 78  1  0
 26 79  1  1
 27 80  1  0
 30 81  1  6
 31 82  1  0
 31 83  1  0
 33 84  1  0
 33 85  1  0
 35 86  1  0
 38 87  1  6
 39 88  1  0
 39 89  1  0
 41 90  1  0
 42 91  1  0
 43 92  1  0
 44 93  1  0
 45 94  1  0
 46 95  1  0
 50 96  1  0
 50 97  1  0
M  END
$$$$
[H]ON(C([H])=O)C([H])([H])[C@]([H])(C(=O)N1C([H])([H])C([H])([H])C([H])([H])[C@@]1([H])C(=O)N([H])C(=O)N([H])C1([H])C([H])([H])C([H])([H])C([H])([H])C([H])([H])C1([H])[H])C([H])([H])C1([H])C([H])([H])C([H])([H])C([H])([H])C([H])([H])C1([H])[H]
     RDKit          3D

 70 72  0  0  0  0  0  0  0  0999 V2000
   -4.6737   -2.9351    1.6619 O   0  0  0  0  0  0  0  0  0  0  0  0
   -3.7070   -2.0944    2.1663 N   0  0  0  0  0  0  0  0  0  0  0  0
   -3.6465   -0.7581    1.6368 C   0  0  0  0  0  0  0  0  0  0  0  0
   -2.8224   -0.5271    0.4575 C   0  0  1  0  0  0  0  0  0  0  0  0
   -2.8198    0.9118   -0.0328 C   0  0  0  0  0  0  0  0  0  0  0  0
   -4.1638    1.4233   -0.4176 C   0  0  0  0  0  0  0  0  0  0  0  0
   -3.9522    2.8762   -0.8775 C   0  0  0  0  0  0  0  0  0  0  0  0
   -5.3251    3.4868   -1.1479 C   0  0  0  0  0  0  0  0  0  0  0  0
   -5.8681    2.7705   -2.3666 C   0  0  0  0  0  0  0  0  0  0  0  0
   -6.0669    1.3153   -1.9870 C   0  0  0  0  0  0  0  0  0  0  0  0
   -4.7135    0.7217   -1.6595 C   0  0  0  0  0  0  0  0  0  0  0  0
   -1.4442   -0.9736    0.5013 C   0  0  0  0  0  0  0  0  0  0  0  0
   -1.1721   -2.0012   -0.2389 O   0  0  0  0  0  0  0  0  0  0  0  0
   -0.3422   -0.4463    1.2298 N   0  0  0  0  0  0  0  0  0  0  0  0
   -0.4044    0.6347    2.1487 C   0  0  0  0  0  0  0  0  0  0  0  0
    0.7520    0.3339    3.0982 C   0  0  0  0  0  0  0  0  0  0  0  0
    1.8166   -0.0533    2.0777 C   0  0  0  0  0  0  0  0  0  0  0  0
    1.0216   -0.8845    1.0576 C   0  0  1  0  0  0  0  0  0  0  0  0
    1.2833   -2.2956    1.2374 C   0  0  0  0  0  0  0  0  0  0  0  0
    0.3892   -2.9825    1.8429 O   0  0  0  0  0  0  0  0  0  0  0  0
    2.4136   -2.9867    0.8165 N   0  0  0  0  0  0  0  0  0  0  0  0
    3.5768   -2.6385    0.1466 C   0  0  0  0  0  0  0  0  0  0  0  0
    4.4010   -3.6442   -0.0464 O   0  0  0  0  0  0  0  0  0  0  0  0
    4.0439   -1.4341   -0.3623 N   0  0  0  0  0  0  0  0  0  0  0  0
    5.3533   -1.3513   -1.0376 C   0  0  0  0  0  0  0  0  0  0  0  0
    5.2273   -0.7737   -2.4236 C   0  0  0  0  0  0  0  0  0  0  0  0
    6.5469   -0.1091   -2.7952 C   0  0  0  0  0  0  0  0  0  0  0  0
    6.7474    1.1877   -2.0266 C   0  0  0  0  0  0  0  0  0  0  0  0
    6.2525    0.9681   -0.6222 C   0  0  0  0  0  0  0  0  0  0  0  0
    6.2954   -0.4896   -0.2223 C   0  0  0  0  0  0  0  0  0  0  0  0
   -2.8603   -2.6293    3.1626 C   0  0  0  0  0  0  0  0  0  0  0  0
   -2.9854   -3.8084    3.5642 O   0  0  0  0  0  0  0  0  0  0  0  0
   -5.3631   -3.0877    2.3804 H   0  0  0  0  0  0  0  0  0  0  0  0
   -3.3573   -0.0970    2.4969 H   0  0  0  0  0  0  0  0  0  0  0  0
   -4.7351   -0.4759    1.4812 H   0  0  0  0  0  0  0  0  0  0  0  0
   -3.3264   -1.1118   -0.3950 H   0  0  0  0  0  0  0  0  0  0  0  0
   -2.1802    0.9198   -0.9449 H   0  0  0  0  0  0  0  0  0  0  0  0
   -2.3787    1.6239    0.6751 H   0  0  0  0  0  0  0  0  0  0  0  0
   -4.8908    1.4746    0.3993 H   0  0  0  0  0  0  0  0  0  0  0  0
   -3.2910    2.9206   -1.7591 H   0  0  0  0  0  0  0  0  0  0  0  0
   -3.5274    3.4281   -0.0189 H   0  0  0  0  0  0  0  0  0  0  0  0
   -5.1678    4.5633   -1.3082 H   0  0  0  0  0  0  0  0  0  0  0  0
   -5.9539    3.2512   -0.2594 H   0  0  0  0  0  0  0  0  0  0  0  0
   -5.0696    2.8190   -3.1526 H   0  0  0  0  0  0  0  0  0  0  0  0
   -6.8176    3.2309   -2.7111 H   0  0  0  0  0  0  0  0  0  0  0  0
   -6.7243    1.2633   -1.0853 H   0  0  0  0  0  0  0  0  0  0  0  0
   -6.5204    0.7345   -2.8270 H   0  0  0  0  0  0  0  0  0  0  0  0
   -4.0168    1.0077   -2.4892 H   0  0  0  0  0  0  0  0  0  0  0  0
   -4.8270   -0.3495   -1.5145 H   0  0  0  0  0  0  0  0  0  0  0  0
   -0.0914    1.5557    1.5536 H   0  0  0  0  0  0  0  0  0  0  0  0
   -1.3276    0.8204    2.6745 H   0  0  0  0  0  0  0  0  0  0  0  0
    0.5337   -0.5536    3.6996 H   0  0  0  0  0  0  0  0  0  0  0  0
    1.0541    1.1878    3.7005 H   0  0  0  0  0  0  0  0  0  0  0  0
    2.6166   -0.6869    2.5071 H   0  0  0  0  0  0  0  0  0  0  0  0
    2.2429    0.8436    1.6046 H   0  0  0  0  0  0  0  0  0  0  0  0
    1.3447   -0.5091    0.0406 H   0  0  0  0  0  0  0  0  0  0  0  0
    2.3860   -4.0644    1.0711 H   0  0  0  0  0  0  0  0  0  0  0  0
    3.5471   -0.5540   -0.3190 H   0  0  0  0  0  0  0  0  0  0  0  0
    5.7462   -2.3752   -1.1191 H   0  0  0  0  0  0  0  0  0  0  0  0
    5.0612   -1.5610   -3.1917 H   0  0  0  0  0  0  0  0  0  0  0  0
    4.4622    0.0324   -2.4589 H   0  0  0  0  0  0  0  0  0  0  0  0
    7.3833   -0.8147   -2.5736 H   0  0  0  0  0  0  0  0  0  0  0  0
    6.5865    0.0895   -3.8817 H   0  0  0  0  0  0  0  0  0  0  0  0
    7.8160    1.4640   -1.9752 H   0  0  0  0  0  0  0  0  0  0  0  0
    6.1524    1.9926   -2.4999 H   0  0  0  0  0  0  0  0  0  0  0  0
    5.2322    1.3948   -0.5294 H   0  0  0  0  0  0  0  0  0  0  0  0
    6.9252    1.4952    0.0815 H   0  0  0  0  0  0  0  0  0  0  0  0
    7.3245   -0.8581   -0.3686 H   0  0  0  0  0  0  0  0  0  0  0  0
    6.0659   -0.5298    0.8662 H   0  0  0  0  0  0  0  0  0  0  0  0
   -2.0676   -2.0161    3.6080 H   0  0  0  0  0  0  0  0  0  0  0  0
  1  2  1  0
  2  3  1  0
  3  4  1  0
  4  5  1  0
  5  6  1  0
  6  7  1  0
  7  8  1  0
  8  9  1  0
  9 10  1  0
 10 11  1  0
  4 12  1  0
 12 13  2  0
 12 14  1  0
 14 15  1  0
 15 16  1  0
 16 17  1  0
 17 18  1  0
 18 19  1  0
 19 20  2  0
 19 21  1  0
 21 22  1  0
 22 23  2  0
 22 24  1  0
 24 25  1  0
 25 26  1  0
 26 27  1  0
 27 28  1  0
 28 29  1  0
 29 30  1  0
  2 31  1  0
 31 32  2  0
 11  6  1  0
 18 14  1  0
 30 25  1  0
  1 33  1  0
  3 34  1  0
  3 35  1  0
  4 36  1  6
  5 37  1  0
  5 38  1  0
  6 39  1  0
  7 40  1  0
  7 41  1  0
  8 42  1  0
  8 43  1  0
  9 44  1  0
  9 45  1  0
 10 46  1  0
 10 47  1  0
 11 48  1  0
 11 49  1  0
 15 50  1  0
 15 51  1  0
 16 52  1  0
 16 53  1  0
 17 54  1  0
 17 55  1  0
 18 56  1  6
 21 57  1  0
 24 58  1  0
 25 59  1  0
 26 60  1  0
 26 61  1  0
 27 62  1  0
 27 63  1  0
 28 64  1  0
 28 65  1  0
 29 66  1  0
 29 67  1  0
 30 68  1  0
 30 69  1  0
 31 70  1  0
M  END
$$$$
[H]N=C(N([H])[H])N([H])C([H])([H])C([H])([H])C([H])([H])[C@@]([H])(C(=O)N([H])[C@]([H])(C(=O)N([H])[C@]([H])(C(=O)N([H])[C@]([H])(C(=O)N([H])[C@]([H])(C(=O)N([H])[C]([H])C([H])([H])C([H])([H])C(=O)N([H])[H])C([H])([H])C([H])([H])C(=O)N([H])[H])C([H])([H])C([H])([H])C(=O)N([H])[H])C([H])([H])C(=O)N([H])[H])C([H])([H])C(=O)N([H])[H])N([H])C(=O)[C@@]([H])(N([H])C(=O)[C@@]([H])(N([H])[H])C([H])([H])C([H])([H])C(=O)N([H])[H])C([H])([H])C([H])([H])C(=O)N([H])[H]
     RDKit          3D

135134  0  0  0  0  0  0  0  0999 V2000
   -6.2382   -6.7913    0.1520 N   0  0  0  0  0  0  0  0  0  0  0  0
   -5.4637   -5.6759    0.8010 C   0  0  0  0  0  0  0  0  0  0  0  0
   -4.4247   -5.4376    0.1900 N   0  0  0  0  0  0  0  0  0  0  0  0
   -6.0326   -5.1561    1.9632 N   0  0  0  0  0  0  0  0  0  0  0  0
   -5.7904   -4.1358    2.8776 C   0  0  0  0  0  0  0  0  0  0  0  0
   -6.0161   -2.7102    2.4580 C   0  0  0  0  0  0  0  0  0  0  0  0
   -4.9992   -2.2727    1.4783 C   0  0  0  0  0  0  0  0  0  0  0  0
   -5.1859   -0.8702    0.8913 C   0  0  2  0  0  0  0  0  0  0  0  0
   -6.3190   -0.8407    0.0981 N   0  0  0  0  0  0  0  0  0  0  0  0
   -6.9614    0.0126   -0.7652 C   0  0  0  0  0  0  0  0  0  0  0  0
   -6.4441    1.1984   -0.9518 O   0  0  0  0  0  0  0  0  0  0  0  0
   -8.2026   -0.3046   -1.4984 C   0  0  2  0  0  0  0  0  0  0  0  0
   -8.0790   -1.2354   -2.6572 C   0  0  0  0  0  0  0  0  0  0  0  0
   -7.6847   -2.6530   -2.2550 C   0  0  0  0  0  0  0  0  0  0  0  0
   -8.7459   -3.2811   -1.4673 C   0  0  0  0  0  0  0  0  0  0  0  0
   -8.7857   -3.9447   -0.2962 N   0  0  0  0  0  0  0  0  0  0  0  0
   -9.9740   -3.1844   -2.0284 O   0  0  0  0  0  0  0  0  0  0  0  0
   -9.1540    0.7187   -1.6535 N   0  0  0  0  0  0  0  0  0  0  0  0
  -10.3263    1.3082   -1.5012 C   0  0  0  0  0  0  0  0  0  0  0  0
  -11.3187    0.8092   -0.8881 O   0  0  0  0  0  0  0  0  0  0  0  0
  -10.5912    2.7233   -2.0730 C   0  0  1  0  0  0  0  0  0  0  0  0
  -11.9919    2.9253   -2.0425 N   0  0  0  0  0  0  0  0  0  0  0  0
   -9.9026    3.6129   -1.0570 C   0  0  0  0  0  0  0  0  0  0  0  0
   -9.8952    5.0833   -1.3496 C   0  0  0  0  0  0  0  0  0  0  0  0
   -9.1609    5.7355   -0.2207 C   0  0  0  0  0  0  0  0  0  0  0  0
   -8.4498    6.9348   -0.3592 N   0  0  0  0  0  0  0  0  0  0  0  0
   -9.1559    5.2036    0.9314 O   0  0  0  0  0  0  0  0  0  0  0  0
   -3.8183   -0.5463    0.2892 C   0  0  0  0  0  0  0  0  0  0  0  0
   -3.7601   -0.3985   -0.9684 O   0  0  0  0  0  0  0  0  0  0  0  0
   -2.7359   -0.4250    1.1172 N   0  0  0  0  0  0  0  0  0  0  0  0
   -1.3662   -0.1434    1.1534 C   0  0  1  0  0  0  0  0  0  0  0  0
   -1.0455    0.8904    2.2442 C   0  0  0  0  0  0  0  0  0  0  0  0
   -1.3803    0.4131    3.6097 C   0  0  0  0  0  0  0  0  0  0  0  0
   -0.2885   -0.1213    4.4044 N   0  0  0  0  0  0  0  0  0  0  0  0
   -2.4857    0.4492    4.0733 O   0  0  0  0  0  0  0  0  0  0  0  0
   -0.5259   -1.3676    1.4570 C   0  0  0  0  0  0  0  0  0  0  0  0
   -1.2371   -2.4684    1.5806 O   0  0  0  0  0  0  0  0  0  0  0  0
    0.8269   -1.3837    1.6198 N   0  0  0  0  0  0  0  0  0  0  0  0
    2.1947   -1.4377    1.7941 C   0  0  1  0  0  0  0  0  0  0  0  0
    2.8767   -2.7434    1.2958 C   0  0  0  0  0  0  0  0  0  0  0  0
    2.6579   -3.0452   -0.0865 C   0  0  0  0  0  0  0  0  0  0  0  0
    3.3628   -2.5016   -1.1827 N   0  0  0  0  0  0  0  0  0  0  0  0
    1.7435   -3.8812   -0.4287 O   0  0  0  0  0  0  0  0  0  0  0  0
    2.8981   -0.2717    1.1869 C   0  0  0  0  0  0  0  0  0  0  0  0
    2.2348    0.5516    0.5529 O   0  0  0  0  0  0  0  0  0  0  0  0
    4.2967   -0.1840    1.3728 N   0  0  0  0  0  0  0  0  0  0  0  0
    5.0333    0.9525    0.7532 C   0  0  1  0  0  0  0  0  0  0  0  0
    5.7296    1.7320    1.8138 C   0  0  0  0  0  0  0  0  0  0  0  0
    6.4202    2.9264    1.2623 C   0  0  0  0  0  0  0  0  0  0  0  0
    6.9851    3.8169    2.3254 C   0  0  0  0  0  0  0  0  0  0  0  0
    7.1394    5.2089    2.2148 N   0  0  0  0  0  0  0  0  0  0  0  0
    7.3479    3.2483    3.3989 O   0  0  0  0  0  0  0  0  0  0  0  0
    6.0134    0.2630   -0.1071 C   0  0  0  0  0  0  0  0  0  0  0  0
    6.1920   -0.9848    0.0575 O   0  0  0  0  0  0  0  0  0  0  0  0
    6.7502    0.9081   -1.0940 N   0  0  0  0  0  0  0  0  0  0  0  0
    7.7521    0.3704   -1.9558 C   0  0  1  0  0  0  0  0  0  0  0  0
    8.2911    1.2966   -2.9789 C   0  0  0  0  0  0  0  0  0  0  0  0
    8.9247    2.5235   -2.3731 C   0  0  0  0  0  0  0  0  0  0  0  0
    9.4921    3.4061   -3.4075 C   0  0  0  0  0  0  0  0  0  0  0  0
   10.1387    4.5993   -2.9145 N   0  0  0  0  0  0  0  0  0  0  0  0
    9.4510    3.1901   -4.6058 O   0  0  0  0  0  0  0  0  0  0  0  0
    8.8646   -0.2295   -1.0842 C   0  0  0  0  0  0  0  0  0  0  0  0
    8.7526    0.0237    0.1485 O   0  0  0  0  0  0  0  0  0  0  0  0
    9.8451   -0.9791   -1.6742 N   0  0  0  0  0  0  0  0  0  0  0  0
   10.8409   -1.7351   -2.2307 C   0  0  0  0  0  3  0  0  0  0  0  0
   12.2175   -1.7726   -1.6983 C   0  0  0  0  0  0  0  0  0  0  0  0
   12.4426   -0.8110   -0.5555 C   0  0  0  0  0  0  0  0  0  0  0  0
   12.2478    0.5904   -0.9673 C   0  0  0  0  0  0  0  0  0  0  0  0
   12.1792    1.6478    0.0055 N   0  0  0  0  0  0  0  0  0  0  0  0
   12.1362    0.8785   -2.1731 O   0  0  0  0  0  0  0  0  0  0  0  0
   -6.7750   -6.4870   -0.6727 H   0  0  0  0  0  0  0  0  0  0  0  0
   -6.2175   -7.7250    0.5089 H   0  0  0  0  0  0  0  0  0  0  0  0
   -3.7864   -5.5580   -0.4984 H   0  0  0  0  0  0  0  0  0  0  0  0
   -6.9683   -5.7335    2.2563 H   0  0  0  0  0  0  0  0  0  0  0  0
   -4.6448   -4.1732    3.0668 H   0  0  0  0  0  0  0  0  0  0  0  0
   -6.2241   -4.3543    3.8988 H   0  0  0  0  0  0  0  0  0  0  0  0
   -7.0589   -2.5957    2.1083 H   0  0  0  0  0  0  0  0  0  0  0  0
   -5.8678   -2.0466    3.3842 H   0  0  0  0  0  0  0  0  0  0  0  0
   -4.0072   -2.3517    1.9110 H   0  0  0  0  0  0  0  0  0  0  0  0
   -5.0208   -2.9250    0.5546 H   0  0  0  0  0  0  0  0  0  0  0  0
   -5.2398   -0.0623    1.6677 H   0  0  0  0  0  0  0  0  0  0  0  0
   -6.9458   -1.7749    0.2928 H   0  0  0  0  0  0  0  0  0  0  0  0
   -8.7401   -1.0315   -0.7125 H   0  0  0  0  0  0  0  0  0  0  0  0
   -9.0569   -1.3844   -3.1774 H   0  0  0  0  0  0  0  0  0  0  0  0
   -7.2888   -0.8518   -3.3569 H   0  0  0  0  0  0  0  0  0  0  0  0
   -6.7467   -2.6292   -1.6897 H   0  0  0  0  0  0  0  0  0  0  0  0
   -7.4832   -3.2480   -3.1980 H   0  0  0  0  0  0  0  0  0  0  0  0
   -9.0307   -3.4646    0.6387 H   0  0  0  0  0  0  0  0  0  0  0  0
   -8.5921   -4.9573   -0.1455 H   0  0  0  0  0  0  0  0  0  0  0  0
   -8.4516    1.5660   -2.2504 H   0  0  0  0  0  0  0  0  0  0  0  0
  -10.1565    2.7807   -3.0642 H   0  0  0  0  0  0  0  0  0  0  0  0
  -12.3589    3.0851   -1.0635 H   0  0  0  0  0  0  0  0  0  0  0  0
  -12.5399    2.0582   -2.3719 H   0  0  0  0  0  0  0  0  0  0  0  0
   -8.8540    3.2712   -0.8922 H   0  0  0  0  0  0  0  0  0  0  0  0
  -10.4433    3.5193   -0.0626 H   0  0  0  0  0  0  0  0  0  0  0  0
   -9.2357    5.1864   -2.2676 H   0  0  0  0  0  0  0  0  0  0  0  0
  -10.8678    5.5470   -1.5057 H   0  0  0  0  0  0  0  0  0  0  0  0
   -7.4965    6.8974   -0.8419 H   0  0  0  0  0  0  0  0  0  0  0  0
   -8.7904    7.8236   -0.0142 H   0  0  0  0  0  0  0  0  0  0  0  0
   -3.0746   -0.6373    2.1885 H   0  0  0  0  0  0  0  0  0  0  0  0
   -0.9743    0.2233    0.1998 H   0  0  0  0  0  0  0  0  0  0  0  0
   -0.0309    1.2615    2.1475 H   0  0  0  0  0  0  0  0  0  0  0  0
   -1.7634    1.7428    2.0478 H   0  0  0  0  0  0  0  0  0  0  0  0
   -0.1538   -1.0903    4.6588 H   0  0  0  0  0  0  0  0  0  0  0  0
    0.3687    0.6196    4.7221 H   0  0  0  0  0  0  0  0  0  0  0  0
    0.8001   -2.7464    1.8489 H   0  0  0  0  0  0  0  0  0  0  0  0
    2.5180   -1.4838    2.8931 H   0  0  0  0  0  0  0  0  0  0  0  0
    2.4979   -3.5826    1.9852 H   0  0  0  0  0  0  0  0  0  0  0  0
    3.9619   -2.6914    1.6155 H   0  0  0  0  0  0  0  0  0  0  0  0
    3.7247   -1.5114   -1.2341 H   0  0  0  0  0  0  0  0  0  0  0  0
    3.5610   -3.0875   -2.0342 H   0  0  0  0  0  0  0  0  0  0  0  0
    4.8055   -0.8782    1.9269 H   0  0  0  0  0  0  0  0  0  0  0  0
    4.3033    1.5168    0.1627 H   0  0  0  0  0  0  0  0  0  0  0  0
    6.6117    1.0538    2.1547 H   0  0  0  0  0  0  0  0  0  0  0  0
    5.1289    1.9536    2.6863 H   0  0  0  0  0  0  0  0  0  0  0  0
    7.3874    2.6005    0.7117 H   0  0  0  0  0  0  0  0  0  0  0  0
    5.7889    3.5168    0.6130 H   0  0  0  0  0  0  0  0  0  0  0  0
    6.3816    5.8224    1.8312 H   0  0  0  0  0  0  0  0  0  0  0  0
    8.0574    5.6683    2.5207 H   0  0  0  0  0  0  0  0  0  0  0  0
    6.4699    1.9503   -1.2486 H   0  0  0  0  0  0  0  0  0  0  0  0
    7.3545   -0.5531   -2.4366 H   0  0  0  0  0  0  0  0  0  0  0  0
    7.4431    1.6840   -3.6258 H   0  0  0  0  0  0  0  0  0  0  0  0
    9.0077    0.8156   -3.6554 H   0  0  0  0  0  0  0  0  0  0  0  0
    8.0388    3.1005   -1.9550 H   0  0  0  0  0  0  0  0  0  0  0  0
    9.6656    2.3429   -1.6151 H   0  0  0  0  0  0  0  0  0  0  0  0
   10.4514    4.7188   -1.9120 H   0  0  0  0  0  0  0  0  0  0  0  0
   10.3324    5.4058   -3.5649 H   0  0  0  0  0  0  0  0  0  0  0  0
   10.2356   -1.4354   -0.4439 H   0  0  0  0  0  0  0  0  0  0  0  0
   10.5752   -2.5643   -2.8759 H   0  0  0  0  0  0  0  0  0  0  0  0
   12.3775   -2.8202   -1.2539 H   0  0  0  0  0  0  0  0  0  0  0  0
   12.9620   -1.6646   -2.4870 H   0  0  0  0  0  0  0  0  0  0  0  0
   13.5197   -0.8778   -0.1869 H   0  0  0  0  0  0  0  0  0  0  0  0
   11.8572   -1.0472    0.3417 H   0  0  0  0  0  0  0  0  0  0  0  0
   11.3359    2.2449    0.1567 H   0  0  0  0  0  0  0  0  0  0  0  0
   13.0206    1.8209    0.5795 H   0  0  0  0  0  0  0  0  0  0  0  0
  1  2  1  0
  2  3  2  3
  2  4  1  0
  4  5  1  0
  5  6  1  0
  6  7  1  0
  7  8  1  0
  8  9  1  0
  9 10  1  0
 10 11  2  0
 10 12  1  0
 12 13  1  0
 13 14  1  0
 14 15  1  0
 15 16  1  0
 15 17  2  0
 12 18  1  0
 18 19  1  0
 19 20  2  0
 19 21  1  0
 21 22  1  0
 21 23  1  0
 23 24  1  0
 24 25  1  0
 25 26  1  0
 25 27  2  0
  8 28  1  0
 28 29  2  0
 28 30  1  0
 30 31  1  0
 31 32  1  0
 32 33  1  0
 33 34  1  0
 33 35  2  0
 31 36  1  0
 36 37  2  0
 36 38  1  0
 38 39  1  0
 39 40  1  0
 40 41  1  0
 41 42  1  0
 41 43  2  0
 39 44  1  0
 44 45  2  0
 44 46  1  0
 46 47  1  0
 47 48  1  0
 48 49  1  0
 49 50  1  0
 50 51  1  0
 50 52  2  0
 47 53  1  0
 53 54  2  0
 53 55  1  0
 55 56  1  0
 56 57  1  0
 57 58  1  0
 58 59  1  0
 59 60  1  0
 59 61  2  0
 56 62  1  0
 62 63  2  0
 62 64  1  0
 64 65  1  0
 65 66  1  0
 66 67  1  0
 67 68  1  0
 68 69  1  0
 68 70  2  0
  1 71  1  0
  1 72  1  0
  3 73  1  0
  4 74  1  0
  5 75  1  0
  5 76  1  0
  6 77  1  0
  6 78  1  0
  7 79  1  0
  7 80  1  0
  8 81  1  1
  9 82  1  0
 12 83  1  1
 13 84  1  0
 13 85  1  0
 14 86  1  0
 14 87  1  0
 16 88  1  0
 16 89  1  0
 18 90  1  0
 21 91  1  6
 22 92  1  0
 22 93  1  0
 23 94  1  0
 23 95  1  0
 24 96  1  0
 24 97  1  0
 26 98  1  0
 26 99  1  0
 30100  1  0
 31101  1  6
 32102  1  0
 32103  1  0
 34104  1  0
 34105  1  0
 38106  1  0
 39107  1  1
 40108  1  0
 40109  1  0
 42110  1  0
 42111  1  0
 46112  1  0
 47113  1  6
 48114  1  0
 48115  1  0
 49116  1  0
 49117  1  0
 51118  1  0
 51119  1  0
 55120  1  0
 56121  1  6
 57122  1  0
 57123  1  0
 58124  1  0
 58125  1  0
 60126  1  0
 60127  1  0
 64128  1  0
 65129  1  0
 66130  1  0
 66131  1  0
 67132  1  0
 67133  1  0
 69134  1  0
 69135  1  0
M  RAD  1  65   2
M  END
$$$$
[H]OC(=O)[C@@]([H])(N([H])C(=O)[C@@]([H])(N([H])C(=O)[C@@]([H])(N([H])C(=O)[C@@]1([H])N(C(=O)[C@@]([H])(N([H])[H])C([H])([H])C([H])([H])C([H])([H])N=C(N([H])[H])N([H])[H])C([H])([H])C([H])([H])C1([H])[H])C([H])([H])c1c([H])c([H])c(O[H])c([H])c1[H])[C@@]([H])(C([H])([H])[H])C([H])([H])C([H])([H])[H])C([H])([H])C([H])(C([H])([H])[H])C([H])([H])[H]
     RDKit          3D

 99100  0  0  0  0  0  0  0  0999 V2000
   -4.9810   -2.5246    2.7314 C   0  0  0  0  0  0  0  0  0  0  0  0
   -3.6008   -1.8706    2.8308 C   0  0  0  0  0  0  0  0  0  0  0  0
   -3.6945   -0.4313    2.2728 C   0  0  2  0  0  0  0  0  0  0  0  0
   -4.7340    0.3069    3.1000 C   0  0  0  0  0  0  0  0  0  0  0  0
   -3.8441   -0.3700    0.8197 C   0  0  2  0  0  0  0  0  0  0  0  0
   -2.7655   -0.8981    0.0193 N   0  0  0  0  0  0  0  0  0  0  0  0
   -1.4412   -1.1724    0.3005 C   0  0  0  0  0  0  0  0  0  0  0  0
   -0.9177   -0.9763    1.4176 O   0  0  0  0  0  0  0  0  0  0  0  0
   -0.5336   -1.7300   -0.7518 C   0  0  2  0  0  0  0  0  0  0  0  0
   -0.9963   -2.9988   -1.3903 C   0  0  0  0  0  0  0  0  0  0  0  0
   -1.1681   -4.1500   -0.5003 C   0  0  0  0  0  0  0  0  0  0  0  0
   -0.0950   -4.9898   -0.1655 C   0  0  0  0  0  0  0  0  0  0  0  0
   -0.2784   -6.0850    0.6524 C   0  0  0  0  0  0  0  0  0  0  0  0
   -1.5190   -6.3928    1.1684 C   0  0  0  0  0  0  0  0  0  0  0  0
   -1.7177   -7.5068    2.0039 O   0  0  0  0  0  0  0  0  0  0  0  0
   -2.5735   -5.5708    0.8409 C   0  0  0  0  0  0  0  0  0  0  0  0
   -2.3798   -4.4958    0.0349 C   0  0  0  0  0  0  0  0  0  0  0  0
    0.8019   -1.9341   -0.2343 N   0  0  0  0  0  0  0  0  0  0  0  0
    1.9705   -1.3017   -0.8123 C   0  0  0  0  0  0  0  0  0  0  0  0
    1.6972   -0.5784   -1.7936 O   0  0  0  0  0  0  0  0  0  0  0  0
    3.2498   -1.5828   -0.1998 C   0  0  2  0  0  0  0  0  0  0  0  0
    3.3573   -0.9440    1.1851 C   0  0  0  0  0  0  0  0  0  0  0  0
    4.8368   -1.0242    1.4619 C   0  0  0  0  0  0  0  0  0  0  0  0
    5.4632   -1.6042    0.2205 C   0  0  0  0  0  0  0  0  0  0  0  0
    4.4587   -1.2328   -0.8265 N   0  0  0  0  0  0  0  0  0  0  0  0
    4.9075   -0.7329   -2.0544 C   0  0  0  0  0  0  0  0  0  0  0  0
    4.1291   -0.5129   -2.9953 O   0  0  0  0  0  0  0  0  0  0  0  0
    6.3355   -0.4328   -2.3183 C   0  0  1  0  0  0  0  0  0  0  0  0
    6.5885   -0.2764   -3.7466 N   0  0  0  0  0  0  0  0  0  0  0  0
    6.6777    0.9547   -1.7366 C   0  0  0  0  0  0  0  0  0  0  0  0
    8.1103    1.2693   -1.9967 C   0  0  0  0  0  0  0  0  0  0  0  0
    8.4815    2.6144   -1.4582 C   0  0  0  0  0  0  0  0  0  0  0  0
    8.3045    2.7701   -0.0465 N   0  0  0  0  0  0  0  0  0  0  0  0
    9.0018    3.6490    0.6212 C   0  0  0  0  0  0  0  0  0  0  0  0
    9.9596    4.4877   -0.0002 N   0  0  0  0  0  0  0  0  0  0  0  0
    8.7829    3.7657    2.0189 N   0  0  0  0  0  0  0  0  0  0  0  0
   -4.4541    0.7867    0.1728 C   0  0  0  0  0  0  0  0  0  0  0  0
   -4.5843    0.6247   -1.1343 O   0  0  0  0  0  0  0  0  0  0  0  0
   -4.9150    1.9985    0.6190 N   0  0  0  0  0  0  0  0  0  0  0  0
   -5.5080    2.9767   -0.3731 C   0  0  1  0  0  0  0  0  0  0  0  0
   -6.9359    3.0045    0.0174 C   0  0  0  0  0  0  0  0  0  0  0  0
   -7.9269    3.8382   -0.6742 C   0  0  0  0  0  0  0  0  0  0  0  0
   -7.7776    5.3164   -0.6481 C   0  0  0  0  0  0  0  0  0  0  0  0
   -8.1756    3.3710   -2.1137 C   0  0  0  0  0  0  0  0  0  0  0  0
   -4.7183    4.1844   -0.3687 C   0  0  0  0  0  0  0  0  0  0  0  0
   -4.8003    5.1684   -1.3413 O   0  0  0  0  0  0  0  0  0  0  0  0
   -3.8885    4.3511    0.5862 O   0  0  0  0  0  0  0  0  0  0  0  0
   -5.7836   -1.8085    2.8995 H   0  0  0  0  0  0  0  0  0  0  0  0
   -5.0186   -3.0904    1.7962 H   0  0  0  0  0  0  0  0  0  0  0  0
   -5.0203   -3.2689    3.5592 H   0  0  0  0  0  0  0  0  0  0  0  0
   -3.2768   -1.7718    3.8697 H   0  0  0  0  0  0  0  0  0  0  0  0
   -2.8848   -2.4277    2.2390 H   0  0  0  0  0  0  0  0  0  0  0  0
   -2.7246    0.0436    2.5750 H   0  0  0  0  0  0  0  0  0  0  0  0
   -4.9423   -0.3206    4.0338 H   0  0  0  0  0  0  0  0  0  0  0  0
   -4.3671    1.2590    3.5229 H   0  0  0  0  0  0  0  0  0  0  0  0
   -5.6849    0.4624    2.6060 H   0  0  0  0  0  0  0  0  0  0  0  0
   -4.6490   -1.2528    0.6671 H   0  0  0  0  0  0  0  0  0  0  0  0
   -3.1195   -1.0992   -1.0090 H   0  0  0  0  0  0  0  0  0  0  0  0
   -0.4089   -0.9574   -1.5709 H   0  0  0  0  0  0  0  0  0  0  0  0
   -0.3184   -3.2605   -2.2653 H   0  0  0  0  0  0  0  0  0  0  0  0
   -1.9584   -2.7364   -1.9215 H   0  0  0  0  0  0  0  0  0  0  0  0
    0.8575   -4.7083   -0.5931 H   0  0  0  0  0  0  0  0  0  0  0  0
    0.5747   -6.7271    0.9010 H   0  0  0  0  0  0  0  0  0  0  0  0
   -1.9606   -8.3995    1.5609 H   0  0  0  0  0  0  0  0  0  0  0  0
   -3.5613   -5.7852    1.2284 H   0  0  0  0  0  0  0  0  0  0  0  0
   -3.2405   -3.8737   -0.2038 H   0  0  0  0  0  0  0  0  0  0  0  0
    0.9469   -2.5582    0.5844 H   0  0  0  0  0  0  0  0  0  0  0  0
    3.2869   -2.6931    0.0046 H   0  0  0  0  0  0  0  0  0  0  0  0
    2.7957   -1.5226    1.9479 H   0  0  0  0  0  0  0  0  0  0  0  0
    3.0027    0.1069    1.0975 H   0  0  0  0  0  0  0  0  0  0  0  0
    5.2600   -0.0214    1.6946 H   0  0  0  0  0  0  0  0  0  0  0  0
    5.0628   -1.7420    2.3001 H   0  0  0  0  0  0  0  0  0  0  0  0
    6.4370   -1.1783    0.0381 H   0  0  0  0  0  0  0  0  0  0  0  0
    5.5506   -2.7050    0.2464 H   0  0  0  0  0  0  0  0  0  0  0  0
    7.0405   -1.1830   -1.9293 H   0  0  0  0  0  0  0  0  0  0  0  0
    6.0173   -0.9092   -4.3301 H   0  0  0  0  0  0  0  0  0  0  0  0
    7.5935   -0.4941   -3.9021 H   0  0  0  0  0  0  0  0  0  0  0  0
    5.9869    1.6521   -2.2956 H   0  0  0  0  0  0  0  0  0  0  0  0
    6.4449    1.0596   -0.6891 H   0  0  0  0  0  0  0  0  0  0  0  0
    8.7242    0.4754   -1.5213 H   0  0  0  0  0  0  0  0  0  0  0  0
    8.2624    1.2591   -3.1032 H   0  0  0  0  0  0  0  0  0  0  0  0
    9.5615    2.7993   -1.6820 H   0  0  0  0  0  0  0  0  0  0  0  0
    7.9265    3.4144   -1.9931 H   0  0  0  0  0  0  0  0  0  0  0  0
    9.7136    5.2981   -0.6067 H   0  0  0  0  0  0  0  0  0  0  0  0
   10.9744    4.2983    0.1458 H   0  0  0  0  0  0  0  0  0  0  0  0
    8.7163    2.9101    2.6113 H   0  0  0  0  0  0  0  0  0  0  0  0
    8.6865    4.6986    2.4629 H   0  0  0  0  0  0  0  0  0  0  0  0
   -4.9056    2.3678    1.5599 H   0  0  0  0  0  0  0  0  0  0  0  0
   -5.4514    2.5111   -1.3927 H   0  0  0  0  0  0  0  0  0  0  0  0
   -6.9672    3.3101    1.1128 H   0  0  0  0  0  0  0  0  0  0  0  0
   -7.3703    1.9376   -0.0026 H   0  0  0  0  0  0  0  0  0  0  0  0
   -8.9275    3.6120   -0.1654 H   0  0  0  0  0  0  0  0  0  0  0  0
   -7.5016    5.7324   -1.6440 H   0  0  0  0  0  0  0  0  0  0  0  0
   -7.0979    5.5992    0.1769 H   0  0  0  0  0  0  0  0  0  0  0  0
   -8.7692    5.7629   -0.3268 H   0  0  0  0  0  0  0  0  0  0  0  0
   -7.4653    3.8732   -2.7943 H   0  0  0  0  0  0  0  0  0  0  0  0
   -8.2108    2.2863   -2.1919 H   0  0  0  0  0  0  0  0  0  0  0  0
   -9.2013    3.7360   -2.4021 H   0  0  0  0  0  0  0  0  0  0  0  0
   -4.8254    4.9105   -2.3208 H   0  0  0  0  0  0  0  0  0  0  0  0
  1  2  1  0
  2  3  1  0
  3  4  1  0
  3  5  1  0
  5  6  1  0
  6  7  1  0
  7  8  2  0
  7  9  1  0
  9 10  1  0
 10 11  1  0
 11 12  2  0
 12 13  1  0
 13 14  2  0
 14 15  1  0
 14 16  1  0
 16 17  2  0
  9 18  1  0
 18 19  1  0
 19 20  2  0
 19 21  1  0
 21 22  1  0
 22 23  1  0
 23 24  1  0
 24 25  1  0
 25 26  1  0
 26 27  2  0
 26 28  1  0
 28 29  1  0
 28 30  1  0
 30 31  1  0
 31 32  1  0
 32 33  1  0
 33 34  2  3
 34 35  1  0
 34 36  1  0
  5 37  1  0
 37 38  2  0
 37 39  1  0
 39 40  1  0
 40 41  1  0
 41 42  1  0
 42 43  1  0
 42 44  1  0
 40 45  1  0
 45 46  1  0
 45 47  2  0
 17 11  1  0
 25 21  1  0
  1 48  1  0
  1 49  1  0
  1 50  1  0
  2 51  1  0
  2 52  1  0
  3 53  1  6
  4 54  1  0
  4 55  1  0
  4 56  1  0
  5 57  1  1
  6 58  1  0
  9 59  1  6
 10 60  1  0
 10 61  1  0
 12 62  1  0
 13 63  1  0
 15 64  1  0
 16 65  1  0
 17 66  1  0
 18 67  1  0
 21 68  1  1
 22 69  1  0
 22 70  1  0
 23 71  1  0
 23 72  1  0
 24 73  1  0
 24 74  1  0
 28 75  1  1
 29 76  1  0
 29 77  1  0
 30 78  1  0
 30 79  1  0
 31 80  1  0
 31 81  1  0
 32 82  1  0
 32 83  1  0
 35 84  1  0
 35 85  1  0
 36 86  1  0
 36 87  1  0
 39 88  1  0
 40 89  1  6
 41 90  1  0
 41 91  1  0
 42 92  1  0
 43 93  1  0
 43 94  1  0
 43 95  1  0
 44 96  1  0
 44 97  1  0
 44 98  1  0
 46 99  1  0
M  END
$$$$
[H]c1c([H])c(C([H])([H])C([H])([H])N2C([H])([H])C([H])([H])N(c3c([H])c([H])c([H])c4nc(C([H])([H])[H])c([H])c([H])c34)C([H])([H])C2([H])[H])c([H])c2c1OC([H])([H])C(=O)N2[H]
     RDKit          3D

 56 60  0  0  0  0  0  0  0  0999 V2000
    7.9504   -0.6783    1.6656 C   0  0  0  0  0  0  0  0  0  0  0  0
    6.6884   -0.2474    0.9993 C   0  0  0  0  0  0  0  0  0  0  0  0
    5.4918   -0.7871    1.4029 C   0  0  0  0  0  0  0  0  0  0  0  0
    4.2948   -0.4111    0.8099 C   0  0  0  0  0  0  0  0  0  0  0  0
    4.3541    0.5252   -0.1995 C   0  0  0  0  0  0  0  0  0  0  0  0
    3.2214    0.9495   -0.8448 C   0  0  0  0  0  0  0  0  0  0  0  0
    3.3037    1.8990   -1.8785 C   0  0  0  0  0  0  0  0  0  0  0  0
    4.5134    2.4217   -2.2636 C   0  0  0  0  0  0  0  0  0  0  0  0
    5.6387    1.9979   -1.6183 C   0  0  0  0  0  0  0  0  0  0  0  0
    5.5811    1.0665   -0.6011 C   0  0  0  0  0  0  0  0  0  0  0  0
    6.6953    0.6587    0.0138 N   0  0  0  0  0  0  0  0  0  0  0  0
    1.9417    0.4713   -0.4658 N   0  0  0  0  0  0  0  0  0  0  0  0
    1.2611    0.8060    0.7703 C   0  0  0  0  0  0  0  0  0  0  0  0
    0.2834   -0.3208    1.0443 C   0  0  0  0  0  0  0  0  0  0  0  0
   -0.8095   -0.3552    0.0735 N   0  0  0  0  0  0  0  0  0  0  0  0
   -1.4051   -1.6369    0.1512 C   0  0  0  0  0  0  0  0  0  0  0  0
   -2.5914   -1.9097   -0.6947 C   0  0  0  0  0  0  0  0  0  0  0  0
   -3.7576   -1.0367   -0.4333 C   0  0  0  0  0  0  0  0  0  0  0  0
   -3.9095    0.1097   -1.1748 C   0  0  0  0  0  0  0  0  0  0  0  0
   -4.9904    0.9309   -0.9227 C   0  0  0  0  0  0  0  0  0  0  0  0
   -5.8915    0.5866    0.0625 C   0  0  0  0  0  0  0  0  0  0  0  0
   -6.9875    1.3862    0.3428 O   0  0  0  0  0  0  0  0  0  0  0  0
   -7.6614    1.3736    1.5731 C   0  0  0  0  0  0  0  0  0  0  0  0
   -7.7461   -0.0454    2.0440 C   0  0  0  0  0  0  0  0  0  0  0  0
   -8.7620   -0.4568    2.6253 O   0  0  0  0  0  0  0  0  0  0  0  0
   -6.6626   -0.9207    1.8250 N   0  0  0  0  0  0  0  0  0  0  0  0
   -5.7185   -0.5808    0.8028 C   0  0  0  0  0  0  0  0  0  0  0  0
   -4.6370   -1.3907    0.5416 C   0  0  0  0  0  0  0  0  0  0  0  0
   -0.2646   -0.0109   -1.2032 C   0  0  0  0  0  0  0  0  0  0  0  0
    1.1752   -0.4365   -1.3320 C   0  0  0  0  0  0  0  0  0  0  0  0
    8.5720    0.2065    1.8775 H   0  0  0  0  0  0  0  0  0  0  0  0
    7.7395   -1.1821    2.6350 H   0  0  0  0  0  0  0  0  0  0  0  0
    8.4994   -1.3180    0.9518 H   0  0  0  0  0  0  0  0  0  0  0  0
    5.4521   -1.5211    2.1962 H   0  0  0  0  0  0  0  0  0  0  0  0
    3.3537   -0.8295    1.1066 H   0  0  0  0  0  0  0  0  0  0  0  0
    2.3727    2.1930   -2.3507 H   0  0  0  0  0  0  0  0  0  0  0  0
    4.5925    3.1532   -3.0578 H   0  0  0  0  0  0  0  0  0  0  0  0
    6.6093    2.4006   -1.9079 H   0  0  0  0  0  0  0  0  0  0  0  0
    0.7074    1.7831    0.6602 H   0  0  0  0  0  0  0  0  0  0  0  0
    1.9114    0.9451    1.6295 H   0  0  0  0  0  0  0  0  0  0  0  0
    0.8514   -1.2685    0.9844 H   0  0  0  0  0  0  0  0  0  0  0  0
   -0.1124   -0.2683    2.0823 H   0  0  0  0  0  0  0  0  0  0  0  0
   -1.6839   -1.8306    1.2082 H   0  0  0  0  0  0  0  0  0  0  0  0
   -0.6423   -2.4326   -0.0891 H   0  0  0  0  0  0  0  0  0  0  0  0
   -2.3512   -1.9441   -1.7930 H   0  0  0  0  0  0  0  0  0  0  0  0
   -2.9206   -2.9588   -0.4666 H   0  0  0  0  0  0  0  0  0  0  0  0
   -3.2475    0.4373   -1.9618 H   0  0  0  0  0  0  0  0  0  0  0  0
   -5.1396    1.8396   -1.4871 H   0  0  0  0  0  0  0  0  0  0  0  0
   -8.6810    1.8013    1.4581 H   0  0  0  0  0  0  0  0  0  0  0  0
   -7.1451    2.0216    2.3390 H   0  0  0  0  0  0  0  0  0  0  0  0
   -6.5089   -1.8089    2.3705 H   0  0  0  0  0  0  0  0  0  0  0  0
   -4.5298   -2.3047    1.1431 H   0  0  0  0  0  0  0  0  0  0  0  0
   -0.8839   -0.3466   -2.0577 H   0  0  0  0  0  0  0  0  0  0  0  0
   -0.2616    1.1175   -1.2641 H   0  0  0  0  0  0  0  0  0  0  0  0
    1.5400   -0.3763   -2.3778 H   0  0  0  0  0  0  0  0  0  0  0  0
    1.3063   -1.4666   -0.9831 H   0  0  0  0  0  0  0  0  0  0  0  0
  1  2  1  0
  2  3  2  0
  3  4  1  0
  4  5  2  0
  5  6  1  0
  6  7  2  0
  7  8  1  0
  8  9  2  0
  9 10  1  0
 10 11  2  0
  6 12  1  0
 12 13  1  0
 13 14  1  0
 14 15  1  0
 15 16  1  0
 16 17  1  0
 17 18  1  0
 18 19  2  0
 19 20  1  0
 20 21  2  0
 21 22  1  0
 22 23  1  0
 23 24  1  0
 24 25  2  0
 24 26  1  0
 26 27  1  0
 27 28  2  0
 15 29  1  0
 29 30  1  0
 11  2  1  0
 30 12  1  0
 10  5  1  0
 28 18  1  0
 27 21  1  0
  1 31  1  0
  1 32  1  0
  1 33  1  0
  3 34  1  0
  4 35  1  0
  7 36  1  0
  8 37  1  0
  9 38  1  0
 13 39  1  0
 13 40  1  0
 14 41  1  0
 14 42  1  0
 16 43  1  0
 16 44  1  0
 17 45  1  0
 17 46  1  0
 19 47  1  0
 20 48  1  0
 23 49  1  0
 23 50  1  0
 26 51  1  0
 28 52  1  0
 29 53  1  0
 29 54  1  0
 30 55  1  0
 30 56  1  0
M  END
$$$$
[H]C1=C([H])C([H])(F)C([H])([H])C([H])=C1N([H])C(=O)C1(C(=O)N([H])c2c([H])c([H])c(Oc3c([H])c([H])nc4c([H])c(OC([H])([H])C([H])([H])C([H])([H])N5C([H])([H])C([H])([H])C([H])([H])C([H])([H])C5([H])[H])c(OC([H])([H])[H])c([H])c34)c(F)c2[H])C([H])([H])C1([H])[H]
     RDKit          3D

 84 89  0  0  0  0  0  0  0  0999 V2000
    3.8941   -3.7132    0.1913 C   0  0  0  0  0  0  0  0  0  0  0  0
    4.6565   -2.6079   -0.2681 O   0  0  0  0  0  0  0  0  0  0  0  0
    4.0305   -1.4283   -0.6539 C   0  0  0  0  0  0  0  0  0  0  0  0
    2.6597   -1.2972   -0.6016 C   0  0  0  0  0  0  0  0  0  0  0  0
    2.0436   -0.1222   -0.9870 C   0  0  0  0  0  0  0  0  0  0  0  0
    0.6510    0.0367   -0.9451 C   0  0  0  0  0  0  0  0  0  0  0  0
   -0.0755   -1.0256   -0.4996 O   0  0  0  0  0  0  0  0  0  0  0  0
   -1.4492   -1.0402   -0.3255 C   0  0  0  0  0  0  0  0  0  0  0  0
   -2.2606   -1.8743   -1.0649 C   0  0  0  0  0  0  0  0  0  0  0  0
   -3.6423   -1.8715   -0.8692 C   0  0  0  0  0  0  0  0  0  0  0  0
   -4.2526   -1.0654    0.0403 C   0  0  0  0  0  0  0  0  0  0  0  0
   -5.6503   -1.0411    0.3103 N   0  0  0  0  0  0  0  0  0  0  0  0
   -6.4608   -2.1680    0.2347 C   0  0  0  0  0  0  0  0  0  0  0  0
   -5.8498   -3.2675   -0.0680 O   0  0  0  0  0  0  0  0  0  0  0  0
   -7.9176   -2.3168    0.4538 C   0  0  0  0  0  0  0  0  0  0  0  0
   -8.5358   -3.5604   -0.1118 C   0  0  0  0  0  0  0  0  0  0  0  0
   -8.2258   -3.5095    1.3287 C   0  0  0  0  0  0  0  0  0  0  0  0
   -8.8577   -1.1862    0.5085 C   0  0  0  0  0  0  0  0  0  0  0  0
  -10.0295   -1.5183    0.9875 O   0  0  0  0  0  0  0  0  0  0  0  0
   -8.6712    0.1344    0.1256 N   0  0  0  0  0  0  0  0  0  0  0  0
   -9.7018    1.1257    0.2594 C   0  0  0  0  0  0  0  0  0  0  0  0
  -10.1675    1.7824   -0.7844 C   0  0  0  0  0  0  0  0  0  0  0  0
  -11.2276    2.8066   -0.6621 C   0  0  0  0  0  0  0  0  0  0  0  0
  -11.7828    3.0373    0.6810 C   0  0  0  0  0  0  0  0  0  0  0  0
  -13.1708    2.8095    0.6256 F   0  0  0  0  0  0  0  0  0  0  0  0
  -11.1912    2.2557    1.7682 C   0  0  0  0  0  0  0  0  0  0  0  0
  -10.2373    1.3788    1.5761 C   0  0  0  0  0  0  0  0  0  0  0  0
   -3.4356   -0.2282    0.7824 C   0  0  0  0  0  0  0  0  0  0  0  0
   -2.0698   -0.2231    0.5976 C   0  0  0  0  0  0  0  0  0  0  0  0
   -1.3225    0.6137    1.3883 F   0  0  0  0  0  0  0  0  0  0  0  0
    0.0582    1.2154   -1.3358 C   0  0  0  0  0  0  0  0  0  0  0  0
    0.8455    2.2647   -1.7771 C   0  0  0  0  0  0  0  0  0  0  0  0
    2.1789    2.1086   -1.8152 N   0  0  0  0  0  0  0  0  0  0  0  0
    2.7728    0.9564   -1.4354 C   0  0  0  0  0  0  0  0  0  0  0  0
    4.1549    0.8104   -1.4827 C   0  0  0  0  0  0  0  0  0  0  0  0
    4.7873   -0.3669   -1.0977 C   0  0  0  0  0  0  0  0  0  0  0  0
    6.1653   -0.5173   -1.1421 O   0  0  0  0  0  0  0  0  0  0  0  0
    6.9247    0.5946   -1.5969 C   0  0  0  0  0  0  0  0  0  0  0  0
    8.3981    0.2160   -1.5674 C   0  0  0  0  0  0  0  0  0  0  0  0
    8.7652   -0.1374   -0.1628 C   0  0  0  0  0  0  0  0  0  0  0  0
    8.5410    0.9713    0.7124 N   0  0  0  0  0  0  0  0  0  0  0  0
    8.8626    0.5943    2.0908 C   0  0  0  0  0  0  0  0  0  0  0  0
   10.1341    1.2231    2.5590 C   0  0  0  0  0  0  0  0  0  0  0  0
   11.2236    1.2674    1.5088 C   0  0  0  0  0  0  0  0  0  0  0  0
   10.7617    1.8537    0.2168 C   0  0  0  0  0  0  0  0  0  0  0  0
    9.2894    2.1446    0.3223 C   0  0  0  0  0  0  0  0  0  0  0  0
    4.5297   -4.6049    0.2046 H   0  0  0  0  0  0  0  0  0  0  0  0
    3.0368   -3.9207   -0.4537 H   0  0  0  0  0  0  0  0  0  0  0  0
    3.5857   -3.4838    1.2349 H   0  0  0  0  0  0  0  0  0  0  0  0
    2.0594   -2.1200   -0.2574 H   0  0  0  0  0  0  0  0  0  0  0  0
   -1.7910   -2.5214   -1.7915 H   0  0  0  0  0  0  0  0  0  0  0  0
   -4.2011   -2.5275   -1.4890 H   0  0  0  0  0  0  0  0  0  0  0  0
   -5.9930   -0.0843    0.6053 H   0  0  0  0  0  0  0  0  0  0  0  0
   -7.8776   -4.1574   -0.7922 H   0  0  0  0  0  0  0  0  0  0  0  0
   -9.5862   -3.5314   -0.4675 H   0  0  0  0  0  0  0  0  0  0  0  0
   -9.0668   -3.4296    2.0590 H   0  0  0  0  0  0  0  0  0  0  0  0
   -7.4089   -4.1370    1.6985 H   0  0  0  0  0  0  0  0  0  0  0  0
   -7.7902    0.4562   -0.3104 H   0  0  0  0  0  0  0  0  0  0  0  0
   -9.7650    1.5684   -1.7719 H   0  0  0  0  0  0  0  0  0  0  0  0
  -10.7674    3.7837   -1.0343 H   0  0  0  0  0  0  0  0  0  0  0  0
  -12.0168    2.5426   -1.4224 H   0  0  0  0  0  0  0  0  0  0  0  0
  -11.6408    4.1294    0.9469 H   0  0  0  0  0  0  0  0  0  0  0  0
  -11.5771    2.4212    2.8054 H   0  0  0  0  0  0  0  0  0  0  0  0
   -9.8450    0.8363    2.4194 H   0  0  0  0  0  0  0  0  0  0  0  0
   -3.9079    0.4182    1.5091 H   0  0  0  0  0  0  0  0  0  0  0  0
   -0.9995    1.3667   -1.3304 H   0  0  0  0  0  0  0  0  0  0  0  0
    0.3645    3.1827   -2.0801 H   0  0  0  0  0  0  0  0  0  0  0  0
    4.7341    1.6500   -1.8317 H   0  0  0  0  0  0  0  0  0  0  0  0
    6.7902    1.4564   -0.9075 H   0  0  0  0  0  0  0  0  0  0  0  0
    6.6790    0.8981   -2.6163 H   0  0  0  0  0  0  0  0  0  0  0  0
    8.5172   -0.6510   -2.2580 H   0  0  0  0  0  0  0  0  0  0  0  0
    8.9717    1.0419   -1.9999 H   0  0  0  0  0  0  0  0  0  0  0  0
    8.1514   -1.0174    0.1504 H   0  0  0  0  0  0  0  0  0  0  0  0
    9.8226   -0.4865   -0.1718 H   0  0  0  0  0  0  0  0  0  0  0  0
    8.8820   -0.5200    2.1502 H   0  0  0  0  0  0  0  0  0  0  0  0
    8.0335    0.9450    2.7222 H   0  0  0  0  0  0  0  0  0  0  0  0
   10.5337    0.5668    3.3880 H   0  0  0  0  0  0  0  0  0  0  0  0
    9.9539    2.2035    3.0123 H   0  0  0  0  0  0  0  0  0  0  0  0
   11.7159    0.2783    1.3726 H   0  0  0  0  0  0  0  0  0  0  0  0
   12.0186    1.9324    1.9308 H   0  0  0  0  0  0  0  0  0  0  0  0
   10.9303    1.1781   -0.6500 H   0  0  0  0  0  0  0  0  0  0  0  0
   11.3098    2.7776   -0.0117 H   0  0  0  0  0  0  0  0  0  0  0  0
    9.0848    2.9287    1.0867 H   0  0  0  0  0  0  0  0  0  0  0  0
    8.9162    2.5157   -0.6375 H   0  0  0  0  0  0  0  0  0  0  0  0
  1  2  1  0
  2  3  1  0
  3  4  2  0
  4  5  1  0
  5  6  2  0
  6  7  1  0
  7  8  1  0
  8  9  2  0
  9 10  1  0
 10 11  2  0
 11 12  1  0
 12 13  1  0
 13 14  2  0
 13 15  1  0
 15 16  1  0
 16 17  1  0
 15 18  1  0
 18 19  2  0
 18 20  1  0
 20 21  1  0
 21 22  2  0
 22 23  1  0
 23 24  1  0
 24 25  1  0
 24 26  1  0
 26 27  2  0
 11 28  1  0
 28 29  2  0
 29 30  1  0
  6 31  1  0
 31 32  2  0
 32 33  1  0
 33 34  2  0
 34 35  1  0
 35 36  2  0
 36 37  1  0
 37 38  1  0
 38 39  1  0
 39 40  1  0
 40 41  1  0
 41 42  1  0
 42 43  1  0
 43 44  1  0
 44 45  1  0
 45 46  1  0
 36  3  1  0
 46 41  1  0
 34  5  1  0
 29  8  1  0
 17 15  1  0
 27 21  1  0
  1 47  1  0
  1 48  1  0
  1 49  1  0
  4 50  1  0
  9 51  1  0
 10 52  1  0
 12 53  1  0
 16 54  1  0
 16 55  1  0
 17 56  1  0
 17 57  1  0
 20 58  1  0
 22 59  1  0
 23 60  1  0
 23 61  1  0
 24 62  1  0
 26 63  1  0
 27 64  1  0
 28 65  1  0
 31 66  1  0
 32 67  1  0
 35 68  1  0
 38 69  1  0
 38 70  1  0
 39 71  1  0
 39 72  1  0
 40 73  1  0
 40 74  1  0
 42 75  1  0
 42 76  1  0
 43 77  1  0
 43 78  1  0
 44 79  1  0
 44 80  1  0
 45 81  1  0
 45 82  1  0
 46 83  1  0
 46 84  1  0
M  END
$$$$
[H]c1c([H])c([H])c(S(=O)(=O)[C@@]2([H])C([H])([H])N(C(=O)C3(c4c([H])c([H])c(Cl)c([H])c4[H])C([H])([H])C3([H])[H])[C@]([H])(C(=O)N([H])[C@]([H])(C(=O)C(=O)N([H])C3([H])C([H])([H])C3([H])[H])C([H])([H])C([H])([H])[H])C2([H])[H])c(Cl)c1[H]
     RDKit          3D

 72 76  0  0  0  0  0  0  0  0999 V2000
    5.1174    2.7179   -2.3274 C   0  0  0  0  0  0  0  0  0  0  0  0
    3.7608    2.6910   -1.6848 C   0  0  0  0  0  0  0  0  0  0  0  0
    3.4329    1.3093   -1.1724 C   0  0  2  0  0  0  0  0  0  0  0  0
    2.1027    1.3141   -0.5553 N   0  0  0  0  0  0  0  0  0  0  0  0
    1.0802    0.3952   -0.9984 C   0  0  0  0  0  0  0  0  0  0  0  0
    1.4124   -0.3777   -1.9209 O   0  0  0  0  0  0  0  0  0  0  0  0
   -0.1976    0.4262   -0.3778 C   0  0  2  0  0  0  0  0  0  0  0  0
   -0.1131    0.6001    1.1391 C   0  0  0  0  0  0  0  0  0  0  0  0
   -1.6051    0.6239    1.4498 C   0  0  2  0  0  0  0  0  0  0  0  0
   -2.2870   -0.0693    0.2331 C   0  0  0  0  0  0  0  0  0  0  0  0
   -1.1065   -0.6821   -0.4237 N   0  0  0  0  0  0  0  0  0  0  0  0
   -1.0082   -2.0207   -0.7828 C   0  0  0  0  0  0  0  0  0  0  0  0
    0.1930   -2.5039   -0.9734 O   0  0  0  0  0  0  0  0  0  0  0  0
   -2.0534   -3.0395   -0.9987 C   0  0  0  0  0  0  0  0  0  0  0  0
   -1.7264   -4.4010   -0.3098 C   0  0  0  0  0  0  0  0  0  0  0  0
   -1.5710   -4.2382   -1.7951 C   0  0  0  0  0  0  0  0  0  0  0  0
   -3.4906   -2.7115   -1.1261 C   0  0  0  0  0  0  0  0  0  0  0  0
   -3.8862   -1.7581   -2.0772 C   0  0  0  0  0  0  0  0  0  0  0  0
   -5.2044   -1.4075   -2.2652 C   0  0  0  0  0  0  0  0  0  0  0  0
   -6.1988   -1.9889   -1.5144 C   0  0  0  0  0  0  0  0  0  0  0  0
   -7.8841   -1.5289   -1.7680 Cl  0  0  0  0  0  0  0  0  0  0  0  0
   -5.8421   -2.9256   -0.5754 C   0  0  0  0  0  0  0  0  0  0  0  0
   -4.4998   -3.2807   -0.3859 C   0  0  0  0  0  0  0  0  0  0  0  0
   -2.0984    2.2932    1.6283 S   0  0  0  0  0  0  0  0  0  0  0  0
   -1.3446    2.8177    2.8531 O   0  0  0  0  0  0  0  0  0  0  0  0
   -1.6561    3.1889    0.5066 O   0  0  0  0  0  0  0  0  0  0  0  0
   -3.7926    2.4989    1.8919 C   0  0  0  0  0  0  0  0  0  0  0  0
   -4.5441    3.2108    0.9824 C   0  0  0  0  0  0  0  0  0  0  0  0
   -5.9087    3.4119    1.1214 C   0  0  0  0  0  0  0  0  0  0  0  0
   -6.4970    2.8568    2.2339 C   0  0  0  0  0  0  0  0  0  0  0  0
   -5.7939    2.1438    3.1621 C   0  0  0  0  0  0  0  0  0  0  0  0
   -4.4369    1.9688    2.9831 C   0  0  0  0  0  0  0  0  0  0  0  0
   -3.5380    1.0515    4.1934 Cl  0  0  0  0  0  0  0  0  0  0  0  0
    4.3921    0.9599   -0.1140 C   0  0  0  0  0  0  0  0  0  0  0  0
    4.1613    1.3363    1.0608 O   0  0  0  0  0  0  0  0  0  0  0  0
    5.5966    0.1934   -0.3682 C   0  0  0  0  0  0  0  0  0  0  0  0
    5.8971   -0.2583   -1.5152 O   0  0  0  0  0  0  0  0  0  0  0  0
    6.5179   -0.0957    0.6764 N   0  0  0  0  0  0  0  0  0  0  0  0
    7.7120   -0.8505    0.4490 C   0  0  0  0  0  0  0  0  0  0  0  0
    8.1277   -1.7608    1.5477 C   0  0  0  0  0  0  0  0  0  0  0  0
    8.9639   -0.5684    1.1897 C   0  0  0  0  0  0  0  0  0  0  0  0
    5.9431    2.5971   -1.5884 H   0  0  0  0  0  0  0  0  0  0  0  0
    5.1869    1.9800   -3.1458 H   0  0  0  0  0  0  0  0  0  0  0  0
    5.2560    3.7456   -2.7836 H   0  0  0  0  0  0  0  0  0  0  0  0
    3.7469    3.4282   -0.8551 H   0  0  0  0  0  0  0  0  0  0  0  0
    3.0263    3.0006   -2.4585 H   0  0  0  0  0  0  0  0  0  0  0  0
    3.4751    0.5925   -1.9923 H   0  0  0  0  0  0  0  0  0  0  0  0
    1.8759    1.9761    0.2045 H   0  0  0  0  0  0  0  0  0  0  0  0
   -0.8248    1.3113   -0.7834 H   0  0  0  0  0  0  0  0  0  0  0  0
    0.3924    1.5037    1.4591 H   0  0  0  0  0  0  0  0  0  0  0  0
    0.3098   -0.3443    1.5283 H   0  0  0  0  0  0  0  0  0  0  0  0
   -1.8516    0.0771    2.3655 H   0  0  0  0  0  0  0  0  0  0  0  0
   -3.0028   -0.7888    0.6086 H   0  0  0  0  0  0  0  0  0  0  0  0
   -2.7285    0.6449   -0.4477 H   0  0  0  0  0  0  0  0  0  0  0  0
   -0.8171   -4.4259    0.3301 H   0  0  0  0  0  0  0  0  0  0  0  0
   -2.5787   -5.0100    0.0227 H   0  0  0  0  0  0  0  0  0  0  0  0
   -0.5726   -4.2033   -2.2388 H   0  0  0  0  0  0  0  0  0  0  0  0
   -2.3268   -4.7421   -2.4329 H   0  0  0  0  0  0  0  0  0  0  0  0
   -3.1014   -1.3038   -2.6649 H   0  0  0  0  0  0  0  0  0  0  0  0
   -5.5105   -0.6703   -3.0010 H   0  0  0  0  0  0  0  0  0  0  0  0
   -6.6183   -3.3852    0.0162 H   0  0  0  0  0  0  0  0  0  0  0  0
   -4.2457   -4.0149    0.3622 H   0  0  0  0  0  0  0  0  0  0  0  0
   -4.0460    3.6389    0.1091 H   0  0  0  0  0  0  0  0  0  0  0  0
   -6.4960    3.9764    0.3972 H   0  0  0  0  0  0  0  0  0  0  0  0
   -7.5624    2.9951    2.3729 H   0  0  0  0  0  0  0  0  0  0  0  0
   -6.2829    1.7220    4.0223 H   0  0  0  0  0  0  0  0  0  0  0  0
    6.3178    0.2509    1.6305 H   0  0  0  0  0  0  0  0  0  0  0  0
    7.8542   -1.1860   -0.6009 H   0  0  0  0  0  0  0  0  0  0  0  0
    8.4843   -2.7633    1.2140 H   0  0  0  0  0  0  0  0  0  0  0  0
    7.5951   -1.6822    2.5256 H   0  0  0  0  0  0  0  0  0  0  0  0
    9.9499   -0.7790    0.7162 H   0  0  0  0  0  0  0  0  0  0  0  0
    8.9692    0.3163    1.8360 H   0  0  0  0  0  0  0  0  0  0  0  0
  1  2  1  0
  2  3  1  0
  3  4  1  0
  4  5  1  0
  5  6  2  0
  5  7  1  0
  7  8  1  0
  8  9  1  0
  9 10  1  0
 10 11  1  0
 11 12  1  0
 12 13  2  0
 12 14  1  0
 14 15  1  0
 15 16  1  0
 14 17  1  0
 17 18  2  0
 18 19  1  0
 19 20  2  0
 20 21  1  0
 20 22  1  0
 22 23  2  0
  9 24  1  0
 24 25  2  0
 24 26  2  0
 24 27  1  0
 27 28  2  0
 28 29  1  0
 29 30  2  0
 30 31  1  0
 31 32  2  0
 32 33  1  0
  3 34  1  0
 34 35  2  0
 34 36  1  0
 36 37  2  0
 36 38  1  0
 38 39  1  0
 39 40  1  0
 40 41  1  0
 11  7  1  0
 16 14  1  0
 23 17  1  0
 32 27  1  0
 41 39  1  0
  1 42  1  0
  1 43  1  0
  1 44  1  0
  2 45  1  0
  2 46  1  0
  3 47  1  6
  4 48  1  0
  7 49  1  6
  8 50  1  0
  8 51  1  0
  9 52  1  1
 10 53  1  0
 10 54  1  0
 15 55  1  0
 15 56  1  0
 16 57  1  0
 16 58  1  0
 18 59  1  0
 19 60  1  0
 22 61  1  0
 23 62  1  0
 28 63  1  0
 29 64  1  0
 30 65  1  0
 31 66  1  0
 38 67  1  0
 39 68  1  0
 40 69  1  0
 40 70  1  0
 41 71  1  0
 41 72  1  0
M  END
$$$$
[H]c1nc(-c2nc(-c3nc([H])c([H])c([H])c3[H])c([H])c(N3C([H])([H])C([H])([H])N(c4c([H])c(F)c([H])c(F)c4[H])C([H])([H])[C@@]3([H])C([H])([H])[H])n2)c([H])c([H])c1[H]
     RDKit          3D

 55 59  0  0  0  0  0  0  0  0999 V2000
    1.0961   -1.1292   -2.6361 C   0  0  0  0  0  0  0  0  0  0  0  0
    1.6434   -0.2346   -1.6061 C   0  0  2  0  0  0  0  0  0  0  0  0
    2.5405   -0.9396   -0.5715 C   0  0  0  0  0  0  0  0  0  0  0  0
    3.2595    0.1349    0.0764 N   0  0  0  0  0  0  0  0  0  0  0  0
    2.8002    1.4883    0.1388 C   0  0  0  0  0  0  0  0  0  0  0  0
    1.3814    1.7391   -0.2090 C   0  0  0  0  0  0  0  0  0  0  0  0
    0.7458    0.5477   -0.8257 N   0  0  0  0  0  0  0  0  0  0  0  0
   -0.6116    0.3354   -0.5505 C   0  0  0  0  0  0  0  0  0  0  0  0
   -1.2923   -0.8462   -0.6377 C   0  0  0  0  0  0  0  0  0  0  0  0
   -2.6292   -0.9111   -0.3590 C   0  0  0  0  0  0  0  0  0  0  0  0
   -3.2712    0.2233    0.0079 N   0  0  0  0  0  0  0  0  0  0  0  0
   -2.6475    1.3996    0.1070 C   0  0  0  0  0  0  0  0  0  0  0  0
   -1.3413    1.4173   -0.1748 N   0  0  0  0  0  0  0  0  0  0  0  0
   -3.2952    2.6327    0.4943 C   0  0  0  0  0  0  0  0  0  0  0  0
   -4.6359    2.6212    0.7825 C   0  0  0  0  0  0  0  0  0  0  0  0
   -5.3048    3.7708    1.1564 C   0  0  0  0  0  0  0  0  0  0  0  0
   -4.5834    4.9310    1.2311 C   0  0  0  0  0  0  0  0  0  0  0  0
   -3.2305    4.9045    0.9328 C   0  0  0  0  0  0  0  0  0  0  0  0
   -2.6032    3.7682    0.5706 N   0  0  0  0  0  0  0  0  0  0  0  0
   -3.3884   -2.1757   -0.4482 C   0  0  0  0  0  0  0  0  0  0  0  0
   -2.8459   -3.3652   -0.8072 C   0  0  0  0  0  0  0  0  0  0  0  0
   -3.6630   -4.4921   -0.8579 C   0  0  0  0  0  0  0  0  0  0  0  0
   -4.9987   -4.3804   -0.5446 C   0  0  0  0  0  0  0  0  0  0  0  0
   -5.5210   -3.1584   -0.1832 C   0  0  0  0  0  0  0  0  0  0  0  0
   -4.7183   -2.1137   -0.1461 N   0  0  0  0  0  0  0  0  0  0  0  0
    4.5032   -0.1587    0.6967 C   0  0  0  0  0  0  0  0  0  0  0  0
    5.3252    0.8061    1.2409 C   0  0  0  0  0  0  0  0  0  0  0  0
    6.5233    0.5136    1.8425 C   0  0  0  0  0  0  0  0  0  0  0  0
    7.2883    1.4974    2.3591 F   0  0  0  0  0  0  0  0  0  0  0  0
    6.9448   -0.7833    1.9199 C   0  0  0  0  0  0  0  0  0  0  0  0
    6.1628   -1.7889    1.3924 C   0  0  0  0  0  0  0  0  0  0  0  0
    6.5787   -3.0716    1.4687 F   0  0  0  0  0  0  0  0  0  0  0  0
    4.9454   -1.4613    0.7843 C   0  0  0  0  0  0  0  0  0  0  0  0
    0.0880   -0.9328   -2.9926 H   0  0  0  0  0  0  0  0  0  0  0  0
    1.1256   -2.2060   -2.2940 H   0  0  0  0  0  0  0  0  0  0  0  0
    1.7578   -1.1427   -3.5483 H   0  0  0  0  0  0  0  0  0  0  0  0
    2.3448    0.4963   -2.1315 H   0  0  0  0  0  0  0  0  0  0  0  0
    3.1946   -1.6623   -1.0960 H   0  0  0  0  0  0  0  0  0  0  0  0
    1.8373   -1.4173    0.1429 H   0  0  0  0  0  0  0  0  0  0  0  0
    2.9468    1.8305    1.2054 H   0  0  0  0  0  0  0  0  0  0  0  0
    3.5199    2.1226   -0.4441 H   0  0  0  0  0  0  0  0  0  0  0  0
    1.3600    2.5069   -1.0260 H   0  0  0  0  0  0  0  0  0  0  0  0
    0.7692    2.1228    0.6052 H   0  0  0  0  0  0  0  0  0  0  0  0
   -0.7669   -1.7360   -0.9185 H   0  0  0  0  0  0  0  0  0  0  0  0
   -5.2130    1.6864    0.7213 H   0  0  0  0  0  0  0  0  0  0  0  0
   -6.3579    3.6895    1.3677 H   0  0  0  0  0  0  0  0  0  0  0  0
   -5.0895    5.8434    1.5223 H   0  0  0  0  0  0  0  0  0  0  0  0
   -2.7020    5.8363    1.0045 H   0  0  0  0  0  0  0  0  0  0  0  0
   -1.7940   -3.4271   -1.0491 H   0  0  0  0  0  0  0  0  0  0  0  0
   -3.1960   -5.4188   -1.1480 H   0  0  0  0  0  0  0  0  0  0  0  0
   -5.6491   -5.2669   -0.5833 H   0  0  0  0  0  0  0  0  0  0  0  0
   -6.5913   -3.1199    0.0570 H   0  0  0  0  0  0  0  0  0  0  0  0
    4.9686    1.8417    1.1678 H   0  0  0  0  0  0  0  0  0  0  0  0
    7.8984   -1.0605    2.3945 H   0  0  0  0  0  0  0  0  0  0  0  0
    4.3914   -2.3069    0.3980 H   0  0  0  0  0  0  0  0  0  0  0  0
  1  2  1  0
  2  3  1  0
  3  4  1  0
  4  5  1  0
  5  6  1  0
  6  7  1  0
  7  8  1  0
  8  9  2  0
  9 10  1  0
 10 11  2  0
 11 12  1  0
 12 13  2  0
 12 14  1  0
 14 15  2  0
 15 16  1  0
 16 17  2  0
 17 18  1  0
 18 19  2  0
 10 20  1  0
 20 21  2  0
 21 22  1  0
 22 23  2  0
 23 24  1  0
 24 25  2  0
  4 26  1  0
 26 27  2  0
 27 28  1  0
 28 29  1  0
 28 30  2  0
 30 31  1  0
 31 32  1  0
 31 33  2  0
  7  2  1  0
 13  8  1  0
 19 14  1  0
 25 20  1  0
 33 26  1  0
  1 34  1  0
  1 35  1  0
  1 36  1  0
  2 37  1  6
  3 38  1  0
  3 39  1  0
  5 40  1  0
  5 41  1  0
  6 42  1  0
  6 43  1  0
  9 44  1  0
 15 45  1  0
 16 46  1  0
 17 47  1  0
 18 48  1  0
 21 49  1  0
 22 50  1  0
 23 51  1  0
 24 52  1  0
 27 53  1  0
 30 54  1  0
 33 55  1  0
M  END
$$$$
[H]c1nc2c([H])c(OC([H])([H])C([H])([H])C([H])([H])N3C([H])([H])C([H])([H])N(C([H])([H])[H])C([H])([H])C3([H])[H])c(OC([H])([H])[H])c([H])c2c(N([H])c2c([H])c(OC([H])([H])[H])c(Cl)c([H])c2Cl)c1C#N
     RDKit          3D

 65 68  0  0  0  0  0  0  0  0999 V2000
   -5.2946    0.1799   -2.9709 C   0  0  0  0  0  0  0  0  0  0  0  0
   -6.0951   -0.9158   -2.5530 O   0  0  0  0  0  0  0  0  0  0  0  0
   -6.1608   -1.1576   -1.1778 C   0  0  0  0  0  0  0  0  0  0  0  0
   -5.4971   -0.3938   -0.2509 C   0  0  0  0  0  0  0  0  0  0  0  0
   -5.5371   -0.6002    1.1107 C   0  0  0  0  0  0  0  0  0  0  0  0
   -4.8166    0.2382    2.0340 N   0  0  0  0  0  0  0  0  0  0  0  0
   -4.0248    1.3195    1.6049 C   0  0  0  0  0  0  0  0  0  0  0  0
   -4.6352    2.5531    1.4917 C   0  0  0  0  0  0  0  0  0  0  0  0
   -3.8290    3.6094    1.0643 C   0  0  0  0  0  0  0  0  0  0  0  0
   -2.5270    3.4300    0.7791 N   0  0  0  0  0  0  0  0  0  0  0  0
   -1.9535    2.2186    0.8968 C   0  0  0  0  0  0  0  0  0  0  0  0
   -0.6053    1.9975    0.6091 C   0  0  0  0  0  0  0  0  0  0  0  0
   -0.0254    0.7512    0.7328 C   0  0  0  0  0  0  0  0  0  0  0  0
    1.3282    0.5594    0.4376 O   0  0  0  0  0  0  0  0  0  0  0  0
    2.1607    1.6065    0.0051 C   0  0  0  0  0  0  0  0  0  0  0  0
    3.5417    1.0243   -0.2125 C   0  0  0  0  0  0  0  0  0  0  0  0
    3.4226   -0.0554   -1.2622 C   0  0  0  0  0  0  0  0  0  0  0  0
    4.6627   -0.6900   -1.5641 N   0  0  0  0  0  0  0  0  0  0  0  0
    5.1982   -1.4923   -0.4904 C   0  0  0  0  0  0  0  0  0  0  0  0
    6.5388   -0.9813   -0.0123 C   0  0  0  0  0  0  0  0  0  0  0  0
    7.5161   -0.9508   -1.0794 N   0  0  0  0  0  0  0  0  0  0  0  0
    8.4297    0.1509   -0.7994 C   0  0  0  0  0  0  0  0  0  0  0  0
    6.9128   -0.6710   -2.3660 C   0  0  0  0  0  0  0  0  0  0  0  0
    5.6339    0.1418   -2.1961 C   0  0  0  0  0  0  0  0  0  0  0  0
   -0.7837   -0.3247    1.1524 C   0  0  0  0  0  0  0  0  0  0  0  0
   -0.1660   -1.5451    1.2609 O   0  0  0  0  0  0  0  0  0  0  0  0
   -0.8182   -2.7273    1.6769 C   0  0  0  0  0  0  0  0  0  0  0  0
   -2.1295   -0.1321    1.4455 C   0  0  0  0  0  0  0  0  0  0  0  0
   -2.6832    1.1246    1.3132 C   0  0  0  0  0  0  0  0  0  0  0  0
   -6.0331    2.7467    1.7978 C   0  0  0  0  0  0  0  0  0  0  0  0
   -7.1560    2.8867    2.0549 N   0  0  0  0  0  0  0  0  0  0  0  0
   -6.3055   -1.6561    1.5519 C   0  0  0  0  0  0  0  0  0  0  0  0
   -6.4410   -2.0259    3.2478 Cl  0  0  0  0  0  0  0  0  0  0  0  0
   -7.0004   -2.4646    0.6587 C   0  0  0  0  0  0  0  0  0  0  0  0
   -6.9278   -2.2166   -0.6919 C   0  0  0  0  0  0  0  0  0  0  0  0
   -7.7733   -3.1886   -1.8765 Cl  0  0  0  0  0  0  0  0  0  0  0  0
   -5.4136    0.3597   -4.0746 H   0  0  0  0  0  0  0  0  0  0  0  0
   -4.2180   -0.0377   -2.8166 H   0  0  0  0  0  0  0  0  0  0  0  0
   -5.5182    1.1093   -2.4102 H   0  0  0  0  0  0  0  0  0  0  0  0
   -4.8824    0.4495   -0.5886 H   0  0  0  0  0  0  0  0  0  0  0  0
   -4.9019    0.0142    3.0487 H   0  0  0  0  0  0  0  0  0  0  0  0
   -4.3295    4.5717    0.9823 H   0  0  0  0  0  0  0  0  0  0  0  0
   -0.0170    2.8280    0.2846 H   0  0  0  0  0  0  0  0  0  0  0  0
    1.7778    1.9385   -1.0008 H   0  0  0  0  0  0  0  0  0  0  0  0
    2.1821    2.4558    0.7154 H   0  0  0  0  0  0  0  0  0  0  0  0
    4.2210    1.8377   -0.5139 H   0  0  0  0  0  0  0  0  0  0  0  0
    3.9285    0.6049    0.7361 H   0  0  0  0  0  0  0  0  0  0  0  0
    2.9821    0.3266   -2.1992 H   0  0  0  0  0  0  0  0  0  0  0  0
    2.7315   -0.8214   -0.8541 H   0  0  0  0  0  0  0  0  0  0  0  0
    5.2338   -2.5366   -0.8312 H   0  0  0  0  0  0  0  0  0  0  0  0
    4.5037   -1.4099    0.3697 H   0  0  0  0  0  0  0  0  0  0  0  0
    6.3881   -0.0055    0.4627 H   0  0  0  0  0  0  0  0  0  0  0  0
    6.9097   -1.6815    0.7631 H   0  0  0  0  0  0  0  0  0  0  0  0
    7.9186    0.8915   -0.1786 H   0  0  0  0  0  0  0  0  0  0  0  0
    9.2446   -0.2873   -0.1540 H   0  0  0  0  0  0  0  0  0  0  0  0
    8.8635    0.5756   -1.7319 H   0  0  0  0  0  0  0  0  0  0  0  0
    7.6268   -0.0558   -2.9818 H   0  0  0  0  0  0  0  0  0  0  0  0
    6.6852   -1.5665   -2.9435 H   0  0  0  0  0  0  0  0  0  0  0  0
    5.9066    1.0433   -1.6186 H   0  0  0  0  0  0  0  0  0  0  0  0
    5.2600    0.4179   -3.1952 H   0  0  0  0  0  0  0  0  0  0  0  0
   -1.6281   -3.0342    0.9852 H   0  0  0  0  0  0  0  0  0  0  0  0
   -0.0534   -3.5288    1.7326 H   0  0  0  0  0  0  0  0  0  0  0  0
   -1.1857   -2.5572    2.7031 H   0  0  0  0  0  0  0  0  0  0  0  0
   -2.7370   -0.9576    1.7739 H   0  0  0  0  0  0  0  0  0  0  0  0
   -7.6050   -3.2933    0.9881 H   0  0  0  0  0  0  0  0  0  0  0  0
  1  2  1  0
  2  3  1  0
  3  4  2  0
  4  5  1  0
  5  6  1  0
  6  7  1  0
  7  8  2  0
  8  9  1  0
  9 10  2  0
 10 11  1  0
 11 12  2  0
 12 13  1  0
 13 14  1  0
 14 15  1  0
 15 16  1  0
 16 17  1  0
 17 18  1  0
 18 19  1  0
 19 20  1  0
 20 21  1  0
 21 22  1  0
 21 23  1  0
 23 24  1  0
 13 25  2  0
 25 26  1  0
 26 27  1  0
 25 28  1  0
 28 29  2  0
  8 30  1  0
 30 31  3  0
  5 32  2  0
 32 33  1  0
 32 34  1  0
 34 35  2  0
 35 36  1  0
 35  3  1  0
 29  7  1  0
 29 11  1  0
 24 18  1  0
  1 37  1  0
  1 38  1  0
  1 39  1  0
  4 40  1  0
  6 41  1  0
  9 42  1  0
 12 43  1  0
 15 44  1  0
 15 45  1  0
 16 46  1  0
 16 47  1  0
 17 48  1  0
 17 49  1  0
 19 50  1  0
 19 51  1  0
 20 52  1  0
 20 53  1  0
 22 54  1  0
 22 55  1  0
 22 56  1  0
 23 57  1  0
 23 58  1  0
 24 59  1  0
 24 60  1  0
 27 61  1  0
 27 62  1  0
 27 63  1  0
 28 64  1  0
 34 65  1  0
M  END
$$$$
[H]c1nc(N([H])C(=O)c2c([H])c([H])c(-c3nc([C@@]4([H])C([H])([H])N5C(=O)C([H])([H])C([H])([H])[C@]5([H])C([H])([H])C4([H])[H])n4c([H])c([H])nc(N([H])[H])c34)c(F)c2[H])c([H])c(C(F)(F)F)c1[H]
     RDKit          3D

 63 68  0  0  0  0  0  0  0  0999 V2000
   -1.2173   -0.0120    2.4157 N   0  0  0  0  0  0  0  0  0  0  0  0
    0.1765   -0.2008    2.3904 C   0  0  0  0  0  0  0  0  0  0  0  0
    0.7725   -0.9366    3.3782 N   0  0  0  0  0  0  0  0  0  0  0  0
    2.0561   -1.2193    3.3733 C   0  0  0  0  0  0  0  0  0  0  0  0
    2.8250   -0.7585    2.3330 C   0  0  0  0  0  0  0  0  0  0  0  0
    2.2587   -0.0335    1.3548 N   0  0  0  0  0  0  0  0  0  0  0  0
    2.8030    0.4966    0.2112 C   0  0  0  0  0  0  0  0  0  0  0  0
    1.8196    1.1127   -0.4511 N   0  0  0  0  0  0  0  0  0  0  0  0
    0.6595    1.0150    0.1793 C   0  0  0  0  0  0  0  0  0  0  0  0
   -0.7192    1.4282   -0.1453 C   0  0  0  0  0  0  0  0  0  0  0  0
   -1.3732    2.3949    0.5838 C   0  0  0  0  0  0  0  0  0  0  0  0
   -2.7101    2.6895    0.3106 C   0  0  0  0  0  0  0  0  0  0  0  0
   -3.3651    2.0192   -0.6773 C   0  0  0  0  0  0  0  0  0  0  0  0
   -2.7032    1.0640   -1.4129 C   0  0  0  0  0  0  0  0  0  0  0  0
   -1.3982    0.7737   -1.1497 C   0  0  0  0  0  0  0  0  0  0  0  0
   -0.7643   -0.1714   -1.8944 F   0  0  0  0  0  0  0  0  0  0  0  0
   -4.8588    2.1306   -0.8694 C   0  0  0  0  0  0  0  0  0  0  0  0
   -5.4959    3.0834   -1.1707 O   0  0  0  0  0  0  0  0  0  0  0  0
   -5.4926    0.8521   -0.6135 N   0  0  0  0  0  0  0  0  0  0  0  0
   -6.8488    0.5675   -0.5437 C   0  0  0  0  0  0  0  0  0  0  0  0
   -7.2489   -0.7763   -0.4618 C   0  0  0  0  0  0  0  0  0  0  0  0
   -8.5391   -1.1977   -0.3236 C   0  0  0  0  0  0  0  0  0  0  0  0
   -9.5441   -0.2524   -0.2578 C   0  0  0  0  0  0  0  0  0  0  0  0
   -9.1516    1.0705   -0.3389 C   0  0  0  0  0  0  0  0  0  0  0  0
   -7.8748    1.4508   -0.4754 N   0  0  0  0  0  0  0  0  0  0  0  0
   -8.8761   -2.6498   -0.2802 C   0  0  0  0  0  0  0  0  0  0  0  0
   -8.1510   -3.2526    0.7247 F   0  0  0  0  0  0  0  0  0  0  0  0
   -8.5534   -3.1811   -1.5261 F   0  0  0  0  0  0  0  0  0  0  0  0
  -10.2208   -2.8278    0.0039 F   0  0  0  0  0  0  0  0  0  0  0  0
    0.9270    0.2752    1.3403 C   0  0  0  0  0  0  0  0  0  0  0  0
    4.2081    0.3165   -0.1481 C   0  0  2  0  0  0  0  0  0  0  0  0
    5.1097    1.4913   -0.0711 C   0  0  0  0  0  0  0  0  0  0  0  0
    6.5350    0.9027    0.1246 C   0  0  0  0  0  0  0  0  0  0  0  0
    6.8599   -0.0218   -1.0336 C   0  0  1  0  0  0  0  0  0  0  0  0
    8.0149   -0.9498   -0.6782 C   0  0  0  0  0  0  0  0  0  0  0  0
    7.5372   -2.3605   -0.8095 C   0  0  0  0  0  0  0  0  0  0  0  0
    6.2654   -2.1945   -1.6010 C   0  0  0  0  0  0  0  0  0  0  0  0
    5.7547   -3.0743   -2.2935 O   0  0  0  0  0  0  0  0  0  0  0  0
    5.7799   -0.8871   -1.4141 N   0  0  0  0  0  0  0  0  0  0  0  0
    4.4318   -0.3131   -1.5301 C   0  0  0  0  0  0  0  0  0  0  0  0
   -1.8678   -0.4677    1.7293 H   0  0  0  0  0  0  0  0  0  0  0  0
   -1.6609    0.5887    3.1197 H   0  0  0  0  0  0  0  0  0  0  0  0
    2.5197   -1.8211    4.1897 H   0  0  0  0  0  0  0  0  0  0  0  0
    3.8943   -0.9806    2.3080 H   0  0  0  0  0  0  0  0  0  0  0  0
   -0.8732    2.9335    1.3566 H   0  0  0  0  0  0  0  0  0  0  0  0
   -3.2248    3.4471    0.8709 H   0  0  0  0  0  0  0  0  0  0  0  0
   -3.2568    0.5415   -2.2076 H   0  0  0  0  0  0  0  0  0  0  0  0
   -4.8369    0.0307   -0.3591 H   0  0  0  0  0  0  0  0  0  0  0  0
   -6.4882   -1.5375   -0.5199 H   0  0  0  0  0  0  0  0  0  0  0  0
  -10.5896   -0.5628   -0.1283 H   0  0  0  0  0  0  0  0  0  0  0  0
   -9.9565    1.8039   -0.2808 H   0  0  0  0  0  0  0  0  0  0  0  0
    4.6591   -0.4578    0.5524 H   0  0  0  0  0  0  0  0  0  0  0  0
    5.1464    2.0173   -1.0531 H   0  0  0  0  0  0  0  0  0  0  0  0
    4.9226    2.1773    0.7538 H   0  0  0  0  0  0  0  0  0  0  0  0
    7.2858    1.6755    0.2126 H   0  0  0  0  0  0  0  0  0  0  0  0
    6.4231    0.2415    1.0231 H   0  0  0  0  0  0  0  0  0  0  0  0
    7.1904    0.6262   -1.8810 H   0  0  0  0  0  0  0  0  0  0  0  0
    8.4086   -0.8064    0.3319 H   0  0  0  0  0  0  0  0  0  0  0  0
    8.8767   -0.8408   -1.3932 H   0  0  0  0  0  0  0  0  0  0  0  0
    8.2530   -3.0405   -1.3129 H   0  0  0  0  0  0  0  0  0  0  0  0
    7.3061   -2.7852    0.1871 H   0  0  0  0  0  0  0  0  0  0  0  0
    4.4664    0.4529   -2.3198 H   0  0  0  0  0  0  0  0  0  0  0  0
    3.7146   -1.0993   -1.7327 H   0  0  0  0  0  0  0  0  0  0  0  0
  1  2  1  0
  2  3  2  0
  3  4  1  0
  4  5  2  0
  5  6  1  0
  6  7  1  0
  7  8  2  0
  8  9  1  0
  9 10  1  0
 10 11  2  0
 11 12  1  0
 12 13  2  0
 13 14  1  0
 14 15  2  0
 15 16  1  0
 13 17  1  0
 17 18  2  0
 17 19  1  0
 19 20  1  0
 20 21  2  0
 21 22  1  0
 22 23  2  0
 23 24  1  0
 24 25  2  0
 22 26  1  0
 26 27  1  0
 26 28  1  0
 26 29  1  0
  9 30  2  0
  7 31  1  0
 31 32  1  0
 32 33  1  0
 33 34  1  0
 34 35  1  0
 35 36  1  0
 36 37  1  0
 37 38  2  0
 37 39  1  0
 39 40  1  0
 30  2  1  0
 40 31  1  0
 30  6  1  0
 39 34  1  0
 15 10  1  0
 25 20  1  0
  1 41  1  0
  1 42  1  0
  4 43  1  0
  5 44  1  0
 11 45  1  0
 12 46  1  0
 14 47  1  0
 19 48  1  0
 21 49  1  0
 23 50  1  0
 24 51  1  0
 31 52  1  1
 32 53  1  0
 32 54  1  0
 33 55  1  0
 33 56  1  0
 34 57  1  6
 35 58  1  0
 35 59  1  0
 36 60  1  0
 36 61  1  0
 40 62  1  0
 40 63  1  0
M  END
$$$$
[H]c1nc2c(nc(N([H])c3c([H])c([H])c(S(=O)(=O)C([H])([H])[H])c([H])c3[H])n2C([H])([H])C([H])([H])[H])c(C(=O)N([H])[H])c1[H]
     RDKit          3D

 42 44  0  0  0  0  0  0  0  0999 V2000
   -1.8544    0.2076    3.9419 C   0  0  0  0  0  0  0  0  0  0  0  0
   -1.9551   -1.0397    3.0890 C   0  0  0  0  0  0  0  0  0  0  0  0
   -2.0105   -0.6316    1.7028 N   0  0  0  0  0  0  0  0  0  0  0  0
   -0.9077   -0.4720    0.9297 C   0  0  0  0  0  0  0  0  0  0  0  0
    0.4307   -0.6904    1.3501 N   0  0  0  0  0  0  0  0  0  0  0  0
    1.5923   -0.5130    0.5756 C   0  0  0  0  0  0  0  0  0  0  0  0
    1.6661    0.1749   -0.6083 C   0  0  0  0  0  0  0  0  0  0  0  0
    2.8575    0.2920   -1.3457 C   0  0  0  0  0  0  0  0  0  0  0  0
    4.0207   -0.2883   -0.9028 C   0  0  0  0  0  0  0  0  0  0  0  0
    3.9583   -0.9801    0.2838 C   0  0  0  0  0  0  0  0  0  0  0  0
    2.7961   -1.0952    1.0039 C   0  0  0  0  0  0  0  0  0  0  0  0
    5.5238   -0.1591   -1.8028 S   0  0  0  0  0  0  0  0  0  0  0  0
    6.3589    1.3036   -1.2209 C   0  0  0  0  0  0  0  0  0  0  0  0
    6.3491   -1.3629   -1.4348 O   0  0  0  0  0  0  0  0  0  0  0  0
    5.3122   -0.1530   -3.2690 O   0  0  0  0  0  0  0  0  0  0  0  0
   -1.3912   -0.0959   -0.2582 N   0  0  0  0  0  0  0  0  0  0  0  0
   -2.7289   -0.0174   -0.2522 C   0  0  0  0  0  0  0  0  0  0  0  0
   -3.6546    0.3194   -1.2158 C   0  0  0  0  0  0  0  0  0  0  0  0
   -4.9869    0.2995   -0.8752 C   0  0  0  0  0  0  0  0  0  0  0  0
   -5.3891   -0.0496    0.4026 C   0  0  0  0  0  0  0  0  0  0  0  0
   -4.4495   -0.3693    1.3049 N   0  0  0  0  0  0  0  0  0  0  0  0
   -3.1272   -0.3697    1.0358 C   0  0  0  0  0  0  0  0  0  0  0  0
   -3.1843    0.6802   -2.5473 C   0  0  0  0  0  0  0  0  0  0  0  0
   -4.1257    1.0306   -3.5545 N   0  0  0  0  0  0  0  0  0  0  0  0
   -1.9647    0.6958   -2.8503 O   0  0  0  0  0  0  0  0  0  0  0  0
   -0.8167    0.3024    4.3673 H   0  0  0  0  0  0  0  0  0  0  0  0
   -2.0295    1.1156    3.3564 H   0  0  0  0  0  0  0  0  0  0  0  0
   -2.5853    0.1156    4.7607 H   0  0  0  0  0  0  0  0  0  0  0  0
   -2.8873   -1.6042    3.3323 H   0  0  0  0  0  0  0  0  0  0  0  0
   -1.1046   -1.7236    3.2222 H   0  0  0  0  0  0  0  0  0  0  0  0
    0.6053   -1.0204    2.3561 H   0  0  0  0  0  0  0  0  0  0  0  0
    0.7921    0.6575   -0.9971 H   0  0  0  0  0  0  0  0  0  0  0  0
    2.8702    0.8445   -2.2764 H   0  0  0  0  0  0  0  0  0  0  0  0
    4.8844   -1.4447    0.6412 H   0  0  0  0  0  0  0  0  0  0  0  0
    2.7786   -1.6575    1.9514 H   0  0  0  0  0  0  0  0  0  0  0  0
    5.9287    2.1986   -1.7305 H   0  0  0  0  0  0  0  0  0  0  0  0
    6.1117    1.4094   -0.1441 H   0  0  0  0  0  0  0  0  0  0  0  0
    7.4447    1.2450   -1.3292 H   0  0  0  0  0  0  0  0  0  0  0  0
   -5.7218    0.5682   -1.6446 H   0  0  0  0  0  0  0  0  0  0  0  0
   -6.4432   -0.0433    0.5968 H   0  0  0  0  0  0  0  0  0  0  0  0
   -4.0417    0.6357   -4.5083 H   0  0  0  0  0  0  0  0  0  0  0  0
   -4.9214    1.6848   -3.3786 H   0  0  0  0  0  0  0  0  0  0  0  0
  1  2  1  0
  2  3  1  0
  3  4  1  0
  4  5  1  0
  5  6  1  0
  6  7  2  0
  7  8  1  0
  8  9  2  0
  9 10  1  0
 10 11  2  0
  9 12  1  0
 12 13  1  0
 12 14  2  0
 12 15  2  0
  4 16  2  0
 16 17  1  0
 17 18  2  0
 18 19  1  0
 19 20  2  0
 20 21  1  0
 21 22  2  0
 18 23  1  0
 23 24  1  0
 23 25  2  0
 22  3  1  0
 11  6  1  0
 22 17  1  0
  1 26  1  0
  1 27  1  0
  1 28  1  0
  2 29  1  0
  2 30  1  0
  5 31  1  0
  7 32  1  0
  8 33  1  0
 10 34  1  0
 11 35  1  0
 13 36  1  0
 13 37  1  0
 13 38  1  0
 19 39  1  0
 20 40  1  0
 24 41  1  0
 24 42  1  0
M  END
$$$$
[H]ON([H])C(=O)C([H])([H])[C@]([H])(C(=O)N([H])[C@]([H])(C(=O)N([H])C([H])([H])[H])C([H])([H])c1c([H])n([H])c2c([H])c([H])c([H])c([H])c12)C([H])([H])C([H])(C([H])([H])[H])C([H])([H])[H]
     RDKit          3D

 56 57  0  0  0  0  0  0  0  0999 V2000
    2.8825    0.5675    3.6143 C   0  0  0  0  0  0  0  0  0  0  0  0
    2.4131   -0.3051    2.5628 N   0  0  0  0  0  0  0  0  0  0  0  0
    1.1376   -0.1923    1.9583 C   0  0  0  0  0  0  0  0  0  0  0  0
    0.4139    0.7542    2.4268 O   0  0  0  0  0  0  0  0  0  0  0  0
    0.5840   -1.0240    0.9000 C   0  0  2  0  0  0  0  0  0  0  0  0
    1.1395   -0.9807   -0.4649 C   0  0  0  0  0  0  0  0  0  0  0  0
    2.5448   -1.2939   -0.7006 C   0  0  0  0  0  0  0  0  0  0  0  0
    3.1273   -2.5404   -0.9265 C   0  0  0  0  0  0  0  0  0  0  0  0
    4.4505   -2.3884   -1.0547 N   0  0  0  0  0  0  0  0  0  0  0  0
    4.7831   -1.0918   -0.9255 C   0  0  0  0  0  0  0  0  0  0  0  0
    5.9829   -0.4094   -0.9913 C   0  0  0  0  0  0  0  0  0  0  0  0
    6.0295    0.9766   -0.8402 C   0  0  0  0  0  0  0  0  0  0  0  0
    4.8665    1.6925   -0.6205 C   0  0  0  0  0  0  0  0  0  0  0  0
    3.6984    0.9797   -0.5608 C   0  0  0  0  0  0  0  0  0  0  0  0
    3.6231   -0.4044   -0.7075 C   0  0  0  0  0  0  0  0  0  0  0  0
   -0.8696   -0.7858    0.7594 N   0  0  0  0  0  0  0  0  0  0  0  0
   -1.4594    0.3923    0.2927 C   0  0  0  0  0  0  0  0  0  0  0  0
   -0.7362    1.3624   -0.0376 O   0  0  0  0  0  0  0  0  0  0  0  0
   -2.9167    0.5950    0.1530 C   0  0  2  0  0  0  0  0  0  0  0  0
   -3.5776   -0.1837   -0.9215 C   0  0  0  0  0  0  0  0  0  0  0  0
   -3.5618   -1.6552   -0.8841 C   0  0  0  0  0  0  0  0  0  0  0  0
   -4.3210   -2.1288   -2.1551 C   0  0  0  0  0  0  0  0  0  0  0  0
   -4.3671   -2.2502    0.2522 C   0  0  0  0  0  0  0  0  0  0  0  0
   -3.3057    2.0319    0.0565 C   0  0  0  0  0  0  0  0  0  0  0  0
   -2.8056    2.7987   -1.0819 C   0  0  0  0  0  0  0  0  0  0  0  0
   -2.1923    2.3659   -2.0853 O   0  0  0  0  0  0  0  0  0  0  0  0
   -3.0241    4.2153   -1.0860 N   0  0  0  0  0  0  0  0  0  0  0  0
   -2.6191    5.0310   -2.0621 O   0  0  0  0  0  0  0  0  0  0  0  0
    2.9729    1.5952    3.1545 H   0  0  0  0  0  0  0  0  0  0  0  0
    3.8601    0.2491    3.9718 H   0  0  0  0  0  0  0  0  0  0  0  0
    2.1298    0.6837    4.4202 H   0  0  0  0  0  0  0  0  0  0  0  0
    3.0439   -1.0645    2.2412 H   0  0  0  0  0  0  0  0  0  0  0  0
    0.6756   -2.1046    1.2521 H   0  0  0  0  0  0  0  0  0  0  0  0
    0.5298   -1.7106   -1.0765 H   0  0  0  0  0  0  0  0  0  0  0  0
    0.9474    0.0330   -0.9146 H   0  0  0  0  0  0  0  0  0  0  0  0
    2.5862   -3.4605   -0.9850 H   0  0  0  0  0  0  0  0  0  0  0  0
    5.1688   -3.1499   -1.2329 H   0  0  0  0  0  0  0  0  0  0  0  0
    6.8973   -0.9723   -1.1639 H   0  0  0  0  0  0  0  0  0  0  0  0
    6.9472    1.5222   -0.8877 H   0  0  0  0  0  0  0  0  0  0  0  0
    4.9106    2.7658   -0.5051 H   0  0  0  0  0  0  0  0  0  0  0  0
    2.7481    1.4901   -0.3895 H   0  0  0  0  0  0  0  0  0  0  0  0
   -1.5060   -1.5607    1.0514 H   0  0  0  0  0  0  0  0  0  0  0  0
   -3.3162    0.2740    1.1866 H   0  0  0  0  0  0  0  0  0  0  0  0
   -4.6266    0.2085   -1.0486 H   0  0  0  0  0  0  0  0  0  0  0  0
   -3.0871    0.1264   -1.8973 H   0  0  0  0  0  0  0  0  0  0  0  0
   -2.5846   -2.1335   -0.9321 H   0  0  0  0  0  0  0  0  0  0  0  0
   -4.4251   -3.2295   -2.0583 H   0  0  0  0  0  0  0  0  0  0  0  0
   -5.3355   -1.6925   -2.1540 H   0  0  0  0  0  0  0  0  0  0  0  0
   -3.7115   -1.8425   -3.0258 H   0  0  0  0  0  0  0  0  0  0  0  0
   -4.7665   -3.2237   -0.0788 H   0  0  0  0  0  0  0  0  0  0  0  0
   -5.2263   -1.6145    0.5307 H   0  0  0  0  0  0  0  0  0  0  0  0
   -3.7162   -2.4784    1.1375 H   0  0  0  0  0  0  0  0  0  0  0  0
   -4.4174    2.1294    0.0985 H   0  0  0  0  0  0  0  0  0  0  0  0
   -2.9382    2.5840    0.9806 H   0  0  0  0  0  0  0  0  0  0  0  0
   -3.5298    4.6223   -0.2755 H   0  0  0  0  0  0  0  0  0  0  0  0
   -2.1514    5.8253   -1.7223 H   0  0  0  0  0  0  0  0  0  0  0  0
  1  2  1  0
  2  3  1  0
  3  4  2  0
  3  5  1  0
  5  6  1  0
  6  7  1  0
  7  8  2  0
  8  9  1  0
  9 10  1  0
 10 11  2  0
 11 12  1  0
 12 13  2  0
 13 14  1  0
 14 15  2  0
  5 16  1  0
 16 17  1  0
 17 18  2  0
 17 19  1  0
 19 20  1  0
 20 21  1  0
 21 22  1  0
 21 23  1  0
 19 24  1  0
 24 25  1  0
 25 26  2  0
 25 27  1  0
 27 28  1  0
 15  7  1  0
 15 10  1  0
  1 29  1  0
  1 30  1  0
  1 31  1  0
  2 32  1  0
  5 33  1  1
  6 34  1  0
  6 35  1  0
  8 36  1  0
  9 37  1  0
 11 38  1  0
 12 39  1  0
 13 40  1  0
 14 41  1  0
 16 42  1  0
 19 43  1  1
 20 44  1  0
 20 45  1  0
 21 46  1  0
 22 47  1  0
 22 48  1  0
 22 49  1  0
 23 50  1  0
 23 51  1  0
 23 52  1  0
 24 53  1  0
 24 54  1  0
 27 55  1  0
 28 56  1  0
M  END
$$$$
[H]c1nc(N([H])[H])c2c(-c3sc4c(OC([H])([H])[H])c([H])c(C([H])([H])[H])c([H])c4c3[H])c(C([H])([H])N3C([H])([H])C(=O)N([H])C([H])([H])C3([H])[H])c([H])n2n1
     RDKit          3D

 52 56  0  0  0  0  0  0  0  0999 V2000
   -3.9769    3.7618   -1.9022 C   0  0  0  0  0  0  0  0  0  0  0  0
   -3.2105    2.7762   -1.2887 O   0  0  0  0  0  0  0  0  0  0  0  0
   -3.4582    1.4337   -1.3069 C   0  0  0  0  0  0  0  0  0  0  0  0
   -4.5422    0.8684   -1.9622 C   0  0  0  0  0  0  0  0  0  0  0  0
   -4.6396   -0.5071   -1.8774 C   0  0  0  0  0  0  0  0  0  0  0  0
   -5.8023   -1.1178   -2.5806 C   0  0  0  0  0  0  0  0  0  0  0  0
   -3.7581   -1.2909   -1.2096 C   0  0  0  0  0  0  0  0  0  0  0  0
   -2.6523   -0.7245   -0.5400 C   0  0  0  0  0  0  0  0  0  0  0  0
   -1.7055   -1.3879    0.1577 C   0  0  0  0  0  0  0  0  0  0  0  0
   -0.7034   -0.6736    0.7466 C   0  0  0  0  0  0  0  0  0  0  0  0
   -1.1498    0.9539    0.2724 S   0  0  0  0  0  0  0  0  0  0  0  0
   -2.5471    0.6249   -0.6167 C   0  0  0  0  0  0  0  0  0  0  0  0
    0.5108   -1.0424    1.4547 C   0  0  0  0  0  0  0  0  0  0  0  0
    1.7381   -0.3920    1.2567 C   0  0  0  0  0  0  0  0  0  0  0  0
    1.9321    0.7141    0.3016 C   0  0  0  0  0  0  0  0  0  0  0  0
    3.3063    1.1922    0.2373 N   0  0  0  0  0  0  0  0  0  0  0  0
    4.2335    0.2215   -0.2331 C   0  0  0  0  0  0  0  0  0  0  0  0
    4.8092    0.5500   -1.5942 C   0  0  0  0  0  0  0  0  0  0  0  0
    5.4951    1.8316   -1.4762 N   0  0  0  0  0  0  0  0  0  0  0  0
    4.8261    2.7892   -0.6283 C   0  0  0  0  0  0  0  0  0  0  0  0
    5.4339    3.7722   -0.1835 O   0  0  0  0  0  0  0  0  0  0  0  0
    3.3900    2.4870   -0.3541 C   0  0  0  0  0  0  0  0  0  0  0  0
    2.6747   -0.9260    2.0903 C   0  0  0  0  0  0  0  0  0  0  0  0
    2.0590   -1.8887    2.8022 N   0  0  0  0  0  0  0  0  0  0  0  0
    2.5570   -2.6632    3.7500 N   0  0  0  0  0  0  0  0  0  0  0  0
    1.7761   -3.5520    4.3772 C   0  0  0  0  0  0  0  0  0  0  0  0
    0.4933   -3.6596    4.0506 N   0  0  0  0  0  0  0  0  0  0  0  0
   -0.0468   -2.8868    3.0893 C   0  0  0  0  0  0  0  0  0  0  0  0
   -1.4265   -2.9859    2.8380 N   0  0  0  0  0  0  0  0  0  0  0  0
    0.7316   -1.9688    2.4244 C   0  0  0  0  0  0  0  0  0  0  0  0
   -3.7705    3.8834   -2.9846 H   0  0  0  0  0  0  0  0  0  0  0  0
   -5.0666    3.4979   -1.8290 H   0  0  0  0  0  0  0  0  0  0  0  0
   -3.8965    4.7498   -1.3604 H   0  0  0  0  0  0  0  0  0  0  0  0
   -5.2418    1.4925   -2.4925 H   0  0  0  0  0  0  0  0  0  0  0  0
   -6.7128   -1.1234   -1.9494 H   0  0  0  0  0  0  0  0  0  0  0  0
   -5.5541   -2.1897   -2.8099 H   0  0  0  0  0  0  0  0  0  0  0  0
   -6.0220   -0.5655   -3.5169 H   0  0  0  0  0  0  0  0  0  0  0  0
   -3.9466   -2.3565   -1.2182 H   0  0  0  0  0  0  0  0  0  0  0  0
   -1.6660   -2.5085    0.2302 H   0  0  0  0  0  0  0  0  0  0  0  0
    1.5746    0.5023   -0.7162 H   0  0  0  0  0  0  0  0  0  0  0  0
    1.3492    1.6118    0.6904 H   0  0  0  0  0  0  0  0  0  0  0  0
    3.7743   -0.7797   -0.3346 H   0  0  0  0  0  0  0  0  0  0  0  0
    5.1246    0.2139    0.4598 H   0  0  0  0  0  0  0  0  0  0  0  0
    3.9685    0.6467   -2.2966 H   0  0  0  0  0  0  0  0  0  0  0  0
    5.5061   -0.2646   -1.8521 H   0  0  0  0  0  0  0  0  0  0  0  0
    6.3882    2.0570   -1.9522 H   0  0  0  0  0  0  0  0  0  0  0  0
    2.9371    3.2221    0.3389 H   0  0  0  0  0  0  0  0  0  0  0  0
    2.8267    2.5048   -1.3201 H   0  0  0  0  0  0  0  0  0  0  0  0
    3.7151   -0.6495    2.1885 H   0  0  0  0  0  0  0  0  0  0  0  0
    2.2290   -4.1766    5.1572 H   0  0  0  0  0  0  0  0  0  0  0  0
   -2.0786   -2.2688    3.1582 H   0  0  0  0  0  0  0  0  0  0  0  0
   -1.7855   -3.8091    2.3143 H   0  0  0  0  0  0  0  0  0  0  0  0
  1  2  1  0
  2  3  1  0
  3  4  2  0
  4  5  1  0
  5  6  1  0
  5  7  2  0
  7  8  1  0
  8  9  1  0
  9 10  2  0
 10 11  1  0
 11 12  1  0
 10 13  1  0
 13 14  1  0
 14 15  1  0
 15 16  1  0
 16 17  1  0
 17 18  1  0
 18 19  1  0
 19 20  1  0
 20 21  2  0
 20 22  1  0
 14 23  2  0
 23 24  1  0
 24 25  1  0
 25 26  2  0
 26 27  1  0
 27 28  2  0
 28 29  1  0
 28 30  1  0
 12  3  1  0
 30 13  2  0
 12  8  2  0
 22 16  1  0
 30 24  1  0
  1 31  1  0
  1 32  1  0
  1 33  1  0
  4 34  1  0
  6 35  1  0
  6 36  1  0
  6 37  1  0
  7 38  1  0
  9 39  1  0
 15 40  1  0
 15 41  1  0
 17 42  1  0
 17 43  1  0
 18 44  1  0
 18 45  1  0
 19 46  1  0
 22 47  1  0
 22 48  1  0
 23 49  1  0
 26 50  1  0
 29 51  1  0
 29 52  1  0
M  END
$$$$
[H]O[C@]1([H])[C@@]([H])(OP(=O)(O[H])O[H])O[C@]([H])(C([H])([H])OP(=O)(O[H])O[H])[C@@]([H])(O[H])[C@@]1([H])O[H]
     RDKit          3D

 34 34  0  0  0  0  0  0  0  0999 V2000
   -0.9135   -2.1761   -0.9567 O   0  0  0  0  0  0  0  0  0  0  0  0
   -0.5903   -1.3954    0.1633 C   0  0  2  0  0  0  0  0  0  0  0  0
   -0.3255    0.0149   -0.3036 C   0  0  1  0  0  0  0  0  0  0  0  0
   -1.5976    0.8497   -0.2877 C   0  0  0  0  0  0  0  0  0  0  0  0
   -2.6558    0.0430   -0.6614 O   0  0  0  0  0  0  0  0  0  0  0  0
   -4.1545    0.7100   -0.2691 P   0  0  0  0  0  0  0  0  0  0  0  0
   -4.0288    1.4910    1.2337 O   0  0  0  0  0  0  0  0  0  0  0  0
   -5.2441   -0.5898   -0.1458 O   0  0  0  0  0  0  0  0  0  0  0  0
   -4.5967    1.7032   -1.3077 O   0  0  0  0  0  0  0  0  0  0  0  0
    0.5887    0.6433    0.5532 O   0  0  0  0  0  0  0  0  0  0  0  0
    1.8644    0.1969    0.1869 C   0  0  2  0  0  0  0  0  0  0  0  0
    2.1845    0.8161   -1.0117 O   0  0  0  0  0  0  0  0  0  0  0  0
    3.0555    2.2513   -0.7653 P   0  0  0  0  0  0  0  0  0  0  0  0
    4.6018    1.9162   -0.1433 O   0  0  0  0  0  0  0  0  0  0  0  0
    2.2012    3.2161    0.3404 O   0  0  0  0  0  0  0  0  0  0  0  0
    3.1829    2.9496   -2.0935 O   0  0  0  0  0  0  0  0  0  0  0  0
    1.8260   -1.3010   -0.0890 C   0  0  1  0  0  0  0  0  0  0  0  0
    3.0675   -1.8684    0.2213 O   0  0  0  0  0  0  0  0  0  0  0  0
    0.7180   -1.9390    0.7264 C   0  0  2  0  0  0  0  0  0  0  0  0
    0.8094   -3.3141    0.5783 O   0  0  0  0  0  0  0  0  0  0  0  0
   -0.5004   -1.8453   -1.7831 H   0  0  0  0  0  0  0  0  0  0  0  0
   -1.4093   -1.4507    0.9035 H   0  0  0  0  0  0  0  0  0  0  0  0
    0.0783   -0.0279   -1.3445 H   0  0  0  0  0  0  0  0  0  0  0  0
   -1.7409    1.3276    0.6998 H   0  0  0  0  0  0  0  0  0  0  0  0
   -1.4732    1.6265   -1.0643 H   0  0  0  0  0  0  0  0  0  0  0  0
   -4.2887    0.8964    1.9803 H   0  0  0  0  0  0  0  0  0  0  0  0
   -5.1175   -0.9420    0.7826 H   0  0  0  0  0  0  0  0  0  0  0  0
    2.5790    0.4221    0.9985 H   0  0  0  0  0  0  0  0  0  0  0  0
    4.5288    1.1635    0.5099 H   0  0  0  0  0  0  0  0  0  0  0  0
    1.2331    3.0877    0.1702 H   0  0  0  0  0  0  0  0  0  0  0  0
    1.5679   -1.4721   -1.1612 H   0  0  0  0  0  0  0  0  0  0  0  0
    3.6868   -1.5683   -0.4972 H   0  0  0  0  0  0  0  0  0  0  0  0
    0.7889   -1.6374    1.7844 H   0  0  0  0  0  0  0  0  0  0  0  0
    0.0741   -3.7978    1.0178 H   0  0  0  0  0  0  0  0  0  0  0  0
  1  2  1  0
  2  3  1  0
  3  4  1  0
  4  5  1  0
  5  6  1  0
  6  7  1  0
  6  8  1  0
  6  9  2  0
  3 10  1  0
 10 11  1  0
 11 12  1  0
 12 13  1  0
 13 14  1  0
 13 15  1  0
 13 16  2  0
 11 17  1  0
 17 18  1  0
 17 19  1  0
 19 20  1  0
 19  2  1  0
  1 21  1  0
  2 22  1  1
  3 23  1  6
  4 24  1  0
  4 25  1  0
  7 26  1  0
  8 27  1  0
 11 28  1  1
 14 29  1  0
 15 30  1  0
 17 31  1  6
 18 32  1  0
 19 33  1  1
 20 34  1  0
M  END
$$$$
[H]C#C[C@@]1(O[H])C([H])([H])C([H])([H])[C@]2([H])[C@]1(C([H])([H])[H])C([H])([H])C([H])([H])[C@]1([H])[C@]3(C([H])([H])[H])C(=C([H])C([H])([H])[C@@]21[H])C([H])([H])[C@@]([H])(O[H])C([H])([H])C3([H])[H]
     RDKit          3D

 53 56  0  0  0  0  0  0  0  0999 V2000
   -2.3262    0.3635    1.5713 C   0  0  0  0  0  0  0  0  0  0  0  0
   -2.3490   -0.1799    0.1540 C   0  0  2  0  0  0  0  0  0  0  0  0
   -1.6686   -1.4758    0.0478 C   0  0  0  0  0  0  0  0  0  0  0  0
   -0.4588   -1.5495   -0.8004 C   0  0  0  0  0  0  0  0  0  0  0  0
    0.4206   -0.3652   -0.8352 C   0  0  1  0  0  0  0  0  0  0  0  0
   -0.2619    0.8838   -0.2852 C   0  0  1  0  0  0  0  0  0  0  0  0
    0.4994    2.0975   -0.6497 C   0  0  0  0  0  0  0  0  0  0  0  0
    1.8885    1.9237   -0.1174 C   0  0  0  0  0  0  0  0  0  0  0  0
    2.4498    0.7381    0.0710 C   0  0  0  0  0  0  0  0  0  0  0  0
    3.8363    0.7259    0.6061 C   0  0  0  0  0  0  0  0  0  0  0  0
    4.6887   -0.1247   -0.3182 C   0  0  1  0  0  0  0  0  0  0  0  0
    5.1251   -1.2979    0.3182 O   0  0  0  0  0  0  0  0  0  0  0  0
    3.9115   -0.5309   -1.5342 C   0  0  0  0  0  0  0  0  0  0  0  0
    2.6722   -1.3020   -1.1939 C   0  0  0  0  0  0  0  0  0  0  0  0
    1.7819   -0.5615   -0.2178 C   0  0  2  0  0  0  0  0  0  0  0  0
    1.7061   -1.4248    1.0382 C   0  0  0  0  0  0  0  0  0  0  0  0
   -1.6442    0.7925   -0.8068 C   0  0  2  0  0  0  0  0  0  0  0  0
   -2.4948    1.9742   -0.7521 C   0  0  0  0  0  0  0  0  0  0  0  0
   -3.8913    1.4281   -0.5808 C   0  0  0  0  0  0  0  0  0  0  0  0
   -3.7300   -0.0847   -0.3706 C   0  0  1  0  0  0  0  0  0  0  0  0
   -3.8037   -0.7482   -1.5941 O   0  0  0  0  0  0  0  0  0  0  0  0
   -4.7477   -0.5873    0.5317 C   0  0  0  0  0  0  0  0  0  0  0  0
   -5.5893   -1.0174    1.2739 C   0  0  0  0  0  0  0  0  0  0  0  0
   -1.6615   -0.2622    2.2253 H   0  0  0  0  0  0  0  0  0  0  0  0
   -2.0555    1.4215    1.6262 H   0  0  0  0  0  0  0  0  0  0  0  0
   -3.3425    0.2690    2.0248 H   0  0  0  0  0  0  0  0  0  0  0  0
   -1.4302   -1.8371    1.0896 H   0  0  0  0  0  0  0  0  0  0  0  0
   -2.4172   -2.2363   -0.3236 H   0  0  0  0  0  0  0  0  0  0  0  0
   -0.7925   -1.8583   -1.8367 H   0  0  0  0  0  0  0  0  0  0  0  0
    0.1408   -2.4434   -0.4535 H   0  0  0  0  0  0  0  0  0  0  0  0
    0.6176   -0.1062   -1.9198 H   0  0  0  0  0  0  0  0  0  0  0  0
   -0.2114    0.7690    0.8338 H   0  0  0  0  0  0  0  0  0  0  0  0
    0.6015    2.1903   -1.7489 H   0  0  0  0  0  0  0  0  0  0  0  0
    0.0177    2.9803   -0.1916 H   0  0  0  0  0  0  0  0  0  0  0  0
    2.4388    2.8236    0.1167 H   0  0  0  0  0  0  0  0  0  0  0  0
    4.2678    1.7467    0.6543 H   0  0  0  0  0  0  0  0  0  0  0  0
    3.8848    0.3338    1.6413 H   0  0  0  0  0  0  0  0  0  0  0  0
    5.5780    0.4538   -0.6381 H   0  0  0  0  0  0  0  0  0  0  0  0
    6.0837   -1.4712    0.0642 H   0  0  0  0  0  0  0  0  0  0  0  0
    3.7069    0.3353   -2.2136 H   0  0  0  0  0  0  0  0  0  0  0  0
    4.5671   -1.2114   -2.1281 H   0  0  0  0  0  0  0  0  0  0  0  0
    2.1198   -1.4621   -2.1636 H   0  0  0  0  0  0  0  0  0  0  0  0
    2.9857   -2.2952   -0.8220 H   0  0  0  0  0  0  0  0  0  0  0  0
    0.8107   -1.1844    1.6388 H   0  0  0  0  0  0  0  0  0  0  0  0
    1.7789   -2.4962    0.7586 H   0  0  0  0  0  0  0  0  0  0  0  0
    2.5784   -1.2293    1.7017 H   0  0  0  0  0  0  0  0  0  0  0  0
   -1.7179    0.3069   -1.8054 H   0  0  0  0  0  0  0  0  0  0  0  0
   -2.4598    2.5011   -1.7506 H   0  0  0  0  0  0  0  0  0  0  0  0
   -2.2373    2.7462   -0.0098 H   0  0  0  0  0  0  0  0  0  0  0  0
   -4.4798    1.5275   -1.5161 H   0  0  0  0  0  0  0  0  0  0  0  0
   -4.4376    1.8948    0.2546 H   0  0  0  0  0  0  0  0  0  0  0  0
   -4.6099   -0.4685   -2.1216 H   0  0  0  0  0  0  0  0  0  0  0  0
   -6.3398   -1.4158    1.9277 H   0  0  0  0  0  0  0  0  0  0  0  0
  2  1  1  1
  2  3  1  0
  3  4  1  0
  4  5  1  0
  5  6  1  0
  6  7  1  0
  7  8  1  0
  8  9  2  0
  9 10  1  0
 10 11  1  0
 11 12  1  0
 11 13  1  0
 13 14  1  0
 14 15  1  0
 15 16  1  1
  6 17  1  0
 17 18  1  0
 18 19  1  0
 19 20  1  0
 20 21  1  0
 20 22  1  1
 22 23  3  0
 17  2  1  0
 20  2  1  0
 15  5  1  0
 15  9  1  0
  1 24  1  0
  1 25  1  0
  1 26  1  0
  3 27  1  0
  3 28  1  0
  4 29  1  0
  4 30  1  0
  5 31  1  6
  6 32  1  1
  7 33  1  0
  7 34  1  0
  8 35  1  0
 10 36  1  0
 10 37  1  0
 11 38  1  6
 12 39  1  0
 13 40  1  0
 13 41  1  0
 14 42  1  0
 14 43  1  0
 16 44  1  0
 16 45  1  0
 16 46  1  0
 17 47  1  6
 18 48  1  0
 18 49  1  0
 19 50  1  0
 19 51  1  0
 21 52  1  0
 23 53  1  0
M  END
$$$$
[H]N=C(c1c([H])c([H])c([H])c(C([H])([H])[C@@]([H])(C(=O)N2C([H])([H])C([H])([H])C([H])(C([H])([H])C([H])([H])N=C(N([H])[H])N([H])[H])C([H])([H])C2([H])[H])N([H])S(=O)(=O)c2c([H])c([H])c3c([H])c([H])c([H])c([H])c3c2[H])c1[H])N([H])[H]
     RDKit          3D

 74 77  0  0  0  0  0  0  0  0999 V2000
    8.6911   -2.1425    2.4307 N   0  0  0  0  0  0  0  0  0  0  0  0
    7.9967   -1.9835    1.2097 C   0  0  0  0  0  0  0  0  0  0  0  0
    8.7402   -2.1703    0.0140 N   0  0  0  0  0  0  0  0  0  0  0  0
    6.7468   -1.6834    1.0924 N   0  0  0  0  0  0  0  0  0  0  0  0
    5.8484   -1.4579    2.2061 C   0  0  0  0  0  0  0  0  0  0  0  0
    4.9931   -0.2439    2.0912 C   0  0  0  0  0  0  0  0  0  0  0  0
    4.0916   -0.1385    0.9370 C   0  0  0  0  0  0  0  0  0  0  0  0
    4.7436   -0.1553   -0.4279 C   0  0  0  0  0  0  0  0  0  0  0  0
    3.7817    0.5179   -1.3791 C   0  0  0  0  0  0  0  0  0  0  0  0
    2.3900    0.3030   -0.9612 N   0  0  0  0  0  0  0  0  0  0  0  0
    1.9816   -0.8229   -0.1874 C   0  0  0  0  0  0  0  0  0  0  0  0
    2.9475   -1.1009    0.9677 C   0  0  0  0  0  0  0  0  0  0  0  0
    1.4803    1.3017   -1.3428 C   0  0  0  0  0  0  0  0  0  0  0  0
    1.8839    2.3422   -1.9374 O   0  0  0  0  0  0  0  0  0  0  0  0
   -0.0381    1.2010   -1.0695 C   0  0  2  0  0  0  0  0  0  0  0  0
   -0.4643    0.1554   -2.0931 C   0  0  0  0  0  0  0  0  0  0  0  0
   -1.8592   -0.2863   -2.0090 C   0  0  0  0  0  0  0  0  0  0  0  0
   -2.8895    0.1616   -2.7506 C   0  0  0  0  0  0  0  0  0  0  0  0
   -4.1775   -0.3397   -2.5652 C   0  0  0  0  0  0  0  0  0  0  0  0
   -4.4049   -1.2977   -1.6236 C   0  0  0  0  0  0  0  0  0  0  0  0
   -3.3613   -1.7920   -0.8279 C   0  0  0  0  0  0  0  0  0  0  0  0
   -2.1152   -1.2763   -1.0382 C   0  0  0  0  0  0  0  0  0  0  0  0
   -3.6007   -2.8013    0.2036 C   0  0  0  0  0  0  0  0  0  0  0  0
   -4.9151   -3.2564    0.4541 N   0  0  0  0  0  0  0  0  0  0  0  0
   -2.6592   -3.2815    0.8972 N   0  0  0  0  0  0  0  0  0  0  0  0
   -0.4599    2.5214   -1.4494 N   0  0  0  0  0  0  0  0  0  0  0  0
   -1.3790    3.4704   -0.4282 S   0  0  0  0  0  0  0  0  0  0  0  0
   -0.6813    3.6525    0.9273 O   0  0  0  0  0  0  0  0  0  0  0  0
   -1.4496    4.8753   -1.0051 O   0  0  0  0  0  0  0  0  0  0  0  0
   -2.9845    2.8898   -0.1536 C   0  0  0  0  0  0  0  0  0  0  0  0
   -3.9935    3.4659   -0.9469 C   0  0  0  0  0  0  0  0  0  0  0  0
   -5.3027    3.1200   -0.8477 C   0  0  0  0  0  0  0  0  0  0  0  0
   -5.7300    2.1541    0.0601 C   0  0  0  0  0  0  0  0  0  0  0  0
   -7.0643    1.8099    0.1480 C   0  0  0  0  0  0  0  0  0  0  0  0
   -7.4945    0.8616    1.0377 C   0  0  0  0  0  0  0  0  0  0  0  0
   -6.5225    0.2700    1.8326 C   0  0  0  0  0  0  0  0  0  0  0  0
   -5.1798    0.6244    1.7350 C   0  0  0  0  0  0  0  0  0  0  0  0
   -4.7391    1.5753    0.8503 C   0  0  0  0  0  0  0  0  0  0  0  0
   -3.3926    1.9397    0.7396 C   0  0  0  0  0  0  0  0  0  0  0  0
    9.3639   -2.9157    2.6176 H   0  0  0  0  0  0  0  0  0  0  0  0
    8.5697   -1.4679    3.2370 H   0  0  0  0  0  0  0  0  0  0  0  0
    8.5477   -3.0170   -0.5553 H   0  0  0  0  0  0  0  0  0  0  0  0
    9.4690   -1.5036   -0.3103 H   0  0  0  0  0  0  0  0  0  0  0  0
    5.3282   -2.3722    2.5250 H   0  0  0  0  0  0  0  0  0  0  0  0
    6.5601   -1.2452    3.0786 H   0  0  0  0  0  0  0  0  0  0  0  0
    5.6887    0.6480    2.1706 H   0  0  0  0  0  0  0  0  0  0  0  0
    4.3783   -0.1599    3.0443 H   0  0  0  0  0  0  0  0  0  0  0  0
    3.6056    0.9013    0.9963 H   0  0  0  0  0  0  0  0  0  0  0  0
    4.9027   -1.1853   -0.7828 H   0  0  0  0  0  0  0  0  0  0  0  0
    5.6797    0.4415   -0.3605 H   0  0  0  0  0  0  0  0  0  0  0  0
    3.9759    1.6005   -1.4690 H   0  0  0  0  0  0  0  0  0  0  0  0
    3.9222    0.0797   -2.3909 H   0  0  0  0  0  0  0  0  0  0  0  0
    0.9881   -0.6173    0.2692 H   0  0  0  0  0  0  0  0  0  0  0  0
    1.9118   -1.7053   -0.8499 H   0  0  0  0  0  0  0  0  0  0  0  0
    2.4391   -1.0454    1.9443 H   0  0  0  0  0  0  0  0  0  0  0  0
    3.3440   -2.1278    0.7991 H   0  0  0  0  0  0  0  0  0  0  0  0
   -0.2785    0.8774   -0.0818 H   0  0  0  0  0  0  0  0  0  0  0  0
   -0.2609    0.6005   -3.1232 H   0  0  0  0  0  0  0  0  0  0  0  0
    0.1730   -0.7435   -2.0702 H   0  0  0  0  0  0  0  0  0  0  0  0
   -2.7688    0.9300   -3.5225 H   0  0  0  0  0  0  0  0  0  0  0  0
   -5.0275    0.0161   -3.1567 H   0  0  0  0  0  0  0  0  0  0  0  0
   -5.4091   -1.7097   -1.4445 H   0  0  0  0  0  0  0  0  0  0  0  0
   -1.2610   -1.6212   -0.4517 H   0  0  0  0  0  0  0  0  0  0  0  0
   -5.6149   -2.8236    1.0836 H   0  0  0  0  0  0  0  0  0  0  0  0
   -5.2267   -4.1308   -0.0481 H   0  0  0  0  0  0  0  0  0  0  0  0
   -1.6853   -3.0010    0.7853 H   0  0  0  0  0  0  0  0  0  0  0  0
   -0.7835    2.5469   -2.4588 H   0  0  0  0  0  0  0  0  0  0  0  0
   -3.6600    4.2215   -1.6590 H   0  0  0  0  0  0  0  0  0  0  0  0
   -6.0867    3.5822   -1.4697 H   0  0  0  0  0  0  0  0  0  0  0  0
   -7.7786    2.3030   -0.5040 H   0  0  0  0  0  0  0  0  0  0  0  0
   -8.5407    0.5569    1.1315 H   0  0  0  0  0  0  0  0  0  0  0  0
   -6.8439   -0.4948    2.5453 H   0  0  0  0  0  0  0  0  0  0  0  0
   -4.4334    0.1363    2.3838 H   0  0  0  0  0  0  0  0  0  0  0  0
   -2.6465    1.4628    1.3704 H   0  0  0  0  0  0  0  0  0  0  0  0
  1  2  1  0
  2  3  1  0
  2  4  2  3
  4  5  1  0
  5  6  1  0
  6  7  1  0
  7  8  1  0
  8  9  1  0
  9 10  1  0
 10 11  1  0
 11 12  1  0
 10 13  1  0
 13 14  2  0
 13 15  1  0
 15 16  1  0
 16 17  1  0
 17 18  2  0
 18 19  1  0
 19 20  2  0
 20 21  1  0
 21 22  2  0
 21 23  1  0
 23 24  1  0
 23 25  2  3
 15 26  1  0
 26 27  1  0
 27 28  2  0
 27 29  2  0
 27 30  1  0
 30 31  2  0
 31 32  1  0
 32 33  2  0
 33 34  1  0
 34 35  2  0
 35 36  1  0
 36 37  2  0
 37 38  1  0
 38 39  2  0
 12  7  1  0
 22 17  1  0
 39 30  1  0
 38 33  1  0
  1 40  1  0
  1 41  1  0
  3 42  1  0
  3 43  1  0
  5 44  1  0
  5 45  1  0
  6 46  1  0
  6 47  1  0
  7 48  1  0
  8 49  1  0
  8 50  1  0
  9 51  1  0
  9 52  1  0
 11 53  1  0
 11 54  1  0
 12 55  1  0
 12 56  1  0
 15 57  1  1
 16 58  1  0
 16 59  1  0
 18 60  1  0
 19 61  1  0
 20 62  1  0
 22 63  1  0
 24 64  1  0
 24 65  1  0
 25 66  1  0
 26 67  1  0
 31 68  1  0
 32 69  1  0
 34 70  1  0
 35 71  1  0
 36 72  1  0
 37 73  1  0
 39 74  1  0
M  END
$$$$
[H]OC(=O)[C@]([H])(N([H])[H])C([H])([H])c1c(-c2nnn(C([H])([H])[H])n2)on([H])c1=O
     RDKit          3D

 28 29  0  0  0  0  0  0  0  0999 V2000
    5.3862    0.7445   -0.0422 C   0  0  0  0  0  0  0  0  0  0  0  0
    3.9429    0.6269   -0.0421 N   0  0  0  0  0  0  0  0  0  0  0  0
    3.1233    1.6555    0.0729 N   0  0  0  0  0  0  0  0  0  0  0  0
    1.8677    1.1805    0.0336 N   0  0  0  0  0  0  0  0  0  0  0  0
    1.9003   -0.1527   -0.1067 C   0  0  0  0  0  0  0  0  0  0  0  0
    3.1982   -0.4786   -0.1519 N   0  0  0  0  0  0  0  0  0  0  0  0
    0.7999   -1.1126   -0.1979 C   0  0  0  0  0  0  0  0  0  0  0  0
    0.8472   -2.4035   -0.3335 O   0  0  0  0  0  0  0  0  0  0  0  0
   -0.3164   -2.9520   -0.3810 N   0  0  0  0  0  0  0  0  0  0  0  0
   -1.2653   -1.9752   -0.2706 C   0  0  0  0  0  0  0  0  0  0  0  0
   -2.5062   -2.1819   -0.2815 O   0  0  0  0  0  0  0  0  0  0  0  0
   -0.5763   -0.7926   -0.1527 C   0  0  0  0  0  0  0  0  0  0  0  0
   -1.0332    0.5815   -0.0039 C   0  0  0  0  0  0  0  0  0  0  0  0
   -2.4734    0.8816    0.0072 C   0  0  1  0  0  0  0  0  0  0  0  0
   -3.2280    0.5192   -1.1611 N   0  0  0  0  0  0  0  0  0  0  0  0
   -3.1138    0.5061    1.2907 C   0  0  0  0  0  0  0  0  0  0  0  0
   -4.3904   -0.0085    1.3976 O   0  0  0  0  0  0  0  0  0  0  0  0
   -2.4500    0.6705    2.3413 O   0  0  0  0  0  0  0  0  0  0  0  0
    5.6973    1.7632   -0.2960 H   0  0  0  0  0  0  0  0  0  0  0  0
    5.7813    0.0714   -0.8558 H   0  0  0  0  0  0  0  0  0  0  0  0
    5.8344    0.3958    0.9245 H   0  0  0  0  0  0  0  0  0  0  0  0
   -0.5524   -3.9611   -0.4848 H   0  0  0  0  0  0  0  0  0  0  0  0
   -0.5802    1.0860    0.8952 H   0  0  0  0  0  0  0  0  0  0  0  0
   -0.5905    1.1864   -0.8616 H   0  0  0  0  0  0  0  0  0  0  0  0
   -2.5885    2.0410    0.0200 H   0  0  0  0  0  0  0  0  0  0  0  0
   -3.2880    1.2707   -1.8827 H   0  0  0  0  0  0  0  0  0  0  0  0
   -4.2013    0.2944   -0.8565 H   0  0  0  0  0  0  0  0  0  0  0  0
   -5.2249    0.5439    1.2506 H   0  0  0  0  0  0  0  0  0  0  0  0
  1  2  1  0
  2  3  1  0
  3  4  2  0
  4  5  1  0
  5  6  2  0
  5  7  1  0
  7  8  1  0
  8  9  1  0
  9 10  1  0
 10 11  2  0
 10 12  1  0
 12 13  1  0
 13 14  1  0
 14 15  1  0
 14 16  1  0
 16 17  1  0
 16 18  2  0
  6  2  1  0
 12  7  2  0
  1 19  1  0
  1 20  1  0
  1 21  1  0
  9 22  1  0
 13 23  1  0
 13 24  1  0
 14 25  1  1
 15 26  1  0
 15 27  1  0
 17 28  1  0
M  END
$$$$
[H]c1nc(N([H])c2c([H])c([H])c(N3C([H])([H])C([H])([H])C([H])(N4C([H])([H])C([H])([H])C([H])([H])C4([H])[H])C([H])([H])C3([H])[H])c([H])c2OC([H])([H])[H])nc(N([H])c2c([H])c([H])c([H])c([H])c2S(=O)(=O)C([H])(C([H])([H])[H])C([H])([H])[H])c1Cl
     RDKit          3D

 77 81  0  0  0  0  0  0  0  0999 V2000
    0.8444    1.1735   -3.4882 C   0  0  0  0  0  0  0  0  0  0  0  0
    0.1439    0.9247   -2.3025 O   0  0  0  0  0  0  0  0  0  0  0  0
    0.7822    0.3868   -1.2119 C   0  0  0  0  0  0  0  0  0  0  0  0
    2.1247    0.0964   -1.3057 C   0  0  0  0  0  0  0  0  0  0  0  0
    2.8153   -0.4444   -0.2422 C   0  0  0  0  0  0  0  0  0  0  0  0
    2.1684   -0.7054    0.9431 C   0  0  0  0  0  0  0  0  0  0  0  0
    0.8041   -0.4045    1.0222 C   0  0  0  0  0  0  0  0  0  0  0  0
    0.0946    0.1289   -0.0087 C   0  0  0  0  0  0  0  0  0  0  0  0
   -1.2782    0.4436    0.0285 N   0  0  0  0  0  0  0  0  0  0  0  0
   -2.2158    0.2947    1.0523 C   0  0  0  0  0  0  0  0  0  0  0  0
   -1.9079   -0.2100    2.2386 N   0  0  0  0  0  0  0  0  0  0  0  0
   -2.7961   -0.3635    3.2240 C   0  0  0  0  0  0  0  0  0  0  0  0
   -4.0813    0.0263    2.9742 C   0  0  0  0  0  0  0  0  0  0  0  0
   -5.2951   -0.1412    4.2182 Cl  0  0  0  0  0  0  0  0  0  0  0  0
   -4.4529    0.5671    1.7291 C   0  0  0  0  0  0  0  0  0  0  0  0
   -5.7836    0.9344    1.4634 N   0  0  0  0  0  0  0  0  0  0  0  0
   -6.3139    1.5195    0.2955 C   0  0  0  0  0  0  0  0  0  0  0  0
   -5.5606    2.1541   -0.6571 C   0  0  0  0  0  0  0  0  0  0  0  0
   -6.0806    2.8280   -1.7613 C   0  0  0  0  0  0  0  0  0  0  0  0
   -7.4338    2.8623   -1.9097 C   0  0  0  0  0  0  0  0  0  0  0  0
   -8.2187    2.2364   -0.9751 C   0  0  0  0  0  0  0  0  0  0  0  0
   -7.6979    1.5567    0.1348 C   0  0  0  0  0  0  0  0  0  0  0  0
   -8.8110    0.7276    1.1504 S   0  0  0  0  0  0  0  0  0  0  0  0
   -8.7176    1.1212    2.6121 O   0  0  0  0  0  0  0  0  0  0  0  0
  -10.2307    1.2112    0.7746 O   0  0  0  0  0  0  0  0  0  0  0  0
   -8.8787   -1.0165    0.9527 C   0  0  0  0  0  0  0  0  0  0  0  0
   -7.6434   -1.7952    1.1622 C   0  0  0  0  0  0  0  0  0  0  0  0
   -9.4496   -1.2951   -0.4370 C   0  0  0  0  0  0  0  0  0  0  0  0
   -3.4913    0.6665    0.8456 N   0  0  0  0  0  0  0  0  0  0  0  0
    4.1960   -0.7607   -0.3178 N   0  0  0  0  0  0  0  0  0  0  0  0
    4.9336   -1.1733    0.8819 C   0  0  0  0  0  0  0  0  0  0  0  0
    6.4199   -1.1596    0.6163 C   0  0  0  0  0  0  0  0  0  0  0  0
    6.8115    0.1552   -0.0512 C   0  0  0  0  0  0  0  0  0  0  0  0
    6.0206    0.3973   -1.2880 C   0  0  0  0  0  0  0  0  0  0  0  0
    4.9953   -0.7223   -1.5248 C   0  0  0  0  0  0  0  0  0  0  0  0
    8.2232    0.2736   -0.2312 N   0  0  0  0  0  0  0  0  0  0  0  0
    8.8279   -0.6885   -1.0738 C   0  0  0  0  0  0  0  0  0  0  0  0
    9.5633   -1.6898   -0.2068 C   0  0  0  0  0  0  0  0  0  0  0  0
    9.6882   -0.9817    1.1154 C   0  0  0  0  0  0  0  0  0  0  0  0
    8.9705    0.3394    0.9746 C   0  0  0  0  0  0  0  0  0  0  0  0
    1.2786    0.2534   -3.9436 H   0  0  0  0  0  0  0  0  0  0  0  0
    0.2521    1.7597   -4.2252 H   0  0  0  0  0  0  0  0  0  0  0  0
    1.7405    1.8297   -3.2721 H   0  0  0  0  0  0  0  0  0  0  0  0
    2.6405    0.3088   -2.2572 H   0  0  0  0  0  0  0  0  0  0  0  0
    2.7020   -1.1359    1.8005 H   0  0  0  0  0  0  0  0  0  0  0  0
    0.3661   -0.6318    1.9705 H   0  0  0  0  0  0  0  0  0  0  0  0
   -1.7003    0.8770   -0.8818 H   0  0  0  0  0  0  0  0  0  0  0  0
   -2.5090   -0.7756    4.1686 H   0  0  0  0  0  0  0  0  0  0  0  0
   -6.4448    0.7483    2.2946 H   0  0  0  0  0  0  0  0  0  0  0  0
   -4.4875    2.1799   -0.5950 H   0  0  0  0  0  0  0  0  0  0  0  0
   -5.4582    3.3165   -2.4921 H   0  0  0  0  0  0  0  0  0  0  0  0
   -7.9369    3.3599   -2.7309 H   0  0  0  0  0  0  0  0  0  0  0  0
   -9.3145    2.2697   -1.1049 H   0  0  0  0  0  0  0  0  0  0  0  0
   -9.6419   -1.3897    1.6818 H   0  0  0  0  0  0  0  0  0  0  0  0
   -6.8736   -1.6188    0.3769 H   0  0  0  0  0  0  0  0  0  0  0  0
   -7.8590   -2.9107    1.0478 H   0  0  0  0  0  0  0  0  0  0  0  0
   -7.1554   -1.6284    2.1419 H   0  0  0  0  0  0  0  0  0  0  0  0
   -8.6222   -1.3689   -1.1571 H   0  0  0  0  0  0  0  0  0  0  0  0
  -10.1824   -0.5193   -0.6655 H   0  0  0  0  0  0  0  0  0  0  0  0
   -9.9573   -2.2694   -0.3724 H   0  0  0  0  0  0  0  0  0  0  0  0
    4.6355   -2.2205    1.0843 H   0  0  0  0  0  0  0  0  0  0  0  0
    4.6564   -0.5745    1.7660 H   0  0  0  0  0  0  0  0  0  0  0  0
    6.9138   -1.2598    1.6106 H   0  0  0  0  0  0  0  0  0  0  0  0
    6.7068   -2.0371    0.0389 H   0  0  0  0  0  0  0  0  0  0  0  0
    6.5190    0.9496    0.6967 H   0  0  0  0  0  0  0  0  0  0  0  0
    5.4138    1.3290   -1.2316 H   0  0  0  0  0  0  0  0  0  0  0  0
    6.6594    0.5251   -2.2015 H   0  0  0  0  0  0  0  0  0  0  0  0
    5.5071   -1.7091   -1.5693 H   0  0  0  0  0  0  0  0  0  0  0  0
    4.4546   -0.5000   -2.4387 H   0  0  0  0  0  0  0  0  0  0  0  0
    9.5960   -0.1824   -1.6990 H   0  0  0  0  0  0  0  0  0  0  0  0
    8.1431   -1.1934   -1.7799 H   0  0  0  0  0  0  0  0  0  0  0  0
    9.0162   -2.6556   -0.1333 H   0  0  0  0  0  0  0  0  0  0  0  0
   10.5501   -1.9363   -0.6537 H   0  0  0  0  0  0  0  0  0  0  0  0
    9.3099   -1.5809    1.9603 H   0  0  0  0  0  0  0  0  0  0  0  0
   10.7892   -0.8438    1.3002 H   0  0  0  0  0  0  0  0  0  0  0  0
    9.7787    1.1139    0.8224 H   0  0  0  0  0  0  0  0  0  0  0  0
    8.4248    0.6477    1.8661 H   0  0  0  0  0  0  0  0  0  0  0  0
  1  2  1  0
  2  3  1  0
  3  4  2  0
  4  5  1  0
  5  6  2  0
  6  7  1  0
  7  8  2  0
  8  9  1  0
  9 10  1  0
 10 11  2  0
 11 12  1  0
 12 13  2  0
 13 14  1  0
 13 15  1  0
 15 16  1  0
 16 17  1  0
 17 18  2  0
 18 19  1  0
 19 20  2  0
 20 21  1  0
 21 22  2  0
 22 23  1  0
 23 24  2  0
 23 25  2  0
 23 26  1  0
 26 27  1  0
 26 28  1  0
 15 29  2  0
  5 30  1  0
 30 31  1  0
 31 32  1  0
 32 33  1  0
 33 34  1  0
 34 35  1  0
 33 36  1  0
 36 37  1  0
 37 38  1  0
 38 39  1  0
 39 40  1  0
  8  3  1  0
 29 10  1  0
 35 30  1  0
 40 36  1  0
 22 17  1  0
  1 41  1  0
  1 42  1  0
  1 43  1  0
  4 44  1  0
  6 45  1  0
  7 46  1  0
  9 47  1  0
 12 48  1  0
 16 49  1  0
 18 50  1  0
 19 51  1  0
 20 52  1  0
 21 53  1  0
 26 54  1  0
 27 55  1  0
 27 56  1  0
 27 57  1  0
 28 58  1  0
 28 59  1  0
 28 60  1  0
 31 61  1  0
 31 62  1  0
 32 63  1  0
 32 64  1  0
 33 65  1  0
 34 66  1  0
 34 67  1  0
 35 68  1  0
 35 69  1  0
 37 70  1  0
 37 71  1  0
 38 72  1  0
 38 73  1  0
 39 74  1  0
 39 75  1  0
 40 76  1  0
 40 77  1  0
M  END
$$$$
[H]c1c([H])c(C(=O)N([H])c2c([H])c([H])c(C([H])([H])[H])c(-c3c([H])c(N4C([H])([H])C([H])([H])OC([H])([H])C4([H])[H])nc(N4C([H])([H])C([H])([H])OC([H])([H])C4([H])[H])c3[H])c2[H])c([H])c(C(F)(F)F)c1[H]
     RDKit          3D

 67 71  0  0  0  0  0  0  0  0999 V2000
   -0.7046   -1.3482    2.6698 C   0  0  0  0  0  0  0  0  0  0  0  0
    0.5618   -0.9323    1.9867 C   0  0  0  0  0  0  0  0  0  0  0  0
    1.7569   -1.2182    2.5769 C   0  0  0  0  0  0  0  0  0  0  0  0
    2.9062   -0.8045    1.9857 C   0  0  0  0  0  0  0  0  0  0  0  0
    2.9168   -0.0772    0.7662 C   0  0  0  0  0  0  0  0  0  0  0  0
    4.1630    0.3178    0.2554 N   0  0  0  0  0  0  0  0  0  0  0  0
    4.5675    1.3095   -0.6452 C   0  0  0  0  0  0  0  0  0  0  0  0
    3.8142    2.0860   -1.2291 O   0  0  0  0  0  0  0  0  0  0  0  0
    6.0396    1.3879   -0.8650 C   0  0  0  0  0  0  0  0  0  0  0  0
    6.6668    2.6005   -0.9860 C   0  0  0  0  0  0  0  0  0  0  0  0
    8.0713    2.6838   -1.1000 C   0  0  0  0  0  0  0  0  0  0  0  0
    8.8003    1.4939   -1.0859 C   0  0  0  0  0  0  0  0  0  0  0  0
    8.1970    0.2541   -0.9685 C   0  0  0  0  0  0  0  0  0  0  0  0
    6.7952    0.2500   -0.8595 C   0  0  0  0  0  0  0  0  0  0  0  0
    9.0156   -0.9817   -0.9268 C   0  0  0  0  0  0  0  0  0  0  0  0
    9.8648   -1.0923   -2.0213 F   0  0  0  0  0  0  0  0  0  0  0  0
    9.8528   -0.9565    0.1997 F   0  0  0  0  0  0  0  0  0  0  0  0
    8.1968   -2.0842   -0.7725 F   0  0  0  0  0  0  0  0  0  0  0  0
    1.6893    0.1964    0.1866 C   0  0  0  0  0  0  0  0  0  0  0  0
    0.5453   -0.2128    0.7692 C   0  0  0  0  0  0  0  0  0  0  0  0
   -0.8331   -0.0613    0.2752 C   0  0  0  0  0  0  0  0  0  0  0  0
   -1.5676   -1.2368    0.0074 C   0  0  0  0  0  0  0  0  0  0  0  0
   -2.8903   -1.2422   -0.3174 C   0  0  0  0  0  0  0  0  0  0  0  0
   -3.5107   -0.0527   -0.3851 N   0  0  0  0  0  0  0  0  0  0  0  0
   -2.8548    1.1200   -0.1382 C   0  0  0  0  0  0  0  0  0  0  0  0
   -1.5075    1.1250    0.1929 C   0  0  0  0  0  0  0  0  0  0  0  0
   -3.6481    2.2924   -0.2169 N   0  0  0  0  0  0  0  0  0  0  0  0
   -3.8495    3.1523    0.9201 C   0  0  0  0  0  0  0  0  0  0  0  0
   -4.7953    4.2692    0.5191 C   0  0  0  0  0  0  0  0  0  0  0  0
   -5.8873    3.8917   -0.1863 O   0  0  0  0  0  0  0  0  0  0  0  0
   -5.7587    2.9284   -1.1439 C   0  0  0  0  0  0  0  0  0  0  0  0
   -4.2887    2.6648   -1.4565 C   0  0  0  0  0  0  0  0  0  0  0  0
   -3.6808   -2.4076   -0.5694 N   0  0  0  0  0  0  0  0  0  0  0  0
   -4.8672   -2.6351    0.2766 C   0  0  0  0  0  0  0  0  0  0  0  0
   -5.0478   -4.1369    0.3865 C   0  0  0  0  0  0  0  0  0  0  0  0
   -5.2911   -4.7460   -0.8202 O   0  0  0  0  0  0  0  0  0  0  0  0
   -4.7289   -4.0835   -1.9029 C   0  0  0  0  0  0  0  0  0  0  0  0
   -3.4210   -3.3815   -1.5775 C   0  0  0  0  0  0  0  0  0  0  0  0
   -1.0717   -2.3344    2.3676 H   0  0  0  0  0  0  0  0  0  0  0  0
   -1.5161   -0.5782    2.5402 H   0  0  0  0  0  0  0  0  0  0  0  0
   -0.4866   -1.3748    3.7741 H   0  0  0  0  0  0  0  0  0  0  0  0
    1.8227   -1.7606    3.5328 H   0  0  0  0  0  0  0  0  0  0  0  0
    3.8844   -1.0115    2.4069 H   0  0  0  0  0  0  0  0  0  0  0  0
    4.9935   -0.3011    0.6360 H   0  0  0  0  0  0  0  0  0  0  0  0
    6.0970    3.5223   -1.0031 H   0  0  0  0  0  0  0  0  0  0  0  0
    8.5603    3.6384   -1.1876 H   0  0  0  0  0  0  0  0  0  0  0  0
    9.8974    1.5741   -1.1672 H   0  0  0  0  0  0  0  0  0  0  0  0
    6.3194   -0.6955   -0.7755 H   0  0  0  0  0  0  0  0  0  0  0  0
    1.6430    0.7386   -0.7453 H   0  0  0  0  0  0  0  0  0  0  0  0
   -1.0486   -2.1810    0.0522 H   0  0  0  0  0  0  0  0  0  0  0  0
   -1.0075    2.0686    0.3774 H   0  0  0  0  0  0  0  0  0  0  0  0
   -2.9077    3.6333    1.2323 H   0  0  0  0  0  0  0  0  0  0  0  0
   -4.2594    2.5928    1.7890 H   0  0  0  0  0  0  0  0  0  0  0  0
   -4.1900    5.0905    0.0731 H   0  0  0  0  0  0  0  0  0  0  0  0
   -5.1932    4.6509    1.5184 H   0  0  0  0  0  0  0  0  0  0  0  0
   -6.2475    1.9893   -0.7782 H   0  0  0  0  0  0  0  0  0  0  0  0
   -6.2979    3.2463   -2.0717 H   0  0  0  0  0  0  0  0  0  0  0  0
   -4.1904    1.9067   -2.2508 H   0  0  0  0  0  0  0  0  0  0  0  0
   -3.8864    3.6586   -1.7815 H   0  0  0  0  0  0  0  0  0  0  0  0
   -5.7187   -2.1077   -0.1265 H   0  0  0  0  0  0  0  0  0  0  0  0
   -4.5749   -2.3019    1.3230 H   0  0  0  0  0  0  0  0  0  0  0  0
   -4.2165   -4.5833    0.9611 H   0  0  0  0  0  0  0  0  0  0  0  0
   -5.9609   -4.3064    1.0316 H   0  0  0  0  0  0  0  0  0  0  0  0
   -4.5349   -4.7357   -2.7787 H   0  0  0  0  0  0  0  0  0  0  0  0
   -5.4715   -3.3250   -2.2191 H   0  0  0  0  0  0  0  0  0  0  0  0
   -3.0824   -2.9412   -2.5395 H   0  0  0  0  0  0  0  0  0  0  0  0
   -2.6434   -4.1046   -1.2792 H   0  0  0  0  0  0  0  0  0  0  0  0
  1  2  1  0
  2  3  2  0
  3  4  1  0
  4  5  2  0
  5  6  1  0
  6  7  1  0
  7  8  2  0
  7  9  1  0
  9 10  2  0
 10 11  1  0
 11 12  2  0
 12 13  1  0
 13 14  2  0
 13 15  1  0
 15 16  1  0
 15 17  1  0
 15 18  1  0
  5 19  1  0
 19 20  2  0
 20 21  1  0
 21 22  2  0
 22 23  1  0
 23 24  2  0
 24 25  1  0
 25 26  2  0
 25 27  1  0
 27 28  1  0
 28 29  1  0
 29 30  1  0
 30 31  1  0
 31 32  1  0
 23 33  1  0
 33 34  1  0
 34 35  1  0
 35 36  1  0
 36 37  1  0
 37 38  1  0
 20  2  1  0
 26 21  1  0
 32 27  1  0
 38 33  1  0
 14  9  1  0
  1 39  1  0
  1 40  1  0
  1 41  1  0
  3 42  1  0
  4 43  1  0
  6 44  1  0
 10 45  1  0
 11 46  1  0
 12 47  1  0
 14 48  1  0
 19 49  1  0
 22 50  1  0
 26 51  1  0
 28 52  1  0
 28 53  1  0
 29 54  1  0
 29 55  1  0
 31 56  1  0
 31 57  1  0
 32 58  1  0
 32 59  1  0
 34 60  1  0
 34 61  1  0
 35 62  1  0
 35 63  1  0
 37 64  1  0
 37 65  1  0
 38 66  1  0
 38 67  1  0
M  END
$$$$
[H]Oc1c([H])c([H])c2c(c1[H])C([H])([H])C([H])([H])[C@]1([H])[C@]2([H])C([H])([H])C([H])([H])[C@]2(C([H])([H])[H])[C@@]([H])(O[H])C([H])([H])C([H])([H])[C@]21[H]
     RDKit          3D

 44 47  0  0  0  0  0  0  0  0999 V2000
   -2.2616   -0.7647    1.3456 C   0  0  0  0  0  0  0  0  0  0  0  0
   -2.1872   -0.4820   -0.1355 C   0  0  2  0  0  0  0  0  0  0  0  0
   -1.4972   -1.6125   -0.8188 C   0  0  0  0  0  0  0  0  0  0  0  0
   -0.0355   -1.6614   -0.5111 C   0  0  0  0  0  0  0  0  0  0  0  0
    0.6317   -0.3276   -0.6087 C   0  0  1  0  0  0  0  0  0  0  0  0
   -0.1167    0.7120    0.2397 C   0  0  1  0  0  0  0  0  0  0  0  0
    0.6973    1.9517    0.3346 C   0  0  0  0  0  0  0  0  0  0  0  0
    1.8991    1.6281    1.2348 C   0  0  0  0  0  0  0  0  0  0  0  0
    2.6681    0.5258    0.5618 C   0  0  0  0  0  0  0  0  0  0  0  0
    4.0208    0.4137    0.8075 C   0  0  0  0  0  0  0  0  0  0  0  0
    4.8096   -0.5725    0.2292 C   0  0  0  0  0  0  0  0  0  0  0  0
    6.1817   -0.6599    0.4990 O   0  0  0  0  0  0  0  0  0  0  0  0
    4.1863   -1.4604   -0.6201 C   0  0  0  0  0  0  0  0  0  0  0  0
    2.8307   -1.3536   -0.8705 C   0  0  0  0  0  0  0  0  0  0  0  0
    2.0522   -0.3730   -0.2941 C   0  0  0  0  0  0  0  0  0  0  0  0
   -1.4489    0.8431   -0.3896 C   0  0  2  0  0  0  0  0  0  0  0  0
   -2.3800    1.8245    0.1898 C   0  0  0  0  0  0  0  0  0  0  0  0
   -3.7490    1.2757   -0.1912 C   0  0  0  0  0  0  0  0  0  0  0  0
   -3.5339   -0.1411   -0.6696 C   0  0  2  0  0  0  0  0  0  0  0  0
   -4.4822   -1.0192   -0.1693 O   0  0  0  0  0  0  0  0  0  0  0  0
   -3.3190   -1.0974    1.5551 H   0  0  0  0  0  0  0  0  0  0  0  0
   -1.6242   -1.6159    1.6570 H   0  0  0  0  0  0  0  0  0  0  0  0
   -2.0942    0.1160    1.9735 H   0  0  0  0  0  0  0  0  0  0  0  0
   -1.7135   -1.6572   -1.9098 H   0  0  0  0  0  0  0  0  0  0  0  0
   -1.9450   -2.5631   -0.4048 H   0  0  0  0  0  0  0  0  0  0  0  0
    0.1510   -2.1510    0.4861 H   0  0  0  0  0  0  0  0  0  0  0  0
    0.4339   -2.3403   -1.2525 H   0  0  0  0  0  0  0  0  0  0  0  0
    0.5187    0.0259   -1.6572 H   0  0  0  0  0  0  0  0  0  0  0  0
   -0.1882    0.2644    1.2522 H   0  0  0  0  0  0  0  0  0  0  0  0
    1.1649    2.2436   -0.6508 H   0  0  0  0  0  0  0  0  0  0  0  0
    0.1574    2.7804    0.7893 H   0  0  0  0  0  0  0  0  0  0  0  0
    2.5196    2.5130    1.4035 H   0  0  0  0  0  0  0  0  0  0  0  0
    1.4780    1.1823    2.1542 H   0  0  0  0  0  0  0  0  0  0  0  0
    4.5228    1.1037    1.4718 H   0  0  0  0  0  0  0  0  0  0  0  0
    6.5756    0.0194    1.1283 H   0  0  0  0  0  0  0  0  0  0  0  0
    4.7934   -2.2292   -1.0728 H   0  0  0  0  0  0  0  0  0  0  0  0
    2.4286   -2.0954   -1.5517 H   0  0  0  0  0  0  0  0  0  0  0  0
   -1.3743    0.9848   -1.4780 H   0  0  0  0  0  0  0  0  0  0  0  0
   -2.2899    2.0186    1.2621 H   0  0  0  0  0  0  0  0  0  0  0  0
   -2.2758    2.8067   -0.3367 H   0  0  0  0  0  0  0  0  0  0  0  0
   -4.1755    1.8381   -1.0706 H   0  0  0  0  0  0  0  0  0  0  0  0
   -4.4356    1.2437    0.6584 H   0  0  0  0  0  0  0  0  0  0  0  0
   -3.4818   -0.1892   -1.7851 H   0  0  0  0  0  0  0  0  0  0  0  0
   -4.1124   -1.9488   -0.1478 H   0  0  0  0  0  0  0  0  0  0  0  0
  2  1  1  1
  2  3  1  0
  3  4  1  0
  4  5  1  0
  5  6  1  0
  6  7  1  0
  7  8  1  0
  8  9  1  0
  9 10  2  0
 10 11  1  0
 11 12  1  0
 11 13  2  0
 13 14  1  0
 14 15  2  0
  6 16  1  0
 16 17  1  0
 17 18  1  0
 18 19  1  0
 19 20  1  0
 16  2  1  0
 19  2  1  0
 15  5  1  0
 15  9  1  0
  1 21  1  0
  1 22  1  0
  1 23  1  0
  3 24  1  0
  3 25  1  0
  4 26  1  0
  4 27  1  0
  5 28  1  6
  6 29  1  1
  7 30  1  0
  7 31  1  0
  8 32  1  0
  8 33  1  0
 10 34  1  0
 12 35  1  0
 13 36  1  0
 14 37  1  0
 16 38  1  6
 17 39  1  0
 17 40  1  0
 18 41  1  0
 18 42  1  0
 19 43  1  6
 20 44  1  0
M  END
$$$$
[H]c1c([H])c([C@@]([H])(OC(=O)c2c([H])c([H])c(C([H])([H])N([H])C(=O)C([H])([H])[H])c([H])c2[H])C([H])([H])c2c(Cl)c([H])[n+]([O-])c([H])c2Cl)c([H])c(OC([H])([H])[H])c1OC([H])([H])[H]
     RDKit          3D

 59 61  0  0  0  0  0  0  0  0999 V2000
   -6.9058    2.4018    2.0197 C   0  0  0  0  0  0  0  0  0  0  0  0
   -5.6774    1.8647    2.4072 O   0  0  0  0  0  0  0  0  0  0  0  0
   -4.7774    1.2179    1.5798 C   0  0  0  0  0  0  0  0  0  0  0  0
   -4.9726    1.0163    0.2351 C   0  0  0  0  0  0  0  0  0  0  0  0
   -4.0446    0.3622   -0.5474 C   0  0  0  0  0  0  0  0  0  0  0  0
   -2.8570   -0.1293   -0.0123 C   0  0  0  0  0  0  0  0  0  0  0  0
   -2.6754    0.0822    1.3359 C   0  0  0  0  0  0  0  0  0  0  0  0
   -3.5852    0.7312    2.1427 C   0  0  0  0  0  0  0  0  0  0  0  0
   -3.3714    0.9221    3.4728 O   0  0  0  0  0  0  0  0  0  0  0  0
   -2.2243    0.5430    4.2117 C   0  0  0  0  0  0  0  0  0  0  0  0
   -1.9547   -0.8305   -0.9075 C   0  0  2  0  0  0  0  0  0  0  0  0
   -2.2197   -2.2843   -1.0933 C   0  0  0  0  0  0  0  0  0  0  0  0
   -1.2874   -2.9954   -1.9891 C   0  0  0  0  0  0  0  0  0  0  0  0
   -0.0591   -3.4822   -1.6118 C   0  0  0  0  0  0  0  0  0  0  0  0
    0.4303   -3.3523    0.0660 Cl  0  0  0  0  0  0  0  0  0  0  0  0
    0.8119   -4.1028   -2.4626 C   0  0  0  0  0  0  0  0  0  0  0  0
    0.4948   -4.2722   -3.7538 N   0  0  0  0  0  0  0  0  0  0  0  0
    1.3775   -4.8974   -4.6266 O   0  0  0  0  0  0  0  0  0  0  0  0
   -0.6962   -3.8123   -4.1645 C   0  0  0  0  0  0  0  0  0  0  0  0
   -1.6046   -3.1828   -3.3487 C   0  0  0  0  0  0  0  0  0  0  0  0
   -3.1177   -2.6372   -4.0184 Cl  0  0  0  0  0  0  0  0  0  0  0  0
   -0.6346   -0.5189   -0.5758 O   0  0  0  0  0  0  0  0  0  0  0  0
    0.1651    0.2072   -1.4864 C   0  0  0  0  0  0  0  0  0  0  0  0
   -0.3229    0.5693   -2.5849 O   0  0  0  0  0  0  0  0  0  0  0  0
    1.5372    0.5338   -1.1654 C   0  0  0  0  0  0  0  0  0  0  0  0
    2.0852    0.1661    0.0206 C   0  0  0  0  0  0  0  0  0  0  0  0
    3.4186    0.4698    0.3198 C   0  0  0  0  0  0  0  0  0  0  0  0
    4.2300    1.1416   -0.5495 C   0  0  0  0  0  0  0  0  0  0  0  0
    5.6397    1.4877   -0.3389 C   0  0  0  0  0  0  0  0  0  0  0  0
    5.8593    2.2031    0.8762 N   0  0  0  0  0  0  0  0  0  0  0  0
    6.1449    1.5913    2.1044 C   0  0  0  0  0  0  0  0  0  0  0  0
    6.3257    2.4997    3.2905 C   0  0  0  0  0  0  0  0  0  0  0  0
    6.2495    0.3514    2.2258 O   0  0  0  0  0  0  0  0  0  0  0  0
    3.6285    1.5049   -1.7614 C   0  0  0  0  0  0  0  0  0  0  0  0
    2.3242    1.2130   -2.0640 C   0  0  0  0  0  0  0  0  0  0  0  0
   -6.9782    2.7281    0.9792 H   0  0  0  0  0  0  0  0  0  0  0  0
   -7.2339    3.2083    2.7300 H   0  0  0  0  0  0  0  0  0  0  0  0
   -7.6863    1.6036    2.1426 H   0  0  0  0  0  0  0  0  0  0  0  0
   -5.9019    1.4014   -0.1840 H   0  0  0  0  0  0  0  0  0  0  0  0
   -4.2784    0.2456   -1.6054 H   0  0  0  0  0  0  0  0  0  0  0  0
   -1.7533   -0.3060    1.7491 H   0  0  0  0  0  0  0  0  0  0  0  0
   -1.3357    1.1191    3.8909 H   0  0  0  0  0  0  0  0  0  0  0  0
   -2.3772    0.7005    5.2954 H   0  0  0  0  0  0  0  0  0  0  0  0
   -2.0134   -0.5429    4.0233 H   0  0  0  0  0  0  0  0  0  0  0  0
   -2.1277   -0.3793   -1.9443 H   0  0  0  0  0  0  0  0  0  0  0  0
   -2.0676   -2.7551   -0.0727 H   0  0  0  0  0  0  0  0  0  0  0  0
   -3.2372   -2.5415   -1.3785 H   0  0  0  0  0  0  0  0  0  0  0  0
    1.7584   -4.4624   -2.1175 H   0  0  0  0  0  0  0  0  0  0  0  0
   -0.9730   -3.9390   -5.2172 H   0  0  0  0  0  0  0  0  0  0  0  0
    1.5054   -0.3668    0.7467 H   0  0  0  0  0  0  0  0  0  0  0  0
    3.7783    0.1557    1.2773 H   0  0  0  0  0  0  0  0  0  0  0  0
    5.9858    2.0839   -1.2296 H   0  0  0  0  0  0  0  0  0  0  0  0
    6.2276    0.5248   -0.3101 H   0  0  0  0  0  0  0  0  0  0  0  0
    5.7970    3.2699    0.8030 H   0  0  0  0  0  0  0  0  0  0  0  0
    6.3531    1.8679    4.1784 H   0  0  0  0  0  0  0  0  0  0  0  0
    7.2621    3.0819    3.1392 H   0  0  0  0  0  0  0  0  0  0  0  0
    5.4531    3.1694    3.2976 H   0  0  0  0  0  0  0  0  0  0  0  0
    4.2245    2.0371   -2.4739 H   0  0  0  0  0  0  0  0  0  0  0  0
    1.8841    1.5132   -3.0324 H   0  0  0  0  0  0  0  0  0  0  0  0
  1  2  1  0
  2  3  1  0
  3  4  2  0
  4  5  1  0
  5  6  2  0
  6  7  1  0
  7  8  2  0
  8  9  1  0
  9 10  1  0
  6 11  1  0
 11 12  1  0
 12 13  1  0
 13 14  2  0
 14 15  1  0
 14 16  1  0
 16 17  2  0
 17 18  1  0
 17 19  1  0
 19 20  2  0
 20 21  1  0
 11 22  1  0
 22 23  1  0
 23 24  2  0
 23 25  1  0
 25 26  2  0
 26 27  1  0
 27 28  2  0
 28 29  1  0
 29 30  1  0
 30 31  1  0
 31 32  1  0
 31 33  2  0
 28 34  1  0
 34 35  2  0
  8  3  1  0
 20 13  1  0
 35 25  1  0
  1 36  1  0
  1 37  1  0
  1 38  1  0
  4 39  1  0
  5 40  1  0
  7 41  1  0
 10 42  1  0
 10 43  1  0
 10 44  1  0
 11 45  1  6
 12 46  1  0
 12 47  1  0
 16 48  1  0
 19 49  1  0
 26 50  1  0
 27 51  1  0
 29 52  1  0
 29 53  1  0
 30 54  1  0
 32 55  1  0
 32 56  1  0
 32 57  1  0
 34 58  1  0
 35 59  1  0
M  CHG  2  17   1  18  -1
M  END
$$$$
[H]OC(=O)C([H])(Oc1c([H])c([H])c(-c2c([H])c([H])c(-c3c(C([H])([H])c4c([H])c([H])c([H])c([H])c4[H])sc4c([H])c([H])c([H])c([H])c34)c([H])c2[H])c([H])c1[H])C([H])([H])c1c([H])c([H])c([H])c([H])c1[H]
     RDKit          3D

 68 73  0  0  0  0  0  0  0  0999 V2000
    6.8976   -2.6523   -1.2884 O   0  0  0  0  0  0  0  0  0  0  0  0
    7.0799   -2.1447   -0.0039 C   0  0  0  0  0  0  0  0  0  0  0  0
    8.0113   -2.5644    0.7275 O   0  0  0  0  0  0  0  0  0  0  0  0
    6.1655   -1.1026    0.5112 C   0  0  0  0  0  0  0  0  0  0  0  0
    6.8652    0.0682    1.1191 C   0  0  0  0  0  0  0  0  0  0  0  0
    7.7493    0.8528    0.2789 C   0  0  0  0  0  0  0  0  0  0  0  0
    7.2472    1.9017   -0.4619 C   0  0  0  0  0  0  0  0  0  0  0  0
    8.0354    2.7122   -1.2633 C   0  0  0  0  0  0  0  0  0  0  0  0
    9.3976    2.4661   -1.3317 C   0  0  0  0  0  0  0  0  0  0  0  0
    9.9296    1.4183   -0.5983 C   0  0  0  0  0  0  0  0  0  0  0  0
    9.1135    0.6240    0.1959 C   0  0  0  0  0  0  0  0  0  0  0  0
    5.1781   -0.7513   -0.4065 O   0  0  0  0  0  0  0  0  0  0  0  0
    3.8134   -0.7320   -0.2083 C   0  0  0  0  0  0  0  0  0  0  0  0
    2.9775   -0.3950   -1.2572 C   0  0  0  0  0  0  0  0  0  0  0  0
    1.6101   -0.3531   -1.1324 C   0  0  0  0  0  0  0  0  0  0  0  0
    0.9996   -0.6489    0.0644 C   0  0  0  0  0  0  0  0  0  0  0  0
    1.8058   -0.9852    1.1187 C   0  0  0  0  0  0  0  0  0  0  0  0
    3.2001   -1.0281    0.9895 C   0  0  0  0  0  0  0  0  0  0  0  0
   -0.4515   -0.6307    0.1985 C   0  0  0  0  0  0  0  0  0  0  0  0
   -1.2574    0.2014   -0.5417 C   0  0  0  0  0  0  0  0  0  0  0  0
   -2.6322    0.2292   -0.4103 C   0  0  0  0  0  0  0  0  0  0  0  0
   -3.2522   -0.5722    0.4667 C   0  0  0  0  0  0  0  0  0  0  0  0
   -2.4436   -1.4354    1.2403 C   0  0  0  0  0  0  0  0  0  0  0  0
   -1.0817   -1.4713    1.1167 C   0  0  0  0  0  0  0  0  0  0  0  0
   -4.7221   -0.7142    0.7030 C   0  0  0  0  0  0  0  0  0  0  0  0
   -5.4400    0.2421    1.3343 C   0  0  0  0  0  0  0  0  0  0  0  0
   -5.1733    1.6751    1.6753 C   0  0  0  0  0  0  0  0  0  0  0  0
   -5.8450    2.4893    0.6070 C   0  0  0  0  0  0  0  0  0  0  0  0
   -6.4574    3.6925    0.9993 C   0  0  0  0  0  0  0  0  0  0  0  0
   -7.1312    4.4335    0.0624 C   0  0  0  0  0  0  0  0  0  0  0  0
   -7.2399    4.0523   -1.2635 C   0  0  0  0  0  0  0  0  0  0  0  0
   -6.6446    2.8874   -1.6328 C   0  0  0  0  0  0  0  0  0  0  0  0
   -5.9594    2.1216   -0.7088 C   0  0  0  0  0  0  0  0  0  0  0  0
   -6.9943   -0.4925    1.5335 S   0  0  0  0  0  0  0  0  0  0  0  0
   -6.6740   -1.9887    0.7958 C   0  0  0  0  0  0  0  0  0  0  0  0
   -7.4402   -3.1447    0.5483 C   0  0  0  0  0  0  0  0  0  0  0  0
   -6.9025   -4.2350   -0.0953 C   0  0  0  0  0  0  0  0  0  0  0  0
   -5.5896   -4.1339   -0.4794 C   0  0  0  0  0  0  0  0  0  0  0  0
   -4.8441   -3.0177   -0.2419 C   0  0  0  0  0  0  0  0  0  0  0  0
   -5.3724   -1.8891    0.4153 C   0  0  0  0  0  0  0  0  0  0  0  0
    6.3353   -3.5206   -1.3187 H   0  0  0  0  0  0  0  0  0  0  0  0
    5.6326   -1.5995    1.3837 H   0  0  0  0  0  0  0  0  0  0  0  0
    6.0980    0.7410    1.5970 H   0  0  0  0  0  0  0  0  0  0  0  0
    7.4352   -0.3341    2.0112 H   0  0  0  0  0  0  0  0  0  0  0  0
    6.1837    2.1354   -0.4389 H   0  0  0  0  0  0  0  0  0  0  0  0
    7.6038    3.5219   -1.8270 H   0  0  0  0  0  0  0  0  0  0  0  0
   10.0820    3.0455   -1.9248 H   0  0  0  0  0  0  0  0  0  0  0  0
   11.0107    1.2072   -0.6458 H   0  0  0  0  0  0  0  0  0  0  0  0
    9.5283   -0.1781    0.7678 H   0  0  0  0  0  0  0  0  0  0  0  0
    3.4231   -0.1529   -2.2231 H   0  0  0  0  0  0  0  0  0  0  0  0
    1.0432   -0.0713   -2.0268 H   0  0  0  0  0  0  0  0  0  0  0  0
    1.3247   -1.2239    2.0787 H   0  0  0  0  0  0  0  0  0  0  0  0
    3.7478   -1.2989    1.8589 H   0  0  0  0  0  0  0  0  0  0  0  0
   -0.7521    0.8599   -1.2685 H   0  0  0  0  0  0  0  0  0  0  0  0
   -3.1791    0.9169   -1.0481 H   0  0  0  0  0  0  0  0  0  0  0  0
   -2.9036   -2.1024    1.9662 H   0  0  0  0  0  0  0  0  0  0  0  0
   -0.4507   -2.1244    1.6957 H   0  0  0  0  0  0  0  0  0  0  0  0
   -5.7025    1.9036    2.6449 H   0  0  0  0  0  0  0  0  0  0  0  0
   -4.0991    1.8254    1.7324 H   0  0  0  0  0  0  0  0  0  0  0  0
   -6.3868    4.0044    2.0262 H   0  0  0  0  0  0  0  0  0  0  0  0
   -7.6076    5.3575    0.3656 H   0  0  0  0  0  0  0  0  0  0  0  0
   -7.7759    4.6574   -1.9631 H   0  0  0  0  0  0  0  0  0  0  0  0
   -6.6768    2.5120   -2.6500 H   0  0  0  0  0  0  0  0  0  0  0  0
   -5.5013    1.1916   -1.0089 H   0  0  0  0  0  0  0  0  0  0  0  0
   -8.4673   -3.0882    0.9079 H   0  0  0  0  0  0  0  0  0  0  0  0
   -7.5101   -5.1061   -0.2728 H   0  0  0  0  0  0  0  0  0  0  0  0
   -5.1457   -5.0082   -0.9990 H   0  0  0  0  0  0  0  0  0  0  0  0
   -3.8176   -3.0562   -0.5975 H   0  0  0  0  0  0  0  0  0  0  0  0
  1  2  1  0
  2  3  2  0
  2  4  1  0
  4  5  1  0
  5  6  1  0
  6  7  2  0
  7  8  1  0
  8  9  2  0
  9 10  1  0
 10 11  2  0
  4 12  1  0
 12 13  1  0
 13 14  2  0
 14 15  1  0
 15 16  2  0
 16 17  1  0
 17 18  2  0
 16 19  1  0
 19 20  2  0
 20 21  1  0
 21 22  2  0
 22 23  1  0
 23 24  2  0
 22 25  1  0
 25 26  2  0
 26 27  1  0
 27 28  1  0
 28 29  2  0
 29 30  1  0
 30 31  2  0
 31 32  1  0
 32 33  2  0
 26 34  1  0
 34 35  1  0
 35 36  2  0
 36 37  1  0
 37 38  2  0
 38 39  1  0
 39 40  2  0
 11  6  1  0
 18 13  1  0
 24 19  1  0
 40 25  1  0
 33 28  1  0
 40 35  1  0
  1 41  1  0
  4 42  1  0
  5 43  1  0
  5 44  1  0
  7 45  1  0
  8 46  1  0
  9 47  1  0
 10 48  1  0
 11 49  1  0
 14 50  1  0
 15 51  1  0
 17 52  1  0
 18 53  1  0
 20 54  1  0
 21 55  1  0
 23 56  1  0
 24 57  1  0
 27 58  1  0
 27 59  1  0
 29 60  1  0
 30 61  1  0
 31 62  1  0
 32 63  1  0
 33 64  1  0
 36 65  1  0
 37 66  1  0
 38 67  1  0
 39 68  1  0
M  END
$$$$
[H]O[C@]1([H])[C@]([H])(C([H])([H])C([H])([H])C([H])([H])N=C(N([H])[H])N([H])[H])O[C@@]([H])(n2c([H])c([H])c3c(N([H])[H])nc([H])nc32)[C@]1([H])O[H]
     RDKit          3D

 45 47  0  0  0  0  0  0  0  0999 V2000
    5.8041    0.8118    0.2074 N   0  0  0  0  0  0  0  0  0  0  0  0
    5.8023    0.4598   -1.1560 C   0  0  0  0  0  0  0  0  0  0  0  0
    7.0741    0.1257   -1.7355 N   0  0  0  0  0  0  0  0  0  0  0  0
    4.7980    0.4181   -1.8807 N   0  0  0  0  0  0  0  0  0  0  0  0
    3.4160    0.6737   -1.6665 C   0  0  0  0  0  0  0  0  0  0  0  0
    2.9957    0.9368   -0.2681 C   0  0  0  0  0  0  0  0  0  0  0  0
    1.5231    1.1940   -0.1087 C   0  0  0  0  0  0  0  0  0  0  0  0
    0.6317    0.0929   -0.5414 C   0  0  2  0  0  0  0  0  0  0  0  0
   -0.6851    0.4943   -0.3305 O   0  0  0  0  0  0  0  0  0  0  0  0
   -1.1299   -0.2006    0.7566 C   0  0  2  0  0  0  0  0  0  0  0  0
   -0.6089   -1.6134    0.4558 C   0  0  2  0  0  0  0  0  0  0  0  0
   -0.7007   -2.3452    1.6257 O   0  0  0  0  0  0  0  0  0  0  0  0
    0.8457   -1.2217    0.1440 C   0  0  2  0  0  0  0  0  0  0  0  0
    1.4737   -1.1342    1.3712 O   0  0  0  0  0  0  0  0  0  0  0  0
   -2.5465   -0.1869    0.9386 N   0  0  0  0  0  0  0  0  0  0  0  0
   -3.1684   -0.0735    2.1269 C   0  0  0  0  0  0  0  0  0  0  0  0
   -4.5351   -0.0932    1.9625 C   0  0  0  0  0  0  0  0  0  0  0  0
   -4.7574   -0.2250    0.6085 C   0  0  0  0  0  0  0  0  0  0  0  0
   -5.9333   -0.2987   -0.1179 C   0  0  0  0  0  0  0  0  0  0  0  0
   -7.1808   -0.2374    0.5501 N   0  0  0  0  0  0  0  0  0  0  0  0
   -5.8177   -0.4277   -1.4521 N   0  0  0  0  0  0  0  0  0  0  0  0
   -4.6009   -0.4799   -2.0257 C   0  0  0  0  0  0  0  0  0  0  0  0
   -3.4584   -0.4078   -1.3145 N   0  0  0  0  0  0  0  0  0  0  0  0
   -3.5116   -0.2788    0.0179 C   0  0  0  0  0  0  0  0  0  0  0  0
    5.6850    0.1361    0.9924 H   0  0  0  0  0  0  0  0  0  0  0  0
    5.9325    1.8174    0.4714 H   0  0  0  0  0  0  0  0  0  0  0  0
    7.5166   -0.7803   -1.4982 H   0  0  0  0  0  0  0  0  0  0  0  0
    7.5612    0.7718   -2.3876 H   0  0  0  0  0  0  0  0  0  0  0  0
    3.1185    1.4731   -2.3803 H   0  0  0  0  0  0  0  0  0  0  0  0
    2.8679   -0.2381   -2.0658 H   0  0  0  0  0  0  0  0  0  0  0  0
    3.4926    1.8808    0.0724 H   0  0  0  0  0  0  0  0  0  0  0  0
    3.3389    0.1489    0.4268 H   0  0  0  0  0  0  0  0  0  0  0  0
    1.2500    2.1020   -0.6851 H   0  0  0  0  0  0  0  0  0  0  0  0
    1.3594    1.4637    0.9635 H   0  0  0  0  0  0  0  0  0  0  0  0
    0.7205   -0.0059   -1.6653 H   0  0  0  0  0  0  0  0  0  0  0  0
   -0.5961    0.1439    1.6469 H   0  0  0  0  0  0  0  0  0  0  0  0
   -1.1034   -2.0642   -0.4030 H   0  0  0  0  0  0  0  0  0  0  0  0
   -1.1552   -1.8497    2.3578 H   0  0  0  0  0  0  0  0  0  0  0  0
    1.2612   -1.9830   -0.5248 H   0  0  0  0  0  0  0  0  0  0  0  0
    0.8735   -1.1776    2.1476 H   0  0  0  0  0  0  0  0  0  0  0  0
   -2.6772    0.0224    3.1026 H   0  0  0  0  0  0  0  0  0  0  0  0
   -5.2598   -0.0175    2.7643 H   0  0  0  0  0  0  0  0  0  0  0  0
   -7.4424    0.5609    1.1672 H   0  0  0  0  0  0  0  0  0  0  0  0
   -7.8823   -1.0005    0.4412 H   0  0  0  0  0  0  0  0  0  0  0  0
   -4.5912   -0.5850   -3.1115 H   0  0  0  0  0  0  0  0  0  0  0  0
  1  2  1  0
  2  3  1  0
  2  4  2  3
  4  5  1  0
  5  6  1  0
  6  7  1  0
  7  8  1  0
  8  9  1  0
  9 10  1  0
 10 11  1  0
 11 12  1  0
 11 13  1  0
 13 14  1  0
 10 15  1  0
 15 16  1  0
 16 17  2  0
 17 18  1  0
 18 19  2  0
 19 20  1  0
 19 21  1  0
 21 22  2  0
 22 23  1  0
 23 24  2  0
 13  8  1  0
 24 15  1  0
 24 18  1  0
  1 25  1  0
  1 26  1  0
  3 27  1  0
  3 28  1  0
  5 29  1  0
  5 30  1  0
  6 31  1  0
  6 32  1  0
  7 33  1  0
  7 34  1  0
  8 35  1  6
 10 36  1  1
 11 37  1  6
 12 38  1  0
 13 39  1  6
 14 40  1  0
 16 41  1  0
 17 42  1  0
 20 43  1  0
 20 44  1  0
 22 45  1  0
M  END
$$$$
[H]c1nn(C([H])([H])[H])c([H])c1-c1c([H])c([H])c2c([H])nc(N([H])C(=O)C3([H])C([H])([H])C([H])([H])N([H])C([H])([H])C3([H])[H])c([H])c2c1[H]
     RDKit          3D

 46 49  0  0  0  0  0  0  0  0999 V2000
    8.0361   -0.2754   -1.8351 C   0  0  0  0  0  0  0  0  0  0  0  0
    7.0608    0.0351   -0.8158 N   0  0  0  0  0  0  0  0  0  0  0  0
    5.7230    0.0276   -0.9877 C   0  0  0  0  0  0  0  0  0  0  0  0
    5.1508    0.3721    0.1977 C   0  0  0  0  0  0  0  0  0  0  0  0
    6.1747    0.5915    1.1035 C   0  0  0  0  0  0  0  0  0  0  0  0
    7.3288    0.3721    0.4337 N   0  0  0  0  0  0  0  0  0  0  0  0
    3.7192    0.5111    0.5461 C   0  0  0  0  0  0  0  0  0  0  0  0
    3.3469    1.4323    1.5020 C   0  0  0  0  0  0  0  0  0  0  0  0
    2.0356    1.6139    1.8737 C   0  0  0  0  0  0  0  0  0  0  0  0
    1.0597    0.8389    1.2604 C   0  0  0  0  0  0  0  0  0  0  0  0
   -0.2772    0.9809    1.5972 C   0  0  0  0  0  0  0  0  0  0  0  0
   -1.1584    0.2012    0.9653 N   0  0  0  0  0  0  0  0  0  0  0  0
   -0.9047   -0.7087    0.0381 C   0  0  0  0  0  0  0  0  0  0  0  0
   -1.8590   -1.5207   -0.6161 N   0  0  0  0  0  0  0  0  0  0  0  0
   -3.2351   -1.4925   -0.4331 C   0  0  0  0  0  0  0  0  0  0  0  0
   -3.8994   -2.3707   -1.1168 O   0  0  0  0  0  0  0  0  0  0  0  0
   -4.0305   -0.5979    0.4263 C   0  0  0  0  0  0  0  0  0  0  0  0
   -5.3778   -1.2874    0.6707 C   0  0  0  0  0  0  0  0  0  0  0  0
   -6.3284   -0.9210   -0.4264 C   0  0  0  0  0  0  0  0  0  0  0  0
   -6.7518    0.4693   -0.2653 N   0  0  0  0  0  0  0  0  0  0  0  0
   -5.6259    1.2707    0.2143 C   0  0  0  0  0  0  0  0  0  0  0  0
   -4.3207    0.6991   -0.3133 C   0  0  0  0  0  0  0  0  0  0  0  0
    0.4571   -0.8443   -0.2960 C   0  0  0  0  0  0  0  0  0  0  0  0
    1.4273   -0.0794    0.3083 C   0  0  0  0  0  0  0  0  0  0  0  0
    2.7646   -0.2593   -0.0657 C   0  0  0  0  0  0  0  0  0  0  0  0
    8.9960   -0.5892   -1.3631 H   0  0  0  0  0  0  0  0  0  0  0  0
    8.2938    0.6372   -2.4414 H   0  0  0  0  0  0  0  0  0  0  0  0
    7.6415   -1.0598   -2.4833 H   0  0  0  0  0  0  0  0  0  0  0  0
    5.1849   -0.2065   -1.8939 H   0  0  0  0  0  0  0  0  0  0  0  0
    6.0963    0.8816    2.1452 H   0  0  0  0  0  0  0  0  0  0  0  0
    4.1288    2.0393    1.9794 H   0  0  0  0  0  0  0  0  0  0  0  0
    1.7277    2.3349    2.6244 H   0  0  0  0  0  0  0  0  0  0  0  0
   -0.5147    1.7062    2.3414 H   0  0  0  0  0  0  0  0  0  0  0  0
   -1.4674   -2.2483   -1.2998 H   0  0  0  0  0  0  0  0  0  0  0  0
   -3.5718   -0.3623    1.3946 H   0  0  0  0  0  0  0  0  0  0  0  0
   -5.8257   -0.9589    1.6272 H   0  0  0  0  0  0  0  0  0  0  0  0
   -5.2194   -2.3737    0.7187 H   0  0  0  0  0  0  0  0  0  0  0  0
   -7.2655   -1.5264   -0.2769 H   0  0  0  0  0  0  0  0  0  0  0  0
   -5.9801   -1.1241   -1.4369 H   0  0  0  0  0  0  0  0  0  0  0  0
   -7.0685    0.8537   -1.1953 H   0  0  0  0  0  0  0  0  0  0  0  0
   -5.6433    1.2137    1.3246 H   0  0  0  0  0  0  0  0  0  0  0  0
   -5.7850    2.2965   -0.1294 H   0  0  0  0  0  0  0  0  0  0  0  0
   -3.5630    1.4571   -0.1605 H   0  0  0  0  0  0  0  0  0  0  0  0
   -4.4274    0.5297   -1.4094 H   0  0  0  0  0  0  0  0  0  0  0  0
    0.7535   -1.5638   -1.0436 H   0  0  0  0  0  0  0  0  0  0  0  0
    2.9936   -0.9955   -0.8193 H   0  0  0  0  0  0  0  0  0  0  0  0
  1  2  1  0
  2  3  1  0
  3  4  2  0
  4  5  1  0
  5  6  2  0
  4  7  1  0
  7  8  2  0
  8  9  1  0
  9 10  2  0
 10 11  1  0
 11 12  2  0
 12 13  1  0
 13 14  1  0
 14 15  1  0
 15 16  2  0
 15 17  1  0
 17 18  1  0
 18 19  1  0
 19 20  1  0
 20 21  1  0
 21 22  1  0
 13 23  2  0
 23 24  1  0
 24 25  2  0
  6  2  1  0
 25  7  1  0
 24 10  1  0
 22 17  1  0
  1 26  1  0
  1 27  1  0
  1 28  1  0
  3 29  1  0
  5 30  1  0
  8 31  1  0
  9 32  1  0
 11 33  1  0
 14 34  1  0
 17 35  1  0
 18 36  1  0
 18 37  1  0
 19 38  1  0
 19 39  1  0
 20 40  1  0
 21 41  1  0
 21 42  1  0
 22 43  1  0
 22 44  1  0
 23 45  1  0
 25 46  1  0
M  END
$$$$
[H]c1c([H])c([H])c2sc(C(=O)[C@@]([H])(N([H])C(=O)[C@@]3([H])N(C(=O)[C@@]([H])(N([H])C(=O)C([H])([H])[H])C([H])([H])C([H])([H])C([H])([H])C([H])([H])N([H])[H])C([H])([H])C([H])([H])C3([H])[H])C([H])([H])C([H])(C([H])([H])[H])C([H])([H])[H])nc2c1[H]
     RDKit          3D

 73 75  0  0  0  0  0  0  0  0999 V2000
    1.5080   -1.9905    2.0067 C   0  0  0  0  0  0  0  0  0  0  0  0
    2.6133   -1.0361    2.2589 C   0  0  0  0  0  0  0  0  0  0  0  0
    2.1210   -0.0230    3.2748 C   0  0  0  0  0  0  0  0  0  0  0  0
    3.3025   -0.4276    1.1025 C   0  0  0  0  0  0  0  0  0  0  0  0
    2.5336    0.4003    0.1578 C   0  0  2  0  0  0  0  0  0  0  0  0
    1.4714   -0.3832   -0.4646 N   0  0  0  0  0  0  0  0  0  0  0  0
    0.2253    0.1542   -0.8487 C   0  0  0  0  0  0  0  0  0  0  0  0
   -0.0424    1.3480   -0.6841 O   0  0  0  0  0  0  0  0  0  0  0  0
   -0.7645   -0.8029   -1.4738 C   0  0  2  0  0  0  0  0  0  0  0  0
   -0.0909   -1.4748   -2.6739 C   0  0  0  0  0  0  0  0  0  0  0  0
   -0.2215   -0.4439   -3.7470 C   0  0  0  0  0  0  0  0  0  0  0  0
   -1.2949    0.4663   -3.2842 C   0  0  0  0  0  0  0  0  0  0  0  0
   -1.8852   -0.1524   -2.0555 N   0  0  0  0  0  0  0  0  0  0  0  0
   -3.2358    0.0359   -1.7352 C   0  0  0  0  0  0  0  0  0  0  0  0
   -3.9052    0.6906   -2.6508 O   0  0  0  0  0  0  0  0  0  0  0  0
   -4.0404   -0.3428   -0.5954 C   0  0  2  0  0  0  0  0  0  0  0  0
   -3.9158   -1.7628   -0.1843 C   0  0  0  0  0  0  0  0  0  0  0  0
   -4.8337   -2.0783    0.9970 C   0  0  0  0  0  0  0  0  0  0  0  0
   -4.6386   -3.5055    1.4084 C   0  0  0  0  0  0  0  0  0  0  0  0
   -3.2132   -3.7691    1.8458 C   0  0  0  0  0  0  0  0  0  0  0  0
   -2.8972   -2.8871    2.9512 N   0  0  0  0  0  0  0  0  0  0  0  0
   -5.4325    0.0791   -0.7060 N   0  0  0  0  0  0  0  0  0  0  0  0
   -5.9987    1.0920    0.1031 C   0  0  0  0  0  0  0  0  0  0  0  0
   -7.4187    1.4834   -0.0471 C   0  0  0  0  0  0  0  0  0  0  0  0
   -5.3483    1.7194    0.9901 O   0  0  0  0  0  0  0  0  0  0  0  0
    3.3365    1.0609   -0.9073 C   0  0  0  0  0  0  0  0  0  0  0  0
    3.0452    0.8480   -2.1009 O   0  0  0  0  0  0  0  0  0  0  0  0
    4.4548    1.9527   -0.6096 C   0  0  0  0  0  0  0  0  0  0  0  0
    5.2342    2.5997   -1.4716 N   0  0  0  0  0  0  0  0  0  0  0  0
    6.1851    3.3648   -1.0245 C   0  0  0  0  0  0  0  0  0  0  0  0
    7.0790    4.1107   -1.8201 C   0  0  0  0  0  0  0  0  0  0  0  0
    8.0339    4.8813   -1.2478 C   0  0  0  0  0  0  0  0  0  0  0  0
    8.2026    4.9952    0.1107 C   0  0  0  0  0  0  0  0  0  0  0  0
    7.3488    4.2804    0.9091 C   0  0  0  0  0  0  0  0  0  0  0  0
    6.3491    3.4738    0.3290 C   0  0  0  0  0  0  0  0  0  0  0  0
    5.1102    2.4585    0.8910 S   0  0  0  0  0  0  0  0  0  0  0  0
    1.8722   -2.8958    1.4325 H   0  0  0  0  0  0  0  0  0  0  0  0
    0.5679   -1.5987    1.6346 H   0  0  0  0  0  0  0  0  0  0  0  0
    1.2213   -2.4662    3.0075 H   0  0  0  0  0  0  0  0  0  0  0  0
    3.4137   -1.6259    2.8202 H   0  0  0  0  0  0  0  0  0  0  0  0
    1.6585   -0.6051    4.0971 H   0  0  0  0  0  0  0  0  0  0  0  0
    1.3574    0.6510    2.8455 H   0  0  0  0  0  0  0  0  0  0  0  0
    3.0087    0.5043    3.6796 H   0  0  0  0  0  0  0  0  0  0  0  0
    3.7613   -1.3234    0.5336 H   0  0  0  0  0  0  0  0  0  0  0  0
    4.2269    0.0653    1.4980 H   0  0  0  0  0  0  0  0  0  0  0  0
    2.0411    1.2547    0.7149 H   0  0  0  0  0  0  0  0  0  0  0  0
    1.6930   -1.3895   -0.6132 H   0  0  0  0  0  0  0  0  0  0  0  0
   -0.9566   -1.5541   -0.6959 H   0  0  0  0  0  0  0  0  0  0  0  0
    0.9507   -1.7577   -2.4652 H   0  0  0  0  0  0  0  0  0  0  0  0
   -0.6539   -2.3966   -2.9130 H   0  0  0  0  0  0  0  0  0  0  0  0
    0.7561    0.0561   -3.9236 H   0  0  0  0  0  0  0  0  0  0  0  0
   -0.5005   -0.9537   -4.7055 H   0  0  0  0  0  0  0  0  0  0  0  0
   -2.1061    0.5138   -4.0239 H   0  0  0  0  0  0  0  0  0  0  0  0
   -0.9461    1.4938   -3.0541 H   0  0  0  0  0  0  0  0  0  0  0  0
   -3.6392    0.2624    0.2941 H   0  0  0  0  0  0  0  0  0  0  0  0
   -2.8981   -1.9104    0.2268 H   0  0  0  0  0  0  0  0  0  0  0  0
   -4.0755   -2.4767   -1.0032 H   0  0  0  0  0  0  0  0  0  0  0  0
   -4.6262   -1.4299    1.8613 H   0  0  0  0  0  0  0  0  0  0  0  0
   -5.8968   -1.9339    0.7181 H   0  0  0  0  0  0  0  0  0  0  0  0
   -5.3642   -3.7448    2.2341 H   0  0  0  0  0  0  0  0  0  0  0  0
   -4.8554   -4.2434    0.6129 H   0  0  0  0  0  0  0  0  0  0  0  0
   -2.5458   -3.7167    0.9948 H   0  0  0  0  0  0  0  0  0  0  0  0
   -3.2080   -4.8192    2.2340 H   0  0  0  0  0  0  0  0  0  0  0  0
   -2.1663   -3.3431    3.5242 H   0  0  0  0  0  0  0  0  0  0  0  0
   -3.7735   -2.8240    3.5328 H   0  0  0  0  0  0  0  0  0  0  0  0
   -6.0317   -0.3880   -1.4111 H   0  0  0  0  0  0  0  0  0  0  0  0
   -7.5368    2.5821    0.0758 H   0  0  0  0  0  0  0  0  0  0  0  0
   -8.0527    0.9036    0.6612 H   0  0  0  0  0  0  0  0  0  0  0  0
   -7.7585    1.2582   -1.0642 H   0  0  0  0  0  0  0  0  0  0  0  0
    7.0152    4.0799   -2.9229 H   0  0  0  0  0  0  0  0  0  0  0  0
    8.6985    5.4445   -1.9343 H   0  0  0  0  0  0  0  0  0  0  0  0
    8.9673    5.6108    0.5090 H   0  0  0  0  0  0  0  0  0  0  0  0
    7.4052    4.3013    1.9837 H   0  0  0  0  0  0  0  0  0  0  0  0
  1  2  1  0
  2  3  1  0
  2  4  1  0
  4  5  1  0
  5  6  1  0
  6  7  1  0
  7  8  2  0
  7  9  1  0
  9 10  1  0
 10 11  1  0
 11 12  1  0
 12 13  1  0
 13 14  1  0
 14 15  2  0
 14 16  1  0
 16 17  1  0
 17 18  1  0
 18 19  1  0
 19 20  1  0
 20 21  1  0
 16 22  1  0
 22 23  1  0
 23 24  1  0
 23 25  2  0
  5 26  1  0
 26 27  2  0
 26 28  1  0
 28 29  2  0
 29 30  1  0
 30 31  2  0
 31 32  1  0
 32 33  2  0
 33 34  1  0
 34 35  2  0
 35 36  1  0
 13  9  1  0
 36 28  1  0
 35 30  1  0
  1 37  1  0
  1 38  1  0
  1 39  1  0
  2 40  1  0
  3 41  1  0
  3 42  1  0
  3 43  1  0
  4 44  1  0
  4 45  1  0
  5 46  1  1
  6 47  1  0
  9 48  1  1
 10 49  1  0
 10 50  1  0
 11 51  1  0
 11 52  1  0
 12 53  1  0
 12 54  1  0
 16 55  1  1
 17 56  1  0
 17 57  1  0
 18 58  1  0
 18 59  1  0
 19 60  1  0
 19 61  1  0
 20 62  1  0
 20 63  1  0
 21 64  1  0
 21 65  1  0
 22 66  1  0
 24 67  1  0
 24 68  1  0
 24 69  1  0
 31 70  1  0
 32 71  1  0
 33 72  1  0
 34 73  1  0
M  END
$$$$
[H]c1c([H])c([H])c(C2=NC([H])([H])c3nnc(C([H])([H])[H])n3-c3c([H])c([H])c(Cl)c([H])c32)c(Cl)c1[H]
     RDKit          3D

 35 38  0  0  0  0  0  0  0  0999 V2000
    4.0307   -0.4201   -1.0699 C   0  0  0  0  0  0  0  0  0  0  0  0
    3.3908   -0.6986    0.2265 C   0  0  0  0  0  0  0  0  0  0  0  0
    3.8234   -1.5595    1.2051 N   0  0  0  0  0  0  0  0  0  0  0  0
    2.9220   -1.5902    2.2053 N   0  0  0  0  0  0  0  0  0  0  0  0
    1.9207   -0.7864    1.9220 C   0  0  0  0  0  0  0  0  0  0  0  0
    0.6545   -0.5063    2.7022 C   0  0  0  0  0  0  0  0  0  0  0  0
   -0.5327   -0.7346    1.8842 N   0  0  0  0  0  0  0  0  0  0  0  0
   -0.8154   -0.2721    0.6850 C   0  0  0  0  0  0  0  0  0  0  0  0
   -2.0557   -0.6352    0.0515 C   0  0  0  0  0  0  0  0  0  0  0  0
   -2.4940   -0.4144   -1.2021 C   0  0  0  0  0  0  0  0  0  0  0  0
   -3.7527   -0.7521   -1.6290 C   0  0  0  0  0  0  0  0  0  0  0  0
   -4.6570   -1.3579   -0.7604 C   0  0  0  0  0  0  0  0  0  0  0  0
   -4.2220   -1.5944    0.5302 C   0  0  0  0  0  0  0  0  0  0  0  0
   -2.9726   -1.2503    0.9298 C   0  0  0  0  0  0  0  0  0  0  0  0
   -2.5165   -1.5994    2.6099 Cl  0  0  0  0  0  0  0  0  0  0  0  0
    0.0468    0.6933    0.0256 C   0  0  0  0  0  0  0  0  0  0  0  0
   -0.6131    1.6975   -0.6222 C   0  0  0  0  0  0  0  0  0  0  0  0
    0.0995    2.6784   -1.2750 C   0  0  0  0  0  0  0  0  0  0  0  0
   -0.8060    3.9409   -2.1091 Cl  0  0  0  0  0  0  0  0  0  0  0  0
    1.4992    2.6628   -1.2785 C   0  0  0  0  0  0  0  0  0  0  0  0
    2.2088    1.6488   -0.6171 C   0  0  0  0  0  0  0  0  0  0  0  0
    1.4424    0.7122    0.0016 C   0  0  0  0  0  0  0  0  0  0  0  0
    2.2412   -0.2436    0.6879 N   0  0  0  0  0  0  0  0  0  0  0  0
    4.9499    0.1755   -1.0577 H   0  0  0  0  0  0  0  0  0  0  0  0
    3.3460   -0.2503   -1.9241 H   0  0  0  0  0  0  0  0  0  0  0  0
    4.4545   -1.4385   -1.3788 H   0  0  0  0  0  0  0  0  0  0  0  0
    0.6141   -1.1647    3.5610 H   0  0  0  0  0  0  0  0  0  0  0  0
    0.6815    0.5736    2.9336 H   0  0  0  0  0  0  0  0  0  0  0  0
   -1.8259   -0.0091   -1.9274 H   0  0  0  0  0  0  0  0  0  0  0  0
   -4.1133   -0.5775   -2.6295 H   0  0  0  0  0  0  0  0  0  0  0  0
   -5.6518   -1.6428   -1.0394 H   0  0  0  0  0  0  0  0  0  0  0  0
   -4.9071   -2.0718    1.2437 H   0  0  0  0  0  0  0  0  0  0  0  0
   -1.6955    1.7158   -0.5471 H   0  0  0  0  0  0  0  0  0  0  0  0
    2.0489    3.4174   -1.7815 H   0  0  0  0  0  0  0  0  0  0  0  0
    3.2565    1.6536   -0.5560 H   0  0  0  0  0  0  0  0  0  0  0  0
  1  2  1  0
  2  3  2  0
  3  4  1  0
  4  5  2  0
  5  6  1  0
  6  7  1  0
  7  8  2  0
  8  9  1  0
  9 10  2  0
 10 11  1  0
 11 12  2  0
 12 13  1  0
 13 14  2  0
 14 15  1  0
  8 16  1  0
 16 17  2  0
 17 18  1  0
 18 19  1  0
 18 20  2  0
 20 21  1  0
 21 22  2  0
 22 23  1  0
 23  2  1  0
 23  5  1  0
 14  9  1  0
 22 16  1  0
  1 24  1  0
  1 25  1  0
  1 26  1  0
  6 27  1  0
  6 28  1  0
 10 29  1  0
 11 30  1  0
 12 31  1  0
 13 32  1  0
 17 33  1  0
 20 34  1  0
 21 35  1  0
M  END
$$$$
[H]c1nc2nc(N([H])[H])nc(N([H])[H])c2nc1C([H])([H])N(c1c([H])c([H])c(Cl)c([H])c1[H])C([H])([H])[H]
     RDKit          3D

 36 38  0  0  0  0  0  0  0  0999 V2000
   -1.3369   -1.4768    0.0454 C   0  0  0  0  0  0  0  0  0  0  0  0
   -1.7061   -0.1070    0.3370 N   0  0  0  0  0  0  0  0  0  0  0  0
   -0.7661    0.7424    0.9943 C   0  0  0  0  0  0  0  0  0  0  0  0
    0.6010    0.7236    0.4103 C   0  0  0  0  0  0  0  0  0  0  0  0
    1.0429    1.5546   -0.5861 C   0  0  0  0  0  0  0  0  0  0  0  0
    2.3086    1.4912   -1.0802 N   0  0  0  0  0  0  0  0  0  0  0  0
    3.1972    0.6001   -0.6094 C   0  0  0  0  0  0  0  0  0  0  0  0
    4.4647    0.4985   -1.0627 N   0  0  0  0  0  0  0  0  0  0  0  0
    5.3536   -0.4079   -0.5734 C   0  0  0  0  0  0  0  0  0  0  0  0
    6.6737   -0.4482   -1.1029 N   0  0  0  0  0  0  0  0  0  0  0  0
    4.9366   -1.2309    0.4033 N   0  0  0  0  0  0  0  0  0  0  0  0
    3.6615   -1.1594    0.8891 C   0  0  0  0  0  0  0  0  0  0  0  0
    3.2009   -2.0260    1.9152 N   0  0  0  0  0  0  0  0  0  0  0  0
    2.7557   -0.2383    0.3941 C   0  0  0  0  0  0  0  0  0  0  0  0
    1.5127   -0.1837    0.8864 N   0  0  0  0  0  0  0  0  0  0  0  0
   -3.0269    0.3026   -0.0069 C   0  0  0  0  0  0  0  0  0  0  0  0
   -3.9681    0.5459    1.0000 C   0  0  0  0  0  0  0  0  0  0  0  0
   -5.2635    0.9139    0.7384 C   0  0  0  0  0  0  0  0  0  0  0  0
   -5.6973    1.0621   -0.5743 C   0  0  0  0  0  0  0  0  0  0  0  0
   -7.3422    1.5255   -0.9476 Cl  0  0  0  0  0  0  0  0  0  0  0  0
   -4.7839    0.8259   -1.5732 C   0  0  0  0  0  0  0  0  0  0  0  0
   -3.4603    0.4495   -1.3029 C   0  0  0  0  0  0  0  0  0  0  0  0
   -0.2933   -1.4902   -0.3347 H   0  0  0  0  0  0  0  0  0  0  0  0
   -2.0308   -1.8795   -0.7405 H   0  0  0  0  0  0  0  0  0  0  0  0
   -1.4816   -2.0679    0.9678 H   0  0  0  0  0  0  0  0  0  0  0  0
   -1.1767    1.7772    1.0517 H   0  0  0  0  0  0  0  0  0  0  0  0
   -0.7222    0.4036    2.0683 H   0  0  0  0  0  0  0  0  0  0  0  0
    0.3293    2.2855   -0.9786 H   0  0  0  0  0  0  0  0  0  0  0  0
    6.9370   -1.0220   -1.9230 H   0  0  0  0  0  0  0  0  0  0  0  0
    7.4792    0.1048   -0.6950 H   0  0  0  0  0  0  0  0  0  0  0  0
    3.0040   -3.0249    1.6506 H   0  0  0  0  0  0  0  0  0  0  0  0
    3.0415   -1.7703    2.8983 H   0  0  0  0  0  0  0  0  0  0  0  0
   -3.6119    0.4267    2.0229 H   0  0  0  0  0  0  0  0  0  0  0  0
   -5.9769    1.0981    1.5460 H   0  0  0  0  0  0  0  0  0  0  0  0
   -5.0958    0.9359   -2.6025 H   0  0  0  0  0  0  0  0  0  0  0  0
   -2.7596    0.2654   -2.1256 H   0  0  0  0  0  0  0  0  0  0  0  0
  1  2  1  0
  2  3  1  0
  3  4  1  0
  4  5  2  0
  5  6  1  0
  6  7  2  0
  7  8  1  0
  8  9  2  0
  9 10  1  0
  9 11  1  0
 11 12  2  0
 12 13  1  0
 12 14  1  0
 14 15  2  0
  2 16  1  0
 16 17  2  0
 17 18  1  0
 18 19  2  0
 19 20  1  0
 19 21  1  0
 21 22  2  0
 15  4  1  0
 22 16  1  0
 14  7  1  0
  1 23  1  0
  1 24  1  0
  1 25  1  0
  3 26  1  0
  3 27  1  0
  5 28  1  0
 10 29  1  0
 10 30  1  0
 13 31  1  0
 13 32  1  0
 17 33  1  0
 18 34  1  0
 21 35  1  0
 22 36  1  0
M  END
$$$$
[H]OC(=O)C([H])([H])C([H])([H])[C@@]([H])(C(=O)N([H])[C@]([H])(C(=O)O[H])C([H])([H])c1c([H])c([H])c(O[H])c([H])c1[H])N([H])C(=O)[C@@]([H])(N([H])C(=O)C([H])([H])[H])C([H])([H])C([H])(C([H])([H])[H])C([H])([H])[H]
     RDKit          3D

 64 64  0  0  0  0  0  0  0  0999 V2000
   -1.7513    2.9968   -0.1009 C   0  0  0  0  0  0  0  0  0  0  0  0
   -2.8529    2.9318   -1.1137 C   0  0  0  0  0  0  0  0  0  0  0  0
   -2.3647    3.8254   -2.2798 C   0  0  0  0  0  0  0  0  0  0  0  0
   -3.1717    1.6128   -1.6643 C   0  0  0  0  0  0  0  0  0  0  0  0
   -3.6068    0.5308   -0.7115 C   0  0  2  0  0  0  0  0  0  0  0  0
   -4.7332    0.8830    0.0705 N   0  0  0  0  0  0  0  0  0  0  0  0
   -6.0368    0.3280   -0.0089 C   0  0  0  0  0  0  0  0  0  0  0  0
   -7.1465    0.7704    0.8613 C   0  0  0  0  0  0  0  0  0  0  0  0
   -6.2504   -0.5706   -0.8496 O   0  0  0  0  0  0  0  0  0  0  0  0
   -2.4326   -0.0091   -0.0094 C   0  0  0  0  0  0  0  0  0  0  0  0
   -2.4467    0.0378    1.2558 O   0  0  0  0  0  0  0  0  0  0  0  0
   -1.3199   -0.5664   -0.6555 N   0  0  0  0  0  0  0  0  0  0  0  0
   -0.1975   -1.0525    0.1168 C   0  0  1  0  0  0  0  0  0  0  0  0
   -0.6090   -2.5157    0.4745 C   0  0  0  0  0  0  0  0  0  0  0  0
   -0.8193   -3.2915   -0.7893 C   0  0  0  0  0  0  0  0  0  0  0  0
   -1.2054   -4.6800   -0.4297 C   0  0  0  0  0  0  0  0  0  0  0  0
   -1.4562   -5.5425   -1.5074 O   0  0  0  0  0  0  0  0  0  0  0  0
   -1.3130   -5.0946    0.7316 O   0  0  0  0  0  0  0  0  0  0  0  0
    1.0457   -1.0878   -0.6604 C   0  0  0  0  0  0  0  0  0  0  0  0
    1.0252   -0.8245   -1.9067 O   0  0  0  0  0  0  0  0  0  0  0  0
    2.2871   -1.4075   -0.0840 N   0  0  0  0  0  0  0  0  0  0  0  0
    3.5105   -1.4713   -0.8451 C   0  0  1  0  0  0  0  0  0  0  0  0
    4.2333   -0.1374   -0.9278 C   0  0  0  0  0  0  0  0  0  0  0  0
    4.6175    0.4385    0.3575 C   0  0  0  0  0  0  0  0  0  0  0  0
    5.8416    0.1744    0.9623 C   0  0  0  0  0  0  0  0  0  0  0  0
    6.1806    0.7491    2.1594 C   0  0  0  0  0  0  0  0  0  0  0  0
    5.3327    1.6124    2.8227 C   0  0  0  0  0  0  0  0  0  0  0  0
    5.6947    2.1986    4.0548 O   0  0  0  0  0  0  0  0  0  0  0  0
    4.1117    1.8892    2.2423 C   0  0  0  0  0  0  0  0  0  0  0  0
    3.7781    1.3095    1.0408 C   0  0  0  0  0  0  0  0  0  0  0  0
    4.3622   -2.5643   -0.3426 C   0  0  0  0  0  0  0  0  0  0  0  0
    5.5829   -2.8023   -0.9416 O   0  0  0  0  0  0  0  0  0  0  0  0
    3.9804   -3.2705    0.6212 O   0  0  0  0  0  0  0  0  0  0  0  0
   -1.3270    4.0506   -0.0661 H   0  0  0  0  0  0  0  0  0  0  0  0
   -0.9249    2.2970   -0.2649 H   0  0  0  0  0  0  0  0  0  0  0  0
   -2.1488    2.8202    0.9329 H   0  0  0  0  0  0  0  0  0  0  0  0
   -3.7171    3.4783   -0.6713 H   0  0  0  0  0  0  0  0  0  0  0  0
   -3.1694    3.8194   -3.0316 H   0  0  0  0  0  0  0  0  0  0  0  0
   -2.1580    4.8323   -1.9181 H   0  0  0  0  0  0  0  0  0  0  0  0
   -1.4466    3.3128   -2.6556 H   0  0  0  0  0  0  0  0  0  0  0  0
   -3.9305    1.6820   -2.4688 H   0  0  0  0  0  0  0  0  0  0  0  0
   -2.2430    1.2655   -2.2278 H   0  0  0  0  0  0  0  0  0  0  0  0
   -3.9697   -0.3585   -1.3508 H   0  0  0  0  0  0  0  0  0  0  0  0
   -4.5944    1.6383    0.7952 H   0  0  0  0  0  0  0  0  0  0  0  0
   -7.6384    1.6912    0.4497 H   0  0  0  0  0  0  0  0  0  0  0  0
   -7.9506    0.0086    0.9432 H   0  0  0  0  0  0  0  0  0  0  0  0
   -6.7474    1.0571    1.8587 H   0  0  0  0  0  0  0  0  0  0  0  0
   -1.2658   -0.6436   -1.6915 H   0  0  0  0  0  0  0  0  0  0  0  0
   -0.1197   -0.5624    1.0935 H   0  0  0  0  0  0  0  0  0  0  0  0
    0.1311   -2.9479    1.1514 H   0  0  0  0  0  0  0  0  0  0  0  0
   -1.5746   -2.4250    0.9911 H   0  0  0  0  0  0  0  0  0  0  0  0
    0.0952   -3.2781   -1.4413 H   0  0  0  0  0  0  0  0  0  0  0  0
   -1.6754   -2.8018   -1.3184 H   0  0  0  0  0  0  0  0  0  0  0  0
   -2.3781   -5.6482   -1.8838 H   0  0  0  0  0  0  0  0  0  0  0  0
    2.3283   -1.6114    0.9325 H   0  0  0  0  0  0  0  0  0  0  0  0
    3.2212   -1.6484   -1.9420 H   0  0  0  0  0  0  0  0  0  0  0  0
    5.1783   -0.3421   -1.5010 H   0  0  0  0  0  0  0  0  0  0  0  0
    3.6143    0.5348   -1.5648 H   0  0  0  0  0  0  0  0  0  0  0  0
    6.5735   -0.5015    0.4974 H   0  0  0  0  0  0  0  0  0  0  0  0
    7.1442    0.5432    2.6437 H   0  0  0  0  0  0  0  0  0  0  0  0
    6.1824    3.0849    4.1048 H   0  0  0  0  0  0  0  0  0  0  0  0
    3.4271    2.5582    2.7280 H   0  0  0  0  0  0  0  0  0  0  0  0
    2.7967    1.5396    0.5927 H   0  0  0  0  0  0  0  0  0  0  0  0
    6.4167   -2.8451   -0.3564 H   0  0  0  0  0  0  0  0  0  0  0  0
  1  2  1  0
  2  3  1  0
  2  4  1  0
  4  5  1  0
  5  6  1  0
  6  7  1  0
  7  8  1  0
  7  9  2  0
  5 10  1  0
 10 11  2  0
 10 12  1  0
 12 13  1  0
 13 14  1  0
 14 15  1  0
 15 16  1  0
 16 17  1  0
 16 18  2  0
 13 19  1  0
 19 20  2  0
 19 21  1  0
 21 22  1  0
 22 23  1  0
 23 24  1  0
 24 25  2  0
 25 26  1  0
 26 27  2  0
 27 28  1  0
 27 29  1  0
 29 30  2  0
 22 31  1  0
 31 32  1  0
 31 33  2  0
 30 24  1  0
  1 34  1  0
  1 35  1  0
  1 36  1  0
  2 37  1  0
  3 38  1  0
  3 39  1  0
  3 40  1  0
  4 41  1  0
  4 42  1  0
  5 43  1  6
  6 44  1  0
  8 45  1  0
  8 46  1  0
  8 47  1  0
 12 48  1  0
 13 49  1  1
 14 50  1  0
 14 51  1  0
 15 52  1  0
 15 53  1  0
 17 54  1  0
 21 55  1  0
 22 56  1  6
 23 57  1  0
 23 58  1  0
 25 59  1  0
 26 60  1  0
 28 61  1  0
 29 62  1  0
 30 63  1  0
 32 64  1  0
M  END
$$$$
[H]c1c([H])c(S(=O)(=O)N([H])[H])c([H])c([H])c1N([H])C(=S)N([H])[C@]1([H])O[C@]([H])(C([H])([H])OC(=O)C([H])([H])[H])[C@@]([H])(OC(=O)C([H])([H])[H])[C@]([H])(OC(=O)C([H])([H])[H])[C@@]1([H])OC(=O)C([H])([H])[H]
     RDKit          3D

 64 65  0  0  0  0  0  0  0  0999 V2000
   -4.5827    2.6664    3.7375 C   0  0  0  0  0  0  0  0  0  0  0  0
   -3.3332    2.2694    3.0549 C   0  0  0  0  0  0  0  0  0  0  0  0
   -2.7897    3.0700    2.2639 O   0  0  0  0  0  0  0  0  0  0  0  0
   -2.7517    1.0390    3.2679 O   0  0  0  0  0  0  0  0  0  0  0  0
   -1.5796    0.5792    2.6711 C   0  0  0  0  0  0  0  0  0  0  0  0
   -1.6043    0.4953    1.1827 C   0  0  1  0  0  0  0  0  0  0  0  0
   -0.3717    0.0243    0.7479 O   0  0  0  0  0  0  0  0  0  0  0  0
   -0.2710   -0.0131   -0.6364 C   0  0  1  0  0  0  0  0  0  0  0  0
    1.0381   -0.5149   -0.9730 N   0  0  0  0  0  0  0  0  0  0  0  0
    2.2465    0.1185   -0.5200 C   0  0  0  0  0  0  0  0  0  0  0  0
    2.0782    1.4590    0.3606 S   0  0  0  0  0  0  0  0  0  0  0  0
    3.4722   -0.4417   -0.8980 N   0  0  0  0  0  0  0  0  0  0  0  0
    4.7556    0.0371   -0.5278 C   0  0  0  0  0  0  0  0  0  0  0  0
    5.8205   -0.0956   -1.4444 C   0  0  0  0  0  0  0  0  0  0  0  0
    7.0557    0.3291   -1.0753 C   0  0  0  0  0  0  0  0  0  0  0  0
    7.2597    0.8762    0.1661 C   0  0  0  0  0  0  0  0  0  0  0  0
    6.2573    1.0176    1.0710 C   0  0  0  0  0  0  0  0  0  0  0  0
    4.9741    0.5799    0.6977 C   0  0  0  0  0  0  0  0  0  0  0  0
    8.8846    1.4121    0.5932 S   0  0  0  0  0  0  0  0  0  0  0  0
    9.7659    0.1375    1.3277 N   0  0  0  0  0  0  0  0  0  0  0  0
    8.7437    2.5941    1.5313 O   0  0  0  0  0  0  0  0  0  0  0  0
    9.5735    1.8201   -0.6721 O   0  0  0  0  0  0  0  0  0  0  0  0
   -1.3255   -0.8979   -1.2636 C   0  0  2  0  0  0  0  0  0  0  0  0
   -1.1603   -0.9246   -2.6449 O   0  0  0  0  0  0  0  0  0  0  0  0
   -0.9844   -2.1876   -3.2432 C   0  0  0  0  0  0  0  0  0  0  0  0
   -0.8020   -2.3054   -4.7060 C   0  0  0  0  0  0  0  0  0  0  0  0
   -0.9810   -3.2159   -2.5453 O   0  0  0  0  0  0  0  0  0  0  0  0
   -2.6720   -0.2962   -0.8448 C   0  0  1  0  0  0  0  0  0  0  0  0
   -3.7471   -0.9178   -1.4585 O   0  0  0  0  0  0  0  0  0  0  0  0
   -4.6230   -0.1880   -2.2433 C   0  0  0  0  0  0  0  0  0  0  0  0
   -5.8009   -0.8093   -2.9295 C   0  0  0  0  0  0  0  0  0  0  0  0
   -4.3974    1.0507   -2.3699 O   0  0  0  0  0  0  0  0  0  0  0  0
   -2.6889   -0.4481    0.6797 C   0  0  2  0  0  0  0  0  0  0  0  0
   -3.9394   -0.2060    1.2314 O   0  0  0  0  0  0  0  0  0  0  0  0
   -4.6076   -1.2330    1.9114 C   0  0  0  0  0  0  0  0  0  0  0  0
   -5.9454   -1.0464    2.5258 C   0  0  0  0  0  0  0  0  0  0  0  0
   -4.0661   -2.3612    2.0133 O   0  0  0  0  0  0  0  0  0  0  0  0
   -5.4246    2.2077    3.1412 H   0  0  0  0  0  0  0  0  0  0  0  0
   -4.7544    3.7453    3.7446 H   0  0  0  0  0  0  0  0  0  0  0  0
   -4.6724    2.2212    4.7505 H   0  0  0  0  0  0  0  0  0  0  0  0
   -1.3282   -0.4129    3.1137 H   0  0  0  0  0  0  0  0  0  0  0  0
   -0.7457    1.2523    2.9573 H   0  0  0  0  0  0  0  0  0  0  0  0
   -1.7763    1.4588    0.7091 H   0  0  0  0  0  0  0  0  0  0  0  0
   -0.3835    0.9941   -1.1015 H   0  0  0  0  0  0  0  0  0  0  0  0
    1.1244   -1.3558   -1.5580 H   0  0  0  0  0  0  0  0  0  0  0  0
    3.4543   -1.3234   -1.5326 H   0  0  0  0  0  0  0  0  0  0  0  0
    5.6367   -0.5247   -2.4051 H   0  0  0  0  0  0  0  0  0  0  0  0
    7.8675    0.2232   -1.7860 H   0  0  0  0  0  0  0  0  0  0  0  0
    6.4283    1.4502    2.0475 H   0  0  0  0  0  0  0  0  0  0  0  0
    4.2211    0.6948    1.4641 H   0  0  0  0  0  0  0  0  0  0  0  0
    9.1827   -0.7291    1.2930 H   0  0  0  0  0  0  0  0  0  0  0  0
    9.9409    0.3199    2.3523 H   0  0  0  0  0  0  0  0  0  0  0  0
   -1.2970   -1.9089   -0.7881 H   0  0  0  0  0  0  0  0  0  0  0  0
   -1.3107   -3.2543   -5.0262 H   0  0  0  0  0  0  0  0  0  0  0  0
   -1.2084   -1.4188   -5.2175 H   0  0  0  0  0  0  0  0  0  0  0  0
    0.2947   -2.4487   -4.8897 H   0  0  0  0  0  0  0  0  0  0  0  0
   -2.5904    0.7927   -1.0382 H   0  0  0  0  0  0  0  0  0  0  0  0
   -5.5739   -1.0200   -3.9822 H   0  0  0  0  0  0  0  0  0  0  0  0
   -6.2246   -1.6481   -2.3710 H   0  0  0  0  0  0  0  0  0  0  0  0
   -6.5831    0.0046   -2.9468 H   0  0  0  0  0  0  0  0  0  0  0  0
   -2.3509   -1.5048    0.8616 H   0  0  0  0  0  0  0  0  0  0  0  0
   -6.3767   -0.0637    2.3229 H   0  0  0  0  0  0  0  0  0  0  0  0
   -5.8294   -1.1367    3.6275 H   0  0  0  0  0  0  0  0  0  0  0  0
   -6.6210   -1.8728    2.2188 H   0  0  0  0  0  0  0  0  0  0  0  0
  1  2  1  0
  2  3  2  0
  2  4  1  0
  4  5  1  0
  5  6  1  0
  6  7  1  0
  7  8  1  0
  8  9  1  0
  9 10  1  0
 10 11  2  0
 10 12  1  0
 12 13  1  0
 13 14  2  0
 14 15  1  0
 15 16  2  0
 16 17  1  0
 17 18  2  0
 16 19  1  0
 19 20  1  0
 19 21  2  0
 19 22  2  0
  8 23  1  0
 23 24  1  0
 24 25  1  0
 25 26  1  0
 25 27  2  0
 23 28  1  0
 28 29  1  0
 29 30  1  0
 30 31  1  0
 30 32  2  0
 28 33  1  0
 33 34  1  0
 34 35  1  0
 35 36  1  0
 35 37  2  0
 33  6  1  0
 18 13  1  0
  1 38  1  0
  1 39  1  0
  1 40  1  0
  5 41  1  0
  5 42  1  0
  6 43  1  6
  8 44  1  6
  9 45  1  0
 12 46  1  0
 14 47  1  0
 15 48  1  0
 17 49  1  0
 18 50  1  0
 20 51  1  0
 20 52  1  0
 23 53  1  1
 26 54  1  0
 26 55  1  0
 26 56  1  0
 28 57  1  1
 31 58  1  0
 31 59  1  0
 31 60  1  0
 33 61  1  6
 36 62  1  0
 36 63  1  0
 36 64  1  0
M  END
$$$$
[H]ON([H])C(=O)[C@@]1([H])N(C(=O)[C@@]([H])(N([H])C(=O)[C@]([H])(C([H])([H])N(O[H])C([H])=O)C([H])([H])C([H])([H])C([H])([H])C([H])([H])[H])C([H])([H])C([H])(C([H])([H])[H])C([H])([H])[H])C([H])([H])C([H])([H])C1([H])[H]
     RDKit          3D

 63 63  0  0  0  0  0  0  0  0999 V2000
    5.7065   -1.4045   -1.3682 C   0  0  0  0  0  0  0  0  0  0  0  0
    5.0712   -0.0542   -0.9101 C   0  0  0  0  0  0  0  0  0  0  0  0
    4.1754   -0.3724    0.2132 C   0  0  0  0  0  0  0  0  0  0  0  0
    3.4001    0.6294    0.9409 C   0  0  0  0  0  0  0  0  0  0  0  0
    2.4069    1.4896    0.3158 C   0  0  1  0  0  0  0  0  0  0  0  0
    2.7993    2.5070   -0.6696 C   0  0  0  0  0  0  0  0  0  0  0  0
    3.6350    3.5303   -0.1077 N   0  0  0  0  0  0  0  0  0  0  0  0
    2.9324    4.5974    0.4392 O   0  0  0  0  0  0  0  0  0  0  0  0
    5.0168    3.6255   -0.0177 C   0  0  0  0  0  0  0  0  0  0  0  0
    5.5780    4.6299    0.5422 O   0  0  0  0  0  0  0  0  0  0  0  0
    1.2011    0.7043   -0.1652 C   0  0  0  0  0  0  0  0  0  0  0  0
    0.8929    0.7195   -1.3696 O   0  0  0  0  0  0  0  0  0  0  0  0
    0.4708   -0.0146    0.7639 N   0  0  0  0  0  0  0  0  0  0  0  0
   -0.7354   -0.8172    0.3801 C   0  0  1  0  0  0  0  0  0  0  0  0
   -0.5458   -2.1966    0.8750 C   0  0  0  0  0  0  0  0  0  0  0  0
   -1.5432   -3.2442    0.6751 C   0  0  0  0  0  0  0  0  0  0  0  0
   -2.8955   -3.0819    1.2541 C   0  0  0  0  0  0  0  0  0  0  0  0
   -1.6144   -3.7118   -0.7960 C   0  0  0  0  0  0  0  0  0  0  0  0
   -1.8355   -0.1545    1.1458 C   0  0  0  0  0  0  0  0  0  0  0  0
   -1.6537    0.1369    2.3796 O   0  0  0  0  0  0  0  0  0  0  0  0
   -3.0854    0.1881    0.5980 N   0  0  0  0  0  0  0  0  0  0  0  0
   -4.1949    0.7777    1.2957 C   0  0  0  0  0  0  0  0  0  0  0  0
   -5.4305    0.3878    0.5077 C   0  0  0  0  0  0  0  0  0  0  0  0
   -4.9515   -0.2048   -0.7861 C   0  0  0  0  0  0  0  0  0  0  0  0
   -3.4573    0.0510   -0.7886 C   0  0  1  0  0  0  0  0  0  0  0  0
   -3.1285    1.2610   -1.5739 C   0  0  0  0  0  0  0  0  0  0  0  0
   -2.5888    2.2360   -1.0089 O   0  0  0  0  0  0  0  0  0  0  0  0
   -3.4130    1.3368   -2.9522 N   0  0  0  0  0  0  0  0  0  0  0  0
   -3.1400    2.4054   -3.7202 O   0  0  0  0  0  0  0  0  0  0  0  0
    6.3756   -1.7859   -0.5966 H   0  0  0  0  0  0  0  0  0  0  0  0
    4.8326   -2.0676   -1.5288 H   0  0  0  0  0  0  0  0  0  0  0  0
    6.1711   -1.2213   -2.3391 H   0  0  0  0  0  0  0  0  0  0  0  0
    4.6046    0.3239   -1.8355 H   0  0  0  0  0  0  0  0  0  0  0  0
    5.9396    0.5707   -0.5810 H   0  0  0  0  0  0  0  0  0  0  0  0
    4.8227   -0.9113    0.9899 H   0  0  0  0  0  0  0  0  0  0  0  0
    3.5310   -1.2422   -0.1455 H   0  0  0  0  0  0  0  0  0  0  0  0
    4.1452    1.3420    1.4666 H   0  0  0  0  0  0  0  0  0  0  0  0
    2.9343    0.1450    1.8785 H   0  0  0  0  0  0  0  0  0  0  0  0
    1.9384    2.0973    1.1881 H   0  0  0  0  0  0  0  0  0  0  0  0
    1.8484    3.0088   -1.0303 H   0  0  0  0  0  0  0  0  0  0  0  0
    3.2646    2.1194   -1.6060 H   0  0  0  0  0  0  0  0  0  0  0  0
    2.3348    4.3015    1.1459 H   0  0  0  0  0  0  0  0  0  0  0  0
    5.6982    2.8969   -0.3949 H   0  0  0  0  0  0  0  0  0  0  0  0
    0.7147   -0.0356    1.7566 H   0  0  0  0  0  0  0  0  0  0  0  0
   -0.8530   -0.6657   -0.6778 H   0  0  0  0  0  0  0  0  0  0  0  0
    0.4219   -2.5740    0.4026 H   0  0  0  0  0  0  0  0  0  0  0  0
   -0.2639   -2.2118    1.9782 H   0  0  0  0  0  0  0  0  0  0  0  0
   -1.1072   -4.1779    1.1760 H   0  0  0  0  0  0  0  0  0  0  0  0
   -3.2502   -4.0938    1.6191 H   0  0  0  0  0  0  0  0  0  0  0  0
   -2.9570   -2.4304    2.1260 H   0  0  0  0  0  0  0  0  0  0  0  0
   -3.6782   -2.7848    0.5294 H   0  0  0  0  0  0  0  0  0  0  0  0
   -1.7816   -2.8910   -1.4887 H   0  0  0  0  0  0  0  0  0  0  0  0
   -2.3020   -4.5545   -0.8638 H   0  0  0  0  0  0  0  0  0  0  0  0
   -0.5843   -4.1301   -0.9988 H   0  0  0  0  0  0  0  0  0  0  0  0
   -4.3338    0.3745    2.3187 H   0  0  0  0  0  0  0  0  0  0  0  0
   -4.1111    1.8823    1.3988 H   0  0  0  0  0  0  0  0  0  0  0  0
   -6.0317    1.3122    0.3626 H   0  0  0  0  0  0  0  0  0  0  0  0
   -6.0238   -0.4029    1.0433 H   0  0  0  0  0  0  0  0  0  0  0  0
   -5.2176   -1.2538   -0.9120 H   0  0  0  0  0  0  0  0  0  0  0  0
   -5.4331    0.3783   -1.6207 H   0  0  0  0  0  0  0  0  0  0  0  0
   -3.0057   -0.8633   -1.2498 H   0  0  0  0  0  0  0  0  0  0  0  0
   -3.8627    0.5172   -3.4121 H   0  0  0  0  0  0  0  0  0  0  0  0
   -3.8538    3.0714   -3.7405 H   0  0  0  0  0  0  0  0  0  0  0  0
  1  2  1  0
  2  3  1  0
  3  4  1  0
  4  5  1  0
  5  6  1  0
  6  7  1  0
  7  8  1  0
  7  9  1  0
  9 10  2  0
  5 11  1  0
 11 12  2  0
 11 13  1  0
 13 14  1  0
 14 15  1  0
 15 16  1  0
 16 17  1  0
 16 18  1  0
 14 19  1  0
 19 20  2  0
 19 21  1  0
 21 22  1  0
 22 23  1  0
 23 24  1  0
 24 25  1  0
 25 26  1  0
 26 27  2  0
 26 28  1  0
 28 29  1  0
 25 21  1  0
  1 30  1  0
  1 31  1  0
  1 32  1  0
  2 33  1  0
  2 34  1  0
  3 35  1  0
  3 36  1  0
  4 37  1  0
  4 38  1  0
  5 39  1  1
  6 40  1  0
  6 41  1  0
  8 42  1  0
  9 43  1  0
 13 44  1  0
 14 45  1  6
 15 46  1  0
 15 47  1  0
 16 48  1  0
 17 49  1  0
 17 50  1  0
 17 51  1  0
 18 52  1  0
 18 53  1  0
 18 54  1  0
 22 55  1  0
 22 56  1  0
 23 57  1  0
 23 58  1  0
 24 59  1  0
 24 60  1  0
 25 61  1  6
 28 62  1  0
 29 63  1  0
M  END
$$$$
[H]N=C(c1c([H])c([H])c([H])c(C([H])([H])[C@@]([H])(C(=O)N2C([H])([H])C([H])([H])C([H])([H])[C@@]2([H])C(=O)N([H])C([H])(C(=N[H])N([H])[H])C([H])([H])c2c([H])c([H])c([H])c([H])c2[H])N([H])C(=O)OC(C([H])([H])[H])(C([H])([H])[H])C([H])([H])[H])c1[H])N([H])[H]
     RDKit          3D

 79 81  0  0  0  0  0  0  0  0999 V2000
   -5.7783   -3.9991    0.0008 C   0  0  0  0  0  0  0  0  0  0  0  0
   -4.4297   -4.7022   -0.0996 C   0  0  0  0  0  0  0  0  0  0  0  0
   -4.0990   -5.0766   -1.5197 C   0  0  0  0  0  0  0  0  0  0  0  0
   -4.5546   -5.9792    0.7072 C   0  0  0  0  0  0  0  0  0  0  0  0
   -3.4111   -3.9303    0.5112 O   0  0  0  0  0  0  0  0  0  0  0  0
   -3.0683   -2.6702    0.1251 C   0  0  0  0  0  0  0  0  0  0  0  0
   -3.6584   -2.1075   -0.8265 O   0  0  0  0  0  0  0  0  0  0  0  0
   -2.0413   -1.9791    0.7930 N   0  0  0  0  0  0  0  0  0  0  0  0
   -1.6590   -0.5844    0.3683 C   0  0  1  0  0  0  0  0  0  0  0  0
   -1.9419    0.3161    1.5140 C   0  0  0  0  0  0  0  0  0  0  0  0
   -1.6721    1.7308    1.2803 C   0  0  0  0  0  0  0  0  0  0  0  0
   -0.5050    2.3859    1.5993 C   0  0  0  0  0  0  0  0  0  0  0  0
   -0.2648    3.7212    1.3726 C   0  0  0  0  0  0  0  0  0  0  0  0
   -1.2378    4.4945    0.7855 C   0  0  0  0  0  0  0  0  0  0  0  0
   -2.4313    3.8911    0.4431 C   0  0  0  0  0  0  0  0  0  0  0  0
   -2.6473    2.5542    0.6801 C   0  0  0  0  0  0  0  0  0  0  0  0
   -3.4699    4.7294   -0.1884 C   0  0  0  0  0  0  0  0  0  0  0  0
   -3.2596    6.1045   -0.4433 N   0  0  0  0  0  0  0  0  0  0  0  0
   -4.5963    4.2065   -0.5197 N   0  0  0  0  0  0  0  0  0  0  0  0
   -0.2552   -0.7570   -0.0273 C   0  0  0  0  0  0  0  0  0  0  0  0
    0.4981   -1.5059    0.6653 O   0  0  0  0  0  0  0  0  0  0  0  0
    0.2859   -0.1258   -1.1686 N   0  0  0  0  0  0  0  0  0  0  0  0
   -0.4103    0.8329   -1.9903 C   0  0  0  0  0  0  0  0  0  0  0  0
    0.3209    0.8593   -3.2944 C   0  0  0  0  0  0  0  0  0  0  0  0
    1.3286   -0.2421   -3.2263 C   0  0  0  0  0  0  0  0  0  0  0  0
    1.5882   -0.4107   -1.7631 C   0  0  1  0  0  0  0  0  0  0  0  0
    2.7341    0.2734   -1.2203 C   0  0  0  0  0  0  0  0  0  0  0  0
    3.8242    0.2241   -1.9127 O   0  0  0  0  0  0  0  0  0  0  0  0
    2.8499    1.0037   -0.0204 N   0  0  0  0  0  0  0  0  0  0  0  0
    4.0579    1.6560    0.4202 C   0  0  0  0  0  0  0  0  0  0  0  0
    4.6123    1.1236    1.7041 C   0  0  0  0  0  0  0  0  0  0  0  0
    4.9531   -0.3162    1.6104 C   0  0  0  0  0  0  0  0  0  0  0  0
    4.0977   -1.3430    1.8987 C   0  0  0  0  0  0  0  0  0  0  0  0
    4.4788   -2.6765    1.7911 C   0  0  0  0  0  0  0  0  0  0  0  0
    5.7619   -2.9637    1.3800 C   0  0  0  0  0  0  0  0  0  0  0  0
    6.6696   -1.9592    1.0750 C   0  0  0  0  0  0  0  0  0  0  0  0
    6.2439   -0.6638    1.1974 C   0  0  0  0  0  0  0  0  0  0  0  0
    3.8444    3.1212    0.4583 C   0  0  0  0  0  0  0  0  0  0  0  0
    3.4892    3.8082   -0.7327 N   0  0  0  0  0  0  0  0  0  0  0  0
    3.9706    3.7894    1.5371 N   0  0  0  0  0  0  0  0  0  0  0  0
   -5.9200   -3.2648   -0.8301 H   0  0  0  0  0  0  0  0  0  0  0  0
   -5.7939   -3.4055    0.9373 H   0  0  0  0  0  0  0  0  0  0  0  0
   -6.5801   -4.7619   -0.0473 H   0  0  0  0  0  0  0  0  0  0  0  0
   -3.2607   -4.4335   -1.9196 H   0  0  0  0  0  0  0  0  0  0  0  0
   -3.7448   -6.1423   -1.6047 H   0  0  0  0  0  0  0  0  0  0  0  0
   -4.9973   -5.0142   -2.1607 H   0  0  0  0  0  0  0  0  0  0  0  0
   -5.0546   -5.6754    1.6724 H   0  0  0  0  0  0  0  0  0  0  0  0
   -5.2517   -6.6564    0.1645 H   0  0  0  0  0  0  0  0  0  0  0  0
   -3.5832   -6.4599    0.9068 H   0  0  0  0  0  0  0  0  0  0  0  0
   -1.5461   -2.4328    1.5809 H   0  0  0  0  0  0  0  0  0  0  0  0
   -2.3139   -0.3284   -0.4725 H   0  0  0  0  0  0  0  0  0  0  0  0
   -1.3589   -0.0039    2.4354 H   0  0  0  0  0  0  0  0  0  0  0  0
   -3.0222    0.1994    1.7937 H   0  0  0  0  0  0  0  0  0  0  0  0
    0.2974    1.8261    2.0666 H   0  0  0  0  0  0  0  0  0  0  0  0
    0.6951    4.1830    1.6537 H   0  0  0  0  0  0  0  0  0  0  0  0
   -1.0788    5.5343    0.5972 H   0  0  0  0  0  0  0  0  0  0  0  0
   -3.5955    2.1348    0.3936 H   0  0  0  0  0  0  0  0  0  0  0  0
   -2.6924    6.4431   -1.2282 H   0  0  0  0  0  0  0  0  0  0  0  0
   -3.7029    6.7964    0.1981 H   0  0  0  0  0  0  0  0  0  0  0  0
   -5.3597    4.7530   -0.9667 H   0  0  0  0  0  0  0  0  0  0  0  0
   -0.4585    1.8474   -1.5228 H   0  0  0  0  0  0  0  0  0  0  0  0
   -1.4366    0.4213   -2.1485 H   0  0  0  0  0  0  0  0  0  0  0  0
    0.8196    1.8727   -3.3513 H   0  0  0  0  0  0  0  0  0  0  0  0
   -0.3756    0.7443   -4.1631 H   0  0  0  0  0  0  0  0  0  0  0  0
    0.8387   -1.1574   -3.6408 H   0  0  0  0  0  0  0  0  0  0  0  0
    2.2474   -0.0336   -3.8111 H   0  0  0  0  0  0  0  0  0  0  0  0
    1.7709   -1.5326   -1.6269 H   0  0  0  0  0  0  0  0  0  0  0  0
    2.0088    1.0606    0.5827 H   0  0  0  0  0  0  0  0  0  0  0  0
    4.8313    1.4623   -0.3687 H   0  0  0  0  0  0  0  0  0  0  0  0
    3.7883    1.1910    2.4679 H   0  0  0  0  0  0  0  0  0  0  0  0
    5.4803    1.7303    1.9917 H   0  0  0  0  0  0  0  0  0  0  0  0
    3.1048   -1.1044    2.2168 H   0  0  0  0  0  0  0  0  0  0  0  0
    3.7756   -3.4478    2.0274 H   0  0  0  0  0  0  0  0  0  0  0  0
    6.0962   -4.0043    1.2843 H   0  0  0  0  0  0  0  0  0  0  0  0
    7.6791   -2.2049    0.7519 H   0  0  0  0  0  0  0  0  0  0  0  0
    6.9378    0.1557    0.9635 H   0  0  0  0  0  0  0  0  0  0  0  0
    2.5336    3.6258   -1.1103 H   0  0  0  0  0  0  0  0  0  0  0  0
    4.1660    4.4414   -1.1667 H   0  0  0  0  0  0  0  0  0  0  0  0
    3.8385    4.8078    1.6407 H   0  0  0  0  0  0  0  0  0  0  0  0
  1  2  1  0
  2  3  1  0
  2  4  1  0
  2  5  1  0
  5  6  1  0
  6  7  2  0
  6  8  1  0
  8  9  1  0
  9 10  1  0
 10 11  1  0
 11 12  2  0
 12 13  1  0
 13 14  2  0
 14 15  1  0
 15 16  2  0
 15 17  1  0
 17 18  1  0
 17 19  2  3
  9 20  1  0
 20 21  2  0
 20 22  1  0
 22 23  1  0
 23 24  1  0
 24 25  1  0
 25 26  1  0
 26 27  1  0
 27 28  2  0
 27 29  1  0
 29 30  1  0
 30 31  1  0
 31 32  1  0
 32 33  2  0
 33 34  1  0
 34 35  2  0
 35 36  1  0
 36 37  2  0
 30 38  1  0
 38 39  1  0
 38 40  2  3
 16 11  1  0
 26 22  1  0
 37 32  1  0
  1 41  1  0
  1 42  1  0
  1 43  1  0
  3 44  1  0
  3 45  1  0
  3 46  1  0
  4 47  1  0
  4 48  1  0
  4 49  1  0
  8 50  1  0
  9 51  1  6
 10 52  1  0
 10 53  1  0
 12 54  1  0
 13 55  1  0
 14 56  1  0
 16 57  1  0
 18 58  1  0
 18 59  1  0
 19 60  1  0
 23 61  1  0
 23 62  1  0
 24 63  1  0
 24 64  1  0
 25 65  1  0
 25 66  1  0
 26 67  1  6
 29 68  1  0
 30 69  1  0
 31 70  1  0
 31 71  1  0
 33 72  1  0
 34 73  1  0
 35 74  1  0
 36 75  1  0
 37 76  1  0
 39 77  1  0
 39 78  1  0
 40 79  1  0
M  END
$$$$
[H]OC(=O)[C@@]([H])(N([H])C(=O)[C@@]([H])(C([H])([H])S[H])C([H])([H])c1c([H])c([H])c([H])c([H])c1[H])C([H])([H])c1c([H])n([H])c2c([H])c([H])c([H])c([H])c12
     RDKit          3D

 49 51  0  0  0  0  0  0  0  0999 V2000
   -1.8741    2.2007   -4.3035 O   0  0  0  0  0  0  0  0  0  0  0  0
   -1.0614    2.3072   -3.2035 C   0  0  0  0  0  0  0  0  0  0  0  0
   -0.2771    3.2324   -3.0332 O   0  0  0  0  0  0  0  0  0  0  0  0
   -1.1502    1.2186   -2.1561 C   0  0  2  0  0  0  0  0  0  0  0  0
   -2.5850    1.0556   -1.8514 C   0  0  0  0  0  0  0  0  0  0  0  0
   -2.9733    0.0656   -0.8610 C   0  0  0  0  0  0  0  0  0  0  0  0
   -3.3868   -1.2299   -1.1658 C   0  0  0  0  0  0  0  0  0  0  0  0
   -3.6528   -1.9054   -0.0356 N   0  0  0  0  0  0  0  0  0  0  0  0
   -3.4240   -1.0828    1.0049 C   0  0  0  0  0  0  0  0  0  0  0  0
   -3.5434   -1.2479    2.3629 C   0  0  0  0  0  0  0  0  0  0  0  0
   -3.2641   -0.2482    3.2657 C   0  0  0  0  0  0  0  0  0  0  0  0
   -2.8491    0.9544    2.7314 C   0  0  0  0  0  0  0  0  0  0  0  0
   -2.7153    1.1628    1.3828 C   0  0  0  0  0  0  0  0  0  0  0  0
   -3.0040    0.1378    0.5105 C   0  0  0  0  0  0  0  0  0  0  0  0
   -0.2395    1.4952   -1.0910 N   0  0  0  0  0  0  0  0  0  0  0  0
    0.9444    0.6821   -0.8664 C   0  0  0  0  0  0  0  0  0  0  0  0
    1.0736   -0.2660   -1.6615 O   0  0  0  0  0  0  0  0  0  0  0  0
    1.8186    1.0724    0.2403 C   0  0  1  0  0  0  0  0  0  0  0  0
    1.1306    0.9926    1.5834 C   0  0  0  0  0  0  0  0  0  0  0  0
    2.2433    1.5210    2.9123 S   0  0  0  0  0  0  0  0  0  0  0  0
    3.2207    0.6053    0.2139 C   0  0  0  0  0  0  0  0  0  0  0  0
    3.4958   -0.8251    0.1665 C   0  0  0  0  0  0  0  0  0  0  0  0
    3.4995   -1.6518    1.2632 C   0  0  0  0  0  0  0  0  0  0  0  0
    3.8150   -2.9799    1.0963 C   0  0  0  0  0  0  0  0  0  0  0  0
    4.1305   -3.5323   -0.1213 C   0  0  0  0  0  0  0  0  0  0  0  0
    4.1233   -2.6916   -1.2120 C   0  0  0  0  0  0  0  0  0  0  0  0
    3.8123   -1.3658   -1.0683 C   0  0  0  0  0  0  0  0  0  0  0  0
   -2.8397    2.5561   -4.3359 H   0  0  0  0  0  0  0  0  0  0  0  0
   -0.7604    0.2605   -2.6414 H   0  0  0  0  0  0  0  0  0  0  0  0
   -3.0759    2.0508   -1.5909 H   0  0  0  0  0  0  0  0  0  0  0  0
   -3.0922    0.8195   -2.8442 H   0  0  0  0  0  0  0  0  0  0  0  0
   -3.4782   -1.6263   -2.1595 H   0  0  0  0  0  0  0  0  0  0  0  0
   -3.9816   -2.9043    0.0003 H   0  0  0  0  0  0  0  0  0  0  0  0
   -3.8768   -2.2176    2.7510 H   0  0  0  0  0  0  0  0  0  0  0  0
   -3.3648   -0.3953    4.3459 H   0  0  0  0  0  0  0  0  0  0  0  0
   -2.6321    1.7377    3.4585 H   0  0  0  0  0  0  0  0  0  0  0  0
   -2.3842    2.1260    0.9948 H   0  0  0  0  0  0  0  0  0  0  0  0
   -0.4622    2.3200   -0.4727 H   0  0  0  0  0  0  0  0  0  0  0  0
    1.9181    2.2260    0.0895 H   0  0  0  0  0  0  0  0  0  0  0  0
    0.6338    0.0446    1.7695 H   0  0  0  0  0  0  0  0  0  0  0  0
    0.3175    1.7767    1.5594 H   0  0  0  0  0  0  0  0  0  0  0  0
    2.6143    2.8491    2.6488 H   0  0  0  0  0  0  0  0  0  0  0  0
    3.7264    1.0098    1.1358 H   0  0  0  0  0  0  0  0  0  0  0  0
    3.7375    1.1615   -0.6294 H   0  0  0  0  0  0  0  0  0  0  0  0
    3.2713   -1.3187    2.2513 H   0  0  0  0  0  0  0  0  0  0  0  0
    3.8263   -3.6688    1.9615 H   0  0  0  0  0  0  0  0  0  0  0  0
    4.3775   -4.6025   -0.2140 H   0  0  0  0  0  0  0  0  0  0  0  0
    4.3755   -3.1267   -2.1935 H   0  0  0  0  0  0  0  0  0  0  0  0
    3.8423   -0.7551   -1.9885 H   0  0  0  0  0  0  0  0  0  0  0  0
  1  2  1  0
  2  3  2  0
  2  4  1  0
  4  5  1  0
  5  6  1  0
  6  7  2  0
  7  8  1  0
  8  9  1  0
  9 10  2  0
 10 11  1  0
 11 12  2  0
 12 13  1  0
 13 14  2  0
  4 15  1  0
 15 16  1  0
 16 17  2  0
 16 18  1  0
 18 19  1  0
 19 20  1  0
 18 21  1  0
 21 22  1  0
 22 23  2  0
 23 24  1  0
 24 25  2  0
 25 26  1  0
 26 27  2  0
 14  6  1  0
 27 22  1  0
 14  9  1  0
  1 28  1  0
  4 29  1  6
  5 30  1  0
  5 31  1  0
  7 32  1  0
  8 33  1  0
 10 34  1  0
 11 35  1  0
 12 36  1  0
 13 37  1  0
 15 38  1  0
 18 39  1  6
 19 40  1  0
 19 41  1  0
 20 42  1  0
 21 43  1  0
 21 44  1  0
 23 45  1  0
 24 46  1  0
 25 47  1  0
 26 48  1  0
 27 49  1  0
M  END
$$$$
[H]c1nc(-c2c([H])c([H])c([H])c([H])c2F)c([H])c([H])c1C#Cc1nc(C([H])([H])[H])sc1[H]
     RDKit          3D

 32 34  0  0  0  0  0  0  0  0999 V2000
    7.6484   -0.9842   -0.5995 C   0  0  0  0  0  0  0  0  0  0  0  0
    6.5215   -0.4488    0.2487 C   0  0  0  0  0  0  0  0  0  0  0  0
    5.2257   -0.4497    0.0084 N   0  0  0  0  0  0  0  0  0  0  0  0
    4.4012    0.0691    0.8794 C   0  0  0  0  0  0  0  0  0  0  0  0
    4.9556    0.5967    2.0218 C   0  0  0  0  0  0  0  0  0  0  0  0
    6.6183    0.3132    1.7692 S   0  0  0  0  0  0  0  0  0  0  0  0
    2.9499    0.0741    0.6220 C   0  0  0  0  0  0  0  0  0  0  0  0
    1.7611    0.0873    0.4308 C   0  0  0  0  0  0  0  0  0  0  0  0
    0.3383    0.0998    0.2274 C   0  0  0  0  0  0  0  0  0  0  0  0
   -0.1514   -0.1899   -1.0032 C   0  0  0  0  0  0  0  0  0  0  0  0
   -1.5409   -0.1734   -1.1852 C   0  0  0  0  0  0  0  0  0  0  0  0
   -2.4193    0.1183   -0.1899 C   0  0  0  0  0  0  0  0  0  0  0  0
   -1.8581    0.4009    1.0257 N   0  0  0  0  0  0  0  0  0  0  0  0
   -0.5426    0.3962    1.2413 C   0  0  0  0  0  0  0  0  0  0  0  0
   -3.8694    0.1494   -0.2962 C   0  0  0  0  0  0  0  0  0  0  0  0
   -4.6061    0.4076    0.8748 C   0  0  0  0  0  0  0  0  0  0  0  0
   -5.9728    0.4693    0.9087 C   0  0  0  0  0  0  0  0  0  0  0  0
   -6.6923    0.2734   -0.2435 C   0  0  0  0  0  0  0  0  0  0  0  0
   -6.0109    0.0187   -1.4081 C   0  0  0  0  0  0  0  0  0  0  0  0
   -4.6064   -0.0409   -1.4241 C   0  0  0  0  0  0  0  0  0  0  0  0
   -4.0044   -0.2904   -2.6122 F   0  0  0  0  0  0  0  0  0  0  0  0
    8.5203   -0.2929   -0.4571 H   0  0  0  0  0  0  0  0  0  0  0  0
    7.9684   -1.9743   -0.2580 H   0  0  0  0  0  0  0  0  0  0  0  0
    7.3544   -0.9262   -1.6469 H   0  0  0  0  0  0  0  0  0  0  0  0
    4.4237    1.0745    2.8660 H   0  0  0  0  0  0  0  0  0  0  0  0
    0.5194   -0.4232   -1.8053 H   0  0  0  0  0  0  0  0  0  0  0  0
   -1.8816   -0.4088   -2.1564 H   0  0  0  0  0  0  0  0  0  0  0  0
   -0.1808    0.6269    2.2169 H   0  0  0  0  0  0  0  0  0  0  0  0
   -4.0235    0.5631    1.7947 H   0  0  0  0  0  0  0  0  0  0  0  0
   -6.4987    0.6712    1.8353 H   0  0  0  0  0  0  0  0  0  0  0  0
   -7.7709    0.3267   -0.1925 H   0  0  0  0  0  0  0  0  0  0  0  0
   -6.5762   -0.1336   -2.3049 H   0  0  0  0  0  0  0  0  0  0  0  0
  1  2  1  0
  2  3  2  0
  3  4  1  0
  4  5  2  0
  5  6  1  0
  4  7  1  0
  7  8  3  0
  8  9  1  0
  9 10  2  0
 10 11  1  0
 11 12  2  0
 12 13  1  0
 13 14  2  0
 12 15  1  0
 15 16  2  0
 16 17  1  0
 17 18  2  0
 18 19  1  0
 19 20  2  0
 20 21  1  0
  6  2  1  0
 14  9  1  0
 20 15  1  0
  1 22  1  0
  1 23  1  0
  1 24  1  0
  5 25  1  0
 10 26  1  0
 11 27  1  0
 14 28  1  0
 16 29  1  0
 17 30  1  0
 18 31  1  0
 19 32  1  0
M  END
$$$$
[H]Oc1c([H])c(-c2c([H])c([H])c(Br)c([H])c2[H])nc2c([H])c(OC([H])([H])[H])c(-c3oc([H])nc3[H])c([H])c12
     RDKit          3D

 38 41  0  0  0  0  0  0  0  0999 V2000
   -3.1542   -3.0656    1.2592 C   0  0  0  0  0  0  0  0  0  0  0  0
   -3.4111   -1.7528    0.8644 O   0  0  0  0  0  0  0  0  0  0  0  0
   -2.4672   -0.8127    0.5265 C   0  0  0  0  0  0  0  0  0  0  0  0
   -1.0983   -1.1425    0.5617 C   0  0  0  0  0  0  0  0  0  0  0  0
   -0.1195   -0.2340    0.2318 C   0  0  0  0  0  0  0  0  0  0  0  0
    1.1850   -0.5571    0.2682 N   0  0  0  0  0  0  0  0  0  0  0  0
    2.1782    0.3072   -0.0487 C   0  0  0  0  0  0  0  0  0  0  0  0
    1.7916    1.5638   -0.4197 C   0  0  0  0  0  0  0  0  0  0  0  0
    0.4640    1.9484   -0.4740 C   0  0  0  0  0  0  0  0  0  0  0  0
    0.1525    3.2322   -0.8571 O   0  0  0  0  0  0  0  0  0  0  0  0
   -0.5148    1.0359   -0.1429 C   0  0  0  0  0  0  0  0  0  0  0  0
   -1.8455    1.3403   -0.1721 C   0  0  0  0  0  0  0  0  0  0  0  0
   -2.8717    0.4446    0.1561 C   0  0  0  0  0  0  0  0  0  0  0  0
   -4.2554    0.8783    0.0893 C   0  0  0  0  0  0  0  0  0  0  0  0
   -5.4138    0.2261    0.3485 C   0  0  0  0  0  0  0  0  0  0  0  0
   -6.4313    1.1176    0.1216 N   0  0  0  0  0  0  0  0  0  0  0  0
   -5.8762    2.2750   -0.2648 C   0  0  0  0  0  0  0  0  0  0  0  0
   -4.5932    2.1113   -0.2769 O   0  0  0  0  0  0  0  0  0  0  0  0
    3.5625   -0.1058    0.0116 C   0  0  0  0  0  0  0  0  0  0  0  0
    4.6165    0.7118   -0.2937 C   0  0  0  0  0  0  0  0  0  0  0  0
    5.9467    0.2681   -0.2213 C   0  0  0  0  0  0  0  0  0  0  0  0
    6.2485   -1.0171    0.1627 C   0  0  0  0  0  0  0  0  0  0  0  0
    8.0651   -1.6331    0.2648 Br  0  0  0  0  0  0  0  0  0  0  0  0
    5.1981   -1.8537    0.4738 C   0  0  0  0  0  0  0  0  0  0  0  0
    3.8962   -1.4149    0.4014 C   0  0  0  0  0  0  0  0  0  0  0  0
   -2.7825   -3.6829    0.4120 H   0  0  0  0  0  0  0  0  0  0  0  0
   -2.5329   -3.1422    2.1650 H   0  0  0  0  0  0  0  0  0  0  0  0
   -4.1478   -3.5268    1.5313 H   0  0  0  0  0  0  0  0  0  0  0  0
   -0.8307   -2.1538    0.8624 H   0  0  0  0  0  0  0  0  0  0  0  0
    2.5627    2.3025   -0.6867 H   0  0  0  0  0  0  0  0  0  0  0  0
    0.8747    3.8953   -1.0983 H   0  0  0  0  0  0  0  0  0  0  0  0
   -2.1079    2.3534   -0.4737 H   0  0  0  0  0  0  0  0  0  0  0  0
   -5.5165   -0.7905    0.6691 H   0  0  0  0  0  0  0  0  0  0  0  0
   -6.4795    3.1457   -0.5055 H   0  0  0  0  0  0  0  0  0  0  0  0
    4.4290    1.7322   -0.6011 H   0  0  0  0  0  0  0  0  0  0  0  0
    6.7570    0.9270   -0.4654 H   0  0  0  0  0  0  0  0  0  0  0  0
    5.4508   -2.8680    0.7761 H   0  0  0  0  0  0  0  0  0  0  0  0
    3.0709   -2.0633    0.6431 H   0  0  0  0  0  0  0  0  0  0  0  0
  1  2  1  0
  2  3  1  0
  3  4  2  0
  4  5  1  0
  5  6  2  0
  6  7  1  0
  7  8  2  0
  8  9  1  0
  9 10  1  0
  9 11  2  0
 11 12  1  0
 12 13  2  0
 13 14  1  0
 14 15  2  0
 15 16  1  0
 16 17  2  0
 17 18  1  0
  7 19  1  0
 19 20  2  0
 20 21  1  0
 21 22  2  0
 22 23  1  0
 22 24  1  0
 24 25  2  0
 13  3  1  0
 18 14  1  0
 25 19  1  0
 11  5  1  0
  1 26  1  0
  1 27  1  0
  1 28  1  0
  4 29  1  0
  8 30  1  0
 10 31  1  0
 12 32  1  0
 15 33  1  0
 17 34  1  0
 20 35  1  0
 21 36  1  0
 24 37  1  0
 25 38  1  0
M  END
$$$$
[H]c1nc([H])c2sc(C(=O)N([H])C([H])([H])[H])c([H])c2c1Oc1c([H])c([H])c(-c2nn([H])c(=S)o2)c([H])c1[H]
     RDKit          3D

 38 41  0  0  0  0  0  0  0  0999 V2000
    3.6177    3.3560   -1.3236 C   0  0  0  0  0  0  0  0  0  0  0  0
    3.1975    2.1866   -0.5581 N   0  0  0  0  0  0  0  0  0  0  0  0
    3.7005    1.8999    0.7236 C   0  0  0  0  0  0  0  0  0  0  0  0
    4.5397    2.6588    1.2499 O   0  0  0  0  0  0  0  0  0  0  0  0
    3.2292    0.6979    1.4394 C   0  0  0  0  0  0  0  0  0  0  0  0
    2.3199   -0.2370    1.0158 C   0  0  0  0  0  0  0  0  0  0  0  0
    2.0355   -1.2642    1.8431 C   0  0  0  0  0  0  0  0  0  0  0  0
    1.1541   -2.3238    1.6109 C   0  0  0  0  0  0  0  0  0  0  0  0
    0.3855   -2.5263    0.4862 O   0  0  0  0  0  0  0  0  0  0  0  0
   -0.6382   -1.7773   -0.0293 C   0  0  0  0  0  0  0  0  0  0  0  0
   -0.5985   -1.0339   -1.1898 C   0  0  0  0  0  0  0  0  0  0  0  0
   -1.6953   -0.3168   -1.6116 C   0  0  0  0  0  0  0  0  0  0  0  0
   -2.8786   -0.3109   -0.8932 C   0  0  0  0  0  0  0  0  0  0  0  0
   -2.9556   -1.0442    0.2750 C   0  0  0  0  0  0  0  0  0  0  0  0
   -1.8586   -1.7552    0.6872 C   0  0  0  0  0  0  0  0  0  0  0  0
   -3.9966    0.4692   -1.3982 C   0  0  0  0  0  0  0  0  0  0  0  0
   -5.2317    0.6040   -0.8450 N   0  0  0  0  0  0  0  0  0  0  0  0
   -5.9468    1.3970   -1.6174 N   0  0  0  0  0  0  0  0  0  0  0  0
   -5.1836    1.7690   -2.6552 C   0  0  0  0  0  0  0  0  0  0  0  0
   -5.6787    2.7558   -3.8591 S   0  0  0  0  0  0  0  0  0  0  0  0
   -4.0226    1.1933   -2.4891 O   0  0  0  0  0  0  0  0  0  0  0  0
    1.0254   -3.2975    2.6208 C   0  0  0  0  0  0  0  0  0  0  0  0
    1.6755   -3.2912    3.7831 N   0  0  0  0  0  0  0  0  0  0  0  0
    2.5217   -2.2720    4.0073 C   0  0  0  0  0  0  0  0  0  0  0  0
    2.6948   -1.2736    3.0443 C   0  0  0  0  0  0  0  0  0  0  0  0
    3.6684    0.1214    2.9842 S   0  0  0  0  0  0  0  0  0  0  0  0
    2.7206    3.8506   -1.7063 H   0  0  0  0  0  0  0  0  0  0  0  0
    4.3049    3.0787   -2.1449 H   0  0  0  0  0  0  0  0  0  0  0  0
    4.2107    4.0029   -0.6245 H   0  0  0  0  0  0  0  0  0  0  0  0
    2.4842    1.5564   -1.0245 H   0  0  0  0  0  0  0  0  0  0  0  0
    1.8839   -0.0921    0.0040 H   0  0  0  0  0  0  0  0  0  0  0  0
    0.3310   -1.0309   -1.7658 H   0  0  0  0  0  0  0  0  0  0  0  0
   -1.6593    0.2627   -2.5195 H   0  0  0  0  0  0  0  0  0  0  0  0
   -3.8757   -1.0346    0.8259 H   0  0  0  0  0  0  0  0  0  0  0  0
   -1.9144   -2.3243    1.5913 H   0  0  0  0  0  0  0  0  0  0  0  0
   -6.9464    1.7061   -1.4752 H   0  0  0  0  0  0  0  0  0  0  0  0
    0.3214   -4.1195    2.4011 H   0  0  0  0  0  0  0  0  0  0  0  0
    3.0586   -2.2409    4.9357 H   0  0  0  0  0  0  0  0  0  0  0  0
  1  2  1  0
  2  3  1  0
  3  4  2  0
  3  5  1  0
  5  6  2  0
  6  7  1  0
  7  8  2  0
  8  9  1  0
  9 10  1  0
 10 11  2  0
 11 12  1  0
 12 13  2  0
 13 14  1  0
 14 15  2  0
 13 16  1  0
 16 17  2  0
 17 18  1  0
 18 19  1  0
 19 20  2  0
 19 21  1  0
  8 22  1  0
 22 23  2  0
 23 24  1  0
 24 25  2  0
 25 26  1  0
 26  5  1  0
 25  7  1  0
 15 10  1  0
 21 16  1  0
  1 27  1  0
  1 28  1  0
  1 29  1  0
  2 30  1  0
  6 31  1  0
 11 32  1  0
 12 33  1  0
 14 34  1  0
 15 35  1  0
 18 36  1  0
 22 37  1  0
 24 38  1  0
M  END
$$$$
[H]OC(=O)C([H])([H])C([H])([H])[C@@]([H])(C([H])([H])[H])[C@@]1([H])C([H])([H])C([H])([H])[C@@]2([H])[C@]3([H])C([H])([H])[C@]([H])(O[H])C([H])([H])C([H])([H])[C@]3(C([H])([H])[H])[C@@]21[H]
     RDKit          3D

 48 50  0  0  0  0  0  0  0  0999 V2000
    2.7815   -0.8644   -1.9071 C   0  0  0  0  0  0  0  0  0  0  0  0
    1.9472   -0.2596   -0.7973 C   0  0  2  0  0  0  0  0  0  0  0  0
    2.7071   -0.1369    0.4816 C   0  0  0  0  0  0  0  0  0  0  0  0
    3.8918    0.7929    0.2149 C   0  0  0  0  0  0  0  0  0  0  0  0
    4.7265    0.9792    1.4013 C   0  0  0  0  0  0  0  0  0  0  0  0
    5.0753    2.2934    1.7853 O   0  0  0  0  0  0  0  0  0  0  0  0
    5.1214   -0.0083    2.0646 O   0  0  0  0  0  0  0  0  0  0  0  0
    0.6383   -0.8855   -0.7483 C   0  0  1  0  0  0  0  0  0  0  0  0
    0.6736   -2.4118   -0.4925 C   0  0  0  0  0  0  0  0  0  0  0  0
   -0.7630   -2.7416   -0.0289 C   0  0  0  0  0  0  0  0  0  0  0  0
   -1.4135   -1.4544   -0.1936 C   0  0  1  0  0  0  0  0  0  0  0  0
   -2.2575   -0.7039    0.6937 C   0  0  2  0  0  0  0  0  0  0  0  0
   -3.5894   -0.3097    0.1261 C   0  0  0  0  0  0  0  0  0  0  0  0
   -3.8598    1.1773    0.1858 C   0  0  2  0  0  0  0  0  0  0  0  0
   -5.1293    1.3981   -0.3440 O   0  0  0  0  0  0  0  0  0  0  0  0
   -2.8649    1.9273   -0.6738 C   0  0  0  0  0  0  0  0  0  0  0  0
   -1.5194    1.2896   -0.6840 C   0  0  0  0  0  0  0  0  0  0  0  0
   -1.2347    0.4388    0.5180 C   0  0  1  0  0  0  0  0  0  0  0  0
   -1.1508    1.1974    1.8246 C   0  0  0  0  0  0  0  0  0  0  0  0
   -0.2513   -0.5884    0.3920 C   0  0  2  0  0  0  0  0  0  0  0  0
    2.0673   -1.1550   -2.7342 H   0  0  0  0  0  0  0  0  0  0  0  0
    3.3363   -1.7636   -1.6039 H   0  0  0  0  0  0  0  0  0  0  0  0
    3.4481   -0.0974   -2.3463 H   0  0  0  0  0  0  0  0  0  0  0  0
    1.7831    0.8207   -1.1414 H   0  0  0  0  0  0  0  0  0  0  0  0
    2.0775    0.3776    1.2377 H   0  0  0  0  0  0  0  0  0  0  0  0
    3.1249   -1.0982    0.8156 H   0  0  0  0  0  0  0  0  0  0  0  0
    3.4908    1.7187   -0.2209 H   0  0  0  0  0  0  0  0  0  0  0  0
    4.4801    0.3271   -0.6428 H   0  0  0  0  0  0  0  0  0  0  0  0
    4.5469    3.0624    1.3763 H   0  0  0  0  0  0  0  0  0  0  0  0
    0.1341   -0.7758   -1.7301 H   0  0  0  0  0  0  0  0  0  0  0  0
    1.3094   -2.5486    0.4199 H   0  0  0  0  0  0  0  0  0  0  0  0
    0.9903   -2.9838   -1.3500 H   0  0  0  0  0  0  0  0  0  0  0  0
   -1.1429   -3.4708   -0.7868 H   0  0  0  0  0  0  0  0  0  0  0  0
   -0.7609   -3.2320    0.9407 H   0  0  0  0  0  0  0  0  0  0  0  0
   -1.6109   -1.2401   -1.2692 H   0  0  0  0  0  0  0  0  0  0  0  0
   -2.3340   -1.0546    1.7381 H   0  0  0  0  0  0  0  0  0  0  0  0
   -3.7214   -0.6378   -0.9178 H   0  0  0  0  0  0  0  0  0  0  0  0
   -4.3876   -0.8105    0.7176 H   0  0  0  0  0  0  0  0  0  0  0  0
   -3.8500    1.5756    1.2007 H   0  0  0  0  0  0  0  0  0  0  0  0
   -5.1971    0.9024   -1.1791 H   0  0  0  0  0  0  0  0  0  0  0  0
   -3.1949    2.0376   -1.7242 H   0  0  0  0  0  0  0  0  0  0  0  0
   -2.8398    2.9831   -0.2764 H   0  0  0  0  0  0  0  0  0  0  0  0
   -1.3231    0.7395   -1.6073 H   0  0  0  0  0  0  0  0  0  0  0  0
   -0.7669    2.1176   -0.6462 H   0  0  0  0  0  0  0  0  0  0  0  0
   -1.0767    2.2838    1.6651 H   0  0  0  0  0  0  0  0  0  0  0  0
   -0.2216    0.8953    2.3855 H   0  0  0  0  0  0  0  0  0  0  0  0
   -1.9779    0.9436    2.5369 H   0  0  0  0  0  0  0  0  0  0  0  0
    0.0878   -1.0464    1.3240 H   0  0  0  0  0  0  0  0  0  0  0  0
  1  2  1  0
  2  3  1  0
  3  4  1  0
  4  5  1  0
  5  6  1  0
  5  7  2  0
  2  8  1  0
  8  9  1  0
  9 10  1  0
 10 11  1  0
 11 12  1  0
 12 13  1  0
 13 14  1  0
 14 15  1  0
 14 16  1  0
 16 17  1  0
 17 18  1  0
 18 19  1  1
 18 20  1  0
 20  8  1  0
 20 11  1  0
 18 12  1  0
  1 21  1  0
  1 22  1  0
  1 23  1  0
  2 24  1  6
  3 25  1  0
  3 26  1  0
  4 27  1  0
  4 28  1  0
  6 29  1  0
  8 30  1  6
  9 31  1  0
  9 32  1  0
 10 33  1  0
 10 34  1  0
 11 35  1  6
 12 36  1  1
 13 37  1  0
 13 38  1  0
 14 39  1  1
 15 40  1  0
 16 41  1  0
 16 42  1  0
 17 43  1  0
 17 44  1  0
 19 45  1  0
 19 46  1  0
 19 47  1  0
 20 48  1  1
M  END
$$$$
[H]N=C(c1c([H])c([H])c(C([H])([H])N([H])C(=O)[C@@]([H])(N([H])C(=O)[C@@]([H])(N([H])C(=O)[C@@]([H])(N([H])C(=O)[C@@]([H])(N([H])[H])C([H])([H])C([H])([H])C(=O)N([H])[H])C([H])([H])C([H])([H])C(=O)N([H])[H])C([H])([H])C([H])([H])C(=O)N([H])[H])C([H])([H])C([H])([H])C([H])([H])N([H])C(=N[H])N([H])[H])c([H])c1[H])N([H])[H]
     RDKit          3D

 96 96  0  0  0  0  0  0  0  0999 V2000
   -4.5379   -7.0868   -0.7242 N   0  0  0  0  0  0  0  0  0  0  0  0
   -4.3453   -6.3376   -1.9137 C   0  0  0  0  0  0  0  0  0  0  0  0
   -3.2434   -6.5440   -2.5686 N   0  0  0  0  0  0  0  0  0  0  0  0
   -5.3334   -5.4294   -2.3234 N   0  0  0  0  0  0  0  0  0  0  0  0
   -4.9440   -4.1279   -2.7953 C   0  0  0  0  0  0  0  0  0  0  0  0
   -4.3742   -3.2359   -1.6851 C   0  0  0  0  0  0  0  0  0  0  0  0
   -4.0187   -1.9339   -2.3256 C   0  0  0  0  0  0  0  0  0  0  0  0
   -3.4638   -0.8993   -1.3635 C   0  0  2  0  0  0  0  0  0  0  0  0
   -2.2657   -1.4470   -0.7719 N   0  0  0  0  0  0  0  0  0  0  0  0
   -0.9607   -0.9443   -1.1150 C   0  0  0  0  0  0  0  0  0  0  0  0
   -0.9828    0.0012   -1.9897 O   0  0  0  0  0  0  0  0  0  0  0  0
    0.2689   -1.4452   -0.5388 C   0  0  2  0  0  0  0  0  0  0  0  0
    0.2954   -1.5323    0.9496 C   0  0  0  0  0  0  0  0  0  0  0  0
    0.1323   -0.3177    1.7711 C   0  0  0  0  0  0  0  0  0  0  0  0
    0.2414   -0.7445    3.2178 C   0  0  0  0  0  0  0  0  0  0  0  0
    0.0025    0.2141    4.2255 N   0  0  0  0  0  0  0  0  0  0  0  0
    0.5342   -1.9154    3.5333 O   0  0  0  0  0  0  0  0  0  0  0  0
    1.4428   -0.8424   -1.0727 N   0  0  0  0  0  0  0  0  0  0  0  0
    2.7566   -0.7317   -0.5770 C   0  0  0  0  0  0  0  0  0  0  0  0
    3.0467   -1.1792    0.5549 O   0  0  0  0  0  0  0  0  0  0  0  0
    3.8408   -0.0941   -1.3608 C   0  0  2  0  0  0  0  0  0  0  0  0
    4.6909   -1.1828   -2.0677 C   0  0  0  0  0  0  0  0  0  0  0  0
    5.3092   -2.0971   -1.0339 C   0  0  0  0  0  0  0  0  0  0  0  0
    6.1944   -3.1235   -1.6549 C   0  0  0  0  0  0  0  0  0  0  0  0
    6.7630   -4.1523   -0.8397 N   0  0  0  0  0  0  0  0  0  0  0  0
    6.4536   -3.1073   -2.8718 O   0  0  0  0  0  0  0  0  0  0  0  0
    4.7811    0.6958   -0.5663 N   0  0  0  0  0  0  0  0  0  0  0  0
    5.2133    1.9674   -0.9738 C   0  0  0  0  0  0  0  0  0  0  0  0
    4.7139    2.3952   -2.0806 O   0  0  0  0  0  0  0  0  0  0  0  0
    6.1722    2.8579   -0.2819 C   0  0  1  0  0  0  0  0  0  0  0  0
    6.5814    2.2515    0.9542 N   0  0  0  0  0  0  0  0  0  0  0  0
    7.3589    3.1384   -1.1961 C   0  0  0  0  0  0  0  0  0  0  0  0
    8.3854    4.0287   -0.6043 C   0  0  0  0  0  0  0  0  0  0  0  0
    7.8690    5.4033   -0.2688 C   0  0  0  0  0  0  0  0  0  0  0  0
    8.7180    6.1682    0.5857 N   0  0  0  0  0  0  0  0  0  0  0  0
    6.7950    5.8639   -0.6895 O   0  0  0  0  0  0  0  0  0  0  0  0
   -4.4658   -0.6458   -0.2675 C   0  0  0  0  0  0  0  0  0  0  0  0
   -4.2453   -1.0004    0.9160 O   0  0  0  0  0  0  0  0  0  0  0  0
   -5.6947    0.0056   -0.5456 N   0  0  0  0  0  0  0  0  0  0  0  0
   -6.7225    0.2799    0.4214 C   0  0  0  0  0  0  0  0  0  0  0  0
   -6.4214    1.4887    1.2532 C   0  0  0  0  0  0  0  0  0  0  0  0
   -5.2879    2.2414    1.0494 C   0  0  0  0  0  0  0  0  0  0  0  0
   -4.9878    3.3796    1.8099 C   0  0  0  0  0  0  0  0  0  0  0  0
   -5.8478    3.7955    2.8172 C   0  0  0  0  0  0  0  0  0  0  0  0
   -6.9809    3.0382    3.0169 C   0  0  0  0  0  0  0  0  0  0  0  0
   -7.2602    1.9114    2.2524 C   0  0  0  0  0  0  0  0  0  0  0  0
   -5.5403    4.9947    3.6051 C   0  0  0  0  0  0  0  0  0  0  0  0
   -4.3374    5.6885    3.3038 N   0  0  0  0  0  0  0  0  0  0  0  0
   -6.2722    5.4588    4.5379 N   0  0  0  0  0  0  0  0  0  0  0  0
   -4.6303   -6.6327    0.2037 H   0  0  0  0  0  0  0  0  0  0  0  0
   -4.5825   -8.1314   -0.8560 H   0  0  0  0  0  0  0  0  0  0  0  0
   -3.0874   -5.9982   -3.4490 H   0  0  0  0  0  0  0  0  0  0  0  0
   -6.3337   -5.6868   -2.2890 H   0  0  0  0  0  0  0  0  0  0  0  0
   -5.7893   -3.5883   -3.3071 H   0  0  0  0  0  0  0  0  0  0  0  0
   -4.1797   -4.2918   -3.6012 H   0  0  0  0  0  0  0  0  0  0  0  0
   -3.5690   -3.7763   -1.1977 H   0  0  0  0  0  0  0  0  0  0  0  0
   -5.2291   -3.0788   -0.9762 H   0  0  0  0  0  0  0  0  0  0  0  0
   -4.9171   -1.5655   -2.8607 H   0  0  0  0  0  0  0  0  0  0  0  0
   -3.2569   -2.0980   -3.0937 H   0  0  0  0  0  0  0  0  0  0  0  0
   -3.2773    0.0062   -1.9657 H   0  0  0  0  0  0  0  0  0  0  0  0
   -2.4178   -2.2202   -0.0851 H   0  0  0  0  0  0  0  0  0  0  0  0
    0.3725   -2.5639   -0.8250 H   0  0  0  0  0  0  0  0  0  0  0  0
   -0.6083   -2.2103    1.2748 H   0  0  0  0  0  0  0  0  0  0  0  0
    1.1364   -2.1533    1.3455 H   0  0  0  0  0  0  0  0  0  0  0  0
    0.8225    0.5136    1.5826 H   0  0  0  0  0  0  0  0  0  0  0  0
   -0.9068    0.1286    1.7283 H   0  0  0  0  0  0  0  0  0  0  0  0
    0.6998    0.4797    4.9647 H   0  0  0  0  0  0  0  0  0  0  0  0
   -0.9149    0.7388    4.3057 H   0  0  0  0  0  0  0  0  0  0  0  0
    1.3376   -0.3795   -2.0677 H   0  0  0  0  0  0  0  0  0  0  0  0
    3.4969    0.5540   -2.1901 H   0  0  0  0  0  0  0  0  0  0  0  0
    5.5269   -0.7212   -2.6270 H   0  0  0  0  0  0  0  0  0  0  0  0
    4.1000   -1.7815   -2.7584 H   0  0  0  0  0  0  0  0  0  0  0  0
    5.8986   -1.5603   -0.2685 H   0  0  0  0  0  0  0  0  0  0  0  0
    4.5501   -2.6858   -0.4663 H   0  0  0  0  0  0  0  0  0  0  0  0
    6.8878   -5.1039   -1.1673 H   0  0  0  0  0  0  0  0  0  0  0  0
    7.0470   -3.8321    0.1390 H   0  0  0  0  0  0  0  0  0  0  0  0
    5.1296    0.2909    0.3218 H   0  0  0  0  0  0  0  0  0  0  0  0
    5.6749    3.8198   -0.0818 H   0  0  0  0  0  0  0  0  0  0  0  0
    6.7553    2.9259    1.7049 H   0  0  0  0  0  0  0  0  0  0  0  0
    7.2669    1.4796    0.8436 H   0  0  0  0  0  0  0  0  0  0  0  0
    7.8339    2.1795   -1.4807 H   0  0  0  0  0  0  0  0  0  0  0  0
    6.9931    3.6048   -2.1296 H   0  0  0  0  0  0  0  0  0  0  0  0
    8.8773    3.6424    0.2940 H   0  0  0  0  0  0  0  0  0  0  0  0
    9.2203    4.2384   -1.3396 H   0  0  0  0  0  0  0  0  0  0  0  0
    8.2441    6.7322    1.3077 H   0  0  0  0  0  0  0  0  0  0  0  0
    9.7445    6.1548    0.4839 H   0  0  0  0  0  0  0  0  0  0  0  0
   -5.8966    0.3265   -1.5391 H   0  0  0  0  0  0  0  0  0  0  0  0
   -6.7534   -0.6330    1.1135 H   0  0  0  0  0  0  0  0  0  0  0  0
   -7.7346    0.3172   -0.0347 H   0  0  0  0  0  0  0  0  0  0  0  0
   -4.5956    1.9470    0.2670 H   0  0  0  0  0  0  0  0  0  0  0  0
   -4.0974    3.9467    1.6337 H   0  0  0  0  0  0  0  0  0  0  0  0
   -7.6811    3.3334    3.8028 H   0  0  0  0  0  0  0  0  0  0  0  0
   -8.1670    1.3310    2.4360 H   0  0  0  0  0  0  0  0  0  0  0  0
   -4.1636    5.9412    2.3053 H   0  0  0  0  0  0  0  0  0  0  0  0
   -3.6975    5.9052    4.1009 H   0  0  0  0  0  0  0  0  0  0  0  0
   -7.1564    4.9848    4.7905 H   0  0  0  0  0  0  0  0  0  0  0  0
  1  2  1  0
  2  3  2  3
  2  4  1  0
  4  5  1  0
  5  6  1  0
  6  7  1  0
  7  8  1  0
  8  9  1  0
  9 10  1  0
 10 11  2  0
 10 12  1  0
 12 13  1  0
 13 14  1  0
 14 15  1  0
 15 16  1  0
 15 17  2  0
 12 18  1  0
 18 19  1  0
 19 20  2  0
 19 21  1  0
 21 22  1  0
 22 23  1  0
 23 24  1  0
 24 25  1  0
 24 26  2  0
 21 27  1  0
 27 28  1  0
 28 29  2  0
 28 30  1  0
 30 31  1  0
 30 32  1  0
 32 33  1  0
 33 34  1  0
 34 35  1  0
 34 36  2  0
  8 37  1  0
 37 38  2  0
 37 39  1  0
 39 40  1  0
 40 41  1  0
 41 42  2  0
 42 43  1  0
 43 44  2  0
 44 45  1  0
 45 46  2  0
 44 47  1  0
 47 48  1  0
 47 49  2  3
 46 41  1  0
  1 50  1  0
  1 51  1  0
  3 52  1  0
  4 53  1  0
  5 54  1  0
  5 55  1  0
  6 56  1  0
  6 57  1  0
  7 58  1  0
  7 59  1  0
  8 60  1  6
  9 61  1  0
 12 62  1  6
 13 63  1  0
 13 64  1  0
 14 65  1  0
 14 66  1  0
 16 67  1  0
 16 68  1  0
 18 69  1  0
 21 70  1  6
 22 71  1  0
 22 72  1  0
 23 73  1  0
 23 74  1  0
 25 75  1  0
 25 76  1  0
 27 77  1  0
 30 78  1  1
 31 79  1  0
 31 80  1  0
 32 81  1  0
 32 82  1  0
 33 83  1  0
 33 84  1  0
 35 85  1  0
 35 86  1  0
 39 87  1  0
 40 88  1  0
 40 89  1  0
 42 90  1  0
 43 91  1  0
 45 92  1  0
 46 93  1  0
 48 94  1  0
 48 95  1  0
 49 96  1  0
M  END
$$$$
[H]c1c([H])c([H])c(C2(C([H])([H])OC([H])([H])c3c([H])c(C(F)(F)F)c([H])c(C(F)(F)F)c3[H])C([H])([H])C([H])([H])N([H])C([H])([H])C2([H])[H])c([H])c1[H]
     RDKit          3D

 50 52  0  0  0  0  0  0  0  0999 V2000
    5.9884   -2.9905    1.1605 F   0  0  0  0  0  0  0  0  0  0  0  0
    4.7614   -3.0370    0.5277 C   0  0  0  0  0  0  0  0  0  0  0  0
    3.8598   -3.7521    1.3216 F   0  0  0  0  0  0  0  0  0  0  0  0
    4.8863   -3.6203   -0.7103 F   0  0  0  0  0  0  0  0  0  0  0  0
    4.2735   -1.6405    0.3191 C   0  0  0  0  0  0  0  0  0  0  0  0
    3.0768   -1.3844   -0.3115 C   0  0  0  0  0  0  0  0  0  0  0  0
    2.6151   -0.0979   -0.5211 C   0  0  0  0  0  0  0  0  0  0  0  0
    1.3469    0.1277   -1.2000 C   0  0  0  0  0  0  0  0  0  0  0  0
    0.2457    0.1559   -0.3127 O   0  0  0  0  0  0  0  0  0  0  0  0
   -0.8584    0.3640   -1.0721 C   0  0  0  0  0  0  0  0  0  0  0  0
   -2.1676    0.4235   -0.3783 C   0  0  0  0  0  0  0  0  0  0  0  0
   -2.2109    1.5261    0.6679 C   0  0  0  0  0  0  0  0  0  0  0  0
   -1.9179    2.8650    0.0194 C   0  0  0  0  0  0  0  0  0  0  0  0
   -2.6124    3.0660   -1.2256 N   0  0  0  0  0  0  0  0  0  0  0  0
   -3.7616    2.1649   -1.2479 C   0  0  0  0  0  0  0  0  0  0  0  0
   -3.2068    0.7735   -1.4778 C   0  0  0  0  0  0  0  0  0  0  0  0
   -2.6628   -0.8135    0.2394 C   0  0  0  0  0  0  0  0  0  0  0  0
   -4.0474   -0.8905    0.5251 C   0  0  0  0  0  0  0  0  0  0  0  0
   -4.5780   -2.0268    1.0878 C   0  0  0  0  0  0  0  0  0  0  0  0
   -3.7513   -3.0901    1.3698 C   0  0  0  0  0  0  0  0  0  0  0  0
   -2.3811   -3.0610    1.1031 C   0  0  0  0  0  0  0  0  0  0  0  0
   -1.8803   -1.9074    0.5392 C   0  0  0  0  0  0  0  0  0  0  0  0
    3.4303    0.9543   -0.0489 C   0  0  0  0  0  0  0  0  0  0  0  0
    4.6308    0.6883    0.5855 C   0  0  0  0  0  0  0  0  0  0  0  0
    5.0625   -0.6082    0.7760 C   0  0  0  0  0  0  0  0  0  0  0  0
    5.4598    1.8307    1.0643 C   0  0  0  0  0  0  0  0  0  0  0  0
    6.8004    1.6320    0.8548 F   0  0  0  0  0  0  0  0  0  0  0  0
    5.2241    2.0604    2.4029 F   0  0  0  0  0  0  0  0  0  0  0  0
    5.1173    2.9940    0.3355 F   0  0  0  0  0  0  0  0  0  0  0  0
    2.4702   -2.1999   -0.6562 H   0  0  0  0  0  0  0  0  0  0  0  0
    1.1490   -0.6860   -1.9273 H   0  0  0  0  0  0  0  0  0  0  0  0
    1.4079    1.0938   -1.7446 H   0  0  0  0  0  0  0  0  0  0  0  0
   -0.7302    1.3456   -1.6248 H   0  0  0  0  0  0  0  0  0  0  0  0
   -0.9742   -0.3855   -1.9099 H   0  0  0  0  0  0  0  0  0  0  0  0
   -3.1966    1.5292    1.1626 H   0  0  0  0  0  0  0  0  0  0  0  0
   -1.4318    1.3192    1.4185 H   0  0  0  0  0  0  0  0  0  0  0  0
   -0.8170    2.9702   -0.1192 H   0  0  0  0  0  0  0  0  0  0  0  0
   -2.2091    3.6470    0.7379 H   0  0  0  0  0  0  0  0  0  0  0  0
   -2.9394    4.0086   -1.4103 H   0  0  0  0  0  0  0  0  0  0  0  0
   -4.3318    2.2678   -0.3317 H   0  0  0  0  0  0  0  0  0  0  0  0
   -4.4249    2.3512   -2.1330 H   0  0  0  0  0  0  0  0  0  0  0  0
   -4.0096    0.0165   -1.5598 H   0  0  0  0  0  0  0  0  0  0  0  0
   -2.7420    0.8303   -2.4951 H   0  0  0  0  0  0  0  0  0  0  0  0
   -4.7346   -0.0798    0.3269 H   0  0  0  0  0  0  0  0  0  0  0  0
   -5.6438   -2.1016    1.3337 H   0  0  0  0  0  0  0  0  0  0  0  0
   -4.1537   -3.9839    1.8315 H   0  0  0  0  0  0  0  0  0  0  0  0
   -1.7222   -3.8751    1.3292 H   0  0  0  0  0  0  0  0  0  0  0  0
   -0.7928   -1.9169    0.3333 H   0  0  0  0  0  0  0  0  0  0  0  0
    3.0530    1.9358   -0.2283 H   0  0  0  0  0  0  0  0  0  0  0  0
    6.0311   -0.7928    1.2732 H   0  0  0  0  0  0  0  0  0  0  0  0
  1  2  1  0
  2  3  1  0
  2  4  1  0
  2  5  1  0
  5  6  2  0
  6  7  1  0
  7  8  1  0
  8  9  1  0
  9 10  1  0
 10 11  1  0
 11 12  1  0
 12 13  1  0
 13 14  1  0
 14 15  1  0
 15 16  1  0
 11 17  1  0
 17 18  2  0
 18 19  1  0
 19 20  2  0
 20 21  1  0
 21 22  2  0
  7 23  2  0
 23 24  1  0
 24 25  2  0
 24 26  1  0
 26 27  1  0
 26 28  1  0
 26 29  1  0
 25  5  1  0
 16 11  1  0
 22 17  1  0
  6 30  1  0
  8 31  1  0
  8 32  1  0
 10 33  1  0
 10 34  1  0
 12 35  1  0
 12 36  1  0
 13 37  1  0
 13 38  1  0
 14 39  1  0
 15 40  1  0
 15 41  1  0
 16 42  1  0
 16 43  1  0
 18 44  1  0
 19 45  1  0
 20 46  1  0
 21 47  1  0
 22 48  1  0
 23 49  1  0
 25 50  1  0
M  END
$$$$
[H]c1nc2c(C([H])([H])[H])c([H])c(-c3c(C([H])(C([H])([H])[H])C([H])([H])[H])c4c([H])c(C5([H])C([H])([H])C([H])([H])N(C([H])([H])C(=O)N(C([H])([H])[H])C([H])([H])[H])C([H])([H])C5([H])[H])c([H])c([H])c4n3[H])c([H])n2n1
     RDKit          3D

 68 72  0  0  0  0  0  0  0  0999 V2000
   -1.8191    1.4652    2.3787 C   0  0  0  0  0  0  0  0  0  0  0  0
   -2.8911    1.4784    1.3001 C   0  0  0  0  0  0  0  0  0  0  0  0
   -2.8975    2.9366    0.7642 C   0  0  0  0  0  0  0  0  0  0  0  0
   -2.6872    0.5477    0.1787 C   0  0  0  0  0  0  0  0  0  0  0  0
   -3.6849    0.0032   -0.5982 C   0  0  0  0  0  0  0  0  0  0  0  0
   -3.0345   -0.7515   -1.5491 N   0  0  0  0  0  0  0  0  0  0  0  0
   -1.7190   -0.6963   -1.3940 C   0  0  0  0  0  0  0  0  0  0  0  0
   -0.6682   -1.2843   -2.1054 C   0  0  0  0  0  0  0  0  0  0  0  0
    0.6255   -1.0596   -1.7335 C   0  0  0  0  0  0  0  0  0  0  0  0
    0.9194   -0.2653   -0.6704 C   0  0  0  0  0  0  0  0  0  0  0  0
   -0.1143    0.3302    0.0494 C   0  0  0  0  0  0  0  0  0  0  0  0
   -1.4309    0.1143   -0.3114 C   0  0  0  0  0  0  0  0  0  0  0  0
    2.2997   -0.0254   -0.2504 C   0  0  0  0  0  0  0  0  0  0  0  0
    2.9075   -1.3348    0.3015 C   0  0  0  0  0  0  0  0  0  0  0  0
    3.8339   -1.0113    1.4438 C   0  0  0  0  0  0  0  0  0  0  0  0
    4.5823    0.1350    1.1181 N   0  0  0  0  0  0  0  0  0  0  0  0
    5.7812    0.0082    0.4231 C   0  0  0  0  0  0  0  0  0  0  0  0
    6.8947   -0.6417    1.1595 C   0  0  0  0  0  0  0  0  0  0  0  0
    6.7782   -1.0641    2.3354 O   0  0  0  0  0  0  0  0  0  0  0  0
    8.1367   -0.7865    0.5047 N   0  0  0  0  0  0  0  0  0  0  0  0
    9.2414   -1.4017    1.1792 C   0  0  0  0  0  0  0  0  0  0  0  0
    8.3183   -0.3130   -0.8466 C   0  0  0  0  0  0  0  0  0  0  0  0
    3.8780    1.3564    1.0381 C   0  0  0  0  0  0  0  0  0  0  0  0
    2.4158    1.0530    0.7978 C   0  0  0  0  0  0  0  0  0  0  0  0
   -5.1219    0.0029   -0.4882 C   0  0  0  0  0  0  0  0  0  0  0  0
   -5.8384   -1.0930   -1.0528 C   0  0  0  0  0  0  0  0  0  0  0  0
   -7.1984   -1.1822   -1.0578 C   0  0  0  0  0  0  0  0  0  0  0  0
   -7.9317   -2.3507   -1.6329 C   0  0  0  0  0  0  0  0  0  0  0  0
   -7.9169   -0.1478   -0.4798 C   0  0  0  0  0  0  0  0  0  0  0  0
   -9.2475    0.0659   -0.3253 N   0  0  0  0  0  0  0  0  0  0  0  0
   -9.4096    1.2494    0.3121 C   0  0  0  0  0  0  0  0  0  0  0  0
   -8.1557    1.7308    0.5311 N   0  0  0  0  0  0  0  0  0  0  0  0
   -7.2717    0.8924    0.0565 N   0  0  0  0  0  0  0  0  0  0  0  0
   -5.9059    0.9512    0.0439 C   0  0  0  0  0  0  0  0  0  0  0  0
   -1.0866    2.2865    2.2788 H   0  0  0  0  0  0  0  0  0  0  0  0
   -2.3095    1.6954    3.3869 H   0  0  0  0  0  0  0  0  0  0  0  0
   -1.3371    0.5100    2.5376 H   0  0  0  0  0  0  0  0  0  0  0  0
   -3.8382    1.3243    1.8139 H   0  0  0  0  0  0  0  0  0  0  0  0
   -3.8223    3.4582    1.1269 H   0  0  0  0  0  0  0  0  0  0  0  0
   -2.9488    2.9566   -0.3333 H   0  0  0  0  0  0  0  0  0  0  0  0
   -2.0545    3.5098    1.1907 H   0  0  0  0  0  0  0  0  0  0  0  0
   -3.5271   -1.2806   -2.2838 H   0  0  0  0  0  0  0  0  0  0  0  0
   -0.9512   -1.9053   -2.9403 H   0  0  0  0  0  0  0  0  0  0  0  0
    1.3936   -1.5560   -2.3438 H   0  0  0  0  0  0  0  0  0  0  0  0
    0.1130    0.9664    0.8583 H   0  0  0  0  0  0  0  0  0  0  0  0
    2.9793    0.2339   -1.0878 H   0  0  0  0  0  0  0  0  0  0  0  0
    2.0575   -1.9893    0.6025 H   0  0  0  0  0  0  0  0  0  0  0  0
    3.5176   -1.8049   -0.4878 H   0  0  0  0  0  0  0  0  0  0  0  0
    3.1822   -0.8989    2.3426 H   0  0  0  0  0  0  0  0  0  0  0  0
    4.5157   -1.8591    1.6832 H   0  0  0  0  0  0  0  0  0  0  0  0
    6.1474    1.0198    0.1352 H   0  0  0  0  0  0  0  0  0  0  0  0
    5.6269   -0.5540   -0.5193 H   0  0  0  0  0  0  0  0  0  0  0  0
   10.0131   -1.7649    0.4400 H   0  0  0  0  0  0  0  0  0  0  0  0
    9.7838   -0.6815    1.8443 H   0  0  0  0  0  0  0  0  0  0  0  0
    9.0019   -2.2710    1.7958 H   0  0  0  0  0  0  0  0  0  0  0  0
    9.0898    0.4904   -0.8990 H   0  0  0  0  0  0  0  0  0  0  0  0
    8.6203   -1.0871   -1.5634 H   0  0  0  0  0  0  0  0  0  0  0  0
    7.3827    0.1356   -1.2696 H   0  0  0  0  0  0  0  0  0  0  0  0
    4.2323    1.9252    0.1524 H   0  0  0  0  0  0  0  0  0  0  0  0
    3.9861    1.9973    1.9480 H   0  0  0  0  0  0  0  0  0  0  0  0
    1.8468    1.9591    0.5130 H   0  0  0  0  0  0  0  0  0  0  0  0
    1.9622    0.6156    1.7325 H   0  0  0  0  0  0  0  0  0  0  0  0
   -5.2581   -1.8869   -1.4913 H   0  0  0  0  0  0  0  0  0  0  0  0
   -7.2142   -2.8313   -2.3500 H   0  0  0  0  0  0  0  0  0  0  0  0
   -8.1264   -3.1218   -0.8533 H   0  0  0  0  0  0  0  0  0  0  0  0
   -8.8083   -2.0536   -2.2059 H   0  0  0  0  0  0  0  0  0  0  0  0
  -10.3290    1.7048    0.5829 H   0  0  0  0  0  0  0  0  0  0  0  0
   -5.5092    1.8458    0.4785 H   0  0  0  0  0  0  0  0  0  0  0  0
  1  2  1  0
  2  3  1  0
  2  4  1  0
  4  5  2  0
  5  6  1  0
  6  7  1  0
  7  8  2  0
  8  9  1  0
  9 10  2  0
 10 11  1  0
 11 12  2  0
 10 13  1  0
 13 14  1  0
 14 15  1  0
 15 16  1  0
 16 17  1  0
 17 18  1  0
 18 19  2  0
 18 20  1  0
 20 21  1  0
 20 22  1  0
 16 23  1  0
 23 24  1  0
  5 25  1  0
 25 26  1  0
 26 27  2  0
 27 28  1  0
 27 29  1  0
 29 30  2  0
 30 31  1  0
 31 32  2  0
 32 33  1  0
 33 34  1  0
 12  4  1  0
 24 13  1  0
 34 25  2  0
 12  7  1  0
 33 29  1  0
  1 35  1  0
  1 36  1  0
  1 37  1  0
  2 38  1  0
  3 39  1  0
  3 40  1  0
  3 41  1  0
  6 42  1  0
  8 43  1  0
  9 44  1  0
 11 45  1  0
 13 46  1  0
 14 47  1  0
 14 48  1  0
 15 49  1  0
 15 50  1  0
 17 51  1  0
 17 52  1  0
 21 53  1  0
 21 54  1  0
 21 55  1  0
 22 56  1  0
 22 57  1  0
 22 58  1  0
 23 59  1  0
 23 60  1  0
 24 61  1  0
 24 62  1  0
 26 63  1  0
 28 64  1  0
 28 65  1  0
 28 66  1  0
 31 67  1  0
 34 68  1  0
M  END
$$$$
[H]c1nc(N([H])[C@]2([H])C([H])([H])C([H])([H])[C@]([H])(N3C([H])([H])C([H])([H])N(c4c([H])c([H])c([H])c([H])c4OC([H])(C([H])([H])[H])C([H])([H])[H])C([H])([H])C3([H])[H])C([H])([H])C2([H])[H])c2c([H])c([H])c([H])c([H])c2n1
     RDKit          3D

 68 72  0  0  0  0  0  0  0  0999 V2000
    6.9450   -0.5759   -2.5714 C   0  0  0  0  0  0  0  0  0  0  0  0
    6.4077    0.4362   -1.5649 C   0  0  0  0  0  0  0  0  0  0  0  0
    6.0982    1.6889   -2.3671 C   0  0  0  0  0  0  0  0  0  0  0  0
    5.2958   -0.0463   -0.8824 O   0  0  0  0  0  0  0  0  0  0  0  0
    5.1341   -0.2492    0.4546 C   0  0  0  0  0  0  0  0  0  0  0  0
    6.1092    0.0078    1.3918 C   0  0  0  0  0  0  0  0  0  0  0  0
    5.8979   -0.2146    2.7406 C   0  0  0  0  0  0  0  0  0  0  0  0
    4.6974   -0.7047    3.2036 C   0  0  0  0  0  0  0  0  0  0  0  0
    3.7156   -0.9628    2.2545 C   0  0  0  0  0  0  0  0  0  0  0  0
    3.9224   -0.7429    0.9123 C   0  0  0  0  0  0  0  0  0  0  0  0
    2.9067   -1.0160   -0.0224 N   0  0  0  0  0  0  0  0  0  0  0  0
    2.3777    0.0498   -0.8882 C   0  0  0  0  0  0  0  0  0  0  0  0
    0.9896   -0.3503   -1.3414 C   0  0  0  0  0  0  0  0  0  0  0  0
    0.2283   -1.0045   -0.3375 N   0  0  0  0  0  0  0  0  0  0  0  0
    0.8451   -2.1743    0.2169 C   0  0  0  0  0  0  0  0  0  0  0  0
    2.2832   -2.3048   -0.2399 C   0  0  0  0  0  0  0  0  0  0  0  0
   -0.3447   -0.1225    0.6371 C   0  0  2  0  0  0  0  0  0  0  0  0
   -1.2135   -0.7933    1.6374 C   0  0  0  0  0  0  0  0  0  0  0  0
   -2.7061   -0.5724    1.4125 C   0  0  0  0  0  0  0  0  0  0  0  0
   -3.0826    0.8695    1.4330 C   0  0  1  0  0  0  0  0  0  0  0  0
   -1.8986    1.6917    1.0558 C   0  0  0  0  0  0  0  0  0  0  0  0
   -1.1548    0.9450   -0.0635 C   0  0  0  0  0  0  0  0  0  0  0  0
   -4.1487    1.1083    0.4562 N   0  0  0  0  0  0  0  0  0  0  0  0
   -5.3996    0.4351    0.5967 C   0  0  0  0  0  0  0  0  0  0  0  0
   -5.5997   -0.4176    1.6307 N   0  0  0  0  0  0  0  0  0  0  0  0
   -6.7510   -1.0707    1.8104 C   0  0  0  0  0  0  0  0  0  0  0  0
   -7.7563   -0.8847    0.9411 N   0  0  0  0  0  0  0  0  0  0  0  0
   -7.6411   -0.0545   -0.1145 C   0  0  0  0  0  0  0  0  0  0  0  0
   -8.6965    0.1202   -0.9996 C   0  0  0  0  0  0  0  0  0  0  0  0
   -8.5779    0.9664   -2.0757 C   0  0  0  0  0  0  0  0  0  0  0  0
   -7.3937    1.6365   -2.2584 C   0  0  0  0  0  0  0  0  0  0  0  0
   -6.3434    1.4560   -1.3687 C   0  0  0  0  0  0  0  0  0  0  0  0
   -6.4387    0.6167   -0.2877 C   0  0  0  0  0  0  0  0  0  0  0  0
    7.8359   -0.1287   -3.0281 H   0  0  0  0  0  0  0  0  0  0  0  0
    7.1872   -1.5391   -2.0991 H   0  0  0  0  0  0  0  0  0  0  0  0
    6.1509   -0.6910   -3.3528 H   0  0  0  0  0  0  0  0  0  0  0  0
    7.2418    0.6651   -0.8890 H   0  0  0  0  0  0  0  0  0  0  0  0
    5.0931    1.5810   -2.8187 H   0  0  0  0  0  0  0  0  0  0  0  0
    6.1635    2.5722   -1.6985 H   0  0  0  0  0  0  0  0  0  0  0  0
    6.8939    1.8056   -3.1226 H   0  0  0  0  0  0  0  0  0  0  0  0
    7.0774    0.3940    1.0991 H   0  0  0  0  0  0  0  0  0  0  0  0
    6.7157    0.0116    3.4300 H   0  0  0  0  0  0  0  0  0  0  0  0
    4.5143   -0.8857    4.2553 H   0  0  0  0  0  0  0  0  0  0  0  0
    2.7838   -1.3474    2.6488 H   0  0  0  0  0  0  0  0  0  0  0  0
    2.4363    1.0353   -0.4348 H   0  0  0  0  0  0  0  0  0  0  0  0
    3.0175    0.0396   -1.7933 H   0  0  0  0  0  0  0  0  0  0  0  0
    1.1087   -1.0858   -2.1915 H   0  0  0  0  0  0  0  0  0  0  0  0
    0.5013    0.5171   -1.7619 H   0  0  0  0  0  0  0  0  0  0  0  0
    0.8889   -2.1650    1.3257 H   0  0  0  0  0  0  0  0  0  0  0  0
    0.2821   -3.0607   -0.1512 H   0  0  0  0  0  0  0  0  0  0  0  0
    2.2765   -2.5431   -1.3380 H   0  0  0  0  0  0  0  0  0  0  0  0
    2.8134   -3.0941    0.3353 H   0  0  0  0  0  0  0  0  0  0  0  0
    0.5178    0.4141    1.1294 H   0  0  0  0  0  0  0  0  0  0  0  0
   -0.9903   -0.3808    2.6443 H   0  0  0  0  0  0  0  0  0  0  0  0
   -1.0893   -1.8913    1.6989 H   0  0  0  0  0  0  0  0  0  0  0  0
   -3.1884   -1.0525    2.3163 H   0  0  0  0  0  0  0  0  0  0  0  0
   -3.0945   -1.1392    0.5508 H   0  0  0  0  0  0  0  0  0  0  0  0
   -3.4971    1.2022    2.4122 H   0  0  0  0  0  0  0  0  0  0  0  0
   -2.1479    2.7018    0.6946 H   0  0  0  0  0  0  0  0  0  0  0  0
   -1.1939    1.8118    1.9215 H   0  0  0  0  0  0  0  0  0  0  0  0
   -0.5329    1.7331   -0.5370 H   0  0  0  0  0  0  0  0  0  0  0  0
   -1.8711    0.4669   -0.7640 H   0  0  0  0  0  0  0  0  0  0  0  0
   -3.9929    1.7538   -0.3191 H   0  0  0  0  0  0  0  0  0  0  0  0
   -6.8997   -1.7622    2.6563 H   0  0  0  0  0  0  0  0  0  0  0  0
   -9.6159   -0.4241   -0.8245 H   0  0  0  0  0  0  0  0  0  0  0  0
   -9.4091    1.1078   -2.7796 H   0  0  0  0  0  0  0  0  0  0  0  0
   -7.2758    2.3082   -3.0976 H   0  0  0  0  0  0  0  0  0  0  0  0
   -5.4081    1.9886   -1.5190 H   0  0  0  0  0  0  0  0  0  0  0  0
  1  2  1  0
  2  3  1  0
  2  4  1  0
  4  5  1  0
  5  6  2  0
  6  7  1  0
  7  8  2  0
  8  9  1  0
  9 10  2  0
 10 11  1  0
 11 12  1  0
 12 13  1  0
 13 14  1  0
 14 15  1  0
 15 16  1  0
 14 17  1  0
 17 18  1  0
 18 19  1  0
 19 20  1  0
 20 21  1  0
 21 22  1  0
 20 23  1  0
 23 24  1  0
 24 25  2  0
 25 26  1  0
 26 27  2  0
 27 28  1  0
 28 29  2  0
 29 30  1  0
 30 31  2  0
 31 32  1  0
 32 33  2  0
 10  5  1  0
 16 11  1  0
 22 17  1  0
 33 24  1  0
 33 28  1  0
  1 34  1  0
  1 35  1  0
  1 36  1  0
  2 37  1  0
  3 38  1  0
  3 39  1  0
  3 40  1  0
  6 41  1  0
  7 42  1  0
  8 43  1  0
  9 44  1  0
 12 45  1  0
 12 46  1  0
 13 47  1  0
 13 48  1  0
 15 49  1  0
 15 50  1  0
 16 51  1  0
 16 52  1  0
 17 53  1  1
 18 54  1  0
 18 55  1  0
 19 56  1  0
 19 57  1  0
 20 58  1  1
 21 59  1  0
 21 60  1  0
 22 61  1  0
 22 62  1  0
 23 63  1  0
 26 64  1  0
 29 65  1  0
 30 66  1  0
 31 67  1  0
 32 68  1  0
M  END
$$$$
[H]c1c([H])c(Cl)c(-c2c([H])c3c([H])nc(N([H])c4c([H])c([H])c(N5C([H])([H])C([H])([H])N(C([H])([H])[H])C([H])([H])C5([H])[H])c([H])c4[H])nc3n(C([H])([H])[H])c2=O)c(Cl)c1[H]
     RDKit          3D

 58 62  0  0  0  0  0  0  0  0999 V2000
    8.7224   -0.7038   -1.0744 C   0  0  0  0  0  0  0  0  0  0  0  0
    7.4397   -0.3590   -1.6865 N   0  0  0  0  0  0  0  0  0  0  0  0
    7.0422    0.9098   -1.1085 C   0  0  0  0  0  0  0  0  0  0  0  0
    6.3179    0.6491    0.1968 C   0  0  0  0  0  0  0  0  0  0  0  0
    5.0438    0.0436   -0.1284 N   0  0  0  0  0  0  0  0  0  0  0  0
    5.0923   -0.9153   -1.2399 C   0  0  0  0  0  0  0  0  0  0  0  0
    6.5145   -1.4160   -1.3667 C   0  0  0  0  0  0  0  0  0  0  0  0
    3.8252    0.3062    0.5286 C   0  0  0  0  0  0  0  0  0  0  0  0
    3.7214    1.1243    1.6305 C   0  0  0  0  0  0  0  0  0  0  0  0
    2.5219    1.3736    2.2571 C   0  0  0  0  0  0  0  0  0  0  0  0
    1.3265    0.7971    1.7969 C   0  0  0  0  0  0  0  0  0  0  0  0
    0.1469    1.0923    2.4998 N   0  0  0  0  0  0  0  0  0  0  0  0
   -1.1899    0.8532    2.1110 C   0  0  0  0  0  0  0  0  0  0  0  0
   -2.2165    1.2108    2.9512 N   0  0  0  0  0  0  0  0  0  0  0  0
   -3.5029    1.0306    2.6538 C   0  0  0  0  0  0  0  0  0  0  0  0
   -3.8747    0.4675    1.4698 C   0  0  0  0  0  0  0  0  0  0  0  0
   -5.2097    0.2655    1.1275 C   0  0  0  0  0  0  0  0  0  0  0  0
   -5.5448   -0.3068   -0.0798 C   0  0  0  0  0  0  0  0  0  0  0  0
   -6.9463   -0.5110   -0.4233 C   0  0  0  0  0  0  0  0  0  0  0  0
   -7.5727   -1.6909   -0.0816 C   0  0  0  0  0  0  0  0  0  0  0  0
   -6.7254   -2.9692    0.7637 Cl  0  0  0  0  0  0  0  0  0  0  0  0
   -8.9062   -1.9121   -0.3963 C   0  0  0  0  0  0  0  0  0  0  0  0
   -9.6532   -0.9477   -1.0678 C   0  0  0  0  0  0  0  0  0  0  0  0
   -9.0241    0.2360   -1.4104 C   0  0  0  0  0  0  0  0  0  0  0  0
   -7.7010    0.4264   -1.0849 C   0  0  0  0  0  0  0  0  0  0  0  0
   -6.9498    1.9389   -1.5390 Cl  0  0  0  0  0  0  0  0  0  0  0  0
   -4.5000   -0.6566   -0.9040 C   0  0  0  0  0  0  0  0  0  0  0  0
   -4.7838   -1.1819   -2.0136 O   0  0  0  0  0  0  0  0  0  0  0  0
   -3.2127   -0.4601   -0.5703 N   0  0  0  0  0  0  0  0  0  0  0  0
   -2.1231   -0.8424   -1.4667 C   0  0  0  0  0  0  0  0  0  0  0  0
   -2.8626    0.0985    0.6064 C   0  0  0  0  0  0  0  0  0  0  0  0
   -1.5959    0.3058    0.9635 N   0  0  0  0  0  0  0  0  0  0  0  0
    1.4499   -0.0143    0.6998 C   0  0  0  0  0  0  0  0  0  0  0  0
    2.6757   -0.2660    0.0631 C   0  0  0  0  0  0  0  0  0  0  0  0
    8.4600   -1.1949   -0.0924 H   0  0  0  0  0  0  0  0  0  0  0  0
    9.2266   -1.4433   -1.7258 H   0  0  0  0  0  0  0  0  0  0  0  0
    9.3445    0.2028   -0.8899 H   0  0  0  0  0  0  0  0  0  0  0  0
    7.8706    1.5909   -0.9005 H   0  0  0  0  0  0  0  0  0  0  0  0
    6.3455    1.3995   -1.8075 H   0  0  0  0  0  0  0  0  0  0  0  0
    6.2737    1.5522    0.7954 H   0  0  0  0  0  0  0  0  0  0  0  0
    6.9057   -0.1203    0.7570 H   0  0  0  0  0  0  0  0  0  0  0  0
    4.7414   -0.4993   -2.1814 H   0  0  0  0  0  0  0  0  0  0  0  0
    4.5014   -1.8035   -0.8821 H   0  0  0  0  0  0  0  0  0  0  0  0
    6.5452   -2.1425   -2.2209 H   0  0  0  0  0  0  0  0  0  0  0  0
    6.8537   -1.9325   -0.4561 H   0  0  0  0  0  0  0  0  0  0  0  0
    4.6486    1.5712    1.9890 H   0  0  0  0  0  0  0  0  0  0  0  0
    2.4849    2.0217    3.1179 H   0  0  0  0  0  0  0  0  0  0  0  0
    0.2484    1.5552    3.4589 H   0  0  0  0  0  0  0  0  0  0  0  0
   -4.2586    1.3336    3.3571 H   0  0  0  0  0  0  0  0  0  0  0  0
   -5.9798    0.5697    1.8346 H   0  0  0  0  0  0  0  0  0  0  0  0
   -9.4125   -2.8283   -0.1374 H   0  0  0  0  0  0  0  0  0  0  0  0
  -10.7017   -1.1457   -1.3040 H   0  0  0  0  0  0  0  0  0  0  0  0
   -9.6092    0.9884   -1.9349 H   0  0  0  0  0  0  0  0  0  0  0  0
   -1.4230   -1.4968   -0.8848 H   0  0  0  0  0  0  0  0  0  0  0  0
   -2.4850   -1.4366   -2.3206 H   0  0  0  0  0  0  0  0  0  0  0  0
   -1.5780    0.0677   -1.7368 H   0  0  0  0  0  0  0  0  0  0  0  0
    0.5779   -0.5003    0.2943 H   0  0  0  0  0  0  0  0  0  0  0  0
    2.6748   -0.9267   -0.8068 H   0  0  0  0  0  0  0  0  0  0  0  0
  1  2  1  0
  2  3  1  0
  3  4  1  0
  4  5  1  0
  5  6  1  0
  6  7  1  0
  5  8  1  0
  8  9  2  0
  9 10  1  0
 10 11  2  0
 11 12  1  0
 12 13  1  0
 13 14  2  0
 14 15  1  0
 15 16  2  0
 16 17  1  0
 17 18  2  0
 18 19  1  0
 19 20  2  0
 20 21  1  0
 20 22  1  0
 22 23  2  0
 23 24  1  0
 24 25  2  0
 25 26  1  0
 18 27  1  0
 27 28  2  0
 27 29  1  0
 29 30  1  0
 29 31  1  0
 31 32  2  0
 11 33  1  0
 33 34  2  0
  7  2  1  0
 34  8  1  0
 32 13  1  0
 31 16  1  0
 25 19  1  0
  1 35  1  0
  1 36  1  0
  1 37  1  0
  3 38  1  0
  3 39  1  0
  4 40  1  0
  4 41  1  0
  6 42  1  0
  6 43  1  0
  7 44  1  0
  7 45  1  0
  9 46  1  0
 10 47  1  0
 12 48  1  0
 15 49  1  0
 17 50  1  0
 22 51  1  0
 23 52  1  0
 24 53  1  0
 30 54  1  0
 30 55  1  0
 30 56  1  0
 33 57  1  0
 34 58  1  0
M  END
$$$$
[H]OC(=O)[C@@]([H])(N([H])[H])C([H])([H])O[H]
     RDKit          3D

 14 13  0  0  0  0  0  0  0  0999 V2000
   -0.5972    1.0010   -0.8162 N   0  0  0  0  0  0  0  0  0  0  0  0
   -0.0475    0.5482    0.4313 C   0  0  1  0  0  0  0  0  0  0  0  0
   -0.9098   -0.6303    0.8918 C   0  0  0  0  0  0  0  0  0  0  0  0
   -0.8689   -1.6406   -0.0558 O   0  0  0  0  0  0  0  0  0  0  0  0
    1.3608    0.0915    0.3091 C   0  0  0  0  0  0  0  0  0  0  0  0
    2.0414    0.1135   -0.8938 O   0  0  0  0  0  0  0  0  0  0  0  0
    1.9111   -0.3214    1.3660 O   0  0  0  0  0  0  0  0  0  0  0  0
    0.0404    1.6145   -1.3250 H   0  0  0  0  0  0  0  0  0  0  0  0
   -1.4920    1.4929   -0.6120 H   0  0  0  0  0  0  0  0  0  0  0  0
   -0.1624    1.3265    1.2202 H   0  0  0  0  0  0  0  0  0  0  0  0
   -0.5218   -0.9510    1.8729 H   0  0  0  0  0  0  0  0  0  0  0  0
   -1.9534   -0.2774    0.9810 H   0  0  0  0  0  0  0  0  0  0  0  0
   -1.7488   -2.0446   -0.1298 H   0  0  0  0  0  0  0  0  0  0  0  0
    2.9480   -0.3228   -0.9427 H   0  0  0  0  0  0  0  0  0  0  0  0
  1  2  1  0
  2  3  1  0
  3  4  1  0
  2  5  1  0
  5  6  1  0
  5  7  2  0
  1  8  1  0
  1  9  1  0
  2 10  1  1
  3 11  1  0
  3 12  1  0
  4 13  1  0
  6 14  1  0
M  END
$$$$
[H]c1c([H])c(N([H])[H])c2c(C3=C(c4c([H])n([H])c5c([H])c([H])c([H])c([H])c45)C(=O)N([H])C3=O)nc(N3C([H])([H])C([H])([H])N(C([H])([H])[H])C([H])([H])C3([H])[H])nc2c1[H]
     RDKit          3D

 57 62  0  0  0  0  0  0  0  0999 V2000
   -5.8927   -2.8399   -0.6365 C   0  0  0  0  0  0  0  0  0  0  0  0
   -4.6760   -2.0654   -0.7699 N   0  0  0  0  0  0  0  0  0  0  0  0
   -3.9983   -2.0926    0.5089 C   0  0  0  0  0  0  0  0  0  0  0  0
   -2.6608   -1.3928    0.4872 C   0  0  0  0  0  0  0  0  0  0  0  0
   -2.6471   -0.2596   -0.4055 N   0  0  0  0  0  0  0  0  0  0  0  0
   -3.6621   -0.0057   -1.3957 C   0  0  0  0  0  0  0  0  0  0  0  0
   -4.9795   -0.6608   -1.0431 C   0  0  0  0  0  0  0  0  0  0  0  0
   -1.5785    0.6600   -0.3043 C   0  0  0  0  0  0  0  0  0  0  0  0
   -0.6474    0.4831    0.5936 N   0  0  0  0  0  0  0  0  0  0  0  0
    0.4480    1.2674    0.8289 C   0  0  0  0  0  0  0  0  0  0  0  0
    1.3268    0.8700    1.8816 C   0  0  0  0  0  0  0  0  0  0  0  0
    2.4483    0.2330    1.8615 C   0  0  0  0  0  0  0  0  0  0  0  0
    2.9588    0.0773    3.2569 C   0  0  0  0  0  0  0  0  0  0  0  0
    4.0253   -0.4905    3.6035 O   0  0  0  0  0  0  0  0  0  0  0  0
    2.0332    0.6830    4.1511 N   0  0  0  0  0  0  0  0  0  0  0  0
    1.0113    1.1794    3.2999 C   0  0  0  0  0  0  0  0  0  0  0  0
   -0.0210    1.7976    3.6944 O   0  0  0  0  0  0  0  0  0  0  0  0
    3.2308   -0.3734    0.7923 C   0  0  0  0  0  0  0  0  0  0  0  0
    4.5761   -0.0316    0.5117 C   0  0  0  0  0  0  0  0  0  0  0  0
    5.0534   -0.7633   -0.4788 N   0  0  0  0  0  0  0  0  0  0  0  0
    4.0779   -1.5735   -0.8610 C   0  0  0  0  0  0  0  0  0  0  0  0
    4.0873   -2.5511   -1.8638 C   0  0  0  0  0  0  0  0  0  0  0  0
    2.9536   -3.3008   -2.0832 C   0  0  0  0  0  0  0  0  0  0  0  0
    1.8371   -3.0790   -1.3184 C   0  0  0  0  0  0  0  0  0  0  0  0
    1.8201   -2.1224   -0.3340 C   0  0  0  0  0  0  0  0  0  0  0  0
    2.9504   -1.3693   -0.1120 C   0  0  0  0  0  0  0  0  0  0  0  0
    0.5447    2.3599    0.0091 C   0  0  0  0  0  0  0  0  0  0  0  0
    1.5495    3.2821    0.1084 C   0  0  0  0  0  0  0  0  0  0  0  0
    2.5762    3.2114    1.0853 N   0  0  0  0  0  0  0  0  0  0  0  0
    1.5730    4.3853   -0.7457 C   0  0  0  0  0  0  0  0  0  0  0  0
    0.6136    4.5865   -1.6943 C   0  0  0  0  0  0  0  0  0  0  0  0
   -0.3953    3.6871   -1.8100 C   0  0  0  0  0  0  0  0  0  0  0  0
   -0.4282    2.5800   -0.9597 C   0  0  0  0  0  0  0  0  0  0  0  0
   -1.4711    1.7382   -1.1086 N   0  0  0  0  0  0  0  0  0  0  0  0
   -6.5045   -2.5558    0.2219 H   0  0  0  0  0  0  0  0  0  0  0  0
   -5.5897   -3.9049   -0.5351 H   0  0  0  0  0  0  0  0  0  0  0  0
   -6.4641   -2.7832   -1.6074 H   0  0  0  0  0  0  0  0  0  0  0  0
   -3.8621   -3.1333    0.8898 H   0  0  0  0  0  0  0  0  0  0  0  0
   -4.6939   -1.5924    1.2441 H   0  0  0  0  0  0  0  0  0  0  0  0
   -1.8275   -2.1143    0.2524 H   0  0  0  0  0  0  0  0  0  0  0  0
   -2.4574   -1.0356    1.5215 H   0  0  0  0  0  0  0  0  0  0  0  0
   -3.8830    1.0787   -1.5292 H   0  0  0  0  0  0  0  0  0  0  0  0
   -3.3506   -0.4332   -2.3919 H   0  0  0  0  0  0  0  0  0  0  0  0
   -5.6594   -0.5623   -1.9015 H   0  0  0  0  0  0  0  0  0  0  0  0
   -5.4032   -0.1770   -0.1375 H   0  0  0  0  0  0  0  0  0  0  0  0
    2.1068    0.7389    5.1899 H   0  0  0  0  0  0  0  0  0  0  0  0
    5.1244    0.7299    1.0472 H   0  0  0  0  0  0  0  0  0  0  0  0
    6.0346   -0.7019   -0.8817 H   0  0  0  0  0  0  0  0  0  0  0  0
    4.9852   -2.6980   -2.4467 H   0  0  0  0  0  0  0  0  0  0  0  0
    2.9911   -4.0552   -2.8723 H   0  0  0  0  0  0  0  0  0  0  0  0
    0.9571   -3.6986   -1.5262 H   0  0  0  0  0  0  0  0  0  0  0  0
    0.9752   -1.9439    0.2772 H   0  0  0  0  0  0  0  0  0  0  0  0
    3.5043    2.8748    0.7533 H   0  0  0  0  0  0  0  0  0  0  0  0
    2.4903    3.4834    2.0781 H   0  0  0  0  0  0  0  0  0  0  0  0
    2.3927    5.0968   -0.6349 H   0  0  0  0  0  0  0  0  0  0  0  0
    0.6683    5.4642   -2.3463 H   0  0  0  0  0  0  0  0  0  0  0  0
   -1.1720    3.8133   -2.5477 H   0  0  0  0  0  0  0  0  0  0  0  0
  1  2  1  0
  2  3  1  0
  3  4  1  0
  4  5  1  0
  5  6  1  0
  6  7  1  0
  5  8  1  0
  8  9  2  0
  9 10  1  0
 10 11  1  0
 11 12  2  0
 12 13  1  0
 13 14  2  0
 13 15  1  0
 15 16  1  0
 16 17  2  0
 12 18  1  0
 18 19  2  0
 19 20  1  0
 20 21  1  0
 21 22  2  0
 22 23  1  0
 23 24  2  0
 24 25  1  0
 25 26  2  0
 10 27  2  0
 27 28  1  0
 28 29  1  0
 28 30  2  0
 30 31  1  0
 31 32  2  0
 32 33  1  0
 33 34  2  0
  7  2  1  0
 34  8  1  0
 16 11  1  0
 26 18  1  0
 33 27  1  0
 26 21  1  0
  1 35  1  0
  1 36  1  0
  1 37  1  0
  3 38  1  0
  3 39  1  0
  4 40  1  0
  4 41  1  0
  6 42  1  0
  6 43  1  0
  7 44  1  0
  7 45  1  0
 15 46  1  0
 19 47  1  0
 20 48  1  0
 22 49  1  0
 23 50  1  0
 24 51  1  0
 25 52  1  0
 29 53  1  0
 29 54  1  0
 30 55  1  0
 31 56  1  0
 32 57  1  0
M  END
$$$$
[H]OC(=O)C([H])([H])C([H])([H])[C@@]([H])(C([H])([H])[H])[C@@]1([H])C([H])([H])C([H])([H])[C@@]2([H])[C@]3([H])[C@@]([H])(O[H])C([H])([H])[C@]4([H])C([H])([H])[C@]([H])(O[H])C([H])([H])C([H])([H])[C@]4(C([H])([H])[H])[C@@]3([H])C([H])([H])C([H])([H])[C@@]21C([H])([H])[H]
     RDKit          3D

 68 71  0  0  0  0  0  0  0  0999 V2000
    4.0310    0.0812   -1.8654 C   0  0  0  0  0  0  0  0  0  0  0  0
    3.8145    0.5856   -0.4697 C   0  0  2  0  0  0  0  0  0  0  0  0
    5.0735    0.5784    0.3338 C   0  0  0  0  0  0  0  0  0  0  0  0
    5.8744   -0.6163    0.5140 C   0  0  0  0  0  0  0  0  0  0  0  0
    5.4421   -1.8302    1.1637 C   0  0  0  0  0  0  0  0  0  0  0  0
    6.3817   -2.9342    1.1685 O   0  0  0  0  0  0  0  0  0  0  0  0
    4.3930   -2.1388    1.7424 O   0  0  0  0  0  0  0  0  0  0  0  0
    2.6230    0.2687    0.2664 C   0  0  1  0  0  0  0  0  0  0  0  0
    2.6386    0.9429    1.6228 C   0  0  0  0  0  0  0  0  0  0  0  0
    1.1665    1.1305    2.0250 C   0  0  0  0  0  0  0  0  0  0  0  0
    0.4441    0.4443    0.9475 C   0  0  1  0  0  0  0  0  0  0  0  0
   -1.0046    0.7294    0.7734 C   0  0  2  0  0  0  0  0  0  0  0  0
   -1.7608    0.0346    1.8882 C   0  0  1  0  0  0  0  0  0  0  0  0
   -1.3249    0.3445    3.1494 O   0  0  0  0  0  0  0  0  0  0  0  0
   -3.1881    0.5072    1.7808 C   0  0  0  0  0  0  0  0  0  0  0  0
   -3.7683    0.4471    0.4072 C   0  0  2  0  0  0  0  0  0  0  0  0
   -5.1579   -0.1166    0.5212 C   0  0  0  0  0  0  0  0  0  0  0  0
   -5.3068   -1.5377    0.0833 C   0  0  2  0  0  0  0  0  0  0  0  0
   -4.6471   -2.3784    0.9831 O   0  0  0  0  0  0  0  0  0  0  0  0
   -4.6792   -1.7847   -1.2822 C   0  0  0  0  0  0  0  0  0  0  0  0
   -3.2246   -1.5632   -1.0166 C   0  0  0  0  0  0  0  0  0  0  0  0
   -2.9112   -0.1133   -0.6494 C   0  0  1  0  0  0  0  0  0  0  0  0
   -3.1838    0.6285   -1.9746 C   0  0  0  0  0  0  0  0  0  0  0  0
   -1.4470   -0.0771   -0.4466 C   0  0  1  0  0  0  0  0  0  0  0  0
   -0.6792    0.4163   -1.6564 C   0  0  0  0  0  0  0  0  0  0  0  0
    0.7752   -0.0097   -1.4047 C   0  0  0  0  0  0  0  0  0  0  0  0
    1.2981    0.7919   -0.2707 C   0  0  2  0  0  0  0  0  0  0  0  0
    1.2459    2.2618   -0.4547 C   0  0  0  0  0  0  0  0  0  0  0  0
    3.5440    0.7167   -2.5911 H   0  0  0  0  0  0  0  0  0  0  0  0
    5.1328    0.1723   -2.0690 H   0  0  0  0  0  0  0  0  0  0  0  0
    3.6762   -0.9546   -2.0187 H   0  0  0  0  0  0  0  0  0  0  0  0
    3.6904    1.7493   -0.6930 H   0  0  0  0  0  0  0  0  0  0  0  0
    5.7849    1.4085   -0.0339 H   0  0  0  0  0  0  0  0  0  0  0  0
    4.8744    0.9807    1.3915 H   0  0  0  0  0  0  0  0  0  0  0  0
    6.8469   -0.3251    1.0864 H   0  0  0  0  0  0  0  0  0  0  0  0
    6.3651   -0.9759   -0.4577 H   0  0  0  0  0  0  0  0  0  0  0  0
    6.4823   -3.4969    0.3417 H   0  0  0  0  0  0  0  0  0  0  0  0
    2.4427   -0.8161    0.3864 H   0  0  0  0  0  0  0  0  0  0  0  0
    3.1434    1.9353    1.5812 H   0  0  0  0  0  0  0  0  0  0  0  0
    3.1972    0.3506    2.3538 H   0  0  0  0  0  0  0  0  0  0  0  0
    0.9815    2.2143    2.1093 H   0  0  0  0  0  0  0  0  0  0  0  0
    1.0943    0.6990    3.0356 H   0  0  0  0  0  0  0  0  0  0  0  0
    0.5330   -0.6683    1.1243 H   0  0  0  0  0  0  0  0  0  0  0  0
   -1.2983    1.7706    0.7356 H   0  0  0  0  0  0  0  0  0  0  0  0
   -1.7327   -1.0695    1.7721 H   0  0  0  0  0  0  0  0  0  0  0  0
   -1.5130    1.2859    3.4167 H   0  0  0  0  0  0  0  0  0  0  0  0
   -3.2076    1.5202    2.2474 H   0  0  0  0  0  0  0  0  0  0  0  0
   -3.7679   -0.1330    2.5134 H   0  0  0  0  0  0  0  0  0  0  0  0
   -3.9396    1.5347    0.1267 H   0  0  0  0  0  0  0  0  0  0  0  0
   -5.9202    0.4700   -0.0357 H   0  0  0  0  0  0  0  0  0  0  0  0
   -5.5243   -0.0969    1.5855 H   0  0  0  0  0  0  0  0  0  0  0  0
   -6.3606   -1.7889    0.0062 H   0  0  0  0  0  0  0  0  0  0  0  0
   -4.7593   -3.3022    0.6157 H   0  0  0  0  0  0  0  0  0  0  0  0
   -4.8187   -2.8548   -1.5022 H   0  0  0  0  0  0  0  0  0  0  0  0
   -5.0877   -1.1190   -2.0521 H   0  0  0  0  0  0  0  0  0  0  0  0
   -2.9365   -2.2206   -0.1577 H   0  0  0  0  0  0  0  0  0  0  0  0
   -2.6035   -1.8342   -1.8822 H   0  0  0  0  0  0  0  0  0  0  0  0
   -2.7605    1.6302   -1.9813 H   0  0  0  0  0  0  0  0  0  0  0  0
   -2.9931    0.0031   -2.8445 H   0  0  0  0  0  0  0  0  0  0  0  0
   -4.3057    0.7774   -1.9576 H   0  0  0  0  0  0  0  0  0  0  0  0
   -1.0183   -1.1039   -0.2309 H   0  0  0  0  0  0  0  0  0  0  0  0
   -0.9880   -0.1629   -2.5506 H   0  0  0  0  0  0  0  0  0  0  0  0
   -0.7382    1.5085   -1.7914 H   0  0  0  0  0  0  0  0  0  0  0  0
    0.6917   -1.0719   -1.0523 H   0  0  0  0  0  0  0  0  0  0  0  0
    1.2640    0.0806   -2.3640 H   0  0  0  0  0  0  0  0  0  0  0  0
    0.2235    2.6950   -0.2619 H   0  0  0  0  0  0  0  0  0  0  0  0
    1.4741    2.5848   -1.5111 H   0  0  0  0  0  0  0  0  0  0  0  0
    1.9130    2.8141    0.2361 H   0  0  0  0  0  0  0  0  0  0  0  0
  1  2  1  0
  2  3  1  0
  3  4  1  0
  4  5  1  0
  5  6  1  0
  5  7  2  0
  2  8  1  0
  8  9  1  0
  9 10  1  0
 10 11  1  0
 11 12  1  0
 12 13  1  0
 13 14  1  0
 13 15  1  0
 15 16  1  0
 16 17  1  0
 17 18  1  0
 18 19  1  0
 18 20  1  0
 20 21  1  0
 21 22  1  0
 22 23  1  6
 22 24  1  0
 24 25  1  0
 25 26  1  0
 26 27  1  0
 27 28  1  6
 27  8  1  0
 27 11  1  0
 24 12  1  0
 22 16  1  0
  1 29  1  0
  1 30  1  0
  1 31  1  0
  2 32  1  6
  3 33  1  0
  3 34  1  0
  4 35  1  0
  4 36  1  0
  6 37  1  0
  8 38  1  1
  9 39  1  0
  9 40  1  0
 10 41  1  0
 10 42  1  0
 11 43  1  1
 12 44  1  6
 13 45  1  6
 14 46  1  0
 15 47  1  0
 15 48  1  0
 16 49  1  6
 17 50  1  0
 17 51  1  0
 18 52  1  6
 19 53  1  0
 20 54  1  0
 20 55  1  0
 21 56  1  0
 21 57  1  0
 23 58  1  0
 23 59  1  0
 23 60  1  0
 24 61  1  1
 25 62  1  0
 25 63  1  0
 26 64  1  0
 26 65  1  0
 28 66  1  0
 28 67  1  0
 28 68  1  0
M  END
$$$$
[H]Oc1c([H])c([H])c2c(c1[H])C([H])([H])C([H])([H])[C@]1([H])[C@]2([H])C([H])([H])[C@]2(C([H])([H])[H])[C@@](C#Cc3c([H])c([H])c([H])c([H])c3[H])(O[H])C([H])([H])C([H])([H])[C@]21[H]
     RDKit          3D

 53 57  0  0  0  0  0  0  0  0999 V2000
   -0.6839   -2.2916    1.1897 C   0  0  0  0  0  0  0  0  0  0  0  0
    0.1043   -1.3852    0.2957 C   0  0  2  0  0  0  0  0  0  0  0  0
   -0.0120    0.0062    0.7726 C   0  0  0  0  0  0  0  0  0  0  0  0
   -1.2772    0.4968    0.1496 C   0  0  1  0  0  0  0  0  0  0  0  0
   -1.8233   -0.7066   -0.6605 C   0  0  1  0  0  0  0  0  0  0  0  0
   -2.7740   -0.1403   -1.6298 C   0  0  0  0  0  0  0  0  0  0  0  0
   -3.9648    0.3860   -0.8636 C   0  0  0  0  0  0  0  0  0  0  0  0
   -3.6444    0.7920    0.5112 C   0  0  0  0  0  0  0  0  0  0  0  0
   -4.7355    1.1284    1.3159 C   0  0  0  0  0  0  0  0  0  0  0  0
   -4.5876    1.5278    2.6237 C   0  0  0  0  0  0  0  0  0  0  0  0
   -5.7152    1.8580    3.3998 O   0  0  0  0  0  0  0  0  0  0  0  0
   -3.3181    1.5935    3.1432 C   0  0  0  0  0  0  0  0  0  0  0  0
   -2.2486    1.2622    2.3496 C   0  0  0  0  0  0  0  0  0  0  0  0
   -2.3629    0.8597    1.0401 C   0  0  0  0  0  0  0  0  0  0  0  0
   -0.5588   -1.2368   -1.0933 C   0  0  2  0  0  0  0  0  0  0  0  0
   -0.3685   -2.5548   -1.6493 C   0  0  0  0  0  0  0  0  0  0  0  0
    1.1125   -2.7900   -1.3016 C   0  0  0  0  0  0  0  0  0  0  0  0
    1.3914   -1.9427   -0.0670 C   0  0  2  0  0  0  0  0  0  0  0  0
    1.8116   -2.8419    0.9312 O   0  0  0  0  0  0  0  0  0  0  0  0
    2.4116   -0.9355   -0.3320 C   0  0  0  0  0  0  0  0  0  0  0  0
    3.2690   -0.1023   -0.5539 C   0  0  0  0  0  0  0  0  0  0  0  0
    4.2713    0.8886   -0.8375 C   0  0  0  0  0  0  0  0  0  0  0  0
    4.1765    1.7789   -1.8858 C   0  0  0  0  0  0  0  0  0  0  0  0
    5.1365    2.7300   -2.1597 C   0  0  0  0  0  0  0  0  0  0  0  0
    6.2624    2.8200   -1.3609 C   0  0  0  0  0  0  0  0  0  0  0  0
    6.3840    1.9432   -0.3060 C   0  0  0  0  0  0  0  0  0  0  0  0
    5.4242    1.0114   -0.0530 C   0  0  0  0  0  0  0  0  0  0  0  0
    0.0426   -2.7154    1.9440 H   0  0  0  0  0  0  0  0  0  0  0  0
   -1.4175   -1.7240    1.7992 H   0  0  0  0  0  0  0  0  0  0  0  0
   -1.1587   -3.1384    0.7011 H   0  0  0  0  0  0  0  0  0  0  0  0
    0.0178    0.0358    1.8668 H   0  0  0  0  0  0  0  0  0  0  0  0
    0.8334    0.5982    0.3137 H   0  0  0  0  0  0  0  0  0  0  0  0
   -1.1181    1.3354   -0.5709 H   0  0  0  0  0  0  0  0  0  0  0  0
   -2.3633   -1.3947    0.0222 H   0  0  0  0  0  0  0  0  0  0  0  0
   -2.3116    0.7223   -2.1595 H   0  0  0  0  0  0  0  0  0  0  0  0
   -3.1308   -0.9172   -2.3437 H   0  0  0  0  0  0  0  0  0  0  0  0
   -4.4643    1.2230   -1.3969 H   0  0  0  0  0  0  0  0  0  0  0  0
   -4.7134   -0.4321   -0.8119 H   0  0  0  0  0  0  0  0  0  0  0  0
   -5.7611    1.0835    0.9224 H   0  0  0  0  0  0  0  0  0  0  0  0
   -6.0003    2.8233    3.3708 H   0  0  0  0  0  0  0  0  0  0  0  0
   -3.1675    1.9057    4.1740 H   0  0  0  0  0  0  0  0  0  0  0  0
   -1.2725    1.3207    2.7722 H   0  0  0  0  0  0  0  0  0  0  0  0
    0.0416   -0.4860   -1.6398 H   0  0  0  0  0  0  0  0  0  0  0  0
   -1.0068   -3.3642   -1.3173 H   0  0  0  0  0  0  0  0  0  0  0  0
   -0.4758   -2.5135   -2.7733 H   0  0  0  0  0  0  0  0  0  0  0  0
    1.2972   -3.8503   -1.1459 H   0  0  0  0  0  0  0  0  0  0  0  0
    1.6858   -2.3541   -2.1467 H   0  0  0  0  0  0  0  0  0  0  0  0
    2.5205   -3.3890    0.5022 H   0  0  0  0  0  0  0  0  0  0  0  0
    3.3143    1.7446   -2.5354 H   0  0  0  0  0  0  0  0  0  0  0  0
    5.0538    3.4219   -2.9815 H   0  0  0  0  0  0  0  0  0  0  0  0
    7.0469    3.5448   -1.5275 H   0  0  0  0  0  0  0  0  0  0  0  0
    7.2676    2.0223    0.3117 H   0  0  0  0  0  0  0  0  0  0  0  0
    5.5598    0.3426    0.7856 H   0  0  0  0  0  0  0  0  0  0  0  0
  2  1  1  1
  2  3  1  0
  3  4  1  0
  4  5  1  0
  5  6  1  0
  6  7  1  0
  7  8  1  0
  8  9  2  0
  9 10  1  0
 10 11  1  0
 10 12  2  0
 12 13  1  0
 13 14  2  0
  5 15  1  0
 15 16  1  0
 16 17  1  0
 17 18  1  0
 18 19  1  0
 18 20  1  6
 20 21  3  0
 21 22  1  0
 22 23  2  0
 23 24  1  0
 24 25  2  0
 25 26  1  0
 26 27  2  0
 15  2  1  0
 27 22  1  0
 18  2  1  0
 14  4  1  0
 14  8  1  0
  1 28  1  0
  1 29  1  0
  1 30  1  0
  3 31  1  0
  3 32  1  0
  4 33  1  6
  5 34  1  1
  6 35  1  0
  6 36  1  0
  7 37  1  0
  7 38  1  0
  9 39  1  0
 11 40  1  0
 12 41  1  0
 13 42  1  0
 15 43  1  6
 16 44  1  0
 16 45  1  0
 17 46  1  0
 17 47  1  0
 19 48  1  0
 23 49  1  0
 24 50  1  0
 25 51  1  0
 26 52  1  0
 27 53  1  0
M  END
$$$$
[H]OC(=O)C([H])(N([H])[H])C([H])([H])c1c(C([H])([H])[H])on([H])c1=O
     RDKit          3D

 23 23  0  0  0  0  0  0  0  0999 V2000
   -1.9987   -1.0838   -1.2132 C   0  0  0  0  0  0  0  0  0  0  0  0
   -1.9064    0.1967   -0.5162 C   0  0  0  0  0  0  0  0  0  0  0  0
   -2.9607    0.8433   -0.0224 O   0  0  0  0  0  0  0  0  0  0  0  0
   -2.5794    1.9508    0.5393 N   0  0  0  0  0  0  0  0  0  0  0  0
   -1.2549    2.0651    0.4307 C   0  0  0  0  0  0  0  0  0  0  0  0
   -0.6063    3.0435    0.8857 O   0  0  0  0  0  0  0  0  0  0  0  0
   -0.7911    0.9471   -0.2457 C   0  0  0  0  0  0  0  0  0  0  0  0
    0.6199    0.7065   -0.5456 C   0  0  0  0  0  0  0  0  0  0  0  0
    1.3271   -0.2505    0.3747 C   0  0  0  0  0  0  0  0  0  0  0  0
    0.7562   -1.5748    0.3993 N   0  0  0  0  0  0  0  0  0  0  0  0
    2.7589   -0.3760    0.0005 C   0  0  0  0  0  0  0  0  0  0  0  0
    3.2947   -1.6161   -0.2249 O   0  0  0  0  0  0  0  0  0  0  0  0
    3.4917    0.6527   -0.1136 O   0  0  0  0  0  0  0  0  0  0  0  0
   -1.1622   -1.2851   -1.9203 H   0  0  0  0  0  0  0  0  0  0  0  0
   -2.9212   -1.0924   -1.8404 H   0  0  0  0  0  0  0  0  0  0  0  0
   -2.1206   -1.8971   -0.4677 H   0  0  0  0  0  0  0  0  0  0  0  0
   -3.2465    2.6113    0.9918 H   0  0  0  0  0  0  0  0  0  0  0  0
    1.2306    1.6525   -0.5145 H   0  0  0  0  0  0  0  0  0  0  0  0
    0.7598    0.3472   -1.6081 H   0  0  0  0  0  0  0  0  0  0  0  0
    1.2860    0.1625    1.4286 H   0  0  0  0  0  0  0  0  0  0  0  0
    1.2351   -2.2751   -0.1721 H   0  0  0  0  0  0  0  0  0  0  0  0
    0.4959   -1.9095    1.3324 H   0  0  0  0  0  0  0  0  0  0  0  0
    4.2919   -1.8188   -0.2474 H   0  0  0  0  0  0  0  0  0  0  0  0
  1  2  1  0
  2  3  1  0
  3  4  1  0
  4  5  1  0
  5  6  2  0
  5  7  1  0
  7  8  1  0
  8  9  1  0
  9 10  1  0
  9 11  1  0
 11 12  1  0
 11 13  2  0
  7  2  2  0
  1 14  1  0
  1 15  1  0
  1 16  1  0
  4 17  1  0
  8 18  1  0
  8 19  1  0
  9 20  1  0
 10 21  1  0
 10 22  1  0
 12 23  1  0
M  END
$$$$
[H]ON([H])C(=O)C([H])([H])N(C([H])([H])c1c([H])c([H])c([N+](=O)[O-])c([H])c1[H])S(=O)(=O)c1c([H])c([H])c(OC([H])([H])[H])c([H])c1[H]
     RDKit          3D

 44 45  0  0  0  0  0  0  0  0999 V2000
   -6.5769    0.7493    1.3067 C   0  0  0  0  0  0  0  0  0  0  0  0
   -5.6463   -0.2263    1.7388 O   0  0  0  0  0  0  0  0  0  0  0  0
   -4.4010   -0.2935    1.0805 C   0  0  0  0  0  0  0  0  0  0  0  0
   -3.4530   -1.2214    1.4550 C   0  0  0  0  0  0  0  0  0  0  0  0
   -2.2251   -1.3110    0.8292 C   0  0  0  0  0  0  0  0  0  0  0  0
   -1.9329   -0.4514   -0.1993 C   0  0  0  0  0  0  0  0  0  0  0  0
   -2.8690    0.4793   -0.5835 C   0  0  0  0  0  0  0  0  0  0  0  0
   -4.1059    0.5702    0.0461 C   0  0  0  0  0  0  0  0  0  0  0  0
   -0.4129   -0.5204   -1.0158 S   0  0  0  0  0  0  0  0  0  0  0  0
    0.0433   -1.9435   -1.0343 O   0  0  0  0  0  0  0  0  0  0  0  0
   -0.5513   -0.0927   -2.4641 O   0  0  0  0  0  0  0  0  0  0  0  0
    0.7827    0.4794   -0.3071 N   0  0  0  0  0  0  0  0  0  0  0  0
    0.4482    1.8668   -0.3158 C   0  0  0  0  0  0  0  0  0  0  0  0
    0.9207    2.5658   -1.5396 C   0  0  0  0  0  0  0  0  0  0  0  0
    1.5478    1.9694   -2.4550 O   0  0  0  0  0  0  0  0  0  0  0  0
    0.6643    3.9452   -1.6933 N   0  0  0  0  0  0  0  0  0  0  0  0
    1.0881    4.5985   -2.8031 O   0  0  0  0  0  0  0  0  0  0  0  0
    1.3033   -0.0095    0.9318 C   0  0  0  0  0  0  0  0  0  0  0  0
    2.4932   -0.8643    0.6837 C   0  0  0  0  0  0  0  0  0  0  0  0
    3.1174   -1.5124    1.7506 C   0  0  0  0  0  0  0  0  0  0  0  0
    4.2147   -2.2950    1.4986 C   0  0  0  0  0  0  0  0  0  0  0  0
    4.7412   -2.4783    0.2325 C   0  0  0  0  0  0  0  0  0  0  0  0
    4.1116   -1.8282   -0.8222 C   0  0  0  0  0  0  0  0  0  0  0  0
    3.0081   -1.0387   -0.5837 C   0  0  0  0  0  0  0  0  0  0  0  0
    5.8785   -3.2931   -0.0064 N   0  0  0  0  0  0  0  0  0  0  0  0
    6.4826   -3.9245    1.0510 O   0  0  0  0  0  0  0  0  0  0  0  0
    6.3038   -3.4180   -1.1672 O   0  0  0  0  0  0  0  0  0  0  0  0
   -7.4725    0.7649    1.9253 H   0  0  0  0  0  0  0  0  0  0  0  0
   -6.8439    0.5694    0.2384 H   0  0  0  0  0  0  0  0  0  0  0  0
   -6.0854    1.7600    1.3334 H   0  0  0  0  0  0  0  0  0  0  0  0
   -3.7097   -1.8861    2.2683 H   0  0  0  0  0  0  0  0  0  0  0  0
   -1.4966   -2.0670    1.1599 H   0  0  0  0  0  0  0  0  0  0  0  0
   -2.6889    1.1802   -1.3883 H   0  0  0  0  0  0  0  0  0  0  0  0
   -4.8636    1.2893   -0.2306 H   0  0  0  0  0  0  0  0  0  0  0  0
    0.9560    2.3463    0.5496 H   0  0  0  0  0  0  0  0  0  0  0  0
   -0.6355    2.0703   -0.1799 H   0  0  0  0  0  0  0  0  0  0  0  0
    0.1481    4.4452   -0.9440 H   0  0  0  0  0  0  0  0  0  0  0  0
    1.2657    5.5425   -2.5420 H   0  0  0  0  0  0  0  0  0  0  0  0
    0.5160   -0.6680    1.3867 H   0  0  0  0  0  0  0  0  0  0  0  0
    1.5088    0.7954    1.6623 H   0  0  0  0  0  0  0  0  0  0  0  0
    2.7000   -1.3620    2.7246 H   0  0  0  0  0  0  0  0  0  0  0  0
    4.6866   -2.7903    2.3377 H   0  0  0  0  0  0  0  0  0  0  0  0
    4.4892   -1.9397   -1.8497 H   0  0  0  0  0  0  0  0  0  0  0  0
    2.5508   -0.5521   -1.4286 H   0  0  0  0  0  0  0  0  0  0  0  0
  1  2  1  0
  2  3  1  0
  3  4  2  0
  4  5  1  0
  5  6  2  0
  6  7  1  0
  7  8  2  0
  6  9  1  0
  9 10  2  0
  9 11  2  0
  9 12  1  0
 12 13  1  0
 13 14  1  0
 14 15  2  0
 14 16  1  0
 16 17  1  0
 12 18  1  0
 18 19  1  0
 19 20  2  0
 20 21  1  0
 21 22  2  0
 22 23  1  0
 23 24  2  0
 22 25  1  0
 25 26  1  0
 25 27  2  0
  8  3  1  0
 24 19  1  0
  1 28  1  0
  1 29  1  0
  1 30  1  0
  4 31  1  0
  5 32  1  0
  7 33  1  0
  8 34  1  0
 13 35  1  0
 13 36  1  0
 16 37  1  0
 17 38  1  0
 18 39  1  0
 18 40  1  0
 20 41  1  0
 21 42  1  0
 23 43  1  0
 24 44  1  0
M  CHG  2  25   1  26  -1
M  END
$$$$
[H]/C(=C(/C#N)C(=O)c1c([H])c(Cl)c([H])c(Cl)c1[H])c1c([H])c([H])c(N(C([H])([H])[H])C([H])([H])[H])c([H])c1[H]
     RDKit          3D

 37 38  0  0  0  0  0  0  0  0999 V2000
   -5.5178    0.9300    0.7987 C   0  0  0  0  0  0  0  0  0  0  0  0
   -4.7397    0.3614   -0.2961 N   0  0  0  0  0  0  0  0  0  0  0  0
   -5.4382    0.0094   -1.5189 C   0  0  0  0  0  0  0  0  0  0  0  0
   -3.3398    0.1776   -0.1175 C   0  0  0  0  0  0  0  0  0  0  0  0
   -2.8449   -0.9990    0.3837 C   0  0  0  0  0  0  0  0  0  0  0  0
   -1.4931   -1.1689    0.5548 C   0  0  0  0  0  0  0  0  0  0  0  0
   -0.6385   -0.1677    0.2257 C   0  0  0  0  0  0  0  0  0  0  0  0
    0.8161   -0.2119    0.3176 C   0  0  0  0  0  0  0  0  0  0  0  0
    1.5207   -1.1400   -0.2495 C   0  0  0  0  0  0  0  0  0  0  0  0
    0.7032   -2.1363   -0.9885 C   0  0  0  0  0  0  0  0  0  0  0  0
    0.0843   -2.9308   -1.6002 N   0  0  0  0  0  0  0  0  0  0  0  0
    2.9471   -1.3083   -0.3238 C   0  0  0  0  0  0  0  0  0  0  0  0
    3.2953   -2.4285   -0.9013 O   0  0  0  0  0  0  0  0  0  0  0  0
    3.9826   -0.4543    0.1314 C   0  0  0  0  0  0  0  0  0  0  0  0
    5.2647   -1.0351    0.2304 C   0  0  0  0  0  0  0  0  0  0  0  0
    6.3428   -0.2813    0.5904 C   0  0  0  0  0  0  0  0  0  0  0  0
    7.9205   -1.0315    0.7049 Cl  0  0  0  0  0  0  0  0  0  0  0  0
    6.2378    1.0677    0.8723 C   0  0  0  0  0  0  0  0  0  0  0  0
    4.9840    1.6074    0.7678 C   0  0  0  0  0  0  0  0  0  0  0  0
    4.7990    3.3228    1.1164 Cl  0  0  0  0  0  0  0  0  0  0  0  0
    3.8710    0.8701    0.4040 C   0  0  0  0  0  0  0  0  0  0  0  0
   -1.1544    1.0310   -0.2852 C   0  0  0  0  0  0  0  0  0  0  0  0
   -2.4873    1.1963   -0.4526 C   0  0  0  0  0  0  0  0  0  0  0  0
   -5.0646    0.6709    1.7921 H   0  0  0  0  0  0  0  0  0  0  0  0
   -6.5819    0.6582    0.7281 H   0  0  0  0  0  0  0  0  0  0  0  0
   -5.3672    2.0426    0.7138 H   0  0  0  0  0  0  0  0  0  0  0  0
   -5.9647   -0.9685   -1.3692 H   0  0  0  0  0  0  0  0  0  0  0  0
   -6.1705    0.8167   -1.7729 H   0  0  0  0  0  0  0  0  0  0  0  0
   -4.7494   -0.1086   -2.3569 H   0  0  0  0  0  0  0  0  0  0  0  0
   -3.4800   -1.8363    0.6652 H   0  0  0  0  0  0  0  0  0  0  0  0
   -1.0754   -2.0818    0.9726 H   0  0  0  0  0  0  0  0  0  0  0  0
    1.2696    0.5442    0.9269 H   0  0  0  0  0  0  0  0  0  0  0  0
    5.3925   -2.1155    0.0167 H   0  0  0  0  0  0  0  0  0  0  0  0
    7.0977    1.6721    1.1615 H   0  0  0  0  0  0  0  0  0  0  0  0
    2.9185    1.4229    0.2997 H   0  0  0  0  0  0  0  0  0  0  0  0
   -0.4906    1.8488   -0.5550 H   0  0  0  0  0  0  0  0  0  0  0  0
   -2.8494    2.1541   -0.8573 H   0  0  0  0  0  0  0  0  0  0  0  0
  1  2  1  0
  2  3  1  0
  2  4  1  0
  4  5  2  0
  5  6  1  0
  6  7  2  0
  7  8  1  0
  8  9  2  0
  9 10  1  0
 10 11  3  0
  9 12  1  0
 12 13  2  0
 12 14  1  0
 14 15  2  0
 15 16  1  0
 16 17  1  0
 16 18  2  0
 18 19  1  0
 19 20  1  0
 19 21  2  0
  7 22  1  0
 22 23  2  0
 23  4  1  0
 21 14  1  0
  1 24  1  0
  1 25  1  0
  1 26  1  0
  3 27  1  0
  3 28  1  0
  3 29  1  0
  5 30  1  0
  6 31  1  0
  8 32  1  0
 15 33  1  0
 18 34  1  0
 21 35  1  0
 22 36  1  0
 23 37  1  0
M  END
$$$$
[H]c1nc(N([H])c2c([H])c(OC([H])([H])[H])c(OC([H])([H])[H])c(OC([H])([H])[H])c2[H])nc(N([H])c2nc3c(c([H])c2[H])OC(C([H])([H])[H])(C([H])([H])[H])C(=O)N3[H])c1Cl
     RDKit          3D

 57 60  0  0  0  0  0  0  0  0999 V2000
   -5.7062    2.0896   -1.8319 C   0  0  0  0  0  0  0  0  0  0  0  0
   -5.8757    0.7103   -1.5773 O   0  0  0  0  0  0  0  0  0  0  0  0
   -4.7959   -0.0108   -1.0921 C   0  0  0  0  0  0  0  0  0  0  0  0
   -3.5546    0.6057   -0.8546 C   0  0  0  0  0  0  0  0  0  0  0  0
   -2.4789   -0.0483   -0.3850 C   0  0  0  0  0  0  0  0  0  0  0  0
   -1.2186    0.5079   -0.1103 N   0  0  0  0  0  0  0  0  0  0  0  0
   -0.9117    1.8809   -0.0236 C   0  0  0  0  0  0  0  0  0  0  0  0
   -1.7316    2.9097   -0.1714 N   0  0  0  0  0  0  0  0  0  0  0  0
   -1.4116    4.2063   -0.0835 C   0  0  0  0  0  0  0  0  0  0  0  0
   -0.0987    4.5091    0.1879 C   0  0  0  0  0  0  0  0  0  0  0  0
    0.4772    6.1441    0.3337 Cl  0  0  0  0  0  0  0  0  0  0  0  0
    0.8252    3.4820    0.3568 C   0  0  0  0  0  0  0  0  0  0  0  0
    2.1825    3.7433    0.6365 N   0  0  0  0  0  0  0  0  0  0  0  0
    3.0945    2.6700    0.8022 C   0  0  0  0  0  0  0  0  0  0  0  0
    4.4463    2.9300    1.0807 C   0  0  0  0  0  0  0  0  0  0  0  0
    5.3106    1.8710    1.2370 C   0  0  0  0  0  0  0  0  0  0  0  0
    4.8871    0.5652    1.1279 C   0  0  0  0  0  0  0  0  0  0  0  0
    5.7441   -0.5124    1.2823 O   0  0  0  0  0  0  0  0  0  0  0  0
    5.4343   -1.8103    0.8128 C   0  0  0  0  0  0  0  0  0  0  0  0
    6.1434   -2.8503    1.6735 C   0  0  0  0  0  0  0  0  0  0  0  0
    5.8365   -1.9300   -0.6291 C   0  0  0  0  0  0  0  0  0  0  0  0
    3.9767   -2.1074    0.8967 C   0  0  0  0  0  0  0  0  0  0  0  0
    3.5689   -3.2887    1.1041 O   0  0  0  0  0  0  0  0  0  0  0  0
    3.0836   -1.0158    0.7347 N   0  0  0  0  0  0  0  0  0  0  0  0
    3.5483    0.3295    0.8525 C   0  0  0  0  0  0  0  0  0  0  0  0
    2.7303    1.3839    0.7055 N   0  0  0  0  0  0  0  0  0  0  0  0
    0.3907    2.2269    0.2465 N   0  0  0  0  0  0  0  0  0  0  0  0
   -2.6318   -1.4191   -0.1275 C   0  0  0  0  0  0  0  0  0  0  0  0
   -3.8340   -2.0366   -0.3532 C   0  0  0  0  0  0  0  0  0  0  0  0
   -3.9830   -3.3837   -0.0998 O   0  0  0  0  0  0  0  0  0  0  0  0
   -2.8768   -4.1092    0.3943 C   0  0  0  0  0  0  0  0  0  0  0  0
   -4.9390   -1.3516   -0.8380 C   0  0  0  0  0  0  0  0  0  0  0  0
   -6.1583   -1.9773   -1.0668 O   0  0  0  0  0  0  0  0  0  0  0  0
   -7.0957   -2.0233   -0.0210 C   0  0  0  0  0  0  0  0  0  0  0  0
   -4.8687    2.3174   -2.4925 H   0  0  0  0  0  0  0  0  0  0  0  0
   -5.5637    2.6727   -0.8941 H   0  0  0  0  0  0  0  0  0  0  0  0
   -6.6363    2.4225   -2.3663 H   0  0  0  0  0  0  0  0  0  0  0  0
   -3.5355    1.6514   -1.0934 H   0  0  0  0  0  0  0  0  0  0  0  0
   -0.3837   -0.1446    0.0512 H   0  0  0  0  0  0  0  0  0  0  0  0
   -2.1496    4.9788   -0.2193 H   0  0  0  0  0  0  0  0  0  0  0  0
    2.5200    4.7290    0.7224 H   0  0  0  0  0  0  0  0  0  0  0  0
    4.7319    3.9487    1.1567 H   0  0  0  0  0  0  0  0  0  0  0  0
    6.3555    2.0985    1.4528 H   0  0  0  0  0  0  0  0  0  0  0  0
    5.5589   -2.9828    2.6041 H   0  0  0  0  0  0  0  0  0  0  0  0
    7.1729   -2.5542    1.9049 H   0  0  0  0  0  0  0  0  0  0  0  0
    6.1742   -3.8286    1.1243 H   0  0  0  0  0  0  0  0  0  0  0  0
    5.4932   -2.9015   -1.0386 H   0  0  0  0  0  0  0  0  0  0  0  0
    5.4295   -1.0745   -1.1817 H   0  0  0  0  0  0  0  0  0  0  0  0
    6.9550   -1.8603   -0.6837 H   0  0  0  0  0  0  0  0  0  0  0  0
    2.0871   -1.1991    0.5296 H   0  0  0  0  0  0  0  0  0  0  0  0
   -1.7787   -1.9895    0.2564 H   0  0  0  0  0  0  0  0  0  0  0  0
   -2.1240   -4.1909   -0.4168 H   0  0  0  0  0  0  0  0  0  0  0  0
   -3.2486   -5.1338    0.6530 H   0  0  0  0  0  0  0  0  0  0  0  0
   -2.4656   -3.6018    1.3024 H   0  0  0  0  0  0  0  0  0  0  0  0
   -7.3670   -3.1031    0.1453 H   0  0  0  0  0  0  0  0  0  0  0  0
   -8.0343   -1.4880   -0.2936 H   0  0  0  0  0  0  0  0  0  0  0  0
   -6.7005   -1.6569    0.9464 H   0  0  0  0  0  0  0  0  0  0  0  0
  1  2  1  0
  2  3  1  0
  3  4  2  0
  4  5  1  0
  5  6  1  0
  6  7  1  0
  7  8  2  0
  8  9  1  0
  9 10  2  0
 10 11  1  0
 10 12  1  0
 12 13  1  0
 13 14  1  0
 14 15  2  0
 15 16  1  0
 16 17  2  0
 17 18  1  0
 18 19  1  0
 19 20  1  0
 19 21  1  0
 19 22  1  0
 22 23  2  0
 22 24  1  0
 24 25  1  0
 25 26  2  0
 12 27  2  0
  5 28  2  0
 28 29  1  0
 29 30  1  0
 30 31  1  0
 29 32  2  0
 32 33  1  0
 33 34  1  0
 32  3  1  0
 27  7  1  0
 26 14  1  0
 25 17  1  0
  1 35  1  0
  1 36  1  0
  1 37  1  0
  4 38  1  0
  6 39  1  0
  9 40  1  0
 13 41  1  0
 15 42  1  0
 16 43  1  0
 20 44  1  0
 20 45  1  0
 20 46  1  0
 21 47  1  0
 21 48  1  0
 21 49  1  0
 24 50  1  0
 28 51  1  0
 31 52  1  0
 31 53  1  0
 31 54  1  0
 34 55  1  0
 34 56  1  0
 34 57  1  0
M  END
$$$$
[H]c1c([H])c([H])c(C([H])([H])n2c([H])c(C3=C(c4c([H])n([H])c5c([H])c([H])c([H])c([H])c45)C(=O)N([H])C3=O)c3c([H])c([H])c([H])c([H])c32)c([H])c1[H]
     RDKit          3D

 51 56  0  0  0  0  0  0  0  0999 V2000
   -4.7961   -1.4065   -1.2869 O   0  0  0  0  0  0  0  0  0  0  0  0
   -3.6865   -1.9116   -1.0010 C   0  0  0  0  0  0  0  0  0  0  0  0
   -3.4724   -3.2942   -0.7647 N   0  0  0  0  0  0  0  0  0  0  0  0
   -2.0992   -3.4134   -0.4844 C   0  0  0  0  0  0  0  0  0  0  0  0
   -1.4972   -4.4793   -0.2202 O   0  0  0  0  0  0  0  0  0  0  0  0
   -1.4868   -2.0566   -0.5576 C   0  0  0  0  0  0  0  0  0  0  0  0
   -2.3958   -1.1867   -0.8550 C   0  0  0  0  0  0  0  0  0  0  0  0
   -2.3144    0.2391   -1.0622 C   0  0  0  0  0  0  0  0  0  0  0  0
   -1.5676    1.0114   -1.9108 C   0  0  0  0  0  0  0  0  0  0  0  0
   -1.7957    2.3281   -1.7321 N   0  0  0  0  0  0  0  0  0  0  0  0
   -2.7028    2.4446   -0.7568 C   0  0  0  0  0  0  0  0  0  0  0  0
   -3.2839    3.5728   -0.1818 C   0  0  0  0  0  0  0  0  0  0  0  0
   -4.2121    3.4670    0.8340 C   0  0  0  0  0  0  0  0  0  0  0  0
   -4.5550    2.2091    1.2716 C   0  0  0  0  0  0  0  0  0  0  0  0
   -3.9788    1.0687    0.7024 C   0  0  0  0  0  0  0  0  0  0  0  0
   -3.0503    1.1880   -0.3152 C   0  0  0  0  0  0  0  0  0  0  0  0
   -0.0633   -1.8688   -0.3308 C   0  0  0  0  0  0  0  0  0  0  0  0
    0.9339   -1.3451   -1.1137 C   0  0  0  0  0  0  0  0  0  0  0  0
    2.1282   -1.3454   -0.4528 N   0  0  0  0  0  0  0  0  0  0  0  0
    3.3547   -0.8482   -1.0343 C   0  0  0  0  0  0  0  0  0  0  0  0
    3.5114    0.5795   -0.7646 C   0  0  0  0  0  0  0  0  0  0  0  0
    4.2306    1.0109    0.3236 C   0  0  0  0  0  0  0  0  0  0  0  0
    4.3552    2.3891    0.5507 C   0  0  0  0  0  0  0  0  0  0  0  0
    3.7811    3.3223   -0.2803 C   0  0  0  0  0  0  0  0  0  0  0  0
    3.0617    2.8783   -1.3696 C   0  0  0  0  0  0  0  0  0  0  0  0
    2.9303    1.5244   -1.6061 C   0  0  0  0  0  0  0  0  0  0  0  0
    1.9430   -1.8643    0.7655 C   0  0  0  0  0  0  0  0  0  0  0  0
    2.8182   -2.0805    1.8087 C   0  0  0  0  0  0  0  0  0  0  0  0
    2.3253   -2.6372    2.9669 C   0  0  0  0  0  0  0  0  0  0  0  0
    0.9930   -2.9658    3.0714 C   0  0  0  0  0  0  0  0  0  0  0  0
    0.1094   -2.7496    2.0226 C   0  0  0  0  0  0  0  0  0  0  0  0
    0.6070   -2.1932    0.8657 C   0  0  0  0  0  0  0  0  0  0  0  0
   -4.1742   -4.0819   -0.7882 H   0  0  0  0  0  0  0  0  0  0  0  0
   -0.8833    0.5917   -2.6526 H   0  0  0  0  0  0  0  0  0  0  0  0
   -1.3522    3.1216   -2.2527 H   0  0  0  0  0  0  0  0  0  0  0  0
   -2.9915    4.5431   -0.5497 H   0  0  0  0  0  0  0  0  0  0  0  0
   -4.6555    4.3466    1.2714 H   0  0  0  0  0  0  0  0  0  0  0  0
   -5.2799    2.0636    2.0683 H   0  0  0  0  0  0  0  0  0  0  0  0
   -4.2683    0.0980    1.0778 H   0  0  0  0  0  0  0  0  0  0  0  0
    0.7890   -0.9864   -2.1395 H   0  0  0  0  0  0  0  0  0  0  0  0
    4.2301   -1.3975   -0.5989 H   0  0  0  0  0  0  0  0  0  0  0  0
    3.3786   -0.9980   -2.1431 H   0  0  0  0  0  0  0  0  0  0  0  0
    4.6770    0.2880    0.9646 H   0  0  0  0  0  0  0  0  0  0  0  0
    4.9354    2.7018    1.4277 H   0  0  0  0  0  0  0  0  0  0  0  0
    3.9115    4.3808   -0.0539 H   0  0  0  0  0  0  0  0  0  0  0  0
    2.6241    3.6400   -2.0016 H   0  0  0  0  0  0  0  0  0  0  0  0
    2.3630    1.1784   -2.4647 H   0  0  0  0  0  0  0  0  0  0  0  0
    3.8676   -1.8384    1.7701 H   0  0  0  0  0  0  0  0  0  0  0  0
    3.0040   -2.8211    3.8168 H   0  0  0  0  0  0  0  0  0  0  0  0
    0.6515   -3.3988    3.9957 H   0  0  0  0  0  0  0  0  0  0  0  0
   -0.9519   -3.0183    2.1502 H   0  0  0  0  0  0  0  0  0  0  0  0
  1  2  2  0
  2  3  1  0
  3  4  1  0
  4  5  2  0
  4  6  1  0
  6  7  2  0
  7  8  1  0
  8  9  2  0
  9 10  1  0
 10 11  1  0
 11 12  2  0
 12 13  1  0
 13 14  2  0
 14 15  1  0
 15 16  2  0
  6 17  1  0
 17 18  2  0
 18 19  1  0
 19 20  1  0
 20 21  1  0
 21 22  2  0
 22 23  1  0
 23 24  2  0
 24 25  1  0
 25 26  2  0
 19 27  1  0
 27 28  2  0
 28 29  1  0
 29 30  2  0
 30 31  1  0
 31 32  2  0
  7  2  1  0
 16  8  1  0
 32 17  1  0
 16 11  1  0
 26 21  1  0
 32 27  1  0
  3 33  1  0
  9 34  1  0
 10 35  1  0
 12 36  1  0
 13 37  1  0
 14 38  1  0
 15 39  1  0
 18 40  1  0
 20 41  1  0
 20 42  1  0
 22 43  1  0
 23 44  1  0
 24 45  1  0
 25 46  1  0
 26 47  1  0
 28 48  1  0
 29 49  1  0
 30 50  1  0
 31 51  1  0
M  END
$$$$
[H]C1=C([H])C([H])(F)C([H])([H])C([H])=C1N([H])C(=O)C1(C(=O)N([H])c2c([H])c([H])c(Oc3c([H])c([H])nc4c([H])c(OC([H])([H])C([H])([H])C([H])([H])N5C([H])([H])C([H])([H])C([H])([H])C([H])([H])C5([H])[H])c(OC([H])([H])[H])c([H])c34)c(F)c2[H])C([H])([H])C1([H])[H]
     RDKit          3D

 84 89  0  0  0  0  0  0  0  0999 V2000
    3.8941   -3.7132    0.1913 C   0  0  0  0  0  0  0  0  0  0  0  0
    4.6565   -2.6079   -0.2681 O   0  0  0  0  0  0  0  0  0  0  0  0
    4.0305   -1.4283   -0.6539 C   0  0  0  0  0  0  0  0  0  0  0  0
    2.6597   -1.2972   -0.6016 C   0  0  0  0  0  0  0  0  0  0  0  0
    2.0436   -0.1222   -0.9870 C   0  0  0  0  0  0  0  0  0  0  0  0
    0.6510    0.0367   -0.9451 C   0  0  0  0  0  0  0  0  0  0  0  0
   -0.0755   -1.0256   -0.4996 O   0  0  0  0  0  0  0  0  0  0  0  0
   -1.4492   -1.0402   -0.3255 C   0  0  0  0  0  0  0  0  0  0  0  0
   -2.2606   -1.8743   -1.0649 C   0  0  0  0  0  0  0  0  0  0  0  0
   -3.6423   -1.8715   -0.8692 C   0  0  0  0  0  0  0  0  0  0  0  0
   -4.2526   -1.0654    0.0403 C   0  0  0  0  0  0  0  0  0  0  0  0
   -5.6503   -1.0411    0.3103 N   0  0  0  0  0  0  0  0  0  0  0  0
   -6.4608   -2.1680    0.2347 C   0  0  0  0  0  0  0  0  0  0  0  0
   -5.8498   -3.2675   -0.0680 O   0  0  0  0  0  0  0  0  0  0  0  0
   -7.9176   -2.3168    0.4538 C   0  0  0  0  0  0  0  0  0  0  0  0
   -8.5358   -3.5604   -0.1118 C   0  0  0  0  0  0  0  0  0  0  0  0
   -8.2258   -3.5095    1.3287 C   0  0  0  0  0  0  0  0  0  0  0  0
   -8.8577   -1.1862    0.5085 C   0  0  0  0  0  0  0  0  0  0  0  0
  -10.0295   -1.5183    0.9875 O   0  0  0  0  0  0  0  0  0  0  0  0
   -8.6712    0.1344    0.1256 N   0  0  0  0  0  0  0  0  0  0  0  0
   -9.7018    1.1257    0.2594 C   0  0  0  0  0  0  0  0  0  0  0  0
  -10.1675    1.7824   -0.7844 C   0  0  0  0  0  0  0  0  0  0  0  0
  -11.2276    2.8066   -0.6621 C   0  0  0  0  0  0  0  0  0  0  0  0
  -11.7828    3.0373    0.6810 C   0  0  0  0  0  0  0  0  0  0  0  0
  -13.1708    2.8095    0.6256 F   0  0  0  0  0  0  0  0  0  0  0  0
  -11.1912    2.2557    1.7682 C   0  0  0  0  0  0  0  0  0  0  0  0
  -10.2373    1.3788    1.5761 C   0  0  0  0  0  0  0  0  0  0  0  0
   -3.4356   -0.2282    0.7824 C   0  0  0  0  0  0  0  0  0  0  0  0
   -2.0698   -0.2231    0.5976 C   0  0  0  0  0  0  0  0  0  0  0  0
   -1.3225    0.6137    1.3883 F   0  0  0  0  0  0  0  0  0  0  0  0
    0.0582    1.2154   -1.3358 C   0  0  0  0  0  0  0  0  0  0  0  0
    0.8455    2.2647   -1.7771 C   0  0  0  0  0  0  0  0  0  0  0  0
    2.1789    2.1086   -1.8152 N   0  0  0  0  0  0  0  0  0  0  0  0
    2.7728    0.9564   -1.4354 C   0  0  0  0  0  0  0  0  0  0  0  0
    4.1549    0.8104   -1.4827 C   0  0  0  0  0  0  0  0  0  0  0  0
    4.7873   -0.3669   -1.0977 C   0  0  0  0  0  0  0  0  0  0  0  0
    6.1653   -0.5173   -1.1421 O   0  0  0  0  0  0  0  0  0  0  0  0
    6.9247    0.5946   -1.5969 C   0  0  0  0  0  0  0  0  0  0  0  0
    8.3981    0.2160   -1.5674 C   0  0  0  0  0  0  0  0  0  0  0  0
    8.7652   -0.1374   -0.1628 C   0  0  0  0  0  0  0  0  0  0  0  0
    8.5410    0.9713    0.7124 N   0  0  0  0  0  0  0  0  0  0  0  0
    8.8626    0.5943    2.0908 C   0  0  0  0  0  0  0  0  0  0  0  0
   10.1341    1.2231    2.5590 C   0  0  0  0  0  0  0  0  0  0  0  0
   11.2236    1.2674    1.5088 C   0  0  0  0  0  0  0  0  0  0  0  0
   10.7617    1.8537    0.2168 C   0  0  0  0  0  0  0  0  0  0  0  0
    9.2894    2.1446    0.3223 C   0  0  0  0  0  0  0  0  0  0  0  0
    4.5297   -4.6049    0.2046 H   0  0  0  0  0  0  0  0  0  0  0  0
    3.0368   -3.9207   -0.4537 H   0  0  0  0  0  0  0  0  0  0  0  0
    3.5857   -3.4838    1.2349 H   0  0  0  0  0  0  0  0  0  0  0  0
    2.0594   -2.1200   -0.2574 H   0  0  0  0  0  0  0  0  0  0  0  0
   -1.7910   -2.5214   -1.7915 H   0  0  0  0  0  0  0  0  0  0  0  0
   -4.2011   -2.5275   -1.4890 H   0  0  0  0  0  0  0  0  0  0  0  0
   -5.9930   -0.0843    0.6053 H   0  0  0  0  0  0  0  0  0  0  0  0
   -7.8776   -4.1574   -0.7922 H   0  0  0  0  0  0  0  0  0  0  0  0
   -9.5862   -3.5314   -0.4675 H   0  0  0  0  0  0  0  0  0  0  0  0
   -9.0668   -3.4296    2.0590 H   0  0  0  0  0  0  0  0  0  0  0  0
   -7.4089   -4.1370    1.6985 H   0  0  0  0  0  0  0  0  0  0  0  0
   -7.7902    0.4562   -0.3104 H   0  0  0  0  0  0  0  0  0  0  0  0
   -9.7650    1.5684   -1.7719 H   0  0  0  0  0  0  0  0  0  0  0  0
  -10.7674    3.7837   -1.0343 H   0  0  0  0  0  0  0  0  0  0  0  0
  -12.0168    2.5426   -1.4224 H   0  0  0  0  0  0  0  0  0  0  0  0
  -11.6408    4.1294    0.9469 H   0  0  0  0  0  0  0  0  0  0  0  0
  -11.5771    2.4212    2.8054 H   0  0  0  0  0  0  0  0  0  0  0  0
   -9.8450    0.8363    2.4194 H   0  0  0  0  0  0  0  0  0  0  0  0
   -3.9079    0.4182    1.5091 H   0  0  0  0  0  0  0  0  0  0  0  0
   -0.9995    1.3667   -1.3304 H   0  0  0  0  0  0  0  0  0  0  0  0
    0.3645    3.1827   -2.0801 H   0  0  0  0  0  0  0  0  0  0  0  0
    4.7341    1.6500   -1.8317 H   0  0  0  0  0  0  0  0  0  0  0  0
    6.7902    1.4564   -0.9075 H   0  0  0  0  0  0  0  0  0  0  0  0
    6.6790    0.8981   -2.6163 H   0  0  0  0  0  0  0  0  0  0  0  0
    8.5172   -0.6510   -2.2580 H   0  0  0  0  0  0  0  0  0  0  0  0
    8.9717    1.0419   -1.9999 H   0  0  0  0  0  0  0  0  0  0  0  0
    8.1514   -1.0174    0.1504 H   0  0  0  0  0  0  0  0  0  0  0  0
    9.8226   -0.4865   -0.1718 H   0  0  0  0  0  0  0  0  0  0  0  0
    8.8820   -0.5200    2.1502 H   0  0  0  0  0  0  0  0  0  0  0  0
    8.0335    0.9450    2.7222 H   0  0  0  0  0  0  0  0  0  0  0  0
   10.5337    0.5668    3.3880 H   0  0  0  0  0  0  0  0  0  0  0  0
    9.9539    2.2035    3.0123 H   0  0  0  0  0  0  0  0  0  0  0  0
   11.7159    0.2783    1.3726 H   0  0  0  0  0  0  0  0  0  0  0  0
   12.0186    1.9324    1.9308 H   0  0  0  0  0  0  0  0  0  0  0  0
   10.9303    1.1781   -0.6500 H   0  0  0  0  0  0  0  0  0  0  0  0
   11.3098    2.7776   -0.0117 H   0  0  0  0  0  0  0  0  0  0  0  0
    9.0848    2.9287    1.0867 H   0  0  0  0  0  0  0  0  0  0  0  0
    8.9162    2.5157   -0.6375 H   0  0  0  0  0  0  0  0  0  0  0  0
  1  2  1  0
  2  3  1  0
  3  4  2  0
  4  5  1  0
  5  6  2  0
  6  7  1  0
  7  8  1  0
  8  9  2  0
  9 10  1  0
 10 11  2  0
 11 12  1  0
 12 13  1  0
 13 14  2  0
 13 15  1  0
 15 16  1  0
 16 17  1  0
 15 18  1  0
 18 19  2  0
 18 20  1  0
 20 21  1  0
 21 22  2  0
 22 23  1  0
 23 24  1  0
 24 25  1  0
 24 26  1  0
 26 27  2  0
 11 28  1  0
 28 29  2  0
 29 30  1  0
  6 31  1  0
 31 32  2  0
 32 33  1  0
 33 34  2  0
 34 35  1  0
 35 36  2  0
 36 37  1  0
 37 38  1  0
 38 39  1  0
 39 40  1  0
 40 41  1  0
 41 42  1  0
 42 43  1  0
 43 44  1  0
 44 45  1  0
 45 46  1  0
 36  3  1  0
 46 41  1  0
 34  5  1  0
 29  8  1  0
 17 15  1  0
 27 21  1  0
  1 47  1  0
  1 48  1  0
  1 49  1  0
  4 50  1  0
  9 51  1  0
 10 52  1  0
 12 53  1  0
 16 54  1  0
 16 55  1  0
 17 56  1  0
 17 57  1  0
 20 58  1  0
 22 59  1  0
 23 60  1  0
 23 61  1  0
 24 62  1  0
 26 63  1  0
 27 64  1  0
 28 65  1  0
 31 66  1  0
 32 67  1  0
 35 68  1  0
 38 69  1  0
 38 70  1  0
 39 71  1  0
 39 72  1  0
 40 73  1  0
 40 74  1  0
 42 75  1  0
 42 76  1  0
 43 77  1  0
 43 78  1  0
 44 79  1  0
 44 80  1  0
 45 81  1  0
 45 82  1  0
 46 83  1  0
 46 84  1  0
M  END
$$$$
[H]c1nc2sc(C(=O)N([H])C([H])([H])[H])c([H])c2c(Oc2c([H])c([H])c(N([H])C(=O)c3c([H])c([H])c(C#N)c([H])c3[H])c([H])c2[H])c1[H]
     RDKit          3D

 47 50  0  0  0  0  0  0  0  0999 V2000
   -8.5257   -0.7237    2.2315 C   0  0  0  0  0  0  0  0  0  0  0  0
   -7.4073   -0.2449    1.4609 N   0  0  0  0  0  0  0  0  0  0  0  0
   -7.5723    0.6161    0.3606 C   0  0  0  0  0  0  0  0  0  0  0  0
   -8.6936    1.0080   -0.0031 O   0  0  0  0  0  0  0  0  0  0  0  0
   -6.3987    1.0857   -0.4052 C   0  0  0  0  0  0  0  0  0  0  0  0
   -5.0837    0.7759   -0.1738 C   0  0  0  0  0  0  0  0  0  0  0  0
   -4.1615    1.3172   -1.0000 C   0  0  0  0  0  0  0  0  0  0  0  0
   -2.7582    1.1647   -0.9853 C   0  0  0  0  0  0  0  0  0  0  0  0
   -2.1623    0.3677   -0.0248 O   0  0  0  0  0  0  0  0  0  0  0  0
   -0.7977    0.1974    0.0183 C   0  0  0  0  0  0  0  0  0  0  0  0
   -0.1733   -0.8080   -0.6620 C   0  0  0  0  0  0  0  0  0  0  0  0
    1.2257   -0.9608   -0.6013 C   0  0  0  0  0  0  0  0  0  0  0  0
    2.0033   -0.1363    0.1194 C   0  0  0  0  0  0  0  0  0  0  0  0
    3.3945   -0.2151    0.2575 N   0  0  0  0  0  0  0  0  0  0  0  0
    4.1693   -1.3257   -0.1076 C   0  0  0  0  0  0  0  0  0  0  0  0
    3.7335   -2.4092   -0.6012 O   0  0  0  0  0  0  0  0  0  0  0  0
    5.6360   -1.2974    0.0742 C   0  0  0  0  0  0  0  0  0  0  0  0
    6.3665   -2.4874    0.1443 C   0  0  0  0  0  0  0  0  0  0  0  0
    7.7300   -2.4514    0.3046 C   0  0  0  0  0  0  0  0  0  0  0  0
    8.4260   -1.2657    0.4018 C   0  0  0  0  0  0  0  0  0  0  0  0
    7.7225   -0.0936    0.3345 C   0  0  0  0  0  0  0  0  0  0  0  0
    6.3329   -0.1291    0.1710 C   0  0  0  0  0  0  0  0  0  0  0  0
    9.8719   -1.2684    0.5714 C   0  0  0  0  0  0  0  0  0  0  0  0
   11.0186   -1.2864    0.7170 N   0  0  0  0  0  0  0  0  0  0  0  0
    1.3592    0.8947    0.8162 C   0  0  0  0  0  0  0  0  0  0  0  0
    0.0076    1.0381    0.7541 C   0  0  0  0  0  0  0  0  0  0  0  0
   -1.9673    1.7942   -1.9091 C   0  0  0  0  0  0  0  0  0  0  0  0
   -2.4800    2.6043   -2.8976 C   0  0  0  0  0  0  0  0  0  0  0  0
   -3.8165    2.7493   -2.9113 N   0  0  0  0  0  0  0  0  0  0  0  0
   -4.6226    2.1281   -1.9962 C   0  0  0  0  0  0  0  0  0  0  0  0
   -6.3148    2.1141   -1.7562 S   0  0  0  0  0  0  0  0  0  0  0  0
   -8.9873   -1.5561    1.6369 H   0  0  0  0  0  0  0  0  0  0  0  0
   -9.3300    0.0390    2.3430 H   0  0  0  0  0  0  0  0  0  0  0  0
   -8.2248   -1.1583    3.1929 H   0  0  0  0  0  0  0  0  0  0  0  0
   -6.4552   -0.5754    1.7667 H   0  0  0  0  0  0  0  0  0  0  0  0
   -4.8099    0.0977    0.6741 H   0  0  0  0  0  0  0  0  0  0  0  0
   -0.7549   -1.4875   -1.2480 H   0  0  0  0  0  0  0  0  0  0  0  0
    1.6397   -1.7781   -1.1818 H   0  0  0  0  0  0  0  0  0  0  0  0
    3.9346    0.6198    0.6720 H   0  0  0  0  0  0  0  0  0  0  0  0
    5.8013   -3.4229    0.0657 H   0  0  0  0  0  0  0  0  0  0  0  0
    8.2906   -3.3704    0.3583 H   0  0  0  0  0  0  0  0  0  0  0  0
    8.2542    0.8391    0.4091 H   0  0  0  0  0  0  0  0  0  0  0  0
    5.8128    0.8226    0.1163 H   0  0  0  0  0  0  0  0  0  0  0  0
    1.9548    1.5812    1.4098 H   0  0  0  0  0  0  0  0  0  0  0  0
   -0.4962    1.8478    1.3016 H   0  0  0  0  0  0  0  0  0  0  0  0
   -0.8744    1.6682   -1.8883 H   0  0  0  0  0  0  0  0  0  0  0  0
   -1.8170    3.0806   -3.6052 H   0  0  0  0  0  0  0  0  0  0  0  0
  1  2  1  0
  2  3  1  0
  3  4  2  0
  3  5  1  0
  5  6  2  0
  6  7  1  0
  7  8  2  0
  8  9  1  0
  9 10  1  0
 10 11  2  0
 11 12  1  0
 12 13  2  0
 13 14  1  0
 14 15  1  0
 15 16  2  0
 15 17  1  0
 17 18  2  0
 18 19  1  0
 19 20  2  0
 20 21  1  0
 21 22  2  0
 20 23  1  0
 23 24  3  0
 13 25  1  0
 25 26  2  0
  8 27  1  0
 27 28  2  0
 28 29  1  0
 29 30  2  0
 30 31  1  0
 31  5  1  0
 30  7  1  0
 26 10  1  0
 22 17  1  0
  1 32  1  0
  1 33  1  0
  1 34  1  0
  2 35  1  0
  6 36  1  0
 11 37  1  0
 12 38  1  0
 14 39  1  0
 18 40  1  0
 19 41  1  0
 21 42  1  0
 22 43  1  0
 25 44  1  0
 26 45  1  0
 27 46  1  0
 28 47  1  0
M  END
$$$$
[H]c1nc(N2C([H])([H])C([H])([H])OC([H])([H])C2([H])[H])nc([H])c1-c1c(OC([H])([H])C2([H])C([H])([H])OC([H])([H])C2([H])[H])nc2sc(N([H])C(=O)N([H])C([H])([H])C([H])([H])[H])nc2c1[H]
     RDKit          3D

 61 65  0  0  0  0  0  0  0  0999 V2000
    7.8405   -3.9496    0.1213 C   0  0  0  0  0  0  0  0  0  0  0  0
    8.3584   -2.8153    0.9770 C   0  0  0  0  0  0  0  0  0  0  0  0
    8.0009   -1.5257    0.4597 N   0  0  0  0  0  0  0  0  0  0  0  0
    6.6394   -1.1693    0.3024 C   0  0  0  0  0  0  0  0  0  0  0  0
    5.7558   -2.0036    0.6244 O   0  0  0  0  0  0  0  0  0  0  0  0
    6.2731    0.0841   -0.2005 N   0  0  0  0  0  0  0  0  0  0  0  0
    4.8746    0.4187   -0.3497 C   0  0  0  0  0  0  0  0  0  0  0  0
    3.8165   -0.3169   -0.0689 N   0  0  0  0  0  0  0  0  0  0  0  0
    2.6244    0.1521   -0.2692 C   0  0  0  0  0  0  0  0  0  0  0  0
    1.4050   -0.5127   -0.0185 C   0  0  0  0  0  0  0  0  0  0  0  0
    0.2321    0.1349   -0.2897 C   0  0  0  0  0  0  0  0  0  0  0  0
   -1.0573   -0.5492   -0.0277 C   0  0  0  0  0  0  0  0  0  0  0  0
   -2.0933    0.0779    0.6316 C   0  0  0  0  0  0  0  0  0  0  0  0
   -3.2695   -0.5570    0.8628 N   0  0  0  0  0  0  0  0  0  0  0  0
   -3.4605   -1.8309    0.4510 C   0  0  0  0  0  0  0  0  0  0  0  0
   -2.4406   -2.4232   -0.1882 N   0  0  0  0  0  0  0  0  0  0  0  0
   -1.2730   -1.8409   -0.4363 C   0  0  0  0  0  0  0  0  0  0  0  0
   -4.6877   -2.5117    0.6853 N   0  0  0  0  0  0  0  0  0  0  0  0
   -5.7880   -1.8948    1.3666 C   0  0  0  0  0  0  0  0  0  0  0  0
   -7.1135   -2.3478    0.8514 C   0  0  0  0  0  0  0  0  0  0  0  0
   -7.1296   -3.6918    0.4850 O   0  0  0  0  0  0  0  0  0  0  0  0
   -6.1693   -3.9533   -0.4950 C   0  0  0  0  0  0  0  0  0  0  0  0
   -4.8109   -3.8753    0.2116 C   0  0  0  0  0  0  0  0  0  0  0  0
    0.1317    1.4127   -0.7997 C   0  0  0  0  0  0  0  0  0  0  0  0
   -1.0617    2.0364   -1.0624 O   0  0  0  0  0  0  0  0  0  0  0  0
   -1.2341    3.3162   -1.5735 C   0  0  0  0  0  0  0  0  0  0  0  0
   -0.6664    4.4272   -0.7560 C   0  0  0  0  0  0  0  0  0  0  0  0
   -1.2686    4.4933    0.6342 C   0  0  0  0  0  0  0  0  0  0  0  0
   -2.1824    5.6910    0.5574 C   0  0  0  0  0  0  0  0  0  0  0  0
   -2.4527    5.8294   -0.7972 O   0  0  0  0  0  0  0  0  0  0  0  0
   -1.1862    5.7360   -1.3520 C   0  0  0  0  0  0  0  0  0  0  0  0
    1.3196    2.0319   -1.0325 N   0  0  0  0  0  0  0  0  0  0  0  0
    2.5166    1.4219   -0.7759 C   0  0  0  0  0  0  0  0  0  0  0  0
    4.1618    1.8635   -0.9329 S   0  0  0  0  0  0  0  0  0  0  0  0
    6.8586   -4.2887    0.5033 H   0  0  0  0  0  0  0  0  0  0  0  0
    7.6913   -3.6411   -0.9324 H   0  0  0  0  0  0  0  0  0  0  0  0
    8.5503   -4.8018    0.1515 H   0  0  0  0  0  0  0  0  0  0  0  0
    7.8922   -2.9418    1.9876 H   0  0  0  0  0  0  0  0  0  0  0  0
    9.4460   -2.9172    1.0376 H   0  0  0  0  0  0  0  0  0  0  0  0
    8.7509   -0.8549    0.2013 H   0  0  0  0  0  0  0  0  0  0  0  0
    6.9902    0.7889   -0.4728 H   0  0  0  0  0  0  0  0  0  0  0  0
    1.3798   -1.5169    0.3810 H   0  0  0  0  0  0  0  0  0  0  0  0
   -2.0032    1.0791    0.9826 H   0  0  0  0  0  0  0  0  0  0  0  0
   -0.5016   -2.3851   -0.9568 H   0  0  0  0  0  0  0  0  0  0  0  0
   -5.6617   -2.0762    2.4574 H   0  0  0  0  0  0  0  0  0  0  0  0
   -5.6993   -0.7907    1.1907 H   0  0  0  0  0  0  0  0  0  0  0  0
   -7.8549   -2.2412    1.6882 H   0  0  0  0  0  0  0  0  0  0  0  0
   -7.4974   -1.7323    0.0254 H   0  0  0  0  0  0  0  0  0  0  0  0
   -6.2833   -4.9761   -0.8597 H   0  0  0  0  0  0  0  0  0  0  0  0
   -6.2135   -3.2418   -1.3371 H   0  0  0  0  0  0  0  0  0  0  0  0
   -3.9954   -4.1237   -0.4980 H   0  0  0  0  0  0  0  0  0  0  0  0
   -4.8239   -4.5918    1.0423 H   0  0  0  0  0  0  0  0  0  0  0  0
   -2.3427    3.4966   -1.6473 H   0  0  0  0  0  0  0  0  0  0  0  0
   -0.8572    3.4331   -2.6119 H   0  0  0  0  0  0  0  0  0  0  0  0
    0.4340    4.4377   -0.7209 H   0  0  0  0  0  0  0  0  0  0  0  0
   -1.8524    3.5444    0.7994 H   0  0  0  0  0  0  0  0  0  0  0  0
   -0.4684    4.6148    1.3970 H   0  0  0  0  0  0  0  0  0  0  0  0
   -3.0910    5.5591    1.1701 H   0  0  0  0  0  0  0  0  0  0  0  0
   -1.6232    6.6082    0.8613 H   0  0  0  0  0  0  0  0  0  0  0  0
   -0.5277    6.5843   -1.0713 H   0  0  0  0  0  0  0  0  0  0  0  0
   -1.3020    5.6167   -2.4439 H   0  0  0  0  0  0  0  0  0  0  0  0
  1  2  1  0
  2  3  1  0
  3  4  1  0
  4  5  2  0
  4  6  1  0
  6  7  1  0
  7  8  2  0
  8  9  1  0
  9 10  2  0
 10 11  1  0
 11 12  1  0
 12 13  2  0
 13 14  1  0
 14 15  2  0
 15 16  1  0
 16 17  2  0
 15 18  1  0
 18 19  1  0
 19 20  1  0
 20 21  1  0
 21 22  1  0
 22 23  1  0
 11 24  2  0
 24 25  1  0
 25 26  1  0
 26 27  1  0
 27 28  1  0
 28 29  1  0
 29 30  1  0
 30 31  1  0
 24 32  1  0
 32 33  2  0
 33 34  1  0
 34  7  1  0
 33  9  1  0
 17 12  1  0
 23 18  1  0
 31 27  1  0
  1 35  1  0
  1 36  1  0
  1 37  1  0
  2 38  1  0
  2 39  1  0
  3 40  1  0
  6 41  1  0
 10 42  1  0
 13 43  1  0
 17 44  1  0
 19 45  1  0
 19 46  1  0
 20 47  1  0
 20 48  1  0
 22 49  1  0
 22 50  1  0
 23 51  1  0
 23 52  1  0
 26 53  1  0
 26 54  1  0
 27 55  1  0
 28 56  1  0
 28 57  1  0
 29 58  1  0
 29 59  1  0
 31 60  1  0
 31 61  1  0
M  END
$$$$
[H]c1c([H])c([H])c(N2C([H])([H])C([H])([H])N(C([H])([H])C([H])([H])n3c(=O)c4sc5c([H])c([H])c([H])c([H])c5c4n([H])c3=O)C([H])([H])C2([H])[H])c(OC([H])([H])[H])c1[H]
     RDKit          3D

 55 59  0  0  0  0  0  0  0  0999 V2000
   -6.0740   -2.8309   -0.3147 C   0  0  0  0  0  0  0  0  0  0  0  0
   -5.3798   -1.6215   -0.2374 O   0  0  0  0  0  0  0  0  0  0  0  0
   -5.9135   -0.3778   -0.0775 C   0  0  0  0  0  0  0  0  0  0  0  0
   -7.3005   -0.2045    0.0283 C   0  0  0  0  0  0  0  0  0  0  0  0
   -7.8149    1.0628    0.1869 C   0  0  0  0  0  0  0  0  0  0  0  0
   -6.9945    2.1622    0.2439 C   0  0  0  0  0  0  0  0  0  0  0  0
   -5.6063    1.9993    0.1396 C   0  0  0  0  0  0  0  0  0  0  0  0
   -5.1014    0.7298   -0.0188 C   0  0  0  0  0  0  0  0  0  0  0  0
   -3.6694    0.5619   -0.0942 N   0  0  0  0  0  0  0  0  0  0  0  0
   -2.8589    1.6008   -0.6819 C   0  0  0  0  0  0  0  0  0  0  0  0
   -1.4334    1.6386   -0.1491 C   0  0  0  0  0  0  0  0  0  0  0  0
   -0.9736    0.2888   -0.1185 N   0  0  0  0  0  0  0  0  0  0  0  0
    0.4219    0.0877    0.0553 C   0  0  0  0  0  0  0  0  0  0  0  0
    1.2441    0.5344   -1.1319 C   0  0  0  0  0  0  0  0  0  0  0  0
    2.6336    0.2816   -0.8534 N   0  0  0  0  0  0  0  0  0  0  0  0
    3.2235   -0.8967   -1.1744 C   0  0  0  0  0  0  0  0  0  0  0  0
    2.4560   -1.7440   -1.7272 O   0  0  0  0  0  0  0  0  0  0  0  0
    4.4843   -1.1995   -0.9571 N   0  0  0  0  0  0  0  0  0  0  0  0
    5.3575   -0.3135   -0.3597 C   0  0  0  0  0  0  0  0  0  0  0  0
    6.6783   -0.4798   -0.0713 C   0  0  0  0  0  0  0  0  0  0  0  0
    7.4972   -1.6150   -0.3134 C   0  0  0  0  0  0  0  0  0  0  0  0
    8.8002   -1.6273    0.0325 C   0  0  0  0  0  0  0  0  0  0  0  0
    9.4459   -0.5759    0.6349 C   0  0  0  0  0  0  0  0  0  0  0  0
    8.6736    0.5380    0.8811 C   0  0  0  0  0  0  0  0  0  0  0  0
    7.3121    0.5708    0.5278 C   0  0  0  0  0  0  0  0  0  0  0  0
    6.0818    1.7446    0.6748 S   0  0  0  0  0  0  0  0  0  0  0  0
    4.7951    0.8829   -0.0236 C   0  0  0  0  0  0  0  0  0  0  0  0
    3.4462    1.1770   -0.2682 C   0  0  0  0  0  0  0  0  0  0  0  0
    3.0115    2.2992    0.0724 O   0  0  0  0  0  0  0  0  0  0  0  0
   -1.6902   -0.3659    0.9555 C   0  0  0  0  0  0  0  0  0  0  0  0
   -3.0893   -0.6522    0.4445 C   0  0  0  0  0  0  0  0  0  0  0  0
   -5.4725   -3.4961   -1.0016 H   0  0  0  0  0  0  0  0  0  0  0  0
   -7.0875   -2.7568   -0.7199 H   0  0  0  0  0  0  0  0  0  0  0  0
   -6.1128   -3.2950    0.6764 H   0  0  0  0  0  0  0  0  0  0  0  0
   -7.9760   -1.0391   -0.0119 H   0  0  0  0  0  0  0  0  0  0  0  0
   -8.8965    1.1524    0.2639 H   0  0  0  0  0  0  0  0  0  0  0  0
   -7.4087    3.1474    0.3680 H   0  0  0  0  0  0  0  0  0  0  0  0
   -5.0088    2.8900    0.1990 H   0  0  0  0  0  0  0  0  0  0  0  0
   -3.3227    2.5932   -0.6643 H   0  0  0  0  0  0  0  0  0  0  0  0
   -2.7381    1.2742   -1.7693 H   0  0  0  0  0  0  0  0  0  0  0  0
   -1.4256    2.0164    0.9115 H   0  0  0  0  0  0  0  0  0  0  0  0
   -0.8670    2.2977   -0.8333 H   0  0  0  0  0  0  0  0  0  0  0  0
    0.5863   -1.0153    0.1507 H   0  0  0  0  0  0  0  0  0  0  0  0
    0.7994    0.5530    0.9697 H   0  0  0  0  0  0  0  0  0  0  0  0
    1.0731    1.6435   -1.2166 H   0  0  0  0  0  0  0  0  0  0  0  0
    0.9752    0.0045   -2.0518 H   0  0  0  0  0  0  0  0  0  0  0  0
    4.8168   -2.1387   -1.2501 H   0  0  0  0  0  0  0  0  0  0  0  0
    7.0911   -2.5076   -0.7854 H   0  0  0  0  0  0  0  0  0  0  0  0
    9.4027   -2.5089   -0.1642 H   0  0  0  0  0  0  0  0  0  0  0  0
   10.4692   -0.5516    0.9198 H   0  0  0  0  0  0  0  0  0  0  0  0
    9.0711    1.4129    1.3445 H   0  0  0  0  0  0  0  0  0  0  0  0
   -1.2000   -1.2991    1.2750 H   0  0  0  0  0  0  0  0  0  0  0  0
   -1.7533    0.3831    1.7920 H   0  0  0  0  0  0  0  0  0  0  0  0
   -3.7084   -0.9678    1.3350 H   0  0  0  0  0  0  0  0  0  0  0  0
   -2.9706   -1.4485   -0.3093 H   0  0  0  0  0  0  0  0  0  0  0  0
  1  2  1  0
  2  3  1  0
  3  4  2  0
  4  5  1  0
  5  6  2  0
  6  7  1  0
  7  8  2  0
  8  9  1  0
  9 10  1  0
 10 11  1  0
 11 12  1  0
 12 13  1  0
 13 14  1  0
 14 15  1  0
 15 16  1  0
 16 17  2  0
 16 18  1  0
 18 19  1  0
 19 20  1  0
 20 21  2  0
 21 22  1  0
 22 23  2  0
 23 24  1  0
 24 25  2  0
 25 26  1  0
 26 27  1  0
 27 28  1  0
 28 29  2  0
 12 30  1  0
 30 31  1  0
  8  3  1  0
 31  9  1  0
 28 15  1  0
 27 19  2  0
 25 20  1  0
  1 32  1  0
  1 33  1  0
  1 34  1  0
  4 35  1  0
  5 36  1  0
  6 37  1  0
  7 38  1  0
 10 39  1  0
 10 40  1  0
 11 41  1  0
 11 42  1  0
 13 43  1  0
 13 44  1  0
 14 45  1  0
 14 46  1  0
 18 47  1  0
 21 48  1  0
 22 49  1  0
 23 50  1  0
 24 51  1  0
 30 52  1  0
 30 53  1  0
 31 54  1  0
 31 55  1  0
M  END
$$$$
[H]c1c([H])c(C(=O)N([H])c2nn([H])c3c([H])c([H])c(C#N)c([H])c23)c([H])c(C(F)(F)F)c1[H]
     RDKit          3D

 33 35  0  0  0  0  0  0  0  0999 V2000
    5.1180    2.5532   -1.2769 F   0  0  0  0  0  0  0  0  0  0  0  0
    5.0452    1.9774   -0.0434 C   0  0  0  0  0  0  0  0  0  0  0  0
    6.2487    1.7789    0.5172 F   0  0  0  0  0  0  0  0  0  0  0  0
    4.2475    2.7861    0.7879 F   0  0  0  0  0  0  0  0  0  0  0  0
    4.2989    0.6640   -0.1743 C   0  0  0  0  0  0  0  0  0  0  0  0
    5.0796   -0.4980   -0.0862 C   0  0  0  0  0  0  0  0  0  0  0  0
    4.3946   -1.6702   -0.1697 C   0  0  0  0  0  0  0  0  0  0  0  0
    3.0522   -1.7628   -0.3325 C   0  0  0  0  0  0  0  0  0  0  0  0
    2.2559   -0.5814   -0.4246 C   0  0  0  0  0  0  0  0  0  0  0  0
    2.9345    0.6098   -0.3371 C   0  0  0  0  0  0  0  0  0  0  0  0
    0.8485   -0.8016   -0.5406 C   0  0  0  0  0  0  0  0  0  0  0  0
    0.4860   -1.9571   -1.0338 O   0  0  0  0  0  0  0  0  0  0  0  0
   -0.2090    0.0742   -0.1765 N   0  0  0  0  0  0  0  0  0  0  0  0
   -1.5157   -0.5385   -0.0879 C   0  0  0  0  0  0  0  0  0  0  0  0
   -1.6326   -1.8902    0.0822 N   0  0  0  0  0  0  0  0  0  0  0  0
   -2.8866   -2.2259    0.3542 N   0  0  0  0  0  0  0  0  0  0  0  0
   -3.6284   -1.1323    0.3703 C   0  0  0  0  0  0  0  0  0  0  0  0
   -4.9659   -0.9499    0.5979 C   0  0  0  0  0  0  0  0  0  0  0  0
   -5.4868    0.3206    0.5450 C   0  0  0  0  0  0  0  0  0  0  0  0
   -4.6513    1.4208    0.2571 C   0  0  0  0  0  0  0  0  0  0  0  0
   -3.3205    1.1883    0.0422 C   0  0  0  0  0  0  0  0  0  0  0  0
   -2.7486   -0.0715    0.0852 C   0  0  0  0  0  0  0  0  0  0  0  0
   -5.2217    2.7323    0.1618 C   0  0  0  0  0  0  0  0  0  0  0  0
   -5.6951    3.7746    0.0727 N   0  0  0  0  0  0  0  0  0  0  0  0
    6.1436   -0.4089    0.0651 H   0  0  0  0  0  0  0  0  0  0  0  0
    4.9438   -2.6092   -0.0620 H   0  0  0  0  0  0  0  0  0  0  0  0
    2.5557   -2.7410   -0.4500 H   0  0  0  0  0  0  0  0  0  0  0  0
    2.3563    1.5400   -0.4460 H   0  0  0  0  0  0  0  0  0  0  0  0
   -0.1103    1.0230    0.1809 H   0  0  0  0  0  0  0  0  0  0  0  0
   -3.1515   -3.2391    0.5283 H   0  0  0  0  0  0  0  0  0  0  0  0
   -5.5706   -1.8684    0.7708 H   0  0  0  0  0  0  0  0  0  0  0  0
   -6.5671    0.4895    0.7407 H   0  0  0  0  0  0  0  0  0  0  0  0
   -2.6475    2.0135   -0.1907 H   0  0  0  0  0  0  0  0  0  0  0  0
  1  2  1  0
  2  3  1  0
  2  4  1  0
  2  5  1  0
  5  6  2  0
  6  7  1  0
  7  8  2  0
  8  9  1  0
  9 10  2  0
  9 11  1  0
 11 12  2  0
 11 13  1  0
 13 14  1  0
 14 15  2  0
 15 16  1  0
 16 17  1  0
 17 18  2  0
 18 19  1  0
 19 20  2  0
 20 21  1  0
 21 22  2  0
 20 23  1  0
 23 24  3  0
 10  5  1  0
 22 14  1  0
 22 17  1  0
  6 25  1  0
  7 26  1  0
  8 27  1  0
 10 28  1  0
 13 29  1  0
 16 30  1  0
 18 31  1  0
 19 32  1  0
 21 33  1  0
M  END
$$$$
[H]c1c([H])c(C#Cc2c([H])c(O[C@@]([H])(C([H])([H])[H])C([H])([H])OC([H])([H])[H])c([H])c(C(=O)N([H])c3nn(C([H])([H])[H])c([H])c3[H])c2[H])c([H])c(N([H])C(=O)OC([H])([H])[H])c1[H]
     RDKit          3D

 60 62  0  0  0  0  0  0  0  0999 V2000
   -4.8753    6.3211   -1.3776 C   0  0  0  0  0  0  0  0  0  0  0  0
   -4.3300    5.4958   -0.4214 O   0  0  0  0  0  0  0  0  0  0  0  0
   -4.9682    4.2467   -0.4205 C   0  0  0  0  0  0  0  0  0  0  0  0
   -4.3382    3.3532    0.6538 C   0  0  2  0  0  0  0  0  0  0  0  0
   -4.4761    4.0228    2.0161 C   0  0  0  0  0  0  0  0  0  0  0  0
   -2.9867    3.1503    0.4291 O   0  0  0  0  0  0  0  0  0  0  0  0
   -2.3495    1.9617    0.1892 C   0  0  0  0  0  0  0  0  0  0  0  0
   -0.9648    1.9791   -0.0135 C   0  0  0  0  0  0  0  0  0  0  0  0
   -0.2207    0.8527   -0.2615 C   0  0  0  0  0  0  0  0  0  0  0  0
   -0.9027   -0.3616   -0.3094 C   0  0  0  0  0  0  0  0  0  0  0  0
   -2.2586   -0.4213   -0.1160 C   0  0  0  0  0  0  0  0  0  0  0  0
   -2.9637    0.7541    0.1322 C   0  0  0  0  0  0  0  0  0  0  0  0
   -2.9846   -1.6755   -0.1559 C   0  0  0  0  0  0  0  0  0  0  0  0
   -4.2532   -1.6100   -0.1724 O   0  0  0  0  0  0  0  0  0  0  0  0
   -2.3594   -2.9274   -0.1760 N   0  0  0  0  0  0  0  0  0  0  0  0
   -3.0685   -4.1566   -0.2153 C   0  0  0  0  0  0  0  0  0  0  0  0
   -4.4180   -4.4176   -0.2414 C   0  0  0  0  0  0  0  0  0  0  0  0
   -4.5610   -5.8011   -0.2760 C   0  0  0  0  0  0  0  0  0  0  0  0
   -3.3504   -6.3583   -0.2711 N   0  0  0  0  0  0  0  0  0  0  0  0
   -3.0773   -7.8091   -0.3011 C   0  0  0  0  0  0  0  0  0  0  0  0
   -2.4711   -5.3924   -0.2355 N   0  0  0  0  0  0  0  0  0  0  0  0
    1.1913    0.8513   -0.4706 C   0  0  0  0  0  0  0  0  0  0  0  0
    2.3834    0.8722   -0.6444 C   0  0  0  0  0  0  0  0  0  0  0  0
    3.7939    0.9092   -0.8733 C   0  0  0  0  0  0  0  0  0  0  0  0
    4.3697    1.4601   -2.0010 C   0  0  0  0  0  0  0  0  0  0  0  0
    5.7367    1.4762   -2.1840 C   0  0  0  0  0  0  0  0  0  0  0  0
    6.5674    0.9138   -1.1902 C   0  0  0  0  0  0  0  0  0  0  0  0
    6.0316    0.3609   -0.0645 C   0  0  0  0  0  0  0  0  0  0  0  0
    6.8030   -0.2302    0.9384 N   0  0  0  0  0  0  0  0  0  0  0  0
    8.1039   -0.6999    0.7636 C   0  0  0  0  0  0  0  0  0  0  0  0
    8.7327   -0.6607   -0.2908 O   0  0  0  0  0  0  0  0  0  0  0  0
    8.7778   -1.2700    1.8632 O   0  0  0  0  0  0  0  0  0  0  0  0
   10.0840   -1.7540    1.7327 C   0  0  0  0  0  0  0  0  0  0  0  0
    4.6315    0.3700    0.0740 C   0  0  0  0  0  0  0  0  0  0  0  0
   -4.3456    7.2945   -1.3463 H   0  0  0  0  0  0  0  0  0  0  0  0
   -5.9560    6.3952   -1.2537 H   0  0  0  0  0  0  0  0  0  0  0  0
   -4.6916    5.8277   -2.3736 H   0  0  0  0  0  0  0  0  0  0  0  0
   -4.8632    3.7364   -1.3808 H   0  0  0  0  0  0  0  0  0  0  0  0
   -6.0427    4.3246   -0.1645 H   0  0  0  0  0  0  0  0  0  0  0  0
   -4.9290    2.4252    0.6274 H   0  0  0  0  0  0  0  0  0  0  0  0
   -3.7000    3.6574    2.7204 H   0  0  0  0  0  0  0  0  0  0  0  0
   -4.3823    5.1319    1.8620 H   0  0  0  0  0  0  0  0  0  0  0  0
   -5.4521    3.7837    2.4458 H   0  0  0  0  0  0  0  0  0  0  0  0
   -0.4817    2.9514    0.0342 H   0  0  0  0  0  0  0  0  0  0  0  0
   -0.3677   -1.2752   -0.5031 H   0  0  0  0  0  0  0  0  0  0  0  0
   -4.0495    0.7077    0.2874 H   0  0  0  0  0  0  0  0  0  0  0  0
   -1.3193   -2.9757   -0.1619 H   0  0  0  0  0  0  0  0  0  0  0  0
   -5.2413   -3.7073   -0.2370 H   0  0  0  0  0  0  0  0  0  0  0  0
   -5.5132   -6.3013   -0.3018 H   0  0  0  0  0  0  0  0  0  0  0  0
   -2.3172   -8.0787    0.4606 H   0  0  0  0  0  0  0  0  0  0  0  0
   -4.0083   -8.3392   -0.0089 H   0  0  0  0  0  0  0  0  0  0  0  0
   -2.8168   -8.1427   -1.3200 H   0  0  0  0  0  0  0  0  0  0  0  0
    3.7545    1.8956   -2.7737 H   0  0  0  0  0  0  0  0  0  0  0  0
    6.1762    1.9102   -3.0709 H   0  0  0  0  0  0  0  0  0  0  0  0
    7.6230    0.9810   -1.4033 H   0  0  0  0  0  0  0  0  0  0  0  0
    6.3282   -0.3069    1.9063 H   0  0  0  0  0  0  0  0  0  0  0  0
   10.0731   -2.7619    1.2551 H   0  0  0  0  0  0  0  0  0  0  0  0
   10.6683   -1.0473    1.1032 H   0  0  0  0  0  0  0  0  0  0  0  0
   10.5877   -1.8153    2.7104 H   0  0  0  0  0  0  0  0  0  0  0  0
    4.2380   -0.0763    0.9765 H   0  0  0  0  0  0  0  0  0  0  0  0
  1  2  1  0
  2  3  1  0
  3  4  1  0
  4  5  1  0
  4  6  1  0
  6  7  1  0
  7  8  2  0
  8  9  1  0
  9 10  2  0
 10 11  1  0
 11 12  2  0
 11 13  1  0
 13 14  2  0
 13 15  1  0
 15 16  1  0
 16 17  1  0
 17 18  2  0
 18 19  1  0
 19 20  1  0
 19 21  1  0
  9 22  1  0
 22 23  3  0
 23 24  1  0
 24 25  2  0
 25 26  1  0
 26 27  2  0
 27 28  1  0
 28 29  1  0
 29 30  1  0
 30 31  2  0
 30 32  1  0
 32 33  1  0
 28 34  2  0
 12  7  1  0
 21 16  2  0
 34 24  1  0
  1 35  1  0
  1 36  1  0
  1 37  1  0
  3 38  1  0
  3 39  1  0
  4 40  1  1
  5 41  1  0
  5 42  1  0
  5 43  1  0
  8 44  1  0
 10 45  1  0
 12 46  1  0
 15 47  1  0
 17 48  1  0
 18 49  1  0
 20 50  1  0
 20 51  1  0
 20 52  1  0
 25 53  1  0
 26 54  1  0
 27 55  1  0
 29 56  1  0
 33 57  1  0
 33 58  1  0
 33 59  1  0
 34 60  1  0
M  END
$$$$
[H]OC(=O)c1c([H])c([H])c(/C([H])=C(\[H])c2c([H])c([H])c([H])c(/C([H])=C(\[H])c3c([H])c([H])c(C(=O)O[H])c([H])c3[H])c2[H])c([H])c1[H]
     RDKit          3D

 46 48  0  0  0  0  0  0  0  0999 V2000
   -7.6845   -3.9112   -0.4832 O   0  0  0  0  0  0  0  0  0  0  0  0
   -7.6581   -2.5442   -0.2533 C   0  0  0  0  0  0  0  0  0  0  0  0
   -8.7181   -1.8823   -0.1245 O   0  0  0  0  0  0  0  0  0  0  0  0
   -6.3878   -1.8186   -0.1516 C   0  0  0  0  0  0  0  0  0  0  0  0
   -6.3574   -0.4639    0.0762 C   0  0  0  0  0  0  0  0  0  0  0  0
   -5.1416    0.2291    0.1732 C   0  0  0  0  0  0  0  0  0  0  0  0
   -3.9377   -0.4051    0.0467 C   0  0  0  0  0  0  0  0  0  0  0  0
   -2.6416    0.2662    0.1388 C   0  0  0  0  0  0  0  0  0  0  0  0
   -2.5724    1.5530    0.3547 C   0  0  0  0  0  0  0  0  0  0  0  0
   -1.3166    2.2710    0.4553 C   0  0  0  0  0  0  0  0  0  0  0  0
   -1.3453    3.6508    0.6884 C   0  0  0  0  0  0  0  0  0  0  0  0
   -0.1995    4.4028    0.7966 C   0  0  0  0  0  0  0  0  0  0  0  0
    0.9892    3.7383    0.6653 C   0  0  0  0  0  0  0  0  0  0  0  0
    1.0582    2.3687    0.4332 C   0  0  0  0  0  0  0  0  0  0  0  0
    2.3915    1.7910    0.3141 C   0  0  0  0  0  0  0  0  0  0  0  0
    2.6622    0.5244    0.0962 C   0  0  0  0  0  0  0  0  0  0  0  0
    3.9884   -0.0546   -0.0230 C   0  0  0  0  0  0  0  0  0  0  0  0
    5.1514    0.6686    0.0802 C   0  0  0  0  0  0  0  0  0  0  0  0
    6.3721    0.0520   -0.0437 C   0  0  0  0  0  0  0  0  0  0  0  0
    6.4988   -1.2969   -0.2733 C   0  0  0  0  0  0  0  0  0  0  0  0
    5.3252   -2.0253   -0.3772 C   0  0  0  0  0  0  0  0  0  0  0  0
    4.1013   -1.4051   -0.2527 C   0  0  0  0  0  0  0  0  0  0  0  0
    7.8032   -1.9247   -0.4003 C   0  0  0  0  0  0  0  0  0  0  0  0
    7.9146   -3.2778   -0.6305 O   0  0  0  0  0  0  0  0  0  0  0  0
    8.8352   -1.2332   -0.3003 O   0  0  0  0  0  0  0  0  0  0  0  0
   -0.1157    1.6475    0.3307 C   0  0  0  0  0  0  0  0  0  0  0  0
   -3.9819   -1.7896   -0.1859 C   0  0  0  0  0  0  0  0  0  0  0  0
   -5.1760   -2.4649   -0.2802 C   0  0  0  0  0  0  0  0  0  0  0  0
   -7.8977   -4.3350   -1.3707 H   0  0  0  0  0  0  0  0  0  0  0  0
   -7.3078    0.0420    0.1768 H   0  0  0  0  0  0  0  0  0  0  0  0
   -5.1951    1.2874    0.3523 H   0  0  0  0  0  0  0  0  0  0  0  0
   -1.7195   -0.2958    0.0291 H   0  0  0  0  0  0  0  0  0  0  0  0
   -3.4715    2.1600    0.4716 H   0  0  0  0  0  0  0  0  0  0  0  0
   -2.2800    4.1702    0.7912 H   0  0  0  0  0  0  0  0  0  0  0  0
   -0.2738    5.4753    0.9786 H   0  0  0  0  0  0  0  0  0  0  0  0
    1.8944    4.3442    0.7527 H   0  0  0  0  0  0  0  0  0  0  0  0
    3.2658    2.4392    0.4093 H   0  0  0  0  0  0  0  0  0  0  0  0
    1.8048   -0.1317   -0.0006 H   0  0  0  0  0  0  0  0  0  0  0  0
    5.1233    1.7570    0.2643 H   0  0  0  0  0  0  0  0  0  0  0  0
    7.3030    0.6352    0.0396 H   0  0  0  0  0  0  0  0  0  0  0  0
    5.4026   -3.1061   -0.5608 H   0  0  0  0  0  0  0  0  0  0  0  0
    3.1888   -2.0116   -0.3402 H   0  0  0  0  0  0  0  0  0  0  0  0
    8.5227   -3.9014   -0.1053 H   0  0  0  0  0  0  0  0  0  0  0  0
   -0.0262    0.6009    0.1527 H   0  0  0  0  0  0  0  0  0  0  0  0
   -3.0182   -2.2790   -0.2840 H   0  0  0  0  0  0  0  0  0  0  0  0
   -5.1727   -3.5165   -0.4575 H   0  0  0  0  0  0  0  0  0  0  0  0
  1  2  1  0
  2  3  2  0
  2  4  1  0
  4  5  2  0
  5  6  1  0
  6  7  2  0
  7  8  1  0
  8  9  2  0
  9 10  1  0
 10 11  2  0
 11 12  1  0
 12 13  2  0
 13 14  1  0
 14 15  1  0
 15 16  2  0
 16 17  1  0
 17 18  2  0
 18 19  1  0
 19 20  2  0
 20 21  1  0
 21 22  2  0
 20 23  1  0
 23 24  1  0
 23 25  2  0
 14 26  2  0
  7 27  1  0
 27 28  2  0
 28  4  1  0
 26 10  1  0
 22 17  1  0
  1 29  1  0
  5 30  1  0
  6 31  1  0
  8 32  1  0
  9 33  1  0
 11 34  1  0
 12 35  1  0
 13 36  1  0
 15 37  1  0
 16 38  1  0
 18 39  1  0
 19 40  1  0
 21 41  1  0
 22 42  1  0
 24 43  1  0
 26 44  1  0
 27 45  1  0
 28 46  1  0
M  END
$$$$
[H]c1nc(N([H])c2c([H])c([H])c(N3C([H])([H])C([H])([H])C([H])(N4C([H])([H])C([H])([H])N(C([H])([H])[H])C([H])([H])C4([H])[H])C([H])([H])C3([H])[H])c([H])c2OC([H])([H])[H])nc(N([H])c2c([H])c([H])c([H])c([H])c2S(=O)(=O)C([H])(C([H])([H])[H])C([H])([H])[H])c1Cl
     RDKit          3D

 82 86  0  0  0  0  0  0  0  0999 V2000
   -0.1870    3.7228   -1.2569 C   0  0  0  0  0  0  0  0  0  0  0  0
    0.4390    2.5297   -0.8437 O   0  0  0  0  0  0  0  0  0  0  0  0
   -0.3483    1.4775   -0.4024 C   0  0  0  0  0  0  0  0  0  0  0  0
   -1.7220    1.6350   -0.3827 C   0  0  0  0  0  0  0  0  0  0  0  0
   -2.5624    0.6308    0.0436 C   0  0  0  0  0  0  0  0  0  0  0  0
   -1.9599   -0.5357    0.4478 C   0  0  0  0  0  0  0  0  0  0  0  0
   -0.5748   -0.7280    0.4408 C   0  0  0  0  0  0  0  0  0  0  0  0
    0.2576    0.2764    0.0150 C   0  0  0  0  0  0  0  0  0  0  0  0
    1.6540    0.2011   -0.0367 N   0  0  0  0  0  0  0  0  0  0  0  0
    2.4984   -0.8842    0.3177 C   0  0  0  0  0  0  0  0  0  0  0  0
    2.1033   -2.0726    0.7812 N   0  0  0  0  0  0  0  0  0  0  0  0
    2.9559   -3.0558    1.0957 C   0  0  0  0  0  0  0  0  0  0  0  0
    4.3092   -2.8632    0.9451 C   0  0  0  0  0  0  0  0  0  0  0  0
    5.4455   -4.1449    1.3534 Cl  0  0  0  0  0  0  0  0  0  0  0  0
    4.7527   -1.6166    0.4572 C   0  0  0  0  0  0  0  0  0  0  0  0
    6.1380   -1.4466    0.3110 N   0  0  0  0  0  0  0  0  0  0  0  0
    6.9009   -0.3576   -0.1368 C   0  0  0  0  0  0  0  0  0  0  0  0
    6.2766    0.8084   -0.5266 C   0  0  0  0  0  0  0  0  0  0  0  0
    7.0240    1.9039   -0.9778 C   0  0  0  0  0  0  0  0  0  0  0  0
    8.3820    1.8034   -1.0274 C   0  0  0  0  0  0  0  0  0  0  0  0
    9.0024    0.6381   -0.6374 C   0  0  0  0  0  0  0  0  0  0  0  0
    8.2961   -0.4485   -0.1920 C   0  0  0  0  0  0  0  0  0  0  0  0
    9.0842   -1.8926    0.2913 S   0  0  0  0  0  0  0  0  0  0  0  0
    8.6633   -3.0312   -0.6035 O   0  0  0  0  0  0  0  0  0  0  0  0
    8.8235   -2.3045    1.7132 O   0  0  0  0  0  0  0  0  0  0  0  0
   10.8572   -1.7881    0.1370 C   0  0  0  0  0  0  0  0  0  0  0  0
   11.2609   -1.6791   -1.2975 C   0  0  0  0  0  0  0  0  0  0  0  0
   11.4760   -0.7869    1.0544 C   0  0  0  0  0  0  0  0  0  0  0  0
    3.8248   -0.7008    0.1721 N   0  0  0  0  0  0  0  0  0  0  0  0
   -3.9818    0.8060    0.0512 N   0  0  0  0  0  0  0  0  0  0  0  0
   -4.5241    1.9609   -0.5784 C   0  0  0  0  0  0  0  0  0  0  0  0
   -6.0011    1.9283   -0.8544 C   0  0  0  0  0  0  0  0  0  0  0  0
   -6.8245    1.3726    0.2584 C   0  0  0  0  0  0  0  0  0  0  0  0
   -6.0036    0.6088    1.2781 C   0  0  0  0  0  0  0  0  0  0  0  0
   -4.8657   -0.1463    0.6796 C   0  0  0  0  0  0  0  0  0  0  0  0
   -7.9560    0.6086   -0.0875 N   0  0  0  0  0  0  0  0  0  0  0  0
   -7.7905   -0.5856   -0.8057 C   0  0  0  0  0  0  0  0  0  0  0  0
   -9.1362   -1.0235   -1.3907 C   0  0  0  0  0  0  0  0  0  0  0  0
  -10.1390   -0.8718   -0.3544 N   0  0  0  0  0  0  0  0  0  0  0  0
  -10.0361   -1.8235    0.7053 C   0  0  0  0  0  0  0  0  0  0  0  0
  -10.3349    0.4834    0.0484 C   0  0  0  0  0  0  0  0  0  0  0  0
   -9.1475    1.3193   -0.4248 C   0  0  0  0  0  0  0  0  0  0  0  0
    0.5375    4.4499   -1.6799 H   0  0  0  0  0  0  0  0  0  0  0  0
   -0.9481    3.5330   -2.0530 H   0  0  0  0  0  0  0  0  0  0  0  0
   -0.6880    4.2523   -0.4156 H   0  0  0  0  0  0  0  0  0  0  0  0
   -2.1476    2.5764   -0.7105 H   0  0  0  0  0  0  0  0  0  0  0  0
   -2.6020   -1.3517    0.7883 H   0  0  0  0  0  0  0  0  0  0  0  0
   -0.2121   -1.6859    0.7807 H   0  0  0  0  0  0  0  0  0  0  0  0
    2.1500    1.0935   -0.3956 H   0  0  0  0  0  0  0  0  0  0  0  0
    2.6174   -4.0222    1.4737 H   0  0  0  0  0  0  0  0  0  0  0  0
    6.7215   -2.3022    0.5911 H   0  0  0  0  0  0  0  0  0  0  0  0
    5.2202    0.9989   -0.5296 H   0  0  0  0  0  0  0  0  0  0  0  0
    6.5603    2.8305   -1.2896 H   0  0  0  0  0  0  0  0  0  0  0  0
    9.0220    2.6252   -1.3712 H   0  0  0  0  0  0  0  0  0  0  0  0
   10.0936    0.6299   -0.7052 H   0  0  0  0  0  0  0  0  0  0  0  0
   11.2252   -2.8031    0.4806 H   0  0  0  0  0  0  0  0  0  0  0  0
   11.9033   -0.7785   -1.4926 H   0  0  0  0  0  0  0  0  0  0  0  0
   10.3307   -1.5514   -1.9199 H   0  0  0  0  0  0  0  0  0  0  0  0
   11.7765   -2.5763   -1.6995 H   0  0  0  0  0  0  0  0  0  0  0  0
   12.0225   -1.2557    1.8769 H   0  0  0  0  0  0  0  0  0  0  0  0
   12.1781   -0.1622    0.4319 H   0  0  0  0  0  0  0  0  0  0  0  0
   10.7434   -0.0899    1.5079 H   0  0  0  0  0  0  0  0  0  0  0  0
   -4.2803    2.8410    0.0525 H   0  0  0  0  0  0  0  0  0  0  0  0
   -3.9354    2.1199   -1.5269 H   0  0  0  0  0  0  0  0  0  0  0  0
   -6.3084    2.9635   -1.1164 H   0  0  0  0  0  0  0  0  0  0  0  0
   -6.1470    1.3325   -1.7818 H   0  0  0  0  0  0  0  0  0  0  0  0
   -7.2139    2.2642    0.8421 H   0  0  0  0  0  0  0  0  0  0  0  0
   -6.6586   -0.1075    1.8153 H   0  0  0  0  0  0  0  0  0  0  0  0
   -5.5929    1.2907    2.0626 H   0  0  0  0  0  0  0  0  0  0  0  0
   -5.1731   -0.8869   -0.0780 H   0  0  0  0  0  0  0  0  0  0  0  0
   -4.3121   -0.6097    1.5260 H   0  0  0  0  0  0  0  0  0  0  0  0
   -7.5080   -1.4012   -0.0997 H   0  0  0  0  0  0  0  0  0  0  0  0
   -7.0082   -0.5774   -1.5870 H   0  0  0  0  0  0  0  0  0  0  0  0
   -9.4445   -0.3742   -2.2343 H   0  0  0  0  0  0  0  0  0  0  0  0
   -9.0261   -2.0597   -1.7202 H   0  0  0  0  0  0  0  0  0  0  0  0
   -9.1822   -2.5377    0.5321 H   0  0  0  0  0  0  0  0  0  0  0  0
   -9.9814   -1.3564    1.7041 H   0  0  0  0  0  0  0  0  0  0  0  0
  -10.9456   -2.4645    0.6802 H   0  0  0  0  0  0  0  0  0  0  0  0
  -11.2261    0.8855   -0.4545 H   0  0  0  0  0  0  0  0  0  0  0  0
  -10.4517    0.5517    1.1515 H   0  0  0  0  0  0  0  0  0  0  0  0
   -9.2778    1.5186   -1.4917 H   0  0  0  0  0  0  0  0  0  0  0  0
   -9.1611    2.2698    0.1783 H   0  0  0  0  0  0  0  0  0  0  0  0
  1  2  1  0
  2  3  1  0
  3  4  2  0
  4  5  1  0
  5  6  2  0
  6  7  1  0
  7  8  2  0
  8  9  1  0
  9 10  1  0
 10 11  2  0
 11 12  1  0
 12 13  2  0
 13 14  1  0
 13 15  1  0
 15 16  1  0
 16 17  1  0
 17 18  2  0
 18 19  1  0
 19 20  2  0
 20 21  1  0
 21 22  2  0
 22 23  1  0
 23 24  2  0
 23 25  2  0
 23 26  1  0
 26 27  1  0
 26 28  1  0
 15 29  2  0
  5 30  1  0
 30 31  1  0
 31 32  1  0
 32 33  1  0
 33 34  1  0
 34 35  1  0
 33 36  1  0
 36 37  1  0
 37 38  1  0
 38 39  1  0
 39 40  1  0
 39 41  1  0
 41 42  1  0
  8  3  1  0
 29 10  1  0
 35 30  1  0
 42 36  1  0
 22 17  1  0
  1 43  1  0
  1 44  1  0
  1 45  1  0
  4 46  1  0
  6 47  1  0
  7 48  1  0
  9 49  1  0
 12 50  1  0
 16 51  1  0
 18 52  1  0
 19 53  1  0
 20 54  1  0
 21 55  1  0
 26 56  1  0
 27 57  1  0
 27 58  1  0
 27 59  1  0
 28 60  1  0
 28 61  1  0
 28 62  1  0
 31 63  1  0
 31 64  1  0
 32 65  1  0
 32 66  1  0
 33 67  1  0
 34 68  1  0
 34 69  1  0
 35 70  1  0
 35 71  1  0
 37 72  1  0
 37 73  1  0
 38 74  1  0
 38 75  1  0
 40 76  1  0
 40 77  1  0
 40 78  1  0
 41 79  1  0
 41 80  1  0
 42 81  1  0
 42 82  1  0
M  END
$$$$
[H]ON([H])C(=O)C1([H])N(S(=O)(=O)c2c([H])c([H])c(OC([H])([H])[H])c([H])c2[H])C([H])([H])C([H])([H])N(C(=O)OC([H])([H])c2c([H])c([H])c([H])c([H])c2[H])C1([H])[H]
     RDKit          3D

 54 56  0  0  0  0  0  0  0  0999 V2000
   -8.1347    0.3416   -1.7517 C   0  0  0  0  0  0  0  0  0  0  0  0
   -7.1973    1.3674   -1.5569 O   0  0  0  0  0  0  0  0  0  0  0  0
   -6.0723    1.1676   -0.7383 C   0  0  0  0  0  0  0  0  0  0  0  0
   -5.1790    2.2150   -0.5813 C   0  0  0  0  0  0  0  0  0  0  0  0
   -4.0804    2.0104    0.2220 C   0  0  0  0  0  0  0  0  0  0  0  0
   -3.8805    0.8040    0.8461 C   0  0  0  0  0  0  0  0  0  0  0  0
   -4.7717   -0.2277    0.6842 C   0  0  0  0  0  0  0  0  0  0  0  0
   -5.9009   -0.0591   -0.1245 C   0  0  0  0  0  0  0  0  0  0  0  0
   -2.4780    0.5775    1.8565 S   0  0  0  0  0  0  0  0  0  0  0  0
   -2.8674   -0.4062    2.9333 O   0  0  0  0  0  0  0  0  0  0  0  0
   -2.1252    1.8640    2.5639 O   0  0  0  0  0  0  0  0  0  0  0  0
   -1.1998   -0.0226    0.9239 N   0  0  0  0  0  0  0  0  0  0  0  0
   -0.7517    0.7913   -0.1241 C   0  0  0  0  0  0  0  0  0  0  0  0
    0.7071    0.9827   -0.2864 C   0  0  0  0  0  0  0  0  0  0  0  0
    1.5372    0.0808    0.4543 N   0  0  0  0  0  0  0  0  0  0  0  0
    1.0676   -0.3356    1.7614 C   0  0  0  0  0  0  0  0  0  0  0  0
   -0.3178   -0.9197    1.5507 C   0  0  0  0  0  0  0  0  0  0  0  0
   -0.2420   -2.2554    0.9059 C   0  0  0  0  0  0  0  0  0  0  0  0
    0.5329   -3.1018    1.4205 O   0  0  0  0  0  0  0  0  0  0  0  0
   -1.0163   -2.5562   -0.2445 N   0  0  0  0  0  0  0  0  0  0  0  0
   -0.9321   -3.7777   -0.8154 O   0  0  0  0  0  0  0  0  0  0  0  0
    2.7888   -0.4126   -0.0433 C   0  0  0  0  0  0  0  0  0  0  0  0
    3.4636   -1.1997    0.6596 O   0  0  0  0  0  0  0  0  0  0  0  0
    3.2786   -0.0479   -1.2775 O   0  0  0  0  0  0  0  0  0  0  0  0
    4.4935   -0.4832   -1.8370 C   0  0  0  0  0  0  0  0  0  0  0  0
    5.6914   -0.1220   -1.0455 C   0  0  0  0  0  0  0  0  0  0  0  0
    6.3748   -1.0541   -0.2990 C   0  0  0  0  0  0  0  0  0  0  0  0
    7.4851   -0.6762    0.4240 C   0  0  0  0  0  0  0  0  0  0  0  0
    7.9470    0.6356    0.4260 C   0  0  0  0  0  0  0  0  0  0  0  0
    7.2712    1.5759   -0.3170 C   0  0  0  0  0  0  0  0  0  0  0  0
    6.1657    1.1941   -1.0355 C   0  0  0  0  0  0  0  0  0  0  0  0
   -8.4377   -0.1685   -0.8141 H   0  0  0  0  0  0  0  0  0  0  0  0
   -7.7373   -0.4425   -2.4594 H   0  0  0  0  0  0  0  0  0  0  0  0
   -9.0297    0.7972   -2.2607 H   0  0  0  0  0  0  0  0  0  0  0  0
   -5.3612    3.1491   -1.0825 H   0  0  0  0  0  0  0  0  0  0  0  0
   -3.3675    2.7976    0.3676 H   0  0  0  0  0  0  0  0  0  0  0  0
   -4.6415   -1.1922    1.1638 H   0  0  0  0  0  0  0  0  0  0  0  0
   -6.6060   -0.8762   -0.2524 H   0  0  0  0  0  0  0  0  0  0  0  0
   -1.2091    1.8174    0.0085 H   0  0  0  0  0  0  0  0  0  0  0  0
   -1.1808    0.4528   -1.1138 H   0  0  0  0  0  0  0  0  0  0  0  0
    1.0128    0.8887   -1.3670 H   0  0  0  0  0  0  0  0  0  0  0  0
    1.0332    2.0290   -0.0127 H   0  0  0  0  0  0  0  0  0  0  0  0
    0.9084    0.6127    2.3450 H   0  0  0  0  0  0  0  0  0  0  0  0
    1.7336   -1.0376    2.2635 H   0  0  0  0  0  0  0  0  0  0  0  0
   -0.7083   -1.1187    2.5930 H   0  0  0  0  0  0  0  0  0  0  0  0
   -1.6478   -1.8559   -0.6579 H   0  0  0  0  0  0  0  0  0  0  0  0
   -1.6684   -3.9833   -1.4165 H   0  0  0  0  0  0  0  0  0  0  0  0
    4.5919   -0.0963   -2.8904 H   0  0  0  0  0  0  0  0  0  0  0  0
    4.4938   -1.6059   -1.9677 H   0  0  0  0  0  0  0  0  0  0  0  0
    6.0595   -2.0992   -0.2622 H   0  0  0  0  0  0  0  0  0  0  0  0
    7.9931   -1.4417    0.9978 H   0  0  0  0  0  0  0  0  0  0  0  0
    8.8248    0.8731    1.0136 H   0  0  0  0  0  0  0  0  0  0  0  0
    7.6249    2.5860   -0.3169 H   0  0  0  0  0  0  0  0  0  0  0  0
    5.6619    1.9642   -1.6073 H   0  0  0  0  0  0  0  0  0  0  0  0
  1  2  1  0
  2  3  1  0
  3  4  2  0
  4  5  1  0
  5  6  2  0
  6  7  1  0
  7  8  2  0
  6  9  1  0
  9 10  2  0
  9 11  2  0
  9 12  1  0
 12 13  1  0
 13 14  1  0
 14 15  1  0
 15 16  1  0
 16 17  1  0
 17 18  1  0
 18 19  2  0
 18 20  1  0
 20 21  1  0
 15 22  1  0
 22 23  2  0
 22 24  1  0
 24 25  1  0
 25 26  1  0
 26 27  2  0
 27 28  1  0
 28 29  2  0
 29 30  1  0
 30 31  2  0
  8  3  1  0
 17 12  1  0
 31 26  1  0
  1 32  1  0
  1 33  1  0
  1 34  1  0
  4 35  1  0
  5 36  1  0
  7 37  1  0
  8 38  1  0
 13 39  1  0
 13 40  1  0
 14 41  1  0
 14 42  1  0
 16 43  1  0
 16 44  1  0
 17 45  1  0
 20 46  1  0
 21 47  1  0
 25 48  1  0
 25 49  1  0
 27 50  1  0
 28 51  1  0
 29 52  1  0
 30 53  1  0
 31 54  1  0
M  END
$$$$
[H]Oc1c([H])c([H])c(C([H])([H])[C@@]([H])(C(=O)N([H])[H])N([H])C(=O)[C@@]([H])(N([H])C(=O)[C@@]([H])(N([H])C(=O)OC(C([H])([H])[H])(C([H])([H])[H])C([H])([H])[H])C([H])([H])c2c([H])n([H])c3c([H])c([H])c([H])c([H])c23)C([H])([H])C([H])([H])C([H])([H])N=C(N([H])[H])N([H])[H])c([H])c1[H]
     RDKit          3D

 87 89  0  0  0  0  0  0  0  0999 V2000
    6.2959    1.6658    4.3996 C   0  0  0  0  0  0  0  0  0  0  0  0
    6.5669    0.4615    3.5483 C   0  0  0  0  0  0  0  0  0  0  0  0
    7.7234    0.7710    2.5977 C   0  0  0  0  0  0  0  0  0  0  0  0
    7.0707   -0.6317    4.4722 C   0  0  0  0  0  0  0  0  0  0  0  0
    5.4554   -0.0214    2.8600 O   0  0  0  0  0  0  0  0  0  0  0  0
    4.6916    0.6443    1.9350 C   0  0  0  0  0  0  0  0  0  0  0  0
    4.9924    1.8235    1.6481 O   0  0  0  0  0  0  0  0  0  0  0  0
    3.5928   -0.0256    1.3398 N   0  0  0  0  0  0  0  0  0  0  0  0
    2.7150    0.5566    0.3568 C   0  0  1  0  0  0  0  0  0  0  0  0
    2.8882    0.1027   -1.0382 C   0  0  0  0  0  0  0  0  0  0  0  0
    2.7255   -1.3291   -1.3194 C   0  0  0  0  0  0  0  0  0  0  0  0
    1.5969   -1.9521   -1.8119 C   0  0  0  0  0  0  0  0  0  0  0  0
    1.7937   -3.2743   -1.9230 N   0  0  0  0  0  0  0  0  0  0  0  0
    3.0413   -3.5473   -1.5123 C   0  0  0  0  0  0  0  0  0  0  0  0
    3.7043   -4.7651   -1.4502 C   0  0  0  0  0  0  0  0  0  0  0  0
    5.0025   -4.7980   -0.9994 C   0  0  0  0  0  0  0  0  0  0  0  0
    5.6247   -3.6364   -0.6186 C   0  0  0  0  0  0  0  0  0  0  0  0
    4.9345   -2.4314   -0.6914 C   0  0  0  0  0  0  0  0  0  0  0  0
    3.6297   -2.3517   -1.1364 C   0  0  0  0  0  0  0  0  0  0  0  0
    1.3313    0.6964    0.8516 C   0  0  0  0  0  0  0  0  0  0  0  0
    1.0893    0.3478    2.0315 O   0  0  0  0  0  0  0  0  0  0  0  0
    0.2659    1.2014    0.0713 N   0  0  0  0  0  0  0  0  0  0  0  0
   -1.0744    1.3314    0.6292 C   0  0  1  0  0  0  0  0  0  0  0  0
   -1.6491    2.7058    0.5048 C   0  0  0  0  0  0  0  0  0  0  0  0
   -1.7951    3.2105   -0.8979 C   0  0  0  0  0  0  0  0  0  0  0  0
   -2.3919    4.6094   -0.8174 C   0  0  0  0  0  0  0  0  0  0  0  0
   -2.5853    5.1785   -2.1177 N   0  0  0  0  0  0  0  0  0  0  0  0
   -2.9900    6.3845   -2.2662 C   0  0  0  0  0  0  0  0  0  0  0  0
   -3.2882    7.2833   -1.2212 N   0  0  0  0  0  0  0  0  0  0  0  0
   -3.1486    6.8350   -3.6087 N   0  0  0  0  0  0  0  0  0  0  0  0
   -1.9635    0.2758    0.1354 C   0  0  0  0  0  0  0  0  0  0  0  0
   -1.3874   -0.8305   -0.1757 O   0  0  0  0  0  0  0  0  0  0  0  0
   -3.3608    0.3500   -0.0316 N   0  0  0  0  0  0  0  0  0  0  0  0
   -4.0971   -0.8243   -0.5385 C   0  0  1  0  0  0  0  0  0  0  0  0
   -5.2263   -1.1522    0.3781 C   0  0  0  0  0  0  0  0  0  0  0  0
   -6.0206   -2.3104   -0.0344 C   0  0  0  0  0  0  0  0  0  0  0  0
   -7.2074   -2.2116   -0.7154 C   0  0  0  0  0  0  0  0  0  0  0  0
   -7.9143   -3.3380   -1.0929 C   0  0  0  0  0  0  0  0  0  0  0  0
   -7.4301   -4.5973   -0.7865 C   0  0  0  0  0  0  0  0  0  0  0  0
   -8.2125   -5.6642   -1.2102 O   0  0  0  0  0  0  0  0  0  0  0  0
   -6.2513   -4.7322   -0.1091 C   0  0  0  0  0  0  0  0  0  0  0  0
   -5.5755   -3.5961    0.2504 C   0  0  0  0  0  0  0  0  0  0  0  0
   -4.4209   -0.6359   -1.9583 C   0  0  0  0  0  0  0  0  0  0  0  0
   -5.0034   -1.6127   -2.7847 N   0  0  0  0  0  0  0  0  0  0  0  0
   -4.1639    0.4857   -2.5193 O   0  0  0  0  0  0  0  0  0  0  0  0
    7.2811    2.0845    4.7481 H   0  0  0  0  0  0  0  0  0  0  0  0
    5.7949    2.4910    3.8559 H   0  0  0  0  0  0  0  0  0  0  0  0
    5.7375    1.4233    5.3354 H   0  0  0  0  0  0  0  0  0  0  0  0
    8.6417    0.2370    2.8553 H   0  0  0  0  0  0  0  0  0  0  0  0
    7.9240    1.8508    2.5425 H   0  0  0  0  0  0  0  0  0  0  0  0
    7.3887    0.4424    1.5755 H   0  0  0  0  0  0  0  0  0  0  0  0
    6.2365   -1.3525    4.6174 H   0  0  0  0  0  0  0  0  0  0  0  0
    7.9420   -1.1586    4.0306 H   0  0  0  0  0  0  0  0  0  0  0  0
    7.3398   -0.2105    5.4668 H   0  0  0  0  0  0  0  0  0  0  0  0
    3.3936   -1.0067    1.6288 H   0  0  0  0  0  0  0  0  0  0  0  0
    3.0752    1.6622    0.3192 H   0  0  0  0  0  0  0  0  0  0  0  0
    2.2158    0.7326   -1.6760 H   0  0  0  0  0  0  0  0  0  0  0  0
    3.9186    0.4346   -1.3575 H   0  0  0  0  0  0  0  0  0  0  0  0
    0.6694   -1.4649   -2.0813 H   0  0  0  0  0  0  0  0  0  0  0  0
    1.0967   -3.9835   -2.2704 H   0  0  0  0  0  0  0  0  0  0  0  0
    3.2414   -5.6888   -1.7408 H   0  0  0  0  0  0  0  0  0  0  0  0
    5.5578   -5.7544   -0.9371 H   0  0  0  0  0  0  0  0  0  0  0  0
    6.6488   -3.6808   -0.2661 H   0  0  0  0  0  0  0  0  0  0  0  0
    5.4398   -1.5076   -0.4035 H   0  0  0  0  0  0  0  0  0  0  0  0
    0.4711    1.4780   -0.9198 H   0  0  0  0  0  0  0  0  0  0  0  0
   -0.9614    1.1608    1.7561 H   0  0  0  0  0  0  0  0  0  0  0  0
   -2.6776    2.6648    0.9552 H   0  0  0  0  0  0  0  0  0  0  0  0
   -1.0538    3.4468    1.0799 H   0  0  0  0  0  0  0  0  0  0  0  0
   -2.5073    2.6083   -1.4865 H   0  0  0  0  0  0  0  0  0  0  0  0
   -0.8317    3.2149   -1.4490 H   0  0  0  0  0  0  0  0  0  0  0  0
   -1.6542    5.2638   -0.2654 H   0  0  0  0  0  0  0  0  0  0  0  0
   -3.3219    4.5884   -0.2482 H   0  0  0  0  0  0  0  0  0  0  0  0
   -2.6774    8.0834   -0.9629 H   0  0  0  0  0  0  0  0  0  0  0  0
   -4.1628    7.1418   -0.6783 H   0  0  0  0  0  0  0  0  0  0  0  0
   -2.2580    7.0791   -4.1077 H   0  0  0  0  0  0  0  0  0  0  0  0
   -4.0572    6.9244   -4.0837 H   0  0  0  0  0  0  0  0  0  0  0  0
   -3.9346    1.1897    0.1791 H   0  0  0  0  0  0  0  0  0  0  0  0
   -3.3536   -1.6780   -0.4855 H   0  0  0  0  0  0  0  0  0  0  0  0
   -5.8799   -0.2430    0.4947 H   0  0  0  0  0  0  0  0  0  0  0  0
   -4.8349   -1.3315    1.4234 H   0  0  0  0  0  0  0  0  0  0  0  0
   -7.5586   -1.2169   -0.9422 H   0  0  0  0  0  0  0  0  0  0  0  0
   -8.8419   -3.1698   -1.6277 H   0  0  0  0  0  0  0  0  0  0  0  0
   -7.9993   -6.0230   -2.1562 H   0  0  0  0  0  0  0  0  0  0  0  0
   -5.8954   -5.7242    0.1180 H   0  0  0  0  0  0  0  0  0  0  0  0
   -4.6306   -3.6837    0.7899 H   0  0  0  0  0  0  0  0  0  0  0  0
   -5.7192   -1.3520   -3.5262 H   0  0  0  0  0  0  0  0  0  0  0  0
   -4.7769   -2.6240   -2.7236 H   0  0  0  0  0  0  0  0  0  0  0  0
  1  2  1  0
  2  3  1  0
  2  4  1  0
  2  5  1  0
  5  6  1  0
  6  7  2  0
  6  8  1  0
  8  9  1  0
  9 10  1  0
 10 11  1  0
 11 12  2  0
 12 13  1  0
 13 14  1  0
 14 15  2  0
 15 16  1  0
 16 17  2  0
 17 18  1  0
 18 19  2  0
  9 20  1  0
 20 21  2  0
 20 22  1  0
 22 23  1  0
 23 24  1  0
 24 25  1  0
 25 26  1  0
 26 27  1  0
 27 28  2  3
 28 29  1  0
 28 30  1  0
 23 31  1  0
 31 32  2  0
 31 33  1  0
 33 34  1  0
 34 35  1  0
 35 36  1  0
 36 37  2  0
 37 38  1  0
 38 39  2  0
 39 40  1  0
 39 41  1  0
 41 42  2  0
 34 43  1  0
 43 44  1  0
 43 45  2  0
 19 11  1  0
 42 36  1  0
 19 14  1  0
  1 46  1  0
  1 47  1  0
  1 48  1  0
  3 49  1  0
  3 50  1  0
  3 51  1  0
  4 52  1  0
  4 53  1  0
  4 54  1  0
  8 55  1  0
  9 56  1  6
 10 57  1  0
 10 58  1  0
 12 59  1  0
 13 60  1  0
 15 61  1  0
 16 62  1  0
 17 63  1  0
 18 64  1  0
 22 65  1  0
 23 66  1  1
 24 67  1  0
 24 68  1  0
 25 69  1  0
 25 70  1  0
 26 71  1  0
 26 72  1  0
 29 73  1  0
 29 74  1  0
 30 75  1  0
 30 76  1  0
 33 77  1  0
 34 78  1  6
 35 79  1  0
 35 80  1  0
 37 81  1  0
 38 82  1  0
 40 83  1  0
 41 84  1  0
 42 85  1  0
 44 86  1  0
 44 87  1  0
M  END
$$$$
[H]c1nn(C2([H])OC([H])([H])C([H])([H])C([H])([H])C2([H])[H])c(-c2nc([H])c([H])c3c(N4C([H])([H])C([H])([H])OC([H])([H])C4([H])[H])c([H])c(N4C([H])([H])C([H])([H])OC([H])([H])[C@@]4([H])C([H])([H])[H])nc23)c1[H]
     RDKit          3D

 66 71  0  0  0  0  0  0  0  0999 V2000
   -3.9825    2.5996   -1.3531 C   0  0  0  0  0  0  0  0  0  0  0  0
   -3.3249    2.7081    0.0038 C   0  0  2  0  0  0  0  0  0  0  0  0
   -3.3980    4.1631    0.4162 C   0  0  0  0  0  0  0  0  0  0  0  0
   -2.5795    4.4717    1.4771 O   0  0  0  0  0  0  0  0  0  0  0  0
   -1.2420    4.2934    1.2252 C   0  0  0  0  0  0  0  0  0  0  0  0
   -0.9873    3.4950   -0.0356 C   0  0  0  0  0  0  0  0  0  0  0  0
   -1.9042    2.3683   -0.0746 N   0  0  0  0  0  0  0  0  0  0  0  0
   -1.4670    1.0254   -0.1803 C   0  0  0  0  0  0  0  0  0  0  0  0
   -2.4106    0.0251   -0.1842 C   0  0  0  0  0  0  0  0  0  0  0  0
   -2.0810   -1.3236   -0.2843 C   0  0  0  0  0  0  0  0  0  0  0  0
   -3.0397   -2.3350   -0.3090 N   0  0  0  0  0  0  0  0  0  0  0  0
   -3.2955   -3.1426   -1.5105 C   0  0  0  0  0  0  0  0  0  0  0  0
   -4.7635   -2.8930   -1.8272 C   0  0  0  0  0  0  0  0  0  0  0  0
   -5.5609   -3.3537   -0.8191 O   0  0  0  0  0  0  0  0  0  0  0  0
   -4.9576   -3.6857    0.3600 C   0  0  0  0  0  0  0  0  0  0  0  0
   -3.8956   -2.7102    0.8261 C   0  0  0  0  0  0  0  0  0  0  0  0
   -0.7222   -1.6139   -0.3813 C   0  0  0  0  0  0  0  0  0  0  0  0
   -0.2623   -2.9064   -0.4770 C   0  0  0  0  0  0  0  0  0  0  0  0
    1.1014   -3.1542   -0.5658 C   0  0  0  0  0  0  0  0  0  0  0  0
    1.9944   -2.1667   -0.5612 N   0  0  0  0  0  0  0  0  0  0  0  0
    1.5959   -0.9009   -0.4697 C   0  0  0  0  0  0  0  0  0  0  0  0
    2.5235    0.2294   -0.4589 C   0  0  0  0  0  0  0  0  0  0  0  0
    2.3682    1.3850   -1.1905 C   0  0  0  0  0  0  0  0  0  0  0  0
    3.4696    2.1942   -0.8886 C   0  0  0  0  0  0  0  0  0  0  0  0
    4.1928    1.5006   -0.0257 N   0  0  0  0  0  0  0  0  0  0  0  0
    3.6594    0.3210    0.2555 N   0  0  0  0  0  0  0  0  0  0  0  0
    4.1619   -0.6865    1.1403 C   0  0  0  0  0  0  0  0  0  0  0  0
    4.9822   -0.1370    2.2660 C   0  0  0  0  0  0  0  0  0  0  0  0
    6.3273    0.3262    1.8234 C   0  0  0  0  0  0  0  0  0  0  0  0
    6.9538   -0.4678    0.7438 C   0  0  0  0  0  0  0  0  0  0  0  0
    6.0455   -1.3133   -0.0666 C   0  0  0  0  0  0  0  0  0  0  0  0
    4.8733   -1.6863    0.5209 O   0  0  0  0  0  0  0  0  0  0  0  0
    0.2468   -0.6229   -0.3797 C   0  0  0  0  0  0  0  0  0  0  0  0
   -0.1871    0.6574   -0.2780 N   0  0  0  0  0  0  0  0  0  0  0  0
   -3.6179    1.7717   -1.9611 H   0  0  0  0  0  0  0  0  0  0  0  0
   -5.0746    2.4975   -1.1730 H   0  0  0  0  0  0  0  0  0  0  0  0
   -3.8553    3.5719   -1.8941 H   0  0  0  0  0  0  0  0  0  0  0  0
   -3.8168    2.1050    0.7796 H   0  0  0  0  0  0  0  0  0  0  0  0
   -3.0718    4.7721   -0.4691 H   0  0  0  0  0  0  0  0  0  0  0  0
   -4.4357    4.4713    0.6565 H   0  0  0  0  0  0  0  0  0  0  0  0
   -0.8151    3.7084    2.0661 H   0  0  0  0  0  0  0  0  0  0  0  0
   -0.7173    5.2592    1.1192 H   0  0  0  0  0  0  0  0  0  0  0  0
   -1.2016    4.1046   -0.9338 H   0  0  0  0  0  0  0  0  0  0  0  0
    0.0440    3.1372   -0.0046 H   0  0  0  0  0  0  0  0  0  0  0  0
   -3.4661    0.2555   -0.1078 H   0  0  0  0  0  0  0  0  0  0  0  0
   -3.1765   -4.2206   -1.2507 H   0  0  0  0  0  0  0  0  0  0  0  0
   -2.6304   -2.7903   -2.2999 H   0  0  0  0  0  0  0  0  0  0  0  0
   -4.9761   -3.5277   -2.7343 H   0  0  0  0  0  0  0  0  0  0  0  0
   -4.8953   -1.8141   -2.0679 H   0  0  0  0  0  0  0  0  0  0  0  0
   -4.4973   -4.6941    0.3081 H   0  0  0  0  0  0  0  0  0  0  0  0
   -5.7293   -3.7104    1.1565 H   0  0  0  0  0  0  0  0  0  0  0  0
   -4.3962   -1.8334    1.2710 H   0  0  0  0  0  0  0  0  0  0  0  0
   -3.3180   -3.2072    1.6268 H   0  0  0  0  0  0  0  0  0  0  0  0
   -0.9764   -3.7306   -0.4748 H   0  0  0  0  0  0  0  0  0  0  0  0
    1.3817   -4.2104   -0.6391 H   0  0  0  0  0  0  0  0  0  0  0  0
    1.5826    1.6732   -1.8754 H   0  0  0  0  0  0  0  0  0  0  0  0
    3.6212    3.1735   -1.3179 H   0  0  0  0  0  0  0  0  0  0  0  0
    3.2677   -1.1921    1.6055 H   0  0  0  0  0  0  0  0  0  0  0  0
    5.0237   -0.8571    3.1110 H   0  0  0  0  0  0  0  0  0  0  0  0
    4.4168    0.7548    2.6667 H   0  0  0  0  0  0  0  0  0  0  0  0
    6.2557    1.4180    1.5419 H   0  0  0  0  0  0  0  0  0  0  0  0
    6.9874    0.3383    2.7410 H   0  0  0  0  0  0  0  0  0  0  0  0
    7.8027   -1.0684    1.1787 H   0  0  0  0  0  0  0  0  0  0  0  0
    7.4684    0.2498    0.0428 H   0  0  0  0  0  0  0  0  0  0  0  0
    6.5916   -2.2399   -0.3502 H   0  0  0  0  0  0  0  0  0  0  0  0
    5.7897   -0.8298   -1.0549 H   0  0  0  0  0  0  0  0  0  0  0  0
  1  2  1  0
  2  3  1  0
  3  4  1  0
  4  5  1  0
  5  6  1  0
  6  7  1  0
  7  8  1  0
  8  9  2  0
  9 10  1  0
 10 11  1  0
 11 12  1  0
 12 13  1  0
 13 14  1  0
 14 15  1  0
 15 16  1  0
 10 17  2  0
 17 18  1  0
 18 19  2  0
 19 20  1  0
 20 21  2  0
 21 22  1  0
 22 23  2  0
 23 24  1  0
 24 25  2  0
 25 26  1  0
 26 27  1  0
 27 28  1  0
 28 29  1  0
 29 30  1  0
 30 31  1  0
 31 32  1  0
 21 33  1  0
 33 34  2  0
  7  2  1  0
 34  8  1  0
 16 11  1  0
 33 17  1  0
 26 22  1  0
 32 27  1  0
  1 35  1  0
  1 36  1  0
  1 37  1  0
  2 38  1  1
  3 39  1  0
  3 40  1  0
  5 41  1  0
  5 42  1  0
  6 43  1  0
  6 44  1  0
  9 45  1  0
 12 46  1  0
 12 47  1  0
 13 48  1  0
 13 49  1  0
 15 50  1  0
 15 51  1  0
 16 52  1  0
 16 53  1  0
 18 54  1  0
 19 55  1  0
 23 56  1  0
 24 57  1  0
 27 58  1  0
 28 59  1  0
 28 60  1  0
 29 61  1  0
 29 62  1  0
 30 63  1  0
 30 64  1  0
 31 65  1  0
 31 66  1  0
M  END
$$$$
[H]C#C[C@]1(O[H])C([H])([H])C([H])([H])[C@]2([H])[C@]1(C([H])([H])[H])C([H])([H])C([H])([H])[C@]1([H])[C@]3(C([H])([H])[H])C(=C([H])C(=O)C([H])([H])C3([H])[H])C([H])([H])C([H])([H])[C@@]21[H]
     RDKit          3D

 51 54  0  0  0  0  0  0  0  0999 V2000
    1.7493   -1.1265    1.6536 C   0  0  0  0  0  0  0  0  0  0  0  0
    2.1216   -0.0430    0.6736 C   0  0  2  0  0  0  0  0  0  0  0  0
    1.5590    1.2708    1.0868 C   0  0  0  0  0  0  0  0  0  0  0  0
    0.0714    1.2108    1.1615 C   0  0  0  0  0  0  0  0  0  0  0  0
   -0.6048    0.5500    0.0237 C   0  0  1  0  0  0  0  0  0  0  0  0
    0.1105   -0.7046   -0.4686 C   0  0  1  0  0  0  0  0  0  0  0  0
   -0.6300   -1.1902   -1.6834 C   0  0  0  0  0  0  0  0  0  0  0  0
   -1.9229   -1.8329   -1.1650 C   0  0  0  0  0  0  0  0  0  0  0  0
   -2.6812   -0.7168   -0.5104 C   0  0  0  0  0  0  0  0  0  0  0  0
   -4.0053   -0.6894   -0.7194 C   0  0  0  0  0  0  0  0  0  0  0  0
   -4.8523    0.3426   -0.1393 C   0  0  0  0  0  0  0  0  0  0  0  0
   -6.1042    0.2470   -0.1595 O   0  0  0  0  0  0  0  0  0  0  0  0
   -4.2299    1.5290    0.4874 C   0  0  0  0  0  0  0  0  0  0  0  0
   -2.7863    1.6262    0.0430 C   0  0  0  0  0  0  0  0  0  0  0  0
   -2.0471    0.3125    0.3232 C   0  0  2  0  0  0  0  0  0  0  0  0
   -2.2726    0.0127    1.7943 C   0  0  0  0  0  0  0  0  0  0  0  0
    1.5159   -0.3239   -0.7108 C   0  0  2  0  0  0  0  0  0  0  0  0
    2.4222   -1.3609   -1.2349 C   0  0  0  0  0  0  0  0  0  0  0  0
    3.7773   -0.6924   -0.9823 C   0  0  0  0  0  0  0  0  0  0  0  0
    3.5717   -0.0645    0.3799 C   0  0  2  0  0  0  0  0  0  0  0  0
    4.2070   -0.9294    1.3013 O   0  0  0  0  0  0  0  0  0  0  0  0
    4.2254    1.2351    0.4984 C   0  0  0  0  0  0  0  0  0  0  0  0
    4.7766    2.2855    0.5929 C   0  0  0  0  0  0  0  0  0  0  0  0
    0.8070   -0.9627    2.1721 H   0  0  0  0  0  0  0  0  0  0  0  0
    2.5478   -1.1364    2.4523 H   0  0  0  0  0  0  0  0  0  0  0  0
    1.7435   -2.1333    1.2280 H   0  0  0  0  0  0  0  0  0  0  0  0
    1.9225    2.0512    0.3653 H   0  0  0  0  0  0  0  0  0  0  0  0
    1.9425    1.5565    2.0942 H   0  0  0  0  0  0  0  0  0  0  0  0
   -0.2956    2.2797    1.1965 H   0  0  0  0  0  0  0  0  0  0  0  0
   -0.2221    0.7983    2.1654 H   0  0  0  0  0  0  0  0  0  0  0  0
   -0.5681    1.2609   -0.8535 H   0  0  0  0  0  0  0  0  0  0  0  0
   -0.0001   -1.4813    0.3146 H   0  0  0  0  0  0  0  0  0  0  0  0
   -0.9514   -0.2882   -2.2533 H   0  0  0  0  0  0  0  0  0  0  0  0
   -0.0490   -1.8921   -2.3002 H   0  0  0  0  0  0  0  0  0  0  0  0
   -1.6397   -2.5297   -0.3501 H   0  0  0  0  0  0  0  0  0  0  0  0
   -2.5054   -2.2869   -1.9641 H   0  0  0  0  0  0  0  0  0  0  0  0
   -4.4808   -1.4472   -1.3346 H   0  0  0  0  0  0  0  0  0  0  0  0
   -4.2968    1.5060    1.5953 H   0  0  0  0  0  0  0  0  0  0  0  0
   -4.7334    2.4499    0.1289 H   0  0  0  0  0  0  0  0  0  0  0  0
   -2.2840    2.4811    0.5330 H   0  0  0  0  0  0  0  0  0  0  0  0
   -2.8003    1.7395   -1.0570 H   0  0  0  0  0  0  0  0  0  0  0  0
   -1.5823   -0.7373    2.1945 H   0  0  0  0  0  0  0  0  0  0  0  0
   -2.2471    0.9860    2.3297 H   0  0  0  0  0  0  0  0  0  0  0  0
   -3.3006   -0.3990    1.9132 H   0  0  0  0  0  0  0  0  0  0  0  0
    1.5742    0.5835   -1.3255 H   0  0  0  0  0  0  0  0  0  0  0  0
    2.3387   -1.5444   -2.3263 H   0  0  0  0  0  0  0  0  0  0  0  0
    2.4351   -2.2992   -0.6838 H   0  0  0  0  0  0  0  0  0  0  0  0
    4.5959   -1.4085   -1.0210 H   0  0  0  0  0  0  0  0  0  0  0  0
    3.8705    0.1378   -1.7176 H   0  0  0  0  0  0  0  0  0  0  0  0
    4.9214   -1.4528    0.8583 H   0  0  0  0  0  0  0  0  0  0  0  0
    5.2863    3.2205    0.6846 H   0  0  0  0  0  0  0  0  0  0  0  0
  2  1  1  1
  2  3  1  0
  3  4  1  0
  4  5  1  0
  5  6  1  0
  6  7  1  0
  7  8  1  0
  8  9  1  0
  9 10  2  0
 10 11  1  0
 11 12  2  0
 11 13  1  0
 13 14  1  0
 14 15  1  0
 15 16  1  1
  6 17  1  0
 17 18  1  0
 18 19  1  0
 19 20  1  0
 20 21  1  0
 20 22  1  6
 22 23  3  0
 17  2  1  0
 20  2  1  0
 15  5  1  0
 15  9  1  0
  1 24  1  0
  1 25  1  0
  1 26  1  0
  3 27  1  0
  3 28  1  0
  4 29  1  0
  4 30  1  0
  5 31  1  6
  6 32  1  1
  7 33  1  0
  7 34  1  0
  8 35  1  0
  8 36  1  0
 10 37  1  0
 13 38  1  0
 13 39  1  0
 14 40  1  0
 14 41  1  0
 16 42  1  0
 16 43  1  0
 16 44  1  0
 17 45  1  6
 18 46  1  0
 18 47  1  0
 19 48  1  0
 19 49  1  0
 21 50  1  0
 23 51  1  0
M  END
$$$$
[H]OC(=O)[C@@]([H])(N([H])C(=O)/C([H])=C(\[H])c1c([H])c([H])c(-c2c([H])c([H])c([H])c(OC([H])([H])[H])c2[H])c([H])c1[H])C([H])([H])c1c([H])c([H])c([H])c([H])c1[H]
     RDKit          3D

 53 55  0  0  0  0  0  0  0  0999 V2000
    9.8900    1.6288   -0.6213 C   0  0  0  0  0  0  0  0  0  0  0  0
    8.4824    1.7283   -0.5607 O   0  0  0  0  0  0  0  0  0  0  0  0
    7.7585    0.6014   -0.2037 C   0  0  0  0  0  0  0  0  0  0  0  0
    8.4035   -0.5830    0.0833 C   0  0  0  0  0  0  0  0  0  0  0  0
    7.6721   -1.6979    0.4375 C   0  0  0  0  0  0  0  0  0  0  0  0
    6.2784   -1.6211    0.5039 C   0  0  0  0  0  0  0  0  0  0  0  0
    5.6083   -0.4502    0.2221 C   0  0  0  0  0  0  0  0  0  0  0  0
    6.3617    0.6497   -0.1294 C   0  0  0  0  0  0  0  0  0  0  0  0
    4.1596   -0.3141    0.2764 C   0  0  0  0  0  0  0  0  0  0  0  0
    3.3602   -1.3919   -0.0296 C   0  0  0  0  0  0  0  0  0  0  0  0
    1.9865   -1.3062    0.0093 C   0  0  0  0  0  0  0  0  0  0  0  0
    1.3367   -0.1339    0.3576 C   0  0  0  0  0  0  0  0  0  0  0  0
   -0.1081   -0.1106    0.3799 C   0  0  0  0  0  0  0  0  0  0  0  0
   -0.7638    0.9773    0.7032 C   0  0  0  0  0  0  0  0  0  0  0  0
   -2.1966    1.0119    0.7287 C   0  0  0  0  0  0  0  0  0  0  0  0
   -2.7725    2.1059    1.0529 O   0  0  0  0  0  0  0  0  0  0  0  0
   -3.0112   -0.0814    0.4198 N   0  0  0  0  0  0  0  0  0  0  0  0
   -4.4813    0.0508    0.4746 C   0  0  1  0  0  0  0  0  0  0  0  0
   -5.0442   -0.1247   -0.9075 C   0  0  0  0  0  0  0  0  0  0  0  0
   -6.5044   -0.0214   -1.0240 C   0  0  0  0  0  0  0  0  0  0  0  0
   -7.0881    1.2338   -1.1809 C   0  0  0  0  0  0  0  0  0  0  0  0
   -8.4481    1.4042   -1.3260 C   0  0  0  0  0  0  0  0  0  0  0  0
   -9.2953    0.3170   -1.3210 C   0  0  0  0  0  0  0  0  0  0  0  0
   -8.7413   -0.9393   -1.1668 C   0  0  0  0  0  0  0  0  0  0  0  0
   -7.3777   -1.0893   -1.0229 C   0  0  0  0  0  0  0  0  0  0  0  0
   -5.0363   -0.8272    1.5070 C   0  0  0  0  0  0  0  0  0  0  0  0
   -6.3882   -0.8046    1.7882 O   0  0  0  0  0  0  0  0  0  0  0  0
   -4.3224   -1.6308    2.1817 O   0  0  0  0  0  0  0  0  0  0  0  0
    2.1054    0.9458    0.6644 C   0  0  0  0  0  0  0  0  0  0  0  0
    3.5100    0.8458    0.6211 C   0  0  0  0  0  0  0  0  0  0  0  0
   10.3620    2.5831   -0.9372 H   0  0  0  0  0  0  0  0  0  0  0  0
   10.2493    1.3454    0.3902 H   0  0  0  0  0  0  0  0  0  0  0  0
   10.1360    0.7945   -1.2995 H   0  0  0  0  0  0  0  0  0  0  0  0
    9.4968   -0.6184    0.0245 H   0  0  0  0  0  0  0  0  0  0  0  0
    8.1931   -2.6241    0.6608 H   0  0  0  0  0  0  0  0  0  0  0  0
    5.6970   -2.4810    0.7783 H   0  0  0  0  0  0  0  0  0  0  0  0
    5.8857    1.6058   -0.3640 H   0  0  0  0  0  0  0  0  0  0  0  0
    3.8510   -2.3308   -0.3083 H   0  0  0  0  0  0  0  0  0  0  0  0
    1.3714   -2.1591   -0.2328 H   0  0  0  0  0  0  0  0  0  0  0  0
   -0.6603   -1.0412    0.1153 H   0  0  0  0  0  0  0  0  0  0  0  0
   -0.2085    1.8926    0.9632 H   0  0  0  0  0  0  0  0  0  0  0  0
   -2.5939   -0.9907    0.1510 H   0  0  0  0  0  0  0  0  0  0  0  0
   -4.6889    1.0934    0.7878 H   0  0  0  0  0  0  0  0  0  0  0  0
   -4.6330    0.6808   -1.5902 H   0  0  0  0  0  0  0  0  0  0  0  0
   -4.6802   -1.0949   -1.3406 H   0  0  0  0  0  0  0  0  0  0  0  0
   -6.4004    2.0878   -1.1821 H   0  0  0  0  0  0  0  0  0  0  0  0
   -8.8913    2.3806   -1.4469 H   0  0  0  0  0  0  0  0  0  0  0  0
  -10.3734    0.4325   -1.4346 H   0  0  0  0  0  0  0  0  0  0  0  0
   -9.4282   -1.7853   -1.1656 H   0  0  0  0  0  0  0  0  0  0  0  0
   -6.9589   -2.0842   -0.9027 H   0  0  0  0  0  0  0  0  0  0  0  0
   -6.8388   -1.6790    2.0218 H   0  0  0  0  0  0  0  0  0  0  0  0
    1.6681    1.9022    0.9478 H   0  0  0  0  0  0  0  0  0  0  0  0
    4.1114    1.7166    0.8688 H   0  0  0  0  0  0  0  0  0  0  0  0
  1  2  1  0
  2  3  1  0
  3  4  2  0
  4  5  1  0
  5  6  2  0
  6  7  1  0
  7  8  2  0
  7  9  1  0
  9 10  2  0
 10 11  1  0
 11 12  2  0
 12 13  1  0
 13 14  2  0
 14 15  1  0
 15 16  2  0
 15 17  1  0
 17 18  1  0
 18 19  1  0
 19 20  1  0
 20 21  2  0
 21 22  1  0
 22 23  2  0
 23 24  1  0
 24 25  2  0
 18 26  1  0
 26 27  1  0
 26 28  2  0
 12 29  1  0
 29 30  2  0
  8  3  1  0
 30  9  1  0
 25 20  1  0
  1 31  1  0
  1 32  1  0
  1 33  1  0
  4 34  1  0
  5 35  1  0
  6 36  1  0
  8 37  1  0
 10 38  1  0
 11 39  1  0
 13 40  1  0
 14 41  1  0
 17 42  1  0
 18 43  1  1
 19 44  1  0
 19 45  1  0
 21 46  1  0
 22 47  1  0
 23 48  1  0
 24 49  1  0
 25 50  1  0
 27 51  1  0
 29 52  1  0
 30 53  1  0
M  END
$$$$
[H]c1c([H])c([H])c([C@@]([H])(c2c([H])c([H])c(C(F)(F)F)c([H])c2[H])N([H])C(=O)c2c([H])c([H])c(=O)n([H])c2[H])c([H])c1[H]
     RDKit          3D

 42 44  0  0  0  0  0  0  0  0999 V2000
   -4.4157   -4.0728   -1.2039 F   0  0  0  0  0  0  0  0  0  0  0  0
   -4.8931   -2.8733   -0.7772 C   0  0  0  0  0  0  0  0  0  0  0  0
   -5.4550   -2.1492   -1.8409 F   0  0  0  0  0  0  0  0  0  0  0  0
   -5.8229   -2.9492    0.2148 F   0  0  0  0  0  0  0  0  0  0  0  0
   -3.7418   -2.0445   -0.3068 C   0  0  0  0  0  0  0  0  0  0  0  0
   -3.5710   -1.6365    0.9875 C   0  0  0  0  0  0  0  0  0  0  0  0
   -2.4980   -0.8663    1.3887 C   0  0  0  0  0  0  0  0  0  0  0  0
   -1.5587   -0.4951    0.4333 C   0  0  0  0  0  0  0  0  0  0  0  0
   -1.6994   -0.8943   -0.8962 C   0  0  0  0  0  0  0  0  0  0  0  0
   -2.7821   -1.6547   -1.2291 C   0  0  0  0  0  0  0  0  0  0  0  0
   -0.4103    0.3151    0.8489 C   0  0  1  0  0  0  0  0  0  0  0  0
    0.8246   -0.1040    0.2349 N   0  0  0  0  0  0  0  0  0  0  0  0
    2.0102   -0.1639    1.0041 C   0  0  0  0  0  0  0  0  0  0  0  0
    2.0120    0.1454    2.2506 O   0  0  0  0  0  0  0  0  0  0  0  0
    3.2428   -0.5895    0.3434 C   0  0  0  0  0  0  0  0  0  0  0  0
    3.3831   -0.2865   -1.0088 C   0  0  0  0  0  0  0  0  0  0  0  0
    4.5533   -0.7036   -1.6312 C   0  0  0  0  0  0  0  0  0  0  0  0
    5.5327   -1.3873   -0.9407 C   0  0  0  0  0  0  0  0  0  0  0  0
    6.6108   -1.7722   -1.5066 O   0  0  0  0  0  0  0  0  0  0  0  0
    5.3611   -1.6617    0.3617 N   0  0  0  0  0  0  0  0  0  0  0  0
    4.2370   -1.2671    0.9811 C   0  0  0  0  0  0  0  0  0  0  0  0
   -0.5818    1.7588    0.5144 C   0  0  0  0  0  0  0  0  0  0  0  0
   -1.0588    2.6303    1.4931 C   0  0  0  0  0  0  0  0  0  0  0  0
   -1.2154    3.9570    1.2053 C   0  0  0  0  0  0  0  0  0  0  0  0
   -0.9014    4.4100   -0.0477 C   0  0  0  0  0  0  0  0  0  0  0  0
   -0.4362    3.5635   -1.0078 C   0  0  0  0  0  0  0  0  0  0  0  0
   -0.2687    2.1996   -0.7295 C   0  0  0  0  0  0  0  0  0  0  0  0
   -4.3153   -1.9295    1.7384 H   0  0  0  0  0  0  0  0  0  0  0  0
   -2.3906   -0.5568    2.4249 H   0  0  0  0  0  0  0  0  0  0  0  0
   -0.9483   -0.5905   -1.6017 H   0  0  0  0  0  0  0  0  0  0  0  0
   -2.9202   -1.9775   -2.2503 H   0  0  0  0  0  0  0  0  0  0  0  0
   -0.2919    0.2585    1.9406 H   0  0  0  0  0  0  0  0  0  0  0  0
    0.8898   -0.3819   -0.7777 H   0  0  0  0  0  0  0  0  0  0  0  0
    2.6203    0.2536   -1.5719 H   0  0  0  0  0  0  0  0  0  0  0  0
    4.6748   -0.4701   -2.6798 H   0  0  0  0  0  0  0  0  0  0  0  0
    6.0654   -2.1709    0.9120 H   0  0  0  0  0  0  0  0  0  0  0  0
    4.1271   -1.5070    2.0296 H   0  0  0  0  0  0  0  0  0  0  0  0
   -1.2889    2.1949    2.4678 H   0  0  0  0  0  0  0  0  0  0  0  0
   -1.5830    4.6108    1.9959 H   0  0  0  0  0  0  0  0  0  0  0  0
   -1.0238    5.4712   -0.2766 H   0  0  0  0  0  0  0  0  0  0  0  0
   -0.1794    3.8714   -2.0035 H   0  0  0  0  0  0  0  0  0  0  0  0
    0.1069    1.5159   -1.4833 H   0  0  0  0  0  0  0  0  0  0  0  0
  1  2  1  0
  2  3  1  0
  2  4  1  0
  2  5  1  0
  5  6  2  0
  6  7  1  0
  7  8  2  0
  8  9  1  0
  9 10  2  0
  8 11  1  0
 11 12  1  0
 12 13  1  0
 13 14  2  0
 13 15  1  0
 15 16  1  0
 16 17  2  0
 17 18  1  0
 18 19  2  0
 18 20  1  0
 20 21  1  0
 11 22  1  0
 22 23  2  0
 23 24  1  0
 24 25  2  0
 25 26  1  0
 26 27  2  0
 10  5  1  0
 21 15  2  0
 27 22  1  0
  6 28  1  0
  7 29  1  0
  9 30  1  0
 10 31  1  0
 11 32  1  1
 12 33  1  0
 16 34  1  0
 17 35  1  0
 20 36  1  0
 21 37  1  0
 23 38  1  0
 24 39  1  0
 25 40  1  0
 26 41  1  0
 27 42  1  0
M  END
$$$$
[H]c1c([H])c([H])c(C([H])([H])[C@@]2([H])C(=O)N([H])[C@@]([H])([C@@]([H])(C([H])([H])[H])C([H])([H])C([H])([H])[H])C(=O)N([H])[C@@]([H])(C([H])(C([H])([H])[H])C([H])([H])[H])C(=O)N([H])[C@@]([H])(C([H])([H])C(=O)N([H])[H])C(=O)N([H])[C@@]([H])([C@@]([H])(C([H])([H])[H])C([H])([H])C([H])([H])[H])C(=O)N2[H])c([H])c1[H]
     RDKit          3D

 88 89  0  0  0  0  0  0  0  0999 V2000
    5.7212    2.8857    0.0084 C   0  0  0  0  0  0  0  0  0  0  0  0
    4.5181    2.2478    0.7101 C   0  0  0  0  0  0  0  0  0  0  0  0
    3.4141    1.9736   -0.2548 C   0  0  2  0  0  0  0  0  0  0  0  0
    2.9811    3.3070   -0.9059 C   0  0  0  0  0  0  0  0  0  0  0  0
    2.2213    1.3550    0.4264 C   0  0  2  0  0  0  0  0  0  0  0  0
    1.6911    2.2772    1.4480 N   0  0  0  0  0  0  0  0  0  0  0  0
    0.3910    2.2720    1.9554 C   0  0  0  0  0  0  0  0  0  0  0  0
    0.2461    2.3537    3.2192 O   0  0  0  0  0  0  0  0  0  0  0  0
   -0.8759    2.1798    1.1724 C   0  0  2  0  0  0  0  0  0  0  0  0
   -1.2458    3.6546    0.9272 C   0  0  0  0  0  0  0  0  0  0  0  0
   -2.4797    3.8217    0.1630 C   0  0  0  0  0  0  0  0  0  0  0  0
   -2.5261    3.8957   -1.2132 C   0  0  0  0  0  0  0  0  0  0  0  0
   -3.7251    4.0584   -1.8981 C   0  0  0  0  0  0  0  0  0  0  0  0
   -4.9109    4.1515   -1.2232 C   0  0  0  0  0  0  0  0  0  0  0  0
   -4.8884    4.0800    0.1522 C   0  0  0  0  0  0  0  0  0  0  0  0
   -3.6822    3.9168    0.8292 C   0  0  0  0  0  0  0  0  0  0  0  0
   -1.9537    1.6399    1.9954 N   0  0  0  0  0  0  0  0  0  0  0  0
   -2.6714    0.4664    1.7741 C   0  0  0  0  0  0  0  0  0  0  0  0
   -3.5272    0.0817    2.5714 O   0  0  0  0  0  0  0  0  0  0  0  0
   -2.4541   -0.4181    0.5452 C   0  0  1  0  0  0  0  0  0  0  0  0
   -1.3332   -1.2148    0.8533 N   0  0  0  0  0  0  0  0  0  0  0  0
   -0.8962   -2.5121    0.9253 C   0  0  0  0  0  0  0  0  0  0  0  0
   -0.7965   -2.9618    2.1539 O   0  0  0  0  0  0  0  0  0  0  0  0
   -0.5049   -3.5232   -0.0529 C   0  0  2  0  0  0  0  0  0  0  0  0
    0.1121   -4.7756    0.5126 C   0  0  0  0  0  0  0  0  0  0  0  0
   -0.7467   -5.5712    1.3894 C   0  0  0  0  0  0  0  0  0  0  0  0
   -0.2106   -6.6743    2.1261 N   0  0  0  0  0  0  0  0  0  0  0  0
   -1.9700   -5.3428    1.5454 O   0  0  0  0  0  0  0  0  0  0  0  0
    0.2686   -3.1123   -1.1894 N   0  0  0  0  0  0  0  0  0  0  0  0
    0.9861   -1.9805   -1.5102 C   0  0  0  0  0  0  0  0  0  0  0  0
    0.4367   -1.2605   -2.4466 O   0  0  0  0  0  0  0  0  0  0  0  0
    2.2568   -1.4338   -0.9961 C   0  0  1  0  0  0  0  0  0  0  0  0
    2.3311   -1.1795    0.4076 N   0  0  0  0  0  0  0  0  0  0  0  0
    2.5747    0.0645    1.0063 C   0  0  0  0  0  0  0  0  0  0  0  0
    3.1503    0.1110    2.1576 O   0  0  0  0  0  0  0  0  0  0  0  0
    3.4663   -2.2128   -1.4678 C   0  0  0  0  0  0  0  0  0  0  0  0
    3.4597   -3.6651   -1.0606 C   0  0  0  0  0  0  0  0  0  0  0  0
    4.7275   -1.6141   -0.8841 C   0  0  0  0  0  0  0  0  0  0  0  0
   -3.7611   -1.0086    0.1970 C   0  0  1  0  0  0  0  0  0  0  0  0
   -4.7637    0.1717   -0.0412 C   0  0  0  0  0  0  0  0  0  0  0  0
   -3.8171   -1.7197   -1.1513 C   0  0  0  0  0  0  0  0  0  0  0  0
   -3.4817   -0.8013   -2.3019 C   0  0  0  0  0  0  0  0  0  0  0  0
    6.1903    2.1456   -0.6629 H   0  0  0  0  0  0  0  0  0  0  0  0
    6.4455    3.1083    0.8296 H   0  0  0  0  0  0  0  0  0  0  0  0
    5.4561    3.8345   -0.4670 H   0  0  0  0  0  0  0  0  0  0  0  0
    4.3088    2.8673    1.5662 H   0  0  0  0  0  0  0  0  0  0  0  0
    4.9286    1.2673    1.0910 H   0  0  0  0  0  0  0  0  0  0  0  0
    3.7923    1.3555   -1.0615 H   0  0  0  0  0  0  0  0  0  0  0  0
    1.9267    3.2448   -1.1897 H   0  0  0  0  0  0  0  0  0  0  0  0
    3.0743    4.1029   -0.1402 H   0  0  0  0  0  0  0  0  0  0  0  0
    3.6722    3.4973   -1.7254 H   0  0  0  0  0  0  0  0  0  0  0  0
    1.3482    1.2748   -0.2931 H   0  0  0  0  0  0  0  0  0  0  0  0
    2.3879    2.9918    1.7984 H   0  0  0  0  0  0  0  0  0  0  0  0
   -0.7495    1.6488    0.2316 H   0  0  0  0  0  0  0  0  0  0  0  0
   -0.3921    4.1639    0.4037 H   0  0  0  0  0  0  0  0  0  0  0  0
   -1.2812    4.1327    1.9352 H   0  0  0  0  0  0  0  0  0  0  0  0
   -1.5701    3.8199   -1.7441 H   0  0  0  0  0  0  0  0  0  0  0  0
   -3.7422    4.1142   -2.9745 H   0  0  0  0  0  0  0  0  0  0  0  0
   -5.8547    4.2794   -1.7564 H   0  0  0  0  0  0  0  0  0  0  0  0
   -5.8309    4.1547    0.6781 H   0  0  0  0  0  0  0  0  0  0  0  0
   -3.7036    3.8648    1.9091 H   0  0  0  0  0  0  0  0  0  0  0  0
   -2.1501    2.2744    2.8390 H   0  0  0  0  0  0  0  0  0  0  0  0
   -2.1629    0.3004   -0.2629 H   0  0  0  0  0  0  0  0  0  0  0  0
   -0.5076   -0.5252    1.1720 H   0  0  0  0  0  0  0  0  0  0  0  0
   -1.5305   -3.9158   -0.4083 H   0  0  0  0  0  0  0  0  0  0  0  0
    0.4147   -5.4676   -0.3292 H   0  0  0  0  0  0  0  0  0  0  0  0
    1.0525   -4.4971    1.0481 H   0  0  0  0  0  0  0  0  0  0  0  0
   -0.8036   -7.4543    2.4578 H   0  0  0  0  0  0  0  0  0  0  0  0
    0.8205   -6.7243    2.3555 H   0  0  0  0  0  0  0  0  0  0  0  0
    0.2509   -3.8860   -1.9467 H   0  0  0  0  0  0  0  0  0  0  0  0
    2.4162   -0.4200   -1.4728 H   0  0  0  0  0  0  0  0  0  0  0  0
    2.1924   -2.0129    1.0771 H   0  0  0  0  0  0  0  0  0  0  0  0
    3.5844   -2.1927   -2.5710 H   0  0  0  0  0  0  0  0  0  0  0  0
    3.5938   -3.7738    0.0362 H   0  0  0  0  0  0  0  0  0  0  0  0
    4.3616   -4.1181   -1.5234 H   0  0  0  0  0  0  0  0  0  0  0  0
    2.5949   -4.2239   -1.4564 H   0  0  0  0  0  0  0  0  0  0  0  0
    5.5966   -2.3123   -1.0319 H   0  0  0  0  0  0  0  0  0  0  0  0
    4.9755   -0.7333   -1.5281 H   0  0  0  0  0  0  0  0  0  0  0  0
    4.6611   -1.3736    0.1772 H   0  0  0  0  0  0  0  0  0  0  0  0
   -4.2453   -1.6282    0.9707 H   0  0  0  0  0  0  0  0  0  0  0  0
   -4.2350    1.0562   -0.4209 H   0  0  0  0  0  0  0  0  0  0  0  0
   -5.3177    0.3700    0.9049 H   0  0  0  0  0  0  0  0  0  0  0  0
   -5.5296   -0.1086   -0.7854 H   0  0  0  0  0  0  0  0  0  0  0  0
   -3.1856   -2.5996   -1.2105 H   0  0  0  0  0  0  0  0  0  0  0  0
   -4.8990   -2.0663   -1.2456 H   0  0  0  0  0  0  0  0  0  0  0  0
   -3.2491    0.2148   -1.9742 H   0  0  0  0  0  0  0  0  0  0  0  0
   -2.5541   -1.1682   -2.8305 H   0  0  0  0  0  0  0  0  0  0  0  0
   -4.2834   -0.8664   -3.0436 H   0  0  0  0  0  0  0  0  0  0  0  0
  1  2  1  0
  2  3  1  0
  3  4  1  0
  3  5  1  0
  5  6  1  0
  6  7  1  0
  7  8  2  0
  7  9  1  0
  9 10  1  0
 10 11  1  0
 11 12  2  0
 12 13  1  0
 13 14  2  0
 14 15  1  0
 15 16  2  0
  9 17  1  0
 17 18  1  0
 18 19  2  0
 18 20  1  0
 20 21  1  0
 21 22  1  0
 22 23  2  0
 22 24  1  0
 24 25  1  0
 25 26  1  0
 26 27  1  0
 26 28  2  0
 24 29  1  0
 29 30  1  0
 30 31  2  0
 30 32  1  0
 32 33  1  0
 33 34  1  0
 34 35  2  0
 32 36  1  0
 36 37  1  0
 36 38  1  0
 20 39  1  0
 39 40  1  0
 39 41  1  0
 41 42  1  0
 34  5  1  0
 16 11  1  0
  1 43  1  0
  1 44  1  0
  1 45  1  0
  2 46  1  0
  2 47  1  0
  3 48  1  6
  4 49  1  0
  4 50  1  0
  4 51  1  0
  5 52  1  6
  6 53  1  0
  9 54  1  6
 10 55  1  0
 10 56  1  0
 12 57  1  0
 13 58  1  0
 14 59  1  0
 15 60  1  0
 16 61  1  0
 17 62  1  0
 20 63  1  6
 21 64  1  0
 24 65  1  6
 25 66  1  0
 25 67  1  0
 27 68  1  0
 27 69  1  0
 29 70  1  0
 32 71  1  6
 33 72  1  0
 36 73  1  0
 37 74  1  0
 37 75  1  0
 37 76  1  0
 38 77  1  0
 38 78  1  0
 38 79  1  0
 39 80  1  1
 40 81  1  0
 40 82  1  0
 40 83  1  0
 41 84  1  0
 41 85  1  0
 42 86  1  0
 42 87  1  0
 42 88  1  0
M  END
$$$$
[H]O[C@@]1([H])C([H])([H])C([H])([H])[C@]2([H])[C@]1(C([H])([H])[H])C([H])([H])C([H])([H])[C@]1([H])[C@]3(C([H])([H])[H])C(=C([H])C([H])([H])[C@@]21[H])C([H])([H])[C@]([H])(O[H])C([H])([H])C3([H])[H]
     RDKit          3D

 51 54  0  0  0  0  0  0  0  0999 V2000
   -2.5976    0.5940   -1.3344 C   0  0  0  0  0  0  0  0  0  0  0  0
   -2.5834    0.4783    0.1562 C   0  0  2  0  0  0  0  0  0  0  0  0
   -1.8903    1.6382    0.7690 C   0  0  0  0  0  0  0  0  0  0  0  0
   -0.4243    1.6637    0.6530 C   0  0  0  0  0  0  0  0  0  0  0  0
    0.2775    0.3700    0.5912 C   0  0  1  0  0  0  0  0  0  0  0  0
   -0.5121   -0.7444   -0.0674 C   0  0  1  0  0  0  0  0  0  0  0  0
    0.1494   -2.0656    0.0756 C   0  0  0  0  0  0  0  0  0  0  0  0
    1.6047   -1.9712    0.2835 C   0  0  0  0  0  0  0  0  0  0  0  0
    2.3130   -0.8502    0.2110 C   0  0  0  0  0  0  0  0  0  0  0  0
    3.7756   -0.9645    0.4536 C   0  0  0  0  0  0  0  0  0  0  0  0
    4.4871    0.3474    0.2348 C   0  0  2  0  0  0  0  0  0  0  0  0
    5.7240    0.2620    0.8821 O   0  0  0  0  0  0  0  0  0  0  0  0
    3.6595    1.3995    0.9856 C   0  0  0  0  0  0  0  0  0  0  0  0
    2.3975    1.6451    0.1788 C   0  0  0  0  0  0  0  0  0  0  0  0
    1.6192    0.4093   -0.0986 C   0  0  2  0  0  0  0  0  0  0  0  0
    1.3281    0.3887   -1.6063 C   0  0  0  0  0  0  0  0  0  0  0  0
   -1.8310   -0.7711    0.6331 C   0  0  2  0  0  0  0  0  0  0  0  0
   -2.7538   -1.8529    0.2571 C   0  0  0  0  0  0  0  0  0  0  0  0
   -4.0748   -1.3093    0.8081 C   0  0  0  0  0  0  0  0  0  0  0  0
   -3.9513    0.2024    0.6943 C   0  0  2  0  0  0  0  0  0  0  0  0
   -4.9317    0.6197   -0.2045 O   0  0  0  0  0  0  0  0  0  0  0  0
   -3.5698    1.0828   -1.6363 H   0  0  0  0  0  0  0  0  0  0  0  0
   -2.5518   -0.3467   -1.8789 H   0  0  0  0  0  0  0  0  0  0  0  0
   -1.8112    1.3032   -1.6416 H   0  0  0  0  0  0  0  0  0  0  0  0
   -2.3152    2.5753    0.3153 H   0  0  0  0  0  0  0  0  0  0  0  0
   -2.1894    1.6914    1.8537 H   0  0  0  0  0  0  0  0  0  0  0  0
   -0.1544    2.2520   -0.2717 H   0  0  0  0  0  0  0  0  0  0  0  0
   -0.0216    2.2346    1.5420 H   0  0  0  0  0  0  0  0  0  0  0  0
    0.4821    0.0253    1.6465 H   0  0  0  0  0  0  0  0  0  0  0  0
   -0.6585   -0.4349   -1.1258 H   0  0  0  0  0  0  0  0  0  0  0  0
   -0.0523   -2.6792   -0.8412 H   0  0  0  0  0  0  0  0  0  0  0  0
   -0.3024   -2.6573    0.9128 H   0  0  0  0  0  0  0  0  0  0  0  0
    2.1123   -2.9260    0.5155 H   0  0  0  0  0  0  0  0  0  0  0  0
    4.2410   -1.8093   -0.0699 H   0  0  0  0  0  0  0  0  0  0  0  0
    3.8874   -1.1947    1.5539 H   0  0  0  0  0  0  0  0  0  0  0  0
    4.5787    0.5918   -0.8336 H   0  0  0  0  0  0  0  0  0  0  0  0
    6.3669   -0.2451    0.3461 H   0  0  0  0  0  0  0  0  0  0  0  0
    3.4256    0.9842    1.9684 H   0  0  0  0  0  0  0  0  0  0  0  0
    4.2344    2.3340    0.9971 H   0  0  0  0  0  0  0  0  0  0  0  0
    1.8345    2.4342    0.7233 H   0  0  0  0  0  0  0  0  0  0  0  0
    2.7502    2.1557   -0.7662 H   0  0  0  0  0  0  0  0  0  0  0  0
    1.1832   -0.6312   -1.9797 H   0  0  0  0  0  0  0  0  0  0  0  0
    2.2910    0.7478   -2.0747 H   0  0  0  0  0  0  0  0  0  0  0  0
    0.5675    1.1136   -1.8922 H   0  0  0  0  0  0  0  0  0  0  0  0
   -1.7560   -0.6894    1.7138 H   0  0  0  0  0  0  0  0  0  0  0  0
   -2.8890   -2.0464   -0.8036 H   0  0  0  0  0  0  0  0  0  0  0  0
   -2.5828   -2.8178    0.7740 H   0  0  0  0  0  0  0  0  0  0  0  0
   -4.1064   -1.5365    1.9012 H   0  0  0  0  0  0  0  0  0  0  0  0
   -4.9360   -1.7060    0.2650 H   0  0  0  0  0  0  0  0  0  0  0  0
   -4.1388    0.7079    1.6671 H   0  0  0  0  0  0  0  0  0  0  0  0
   -5.7050   -0.0025   -0.1511 H   0  0  0  0  0  0  0  0  0  0  0  0
  2  1  1  6
  2  3  1  0
  3  4  1  0
  4  5  1  0
  5  6  1  0
  6  7  1  0
  7  8  1  0
  8  9  2  0
  9 10  1  0
 10 11  1  0
 11 12  1  0
 11 13  1  0
 13 14  1  0
 14 15  1  0
 15 16  1  6
  6 17  1  0
 17 18  1  0
 18 19  1  0
 19 20  1  0
 20 21  1  0
 17  2  1  0
 20  2  1  0
 15  5  1  0
 15  9  1  0
  1 22  1  0
  1 23  1  0
  1 24  1  0
  3 25  1  0
  3 26  1  0
  4 27  1  0
  4 28  1  0
  5 29  1  1
  6 30  1  6
  7 31  1  0
  7 32  1  0
  8 33  1  0
 10 34  1  0
 10 35  1  0
 11 36  1  6
 12 37  1  0
 13 38  1  0
 13 39  1  0
 14 40  1  0
 14 41  1  0
 16 42  1  0
 16 43  1  0
 16 44  1  0
 17 45  1  1
 18 46  1  0
 18 47  1  0
 19 48  1  0
 19 49  1  0
 20 50  1  1
 21 51  1  0
M  END
$$$$
[H]c1nc(Cl)c([H])c([H])c1N1C([H])([H])C2([H])C([H])([H])N([H])C([H])([H])C([H])(C1([H])[H])C2([H])[H]
     RDKit          3D

 32 34  0  0  0  0  0  0  0  0999 V2000
    6.4111    0.0567   -0.5905 Cl  0  0  0  0  0  0  0  0  0  0  0  0
    4.6713    0.0303   -0.3709 C   0  0  0  0  0  0  0  0  0  0  0  0
    3.9609   -1.1532   -0.4395 C   0  0  0  0  0  0  0  0  0  0  0  0
    2.5966   -1.1834   -0.2687 C   0  0  0  0  0  0  0  0  0  0  0  0
    1.8746   -0.0239   -0.0196 C   0  0  0  0  0  0  0  0  0  0  0  0
    2.6365    1.1425    0.0401 C   0  0  0  0  0  0  0  0  0  0  0  0
    3.9673    1.1454   -0.1302 N   0  0  0  0  0  0  0  0  0  0  0  0
    0.4622   -0.0219    0.1618 N   0  0  0  0  0  0  0  0  0  0  0  0
   -0.1703    1.2386    0.4134 C   0  0  0  0  0  0  0  0  0  0  0  0
   -1.6182    1.1504    0.7627 C   0  0  0  0  0  0  0  0  0  0  0  0
   -2.4457    1.5066   -0.4366 C   0  0  0  0  0  0  0  0  0  0  0  0
   -2.9465    0.4458   -1.1943 N   0  0  0  0  0  0  0  0  0  0  0  0
   -2.3623   -0.8200   -1.1126 C   0  0  0  0  0  0  0  0  0  0  0  0
   -1.7002   -1.1959    0.1611 C   0  0  0  0  0  0  0  0  0  0  0  0
   -2.0463   -0.2025    1.2621 C   0  0  0  0  0  0  0  0  0  0  0  0
   -0.2149   -1.2904    0.0769 C   0  0  0  0  0  0  0  0  0  0  0  0
    4.5389   -2.0693   -0.6373 H   0  0  0  0  0  0  0  0  0  0  0  0
    2.0707   -2.1173   -0.3273 H   0  0  0  0  0  0  0  0  0  0  0  0
    2.1469    2.0967    0.2317 H   0  0  0  0  0  0  0  0  0  0  0  0
   -0.0661    1.9474   -0.4526 H   0  0  0  0  0  0  0  0  0  0  0  0
    0.4162    1.7279    1.2464 H   0  0  0  0  0  0  0  0  0  0  0  0
   -1.8067    1.8724    1.5938 H   0  0  0  0  0  0  0  0  0  0  0  0
   -3.2878    2.1407   -0.0848 H   0  0  0  0  0  0  0  0  0  0  0  0
   -1.8293    2.1755   -1.1037 H   0  0  0  0  0  0  0  0  0  0  0  0
   -3.9355    0.4966   -1.4700 H   0  0  0  0  0  0  0  0  0  0  0  0
   -3.1604   -1.5899   -1.3259 H   0  0  0  0  0  0  0  0  0  0  0  0
   -1.6405   -0.9459   -1.9710 H   0  0  0  0  0  0  0  0  0  0  0  0
   -2.0666   -2.1914    0.5522 H   0  0  0  0  0  0  0  0  0  0  0  0
   -1.5819   -0.4845    2.2149 H   0  0  0  0  0  0  0  0  0  0  0  0
   -3.1423   -0.1920    1.3565 H   0  0  0  0  0  0  0  0  0  0  0  0
    0.1394   -1.9029    0.9374 H   0  0  0  0  0  0  0  0  0  0  0  0
    0.1289   -1.7891   -0.8628 H   0  0  0  0  0  0  0  0  0  0  0  0
  1  2  1  0
  2  3  2  0
  3  4  1  0
  4  5  2  0
  5  6  1  0
  6  7  2  0
  5  8  1  0
  8  9  1  0
  9 10  1  0
 10 11  1  0
 11 12  1  0
 12 13  1  0
 13 14  1  0
 14 15  1  0
 14 16  1  0
  7  2  1  0
 16  8  1  0
 15 10  1  0
  3 17  1  0
  4 18  1  0
  6 19  1  0
  9 20  1  0
  9 21  1  0
 10 22  1  0
 11 23  1  0
 11 24  1  0
 12 25  1  0
 13 26  1  0
 13 27  1  0
 14 28  1  0
 15 29  1  0
 15 30  1  0
 16 31  1  0
 16 32  1  0
M  END
$$$$
[H]N=C(N([H])[H])N([H])C([H])([H])C([H])([H])C([H])([H])[C@@]([H])(C(=O)c1nc2c([H])c([H])c([H])c([H])c2s1)N([H])C(=O)[C@@]1([H])N(C(=O)[C@@]([H])(N([H])C(=O)OC(C([H])([H])[H])(C([H])([H])[H])C([H])([H])[H])C([H])([H])c2c([H])c([H])c(O[H])c([H])c2[H])C([H])([H])C([H])([H])C1([H])[H]
     RDKit          3D

 87 90  0  0  0  0  0  0  0  0999 V2000
    6.3996   -4.2692   -0.4188 C   0  0  0  0  0  0  0  0  0  0  0  0
    6.0276   -3.5922   -1.6819 C   0  0  0  0  0  0  0  0  0  0  0  0
    6.0210   -4.6452   -2.7842 C   0  0  0  0  0  0  0  0  0  0  0  0
    7.0747   -2.5643   -2.0569 C   0  0  0  0  0  0  0  0  0  0  0  0
    4.7748   -2.9009   -1.6523 O   0  0  0  0  0  0  0  0  0  0  0  0
    4.5701   -1.9081   -0.6908 C   0  0  0  0  0  0  0  0  0  0  0  0
    5.5232   -1.7546    0.1263 O   0  0  0  0  0  0  0  0  0  0  0  0
    3.3776   -1.1075   -0.6328 N   0  0  0  0  0  0  0  0  0  0  0  0
    3.2246   -0.1003    0.3694 C   0  0  1  0  0  0  0  0  0  0  0  0
    4.2306    1.0215    0.3802 C   0  0  0  0  0  0  0  0  0  0  0  0
    4.0119    1.9363    1.5541 C   0  0  0  0  0  0  0  0  0  0  0  0
    4.6718    1.5918    2.7369 C   0  0  0  0  0  0  0  0  0  0  0  0
    4.4755    2.3863    3.8287 C   0  0  0  0  0  0  0  0  0  0  0  0
    3.6550    3.5015    3.7928 C   0  0  0  0  0  0  0  0  0  0  0  0
    3.5274    4.2415    4.9947 O   0  0  0  0  0  0  0  0  0  0  0  0
    3.0147    3.8396    2.6388 C   0  0  0  0  0  0  0  0  0  0  0  0
    3.2023    3.0378    1.5059 C   0  0  0  0  0  0  0  0  0  0  0  0
    1.8220    0.2990    0.5492 C   0  0  0  0  0  0  0  0  0  0  0  0
    1.2179   -0.0622    1.6029 O   0  0  0  0  0  0  0  0  0  0  0  0
    1.1189    1.0857   -0.4269 N   0  0  0  0  0  0  0  0  0  0  0  0
    1.6037    1.2517   -1.8023 C   0  0  0  0  0  0  0  0  0  0  0  0
    0.9755    2.5108   -2.3123 C   0  0  0  0  0  0  0  0  0  0  0  0
    0.2362    3.0785   -1.1777 C   0  0  0  0  0  0  0  0  0  0  0  0
   -0.0309    1.8997   -0.2405 C   0  0  1  0  0  0  0  0  0  0  0  0
   -1.3732    1.4358   -0.3507 C   0  0  0  0  0  0  0  0  0  0  0  0
   -2.2375    2.4296   -0.3510 O   0  0  0  0  0  0  0  0  0  0  0  0
   -2.0026    0.1825   -0.4564 N   0  0  0  0  0  0  0  0  0  0  0  0
   -3.4555    0.0888   -0.5644 C   0  0  1  0  0  0  0  0  0  0  0  0
   -3.9433   -1.1103   -1.1882 C   0  0  0  0  0  0  0  0  0  0  0  0
   -3.8818   -2.4953   -0.7869 C   0  0  0  0  0  0  0  0  0  0  0  0
   -2.6320   -3.1446   -0.4041 C   0  0  0  0  0  0  0  0  0  0  0  0
   -2.2010   -2.8358    0.9429 N   0  0  0  0  0  0  0  0  0  0  0  0
   -2.9982   -3.4513    1.9698 C   0  0  0  0  0  0  0  0  0  0  0  0
   -3.8815   -2.8179    2.8562 N   0  0  0  0  0  0  0  0  0  0  0  0
   -2.8533   -4.7461    2.0427 N   0  0  0  0  0  0  0  0  0  0  0  0
   -4.1439    0.5690    0.6678 C   0  0  0  0  0  0  0  0  0  0  0  0
   -3.7467    0.4212    1.8341 O   0  0  0  0  0  0  0  0  0  0  0  0
   -5.4073    1.2949    0.5069 C   0  0  0  0  0  0  0  0  0  0  0  0
   -6.0131    1.6439   -0.6021 N   0  0  0  0  0  0  0  0  0  0  0  0
   -7.1494    2.2974   -0.5746 C   0  0  0  0  0  0  0  0  0  0  0  0
   -7.8759    2.7278   -1.7053 C   0  0  0  0  0  0  0  0  0  0  0  0
   -9.0466    3.4041   -1.5176 C   0  0  0  0  0  0  0  0  0  0  0  0
   -9.6022    3.7189   -0.2994 C   0  0  0  0  0  0  0  0  0  0  0  0
   -8.8792    3.2947    0.8186 C   0  0  0  0  0  0  0  0  0  0  0  0
   -7.6706    2.5929    0.6505 C   0  0  0  0  0  0  0  0  0  0  0  0
   -6.4879    1.9115    1.6924 S   0  0  0  0  0  0  0  0  0  0  0  0
    7.0241   -5.1898   -0.6819 H   0  0  0  0  0  0  0  0  0  0  0  0
    7.1076   -3.6259    0.1875 H   0  0  0  0  0  0  0  0  0  0  0  0
    5.5655   -4.6739    0.1710 H   0  0  0  0  0  0  0  0  0  0  0  0
    5.0770   -5.1907   -2.8796 H   0  0  0  0  0  0  0  0  0  0  0  0
    6.8254   -5.3955   -2.5565 H   0  0  0  0  0  0  0  0  0  0  0  0
    6.3157   -4.1753   -3.7371 H   0  0  0  0  0  0  0  0  0  0  0  0
    7.2974   -2.6810   -3.1544 H   0  0  0  0  0  0  0  0  0  0  0  0
    7.9973   -2.6197   -1.4499 H   0  0  0  0  0  0  0  0  0  0  0  0
    6.5927   -1.5463   -1.9960 H   0  0  0  0  0  0  0  0  0  0  0  0
    2.6445   -1.2893   -1.3464 H   0  0  0  0  0  0  0  0  0  0  0  0
    3.5781   -0.6747    1.3405 H   0  0  0  0  0  0  0  0  0  0  0  0
    5.2778    0.6260    0.4903 H   0  0  0  0  0  0  0  0  0  0  0  0
    4.2765    1.6624   -0.4928 H   0  0  0  0  0  0  0  0  0  0  0  0
    5.2954    0.7138    2.7436 H   0  0  0  0  0  0  0  0  0  0  0  0
    4.9932    2.1302    4.7534 H   0  0  0  0  0  0  0  0  0  0  0  0
    2.7878    3.9810    5.6251 H   0  0  0  0  0  0  0  0  0  0  0  0
    2.3531    4.7026    2.5931 H   0  0  0  0  0  0  0  0  0  0  0  0
    2.7378    3.3033    0.5858 H   0  0  0  0  0  0  0  0  0  0  0  0
    2.6768    1.3644   -1.8704 H   0  0  0  0  0  0  0  0  0  0  0  0
    1.2439    0.3626   -2.4145 H   0  0  0  0  0  0  0  0  0  0  0  0
    0.3402    2.2766   -3.2155 H   0  0  0  0  0  0  0  0  0  0  0  0
    1.7503    3.2415   -2.6582 H   0  0  0  0  0  0  0  0  0  0  0  0
    0.8240    3.8272   -0.6376 H   0  0  0  0  0  0  0  0  0  0  0  0
   -0.7170    3.5884   -1.4439 H   0  0  0  0  0  0  0  0  0  0  0  0
    0.0678    2.3746    0.8012 H   0  0  0  0  0  0  0  0  0  0  0  0
   -1.3877   -0.6380   -0.4885 H   0  0  0  0  0  0  0  0  0  0  0  0
   -3.6667    0.9609   -1.3041 H   0  0  0  0  0  0  0  0  0  0  0  0
   -5.0747   -0.8884   -1.4783 H   0  0  0  0  0  0  0  0  0  0  0  0
   -3.5612   -1.0473   -2.3125 H   0  0  0  0  0  0  0  0  0  0  0  0
   -4.2610   -3.1339   -1.6939 H   0  0  0  0  0  0  0  0  0  0  0  0
   -4.7099   -2.7124   -0.0170 H   0  0  0  0  0  0  0  0  0  0  0  0
   -2.6447   -4.2753   -0.5532 H   0  0  0  0  0  0  0  0  0  0  0  0
   -1.7858   -2.8537   -1.1198 H   0  0  0  0  0  0  0  0  0  0  0  0
   -1.3981   -2.2467    1.1580 H   0  0  0  0  0  0  0  0  0  0  0  0
   -3.6068   -2.4895    3.8145 H   0  0  0  0  0  0  0  0  0  0  0  0
   -4.8647   -2.6690    2.5450 H   0  0  0  0  0  0  0  0  0  0  0  0
   -3.3854   -5.2576    2.7487 H   0  0  0  0  0  0  0  0  0  0  0  0
   -7.5430    2.5413   -2.7166 H   0  0  0  0  0  0  0  0  0  0  0  0
   -9.5929    3.7279   -2.4041 H   0  0  0  0  0  0  0  0  0  0  0  0
  -10.5104    4.2451   -0.1430 H   0  0  0  0  0  0  0  0  0  0  0  0
   -9.1824    3.4553    1.8239 H   0  0  0  0  0  0  0  0  0  0  0  0
  1  2  1  0
  2  3  1  0
  2  4  1  0
  2  5  1  0
  5  6  1  0
  6  7  2  0
  6  8  1  0
  8  9  1  0
  9 10  1  0
 10 11  1  0
 11 12  2  0
 12 13  1  0
 13 14  2  0
 14 15  1  0
 14 16  1  0
 16 17  2  0
  9 18  1  0
 18 19  2  0
 18 20  1  0
 20 21  1  0
 21 22  1  0
 22 23  1  0
 23 24  1  0
 24 25  1  0
 25 26  2  0
 25 27  1  0
 27 28  1  0
 28 29  1  0
 29 30  1  0
 30 31  1  0
 31 32  1  0
 32 33  1  0
 33 34  1  0
 33 35  2  3
 28 36  1  0
 36 37  2  0
 36 38  1  0
 38 39  2  0
 39 40  1  0
 40 41  2  0
 41 42  1  0
 42 43  2  0
 43 44  1  0
 44 45  2  0
 45 46  1  0
 17 11  1  0
 24 20  1  0
 46 38  1  0
 45 40  1  0
  1 47  1  0
  1 48  1  0
  1 49  1  0
  3 50  1  0
  3 51  1  0
  3 52  1  0
  4 53  1  0
  4 54  1  0
  4 55  1  0
  8 56  1  0
  9 57  1  1
 10 58  1  0
 10 59  1  0
 12 60  1  0
 13 61  1  0
 15 62  1  0
 16 63  1  0
 17 64  1  0
 21 65  1  0
 21 66  1  0
 22 67  1  0
 22 68  1  0
 23 69  1  0
 23 70  1  0
 24 71  1  1
 27 72  1  0
 28 73  1  6
 29 74  1  0
 29 75  1  0
 30 76  1  0
 30 77  1  0
 31 78  1  0
 31 79  1  0
 32 80  1  0
 34 81  1  0
 34 82  1  0
 35 83  1  0
 41 84  1  0
 42 85  1  0
 43 86  1  0
 44 87  1  0
M  END
$$$$
[H]c1nc(Oc2c([H])c([H])c(N([H])C(=O)N([H])c3c([H])c([H])c(C([H])([H])N4C([H])([H])C([H])([H])N(C([H])([H])C([H])([H])[H])C([H])([H])C4([H])[H])c(C(F)(F)F)c3[H])c([H])c2[H])c([H])c(N([H])C([H])([H])[H])n1
     RDKit          3D

 68 71  0  0  0  0  0  0  0  0999 V2000
  -10.2990   -0.3201   -0.2443 C   0  0  0  0  0  0  0  0  0  0  0  0
   -9.0487    0.5002   -0.4280 C   0  0  0  0  0  0  0  0  0  0  0  0
   -8.1793   -0.0359   -1.4572 N   0  0  0  0  0  0  0  0  0  0  0  0
   -7.0305    0.8062   -1.5517 C   0  0  0  0  0  0  0  0  0  0  0  0
   -5.7154    0.1130   -1.2911 C   0  0  0  0  0  0  0  0  0  0  0  0
   -5.7379   -0.8228   -0.2229 N   0  0  0  0  0  0  0  0  0  0  0  0
   -5.1553   -0.4373    1.0060 C   0  0  0  0  0  0  0  0  0  0  0  0
   -3.7153   -0.2169    1.0542 C   0  0  0  0  0  0  0  0  0  0  0  0
   -2.9459   -0.4458   -0.0457 C   0  0  0  0  0  0  0  0  0  0  0  0
   -1.5554   -0.2549    0.0222 C   0  0  0  0  0  0  0  0  0  0  0  0
   -0.9188    0.1543    1.1522 C   0  0  0  0  0  0  0  0  0  0  0  0
    0.4451    0.3547    1.3623 N   0  0  0  0  0  0  0  0  0  0  0  0
    1.4499   -0.2261    0.5465 C   0  0  0  0  0  0  0  0  0  0  0  0
    1.1958   -0.9699   -0.4220 O   0  0  0  0  0  0  0  0  0  0  0  0
    2.8063    0.0526    0.8476 N   0  0  0  0  0  0  0  0  0  0  0  0
    3.8841   -0.4730    0.1219 C   0  0  0  0  0  0  0  0  0  0  0  0
    5.0696    0.2695    0.1595 C   0  0  0  0  0  0  0  0  0  0  0  0
    6.1724   -0.1959   -0.5017 C   0  0  0  0  0  0  0  0  0  0  0  0
    6.1984   -1.3743   -1.2203 C   0  0  0  0  0  0  0  0  0  0  0  0
    7.3559   -1.8175   -1.8874 O   0  0  0  0  0  0  0  0  0  0  0  0
    8.4788   -0.9936   -1.7796 C   0  0  0  0  0  0  0  0  0  0  0  0
    9.3306   -1.0781   -0.6992 C   0  0  0  0  0  0  0  0  0  0  0  0
   10.4383   -0.2312   -0.6411 C   0  0  0  0  0  0  0  0  0  0  0  0
   11.3426   -0.2777    0.4449 N   0  0  0  0  0  0  0  0  0  0  0  0
   12.4721    0.6190    0.4560 C   0  0  0  0  0  0  0  0  0  0  0  0
   10.6148    0.6290   -1.6528 N   0  0  0  0  0  0  0  0  0  0  0  0
    9.7904    0.7181   -2.7086 C   0  0  0  0  0  0  0  0  0  0  0  0
    8.7293   -0.1014   -2.7527 N   0  0  0  0  0  0  0  0  0  0  0  0
    5.0337   -2.0940   -1.2508 C   0  0  0  0  0  0  0  0  0  0  0  0
    3.8935   -1.6380   -0.5818 C   0  0  0  0  0  0  0  0  0  0  0  0
   -1.7503    0.3770    2.2572 C   0  0  0  0  0  0  0  0  0  0  0  0
   -3.1090    0.2069    2.2445 C   0  0  0  0  0  0  0  0  0  0  0  0
   -3.9076    0.4692    3.4596 C   0  0  0  0  0  0  0  0  0  0  0  0
   -3.0267    0.8724    4.4765 F   0  0  0  0  0  0  0  0  0  0  0  0
   -4.5531   -0.6222    3.9660 F   0  0  0  0  0  0  0  0  0  0  0  0
   -4.7451    1.5847    3.3219 F   0  0  0  0  0  0  0  0  0  0  0  0
   -6.9874   -1.4884    0.0062 C   0  0  0  0  0  0  0  0  0  0  0  0
   -7.8513   -1.4181   -1.2341 C   0  0  0  0  0  0  0  0  0  0  0  0
  -10.0056   -1.2236    0.3376 H   0  0  0  0  0  0  0  0  0  0  0  0
  -11.0156    0.2828    0.3494 H   0  0  0  0  0  0  0  0  0  0  0  0
  -10.7451   -0.5533   -1.2099 H   0  0  0  0  0  0  0  0  0  0  0  0
   -9.3902    1.5064   -0.7967 H   0  0  0  0  0  0  0  0  0  0  0  0
   -8.5282    0.6942    0.5188 H   0  0  0  0  0  0  0  0  0  0  0  0
   -6.9427    1.2787   -2.5729 H   0  0  0  0  0  0  0  0  0  0  0  0
   -7.0852    1.6803   -0.8419 H   0  0  0  0  0  0  0  0  0  0  0  0
   -5.3787   -0.3639   -2.2424 H   0  0  0  0  0  0  0  0  0  0  0  0
   -4.9782    0.9378   -1.0987 H   0  0  0  0  0  0  0  0  0  0  0  0
   -5.3596   -1.2873    1.7313 H   0  0  0  0  0  0  0  0  0  0  0  0
   -5.7610    0.3966    1.4141 H   0  0  0  0  0  0  0  0  0  0  0  0
   -3.3300   -0.7898   -1.0118 H   0  0  0  0  0  0  0  0  0  0  0  0
   -0.9627   -0.4277   -0.8741 H   0  0  0  0  0  0  0  0  0  0  0  0
    0.7597    0.9698    2.1611 H   0  0  0  0  0  0  0  0  0  0  0  0
    3.0013    0.6928    1.6707 H   0  0  0  0  0  0  0  0  0  0  0  0
    5.0877    1.2125    0.7209 H   0  0  0  0  0  0  0  0  0  0  0  0
    7.0847    0.3965   -0.4601 H   0  0  0  0  0  0  0  0  0  0  0  0
    9.1416   -1.7902    0.0899 H   0  0  0  0  0  0  0  0  0  0  0  0
   11.2010   -0.9471    1.2284 H   0  0  0  0  0  0  0  0  0  0  0  0
   12.6067    1.1140   -0.5277 H   0  0  0  0  0  0  0  0  0  0  0  0
   13.4237    0.0623    0.6491 H   0  0  0  0  0  0  0  0  0  0  0  0
   12.3043    1.3858    1.2464 H   0  0  0  0  0  0  0  0  0  0  0  0
    9.9776    1.4417   -3.5159 H   0  0  0  0  0  0  0  0  0  0  0  0
    5.0003   -3.0327   -1.8043 H   0  0  0  0  0  0  0  0  0  0  0  0
    3.0130   -2.2945   -0.6480 H   0  0  0  0  0  0  0  0  0  0  0  0
   -1.3081    0.7006    3.1773 H   0  0  0  0  0  0  0  0  0  0  0  0
   -7.5417   -1.0573    0.8567 H   0  0  0  0  0  0  0  0  0  0  0  0
   -6.7530   -2.5420    0.2777 H   0  0  0  0  0  0  0  0  0  0  0  0
   -7.2335   -1.7544   -2.0856 H   0  0  0  0  0  0  0  0  0  0  0  0
   -8.7522   -2.0077   -1.0717 H   0  0  0  0  0  0  0  0  0  0  0  0
  1  2  1  0
  2  3  1  0
  3  4  1  0
  4  5  1  0
  5  6  1  0
  6  7  1  0
  7  8  1  0
  8  9  2  0
  9 10  1  0
 10 11  2  0
 11 12  1  0
 12 13  1  0
 13 14  2  0
 13 15  1  0
 15 16  1  0
 16 17  2  0
 17 18  1  0
 18 19  2  0
 19 20  1  0
 20 21  1  0
 21 22  2  0
 22 23  1  0
 23 24  1  0
 24 25  1  0
 23 26  2  0
 26 27  1  0
 27 28  2  0
 19 29  1  0
 29 30  2  0
 11 31  1  0
 31 32  2  0
 32 33  1  0
 33 34  1  0
 33 35  1  0
 33 36  1  0
  6 37  1  0
 37 38  1  0
 38  3  1  0
 32  8  1  0
 30 16  1  0
 28 21  1  0
  1 39  1  0
  1 40  1  0
  1 41  1  0
  2 42  1  0
  2 43  1  0
  4 44  1  0
  4 45  1  0
  5 46  1  0
  5 47  1  0
  7 48  1  0
  7 49  1  0
  9 50  1  0
 10 51  1  0
 12 52  1  0
 15 53  1  0
 17 54  1  0
 18 55  1  0
 22 56  1  0
 24 57  1  0
 25 58  1  0
 25 59  1  0
 25 60  1  0
 27 61  1  0
 29 62  1  0
 30 63  1  0
 31 64  1  0
 37 65  1  0
 37 66  1  0
 38 67  1  0
 38 68  1  0
M  END
$$$$
[H]OC(=O)[C@@]1([H])N(C(=O)[C@@]([H])(N([H])C(=O)[C@@]([H])(S[H])C([H])([H])c2c([H])c([H])c([H])c([H])c2[H])C([H])([H])C([H])(C([H])([H])[H])C([H])([H])[H])C([H])([H])C([H])([H])C1([H])[H]
     RDKit          3D

 55 56  0  0  0  0  0  0  0  0999 V2000
    3.6581   -2.4429   -0.0611 C   0  0  0  0  0  0  0  0  0  0  0  0
    2.2359   -2.8232   -0.0534 C   0  0  0  0  0  0  0  0  0  0  0  0
    1.9839   -3.4783    1.3212 C   0  0  0  0  0  0  0  0  0  0  0  0
    1.1686   -1.9183   -0.4456 C   0  0  0  0  0  0  0  0  0  0  0  0
    0.8420   -0.6614    0.1316 C   0  0  2  0  0  0  0  0  0  0  0  0
   -0.4592   -0.2009   -0.4879 N   0  0  0  0  0  0  0  0  0  0  0  0
   -1.6317   -0.1453    0.2698 C   0  0  0  0  0  0  0  0  0  0  0  0
   -1.6140   -0.4870    1.5071 O   0  0  0  0  0  0  0  0  0  0  0  0
   -2.9328    0.2943   -0.2757 C   0  0  1  0  0  0  0  0  0  0  0  0
   -3.5128   -0.7814   -1.6198 S   0  0  0  0  0  0  0  0  0  0  0  0
   -3.9691    0.2692    0.8220 C   0  0  0  0  0  0  0  0  0  0  0  0
   -5.3047    0.7060    0.3194 C   0  0  0  0  0  0  0  0  0  0  0  0
   -5.6456    2.0423    0.3608 C   0  0  0  0  0  0  0  0  0  0  0  0
   -6.8834    2.4809   -0.1013 C   0  0  0  0  0  0  0  0  0  0  0  0
   -7.7846    1.5723   -0.6085 C   0  0  0  0  0  0  0  0  0  0  0  0
   -7.4642    0.2291   -0.6594 C   0  0  0  0  0  0  0  0  0  0  0  0
   -6.2412   -0.1647   -0.1974 C   0  0  0  0  0  0  0  0  0  0  0  0
    1.6071    0.5528    0.3370 C   0  0  0  0  0  0  0  0  0  0  0  0
    0.8049    1.4156    1.1133 O   0  0  0  0  0  0  0  0  0  0  0  0
    2.7586    1.2129    0.0994 N   0  0  0  0  0  0  0  0  0  0  0  0
    3.0985    2.4539    0.9402 C   0  0  0  0  0  0  0  0  0  0  0  0
    4.5157    2.0027    1.3362 C   0  0  0  0  0  0  0  0  0  0  0  0
    5.0320    1.2015    0.1248 C   0  0  0  0  0  0  0  0  0  0  0  0
    3.8497    1.2935   -0.7912 C   0  0  1  0  0  0  0  0  0  0  0  0
    3.8956    0.6733   -2.0707 C   0  0  0  0  0  0  0  0  0  0  0  0
    5.1249    0.5608   -2.7520 O   0  0  0  0  0  0  0  0  0  0  0  0
    2.9172    0.2042   -2.6667 O   0  0  0  0  0  0  0  0  0  0  0  0
    3.8101   -1.5910    0.6612 H   0  0  0  0  0  0  0  0  0  0  0  0
    4.2476   -3.3107    0.3908 H   0  0  0  0  0  0  0  0  0  0  0  0
    4.0769   -2.2072   -1.0450 H   0  0  0  0  0  0  0  0  0  0  0  0
    2.1826   -3.7553   -0.7430 H   0  0  0  0  0  0  0  0  0  0  0  0
    2.7298   -4.2989    1.3787 H   0  0  0  0  0  0  0  0  0  0  0  0
    2.2304   -2.7798    2.1447 H   0  0  0  0  0  0  0  0  0  0  0  0
    0.9910   -3.9300    1.3798 H   0  0  0  0  0  0  0  0  0  0  0  0
    1.2396   -1.8261   -1.6050 H   0  0  0  0  0  0  0  0  0  0  0  0
    0.1862   -2.5697   -0.4333 H   0  0  0  0  0  0  0  0  0  0  0  0
    0.4569   -0.9248    1.2242 H   0  0  0  0  0  0  0  0  0  0  0  0
   -0.4156    0.0557   -1.4647 H   0  0  0  0  0  0  0  0  0  0  0  0
   -2.8784    1.3358   -0.6814 H   0  0  0  0  0  0  0  0  0  0  0  0
   -2.3795   -1.4119   -2.1594 H   0  0  0  0  0  0  0  0  0  0  0  0
   -3.6405    0.9130    1.6879 H   0  0  0  0  0  0  0  0  0  0  0  0
   -4.1015   -0.7476    1.2427 H   0  0  0  0  0  0  0  0  0  0  0  0
   -4.9345    2.7480    0.7591 H   0  0  0  0  0  0  0  0  0  0  0  0
   -7.1289    3.5297   -0.0600 H   0  0  0  0  0  0  0  0  0  0  0  0
   -8.7457    1.9180   -0.9678 H   0  0  0  0  0  0  0  0  0  0  0  0
   -8.1610   -0.5067   -1.0551 H   0  0  0  0  0  0  0  0  0  0  0  0
   -6.0093   -1.2208   -0.2481 H   0  0  0  0  0  0  0  0  0  0  0  0
    2.4213    2.5406    1.7699 H   0  0  0  0  0  0  0  0  0  0  0  0
    3.1138    3.3013    0.2402 H   0  0  0  0  0  0  0  0  0  0  0  0
    5.1829    2.8773    1.4559 H   0  0  0  0  0  0  0  0  0  0  0  0
    4.4335    1.3723    2.2361 H   0  0  0  0  0  0  0  0  0  0  0  0
    5.3123    0.1839    0.4158 H   0  0  0  0  0  0  0  0  0  0  0  0
    5.9437    1.6820   -0.2979 H   0  0  0  0  0  0  0  0  0  0  0  0
    3.8773    2.4878   -1.0267 H   0  0  0  0  0  0  0  0  0  0  0  0
    5.9094    0.0733   -2.3366 H   0  0  0  0  0  0  0  0  0  0  0  0
  1  2  1  0
  2  3  1  0
  2  4  1  0
  4  5  1  0
  5  6  1  0
  6  7  1  0
  7  8  2  0
  7  9  1  0
  9 10  1  0
  9 11  1  0
 11 12  1  0
 12 13  2  0
 13 14  1  0
 14 15  2  0
 15 16  1  0
 16 17  2  0
  5 18  1  0
 18 19  2  0
 18 20  1  0
 20 21  1  0
 21 22  1  0
 22 23  1  0
 23 24  1  0
 24 25  1  0
 25 26  1  0
 25 27  2  0
 17 12  1  0
 24 20  1  0
  1 28  1  0
  1 29  1  0
  1 30  1  0
  2 31  1  0
  3 32  1  0
  3 33  1  0
  3 34  1  0
  4 35  1  0
  4 36  1  0
  5 37  1  1
  6 38  1  0
  9 39  1  6
 10 40  1  0
 11 41  1  0
 11 42  1  0
 13 43  1  0
 14 44  1  0
 15 45  1  0
 16 46  1  0
 17 47  1  0
 21 48  1  0
 21 49  1  0
 22 50  1  0
 22 51  1  0
 23 52  1  0
 23 53  1  0
 24 54  1  6
 26 55  1  0
M  END
$$$$
[H]c1c([H])c(N([H])C(=O)c2c(C([H])([H])[H])c(C(=O)C(=O)N([H])C3(C(=O)N([H])C([H])([H])[H])C([H])([H])C(F)(F)C3([H])[H])c3n2C([H])([H])C([H])([H])C3([H])[H])c([H])c(Cl)c1F
     RDKit          3D

 57 60  0  0  0  0  0  0  0  0999 V2000
   -8.4386   -1.1939    0.2424 C   0  0  0  0  0  0  0  0  0  0  0  0
   -7.3197   -0.2753    0.4895 N   0  0  0  0  0  0  0  0  0  0  0  0
   -6.0790   -0.4462   -0.1361 C   0  0  0  0  0  0  0  0  0  0  0  0
   -5.9530   -1.4428   -0.9314 O   0  0  0  0  0  0  0  0  0  0  0  0
   -4.8724    0.4133    0.0257 C   0  0  0  0  0  0  0  0  0  0  0  0
   -4.8572    1.5231   -1.0231 C   0  0  0  0  0  0  0  0  0  0  0  0
   -5.3139    2.4986    0.0310 C   0  0  0  0  0  0  0  0  0  0  0  0
   -6.6518    2.8500   -0.0719 F   0  0  0  0  0  0  0  0  0  0  0  0
   -4.4832    3.6230    0.0627 F   0  0  0  0  0  0  0  0  0  0  0  0
   -5.0021    1.4576    1.0728 C   0  0  0  0  0  0  0  0  0  0  0  0
   -3.7130   -0.4190   -0.0005 N   0  0  0  0  0  0  0  0  0  0  0  0
   -2.3422    0.0054    0.1220 C   0  0  0  0  0  0  0  0  0  0  0  0
   -2.1889    1.2188    0.2624 O   0  0  0  0  0  0  0  0  0  0  0  0
   -1.2964   -0.9591    0.0754 C   0  0  0  0  0  0  0  0  0  0  0  0
   -1.7496   -2.1987    0.0560 O   0  0  0  0  0  0  0  0  0  0  0  0
    0.1267   -0.8675    0.0523 C   0  0  0  0  0  0  0  0  0  0  0  0
    1.0061    0.1838   -0.0484 C   0  0  0  0  0  0  0  0  0  0  0  0
    0.6694    1.5887   -0.4053 C   0  0  0  0  0  0  0  0  0  0  0  0
    2.3248   -0.2286    0.1169 C   0  0  0  0  0  0  0  0  0  0  0  0
    3.4877    0.6360    0.1436 C   0  0  0  0  0  0  0  0  0  0  0  0
    3.4139    1.8797    0.3052 O   0  0  0  0  0  0  0  0  0  0  0  0
    4.7880    0.1003   -0.0175 N   0  0  0  0  0  0  0  0  0  0  0  0
    5.9742    0.8953   -0.0100 C   0  0  0  0  0  0  0  0  0  0  0  0
    7.1458    0.2760    0.4527 C   0  0  0  0  0  0  0  0  0  0  0  0
    8.3323    0.9493    0.4704 C   0  0  0  0  0  0  0  0  0  0  0  0
    8.4253    2.2480    0.0400 C   0  0  0  0  0  0  0  0  0  0  0  0
    9.5721    2.9411    0.0430 F   0  0  0  0  0  0  0  0  0  0  0  0
    7.2585    2.8487   -0.4156 C   0  0  0  0  0  0  0  0  0  0  0  0
    7.3047    4.5113   -0.9821 Cl  0  0  0  0  0  0  0  0  0  0  0  0
    6.0443    2.1951   -0.4467 C   0  0  0  0  0  0  0  0  0  0  0  0
    2.2373   -1.5448    0.3121 N   0  0  0  0  0  0  0  0  0  0  0  0
    3.1754   -2.6493    0.5634 C   0  0  0  0  0  0  0  0  0  0  0  0
    2.2775   -3.7780    1.0192 C   0  0  0  0  0  0  0  0  0  0  0  0
    0.9178   -3.4487    0.5033 C   0  0  0  0  0  0  0  0  0  0  0  0
    1.0022   -1.9756    0.2858 C   0  0  0  0  0  0  0  0  0  0  0  0
   -9.1042   -0.8281   -0.5502 H   0  0  0  0  0  0  0  0  0  0  0  0
   -9.0470   -1.3150    1.1620 H   0  0  0  0  0  0  0  0  0  0  0  0
   -7.9834   -2.1849   -0.0084 H   0  0  0  0  0  0  0  0  0  0  0  0
   -7.5428    0.4809    1.1671 H   0  0  0  0  0  0  0  0  0  0  0  0
   -3.8613    1.7087   -1.4463 H   0  0  0  0  0  0  0  0  0  0  0  0
   -5.6398    1.3194   -1.8010 H   0  0  0  0  0  0  0  0  0  0  0  0
   -5.8747    1.3707    1.7604 H   0  0  0  0  0  0  0  0  0  0  0  0
   -4.0931    1.7141    1.6625 H   0  0  0  0  0  0  0  0  0  0  0  0
   -3.8492   -1.4550   -0.1208 H   0  0  0  0  0  0  0  0  0  0  0  0
    0.4173    2.2187    0.4244 H   0  0  0  0  0  0  0  0  0  0  0  0
   -0.0866    1.6566   -1.2284 H   0  0  0  0  0  0  0  0  0  0  0  0
    1.5597    2.0923   -0.9307 H   0  0  0  0  0  0  0  0  0  0  0  0
    4.9563   -0.9242   -0.1692 H   0  0  0  0  0  0  0  0  0  0  0  0
    7.0634   -0.7699    0.7989 H   0  0  0  0  0  0  0  0  0  0  0  0
    9.2269    0.4409    0.8357 H   0  0  0  0  0  0  0  0  0  0  0  0
    5.1901    2.7255   -0.8325 H   0  0  0  0  0  0  0  0  0  0  0  0
    3.6721   -2.9207   -0.3835 H   0  0  0  0  0  0  0  0  0  0  0  0
    3.9060   -2.4070    1.3556 H   0  0  0  0  0  0  0  0  0  0  0  0
    2.2857   -3.8988    2.1204 H   0  0  0  0  0  0  0  0  0  0  0  0
    2.6998   -4.7245    0.6044 H   0  0  0  0  0  0  0  0  0  0  0  0
    0.0930   -3.7282    1.1574 H   0  0  0  0  0  0  0  0  0  0  0  0
    0.7888   -3.9869   -0.4670 H   0  0  0  0  0  0  0  0  0  0  0  0
  1  2  1  0
  2  3  1  0
  3  4  2  0
  3  5  1  0
  5  6  1  0
  6  7  1  0
  7  8  1  0
  7  9  1  0
  7 10  1  0
  5 11  1  0
 11 12  1  0
 12 13  2  0
 12 14  1  0
 14 15  2  0
 14 16  1  0
 16 17  1  0
 17 18  1  0
 17 19  2  0
 19 20  1  0
 20 21  2  0
 20 22  1  0
 22 23  1  0
 23 24  2  0
 24 25  1  0
 25 26  2  0
 26 27  1  0
 26 28  1  0
 28 29  1  0
 28 30  2  0
 19 31  1  0
 31 32  1  0
 32 33  1  0
 33 34  1  0
 34 35  1  0
 10  5  1  0
 35 16  2  0
 30 23  1  0
 35 31  1  0
  1 36  1  0
  1 37  1  0
  1 38  1  0
  2 39  1  0
  6 40  1  0
  6 41  1  0
 10 42  1  0
 10 43  1  0
 11 44  1  0
 18 45  1  0
 18 46  1  0
 18 47  1  0
 22 48  1  0
 24 49  1  0
 25 50  1  0
 30 51  1  0
 32 52  1  0
 32 53  1  0
 33 54  1  0
 33 55  1  0
 34 56  1  0
 34 57  1  0
M  END
$$$$
[H]O[C@@]1(C([H])([H])C([H])=C([H])[H])C([H])([H])C([H])([H])[C@]2([H])[C@]1(C([H])([H])[H])C([H])([H])C([H])([H])[C@]1([H])[C@]3(C([H])([H])[H])C(=C([H])C(=O)C([H])([H])C3([H])[H])C([H])([H])C([H])([H])[C@@]21[H]
     RDKit          3D

 56 59  0  0  0  0  0  0  0  0999 V2000
    1.6956    1.3850   -1.6364 C   0  0  0  0  0  0  0  0  0  0  0  0
    1.6410    0.1482   -0.8102 C   0  0  2  0  0  0  0  0  0  0  0  0
    0.8934   -0.9772   -1.4353 C   0  0  0  0  0  0  0  0  0  0  0  0
   -0.5631   -0.5846   -1.5822 C   0  0  0  0  0  0  0  0  0  0  0  0
   -1.1403   -0.2549   -0.2054 C   0  0  1  0  0  0  0  0  0  0  0  0
   -0.3501    0.8945    0.3669 C   0  0  1  0  0  0  0  0  0  0  0  0
   -0.9843    1.3975    1.6420 C   0  0  0  0  0  0  0  0  0  0  0  0
   -2.2679    2.0847    1.2238 C   0  0  0  0  0  0  0  0  0  0  0  0
   -3.1266    0.9896    0.6408 C   0  0  0  0  0  0  0  0  0  0  0  0
   -4.4004    0.9975    0.9782 C   0  0  0  0  0  0  0  0  0  0  0  0
   -5.2718   -0.0371    0.4430 C   0  0  0  0  0  0  0  0  0  0  0  0
   -6.4781    0.2464    0.2010 O   0  0  0  0  0  0  0  0  0  0  0  0
   -4.7135   -1.3709    0.2055 C   0  0  0  0  0  0  0  0  0  0  0  0
   -3.2512   -1.4094   -0.0457 C   0  0  0  0  0  0  0  0  0  0  0  0
   -2.6148   -0.0374   -0.2511 C   0  0  2  0  0  0  0  0  0  0  0  0
   -2.9514    0.3772   -1.6843 C   0  0  0  0  0  0  0  0  0  0  0  0
    1.0334    0.3664    0.5668 C   0  0  2  0  0  0  0  0  0  0  0  0
    1.9951    1.2536    1.2280 C   0  0  0  0  0  0  0  0  0  0  0  0
    3.3202    0.6380    0.8304 C   0  0  0  0  0  0  0  0  0  0  0  0
    3.0633   -0.2070   -0.4060 C   0  0  2  0  0  0  0  0  0  0  0  0
    3.9618    0.2049   -1.3856 O   0  0  0  0  0  0  0  0  0  0  0  0
    3.2331   -1.6585   -0.1634 C   0  0  0  0  0  0  0  0  0  0  0  0
    4.5837   -2.1129    0.2294 C   0  0  0  0  0  0  0  0  0  0  0  0
    5.6635   -1.3903    0.3794 C   0  0  0  0  0  0  0  0  0  0  0  0
    2.5939    1.3752   -2.3220 H   0  0  0  0  0  0  0  0  0  0  0  0
    1.7628    2.3258   -1.0801 H   0  0  0  0  0  0  0  0  0  0  0  0
    0.8277    1.4992   -2.3361 H   0  0  0  0  0  0  0  0  0  0  0  0
    1.2569   -1.2416   -2.4491 H   0  0  0  0  0  0  0  0  0  0  0  0
    0.9030   -1.8391   -0.7375 H   0  0  0  0  0  0  0  0  0  0  0  0
   -1.0841   -1.5116   -1.9519 H   0  0  0  0  0  0  0  0  0  0  0  0
   -0.7396    0.1951   -2.3188 H   0  0  0  0  0  0  0  0  0  0  0  0
   -0.8962   -1.1459    0.4293 H   0  0  0  0  0  0  0  0  0  0  0  0
   -0.2996    1.7528   -0.3374 H   0  0  0  0  0  0  0  0  0  0  0  0
   -0.2967    2.0567    2.1763 H   0  0  0  0  0  0  0  0  0  0  0  0
   -1.2923    0.5013    2.2443 H   0  0  0  0  0  0  0  0  0  0  0  0
   -2.0874    2.8835    0.4778 H   0  0  0  0  0  0  0  0  0  0  0  0
   -2.7194    2.5140    2.1292 H   0  0  0  0  0  0  0  0  0  0  0  0
   -4.8090    1.7696    1.6528 H   0  0  0  0  0  0  0  0  0  0  0  0
   -5.0178   -2.0602    1.0413 H   0  0  0  0  0  0  0  0  0  0  0  0
   -5.2331   -1.8019   -0.6993 H   0  0  0  0  0  0  0  0  0  0  0  0
   -2.9598   -2.1042   -0.8633 H   0  0  0  0  0  0  0  0  0  0  0  0
   -2.7685   -1.8497    0.8772 H   0  0  0  0  0  0  0  0  0  0  0  0
   -4.0165    0.6577   -1.8068 H   0  0  0  0  0  0  0  0  0  0  0  0
   -2.7336   -0.4035   -2.4124 H   0  0  0  0  0  0  0  0  0  0  0  0
   -2.3788    1.3229   -1.8762 H   0  0  0  0  0  0  0  0  0  0  0  0
    0.9846   -0.5984    1.0796 H   0  0  0  0  0  0  0  0  0  0  0  0
    1.9214    1.2518    2.3554 H   0  0  0  0  0  0  0  0  0  0  0  0
    1.9337    2.3237    0.9501 H   0  0  0  0  0  0  0  0  0  0  0  0
    4.0955    1.4079    0.6494 H   0  0  0  0  0  0  0  0  0  0  0  0
    3.6103   -0.0602    1.6490 H   0  0  0  0  0  0  0  0  0  0  0  0
    4.0165   -0.5069   -2.0775 H   0  0  0  0  0  0  0  0  0  0  0  0
    2.4505   -2.0377    0.5561 H   0  0  0  0  0  0  0  0  0  0  0  0
    2.9931   -2.2321   -1.1079 H   0  0  0  0  0  0  0  0  0  0  0  0
    4.7432   -3.2081    0.4333 H   0  0  0  0  0  0  0  0  0  0  0  0
    6.5970   -1.8447    0.6723 H   0  0  0  0  0  0  0  0  0  0  0  0
    5.6717   -0.3347    0.2199 H   0  0  0  0  0  0  0  0  0  0  0  0
  2  1  1  6
  2  3  1  0
  3  4  1  0
  4  5  1  0
  5  6  1  0
  6  7  1  0
  7  8  1  0
  8  9  1  0
  9 10  2  0
 10 11  1  0
 11 12  2  0
 11 13  1  0
 13 14  1  0
 14 15  1  0
 15 16  1  6
  6 17  1  0
 17 18  1  0
 18 19  1  0
 19 20  1  0
 20 21  1  6
 20 22  1  0
 22 23  1  0
 23 24  2  3
 17  2  1  0
 20  2  1  0
 15  5  1  0
 15  9  1  0
  1 25  1  0
  1 26  1  0
  1 27  1  0
  3 28  1  0
  3 29  1  0
  4 30  1  0
  4 31  1  0
  5 32  1  1
  6 33  1  6
  7 34  1  0
  7 35  1  0
  8 36  1  0
  8 37  1  0
 10 38  1  0
 13 39  1  0
 13 40  1  0
 14 41  1  0
 14 42  1  0
 16 43  1  0
 16 44  1  0
 16 45  1  0
 17 46  1  1
 18 47  1  0
 18 48  1  0
 19 49  1  0
 19 50  1  0
 21 51  1  0
 22 52  1  0
 22 53  1  0
 23 54  1  0
 24 55  1  0
 24 56  1  0
M  END
$$$$
[H]c1c([H])c([H])c(C([H])([H])[C@@]([H])(C(=O)N([H])[H])N([H])C(=O)[C@@]([H])(N([H])C(=O)[C@@]2([H])N(C(=O)[C@@]([H])(N([H])[H])C([H])([H])c3c([H])n([H])c4c([H])c([H])c([H])c([H])c34)C([H])([H])C([H])([H])C2([H])[H])C([H])([H])C([H])(C([H])([H])[H])C([H])([H])[H])c([H])c1[H]
     RDKit          3D

 81 84  0  0  0  0  0  0  0  0999 V2000
    0.4724    2.4539   -1.1357 C   0  0  0  0  0  0  0  0  0  0  0  0
   -0.8604    2.0172   -1.6206 C   0  0  0  0  0  0  0  0  0  0  0  0
   -0.6823    1.6601   -3.1092 C   0  0  0  0  0  0  0  0  0  0  0  0
   -1.4877    0.8499   -0.9748 C   0  0  0  0  0  0  0  0  0  0  0  0
   -1.7790    0.9078    0.4701 C   0  0  2  0  0  0  0  0  0  0  0  0
   -0.6292    1.0786    1.3078 N   0  0  0  0  0  0  0  0  0  0  0  0
    0.3975    0.0665    1.4753 C   0  0  0  0  0  0  0  0  0  0  0  0
    0.2220   -0.9634    0.8295 O   0  0  0  0  0  0  0  0  0  0  0  0
    1.4979    0.3323    2.3486 C   0  0  2  0  0  0  0  0  0  0  0  0
    2.0408    1.7590    2.3394 C   0  0  0  0  0  0  0  0  0  0  0  0
    3.2368    1.5972    3.2926 C   0  0  0  0  0  0  0  0  0  0  0  0
    3.3539    0.1077    3.5655 C   0  0  0  0  0  0  0  0  0  0  0  0
    2.6853   -0.4120    2.3464 N   0  0  0  0  0  0  0  0  0  0  0  0
    3.2835   -1.3866    1.5508 C   0  0  0  0  0  0  0  0  0  0  0  0
    2.7443   -1.8317    0.4784 O   0  0  0  0  0  0  0  0  0  0  0  0
    4.5940   -2.0092    1.8642 C   0  0  1  0  0  0  0  0  0  0  0  0
    4.6334   -3.2907    1.1124 N   0  0  0  0  0  0  0  0  0  0  0  0
    5.8096   -1.2799    1.4238 C   0  0  0  0  0  0  0  0  0  0  0  0
    5.9623   -1.0517   -0.0186 C   0  0  0  0  0  0  0  0  0  0  0  0
    6.6823   -1.8801   -0.8910 C   0  0  0  0  0  0  0  0  0  0  0  0
    6.6005   -1.4304   -2.1372 N   0  0  0  0  0  0  0  0  0  0  0  0
    5.8467   -0.3166   -2.1503 C   0  0  0  0  0  0  0  0  0  0  0  0
    5.4798    0.5161   -3.1855 C   0  0  0  0  0  0  0  0  0  0  0  0
    4.6997    1.6213   -2.9340 C   0  0  0  0  0  0  0  0  0  0  0  0
    4.2932    1.8835   -1.6458 C   0  0  0  0  0  0  0  0  0  0  0  0
    4.6652    1.0462   -0.6241 C   0  0  0  0  0  0  0  0  0  0  0  0
    5.4454   -0.0741   -0.8310 C   0  0  0  0  0  0  0  0  0  0  0  0
   -2.6795   -0.1799    0.9416 C   0  0  0  0  0  0  0  0  0  0  0  0
   -2.3671   -0.8011    1.9784 O   0  0  0  0  0  0  0  0  0  0  0  0
   -3.8636   -0.5508    0.2892 N   0  0  0  0  0  0  0  0  0  0  0  0
   -4.7465   -1.5989    0.7340 C   0  0  1  0  0  0  0  0  0  0  0  0
   -6.0920   -1.0434    1.1612 C   0  0  0  0  0  0  0  0  0  0  0  0
   -6.7816   -0.3277    0.0893 C   0  0  0  0  0  0  0  0  0  0  0  0
   -6.5346    1.0182   -0.0668 C   0  0  0  0  0  0  0  0  0  0  0  0
   -7.1202    1.7899   -1.0316 C   0  0  0  0  0  0  0  0  0  0  0  0
   -8.0029    1.1597   -1.8816 C   0  0  0  0  0  0  0  0  0  0  0  0
   -8.2753   -0.1768   -1.7589 C   0  0  0  0  0  0  0  0  0  0  0  0
   -7.6653   -0.9288   -0.7712 C   0  0  0  0  0  0  0  0  0  0  0  0
   -4.8438   -2.7285   -0.2028 C   0  0  0  0  0  0  0  0  0  0  0  0
   -5.6106   -3.8837    0.0260 N   0  0  0  0  0  0  0  0  0  0  0  0
   -4.1944   -2.6499   -1.2768 O   0  0  0  0  0  0  0  0  0  0  0  0
    0.4935    2.8892   -0.1334 H   0  0  0  0  0  0  0  0  0  0  0  0
    0.9700    3.1702   -1.8600 H   0  0  0  0  0  0  0  0  0  0  0  0
    1.1662    1.5712   -1.1321 H   0  0  0  0  0  0  0  0  0  0  0  0
   -1.5107    2.9233   -1.6482 H   0  0  0  0  0  0  0  0  0  0  0  0
   -1.6744    1.7883   -3.5870 H   0  0  0  0  0  0  0  0  0  0  0  0
   -0.0013    2.4216   -3.5268 H   0  0  0  0  0  0  0  0  0  0  0  0
   -0.2772    0.6426   -3.2307 H   0  0  0  0  0  0  0  0  0  0  0  0
   -2.4644    0.6705   -1.5048 H   0  0  0  0  0  0  0  0  0  0  0  0
   -0.8314   -0.0375   -1.1570 H   0  0  0  0  0  0  0  0  0  0  0  0
   -2.4149    1.8483    0.6231 H   0  0  0  0  0  0  0  0  0  0  0  0
   -0.5224    1.9856    1.8314 H   0  0  0  0  0  0  0  0  0  0  0  0
    1.0675    0.2275    3.4246 H   0  0  0  0  0  0  0  0  0  0  0  0
    2.3544    2.1066    1.3577 H   0  0  0  0  0  0  0  0  0  0  0  0
    1.3591    2.4777    2.7909 H   0  0  0  0  0  0  0  0  0  0  0  0
    4.1193    1.9832    2.7506 H   0  0  0  0  0  0  0  0  0  0  0  0
    3.0818    2.1729    4.2219 H   0  0  0  0  0  0  0  0  0  0  0  0
    2.6788   -0.1119    4.4404 H   0  0  0  0  0  0  0  0  0  0  0  0
    4.3585   -0.2596    3.6963 H   0  0  0  0  0  0  0  0  0  0  0  0
    4.6713   -2.2812    2.9187 H   0  0  0  0  0  0  0  0  0  0  0  0
    5.0563   -4.0377    1.6723 H   0  0  0  0  0  0  0  0  0  0  0  0
    3.6443   -3.5996    0.9052 H   0  0  0  0  0  0  0  0  0  0  0  0
    6.6857   -1.9131    1.7758 H   0  0  0  0  0  0  0  0  0  0  0  0
    5.9765   -0.3196    1.9627 H   0  0  0  0  0  0  0  0  0  0  0  0
    7.2263   -2.7674   -0.5596 H   0  0  0  0  0  0  0  0  0  0  0  0
    7.0408   -1.8582   -2.9814 H   0  0  0  0  0  0  0  0  0  0  0  0
    5.7847    0.3383   -4.2159 H   0  0  0  0  0  0  0  0  0  0  0  0
    4.4137    2.2773   -3.7660 H   0  0  0  0  0  0  0  0  0  0  0  0
    3.6762    2.7678   -1.4847 H   0  0  0  0  0  0  0  0  0  0  0  0
    4.3728    1.2446    0.3813 H   0  0  0  0  0  0  0  0  0  0  0  0
   -4.1225   -0.0160   -0.5938 H   0  0  0  0  0  0  0  0  0  0  0  0
   -4.2741   -2.0095    1.6753 H   0  0  0  0  0  0  0  0  0  0  0  0
   -6.7575   -1.8434    1.5434 H   0  0  0  0  0  0  0  0  0  0  0  0
   -5.9103   -0.3395    2.0001 H   0  0  0  0  0  0  0  0  0  0  0  0
   -5.8347    1.5340    0.6007 H   0  0  0  0  0  0  0  0  0  0  0  0
   -6.9143    2.8602   -1.1445 H   0  0  0  0  0  0  0  0  0  0  0  0
   -8.4905    1.7508   -2.6682 H   0  0  0  0  0  0  0  0  0  0  0  0
   -8.9793   -0.6861   -2.4343 H   0  0  0  0  0  0  0  0  0  0  0  0
   -7.9104   -1.9935   -0.7029 H   0  0  0  0  0  0  0  0  0  0  0  0
   -6.6328   -3.9184   -0.1735 H   0  0  0  0  0  0  0  0  0  0  0  0
   -5.1048   -4.7285    0.4134 H   0  0  0  0  0  0  0  0  0  0  0  0
  1  2  1  0
  2  3  1  0
  2  4  1  0
  4  5  1  0
  5  6  1  0
  6  7  1  0
  7  8  2  0
  7  9  1  0
  9 10  1  0
 10 11  1  0
 11 12  1  0
 12 13  1  0
 13 14  1  0
 14 15  2  0
 14 16  1  0
 16 17  1  0
 16 18  1  0
 18 19  1  0
 19 20  2  0
 20 21  1  0
 21 22  1  0
 22 23  2  0
 23 24  1  0
 24 25  2  0
 25 26  1  0
 26 27  2  0
  5 28  1  0
 28 29  2  0
 28 30  1  0
 30 31  1  0
 31 32  1  0
 32 33  1  0
 33 34  2  0
 34 35  1  0
 35 36  2  0
 36 37  1  0
 37 38  2  0
 31 39  1  0
 39 40  1  0
 39 41  2  0
 13  9  1  0
 27 19  1  0
 38 33  1  0
 27 22  1  0
  1 42  1  0
  1 43  1  0
  1 44  1  0
  2 45  1  0
  3 46  1  0
  3 47  1  0
  3 48  1  0
  4 49  1  0
  4 50  1  0
  5 51  1  6
  6 52  1  0
  9 53  1  1
 10 54  1  0
 10 55  1  0
 11 56  1  0
 11 57  1  0
 12 58  1  0
 12 59  1  0
 16 60  1  1
 17 61  1  0
 17 62  1  0
 18 63  1  0
 18 64  1  0
 20 65  1  0
 21 66  1  0
 23 67  1  0
 24 68  1  0
 25 69  1  0
 26 70  1  0
 30 71  1  0
 31 72  1  1
 32 73  1  0
 32 74  1  0
 34 75  1  0
 35 76  1  0
 36 77  1  0
 37 78  1  0
 38 79  1  0
 40 80  1  0
 40 81  1  0
M  END
$$$$
[H]C1=C(C(=O)N([H])c2c([H])c([H])c(C(C([H])([H])[H])(C([H])([H])[H])C([H])([H])[H])c([H])c2[H])C([H])([H])C([H])([H])N(c2nc([H])c([H])c([H])c2C(F)(F)F)C1([H])[H]
     RDKit          3D

 53 55  0  0  0  0  0  0  0  0999 V2000
   -6.4048    2.1374   -0.2112 C   0  0  0  0  0  0  0  0  0  0  0  0
   -6.2837    0.6126   -0.2029 C   0  0  0  0  0  0  0  0  0  0  0  0
   -7.1504    0.0862    0.9306 C   0  0  0  0  0  0  0  0  0  0  0  0
   -6.6762    0.0596   -1.5498 C   0  0  0  0  0  0  0  0  0  0  0  0
   -4.8773    0.2516    0.0950 C   0  0  0  0  0  0  0  0  0  0  0  0
   -4.6110   -1.0573    0.4974 C   0  0  0  0  0  0  0  0  0  0  0  0
   -3.2846   -1.4245    0.7574 C   0  0  0  0  0  0  0  0  0  0  0  0
   -2.2869   -0.5212    0.6186 C   0  0  0  0  0  0  0  0  0  0  0  0
   -0.9259   -0.8561    0.8690 N   0  0  0  0  0  0  0  0  0  0  0  0
   -0.0050   -0.7139   -0.2188 C   0  0  0  0  0  0  0  0  0  0  0  0
   -0.5644   -0.3235   -1.3302 O   0  0  0  0  0  0  0  0  0  0  0  0
    1.3939   -0.9419   -0.2055 C   0  0  0  0  0  0  0  0  0  0  0  0
    2.1522   -1.2985    0.7846 C   0  0  0  0  0  0  0  0  0  0  0  0
    3.6513   -1.4819    0.5368 C   0  0  0  0  0  0  0  0  0  0  0  0
    4.1355   -0.3644   -0.1907 N   0  0  0  0  0  0  0  0  0  0  0  0
    3.2151    0.2162   -1.2074 C   0  0  0  0  0  0  0  0  0  0  0  0
    2.1506   -0.7818   -1.5206 C   0  0  0  0  0  0  0  0  0  0  0  0
    5.3518    0.2890   -0.0841 C   0  0  0  0  0  0  0  0  0  0  0  0
    5.3878    1.5166    0.5547 N   0  0  0  0  0  0  0  0  0  0  0  0
    6.4967    2.2535    0.6586 C   0  0  0  0  0  0  0  0  0  0  0  0
    7.6785    1.8089    0.1186 C   0  0  0  0  0  0  0  0  0  0  0  0
    7.7028    0.5961   -0.5242 C   0  0  0  0  0  0  0  0  0  0  0  0
    6.5170   -0.1575   -0.6159 C   0  0  0  0  0  0  0  0  0  0  0  0
    6.6212   -1.4591   -1.2853 C   0  0  0  0  0  0  0  0  0  0  0  0
    5.7239   -1.6374   -2.3235 F   0  0  0  0  0  0  0  0  0  0  0  0
    7.9249   -1.5861   -1.8305 F   0  0  0  0  0  0  0  0  0  0  0  0
    6.4818   -2.4701   -0.3770 F   0  0  0  0  0  0  0  0  0  0  0  0
   -2.5751    0.7759    0.2176 C   0  0  0  0  0  0  0  0  0  0  0  0
   -3.8798    1.1732   -0.0475 C   0  0  0  0  0  0  0  0  0  0  0  0
   -7.5092    2.3895   -0.1798 H   0  0  0  0  0  0  0  0  0  0  0  0
   -6.0300    2.5362   -1.1663 H   0  0  0  0  0  0  0  0  0  0  0  0
   -5.8875    2.5354    0.6729 H   0  0  0  0  0  0  0  0  0  0  0  0
   -8.1712    0.5221    0.8858 H   0  0  0  0  0  0  0  0  0  0  0  0
   -7.2571   -0.9931    0.8546 H   0  0  0  0  0  0  0  0  0  0  0  0
   -6.6187    0.3412    1.8934 H   0  0  0  0  0  0  0  0  0  0  0  0
   -5.8155   -0.4639   -2.0423 H   0  0  0  0  0  0  0  0  0  0  0  0
   -7.0713    0.8899   -2.1622 H   0  0  0  0  0  0  0  0  0  0  0  0
   -7.5391   -0.6242   -1.3762 H   0  0  0  0  0  0  0  0  0  0  0  0
   -5.4076   -1.7857    0.6010 H   0  0  0  0  0  0  0  0  0  0  0  0
   -3.1292   -2.4469    1.0585 H   0  0  0  0  0  0  0  0  0  0  0  0
   -0.6304   -1.1906    1.8001 H   0  0  0  0  0  0  0  0  0  0  0  0
    1.7736   -1.4555    1.7365 H   0  0  0  0  0  0  0  0  0  0  0  0
    4.1175   -1.5147    1.5315 H   0  0  0  0  0  0  0  0  0  0  0  0
    3.7307   -2.4665    0.0653 H   0  0  0  0  0  0  0  0  0  0  0  0
    2.7252    1.0478   -0.6421 H   0  0  0  0  0  0  0  0  0  0  0  0
    3.8047    0.5275   -2.0697 H   0  0  0  0  0  0  0  0  0  0  0  0
    2.5965   -1.7757   -1.7566 H   0  0  0  0  0  0  0  0  0  0  0  0
    1.4923   -0.3918   -2.2969 H   0  0  0  0  0  0  0  0  0  0  0  0
    6.5010    3.2269    1.1703 H   0  0  0  0  0  0  0  0  0  0  0  0
    8.5937    2.4265    0.1988 H   0  0  0  0  0  0  0  0  0  0  0  0
    8.6213    0.2445   -0.9436 H   0  0  0  0  0  0  0  0  0  0  0  0
   -1.8194    1.5423    0.0855 H   0  0  0  0  0  0  0  0  0  0  0  0
   -4.1302    2.1773   -0.3621 H   0  0  0  0  0  0  0  0  0  0  0  0
  1  2  1  0
  2  3  1  0
  2  4  1  0
  2  5  1  0
  5  6  2  0
  6  7  1  0
  7  8  2  0
  8  9  1  0
  9 10  1  0
 10 11  2  0
 10 12  1  0
 12 13  2  0
 13 14  1  0
 14 15  1  0
 15 16  1  0
 16 17  1  0
 15 18  1  0
 18 19  2  0
 19 20  1  0
 20 21  2  0
 21 22  1  0
 22 23  2  0
 23 24  1  0
 24 25  1  0
 24 26  1  0
 24 27  1  0
  8 28  1  0
 28 29  2  0
 29  5  1  0
 17 12  1  0
 23 18  1  0
  1 30  1  0
  1 31  1  0
  1 32  1  0
  3 33  1  0
  3 34  1  0
  3 35  1  0
  4 36  1  0
  4 37  1  0
  4 38  1  0
  6 39  1  0
  7 40  1  0
  9 41  1  0
 13 42  1  0
 14 43  1  0
 14 44  1  0
 16 45  1  0
 16 46  1  0
 17 47  1  0
 17 48  1  0
 20 49  1  0
 21 50  1  0
 22 51  1  0
 28 52  1  0
 29 53  1  0
M  END
$$$$
[H]OC([H])([H])[C@@]1(O[H])C([H])([H])[C@@]2([H])O[C@]1(C([H])([H])[H])n1c3c([H])c([H])c([H])c([H])c3c3c4c(c5c6c([H])c([H])c([H])c([H])c6n2c5c31)C(=O)OC4([H])[H]
     RDKit          3D

 53 60  0  0  0  0  0  0  0  0999 V2000
   -2.9290   -0.7820   -1.6900 C   0  0  0  0  0  0  0  0  0  0  0  0
   -1.8067   -0.8176   -0.6645 C   0  0  2  0  0  0  0  0  0  0  0  0
   -0.8437   -1.6331   -1.3395 O   0  0  0  0  0  0  0  0  0  0  0  0
   -0.0655   -2.2530   -0.4267 C   0  0  2  0  0  0  0  0  0  0  0  0
   -0.7975   -2.3020    0.8949 C   0  0  0  0  0  0  0  0  0  0  0  0
   -2.1047   -1.6241    0.5317 C   0  0  1  0  0  0  0  0  0  0  0  0
   -2.4774   -0.8903    1.6526 O   0  0  0  0  0  0  0  0  0  0  0  0
   -3.0801   -2.7395    0.2418 C   0  0  0  0  0  0  0  0  0  0  0  0
   -3.0993   -3.5926    1.3716 O   0  0  0  0  0  0  0  0  0  0  0  0
    1.1341   -1.4293   -0.2410 N   0  0  0  0  0  0  0  0  0  0  0  0
    2.3755   -1.8408   -0.1002 C   0  0  0  0  0  0  0  0  0  0  0  0
    2.8857   -3.1211   -0.1179 C   0  0  0  0  0  0  0  0  0  0  0  0
    4.2510   -3.3515    0.0524 C   0  0  0  0  0  0  0  0  0  0  0  0
    5.0662   -2.2551    0.2380 C   0  0  0  0  0  0  0  0  0  0  0  0
    4.5771   -0.9466    0.2604 C   0  0  0  0  0  0  0  0  0  0  0  0
    3.2385   -0.7604    0.0908 C   0  0  0  0  0  0  0  0  0  0  0  0
    2.4544    0.3613    0.0606 C   0  0  0  0  0  0  0  0  0  0  0  0
    2.6566    1.7200    0.2030 C   0  0  0  0  0  0  0  0  0  0  0  0
    3.8536    2.4989    0.4255 C   0  0  0  0  0  0  0  0  0  0  0  0
    5.0537    2.1640    0.5538 O   0  0  0  0  0  0  0  0  0  0  0  0
    3.4205    3.8455    0.4832 O   0  0  0  0  0  0  0  0  0  0  0  0
    2.0602    3.9480    0.3169 C   0  0  0  0  0  0  0  0  0  0  0  0
    1.5692    2.5670    0.1327 C   0  0  0  0  0  0  0  0  0  0  0  0
    0.2730    2.1078   -0.0780 C   0  0  0  0  0  0  0  0  0  0  0  0
   -0.9331    2.7083   -0.1795 C   0  0  0  0  0  0  0  0  0  0  0  0
   -1.2991    4.0344   -0.0956 C   0  0  0  0  0  0  0  0  0  0  0  0
   -2.6244    4.3870   -0.2197 C   0  0  0  0  0  0  0  0  0  0  0  0
   -3.5394    3.3700   -0.4262 C   0  0  0  0  0  0  0  0  0  0  0  0
   -3.1427    2.0435   -0.5064 C   0  0  0  0  0  0  0  0  0  0  0  0
   -1.8407    1.6808   -0.3872 C   0  0  0  0  0  0  0  0  0  0  0  0
   -1.2315    0.4858   -0.4182 N   0  0  0  0  0  0  0  0  0  0  0  0
    0.0975    0.7743   -0.2167 C   0  0  0  0  0  0  0  0  0  0  0  0
    1.1549   -0.0791   -0.1479 C   0  0  0  0  0  0  0  0  0  0  0  0
   -2.7628    0.1153   -2.3179 H   0  0  0  0  0  0  0  0  0  0  0  0
   -2.8430   -1.6315   -2.4417 H   0  0  0  0  0  0  0  0  0  0  0  0
   -3.9287   -0.9050   -1.2819 H   0  0  0  0  0  0  0  0  0  0  0  0
    0.2428   -3.2686   -0.6641 H   0  0  0  0  0  0  0  0  0  0  0  0
   -0.9602   -3.3424    1.2411 H   0  0  0  0  0  0  0  0  0  0  0  0
   -0.2490   -1.7300    1.6848 H   0  0  0  0  0  0  0  0  0  0  0  0
   -2.9179   -1.5420    2.2700 H   0  0  0  0  0  0  0  0  0  0  0  0
   -2.7428   -3.3773   -0.5989 H   0  0  0  0  0  0  0  0  0  0  0  0
   -4.1004   -2.4301    0.0428 H   0  0  0  0  0  0  0  0  0  0  0  0
   -3.8847   -3.3621    1.9095 H   0  0  0  0  0  0  0  0  0  0  0  0
    2.2238   -3.9617   -0.2652 H   0  0  0  0  0  0  0  0  0  0  0  0
    4.6408   -4.3595    0.0369 H   0  0  0  0  0  0  0  0  0  0  0  0
    6.1357   -2.4249    0.3721 H   0  0  0  0  0  0  0  0  0  0  0  0
    5.3060   -0.2008    0.4102 H   0  0  0  0  0  0  0  0  0  0  0  0
    1.7850    4.5268   -0.6078 H   0  0  0  0  0  0  0  0  0  0  0  0
    1.6238    4.4518    1.2078 H   0  0  0  0  0  0  0  0  0  0  0  0
   -0.5272    4.7620    0.0665 H   0  0  0  0  0  0  0  0  0  0  0  0
   -2.8800    5.4273   -0.1504 H   0  0  0  0  0  0  0  0  0  0  0  0
   -4.5688    3.6458   -0.5221 H   0  0  0  0  0  0  0  0  0  0  0  0
   -3.8993    1.3285   -0.6463 H   0  0  0  0  0  0  0  0  0  0  0  0
  2  1  1  6
  2  3  1  0
  3  4  1  0
  4  5  1  0
  5  6  1  0
  6  7  1  1
  6  8  1  0
  8  9  1  0
  4 10  1  0
 10 11  1  0
 11 12  2  0
 12 13  1  0
 13 14  2  0
 14 15  1  0
 15 16  2  0
 16 17  1  0
 17 18  2  0
 18 19  1  0
 19 20  2  0
 19 21  1  0
 21 22  1  0
 22 23  1  0
 23 24  2  0
 24 25  1  0
 25 26  2  0
 26 27  1  0
 27 28  2  0
 28 29  1  0
 29 30  2  0
 30 31  1  0
 31 32  1  0
 32 33  2  0
  6  2  1  0
 33 10  1  0
 31  2  1  0
 16 11  1  0
 33 17  1  0
 23 18  1  0
 32 24  1  0
 30 25  1  0
  1 34  1  0
  1 35  1  0
  1 36  1  0
  4 37  1  6
  5 38  1  0
  5 39  1  0
  7 40  1  0
  8 41  1  0
  8 42  1  0
  9 43  1  0
 12 44  1  0
 13 45  1  0
 14 46  1  0
 15 47  1  0
 22 48  1  0
 22 49  1  0
 26 50  1  0
 27 51  1  0
 28 52  1  0
 29 53  1  0
M  END
$$$$
[H]c1nc(-c2c([H])c(N([H])C(=O)c3c([H])c([H])c(C([H])([H])N4C([H])([H])C([H])([H])N(C([H])([H])[H])C([H])([H])C4([H])[H])c(C(F)(F)F)c3[H])c([H])c([H])c2C([H])([H])[H])c2c(F)c([H])n([H])c2n1
     RDKit          3D

 64 68  0  0  0  0  0  0  0  0999 V2000
    9.0405    1.2397    0.1569 C   0  0  0  0  0  0  0  0  0  0  0  0
    7.7434    1.0861   -0.5068 N   0  0  0  0  0  0  0  0  0  0  0  0
    7.6625   -0.2793   -0.9757 C   0  0  0  0  0  0  0  0  0  0  0  0
    6.6922   -1.0613   -0.0805 C   0  0  0  0  0  0  0  0  0  0  0  0
    5.4151   -0.4250   -0.2390 N   0  0  0  0  0  0  0  0  0  0  0  0
    4.4769   -1.2660   -0.8228 C   0  0  0  0  0  0  0  0  0  0  0  0
    3.0739   -0.8182   -0.8379 C   0  0  0  0  0  0  0  0  0  0  0  0
    2.6081    0.2299   -1.5911 C   0  0  0  0  0  0  0  0  0  0  0  0
    1.2381    0.5294   -1.6476 C   0  0  0  0  0  0  0  0  0  0  0  0
    0.4125   -0.2094   -0.9608 C   0  0  0  0  0  0  0  0  0  0  0  0
    0.9068   -1.3205   -0.1682 C   0  0  0  0  0  0  0  0  0  0  0  0
    2.2156   -1.6368   -0.0942 C   0  0  0  0  0  0  0  0  0  0  0  0
    2.7446   -2.6597    0.8162 C   0  0  0  0  0  0  0  0  0  0  0  0
    1.6048   -3.3447    1.3453 F   0  0  0  0  0  0  0  0  0  0  0  0
    3.5555   -3.6278    0.4023 F   0  0  0  0  0  0  0  0  0  0  0  0
    3.2137   -2.0252    2.0127 F   0  0  0  0  0  0  0  0  0  0  0  0
   -1.0167   -0.1002   -0.7771 C   0  0  0  0  0  0  0  0  0  0  0  0
   -1.8524   -0.2976   -1.6142 O   0  0  0  0  0  0  0  0  0  0  0  0
   -1.3550    0.2490    0.6329 N   0  0  0  0  0  0  0  0  0  0  0  0
   -2.7689    0.0763    0.8600 C   0  0  0  0  0  0  0  0  0  0  0  0
   -2.9618   -1.3266    1.0943 C   0  0  0  0  0  0  0  0  0  0  0  0
   -4.1973   -1.8540    1.0003 C   0  0  0  0  0  0  0  0  0  0  0  0
   -5.2827   -1.0259    0.6693 C   0  0  0  0  0  0  0  0  0  0  0  0
   -6.5917   -1.7530    0.4582 C   0  0  0  0  0  0  0  0  0  0  0  0
   -5.1000    0.3043    0.4601 C   0  0  0  0  0  0  0  0  0  0  0  0
   -3.7833    0.8483    0.5691 C   0  0  0  0  0  0  0  0  0  0  0  0
   -6.1050    1.1349   -0.1797 C   0  0  0  0  0  0  0  0  0  0  0  0
   -5.8730    1.4669   -1.5043 N   0  0  0  0  0  0  0  0  0  0  0  0
   -6.8027    2.0831   -2.2516 C   0  0  0  0  0  0  0  0  0  0  0  0
   -7.9834    2.3860   -1.7242 N   0  0  0  0  0  0  0  0  0  0  0  0
   -8.2293    2.0663   -0.4382 C   0  0  0  0  0  0  0  0  0  0  0  0
   -9.3768    2.2379    0.2837 N   0  0  0  0  0  0  0  0  0  0  0  0
   -9.1762    1.7329    1.5065 C   0  0  0  0  0  0  0  0  0  0  0  0
   -7.8884    1.2218    1.6039 C   0  0  0  0  0  0  0  0  0  0  0  0
   -7.3179    0.6780    2.7198 F   0  0  0  0  0  0  0  0  0  0  0  0
   -7.2933    1.4296    0.3901 C   0  0  0  0  0  0  0  0  0  0  0  0
    5.3545    0.9458   -0.2848 C   0  0  0  0  0  0  0  0  0  0  0  0
    6.6735    1.5152    0.3399 C   0  0  0  0  0  0  0  0  0  0  0  0
    9.7909    1.0463   -0.6404 H   0  0  0  0  0  0  0  0  0  0  0  0
    9.0905    2.2924    0.4525 H   0  0  0  0  0  0  0  0  0  0  0  0
    9.1650    0.5044    0.9586 H   0  0  0  0  0  0  0  0  0  0  0  0
    7.1411   -0.2552   -1.9773 H   0  0  0  0  0  0  0  0  0  0  0  0
    8.5894   -0.8045   -1.0456 H   0  0  0  0  0  0  0  0  0  0  0  0
    6.6850   -2.1189   -0.3783 H   0  0  0  0  0  0  0  0  0  0  0  0
    7.0120   -0.9717    0.9784 H   0  0  0  0  0  0  0  0  0  0  0  0
    4.6798   -2.3293   -0.9164 H   0  0  0  0  0  0  0  0  0  0  0  0
    4.7642   -1.0307   -2.0120 H   0  0  0  0  0  0  0  0  0  0  0  0
    3.2542    0.8637   -2.1844 H   0  0  0  0  0  0  0  0  0  0  0  0
    0.9429    1.3520   -2.2958 H   0  0  0  0  0  0  0  0  0  0  0  0
    0.1908   -1.8810    0.3768 H   0  0  0  0  0  0  0  0  0  0  0  0
   -0.6497    0.5457    1.2640 H   0  0  0  0  0  0  0  0  0  0  0  0
   -2.1127   -1.9305    1.3624 H   0  0  0  0  0  0  0  0  0  0  0  0
   -4.4007   -2.9072    1.1751 H   0  0  0  0  0  0  0  0  0  0  0  0
   -7.2175   -1.1941   -0.2199 H   0  0  0  0  0  0  0  0  0  0  0  0
   -6.3149   -2.7638    0.0471 H   0  0  0  0  0  0  0  0  0  0  0  0
   -7.0210   -1.8925    1.4555 H   0  0  0  0  0  0  0  0  0  0  0  0
   -3.6590    1.9084    0.4017 H   0  0  0  0  0  0  0  0  0  0  0  0
   -6.5159    2.2935   -3.3063 H   0  0  0  0  0  0  0  0  0  0  0  0
  -10.2574    2.6701   -0.0812 H   0  0  0  0  0  0  0  0  0  0  0  0
   -9.9208    1.6935    2.3117 H   0  0  0  0  0  0  0  0  0  0  0  0
    5.3024    1.4447   -1.2540 H   0  0  0  0  0  0  0  0  0  0  0  0
    4.5351    1.3455    0.3978 H   0  0  0  0  0  0  0  0  0  0  0  0
    6.5496    2.5967    0.3057 H   0  0  0  0  0  0  0  0  0  0  0  0
    6.7004    1.0922    1.3656 H   0  0  0  0  0  0  0  0  0  0  0  0
  1  2  1  0
  2  3  1  0
  3  4  1  0
  4  5  1  0
  5  6  1  0
  6  7  1  0
  7  8  2  0
  8  9  1  0
  9 10  2  0
 10 11  1  0
 11 12  2  0
 12 13  1  0
 13 14  1  0
 13 15  1  0
 13 16  1  0
 10 17  1  0
 17 18  2  0
 17 19  1  0
 19 20  1  0
 20 21  2  0
 21 22  1  0
 22 23  2  0
 23 24  1  0
 23 25  1  0
 25 26  2  0
 25 27  1  0
 27 28  2  0
 28 29  1  0
 29 30  2  0
 30 31  1  0
 31 32  1  0
 32 33  1  0
 33 34  2  0
 34 35  1  0
 34 36  1  0
  5 37  1  0
 37 38  1  0
 38  2  1  0
 12  7  1  0
 26 20  1  0
 36 27  1  0
 36 31  2  0
  1 39  1  0
  1 40  1  0
  1 41  1  0
  3 42  1  0
  3 43  1  0
  4 44  1  0
  4 45  1  0
  6 46  1  0
  6 47  1  0
  8 48  1  0
  9 49  1  0
 11 50  1  0
 19 51  1  0
 21 52  1  0
 22 53  1  0
 24 54  1  0
 24 55  1  0
 24 56  1  0
 26 57  1  0
 29 58  1  0
 32 59  1  0
 33 60  1  0
 37 61  1  0
 37 62  1  0
 38 63  1  0
 38 64  1  0
M  END
$$$$
[H]c1c([H])c(C([H])([H])[H])c2c(C3=C(c4c([H])n([H])c5c([H])c([H])c([H])c([H])c45)C(=O)N([H])C3=O)nc(N3C([H])([H])C([H])([H])N(C([H])([H])[H])C([H])([H])C3([H])[H])nc2c1[H]
     RDKit          3D

 58 63  0  0  0  0  0  0  0  0999 V2000
   -5.9923   -1.9254    0.4270 C   0  0  0  0  0  0  0  0  0  0  0  0
   -4.6957   -1.3011    0.5771 N   0  0  0  0  0  0  0  0  0  0  0  0
   -3.7025   -2.3467    0.2956 C   0  0  0  0  0  0  0  0  0  0  0  0
   -2.3088   -1.8580    0.6277 C   0  0  0  0  0  0  0  0  0  0  0  0
   -2.3113   -0.4777    1.0597 N   0  0  0  0  0  0  0  0  0  0  0  0
   -3.2471   -0.1176    2.0994 C   0  0  0  0  0  0  0  0  0  0  0  0
   -4.5188   -0.9379    1.9708 C   0  0  0  0  0  0  0  0  0  0  0  0
   -1.4528    0.5120    0.5118 C   0  0  0  0  0  0  0  0  0  0  0  0
   -0.5982    0.2657   -0.4782 N   0  0  0  0  0  0  0  0  0  0  0  0
    0.2471    1.2327   -1.0158 C   0  0  0  0  0  0  0  0  0  0  0  0
    1.0567    0.7444   -2.0852 C   0  0  0  0  0  0  0  0  0  0  0  0
    2.1636    0.0428   -1.9474 C   0  0  0  0  0  0  0  0  0  0  0  0
    2.6860   -0.2847   -3.2548 C   0  0  0  0  0  0  0  0  0  0  0  0
    3.7520   -0.9444   -3.5516 O   0  0  0  0  0  0  0  0  0  0  0  0
    1.8115    0.2555   -4.2366 N   0  0  0  0  0  0  0  0  0  0  0  0
    0.7947    0.8942   -3.4920 C   0  0  0  0  0  0  0  0  0  0  0  0
   -0.1743    1.4881   -4.0959 O   0  0  0  0  0  0  0  0  0  0  0  0
    2.8059   -0.3323   -0.6698 C   0  0  0  0  0  0  0  0  0  0  0  0
    3.1386    0.4635    0.3845 C   0  0  0  0  0  0  0  0  0  0  0  0
    3.6757   -0.2925    1.3533 N   0  0  0  0  0  0  0  0  0  0  0  0
    3.7076   -1.5863    0.9640 C   0  0  0  0  0  0  0  0  0  0  0  0
    4.1398   -2.7467    1.5646 C   0  0  0  0  0  0  0  0  0  0  0  0
    4.0591   -3.9820    0.9587 C   0  0  0  0  0  0  0  0  0  0  0  0
    3.5179   -4.0203   -0.2992 C   0  0  0  0  0  0  0  0  0  0  0  0
    3.0835   -2.8615   -0.9065 C   0  0  0  0  0  0  0  0  0  0  0  0
    3.1593   -1.6194   -0.3129 C   0  0  0  0  0  0  0  0  0  0  0  0
    0.1841    2.4739   -0.4920 C   0  0  0  0  0  0  0  0  0  0  0  0
    0.9898    3.4967   -0.9416 C   0  0  0  0  0  0  0  0  0  0  0  0
    1.9862    3.3301   -1.9825 C   0  0  0  0  0  0  0  0  0  0  0  0
    0.8302    4.7453   -0.3029 C   0  0  0  0  0  0  0  0  0  0  0  0
   -0.0594    4.9823    0.7138 C   0  0  0  0  0  0  0  0  0  0  0  0
   -0.8420    3.9469    1.1392 C   0  0  0  0  0  0  0  0  0  0  0  0
   -0.7292    2.7355    0.5632 C   0  0  0  0  0  0  0  0  0  0  0  0
   -1.5008    1.7532    1.0153 N   0  0  0  0  0  0  0  0  0  0  0  0
   -6.1830   -2.6721    1.2230 H   0  0  0  0  0  0  0  0  0  0  0  0
   -6.0116   -2.5036   -0.5383 H   0  0  0  0  0  0  0  0  0  0  0  0
   -6.8176   -1.1839    0.3791 H   0  0  0  0  0  0  0  0  0  0  0  0
   -3.9473   -3.1886    0.9770 H   0  0  0  0  0  0  0  0  0  0  0  0
   -3.8073   -2.6891   -0.7445 H   0  0  0  0  0  0  0  0  0  0  0  0
   -1.8846   -2.4380    1.4985 H   0  0  0  0  0  0  0  0  0  0  0  0
   -1.6677   -1.9847   -0.2645 H   0  0  0  0  0  0  0  0  0  0  0  0
   -2.8480   -0.3005    3.1226 H   0  0  0  0  0  0  0  0  0  0  0  0
   -3.5089    0.9691    2.0638 H   0  0  0  0  0  0  0  0  0  0  0  0
   -5.4048   -0.3730    2.3163 H   0  0  0  0  0  0  0  0  0  0  0  0
   -4.4587   -1.8715    2.5621 H   0  0  0  0  0  0  0  0  0  0  0  0
    1.9290    0.1758   -5.2797 H   0  0  0  0  0  0  0  0  0  0  0  0
    3.0082    1.5287    0.4579 H   0  0  0  0  0  0  0  0  0  0  0  0
    4.0329    0.0249    2.2906 H   0  0  0  0  0  0  0  0  0  0  0  0
    4.5659   -2.6823    2.5679 H   0  0  0  0  0  0  0  0  0  0  0  0
    4.4155   -4.8786    1.4742 H   0  0  0  0  0  0  0  0  0  0  0  0
    3.4337   -4.9676   -0.8143 H   0  0  0  0  0  0  0  0  0  0  0  0
    2.6446   -2.9188   -1.8980 H   0  0  0  0  0  0  0  0  0  0  0  0
    2.8385    2.6820   -1.8321 H   0  0  0  0  0  0  0  0  0  0  0  0
    2.6259    4.3134   -1.8625 H   0  0  0  0  0  0  0  0  0  0  0  0
    1.6814    3.5840   -3.0221 H   0  0  0  0  0  0  0  0  0  0  0  0
    1.4365    5.5726   -0.6260 H   0  0  0  0  0  0  0  0  0  0  0  0
   -0.1742    5.9422    1.1943 H   0  0  0  0  0  0  0  0  0  0  0  0
   -1.5544    4.1313    1.9528 H   0  0  0  0  0  0  0  0  0  0  0  0
  1  2  1  0
  2  3  1  0
  3  4  1  0
  4  5  1  0
  5  6  1  0
  6  7  1  0
  5  8  1  0
  8  9  2  0
  9 10  1  0
 10 11  1  0
 11 12  2  0
 12 13  1  0
 13 14  2  0
 13 15  1  0
 15 16  1  0
 16 17  2  0
 12 18  1  0
 18 19  2  0
 19 20  1  0
 20 21  1  0
 21 22  2  0
 22 23  1  0
 23 24  2  0
 24 25  1  0
 25 26  2  0
 10 27  2  0
 27 28  1  0
 28 29  1  0
 28 30  2  0
 30 31  1  0
 31 32  2  0
 32 33  1  0
 33 34  2  0
  7  2  1  0
 34  8  1  0
 16 11  1  0
 26 18  1  0
 33 27  1  0
 26 21  1  0
  1 35  1  0
  1 36  1  0
  1 37  1  0
  3 38  1  0
  3 39  1  0
  4 40  1  0
  4 41  1  0
  6 42  1  0
  6 43  1  0
  7 44  1  0
  7 45  1  0
 15 46  1  0
 19 47  1  0
 20 48  1  0
 22 49  1  0
 23 50  1  0
 24 51  1  0
 25 52  1  0
 29 53  1  0
 29 54  1  0
 29 55  1  0
 30 56  1  0
 31 57  1  0
 32 58  1  0
M  END
$$$$
[H]OP(=O)(C([H])([H])[C@]([H])(C(=O)N([H])[C@]([H])(C(=O)N([H])[H])C([H])([H])c1c([H])c([H])c([H])c([H])c1[H])C([H])([H])c1c([H])c([H])c([H])c([H])c1[H])[C@]([H])(C([H])([H])[H])[N+]([H])([H])[H]
     RDKit          3D

 58 59  0  0  0  0  0  0  0  0999 V2000
   -2.4505   -4.0971    0.5041 C   0  0  0  0  0  0  0  0  0  0  0  0
   -2.8481   -2.6991    0.9445 C   0  0  2  0  0  0  0  0  0  0  0  0
   -4.2712   -2.7520    1.2809 N   0  0  0  0  0  0  0  0  0  0  0  0
   -2.6344   -1.5803   -0.4578 P   0  0  0  0  0  0  0  0  0  0  0  0
   -1.3282   -2.0460   -1.4511 O   0  0  0  0  0  0  0  0  0  0  0  0
   -3.8647   -1.8033   -1.3412 O   0  0  0  0  0  0  0  0  0  0  0  0
   -2.6055    0.1391   -0.0069 C   0  0  0  0  0  0  0  0  0  0  0  0
   -1.3699    0.8882   -0.3179 C   0  0  1  0  0  0  0  0  0  0  0  0
   -1.5113    2.3260    0.1281 C   0  0  0  0  0  0  0  0  0  0  0  0
   -2.6161    3.0580   -0.5140 C   0  0  0  0  0  0  0  0  0  0  0  0
   -2.4191    3.7209   -1.7339 C   0  0  0  0  0  0  0  0  0  0  0  0
   -3.4213    4.4209   -2.3464 C   0  0  0  0  0  0  0  0  0  0  0  0
   -4.6785    4.5119   -1.7968 C   0  0  0  0  0  0  0  0  0  0  0  0
   -4.9093    3.8765   -0.6040 C   0  0  0  0  0  0  0  0  0  0  0  0
   -3.8956    3.1773    0.0008 C   0  0  0  0  0  0  0  0  0  0  0  0
   -0.1218    0.2914    0.1610 C   0  0  0  0  0  0  0  0  0  0  0  0
   -0.1801   -0.7661    0.8387 O   0  0  0  0  0  0  0  0  0  0  0  0
    1.1630    0.8111   -0.0767 N   0  0  0  0  0  0  0  0  0  0  0  0
    2.4115    0.2169    0.4008 C   0  0  1  0  0  0  0  0  0  0  0  0
    3.1018   -0.2635   -0.8401 C   0  0  0  0  0  0  0  0  0  0  0  0
    4.3909   -0.9079   -0.6887 C   0  0  0  0  0  0  0  0  0  0  0  0
    5.5484   -0.1734   -0.8216 C   0  0  0  0  0  0  0  0  0  0  0  0
    6.8086   -0.7249   -0.6889 C   0  0  0  0  0  0  0  0  0  0  0  0
    6.9090   -2.0743   -0.4104 C   0  0  0  0  0  0  0  0  0  0  0  0
    5.7638   -2.8526   -0.2683 C   0  0  0  0  0  0  0  0  0  0  0  0
    4.5296   -2.2517   -0.4107 C   0  0  0  0  0  0  0  0  0  0  0  0
    3.1544    1.1015    1.2719 C   0  0  0  0  0  0  0  0  0  0  0  0
    4.3492    0.7298    1.9216 N   0  0  0  0  0  0  0  0  0  0  0  0
    2.7405    2.2888    1.4943 O   0  0  0  0  0  0  0  0  0  0  0  0
   -3.2216   -4.8525    0.8353 H   0  0  0  0  0  0  0  0  0  0  0  0
   -2.4047   -4.1762   -0.5967 H   0  0  0  0  0  0  0  0  0  0  0  0
   -1.4934   -4.4186    0.9883 H   0  0  0  0  0  0  0  0  0  0  0  0
   -2.3272   -2.4072    1.8508 H   0  0  0  0  0  0  0  0  0  0  0  0
   -4.4575   -2.4008    2.2495 H   0  0  0  0  0  0  0  0  0  0  0  0
   -4.6355   -3.7305    1.2655 H   0  0  0  0  0  0  0  0  0  0  0  0
   -4.8249   -2.2228    0.5838 H   0  0  0  0  0  0  0  0  0  0  0  0
   -1.5622   -2.8678   -1.9162 H   0  0  0  0  0  0  0  0  0  0  0  0
   -2.8238    0.1839    1.1056 H   0  0  0  0  0  0  0  0  0  0  0  0
   -3.4879    0.6368   -0.4560 H   0  0  0  0  0  0  0  0  0  0  0  0
   -1.2822    0.9400   -1.4448 H   0  0  0  0  0  0  0  0  0  0  0  0
   -1.7069    2.3687    1.2311 H   0  0  0  0  0  0  0  0  0  0  0  0
   -0.5551    2.8865   -0.0050 H   0  0  0  0  0  0  0  0  0  0  0  0
   -1.4296    3.6564   -2.1785 H   0  0  0  0  0  0  0  0  0  0  0  0
   -3.2403    4.9228   -3.2877 H   0  0  0  0  0  0  0  0  0  0  0  0
   -5.4752    5.0641   -2.2766 H   0  0  0  0  0  0  0  0  0  0  0  0
   -5.9080    3.9550   -0.1777 H   0  0  0  0  0  0  0  0  0  0  0  0
   -4.1066    2.6756    0.9583 H   0  0  0  0  0  0  0  0  0  0  0  0
    1.2648    1.6738   -0.6249 H   0  0  0  0  0  0  0  0  0  0  0  0
    2.0986   -0.7151    0.9662 H   0  0  0  0  0  0  0  0  0  0  0  0
    2.4004   -1.0325   -1.2885 H   0  0  0  0  0  0  0  0  0  0  0  0
    3.1082    0.5986   -1.5487 H   0  0  0  0  0  0  0  0  0  0  0  0
    5.5198    0.9058   -1.0439 H   0  0  0  0  0  0  0  0  0  0  0  0
    7.7060   -0.1169   -0.7999 H   0  0  0  0  0  0  0  0  0  0  0  0
    7.9035   -2.4773   -0.3123 H   0  0  0  0  0  0  0  0  0  0  0  0
    5.9148   -3.8851   -0.0540 H   0  0  0  0  0  0  0  0  0  0  0  0
    3.6514   -2.9044   -0.2900 H   0  0  0  0  0  0  0  0  0  0  0  0
    4.4435   -0.1903    2.4363 H   0  0  0  0  0  0  0  0  0  0  0  0
    5.1866    1.3637    1.9118 H   0  0  0  0  0  0  0  0  0  0  0  0
  1  2  1  0
  2  3  1  0
  2  4  1  0
  4  5  1  0
  4  6  2  0
  4  7  1  0
  7  8  1  0
  8  9  1  0
  9 10  1  0
 10 11  2  0
 11 12  1  0
 12 13  2  0
 13 14  1  0
 14 15  2  0
  8 16  1  0
 16 17  2  0
 16 18  1  0
 18 19  1  0
 19 20  1  0
 20 21  1  0
 21 22  2  0
 22 23  1  0
 23 24  2  0
 24 25  1  0
 25 26  2  0
 19 27  1  0
 27 28  1  0
 27 29  2  0
 15 10  1  0
 26 21  1  0
  1 30  1  0
  1 31  1  0
  1 32  1  0
  2 33  1  1
  3 34  1  0
  3 35  1  0
  3 36  1  0
  5 37  1  0
  7 38  1  0
  7 39  1  0
  8 40  1  6
  9 41  1  0
  9 42  1  0
 11 43  1  0
 12 44  1  0
 13 45  1  0
 14 46  1  0
 15 47  1  0
 18 48  1  0
 19 49  1  1
 20 50  1  0
 20 51  1  0
 22 52  1  0
 23 53  1  0
 24 54  1  0
 25 55  1  0
 26 56  1  0
 28 57  1  0
 28 58  1  0
M  CHG  1   3   1
M  END
$$$$
[H]O[C@@]1([H])[C@]([H])(O[H])[C@@]([H])(C([H])([H])OP(=O)(O[H])OP(=O)(O[H])OP(=O)(O[H])OC([H])([H])[C@@]2([H])O[C@@]([H])(n3c([H])nc4c(N([H])[H])nc([H])nc43)[C@]([H])(O[H])[C@]2([H])O[H])O[C@@]1([H])n1c([H])nc2c(N([H])[H])nc([H])nc21
     RDKit          3D

 76 81  0  0  0  0  0  0  0  0999 V2000
    6.0646   -3.0706   -1.0016 O   0  0  0  0  0  0  0  0  0  0  0  0
    5.5838   -2.0522   -0.1483 C   0  0  2  0  0  0  0  0  0  0  0  0
    5.0919   -0.9384   -1.0382 C   0  0  1  0  0  0  0  0  0  0  0  0
    3.7203   -0.4952   -0.5224 C   0  0  0  0  0  0  0  0  0  0  0  0
    2.8610   -1.5890   -0.6283 O   0  0  0  0  0  0  0  0  0  0  0  0
    1.3105   -1.2184   -0.0865 P   0  0  0  0  0  0  0  0  0  0  0  0
    1.2847   -0.9924    1.5861 O   0  0  0  0  0  0  0  0  0  0  0  0
    0.4076   -2.3858   -0.4710 O   0  0  0  0  0  0  0  0  0  0  0  0
    0.6873    0.1471   -0.8288 O   0  0  0  0  0  0  0  0  0  0  0  0
    0.3611    1.3147    0.3138 P   0  0  0  0  0  0  0  0  0  0  0  0
   -0.7755    0.6597    1.4116 O   0  0  0  0  0  0  0  0  0  0  0  0
    1.6196    1.6613    1.0722 O   0  0  0  0  0  0  0  0  0  0  0  0
   -0.2764    2.7248   -0.3382 O   0  0  0  0  0  0  0  0  0  0  0  0
   -1.6437    2.4792   -1.2544 P   0  0  0  0  0  0  0  0  0  0  0  0
   -2.3037    4.0121   -1.6189 O   0  0  0  0  0  0  0  0  0  0  0  0
   -1.3620    1.8083   -2.5742 O   0  0  0  0  0  0  0  0  0  0  0  0
   -2.8072    1.6332   -0.3864 O   0  0  0  0  0  0  0  0  0  0  0  0
   -3.3663    0.6219   -1.1955 C   0  0  0  0  0  0  0  0  0  0  0  0
   -4.4194   -0.1425   -0.4072 C   0  0  1  0  0  0  0  0  0  0  0  0
   -5.4403    0.6666    0.0206 O   0  0  0  0  0  0  0  0  0  0  0  0
   -6.6044   -0.1146    0.0292 C   0  0  2  0  0  0  0  0  0  0  0  0
   -6.4909   -0.8550   -1.2696 C   0  0  2  0  0  0  0  0  0  0  0  0
   -7.1999   -2.0464   -1.2898 O   0  0  0  0  0  0  0  0  0  0  0  0
   -5.0115   -1.1777   -1.3286 C   0  0  2  0  0  0  0  0  0  0  0  0
   -4.7601   -2.4732   -0.8887 O   0  0  0  0  0  0  0  0  0  0  0  0
   -7.7723    0.7059    0.1112 N   0  0  0  0  0  0  0  0  0  0  0  0
   -7.8685    2.0402    0.0154 C   0  0  0  0  0  0  0  0  0  0  0  0
   -9.1834    2.3786    0.1551 N   0  0  0  0  0  0  0  0  0  0  0  0
   -9.9120    1.2695    0.3374 C   0  0  0  0  0  0  0  0  0  0  0  0
  -11.2748    1.0818    0.5258 C   0  0  0  0  0  0  0  0  0  0  0  0
  -12.1752    2.1806    0.5513 N   0  0  0  0  0  0  0  0  0  0  0  0
  -11.6979   -0.1860    0.6821 N   0  0  0  0  0  0  0  0  0  0  0  0
  -10.8332   -1.2161    0.6555 C   0  0  0  0  0  0  0  0  0  0  0  0
   -9.5151   -1.0130    0.4716 N   0  0  0  0  0  0  0  0  0  0  0  0
   -9.0185    0.2193    0.3089 C   0  0  0  0  0  0  0  0  0  0  0  0
    5.9896    0.0967   -0.9616 O   0  0  0  0  0  0  0  0  0  0  0  0
    7.2145   -0.4631   -0.5914 C   0  0  2  0  0  0  0  0  0  0  0  0
    6.7788   -1.3724    0.5384 C   0  0  1  0  0  0  0  0  0  0  0  0
    6.2226   -0.6467    1.6034 O   0  0  0  0  0  0  0  0  0  0  0  0
    8.1700    0.5170   -0.2021 N   0  0  0  0  0  0  0  0  0  0  0  0
    8.4024    1.6531   -0.8815 C   0  0  0  0  0  0  0  0  0  0  0  0
    9.3599    2.3746   -0.2668 N   0  0  0  0  0  0  0  0  0  0  0  0
    9.7500    1.7034    0.8160 C   0  0  0  0  0  0  0  0  0  0  0  0
   10.6937    2.0012    1.7784 C   0  0  0  0  0  0  0  0  0  0  0  0
   11.4383    3.2081    1.6997 N   0  0  0  0  0  0  0  0  0  0  0  0
   10.8532    1.1020    2.7599 N   0  0  0  0  0  0  0  0  0  0  0  0
   10.1276   -0.0295    2.7981 C   0  0  0  0  0  0  0  0  0  0  0  0
    9.2106   -0.3122    1.8572 N   0  0  0  0  0  0  0  0  0  0  0  0
    9.0018    0.5465    0.8470 C   0  0  0  0  0  0  0  0  0  0  0  0
    6.0991   -2.7896   -1.9316 H   0  0  0  0  0  0  0  0  0  0  0  0
    4.8477   -2.4158    0.5665 H   0  0  0  0  0  0  0  0  0  0  0  0
    5.0014   -1.2443   -2.1006 H   0  0  0  0  0  0  0  0  0  0  0  0
    3.3232    0.3180   -1.1562 H   0  0  0  0  0  0  0  0  0  0  0  0
    3.7709   -0.2044    0.5291 H   0  0  0  0  0  0  0  0  0  0  0  0
    2.1815   -1.1811    2.0058 H   0  0  0  0  0  0  0  0  0  0  0  0
   -1.0339   -0.2545    1.1700 H   0  0  0  0  0  0  0  0  0  0  0  0
   -3.2798    4.0343   -1.4521 H   0  0  0  0  0  0  0  0  0  0  0  0
   -3.8750    1.0874   -2.0646 H   0  0  0  0  0  0  0  0  0  0  0  0
   -2.5934   -0.0780   -1.5620 H   0  0  0  0  0  0  0  0  0  0  0  0
   -3.9758   -0.6498    0.4738 H   0  0  0  0  0  0  0  0  0  0  0  0
   -6.4960   -0.8166    0.8783 H   0  0  0  0  0  0  0  0  0  0  0  0
   -6.7237   -0.1926   -2.1206 H   0  0  0  0  0  0  0  0  0  0  0  0
   -7.5604   -2.1605   -2.2124 H   0  0  0  0  0  0  0  0  0  0  0  0
   -4.6139   -1.1019   -2.3614 H   0  0  0  0  0  0  0  0  0  0  0  0
   -4.6159   -2.5231    0.0935 H   0  0  0  0  0  0  0  0  0  0  0  0
   -7.0390    2.7124   -0.1443 H   0  0  0  0  0  0  0  0  0  0  0  0
  -12.5722    2.6293   -0.3001 H   0  0  0  0  0  0  0  0  0  0  0  0
  -12.4755    2.5848    1.4670 H   0  0  0  0  0  0  0  0  0  0  0  0
  -11.1688   -2.2274    0.7800 H   0  0  0  0  0  0  0  0  0  0  0  0
    7.5355   -1.1132   -1.4195 H   0  0  0  0  0  0  0  0  0  0  0  0
    7.5384   -2.0867    0.8502 H   0  0  0  0  0  0  0  0  0  0  0  0
    5.6024   -1.2809    2.0567 H   0  0  0  0  0  0  0  0  0  0  0  0
    7.8935    1.9566   -1.8006 H   0  0  0  0  0  0  0  0  0  0  0  0
   11.1572    3.9995    2.2894 H   0  0  0  0  0  0  0  0  0  0  0  0
   12.2604    3.3144    1.0620 H   0  0  0  0  0  0  0  0  0  0  0  0
   10.3190   -0.7167    3.6380 H   0  0  0  0  0  0  0  0  0  0  0  0
  1  2  1  0
  2  3  1  0
  3  4  1  0
  4  5  1  0
  5  6  1  0
  6  7  1  0
  6  8  2  0
  6  9  1  0
  9 10  1  0
 10 11  1  0
 10 12  2  0
 10 13  1  0
 13 14  1  0
 14 15  1  0
 14 16  2  0
 14 17  1  0
 17 18  1  0
 18 19  1  0
 19 20  1  0
 20 21  1  0
 21 22  1  0
 22 23  1  0
 22 24  1  0
 24 25  1  0
 21 26  1  0
 26 27  1  0
 27 28  2  0
 28 29  1  0
 29 30  2  0
 30 31  1  0
 30 32  1  0
 32 33  2  0
 33 34  1  0
 34 35  2  0
  3 36  1  0
 36 37  1  0
 37 38  1  0
 38 39  1  0
 37 40  1  0
 40 41  1  0
 41 42  2  0
 42 43  1  0
 43 44  2  0
 44 45  1  0
 44 46  1  0
 46 47  2  0
 47 48  1  0
 48 49  2  0
 38  2  1  0
 49 40  1  0
 24 19  1  0
 35 26  1  0
 49 43  1  0
 35 29  1  0
  1 50  1  0
  2 51  1  1
  3 52  1  6
  4 53  1  0
  4 54  1  0
  7 55  1  0
 11 56  1  0
 15 57  1  0
 18 58  1  0
 18 59  1  0
 19 60  1  1
 21 61  1  1
 22 62  1  6
 23 63  1  0
 24 64  1  6
 25 65  1  0
 27 66  1  0
 31 67  1  0
 31 68  1  0
 33 69  1  0
 37 70  1  6
 38 71  1  1
 39 72  1  0
 41 73  1  0
 45 74  1  0
 45 75  1  0
 47 76  1  0
M  END
$$$$
[H]c1nc(N2C([H])([H])[C@@]3([H])N(C([H])([H])[H])C([H])([H])[C@]2([H])C3([H])[H])c([H])nc1-c1c([H])c([H])c2c(c1[H])c([H])c([H])n2[H]
     RDKit          3D

 42 46  0  0  0  0  0  0  0  0999 V2000
    6.3626    1.1281    0.5791 C   0  0  0  0  0  0  0  0  0  0  0  0
    5.0203    0.9351    0.1210 N   0  0  0  0  0  0  0  0  0  0  0  0
    4.0336    1.1028    1.1951 C   0  0  0  0  0  0  0  0  0  0  0  0
    3.2533   -0.1956    1.2125 C   0  0  2  0  0  0  0  0  0  0  0  0
    4.3973   -1.1557    0.8291 C   0  0  0  0  0  0  0  0  0  0  0  0
    4.7667   -0.3632   -0.4398 C   0  0  1  0  0  0  0  0  0  0  0  0
    3.4044   -0.3187   -1.0966 C   0  0  0  0  0  0  0  0  0  0  0  0
    2.4743   -0.2392    0.0158 N   0  0  0  0  0  0  0  0  0  0  0  0
    1.0586   -0.2132   -0.1274 C   0  0  0  0  0  0  0  0  0  0  0  0
    0.2123   -0.1370    0.9624 C   0  0  0  0  0  0  0  0  0  0  0  0
   -1.1213   -0.1139    0.7998 N   0  0  0  0  0  0  0  0  0  0  0  0
   -1.7000   -0.1634   -0.4224 C   0  0  0  0  0  0  0  0  0  0  0  0
   -0.8713   -0.2388   -1.5020 C   0  0  0  0  0  0  0  0  0  0  0  0
    0.4857   -0.2624   -1.3409 N   0  0  0  0  0  0  0  0  0  0  0  0
   -3.1493   -0.1361   -0.5540 C   0  0  0  0  0  0  0  0  0  0  0  0
   -3.8115   -0.1814   -1.7336 C   0  0  0  0  0  0  0  0  0  0  0  0
   -5.2037   -0.1548   -1.8544 C   0  0  0  0  0  0  0  0  0  0  0  0
   -5.9316   -0.0776   -0.6905 C   0  0  0  0  0  0  0  0  0  0  0  0
   -7.2640   -0.0360   -0.4927 N   0  0  0  0  0  0  0  0  0  0  0  0
   -7.5098    0.0380    0.8272 C   0  0  0  0  0  0  0  0  0  0  0  0
   -6.3152    0.0455    1.5178 C   0  0  0  0  0  0  0  0  0  0  0  0
   -5.3156   -0.0285    0.5408 C   0  0  0  0  0  0  0  0  0  0  0  0
   -3.9401   -0.0578    0.6012 C   0  0  0  0  0  0  0  0  0  0  0  0
    6.4494    1.8370    1.4207 H   0  0  0  0  0  0  0  0  0  0  0  0
    6.9790    1.4530   -0.3082 H   0  0  0  0  0  0  0  0  0  0  0  0
    6.7948    0.1351    0.8785 H   0  0  0  0  0  0  0  0  0  0  0  0
    4.5503    1.2662    2.1652 H   0  0  0  0  0  0  0  0  0  0  0  0
    3.3433    1.9361    0.9629 H   0  0  0  0  0  0  0  0  0  0  0  0
    2.7737   -0.4415    2.1328 H   0  0  0  0  0  0  0  0  0  0  0  0
    5.2130   -1.1243    1.5510 H   0  0  0  0  0  0  0  0  0  0  0  0
    4.0147   -2.1421    0.5751 H   0  0  0  0  0  0  0  0  0  0  0  0
    5.5520   -0.8052   -1.0101 H   0  0  0  0  0  0  0  0  0  0  0  0
    3.2241   -1.2102   -1.7310 H   0  0  0  0  0  0  0  0  0  0  0  0
    3.3419    0.6312   -1.6659 H   0  0  0  0  0  0  0  0  0  0  0  0
    0.6600   -0.0966    1.9477 H   0  0  0  0  0  0  0  0  0  0  0  0
   -1.2662   -0.2814   -2.5073 H   0  0  0  0  0  0  0  0  0  0  0  0
   -3.2588   -0.2427   -2.6701 H   0  0  0  0  0  0  0  0  0  0  0  0
   -5.6939   -0.1929   -2.8157 H   0  0  0  0  0  0  0  0  0  0  0  0
   -7.9694   -0.0595   -1.2696 H   0  0  0  0  0  0  0  0  0  0  0  0
   -8.4845    0.0864    1.3220 H   0  0  0  0  0  0  0  0  0  0  0  0
   -6.1279    0.0959    2.5809 H   0  0  0  0  0  0  0  0  0  0  0  0
   -3.4312   -0.0207    1.5516 H   0  0  0  0  0  0  0  0  0  0  0  0
  1  2  1  0
  2  3  1  0
  3  4  1  0
  4  5  1  0
  5  6  1  0
  6  7  1  0
  7  8  1  0
  8  9  1  0
  9 10  2  0
 10 11  1  0
 11 12  2  0
 12 13  1  0
 13 14  2  0
 12 15  1  0
 15 16  2  0
 16 17  1  0
 17 18  2  0
 18 19  1  0
 19 20  1  0
 20 21  2  0
 21 22  1  0
 22 23  2  0
  6  2  1  0
 14  9  1  0
 23 15  1  0
  8  4  1  0
 22 18  1  0
  1 24  1  0
  1 25  1  0
  1 26  1  0
  3 27  1  0
  3 28  1  0
  4 29  1  1
  5 30  1  0
  5 31  1  0
  6 32  1  6
  7 33  1  0
  7 34  1  0
 10 35  1  0
 13 36  1  0
 16 37  1  0
 17 38  1  0
 19 39  1  0
 20 40  1  0
 21 41  1  0
 23 42  1  0
M  END
$$$$
[H]O[C@]1([H])[C@@]([H])(C([H])([H])OP(=O)(O[H])OP(=O)(O[H])O[H])O[C@@]([H])(n2c([H])nc3c(N([H])[H])nc(N([H])[H])nc3c2=O)[C@]1([H])O[H]
     RDKit          3D

 46 48  0  0  0  0  0  0  0  0999 V2000
   -5.4087    2.6047   -2.6276 N   0  0  0  0  0  0  0  0  0  0  0  0
   -4.8880    1.9998   -1.4500 C   0  0  0  0  0  0  0  0  0  0  0  0
   -5.4262    2.2664   -0.2423 N   0  0  0  0  0  0  0  0  0  0  0  0
   -4.9567    1.7099    0.8932 C   0  0  0  0  0  0  0  0  0  0  0  0
   -5.5334    1.9977    2.1732 N   0  0  0  0  0  0  0  0  0  0  0  0
   -3.8902    0.8473    0.7601 C   0  0  0  0  0  0  0  0  0  0  0  0
   -3.3489    0.2433    1.8164 N   0  0  0  0  0  0  0  0  0  0  0  0
   -2.3102   -0.6020    1.7210 C   0  0  0  0  0  0  0  0  0  0  0  0
   -1.7147   -0.9215    0.5505 N   0  0  0  0  0  0  0  0  0  0  0  0
   -0.6311   -1.8227    0.5718 C   0  0  2  0  0  0  0  0  0  0  0  0
    0.5440   -1.3245    1.1382 O   0  0  0  0  0  0  0  0  0  0  0  0
    1.5539   -2.1941    0.8219 C   0  0  2  0  0  0  0  0  0  0  0  0
    2.6155   -1.4238    0.0639 C   0  0  0  0  0  0  0  0  0  0  0  0
    3.0966   -0.3954    0.8704 O   0  0  0  0  0  0  0  0  0  0  0  0
    4.2757    0.5202    0.1299 P   0  0  0  0  0  0  0  0  0  0  0  0
    4.7409   -0.0941   -1.3700 O   0  0  0  0  0  0  0  0  0  0  0  0
    5.5050    0.6135    1.0022 O   0  0  0  0  0  0  0  0  0  0  0  0
    3.6750    2.0958   -0.0734 O   0  0  0  0  0  0  0  0  0  0  0  0
    4.9461    3.2131   -0.1697 P   0  0  0  0  0  0  0  0  0  0  0  0
    5.1082    3.9329    1.3629 O   0  0  0  0  0  0  0  0  0  0  0  0
    6.3832    2.4451   -0.6236 O   0  0  0  0  0  0  0  0  0  0  0  0
    4.5666    4.2783   -1.1731 O   0  0  0  0  0  0  0  0  0  0  0  0
    0.9919   -3.2740   -0.0887 C   0  0  1  0  0  0  0  0  0  0  0  0
    0.4935   -4.2859    0.7009 O   0  0  0  0  0  0  0  0  0  0  0  0
   -0.1869   -2.4608   -0.6789 C   0  0  1  0  0  0  0  0  0  0  0  0
   -1.0696   -3.3352   -1.2627 O   0  0  0  0  0  0  0  0  0  0  0  0
   -2.2419   -0.3250   -0.5341 C   0  0  0  0  0  0  0  0  0  0  0  0
   -1.7601   -0.5590   -1.6467 O   0  0  0  0  0  0  0  0  0  0  0  0
   -3.3121    0.5512   -0.4720 C   0  0  0  0  0  0  0  0  0  0  0  0
   -3.8439    1.1504   -1.5480 N   0  0  0  0  0  0  0  0  0  0  0  0
   -5.9514    3.4944   -2.5829 H   0  0  0  0  0  0  0  0  0  0  0  0
   -5.2638    2.1774   -3.5713 H   0  0  0  0  0  0  0  0  0  0  0  0
   -6.5101    1.7285    2.4126 H   0  0  0  0  0  0  0  0  0  0  0  0
   -4.9690    2.4854    2.8814 H   0  0  0  0  0  0  0  0  0  0  0  0
   -1.9344   -1.0472    2.6289 H   0  0  0  0  0  0  0  0  0  0  0  0
   -0.9248   -2.6684    1.2692 H   0  0  0  0  0  0  0  0  0  0  0  0
    1.9853   -2.6247    1.7464 H   0  0  0  0  0  0  0  0  0  0  0  0
    2.1565   -0.9450   -0.8257 H   0  0  0  0  0  0  0  0  0  0  0  0
    3.4200   -2.0835   -0.3120 H   0  0  0  0  0  0  0  0  0  0  0  0
    5.2453    0.6155   -1.8507 H   0  0  0  0  0  0  0  0  0  0  0  0
    5.8370    3.5317    1.8773 H   0  0  0  0  0  0  0  0  0  0  0  0
    6.9963    2.4928    0.1287 H   0  0  0  0  0  0  0  0  0  0  0  0
    1.6810   -3.5837   -0.8666 H   0  0  0  0  0  0  0  0  0  0  0  0
    1.1065   -5.0398    0.8104 H   0  0  0  0  0  0  0  0  0  0  0  0
    0.3244   -1.8071   -1.4119 H   0  0  0  0  0  0  0  0  0  0  0  0
   -1.1721   -4.1777   -0.7802 H   0  0  0  0  0  0  0  0  0  0  0  0
  1  2  1  0
  2  3  2  0
  3  4  1  0
  4  5  1  0
  4  6  2  0
  6  7  1  0
  7  8  2  0
  8  9  1  0
  9 10  1  0
 10 11  1  0
 11 12  1  0
 12 13  1  0
 13 14  1  0
 14 15  1  0
 15 16  1  0
 15 17  2  0
 15 18  1  0
 18 19  1  0
 19 20  1  0
 19 21  1  0
 19 22  2  0
 12 23  1  0
 23 24  1  0
 23 25  1  0
 25 26  1  0
  9 27  1  0
 27 28  2  0
 27 29  1  0
 29 30  2  0
 30  2  1  0
 29  6  1  0
 25 10  1  0
  1 31  1  0
  1 32  1  0
  5 33  1  0
  5 34  1  0
  8 35  1  0
 10 36  1  1
 12 37  1  1
 13 38  1  0
 13 39  1  0
 16 40  1  0
 20 41  1  0
 21 42  1  0
 23 43  1  6
 24 44  1  0
 25 45  1  6
 26 46  1  0
M  END
$$$$
[H]O[C@]([H])(c1c([H])c([H])c([H])c([H])c1[H])C([H])([H])N([H])C(=O)c1c(C([H])([H])[H])c(/C([H])=C2\C(=O)N([H])c3c([H])c([H])c(F)c([H])c32)n([H])c1C([H])([H])[H]
     RDKit          3D

 53 56  0  0  0  0  0  0  0  0999 V2000
   -0.0331   -0.4705    3.0093 C   0  0  0  0  0  0  0  0  0  0  0  0
   -0.6525   -0.1847    1.7140 C   0  0  0  0  0  0  0  0  0  0  0  0
   -2.0104   -0.0783    1.5345 N   0  0  0  0  0  0  0  0  0  0  0  0
   -2.2901    0.1901    0.2573 C   0  0  0  0  0  0  0  0  0  0  0  0
   -3.5798    0.3629   -0.3743 C   0  0  0  0  0  0  0  0  0  0  0  0
   -4.5229   -0.5341   -0.3567 C   0  0  0  0  0  0  0  0  0  0  0  0
   -4.5386   -1.8396    0.2401 C   0  0  0  0  0  0  0  0  0  0  0  0
   -3.6026   -2.3905    0.8557 O   0  0  0  0  0  0  0  0  0  0  0  0
   -5.8485   -2.3966   -0.0126 N   0  0  0  0  0  0  0  0  0  0  0  0
   -6.6056   -1.4463   -0.7475 C   0  0  0  0  0  0  0  0  0  0  0  0
   -7.8990   -1.4758   -1.2385 C   0  0  0  0  0  0  0  0  0  0  0  0
   -8.4121   -0.4039   -1.9347 C   0  0  0  0  0  0  0  0  0  0  0  0
   -7.6640    0.7445   -2.1743 C   0  0  0  0  0  0  0  0  0  0  0  0
   -8.1552    1.7980   -2.8534 F   0  0  0  0  0  0  0  0  0  0  0  0
   -6.3794    0.7478   -1.6746 C   0  0  0  0  0  0  0  0  0  0  0  0
   -5.8539   -0.3174   -0.9767 C   0  0  0  0  0  0  0  0  0  0  0  0
   -1.0559    0.2555   -0.3898 C   0  0  0  0  0  0  0  0  0  0  0  0
   -0.9285    0.5367   -1.8338 C   0  0  0  0  0  0  0  0  0  0  0  0
   -0.0322    0.0224    0.5128 C   0  0  0  0  0  0  0  0  0  0  0  0
    1.3627    0.0175    0.1355 C   0  0  0  0  0  0  0  0  0  0  0  0
    1.6447    0.2990   -1.0839 O   0  0  0  0  0  0  0  0  0  0  0  0
    2.4689   -0.2606    0.9431 N   0  0  0  0  0  0  0  0  0  0  0  0
    3.8392   -0.2433    0.5648 C   0  0  0  0  0  0  0  0  0  0  0  0
    4.4660    1.0332    0.1607 C   0  0  2  0  0  0  0  0  0  0  0  0
    3.9211    1.6398   -0.9405 O   0  0  0  0  0  0  0  0  0  0  0  0
    5.9118    0.7598   -0.1875 C   0  0  0  0  0  0  0  0  0  0  0  0
    6.8887    1.0462    0.7252 C   0  0  0  0  0  0  0  0  0  0  0  0
    8.2287    0.7967    0.4114 C   0  0  0  0  0  0  0  0  0  0  0  0
    8.5801    0.2679   -0.8000 C   0  0  0  0  0  0  0  0  0  0  0  0
    7.6078   -0.0200   -1.7150 C   0  0  0  0  0  0  0  0  0  0  0  0
    6.2669    0.2282   -1.4049 C   0  0  0  0  0  0  0  0  0  0  0  0
    0.6342    0.3640    3.3583 H   0  0  0  0  0  0  0  0  0  0  0  0
    0.4628   -1.4595    3.0885 H   0  0  0  0  0  0  0  0  0  0  0  0
   -0.8319   -0.5061    3.7988 H   0  0  0  0  0  0  0  0  0  0  0  0
   -2.7001   -0.1824    2.3104 H   0  0  0  0  0  0  0  0  0  0  0  0
   -3.7591    1.3203   -0.8996 H   0  0  0  0  0  0  0  0  0  0  0  0
   -6.1589   -3.3358    0.3014 H   0  0  0  0  0  0  0  0  0  0  0  0
   -8.4929   -2.3495   -1.0659 H   0  0  0  0  0  0  0  0  0  0  0  0
   -9.4351   -0.4061   -2.3329 H   0  0  0  0  0  0  0  0  0  0  0  0
   -5.7840    1.6324   -1.8517 H   0  0  0  0  0  0  0  0  0  0  0  0
   -1.9118    0.6978   -2.3175 H   0  0  0  0  0  0  0  0  0  0  0  0
   -0.4251   -0.2806   -2.3942 H   0  0  0  0  0  0  0  0  0  0  0  0
   -0.3673    1.4866   -1.9497 H   0  0  0  0  0  0  0  0  0  0  0  0
    2.2908   -0.5180    1.9535 H   0  0  0  0  0  0  0  0  0  0  0  0
    3.9313   -0.9753   -0.3140 H   0  0  0  0  0  0  0  0  0  0  0  0
    4.4786   -0.6828    1.4033 H   0  0  0  0  0  0  0  0  0  0  0  0
    4.4697    1.7931    0.9881 H   0  0  0  0  0  0  0  0  0  0  0  0
    3.8385    2.6218   -0.8788 H   0  0  0  0  0  0  0  0  0  0  0  0
    6.6629    1.4629    1.6910 H   0  0  0  0  0  0  0  0  0  0  0  0
    8.9943    1.0215    1.1277 H   0  0  0  0  0  0  0  0  0  0  0  0
    9.6235    0.0645   -1.0664 H   0  0  0  0  0  0  0  0  0  0  0  0
    7.8513   -0.4434   -2.6935 H   0  0  0  0  0  0  0  0  0  0  0  0
    5.5065   -0.0099   -2.1522 H   0  0  0  0  0  0  0  0  0  0  0  0
  1  2  1  0
  2  3  1  0
  3  4  1  0
  4  5  1  0
  5  6  2  0
  6  7  1  0
  7  8  2  0
  7  9  1  0
  9 10  1  0
 10 11  2  0
 11 12  1  0
 12 13  2  0
 13 14  1  0
 13 15  1  0
 15 16  2  0
  4 17  2  0
 17 18  1  0
 17 19  1  0
 19 20  1  0
 20 21  2  0
 20 22  1  0
 22 23  1  0
 23 24  1  0
 24 25  1  0
 24 26  1  0
 26 27  2  0
 27 28  1  0
 28 29  2  0
 29 30  1  0
 30 31  2  0
 19  2  2  0
 31 26  1  0
 16  6  1  0
 16 10  1  0
  1 32  1  0
  1 33  1  0
  1 34  1  0
  3 35  1  0
  5 36  1  0
  9 37  1  0
 11 38  1  0
 12 39  1  0
 15 40  1  0
 18 41  1  0
 18 42  1  0
 18 43  1  0
 22 44  1  0
 23 45  1  0
 23 46  1  0
 24 47  1  1
 25 48  1  0
 27 49  1  0
 28 50  1  0
 29 51  1  0
 30 52  1  0
 31 53  1  0
M  END
$$$$
[H]N=C(N([H])[H])N([H])C([H])([H])C([H])([H])C([H])([H])[C@@]1([H])C(=O)N([H])[C@@]([H])(C([H])([H])c2c([H])c([H])c([H])c([H])c2[H])C(=O)N2C([H])([H])C([H])([H])C([H])([H])[C@@]2([H])C(=O)N([H])[C@@]([H])(C([H])([H])c2c([H])c([H])c(O[H])c([H])c2[H])C(=O)N1[H]
     RDKit          3D

 78 81  0  0  0  0  0  0  0  0999 V2000
   -4.7984    4.7536    0.7181 N   0  0  0  0  0  0  0  0  0  0  0  0
   -3.8478    5.7191    0.3358 C   0  0  0  0  0  0  0  0  0  0  0  0
   -4.1992    6.8798   -0.0708 N   0  0  0  0  0  0  0  0  0  0  0  0
   -2.4615    5.4075    0.3994 N   0  0  0  0  0  0  0  0  0  0  0  0
   -2.0409    4.4167    1.3766 C   0  0  0  0  0  0  0  0  0  0  0  0
   -0.5841    4.2269    1.3000 C   0  0  0  0  0  0  0  0  0  0  0  0
    0.0427    3.7296    0.0538 C   0  0  0  0  0  0  0  0  0  0  0  0
   -0.2973    2.3477   -0.4004 C   0  0  2  0  0  0  0  0  0  0  0  0
    0.5077    2.1455   -1.6105 N   0  0  0  0  0  0  0  0  0  0  0  0
    1.5168    1.2251   -1.8318 C   0  0  0  0  0  0  0  0  0  0  0  0
    1.6160    0.8139   -3.0255 O   0  0  0  0  0  0  0  0  0  0  0  0
    2.4911    0.6600   -0.8678 C   0  0  2  0  0  0  0  0  0  0  0  0
    3.5318   -0.1145   -1.6411 C   0  0  0  0  0  0  0  0  0  0  0  0
    4.5910   -0.7341   -0.8671 C   0  0  0  0  0  0  0  0  0  0  0  0
    5.7123    0.0404   -0.5509 C   0  0  0  0  0  0  0  0  0  0  0  0
    6.7814   -0.4610    0.1580 C   0  0  0  0  0  0  0  0  0  0  0  0
    6.7873   -1.7524    0.5854 C   0  0  0  0  0  0  0  0  0  0  0  0
    7.8644   -2.2626    1.3013 O   0  0  0  0  0  0  0  0  0  0  0  0
    5.7021   -2.5532    0.2961 C   0  0  0  0  0  0  0  0  0  0  0  0
    4.6358   -2.0305   -0.4183 C   0  0  0  0  0  0  0  0  0  0  0  0
    1.9798    0.0819    0.3055 N   0  0  0  0  0  0  0  0  0  0  0  0
    1.4035   -1.1128    0.7016 C   0  0  0  0  0  0  0  0  0  0  0  0
    1.8844   -1.6569    1.8111 O   0  0  0  0  0  0  0  0  0  0  0  0
    0.3502   -1.9932    0.2139 C   0  0  2  0  0  0  0  0  0  0  0  0
    0.8665   -3.4283    0.1215 C   0  0  0  0  0  0  0  0  0  0  0  0
    0.8880   -3.6822   -1.3469 C   0  0  0  0  0  0  0  0  0  0  0  0
    0.1836   -2.5523   -2.0089 C   0  0  0  0  0  0  0  0  0  0  0  0
   -0.3984   -1.7332   -0.9304 N   0  0  0  0  0  0  0  0  0  0  0  0
   -1.5348   -0.8777   -1.0748 C   0  0  0  0  0  0  0  0  0  0  0  0
   -2.0044   -0.6255   -2.2417 O   0  0  0  0  0  0  0  0  0  0  0  0
   -2.2637   -0.2205    0.0176 C   0  0  2  0  0  0  0  0  0  0  0  0
   -3.5776   -0.9536    0.1839 C   0  0  0  0  0  0  0  0  0  0  0  0
   -3.4953   -2.3583    0.5095 C   0  0  0  0  0  0  0  0  0  0  0  0
   -3.4514   -3.3209   -0.4720 C   0  0  0  0  0  0  0  0  0  0  0  0
   -3.3718   -4.6813   -0.1523 C   0  0  0  0  0  0  0  0  0  0  0  0
   -3.3364   -5.0704    1.1533 C   0  0  0  0  0  0  0  0  0  0  0  0
   -3.3800   -4.1122    2.1355 C   0  0  0  0  0  0  0  0  0  0  0  0
   -3.4581   -2.7816    1.8095 C   0  0  0  0  0  0  0  0  0  0  0  0
   -2.5991    1.1716   -0.3029 N   0  0  0  0  0  0  0  0  0  0  0  0
   -1.6868    2.1133   -0.8458 C   0  0  0  0  0  0  0  0  0  0  0  0
   -2.1022    2.8257   -1.8152 O   0  0  0  0  0  0  0  0  0  0  0  0
   -5.5814    5.0001    1.3570 H   0  0  0  0  0  0  0  0  0  0  0  0
   -4.7115    3.7967    0.3580 H   0  0  0  0  0  0  0  0  0  0  0  0
   -5.2127    7.1103   -0.1181 H   0  0  0  0  0  0  0  0  0  0  0  0
   -1.7479    5.8506   -0.2127 H   0  0  0  0  0  0  0  0  0  0  0  0
   -2.2307    4.9229    2.3946 H   0  0  0  0  0  0  0  0  0  0  0  0
   -2.6767    3.5353    1.4121 H   0  0  0  0  0  0  0  0  0  0  0  0
   -0.2900    3.5056    2.1357 H   0  0  0  0  0  0  0  0  0  0  0  0
   -0.1079    5.1847    1.6575 H   0  0  0  0  0  0  0  0  0  0  0  0
    1.1693    3.7913    0.1730 H   0  0  0  0  0  0  0  0  0  0  0  0
   -0.1499    4.4500   -0.7974 H   0  0  0  0  0  0  0  0  0  0  0  0
   -0.0042    1.6832    0.4310 H   0  0  0  0  0  0  0  0  0  0  0  0
    0.2524    2.8111   -2.3923 H   0  0  0  0  0  0  0  0  0  0  0  0
    3.0984    1.6259   -0.6165 H   0  0  0  0  0  0  0  0  0  0  0  0
    3.0395   -0.9139   -2.2627 H   0  0  0  0  0  0  0  0  0  0  0  0
    4.0231    0.5461   -2.4108 H   0  0  0  0  0  0  0  0  0  0  0  0
    5.7805    1.0813   -0.8584 H   0  0  0  0  0  0  0  0  0  0  0  0
    7.6345    0.1878    0.3791 H   0  0  0  0  0  0  0  0  0  0  0  0
    7.8862   -2.2073    2.3214 H   0  0  0  0  0  0  0  0  0  0  0  0
    5.7355   -3.5692    0.6470 H   0  0  0  0  0  0  0  0  0  0  0  0
    3.8129   -2.6657   -0.6301 H   0  0  0  0  0  0  0  0  0  0  0  0
    2.0607    0.7725    1.1649 H   0  0  0  0  0  0  0  0  0  0  0  0
   -0.4283   -2.0827    1.0660 H   0  0  0  0  0  0  0  0  0  0  0  0
    1.8656   -3.5275    0.5945 H   0  0  0  0  0  0  0  0  0  0  0  0
    0.1748   -4.1540    0.5764 H   0  0  0  0  0  0  0  0  0  0  0  0
    1.9593   -3.7742   -1.6651 H   0  0  0  0  0  0  0  0  0  0  0  0
    0.4440   -4.6800   -1.6067 H   0  0  0  0  0  0  0  0  0  0  0  0
    0.9116   -1.9122   -2.5290 H   0  0  0  0  0  0  0  0  0  0  0  0
   -0.5980   -2.8929   -2.7180 H   0  0  0  0  0  0  0  0  0  0  0  0
   -1.7537   -0.2076    0.9821 H   0  0  0  0  0  0  0  0  0  0  0  0
   -4.1540   -0.7558   -0.7663 H   0  0  0  0  0  0  0  0  0  0  0  0
   -4.1496   -0.3738    0.9650 H   0  0  0  0  0  0  0  0  0  0  0  0
   -3.4767   -3.0631   -1.5206 H   0  0  0  0  0  0  0  0  0  0  0  0
   -3.3368   -5.4452   -0.9187 H   0  0  0  0  0  0  0  0  0  0  0  0
   -3.2735   -6.1439    1.3904 H   0  0  0  0  0  0  0  0  0  0  0  0
   -3.3513   -4.4335    3.1670 H   0  0  0  0  0  0  0  0  0  0  0  0
   -3.4904   -2.0605    2.6040 H   0  0  0  0  0  0  0  0  0  0  0  0
   -3.5705    1.5185   -0.1281 H   0  0  0  0  0  0  0  0  0  0  0  0
  1  2  1  0
  2  3  2  3
  2  4  1  0
  4  5  1  0
  5  6  1  0
  6  7  1  0
  7  8  1  0
  8  9  1  0
  9 10  1  0
 10 11  2  0
 10 12  1  0
 12 13  1  0
 13 14  1  0
 14 15  2  0
 15 16  1  0
 16 17  2  0
 17 18  1  0
 17 19  1  0
 19 20  2  0
 12 21  1  0
 21 22  1  0
 22 23  2  0
 22 24  1  0
 24 25  1  0
 25 26  1  0
 26 27  1  0
 27 28  1  0
 28 29  1  0
 29 30  2  0
 29 31  1  0
 31 32  1  0
 32 33  1  0
 33 34  2  0
 34 35  1  0
 35 36  2  0
 36 37  1  0
 37 38  2  0
 31 39  1  0
 39 40  1  0
 40 41  2  0
 40  8  1  0
 20 14  1  0
 28 24  1  0
 38 33  1  0
  1 42  1  0
  1 43  1  0
  3 44  1  0
  4 45  1  0
  5 46  1  0
  5 47  1  0
  6 48  1  0
  6 49  1  0
  7 50  1  0
  7 51  1  0
  8 52  1  1
  9 53  1  0
 12 54  1  1
 13 55  1  0
 13 56  1  0
 15 57  1  0
 16 58  1  0
 18 59  1  0
 19 60  1  0
 20 61  1  0
 21 62  1  0
 24 63  1  1
 25 64  1  0
 25 65  1  0
 26 66  1  0
 26 67  1  0
 27 68  1  0
 27 69  1  0
 31 70  1  1
 32 71  1  0
 32 72  1  0
 34 73  1  0
 35 74  1  0
 36 75  1  0
 37 76  1  0
 38 77  1  0
 39 78  1  0
M  END
$$$$
[H]c1nc2c(N3C([H])([H])C([H])([H])OC([H])([H])C3([H])[H])c([H])c(-c3c([H])c(N([H])C(=O)c4c([H])c([H])c([H])c(C(F)(F)F)c4[H])c([H])c([H])c3C([H])([H])[H])nn2c1[H]
     RDKit          3D

 57 61  0  0  0  0  0  0  0  0999 V2000
   -1.1930    1.7150    1.7598 C   0  0  0  0  0  0  0  0  0  0  0  0
   -0.1493    1.3642    0.7676 C   0  0  0  0  0  0  0  0  0  0  0  0
    1.0387    2.0661    0.7756 C   0  0  0  0  0  0  0  0  0  0  0  0
    2.0862    1.6926   -0.0519 C   0  0  0  0  0  0  0  0  0  0  0  0
    1.9407    0.5757   -0.9091 C   0  0  0  0  0  0  0  0  0  0  0  0
    3.1822    0.2428   -1.5970 N   0  0  0  0  0  0  0  0  0  0  0  0
    4.3088    0.0937   -0.8030 C   0  0  0  0  0  0  0  0  0  0  0  0
    3.9902    0.2108    0.5205 O   0  0  0  0  0  0  0  0  0  0  0  0
    5.6860   -0.1352   -0.9604 C   0  0  0  0  0  0  0  0  0  0  0  0
    6.2937   -0.8878   -1.9514 C   0  0  0  0  0  0  0  0  0  0  0  0
    7.6331   -1.0650   -2.0427 C   0  0  0  0  0  0  0  0  0  0  0  0
    8.4822   -0.4731   -1.1058 C   0  0  0  0  0  0  0  0  0  0  0  0
    7.9484    0.2870   -0.0933 C   0  0  0  0  0  0  0  0  0  0  0  0
    6.6027    0.4411   -0.0451 C   0  0  0  0  0  0  0  0  0  0  0  0
    8.7868    0.9302    0.9911 C   0  0  0  0  0  0  0  0  0  0  0  0
   10.0643    0.4604    0.9355 F   0  0  0  0  0  0  0  0  0  0  0  0
    8.7307    2.3163    0.8363 F   0  0  0  0  0  0  0  0  0  0  0  0
    8.2474    0.6495    2.2043 F   0  0  0  0  0  0  0  0  0  0  0  0
    0.7722   -0.0927   -0.8954 C   0  0  0  0  0  0  0  0  0  0  0  0
   -0.2757    0.2524   -0.0987 C   0  0  0  0  0  0  0  0  0  0  0  0
   -1.5138   -0.5146    0.0116 C   0  0  0  0  0  0  0  0  0  0  0  0
   -2.7617    0.0866   -0.1449 C   0  0  0  0  0  0  0  0  0  0  0  0
   -3.9316   -0.6317    0.0209 C   0  0  0  0  0  0  0  0  0  0  0  0
   -5.1879   -0.0427   -0.1809 N   0  0  0  0  0  0  0  0  0  0  0  0
   -6.4180   -0.7114    0.2268 C   0  0  0  0  0  0  0  0  0  0  0  0
   -7.6344    0.1647    0.0241 C   0  0  0  0  0  0  0  0  0  0  0  0
   -7.4891    1.4282    0.5529 O   0  0  0  0  0  0  0  0  0  0  0  0
   -6.2357    1.9976    0.3052 C   0  0  0  0  0  0  0  0  0  0  0  0
   -5.4317    1.2701   -0.7519 C   0  0  0  0  0  0  0  0  0  0  0  0
   -3.8096   -1.9783    0.3536 C   0  0  0  0  0  0  0  0  0  0  0  0
   -4.7389   -2.9531    0.6222 N   0  0  0  0  0  0  0  0  0  0  0  0
   -4.0808   -4.0967    0.9275 C   0  0  0  0  0  0  0  0  0  0  0  0
   -2.7373   -3.8047    0.8461 C   0  0  0  0  0  0  0  0  0  0  0  0
   -2.5949   -2.4954    0.4896 N   0  0  0  0  0  0  0  0  0  0  0  0
   -1.4805   -1.8064    0.3239 N   0  0  0  0  0  0  0  0  0  0  0  0
   -1.5206    0.7286    2.2911 H   0  0  0  0  0  0  0  0  0  0  0  0
   -0.6496    2.3305    2.5469 H   0  0  0  0  0  0  0  0  0  0  0  0
   -2.0488    2.2415    1.4028 H   0  0  0  0  0  0  0  0  0  0  0  0
    1.1825    2.9308    1.4408 H   0  0  0  0  0  0  0  0  0  0  0  0
    2.9598    2.3126   -0.0613 H   0  0  0  0  0  0  0  0  0  0  0  0
    3.1597    0.1762   -2.6268 H   0  0  0  0  0  0  0  0  0  0  0  0
    5.6245   -1.3343   -2.6912 H   0  0  0  0  0  0  0  0  0  0  0  0
    8.1626   -1.6445   -2.8169 H   0  0  0  0  0  0  0  0  0  0  0  0
    9.5438   -0.5749   -1.1403 H   0  0  0  0  0  0  0  0  0  0  0  0
    6.1845    1.0269    0.7500 H   0  0  0  0  0  0  0  0  0  0  0  0
    0.6551   -0.9497   -1.5605 H   0  0  0  0  0  0  0  0  0  0  0  0
   -2.7672    1.1497   -0.4147 H   0  0  0  0  0  0  0  0  0  0  0  0
   -6.3474   -1.0058    1.2642 H   0  0  0  0  0  0  0  0  0  0  0  0
   -6.5719   -1.5582   -0.5134 H   0  0  0  0  0  0  0  0  0  0  0  0
   -8.4882   -0.3311    0.5250 H   0  0  0  0  0  0  0  0  0  0  0  0
   -7.9038    0.1740   -1.0900 H   0  0  0  0  0  0  0  0  0  0  0  0
   -5.6473    2.0296    1.2539 H   0  0  0  0  0  0  0  0  0  0  0  0
   -6.4411    3.0274   -0.0011 H   0  0  0  0  0  0  0  0  0  0  0  0
   -6.1194    1.2034   -1.6547 H   0  0  0  0  0  0  0  0  0  0  0  0
   -4.5508    1.8520   -0.9556 H   0  0  0  0  0  0  0  0  0  0  0  0
   -4.5992   -5.0120    1.1467 H   0  0  0  0  0  0  0  0  0  0  0  0
   -1.9476   -4.4620    1.0414 H   0  0  0  0  0  0  0  0  0  0  0  0
  1  2  1  0
  2  3  2  0
  3  4  1  0
  4  5  2  0
  5  6  1  0
  6  7  1  0
  7  8  2  0
  7  9  1  0
  9 10  2  0
 10 11  1  0
 11 12  2  0
 12 13  1  0
 13 14  2  0
 13 15  1  0
 15 16  1  0
 15 17  1  0
 15 18  1  0
  5 19  1  0
 19 20  2  0
 20 21  1  0
 21 22  1  0
 22 23  2  0
 23 24  1  0
 24 25  1  0
 25 26  1  0
 26 27  1  0
 27 28  1  0
 28 29  1  0
 23 30  1  0
 30 31  2  0
 31 32  1  0
 32 33  2  0
 33 34  1  0
 34 35  1  0
 20  2  1  0
 35 21  2  0
 14  9  1  0
 29 24  1  0
 34 30  1  0
  1 36  1  0
  1 37  1  0
  1 38  1  0
  3 39  1  0
  4 40  1  0
  6 41  1  0
 10 42  1  0
 11 43  1  0
 12 44  1  0
 14 45  1  0
 19 46  1  0
 22 47  1  0
 25 48  1  0
 25 49  1  0
 26 50  1  0
 26 51  1  0
 28 52  1  0
 28 53  1  0
 29 54  1  0
 29 55  1  0
 32 56  1  0
 33 57  1  0
M  END
$$$$
[H]N=C(N([H])[H])N([H])C([H])([H])C([H])([H])C([H])([H])[C@@]1([H])C(=O)N([H])[C@@]([H])(C([H])([H])c2c([H])n([H])c3c([H])c([H])c([H])c([H])c23)C(=O)N([H])[C@@]([H])([C@@]([H])(C([H])([H])[H])C([H])([H])C([H])([H])[H])C(=O)N([H])[C@@]([H])(C(=O)N([H])[H])C(=O)N1[H]
     RDKit          3D

 77 79  0  0  0  0  0  0  0  0999 V2000
   -4.3343   -4.5261    1.3844 C   0  0  0  0  0  0  0  0  0  0  0  0
   -3.1775   -3.8633    0.6880 C   0  0  0  0  0  0  0  0  0  0  0  0
   -3.5334   -2.4234    0.4266 C   0  0  2  0  0  0  0  0  0  0  0  0
   -4.7389   -2.3048   -0.4317 C   0  0  0  0  0  0  0  0  0  0  0  0
   -2.3335   -1.5999   -0.0421 C   0  0  2  0  0  0  0  0  0  0  0  0
   -2.7573   -0.2432   -0.2488 N   0  0  0  0  0  0  0  0  0  0  0  0
   -2.0860    0.9598    0.0858 C   0  0  0  0  0  0  0  0  0  0  0  0
   -2.6258    1.7036    0.9883 O   0  0  0  0  0  0  0  0  0  0  0  0
   -0.8431    1.5138   -0.4358 C   0  0  2  0  0  0  0  0  0  0  0  0
   -0.7787    2.9299   -0.8594 C   0  0  0  0  0  0  0  0  0  0  0  0
   -1.1070    4.0007    0.0599 C   0  0  0  0  0  0  0  0  0  0  0  0
   -0.2974    4.5549    1.0622 C   0  0  0  0  0  0  0  0  0  0  0  0
   -0.9813    5.4818    1.7420 N   0  0  0  0  0  0  0  0  0  0  0  0
   -2.2248    5.5786    1.2380 C   0  0  0  0  0  0  0  0  0  0  0  0
   -3.2659    6.4097    1.5864 C   0  0  0  0  0  0  0  0  0  0  0  0
   -4.4320    6.3409    0.8805 C   0  0  0  0  0  0  0  0  0  0  0  0
   -4.5749    5.4495   -0.1703 C   0  0  0  0  0  0  0  0  0  0  0  0
   -3.5181    4.6369   -0.4871 C   0  0  0  0  0  0  0  0  0  0  0  0
   -2.3034    4.6676    0.2022 C   0  0  0  0  0  0  0  0  0  0  0  0
   -0.3610    0.7588   -1.6013 N   0  0  0  0  0  0  0  0  0  0  0  0
    0.9634    0.3903   -1.8287 C   0  0  0  0  0  0  0  0  0  0  0  0
    1.4907    0.5743   -2.9826 O   0  0  0  0  0  0  0  0  0  0  0  0
    1.8714   -0.2245   -0.8242 C   0  0  2  0  0  0  0  0  0  0  0  0
    3.1210    0.6260   -0.8536 C   0  0  0  0  0  0  0  0  0  0  0  0
    4.1977    0.1984    0.0776 C   0  0  0  0  0  0  0  0  0  0  0  0
    5.3516    1.1973   -0.1279 C   0  0  0  0  0  0  0  0  0  0  0  0
    6.4798    0.9102    0.7024 N   0  0  0  0  0  0  0  0  0  0  0  0
    7.3058   -0.2227    0.5433 C   0  0  0  0  0  0  0  0  0  0  0  0
    7.7754   -0.9191    1.6768 N   0  0  0  0  0  0  0  0  0  0  0  0
    7.6312   -0.6172   -0.6271 N   0  0  0  0  0  0  0  0  0  0  0  0
    2.1386   -1.5798   -1.2622 N   0  0  0  0  0  0  0  0  0  0  0  0
    1.7997   -2.7752   -0.6552 C   0  0  0  0  0  0  0  0  0  0  0  0
    2.7463   -3.5900   -0.3583 O   0  0  0  0  0  0  0  0  0  0  0  0
    0.4181   -3.2562   -0.2876 C   0  0  1  0  0  0  0  0  0  0  0  0
   -0.5588   -3.0038   -1.2894 N   0  0  0  0  0  0  0  0  0  0  0  0
   -1.7778   -2.3048   -1.1955 C   0  0  0  0  0  0  0  0  0  0  0  0
   -2.4988   -2.2795   -2.2581 O   0  0  0  0  0  0  0  0  0  0  0  0
    0.4745   -4.7473   -0.0663 C   0  0  0  0  0  0  0  0  0  0  0  0
    1.3309   -5.3288    0.9040 N   0  0  0  0  0  0  0  0  0  0  0  0
   -0.2697   -5.4629   -0.7738 O   0  0  0  0  0  0  0  0  0  0  0  0
   -5.1647   -3.8257    1.5924 H   0  0  0  0  0  0  0  0  0  0  0  0
   -4.0482   -4.9469    2.3852 H   0  0  0  0  0  0  0  0  0  0  0  0
   -4.7579   -5.3456    0.7548 H   0  0  0  0  0  0  0  0  0  0  0  0
   -2.9069   -4.4164   -0.2138 H   0  0  0  0  0  0  0  0  0  0  0  0
   -2.3083   -3.8628    1.3783 H   0  0  0  0  0  0  0  0  0  0  0  0
   -3.7961   -1.9756    1.4311 H   0  0  0  0  0  0  0  0  0  0  0  0
   -5.1056   -3.3262   -0.7797 H   0  0  0  0  0  0  0  0  0  0  0  0
   -4.6664   -1.7200   -1.3412 H   0  0  0  0  0  0  0  0  0  0  0  0
   -5.6296   -1.8985    0.1391 H   0  0  0  0  0  0  0  0  0  0  0  0
   -1.6023   -1.7384    0.7929 H   0  0  0  0  0  0  0  0  0  0  0  0
   -3.7151   -0.1128   -0.6967 H   0  0  0  0  0  0  0  0  0  0  0  0
   -0.0357    1.3286    0.3376 H   0  0  0  0  0  0  0  0  0  0  0  0
   -1.4067    2.9949   -1.8125 H   0  0  0  0  0  0  0  0  0  0  0  0
    0.2586    3.1721   -1.2819 H   0  0  0  0  0  0  0  0  0  0  0  0
    0.7295    4.2178    1.1975 H   0  0  0  0  0  0  0  0  0  0  0  0
   -0.6251    6.0569    2.5464 H   0  0  0  0  0  0  0  0  0  0  0  0
   -3.1762    7.1063    2.3961 H   0  0  0  0  0  0  0  0  0  0  0  0
   -5.2943    6.9921    1.1251 H   0  0  0  0  0  0  0  0  0  0  0  0
   -5.4734    5.3562   -0.7573 H   0  0  0  0  0  0  0  0  0  0  0  0
   -3.5369    3.9076   -1.2965 H   0  0  0  0  0  0  0  0  0  0  0  0
   -1.0894    0.5021   -2.3024 H   0  0  0  0  0  0  0  0  0  0  0  0
    1.4228   -0.1555    0.1635 H   0  0  0  0  0  0  0  0  0  0  0  0
    2.8589    1.6802   -0.6463 H   0  0  0  0  0  0  0  0  0  0  0  0
    3.5360    0.6380   -1.9049 H   0  0  0  0  0  0  0  0  0  0  0  0
    4.6326   -0.7839   -0.1347 H   0  0  0  0  0  0  0  0  0  0  0  0
    3.8542    0.3291    1.1178 H   0  0  0  0  0  0  0  0  0  0  0  0
    4.9515    2.1947    0.1030 H   0  0  0  0  0  0  0  0  0  0  0  0
    5.6048    1.2199   -1.2289 H   0  0  0  0  0  0  0  0  0  0  0  0
    6.7276    1.5753    1.4864 H   0  0  0  0  0  0  0  0  0  0  0  0
    7.6775   -1.9548    1.7800 H   0  0  0  0  0  0  0  0  0  0  0  0
    8.2499   -0.4107    2.4725 H   0  0  0  0  0  0  0  0  0  0  0  0
    8.2398   -1.4490   -0.8025 H   0  0  0  0  0  0  0  0  0  0  0  0
    2.6820   -1.6310   -2.1815 H   0  0  0  0  0  0  0  0  0  0  0  0
    0.2080   -2.8170    0.6924 H   0  0  0  0  0  0  0  0  0  0  0  0
   -0.3106   -3.4121   -2.2426 H   0  0  0  0  0  0  0  0  0  0  0  0
    1.9307   -6.1257    0.6385 H   0  0  0  0  0  0  0  0  0  0  0  0
    1.3684   -4.9740    1.8708 H   0  0  0  0  0  0  0  0  0  0  0  0
  1  2  1  0
  2  3  1  0
  3  4  1  0
  3  5  1  0
  5  6  1  0
  6  7  1  0
  7  8  2  0
  7  9  1  0
  9 10  1  0
 10 11  1  0
 11 12  2  0
 12 13  1  0
 13 14  1  0
 14 15  2  0
 15 16  1  0
 16 17  2  0
 17 18  1  0
 18 19  2  0
  9 20  1  0
 20 21  1  0
 21 22  2  0
 21 23  1  0
 23 24  1  0
 24 25  1  0
 25 26  1  0
 26 27  1  0
 27 28  1  0
 28 29  1  0
 28 30  2  3
 23 31  1  0
 31 32  1  0
 32 33  2  0
 32 34  1  0
 34 35  1  0
 35 36  1  0
 36 37  2  0
 34 38  1  0
 38 39  1  0
 38 40  2  0
 36  5  1  0
 19 11  1  0
 19 14  1  0
  1 41  1  0
  1 42  1  0
  1 43  1  0
  2 44  1  0
  2 45  1  0
  3 46  1  1
  4 47  1  0
  4 48  1  0
  4 49  1  0
  5 50  1  1
  6 51  1  0
  9 52  1  1
 10 53  1  0
 10 54  1  0
 12 55  1  0
 13 56  1  0
 15 57  1  0
 16 58  1  0
 17 59  1  0
 18 60  1  0
 20 61  1  0
 23 62  1  1
 24 63  1  0
 24 64  1  0
 25 65  1  0
 25 66  1  0
 26 67  1  0
 26 68  1  0
 27 69  1  0
 29 70  1  0
 29 71  1  0
 30 72  1  0
 31 73  1  0
 34 74  1  1
 35 75  1  0
 39 76  1  0
 39 77  1  0
M  END
$$$$
[H]N=C(N([H])[H])N([H])C([H])([H])C([H])([H])C([H])([H])[C@@]([H])(C(=O)N([H])[C@]([H])(C(=O)N([H])[C@]([H])(C(=O)N([H])[C@]([H])(C(=O)O[H])C([H])([H])C([H])([H])C(=O)N([H])[H])C([H])([H])C([H])([H])C(=O)N([H])[H])C([H])([H])C([H])([H])C(=O)N([H])[H])N([H])C(=O)[C@@]([H])(N([H])C(=O)[C@@]([H])(N([H])[H])C([H])([H])C([H])([H])C(=O)O[H])C([H])([H])C([H])([H])C(=O)N([H])[H]
     RDKit          3D

110109  0  0  0  0  0  0  0  0999 V2000
   -2.6370   -6.8247   -3.4862 N   0  0  0  0  0  0  0  0  0  0  0  0
   -3.4991   -6.3033   -2.4974 C   0  0  0  0  0  0  0  0  0  0  0  0
   -4.2115   -7.0916   -1.7556 N   0  0  0  0  0  0  0  0  0  0  0  0
   -3.6312   -4.9199   -2.3205 N   0  0  0  0  0  0  0  0  0  0  0  0
   -3.0685   -4.2606   -1.1324 C   0  0  0  0  0  0  0  0  0  0  0  0
   -1.6125   -4.1853   -1.1021 C   0  0  0  0  0  0  0  0  0  0  0  0
   -0.9239   -3.5579    0.0580 C   0  0  0  0  0  0  0  0  0  0  0  0
   -1.2540   -2.1510    0.3895 C   0  0  2  0  0  0  0  0  0  0  0  0
   -2.5732   -1.9161    0.8124 N   0  0  0  0  0  0  0  0  0  0  0  0
   -3.1938   -0.6558    1.0599 C   0  0  0  0  0  0  0  0  0  0  0  0
   -2.4176    0.3313    0.7724 O   0  0  0  0  0  0  0  0  0  0  0  0
   -4.4884   -0.3651    1.5729 C   0  0  2  0  0  0  0  0  0  0  0  0
   -5.4818   -1.4013    1.9150 C   0  0  0  0  0  0  0  0  0  0  0  0
   -6.0425   -2.2953    0.8936 C   0  0  0  0  0  0  0  0  0  0  0  0
   -7.0209   -3.2070    1.6143 C   0  0  0  0  0  0  0  0  0  0  0  0
   -8.1910   -3.7222    1.0883 N   0  0  0  0  0  0  0  0  0  0  0  0
   -6.7163   -3.5180    2.8390 O   0  0  0  0  0  0  0  0  0  0  0  0
   -5.1633    0.7462    0.8867 N   0  0  0  0  0  0  0  0  0  0  0  0
   -5.8660    1.7587    1.5626 C   0  0  0  0  0  0  0  0  0  0  0  0
   -5.8614    1.6670    2.8393 O   0  0  0  0  0  0  0  0  0  0  0  0
   -6.5775    2.8546    0.9343 C   0  0  1  0  0  0  0  0  0  0  0  0
   -7.3208    3.6050    1.9697 N   0  0  0  0  0  0  0  0  0  0  0  0
   -5.7914    3.8253    0.1358 C   0  0  0  0  0  0  0  0  0  0  0  0
   -4.7154    4.5694    0.8803 C   0  0  0  0  0  0  0  0  0  0  0  0
   -4.0192    5.4849   -0.0473 C   0  0  0  0  0  0  0  0  0  0  0  0
   -2.8337    5.0957   -0.6134 O   0  0  0  0  0  0  0  0  0  0  0  0
   -4.5549    6.5878   -0.2757 O   0  0  0  0  0  0  0  0  0  0  0  0
   -0.8083   -1.3660   -0.8506 C   0  0  0  0  0  0  0  0  0  0  0  0
   -1.5802   -1.3386   -1.8171 O   0  0  0  0  0  0  0  0  0  0  0  0
    0.4243   -0.7430   -0.8300 N   0  0  0  0  0  0  0  0  0  0  0  0
    1.2585    0.0152   -1.6686 C   0  0  1  0  0  0  0  0  0  0  0  0
    0.9251    1.4648   -1.8091 C   0  0  0  0  0  0  0  0  0  0  0  0
   -0.4448    1.6749   -2.4206 C   0  0  0  0  0  0  0  0  0  0  0  0
   -0.5980    3.1573   -2.6593 C   0  0  0  0  0  0  0  0  0  0  0  0
   -1.4023    3.6931   -3.6854 N   0  0  0  0  0  0  0  0  0  0  0  0
    0.0279    3.9279   -1.8894 O   0  0  0  0  0  0  0  0  0  0  0  0
    2.6888   -0.2533   -1.3340 C   0  0  0  0  0  0  0  0  0  0  0  0
    3.0891   -1.4341   -1.2796 O   0  0  0  0  0  0  0  0  0  0  0  0
    3.6330    0.8169   -1.0469 N   0  0  0  0  0  0  0  0  0  0  0  0
    4.9612    0.5362   -0.6833 C   0  0  1  0  0  0  0  0  0  0  0  0
    6.0490    1.1131   -1.4603 C   0  0  0  0  0  0  0  0  0  0  0  0
    6.2625    0.8829   -2.8912 C   0  0  0  0  0  0  0  0  0  0  0  0
    5.3198    1.3354   -3.8840 C   0  0  0  0  0  0  0  0  0  0  0  0
    5.5329    0.9891   -5.2541 N   0  0  0  0  0  0  0  0  0  0  0  0
    4.3174    2.0181   -3.6310 O   0  0  0  0  0  0  0  0  0  0  0  0
    5.1588    0.8841    0.8066 C   0  0  0  0  0  0  0  0  0  0  0  0
    4.2230    1.5991    1.2508 O   0  0  0  0  0  0  0  0  0  0  0  0
    6.2564    0.4384    1.5394 N   0  0  0  0  0  0  0  0  0  0  0  0
    7.3142    0.0117    2.2539 C   0  0  1  0  0  0  0  0  0  0  0  0
    7.4347    0.5868    3.6825 C   0  0  0  0  0  0  0  0  0  0  0  0
    7.6672    2.0869    3.5356 C   0  0  0  0  0  0  0  0  0  0  0  0
    7.7259    2.7792    4.8220 C   0  0  0  0  0  0  0  0  0  0  0  0
    8.8297    3.5859    5.1795 N   0  0  0  0  0  0  0  0  0  0  0  0
    6.7330    2.6346    5.6218 O   0  0  0  0  0  0  0  0  0  0  0  0
    7.4540   -1.4383    2.4024 C   0  0  0  0  0  0  0  0  0  0  0  0
    8.5304   -1.9600    3.0971 O   0  0  0  0  0  0  0  0  0  0  0  0
    6.6179   -2.2145    1.9142 O   0  0  0  0  0  0  0  0  0  0  0  0
   -2.1944   -7.7700   -3.2954 H   0  0  0  0  0  0  0  0  0  0  0  0
   -2.4561   -6.2928   -4.3614 H   0  0  0  0  0  0  0  0  0  0  0  0
   -4.1993   -8.1248   -1.8329 H   0  0  0  0  0  0  0  0  0  0  0  0
   -4.1262   -4.3468   -3.0346 H   0  0  0  0  0  0  0  0  0  0  0  0
   -3.4415   -4.7527   -0.1915 H   0  0  0  0  0  0  0  0  0  0  0  0
   -3.5222   -3.2383   -1.1338 H   0  0  0  0  0  0  0  0  0  0  0  0
   -1.2229   -3.7076   -2.0647 H   0  0  0  0  0  0  0  0  0  0  0  0
   -1.2196   -5.2691   -1.2575 H   0  0  0  0  0  0  0  0  0  0  0  0
   -1.1971   -4.1686    0.9754 H   0  0  0  0  0  0  0  0  0  0  0  0
    0.1961   -3.6353   -0.0737 H   0  0  0  0  0  0  0  0  0  0  0  0
   -0.5394   -1.7355    1.1662 H   0  0  0  0  0  0  0  0  0  0  0  0
   -3.1830   -2.7475    1.0232 H   0  0  0  0  0  0  0  0  0  0  0  0
   -4.2896    0.1470    2.6179 H   0  0  0  0  0  0  0  0  0  0  0  0
   -5.0317   -2.0924    2.7222 H   0  0  0  0  0  0  0  0  0  0  0  0
   -6.3525   -0.9576    2.4994 H   0  0  0  0  0  0  0  0  0  0  0  0
   -5.3489   -2.9671    0.3856 H   0  0  0  0  0  0  0  0  0  0  0  0
   -6.7060   -1.7658    0.1504 H   0  0  0  0  0  0  0  0  0  0  0  0
   -8.5681   -4.6869    1.3755 H   0  0  0  0  0  0  0  0  0  0  0  0
   -8.8124   -3.2381    0.3858 H   0  0  0  0  0  0  0  0  0  0  0  0
   -5.0905    0.7498   -0.1479 H   0  0  0  0  0  0  0  0  0  0  0  0
   -7.3521    2.4207    0.2001 H   0  0  0  0  0  0  0  0  0  0  0  0
   -6.6714    4.1218    2.5616 H   0  0  0  0  0  0  0  0  0  0  0  0
   -7.7760    2.8652    2.5363 H   0  0  0  0  0  0  0  0  0  0  0  0
   -5.2887    3.3806   -0.7701 H   0  0  0  0  0  0  0  0  0  0  0  0
   -6.5095    4.6071   -0.2536 H   0  0  0  0  0  0  0  0  0  0  0  0
   -3.9814    3.8847    1.3357 H   0  0  0  0  0  0  0  0  0  0  0  0
   -5.1883    5.2171    1.6806 H   0  0  0  0  0  0  0  0  0  0  0  0
   -2.1498    5.7412   -0.9543 H   0  0  0  0  0  0  0  0  0  0  0  0
    0.9078   -0.8727    0.1757 H   0  0  0  0  0  0  0  0  0  0  0  0
    1.1259   -0.4245   -2.7682 H   0  0  0  0  0  0  0  0  0  0  0  0
    1.6888    1.9678   -2.4814 H   0  0  0  0  0  0  0  0  0  0  0  0
    0.9607    2.0146   -0.8475 H   0  0  0  0  0  0  0  0  0  0  0  0
   -1.2178    1.3955   -1.6771 H   0  0  0  0  0  0  0  0  0  0  0  0
   -0.5578    1.0952   -3.3259 H   0  0  0  0  0  0  0  0  0  0  0  0
   -1.8923    4.6122   -3.6201 H   0  0  0  0  0  0  0  0  0  0  0  0
   -1.4907    3.1241   -4.5646 H   0  0  0  0  0  0  0  0  0  0  0  0
    3.2648    1.7873   -1.0764 H   0  0  0  0  0  0  0  0  0  0  0  0
    5.0911   -0.5903   -0.6720 H   0  0  0  0  0  0  0  0  0  0  0  0
    7.0246    0.7790   -0.9046 H   0  0  0  0  0  0  0  0  0  0  0  0
    6.1549    2.2377   -1.3048 H   0  0  0  0  0  0  0  0  0  0  0  0
    6.4498   -0.2470   -3.0115 H   0  0  0  0  0  0  0  0  0  0  0  0
    7.3359    1.2606   -3.1409 H   0  0  0  0  0  0  0  0  0  0  0  0
    6.1214    0.2004   -5.5801 H   0  0  0  0  0  0  0  0  0  0  0  0
    5.0662    1.5718   -5.9753 H   0  0  0  0  0  0  0  0  0  0  0  0
    5.7180    0.9714    2.6750 H   0  0  0  0  0  0  0  0  0  0  0  0
    8.3364    0.3498    1.7705 H   0  0  0  0  0  0  0  0  0  0  0  0
    6.5655    0.3759    4.2630 H   0  0  0  0  0  0  0  0  0  0  0  0
    8.3181    0.1807    4.2096 H   0  0  0  0  0  0  0  0  0  0  0  0
    8.5866    2.2426    2.9026 H   0  0  0  0  0  0  0  0  0  0  0  0
    6.8137    2.5001    2.9645 H   0  0  0  0  0  0  0  0  0  0  0  0
    9.0043    3.6650    6.2304 H   0  0  0  0  0  0  0  0  0  0  0  0
    9.4408    4.0817    4.4983 H   0  0  0  0  0  0  0  0  0  0  0  0
    9.4712   -1.5528    3.0118 H   0  0  0  0  0  0  0  0  0  0  0  0
  1  2  1  0
  2  3  2  3
  2  4  1  0
  4  5  1  0
  5  6  1  0
  6  7  1  0
  7  8  1  0
  8  9  1  0
  9 10  1  0
 10 11  2  0
 10 12  1  0
 12 13  1  0
 13 14  1  0
 14 15  1  0
 15 16  1  0
 15 17  2  0
 12 18  1  0
 18 19  1  0
 19 20  2  0
 19 21  1  0
 21 22  1  0
 21 23  1  0
 23 24  1  0
 24 25  1  0
 25 26  1  0
 25 27  2  0
  8 28  1  0
 28 29  2  0
 28 30  1  0
 30 31  1  0
 31 32  1  0
 32 33  1  0
 33 34  1  0
 34 35  1  0
 34 36  2  0
 31 37  1  0
 37 38  2  0
 37 39  1  0
 39 40  1  0
 40 41  1  0
 41 42  1  0
 42 43  1  0
 43 44  1  0
 43 45  2  0
 40 46  1  0
 46 47  2  0
 46 48  1  0
 48 49  1  0
 49 50  1  0
 50 51  1  0
 51 52  1  0
 52 53  1  0
 52 54  2  0
 49 55  1  0
 55 56  1  0
 55 57  2  0
  1 58  1  0
  1 59  1  0
  3 60  1  0
  4 61  1  0
  5 62  1  0
  5 63  1  0
  6 64  1  0
  6 65  1  0
  7 66  1  0
  7 67  1  0
  8 68  1  1
  9 69  1  0
 12 70  1  1
 13 71  1  0
 13 72  1  0
 14 73  1  0
 14 74  1  0
 16 75  1  0
 16 76  1  0
 18 77  1  0
 21 78  1  6
 22 79  1  0
 22 80  1  0
 23 81  1  0
 23 82  1  0
 24 83  1  0
 24 84  1  0
 26 85  1  0
 30 86  1  0
 31 87  1  6
 32 88  1  0
 32 89  1  0
 33 90  1  0
 33 91  1  0
 35 92  1  0
 35 93  1  0
 39 94  1  0
 40 95  1  1
 41 96  1  0
 41 97  1  0
 42 98  1  0
 42 99  1  0
 44100  1  0
 44101  1  0
 48102  1  0
 49103  1  6
 50104  1  0
 50105  1  0
 51106  1  0
 51107  1  0
 53108  1  0
 53109  1  0
 56110  1  0
M  END
$$$$
[H]c1c([H])c([C@@]2([H])Oc3c([H])c(OC([H])([H])[H])c([H])c(OC([H])([H])[H])c3C([H])([H])[C@@]2([H])OC(=O)c2c([H])c(OC([H])([H])[H])c(OC([H])([H])[H])c(OC([H])([H])[H])c2[H])c([H])c(OC([H])([H])[H])c1OC([H])([H])[H]
     RDKit          3D

 71 74  0  0  0  0  0  0  0  0999 V2000
   -5.2109   -6.5710    0.6141 C   0  0  0  0  0  0  0  0  0  0  0  0
   -5.0983   -5.3161    1.2591 O   0  0  0  0  0  0  0  0  0  0  0  0
   -3.9924   -4.5308    0.9611 C   0  0  0  0  0  0  0  0  0  0  0  0
   -3.0295   -4.9578    0.0687 C   0  0  0  0  0  0  0  0  0  0  0  0
   -1.9257   -4.1882   -0.2302 C   0  0  0  0  0  0  0  0  0  0  0  0
   -0.9858   -4.6508   -1.1243 O   0  0  0  0  0  0  0  0  0  0  0  0
   -1.1630   -5.9029   -1.7241 C   0  0  0  0  0  0  0  0  0  0  0  0
   -1.7815   -2.9565    0.3759 C   0  0  0  0  0  0  0  0  0  0  0  0
   -0.5944   -2.1397    0.0141 C   0  0  0  0  0  0  0  0  0  0  0  0
   -0.2258   -1.1212    1.0917 C   0  0  1  0  0  0  0  0  0  0  0  0
    0.6505   -0.2188    0.4501 O   0  0  0  0  0  0  0  0  0  0  0  0
    2.0107   -0.4156    0.5522 C   0  0  0  0  0  0  0  0  0  0  0  0
    2.4580   -1.4169    1.2061 O   0  0  0  0  0  0  0  0  0  0  0  0
    3.0144    0.4488   -0.0505 C   0  0  0  0  0  0  0  0  0  0  0  0
    4.3377    0.0926   -0.1456 C   0  0  0  0  0  0  0  0  0  0  0  0
    5.3061    0.9128   -0.6739 C   0  0  0  0  0  0  0  0  0  0  0  0
    6.6311    0.5469   -0.7671 O   0  0  0  0  0  0  0  0  0  0  0  0
    7.0290   -0.7227   -0.3119 C   0  0  0  0  0  0  0  0  0  0  0  0
    4.9772    2.1864   -1.1510 C   0  0  0  0  0  0  0  0  0  0  0  0
    5.9382    3.0082   -1.6926 O   0  0  0  0  0  0  0  0  0  0  0  0
    5.7777    3.9924   -2.6640 C   0  0  0  0  0  0  0  0  0  0  0  0
    3.6475    2.5445   -1.0524 C   0  0  0  0  0  0  0  0  0  0  0  0
    3.3498    3.8254   -1.5355 O   0  0  0  0  0  0  0  0  0  0  0  0
    2.0640    4.3583   -1.5248 C   0  0  0  0  0  0  0  0  0  0  0  0
    2.6800    1.7174   -0.5240 C   0  0  0  0  0  0  0  0  0  0  0  0
   -1.3649   -0.5081    1.7853 C   0  0  2  0  0  0  0  0  0  0  0  0
   -2.5375   -1.3067    1.8344 O   0  0  0  0  0  0  0  0  0  0  0  0
   -2.7276   -2.5244    1.2615 C   0  0  0  0  0  0  0  0  0  0  0  0
   -3.8222   -3.2885    1.5587 C   0  0  0  0  0  0  0  0  0  0  0  0
   -1.8164    0.7800    1.1661 C   0  0  0  0  0  0  0  0  0  0  0  0
   -2.4627    0.7771   -0.0477 C   0  0  0  0  0  0  0  0  0  0  0  0
   -2.9314    1.9155   -0.6530 C   0  0  0  0  0  0  0  0  0  0  0  0
   -2.7724    3.1349   -0.0615 C   0  0  0  0  0  0  0  0  0  0  0  0
   -3.2464    4.2916   -0.6609 O   0  0  0  0  0  0  0  0  0  0  0  0
   -3.8711    4.2757   -1.9062 C   0  0  0  0  0  0  0  0  0  0  0  0
   -2.1270    3.1727    1.1520 C   0  0  0  0  0  0  0  0  0  0  0  0
   -1.9755    4.4147    1.7367 O   0  0  0  0  0  0  0  0  0  0  0  0
   -1.3352    4.5614    2.9854 C   0  0  0  0  0  0  0  0  0  0  0  0
   -1.6546    2.0180    1.7621 C   0  0  0  0  0  0  0  0  0  0  0  0
   -6.1109   -7.1282    0.9383 H   0  0  0  0  0  0  0  0  0  0  0  0
   -5.2648   -6.3973   -0.4897 H   0  0  0  0  0  0  0  0  0  0  0  0
   -4.3050   -7.1827    0.8218 H   0  0  0  0  0  0  0  0  0  0  0  0
   -3.1842   -5.9295   -0.3810 H   0  0  0  0  0  0  0  0  0  0  0  0
   -2.1908   -5.9389   -2.1571 H   0  0  0  0  0  0  0  0  0  0  0  0
   -1.0844   -6.7563   -1.0199 H   0  0  0  0  0  0  0  0  0  0  0  0
   -0.4353   -6.0837   -2.5505 H   0  0  0  0  0  0  0  0  0  0  0  0
    0.2371   -2.8509   -0.1654 H   0  0  0  0  0  0  0  0  0  0  0  0
   -0.8196   -1.6652   -0.9474 H   0  0  0  0  0  0  0  0  0  0  0  0
    0.4080   -1.7435    1.7709 H   0  0  0  0  0  0  0  0  0  0  0  0
    4.5858   -0.9102    0.2362 H   0  0  0  0  0  0  0  0  0  0  0  0
    6.6838   -1.5052   -0.9986 H   0  0  0  0  0  0  0  0  0  0  0  0
    6.7018   -0.9377    0.7326 H   0  0  0  0  0  0  0  0  0  0  0  0
    8.1457   -0.8040   -0.2970 H   0  0  0  0  0  0  0  0  0  0  0  0
    5.5639    4.9853   -2.2231 H   0  0  0  0  0  0  0  0  0  0  0  0
    6.7235    4.0911   -3.2214 H   0  0  0  0  0  0  0  0  0  0  0  0
    5.0114    3.7180   -3.4312 H   0  0  0  0  0  0  0  0  0  0  0  0
    1.4977    4.1500   -0.6138 H   0  0  0  0  0  0  0  0  0  0  0  0
    2.1414    5.4692   -1.6949 H   0  0  0  0  0  0  0  0  0  0  0  0
    1.4615    4.0085   -2.4196 H   0  0  0  0  0  0  0  0  0  0  0  0
    1.6483    2.0282   -0.4620 H   0  0  0  0  0  0  0  0  0  0  0  0
   -1.1357   -0.2803    2.8466 H   0  0  0  0  0  0  0  0  0  0  0  0
   -4.5887   -2.9521    2.2641 H   0  0  0  0  0  0  0  0  0  0  0  0
   -2.6195   -0.1494   -0.5637 H   0  0  0  0  0  0  0  0  0  0  0  0
   -3.4249    1.8367   -1.6014 H   0  0  0  0  0  0  0  0  0  0  0  0
   -4.5681    3.4166   -2.0357 H   0  0  0  0  0  0  0  0  0  0  0  0
   -3.1250    4.1865   -2.7557 H   0  0  0  0  0  0  0  0  0  0  0  0
   -4.3945    5.2501   -2.1143 H   0  0  0  0  0  0  0  0  0  0  0  0
   -0.2393    4.5496    2.9405 H   0  0  0  0  0  0  0  0  0  0  0  0
   -1.7012    3.7403    3.6620 H   0  0  0  0  0  0  0  0  0  0  0  0
   -1.6887    5.4992    3.4932 H   0  0  0  0  0  0  0  0  0  0  0  0
   -1.1486    2.0473    2.7043 H   0  0  0  0  0  0  0  0  0  0  0  0
  1  2  1  0
  2  3  1  0
  3  4  2  0
  4  5  1  0
  5  6  1  0
  6  7  1  0
  5  8  2  0
  8  9  1  0
  9 10  1  0
 10 11  1  0
 11 12  1  0
 12 13  2  0
 12 14  1  0
 14 15  2  0
 15 16  1  0
 16 17  1  0
 17 18  1  0
 16 19  2  0
 19 20  1  0
 20 21  1  0
 19 22  1  0
 22 23  1  0
 23 24  1  0
 22 25  2  0
 10 26  1  0
 26 27  1  0
 27 28  1  0
 28 29  2  0
 26 30  1  0
 30 31  2  0
 31 32  1  0
 32 33  2  0
 33 34  1  0
 34 35  1  0
 33 36  1  0
 36 37  1  0
 37 38  1  0
 36 39  2  0
 29  3  1  0
 39 30  1  0
 28  8  1  0
 25 14  1  0
  1 40  1  0
  1 41  1  0
  1 42  1  0
  4 43  1  0
  7 44  1  0
  7 45  1  0
  7 46  1  0
  9 47  1  0
  9 48  1  0
 10 49  1  1
 15 50  1  0
 18 51  1  0
 18 52  1  0
 18 53  1  0
 21 54  1  0
 21 55  1  0
 21 56  1  0
 24 57  1  0
 24 58  1  0
 24 59  1  0
 25 60  1  0
 26 61  1  1
 29 62  1  0
 31 63  1  0
 32 64  1  0
 35 65  1  0
 35 66  1  0
 35 67  1  0
 38 68  1  0
 38 69  1  0
 38 70  1  0
 39 71  1  0
M  END
$$$$
[H]O[C@@]([H])(C([H])([H])[H])[C@]([H])(c1nnc(-c2c([H])c([H])c(F)c([H])c2[H])o1)N([H])c1c([H])c([H])c([N+]#[C-])c(Cl)c1C([H])([H])[H]
     RDKit          3D

 43 45  0  0  0  0  0  0  0  0999 V2000
   -0.7614    3.5731   -1.4773 C   0  0  0  0  0  0  0  0  0  0  0  0
   -1.3343    2.1736   -1.4327 C   0  0  2  0  0  0  0  0  0  0  0  0
   -2.6907    2.2839   -1.1919 O   0  0  0  0  0  0  0  0  0  0  0  0
   -0.6633    1.3062   -0.4238 C   0  0  1  0  0  0  0  0  0  0  0  0
   -1.2499   -0.0137   -0.4527 N   0  0  0  0  0  0  0  0  0  0  0  0
   -2.4175   -0.4225    0.2115 C   0  0  0  0  0  0  0  0  0  0  0  0
   -3.0343    0.3545    1.1560 C   0  0  0  0  0  0  0  0  0  0  0  0
   -4.1691   -0.1093    1.8141 C   0  0  0  0  0  0  0  0  0  0  0  0
   -4.6709   -1.3560    1.5121 C   0  0  0  0  0  0  0  0  0  0  0  0
   -5.7966   -1.8103    2.1682 N   0  0  0  0  0  0  0  0  0  0  0  0
   -6.7531   -2.1856    2.7046 C   0  0  0  0  0  0  0  0  0  0  0  0
   -4.0302   -2.1225    0.5551 C   0  0  0  0  0  0  0  0  0  0  0  0
   -4.7068   -3.6970    0.2092 Cl  0  0  0  0  0  0  0  0  0  0  0  0
   -2.9101   -1.6951   -0.1122 C   0  0  0  0  0  0  0  0  0  0  0  0
   -2.2248   -2.5222   -1.1407 C   0  0  0  0  0  0  0  0  0  0  0  0
    0.8127    1.2568   -0.5967 C   0  0  0  0  0  0  0  0  0  0  0  0
    1.6310    1.9960   -1.3620 N   0  0  0  0  0  0  0  0  0  0  0  0
    2.8694    1.5785   -1.1788 N   0  0  0  0  0  0  0  0  0  0  0  0
    2.8373    0.5847   -0.3063 C   0  0  0  0  0  0  0  0  0  0  0  0
    1.6035    0.4055    0.0309 O   0  0  0  0  0  0  0  0  0  0  0  0
    4.0128   -0.1565    0.1688 C   0  0  0  0  0  0  0  0  0  0  0  0
    5.2695    0.1356   -0.2704 C   0  0  0  0  0  0  0  0  0  0  0  0
    6.4080   -0.5258    0.1404 C   0  0  0  0  0  0  0  0  0  0  0  0
    6.2737   -1.5512    1.0557 C   0  0  0  0  0  0  0  0  0  0  0  0
    7.4003   -2.1899    1.4484 F   0  0  0  0  0  0  0  0  0  0  0  0
    5.0171   -1.8768    1.5241 C   0  0  0  0  0  0  0  0  0  0  0  0
    3.8796   -1.1905    1.0914 C   0  0  0  0  0  0  0  0  0  0  0  0
   -0.3040    3.8397   -0.5036 H   0  0  0  0  0  0  0  0  0  0  0  0
   -1.5988    4.2722   -1.6657 H   0  0  0  0  0  0  0  0  0  0  0  0
   -0.0797    3.6650   -2.3222 H   0  0  0  0  0  0  0  0  0  0  0  0
   -1.1888    1.7491   -2.4732 H   0  0  0  0  0  0  0  0  0  0  0  0
   -2.8904    3.0998   -0.6562 H   0  0  0  0  0  0  0  0  0  0  0  0
   -0.8383    1.7009    0.6103 H   0  0  0  0  0  0  0  0  0  0  0  0
   -0.7131   -0.7072   -1.0425 H   0  0  0  0  0  0  0  0  0  0  0  0
   -2.6578    1.3380    1.4350 H   0  0  0  0  0  0  0  0  0  0  0  0
   -4.6327    0.5384    2.5595 H   0  0  0  0  0  0  0  0  0  0  0  0
   -1.2143   -2.8332   -0.8286 H   0  0  0  0  0  0  0  0  0  0  0  0
   -2.8278   -3.4488   -1.2624 H   0  0  0  0  0  0  0  0  0  0  0  0
   -2.2372   -2.0262   -2.1393 H   0  0  0  0  0  0  0  0  0  0  0  0
    5.3597    0.9519   -0.9966 H   0  0  0  0  0  0  0  0  0  0  0  0
    7.3525   -0.2090   -0.2746 H   0  0  0  0  0  0  0  0  0  0  0  0
    4.9580   -2.6867    2.2401 H   0  0  0  0  0  0  0  0  0  0  0  0
    2.9109   -1.4674    1.4752 H   0  0  0  0  0  0  0  0  0  0  0  0
  1  2  1  0
  2  3  1  0
  2  4  1  0
  4  5  1  0
  5  6  1  0
  6  7  2  0
  7  8  1  0
  8  9  2  0
  9 10  1  0
 10 11  3  0
  9 12  1  0
 12 13  1  0
 12 14  2  0
 14 15  1  0
  4 16  1  0
 16 17  2  0
 17 18  1  0
 18 19  2  0
 19 20  1  0
 19 21  1  0
 21 22  2  0
 22 23  1  0
 23 24  2  0
 24 25  1  0
 24 26  1  0
 26 27  2  0
 14  6  1  0
 20 16  1  0
 27 21  1  0
  1 28  1  0
  1 29  1  0
  1 30  1  0
  2 31  1  6
  3 32  1  0
  4 33  1  1
  5 34  1  0
  7 35  1  0
  8 36  1  0
 15 37  1  0
 15 38  1  0
 15 39  1  0
 22 40  1  0
 23 41  1  0
 26 42  1  0
 27 43  1  0
M  CHG  2  10   1  11  -1
M  END
$$$$
[H]c1nn([H])c([H])c1-c1c([H])c([H])c2c(nc([H])n2-c2sc(C(=O)N([H])[H])c(O[C@@]([H])(c3c([H])c([H])c([H])c([H])c3Cl)C([H])([H])[H])c2[H])c1[H]
     RDKit          3D

 50 54  0  0  0  0  0  0  0  0999 V2000
   -5.0841   -0.2844    1.7208 C   0  0  0  0  0  0  0  0  0  0  0  0
   -3.5887    0.0081    1.4347 C   0  0  1  0  0  0  0  0  0  0  0  0
   -3.0803   -0.9264    0.6457 O   0  0  0  0  0  0  0  0  0  0  0  0
   -2.0930   -1.4994   -0.0760 C   0  0  0  0  0  0  0  0  0  0  0  0
   -0.8789   -0.9623   -0.3257 C   0  0  0  0  0  0  0  0  0  0  0  0
    0.0223   -1.6480   -1.0695 C   0  0  0  0  0  0  0  0  0  0  0  0
   -0.7904   -3.0654   -1.4442 S   0  0  0  0  0  0  0  0  0  0  0  0
   -2.2773   -2.7795   -0.6517 C   0  0  0  0  0  0  0  0  0  0  0  0
   -3.4454   -3.6596   -0.5708 C   0  0  0  0  0  0  0  0  0  0  0  0
   -3.4268   -4.8952   -1.2465 N   0  0  0  0  0  0  0  0  0  0  0  0
   -4.4377   -3.3290    0.0828 O   0  0  0  0  0  0  0  0  0  0  0  0
    1.3464   -1.2443   -1.4800 N   0  0  0  0  0  0  0  0  0  0  0  0
    1.7921   -1.2904   -2.7702 C   0  0  0  0  0  0  0  0  0  0  0  0
    3.0333   -0.8483   -2.8386 N   0  0  0  0  0  0  0  0  0  0  0  0
    3.3855   -0.5146   -1.5661 C   0  0  0  0  0  0  0  0  0  0  0  0
    4.5460   -0.0041   -1.0232 C   0  0  0  0  0  0  0  0  0  0  0  0
    4.7154    0.2760    0.3309 C   0  0  0  0  0  0  0  0  0  0  0  0
    3.6300    0.0094    1.1380 C   0  0  0  0  0  0  0  0  0  0  0  0
    2.4411   -0.5065    0.6247 C   0  0  0  0  0  0  0  0  0  0  0  0
    2.3329   -0.7625   -0.7245 C   0  0  0  0  0  0  0  0  0  0  0  0
    5.9737    0.8160    0.8214 C   0  0  0  0  0  0  0  0  0  0  0  0
    7.2172    0.5236    0.2675 C   0  0  0  0  0  0  0  0  0  0  0  0
    8.1660    1.1979    0.9624 N   0  0  0  0  0  0  0  0  0  0  0  0
    7.5661    1.9066    1.9336 N   0  0  0  0  0  0  0  0  0  0  0  0
    6.2344    1.6758    1.8502 C   0  0  0  0  0  0  0  0  0  0  0  0
   -3.6485    1.3858    0.8011 C   0  0  0  0  0  0  0  0  0  0  0  0
   -4.6638    1.7366   -0.0561 C   0  0  0  0  0  0  0  0  0  0  0  0
   -4.6745    2.9511   -0.7518 C   0  0  0  0  0  0  0  0  0  0  0  0
   -3.6172    3.8066   -0.5533 C   0  0  0  0  0  0  0  0  0  0  0  0
   -2.6035    3.4767    0.2924 C   0  0  0  0  0  0  0  0  0  0  0  0
   -2.6173    2.2612    0.9777 C   0  0  0  0  0  0  0  0  0  0  0  0
   -1.3463    1.9615    2.1617 Cl  0  0  0  0  0  0  0  0  0  0  0  0
   -5.5942   -0.6474    0.7981 H   0  0  0  0  0  0  0  0  0  0  0  0
   -5.5135    0.6649    2.0770 H   0  0  0  0  0  0  0  0  0  0  0  0
   -5.1836   -1.0374    2.5168 H   0  0  0  0  0  0  0  0  0  0  0  0
   -3.0690    0.1410    2.3885 H   0  0  0  0  0  0  0  0  0  0  0  0
   -0.5888    0.0421    0.0549 H   0  0  0  0  0  0  0  0  0  0  0  0
   -4.0735   -5.6704   -1.0009 H   0  0  0  0  0  0  0  0  0  0  0  0
   -2.7514   -5.0497   -2.0202 H   0  0  0  0  0  0  0  0  0  0  0  0
    1.1703   -1.6454   -3.5909 H   0  0  0  0  0  0  0  0  0  0  0  0
    5.3886    0.2019   -1.6676 H   0  0  0  0  0  0  0  0  0  0  0  0
    3.7141    0.2152    2.2172 H   0  0  0  0  0  0  0  0  0  0  0  0
    1.5867   -0.7173    1.2724 H   0  0  0  0  0  0  0  0  0  0  0  0
    7.4521   -0.1138   -0.5689 H   0  0  0  0  0  0  0  0  0  0  0  0
    8.1118    2.5042    2.5945 H   0  0  0  0  0  0  0  0  0  0  0  0
    5.5002    2.1135    2.5097 H   0  0  0  0  0  0  0  0  0  0  0  0
   -5.4987    1.0940   -0.2371 H   0  0  0  0  0  0  0  0  0  0  0  0
   -5.4603    3.2298   -1.4244 H   0  0  0  0  0  0  0  0  0  0  0  0
   -3.5518    4.7749   -1.0671 H   0  0  0  0  0  0  0  0  0  0  0  0
   -1.7675    4.1272    0.4586 H   0  0  0  0  0  0  0  0  0  0  0  0
  1  2  1  0
  2  3  1  0
  3  4  1  0
  4  5  1  0
  5  6  2  0
  6  7  1  0
  7  8  1  0
  8  9  1  0
  9 10  1  0
  9 11  2  0
  6 12  1  0
 12 13  1  0
 13 14  2  0
 14 15  1  0
 15 16  2  0
 16 17  1  0
 17 18  2  0
 18 19  1  0
 19 20  2  0
 17 21  1  0
 21 22  1  0
 22 23  2  0
 23 24  1  0
 24 25  1  0
  2 26  1  0
 26 27  2  0
 27 28  1  0
 28 29  2  0
 29 30  1  0
 30 31  2  0
 31 32  1  0
  8  4  2  0
 20 12  1  0
 25 21  2  0
 31 26  1  0
 20 15  1  0
  1 33  1  0
  1 34  1  0
  1 35  1  0
  2 36  1  1
  5 37  1  0
 10 38  1  0
 10 39  1  0
 13 40  1  0
 16 41  1  0
 18 42  1  0
 19 43  1  0
 22 44  1  0
 24 45  1  0
 25 46  1  0
 27 47  1  0
 28 48  1  0
 29 49  1  0
 30 50  1  0
M  END
$$$$
[H]c1c([H])c([H])c(-c2nc(C([H])([H])[H])c3c(C([H])([H])[H])nc4c([H])c([H])c(OC([H])([H])[H])nc4n23)c(Cl)c1[H]
     RDKit          3D

 39 42  0  0  0  0  0  0  0  0999 V2000
    2.2840    3.4012    0.3715 C   0  0  0  0  0  0  0  0  0  0  0  0
    3.1855    2.4194   -0.0754 O   0  0  0  0  0  0  0  0  0  0  0  0
    2.7126    1.1097   -0.3182 C   0  0  0  0  0  0  0  0  0  0  0  0
    3.6261    0.1501   -0.7598 C   0  0  0  0  0  0  0  0  0  0  0  0
    3.2632   -1.1455   -1.0209 C   0  0  0  0  0  0  0  0  0  0  0  0
    1.9361   -1.4860   -0.8308 C   0  0  0  0  0  0  0  0  0  0  0  0
    1.5292   -2.7422   -1.0543 N   0  0  0  0  0  0  0  0  0  0  0  0
    0.2378   -3.0515   -0.8455 C   0  0  0  0  0  0  0  0  0  0  0  0
   -0.1706   -4.4592   -1.1064 C   0  0  0  0  0  0  0  0  0  0  0  0
   -0.6453   -2.0913   -0.4108 C   0  0  0  0  0  0  0  0  0  0  0  0
   -1.9964   -2.1883   -0.1225 C   0  0  0  0  0  0  0  0  0  0  0  0
   -2.8476   -3.3921   -0.2271 C   0  0  0  0  0  0  0  0  0  0  0  0
   -2.3778   -0.9693    0.2708 N   0  0  0  0  0  0  0  0  0  0  0  0
   -1.3362   -0.1058    0.2452 C   0  0  0  0  0  0  0  0  0  0  0  0
   -1.3772    1.2915    0.6204 C   0  0  0  0  0  0  0  0  0  0  0  0
   -1.3812    1.6063    1.9595 C   0  0  0  0  0  0  0  0  0  0  0  0
   -1.4694    2.9184    2.4090 C   0  0  0  0  0  0  0  0  0  0  0  0
   -1.5548    3.9226    1.4654 C   0  0  0  0  0  0  0  0  0  0  0  0
   -1.5537    3.6379    0.1013 C   0  0  0  0  0  0  0  0  0  0  0  0
   -1.4644    2.3156   -0.2986 C   0  0  0  0  0  0  0  0  0  0  0  0
   -1.5072    2.0083   -2.0386 Cl  0  0  0  0  0  0  0  0  0  0  0  0
   -0.2688   -0.7948   -0.1720 N   0  0  0  0  0  0  0  0  0  0  0  0
    1.0567   -0.5172   -0.3948 C   0  0  0  0  0  0  0  0  0  0  0  0
    1.4402    0.7467   -0.1461 N   0  0  0  0  0  0  0  0  0  0  0  0
    2.8789    4.2890    0.7149 H   0  0  0  0  0  0  0  0  0  0  0  0
    1.7825    3.0218    1.2924 H   0  0  0  0  0  0  0  0  0  0  0  0
    1.5547    3.6794   -0.4074 H   0  0  0  0  0  0  0  0  0  0  0  0
    4.6486    0.4641   -0.8928 H   0  0  0  0  0  0  0  0  0  0  0  0
    3.9688   -1.8993   -1.3653 H   0  0  0  0  0  0  0  0  0  0  0  0
   -0.2787   -5.0250   -0.1665 H   0  0  0  0  0  0  0  0  0  0  0  0
   -1.0298   -4.5234   -1.7912 H   0  0  0  0  0  0  0  0  0  0  0  0
    0.6565   -5.0042   -1.6538 H   0  0  0  0  0  0  0  0  0  0  0  0
   -3.1681   -3.6076   -1.2844 H   0  0  0  0  0  0  0  0  0  0  0  0
   -3.8296   -3.1435    0.2789 H   0  0  0  0  0  0  0  0  0  0  0  0
   -2.4689   -4.2595    0.3127 H   0  0  0  0  0  0  0  0  0  0  0  0
   -1.3158    0.8484    2.7387 H   0  0  0  0  0  0  0  0  0  0  0  0
   -1.4742    3.1883    3.4510 H   0  0  0  0  0  0  0  0  0  0  0  0
   -1.6254    4.9635    1.7569 H   0  0  0  0  0  0  0  0  0  0  0  0
   -1.6204    4.4232   -0.6310 H   0  0  0  0  0  0  0  0  0  0  0  0
  1  2  1  0
  2  3  1  0
  3  4  2  0
  4  5  1  0
  5  6  2  0
  6  7  1  0
  7  8  2  0
  8  9  1  0
  8 10  1  0
 10 11  2  0
 11 12  1  0
 11 13  1  0
 13 14  2  0
 14 15  1  0
 15 16  2  0
 16 17  1  0
 17 18  2  0
 18 19  1  0
 19 20  2  0
 20 21  1  0
 14 22  1  0
 22 23  1  0
 23 24  2  0
 24  3  1  0
 23  6  1  0
 22 10  1  0
 20 15  1  0
  1 25  1  0
  1 26  1  0
  1 27  1  0
  4 28  1  0
  5 29  1  0
  9 30  1  0
  9 31  1  0
  9 32  1  0
 12 33  1  0
 12 34  1  0
 12 35  1  0
 16 36  1  0
 17 37  1  0
 18 38  1  0
 19 39  1  0
M  END
$$$$
[H]ON([H])C(=O)C([H])([H])C([H])([H])C([H])([H])C([H])([H])C([H])([H])C([H])([H])N([H])C(=O)c1c([H])c([H])c(N([H])C(=O)c2c([H])c([H])c([H])c([N+](=O)[O-])c2[H])c([H])c1[H]
     RDKit          3D

 55 56  0  0  0  0  0  0  0  0999 V2000
    8.6625    2.8220    2.5804 O   0  0  0  0  0  0  0  0  0  0  0  0
    9.0614    1.5229    2.6473 N   0  0  0  0  0  0  0  0  0  0  0  0
   10.1732    1.2487    3.1097 O   0  0  0  0  0  0  0  0  0  0  0  0
    8.2132    0.4849    2.1912 C   0  0  0  0  0  0  0  0  0  0  0  0
    8.6450   -0.8263    2.2733 C   0  0  0  0  0  0  0  0  0  0  0  0
    7.8700   -1.8709    1.8494 C   0  0  0  0  0  0  0  0  0  0  0  0
    6.6101   -1.6103    1.3197 C   0  0  0  0  0  0  0  0  0  0  0  0
    6.1568   -0.3137    1.2267 C   0  0  0  0  0  0  0  0  0  0  0  0
    6.9640    0.7202    1.6639 C   0  0  0  0  0  0  0  0  0  0  0  0
    4.8229   -0.0037    0.6579 C   0  0  0  0  0  0  0  0  0  0  0  0
    4.3692    1.1222    0.9396 O   0  0  0  0  0  0  0  0  0  0  0  0
    4.1460   -0.9157   -0.1297 N   0  0  0  0  0  0  0  0  0  0  0  0
    2.8704   -0.7099   -0.7052 C   0  0  0  0  0  0  0  0  0  0  0  0
    1.9573    0.2417   -0.3537 C   0  0  0  0  0  0  0  0  0  0  0  0
    0.7162    0.3838   -1.0043 C   0  0  0  0  0  0  0  0  0  0  0  0
    0.3590   -0.4414   -2.0392 C   0  0  0  0  0  0  0  0  0  0  0  0
    1.2771   -1.4055   -2.3987 C   0  0  0  0  0  0  0  0  0  0  0  0
    2.4848   -1.5524   -1.7745 C   0  0  0  0  0  0  0  0  0  0  0  0
   -0.9183   -0.3178   -2.7307 C   0  0  0  0  0  0  0  0  0  0  0  0
   -1.1705   -1.1038   -3.7063 O   0  0  0  0  0  0  0  0  0  0  0  0
   -1.9122    0.6248   -2.3922 N   0  0  0  0  0  0  0  0  0  0  0  0
   -3.1663    0.7246   -3.0912 C   0  0  0  0  0  0  0  0  0  0  0  0
   -4.0014   -0.5159   -3.0425 C   0  0  0  0  0  0  0  0  0  0  0  0
   -4.3620   -0.9266   -1.6259 C   0  0  0  0  0  0  0  0  0  0  0  0
   -5.1344    0.1827   -0.9953 C   0  0  0  0  0  0  0  0  0  0  0  0
   -5.5488   -0.1265    0.4272 C   0  0  0  0  0  0  0  0  0  0  0  0
   -6.3209    1.0655    0.9555 C   0  0  0  0  0  0  0  0  0  0  0  0
   -6.7642    0.8302    2.3621 C   0  0  0  0  0  0  0  0  0  0  0  0
   -6.4748   -0.2398    2.9191 O   0  0  0  0  0  0  0  0  0  0  0  0
   -7.5009    1.8456    3.0038 N   0  0  0  0  0  0  0  0  0  0  0  0
   -7.9232    1.6714    4.2830 O   0  0  0  0  0  0  0  0  0  0  0  0
    9.6358   -1.0729    2.6866 H   0  0  0  0  0  0  0  0  0  0  0  0
    8.1806   -2.9111    1.9005 H   0  0  0  0  0  0  0  0  0  0  0  0
    6.0055   -2.4528    0.9922 H   0  0  0  0  0  0  0  0  0  0  0  0
    6.6342    1.7680    1.6051 H   0  0  0  0  0  0  0  0  0  0  0  0
    4.6523   -1.8491   -0.3064 H   0  0  0  0  0  0  0  0  0  0  0  0
    2.1800    0.9165    0.4726 H   0  0  0  0  0  0  0  0  0  0  0  0
    0.0607    1.1711   -0.6509 H   0  0  0  0  0  0  0  0  0  0  0  0
    0.9741   -2.0540   -3.2256 H   0  0  0  0  0  0  0  0  0  0  0  0
    3.1944   -2.3132   -2.0680 H   0  0  0  0  0  0  0  0  0  0  0  0
   -1.7025    1.2783   -1.5823 H   0  0  0  0  0  0  0  0  0  0  0  0
   -2.9999    0.9312   -4.1932 H   0  0  0  0  0  0  0  0  0  0  0  0
   -3.7409    1.5905   -2.7322 H   0  0  0  0  0  0  0  0  0  0  0  0
   -4.9423   -0.2688   -3.6234 H   0  0  0  0  0  0  0  0  0  0  0  0
   -3.5893   -1.3923   -3.5369 H   0  0  0  0  0  0  0  0  0  0  0  0
   -4.8508   -1.8992   -1.5981 H   0  0  0  0  0  0  0  0  0  0  0  0
   -3.3899   -1.0418   -1.0930 H   0  0  0  0  0  0  0  0  0  0  0  0
   -4.4369    1.0670   -0.9036 H   0  0  0  0  0  0  0  0  0  0  0  0
   -6.0322    0.4536   -1.5567 H   0  0  0  0  0  0  0  0  0  0  0  0
   -4.7007   -0.3307    1.0848 H   0  0  0  0  0  0  0  0  0  0  0  0
   -6.2270   -1.0064    0.4732 H   0  0  0  0  0  0  0  0  0  0  0  0
   -7.2257    1.2733    0.3582 H   0  0  0  0  0  0  0  0  0  0  0  0
   -5.6727    1.9863    0.9037 H   0  0  0  0  0  0  0  0  0  0  0  0
   -7.7462    2.7356    2.5520 H   0  0  0  0  0  0  0  0  0  0  0  0
   -8.4215    0.8098    4.3758 H   0  0  0  0  0  0  0  0  0  0  0  0
  1  2  1  0
  2  3  2  0
  2  4  1  0
  4  5  2  0
  5  6  1  0
  6  7  2  0
  7  8  1  0
  8  9  2  0
  8 10  1  0
 10 11  2  0
 10 12  1  0
 12 13  1  0
 13 14  2  0
 14 15  1  0
 15 16  2  0
 16 17  1  0
 17 18  2  0
 16 19  1  0
 19 20  2  0
 19 21  1  0
 21 22  1  0
 22 23  1  0
 23 24  1  0
 24 25  1  0
 25 26  1  0
 26 27  1  0
 27 28  1  0
 28 29  2  0
 28 30  1  0
 30 31  1  0
  9  4  1  0
 18 13  1  0
  5 32  1  0
  6 33  1  0
  7 34  1  0
  9 35  1  0
 12 36  1  0
 14 37  1  0
 15 38  1  0
 17 39  1  0
 18 40  1  0
 21 41  1  0
 22 42  1  0
 22 43  1  0
 23 44  1  0
 23 45  1  0
 24 46  1  0
 24 47  1  0
 25 48  1  0
 25 49  1  0
 26 50  1  0
 26 51  1  0
 27 52  1  0
 27 53  1  0
 30 54  1  0
 31 55  1  0
M  CHG  2   1  -1   2   1
M  END
$$$$
[H]OC(=O)C([H])([H])[C@@]([H])(C(=O)N([H])[C@]([H])(C(=O)N([H])[C@]([H])(C(=O)O[H])C([H])([H])c1c([H])c([H])c([H])c([H])c1[H])C([H])([H])C([H])(C([H])([H])[H])C([H])([H])[H])N([H])C(=O)[C@]([H])(c1c([H])c([H])c([H])c([H])c1[H])C([H])([H])[H]
     RDKit          3D

 73 74  0  0  0  0  0  0  0  0999 V2000
    1.2864   -4.4365   -2.0289 C   0  0  0  0  0  0  0  0  0  0  0  0
    1.1694   -2.8953   -1.9876 C   0  0  0  0  0  0  0  0  0  0  0  0
    2.2952   -2.3984   -2.8186 C   0  0  0  0  0  0  0  0  0  0  0  0
    1.1470   -2.5417   -0.5616 C   0  0  0  0  0  0  0  0  0  0  0  0
    1.0316   -1.0959   -0.1868 C   0  0  2  0  0  0  0  0  0  0  0  0
   -0.1477   -0.4571   -0.6842 N   0  0  0  0  0  0  0  0  0  0  0  0
   -1.3674   -0.3539    0.0191 C   0  0  0  0  0  0  0  0  0  0  0  0
   -1.4542   -0.8578    1.1514 O   0  0  0  0  0  0  0  0  0  0  0  0
   -2.5840    0.3402   -0.5341 C   0  0  2  0  0  0  0  0  0  0  0  0
   -2.3264    1.7823   -0.7846 C   0  0  0  0  0  0  0  0  0  0  0  0
   -3.5314    2.4381   -1.3198 C   0  0  0  0  0  0  0  0  0  0  0  0
   -3.4781    3.7908   -1.6633 O   0  0  0  0  0  0  0  0  0  0  0  0
   -4.6403    1.8752   -1.5007 O   0  0  0  0  0  0  0  0  0  0  0  0
   -3.7046    0.1864    0.3851 N   0  0  0  0  0  0  0  0  0  0  0  0
   -4.7522   -0.7286    0.1363 C   0  0  0  0  0  0  0  0  0  0  0  0
   -4.6743   -1.4254   -0.9263 O   0  0  0  0  0  0  0  0  0  0  0  0
   -5.9119   -0.9271    1.0165 C   0  0  1  0  0  0  0  0  0  0  0  0
   -5.4770   -1.3182    2.4299 C   0  0  0  0  0  0  0  0  0  0  0  0
   -6.8781    0.1835    1.0601 C   0  0  0  0  0  0  0  0  0  0  0  0
   -6.6462    1.4459    1.5357 C   0  0  0  0  0  0  0  0  0  0  0  0
   -7.6426    2.4207    1.5259 C   0  0  0  0  0  0  0  0  0  0  0  0
   -8.8859    2.1713    1.0475 C   0  0  0  0  0  0  0  0  0  0  0  0
   -9.1551    0.9038    0.5590 C   0  0  0  0  0  0  0  0  0  0  0  0
   -8.1641   -0.0438    0.5752 C   0  0  0  0  0  0  0  0  0  0  0  0
    2.2693   -0.3269   -0.3733 C   0  0  0  0  0  0  0  0  0  0  0  0
    2.1630    0.8051   -0.9753 O   0  0  0  0  0  0  0  0  0  0  0  0
    3.5395   -0.7310    0.0528 N   0  0  0  0  0  0  0  0  0  0  0  0
    4.7693    0.0502   -0.1440 C   0  0  1  0  0  0  0  0  0  0  0  0
    5.2265    0.6008    1.1798 C   0  0  0  0  0  0  0  0  0  0  0  0
    6.4334    1.4037    1.1756 C   0  0  0  0  0  0  0  0  0  0  0  0
    6.3758    2.7787    0.9347 C   0  0  0  0  0  0  0  0  0  0  0  0
    7.5265    3.5328    0.9557 C   0  0  0  0  0  0  0  0  0  0  0  0
    8.7526    2.9522    1.2132 C   0  0  0  0  0  0  0  0  0  0  0  0
    8.8073    1.6043    1.4499 C   0  0  0  0  0  0  0  0  0  0  0  0
    7.6574    0.8635    1.4265 C   0  0  0  0  0  0  0  0  0  0  0  0
    5.7713   -0.7656   -0.8559 C   0  0  0  0  0  0  0  0  0  0  0  0
    7.0145   -0.3359   -1.2735 O   0  0  0  0  0  0  0  0  0  0  0  0
    5.4886   -1.9616   -1.1158 O   0  0  0  0  0  0  0  0  0  0  0  0
    0.9974   -4.7380   -3.0479 H   0  0  0  0  0  0  0  0  0  0  0  0
    2.3043   -4.7234   -1.7469 H   0  0  0  0  0  0  0  0  0  0  0  0
    0.5139   -4.7989   -1.3107 H   0  0  0  0  0  0  0  0  0  0  0  0
    0.2223   -2.6953   -2.5335 H   0  0  0  0  0  0  0  0  0  0  0  0
    3.2488   -2.9450   -2.6264 H   0  0  0  0  0  0  0  0  0  0  0  0
    2.0478   -2.7040   -3.8860 H   0  0  0  0  0  0  0  0  0  0  0  0
    2.4172   -1.3142   -2.8843 H   0  0  0  0  0  0  0  0  0  0  0  0
    0.3202   -3.1344   -0.0699 H   0  0  0  0  0  0  0  0  0  0  0  0
    2.0783   -2.9491   -0.0879 H   0  0  0  0  0  0  0  0  0  0  0  0
    0.8628   -1.1340    0.9481 H   0  0  0  0  0  0  0  0  0  0  0  0
   -0.1008   -0.0330   -1.6441 H   0  0  0  0  0  0  0  0  0  0  0  0
   -2.8306   -0.2261   -1.4491 H   0  0  0  0  0  0  0  0  0  0  0  0
   -2.0231    2.3099    0.1682 H   0  0  0  0  0  0  0  0  0  0  0  0
   -1.4610    1.9640   -1.4632 H   0  0  0  0  0  0  0  0  0  0  0  0
   -3.5529    4.4878   -0.9615 H   0  0  0  0  0  0  0  0  0  0  0  0
   -3.7229    0.7556    1.2469 H   0  0  0  0  0  0  0  0  0  0  0  0
   -6.4846   -1.8464    0.6665 H   0  0  0  0  0  0  0  0  0  0  0  0
   -5.0267   -0.4954    2.9905 H   0  0  0  0  0  0  0  0  0  0  0  0
   -6.3792   -1.7567    2.9083 H   0  0  0  0  0  0  0  0  0  0  0  0
   -4.7560   -2.1394    2.3130 H   0  0  0  0  0  0  0  0  0  0  0  0
   -5.7056    1.7154    1.9313 H   0  0  0  0  0  0  0  0  0  0  0  0
   -7.4347    3.4244    1.9103 H   0  0  0  0  0  0  0  0  0  0  0  0
   -9.7043    2.8870    1.0122 H   0  0  0  0  0  0  0  0  0  0  0  0
  -10.1563    0.6721    0.1653 H   0  0  0  0  0  0  0  0  0  0  0  0
   -8.4487   -1.0218    0.1716 H   0  0  0  0  0  0  0  0  0  0  0  0
    3.6523   -1.6380    0.5421 H   0  0  0  0  0  0  0  0  0  0  0  0
    4.4905    0.9030   -0.7899 H   0  0  0  0  0  0  0  0  0  0  0  0
    5.2692   -0.2324    1.9208 H   0  0  0  0  0  0  0  0  0  0  0  0
    4.3886    1.2667    1.5358 H   0  0  0  0  0  0  0  0  0  0  0  0
    5.4473    3.2729    0.7286 H   0  0  0  0  0  0  0  0  0  0  0  0
    7.5102    4.6120    0.7704 H   0  0  0  0  0  0  0  0  0  0  0  0
    9.6682    3.5369    1.2329 H   0  0  0  0  0  0  0  0  0  0  0  0
    9.7838    1.1141    1.6630 H   0  0  0  0  0  0  0  0  0  0  0  0
    7.7347   -0.2061    1.6152 H   0  0  0  0  0  0  0  0  0  0  0  0
    7.5263   -0.7188   -2.0354 H   0  0  0  0  0  0  0  0  0  0  0  0
  1  2  1  0
  2  3  1  0
  2  4  1  0
  4  5  1  0
  5  6  1  0
  6  7  1  0
  7  8  2  0
  7  9  1  0
  9 10  1  0
 10 11  1  0
 11 12  1  0
 11 13  2  0
  9 14  1  0
 14 15  1  0
 15 16  2  0
 15 17  1  0
 17 18  1  0
 17 19  1  0
 19 20  2  0
 20 21  1  0
 21 22  2  0
 22 23  1  0
 23 24  2  0
  5 25  1  0
 25 26  2  0
 25 27  1  0
 27 28  1  0
 28 29  1  0
 29 30  1  0
 30 31  2  0
 31 32  1  0
 32 33  2  0
 33 34  1  0
 34 35  2  0
 28 36  1  0
 36 37  1  0
 36 38  2  0
 24 19  1  0
 35 30  1  0
  1 39  1  0
  1 40  1  0
  1 41  1  0
  2 42  1  0
  3 43  1  0
  3 44  1  0
  3 45  1  0
  4 46  1  0
  4 47  1  0
  5 48  1  1
  6 49  1  0
  9 50  1  6
 10 51  1  0
 10 52  1  0
 12 53  1  0
 14 54  1  0
 17 55  1  6
 18 56  1  0
 18 57  1  0
 18 58  1  0
 20 59  1  0
 21 60  1  0
 22 61  1  0
 23 62  1  0
 24 63  1  0
 27 64  1  0
 28 65  1  6
 29 66  1  0
 29 67  1  0
 31 68  1  0
 32 69  1  0
 33 70  1  0
 34 71  1  0
 35 72  1  0
 37 73  1  0
M  END
$$$$
