[H]c1c([H])c(C(=O)N2C([H])([H])C([H])([H])N(S(=O)(=O)c3c([H])c([H])c(Cl)c([H])c3Cl)[C@]([H])(C([H])([H])[H])C2([H])[H])c(Cl)c([H])c1Cl
     RDKit          3D

 44 46  0  0  0  0  0  0  0  0999 V2000
    0.1066    2.6166   -0.1357 C   0  0  0  0  0  0  0  0  0  0  0  0
   -0.0026    1.0965   -0.0672 C   0  0  2  0  0  0  0  0  0  0  0  0
   -1.4180    0.8496    0.4471 C   0  0  0  0  0  0  0  0  0  0  0  0
   -1.5552   -0.3557    1.1860 N   0  0  0  0  0  0  0  0  0  0  0  0
   -0.4689   -0.7121    2.0984 C   0  0  0  0  0  0  0  0  0  0  0  0
    0.7593   -0.7980    1.2169 C   0  0  0  0  0  0  0  0  0  0  0  0
    1.0035    0.4501    0.6120 N   0  0  0  0  0  0  0  0  0  0  0  0
    2.5033    1.0422    0.9338 S   0  0  0  0  0  0  0  0  0  0  0  0
    2.7357    2.4924    0.6102 O   0  0  0  0  0  0  0  0  0  0  0  0
    2.7417    0.9492    2.4385 O   0  0  0  0  0  0  0  0  0  0  0  0
    3.8398    0.1985    0.1806 C   0  0  0  0  0  0  0  0  0  0  0  0
    4.8109   -0.4418    0.9625 C   0  0  0  0  0  0  0  0  0  0  0  0
    5.8763   -1.1283    0.4246 C   0  0  0  0  0  0  0  0  0  0  0  0
    6.0399   -1.2190   -0.9404 C   0  0  0  0  0  0  0  0  0  0  0  0
    7.3978   -2.0941   -1.6394 Cl  0  0  0  0  0  0  0  0  0  0  0  0
    5.1005   -0.5990   -1.7309 C   0  0  0  0  0  0  0  0  0  0  0  0
    4.0173    0.0991   -1.1811 C   0  0  0  0  0  0  0  0  0  0  0  0
    2.8733    0.8717   -2.2379 Cl  0  0  0  0  0  0  0  0  0  0  0  0
   -2.7008   -1.1810    1.0447 C   0  0  0  0  0  0  0  0  0  0  0  0
   -2.7679   -2.2317    1.7212 O   0  0  0  0  0  0  0  0  0  0  0  0
   -3.7894   -0.8357    0.1386 C   0  0  0  0  0  0  0  0  0  0  0  0
   -4.8663   -0.0747    0.5410 C   0  0  0  0  0  0  0  0  0  0  0  0
   -5.9069    0.2659   -0.2929 C   0  0  0  0  0  0  0  0  0  0  0  0
   -5.8390   -0.1924   -1.5893 C   0  0  0  0  0  0  0  0  0  0  0  0
   -7.1032    0.1743   -2.7480 Cl  0  0  0  0  0  0  0  0  0  0  0  0
   -4.7781   -0.9508   -2.0126 C   0  0  0  0  0  0  0  0  0  0  0  0
   -3.7460   -1.2812   -1.1625 C   0  0  0  0  0  0  0  0  0  0  0  0
   -2.3855   -2.2641   -1.7374 Cl  0  0  0  0  0  0  0  0  0  0  0  0
    0.8480    2.9266   -0.9070 H   0  0  0  0  0  0  0  0  0  0  0  0
   -0.8736    2.9840   -0.5267 H   0  0  0  0  0  0  0  0  0  0  0  0
    0.2494    3.0766    0.8387 H   0  0  0  0  0  0  0  0  0  0  0  0
   -0.0420    0.7634   -1.1241 H   0  0  0  0  0  0  0  0  0  0  0  0
   -2.1599    0.8466   -0.3776 H   0  0  0  0  0  0  0  0  0  0  0  0
   -1.7450    1.6942    1.1229 H   0  0  0  0  0  0  0  0  0  0  0  0
   -0.3544    0.0977    2.8707 H   0  0  0  0  0  0  0  0  0  0  0  0
   -0.7111   -1.6548    2.5970 H   0  0  0  0  0  0  0  0  0  0  0  0
    1.6538   -1.1199    1.7887 H   0  0  0  0  0  0  0  0  0  0  0  0
    0.5045   -1.5395    0.4128 H   0  0  0  0  0  0  0  0  0  0  0  0
    4.6881   -0.3744    2.0379 H   0  0  0  0  0  0  0  0  0  0  0  0
    6.6200   -1.6187    1.0385 H   0  0  0  0  0  0  0  0  0  0  0  0
    5.2250   -0.6678   -2.8006 H   0  0  0  0  0  0  0  0  0  0  0  0
   -4.8997    0.2824    1.5863 H   0  0  0  0  0  0  0  0  0  0  0  0
   -6.7561    0.8749    0.0520 H   0  0  0  0  0  0  0  0  0  0  0  0
   -4.7248   -1.3181   -3.0534 H   0  0  0  0  0  0  0  0  0  0  0  0
  1  2  1  0
  2  3  1  0
  3  4  1  0
  4  5  1  0
  5  6  1  0
  6  7  1  0
  7  8  1  0
  8  9  2  0
  8 10  2  0
  8 11  1  0
 11 12  2  0
 12 13  1  0
 13 14  2  0
 14 15  1  0
 14 16  1  0
 16 17  2  0
 17 18  1  0
  4 19  1  0
 19 20  2  0
 19 21  1  0
 21 22  2  0
 22 23  1  0
 23 24  2  0
 24 25  1  0
 24 26  1  0
 26 27  2  0
 27 28  1  0
  7  2  1  0
 17 11  1  0
 27 21  1  0
  1 29  1  0
  1 30  1  0
  1 31  1  0
  2 32  1  6
  3 33  1  0
  3 34  1  0
  5 35  1  0
  5 36  1  0
  6 37  1  0
  6 38  1  0
 12 39  1  0
 13 40  1  0
 16 41  1  0
 22 42  1  0
 23 43  1  0
 26 44  1  0
M  END
$$$$
[H]Oc1c([H])c([H])c(C([H])([H])[C@]([H])(C(=O)N([H])[C@]([H])(C(=O)N([H])[H])C([H])([H])C([H])(C([H])([H])[H])C([H])([H])[H])N([H])C(=O)[C@@]2([H])N(C(=O)[C@@]([H])(N([H])[H])C([H])([H])c3c([H])c([H])c([H])c([H])c3[H])C([H])([H])C([H])([H])C2([H])[H])c([H])c1[H]
     RDKit          3D

 78 80  0  0  0  0  0  0  0  0999 V2000
   -4.9686    0.0238   -1.5607 C   0  0  0  0  0  0  0  0  0  0  0  0
   -5.5092    0.9254   -0.4758 C   0  0  0  0  0  0  0  0  0  0  0  0
   -6.5837    1.7831   -1.1382 C   0  0  0  0  0  0  0  0  0  0  0  0
   -4.5283    1.8407    0.1203 C   0  0  0  0  0  0  0  0  0  0  0  0
   -3.3102    1.3067    0.8054 C   0  0  2  0  0  0  0  0  0  0  0  0
   -2.4034    0.5550    0.1084 N   0  0  0  0  0  0  0  0  0  0  0  0
   -1.4926   -0.1970   -0.5946 C   0  0  0  0  0  0  0  0  0  0  0  0
   -0.9874    0.0695   -1.6988 O   0  0  0  0  0  0  0  0  0  0  0  0
   -0.9667   -1.5017   -0.0000 C   0  0  1  0  0  0  0  0  0  0  0  0
   -1.2129   -2.7403   -0.6939 C   0  0  0  0  0  0  0  0  0  0  0  0
   -2.5124   -3.2726   -1.0169 C   0  0  0  0  0  0  0  0  0  0  0  0
   -3.0002   -3.1051   -2.3167 C   0  0  0  0  0  0  0  0  0  0  0  0
   -4.2238   -3.5999   -2.6830 C   0  0  0  0  0  0  0  0  0  0  0  0
   -5.0462   -4.2874   -1.8019 C   0  0  0  0  0  0  0  0  0  0  0  0
   -6.2880   -4.7978   -2.1518 O   0  0  0  0  0  0  0  0  0  0  0  0
   -4.5501   -4.4484   -0.5061 C   0  0  0  0  0  0  0  0  0  0  0  0
   -3.3229   -3.9512   -0.1424 C   0  0  0  0  0  0  0  0  0  0  0  0
    0.5560   -1.2915   -0.0857 N   0  0  0  0  0  0  0  0  0  0  0  0
    1.1291   -0.3995    0.8213 C   0  0  0  0  0  0  0  0  0  0  0  0
    0.3742    0.1931    1.6321 O   0  0  0  0  0  0  0  0  0  0  0  0
    2.5965   -0.1521    0.8234 C   0  0  2  0  0  0  0  0  0  0  0  0
    3.1490   -0.9091    2.0763 C   0  0  0  0  0  0  0  0  0  0  0  0
    2.6929    0.0013    3.2023 C   0  0  0  0  0  0  0  0  0  0  0  0
    2.6948    1.3531    2.5858 C   0  0  0  0  0  0  0  0  0  0  0  0
    2.9605    1.1866    1.1895 N   0  0  0  0  0  0  0  0  0  0  0  0
    3.4747    2.1917    0.3549 C   0  0  0  0  0  0  0  0  0  0  0  0
    3.7526    3.3658    0.9342 O   0  0  0  0  0  0  0  0  0  0  0  0
    3.7680    2.1940   -1.0608 C   0  0  1  0  0  0  0  0  0  0  0  0
    4.2949    3.5258   -1.4661 N   0  0  0  0  0  0  0  0  0  0  0  0
    4.6969    1.2065   -1.6450 C   0  0  0  0  0  0  0  0  0  0  0  0
    6.0635    1.1574   -1.1321 C   0  0  0  0  0  0  0  0  0  0  0  0
    6.3520    0.1719   -0.1742 C   0  0  0  0  0  0  0  0  0  0  0  0
    7.6397    0.0828    0.3574 C   0  0  0  0  0  0  0  0  0  0  0  0
    8.6386    0.9374   -0.0293 C   0  0  0  0  0  0  0  0  0  0  0  0
    8.3467    1.9189   -0.9836 C   0  0  0  0  0  0  0  0  0  0  0  0
    7.0729    1.9921   -1.4964 C   0  0  0  0  0  0  0  0  0  0  0  0
   -3.6752    0.7367    2.1527 C   0  0  0  0  0  0  0  0  0  0  0  0
   -4.4054    1.5380    3.0742 N   0  0  0  0  0  0  0  0  0  0  0  0
   -3.3561   -0.4285    2.5101 O   0  0  0  0  0  0  0  0  0  0  0  0
   -4.2020    0.5141   -2.1827 H   0  0  0  0  0  0  0  0  0  0  0  0
   -5.7942   -0.2944   -2.2283 H   0  0  0  0  0  0  0  0  0  0  0  0
   -4.5328   -0.8593   -1.0196 H   0  0  0  0  0  0  0  0  0  0  0  0
   -6.0760    0.3145    0.2889 H   0  0  0  0  0  0  0  0  0  0  0  0
   -6.0785    2.4801   -1.8435 H   0  0  0  0  0  0  0  0  0  0  0  0
   -7.3112    1.1492   -1.6969 H   0  0  0  0  0  0  0  0  0  0  0  0
   -7.0743    2.3644   -0.3548 H   0  0  0  0  0  0  0  0  0  0  0  0
   -4.1718    2.5313   -0.6986 H   0  0  0  0  0  0  0  0  0  0  0  0
   -5.0734    2.5268    0.8343 H   0  0  0  0  0  0  0  0  0  0  0  0
   -2.7586    2.3061    1.0957 H   0  0  0  0  0  0  0  0  0  0  0  0
   -2.3832    1.4817   -0.9026 H   0  0  0  0  0  0  0  0  0  0  0  0
   -1.1611   -1.4123    1.0629 H   0  0  0  0  0  0  0  0  0  0  0  0
   -0.6813   -3.5654   -0.0650 H   0  0  0  0  0  0  0  0  0  0  0  0
   -0.5242   -2.7674   -1.6115 H   0  0  0  0  0  0  0  0  0  0  0  0
   -2.3743   -2.5648   -3.0215 H   0  0  0  0  0  0  0  0  0  0  0  0
   -4.6315   -3.4773   -3.6955 H   0  0  0  0  0  0  0  0  0  0  0  0
   -6.3771   -5.7339   -2.5319 H   0  0  0  0  0  0  0  0  0  0  0  0
   -5.1642   -4.9747    0.2045 H   0  0  0  0  0  0  0  0  0  0  0  0
   -2.9599   -4.0940    0.8952 H   0  0  0  0  0  0  0  0  0  0  0  0
    1.0751   -1.8063   -0.7896 H   0  0  0  0  0  0  0  0  0  0  0  0
    3.0394   -0.5757   -0.0670 H   0  0  0  0  0  0  0  0  0  0  0  0
    4.2278   -0.9225    1.9746 H   0  0  0  0  0  0  0  0  0  0  0  0
    2.6454   -1.8722    2.2045 H   0  0  0  0  0  0  0  0  0  0  0  0
    1.6840   -0.2892    3.6016 H   0  0  0  0  0  0  0  0  0  0  0  0
    3.4234   -0.0468    4.0759 H   0  0  0  0  0  0  0  0  0  0  0  0
    1.7054    1.8454    2.7694 H   0  0  0  0  0  0  0  0  0  0  0  0
    3.5032    1.9684    3.0737 H   0  0  0  0  0  0  0  0  0  0  0  0
    2.7796    2.0582   -1.6537 H   0  0  0  0  0  0  0  0  0  0  0  0
    4.7999    3.9606   -0.6858 H   0  0  0  0  0  0  0  0  0  0  0  0
    3.5591    4.1132   -1.8913 H   0  0  0  0  0  0  0  0  0  0  0  0
    4.8208    1.5556   -2.7467 H   0  0  0  0  0  0  0  0  0  0  0  0
    4.2339    0.1968   -1.8340 H   0  0  0  0  0  0  0  0  0  0  0  0
    5.6384   -0.5522    0.1744 H   0  0  0  0  0  0  0  0  0  0  0  0
    7.9124   -0.6670    1.0938 H   0  0  0  0  0  0  0  0  0  0  0  0
    9.6657    0.8901    0.3754 H   0  0  0  0  0  0  0  0  0  0  0  0
    9.1365    2.6012   -1.2861 H   0  0  0  0  0  0  0  0  0  0  0  0
    6.8597    2.7558   -2.2261 H   0  0  0  0  0  0  0  0  0  0  0  0
   -3.8533    2.1170    3.7555 H   0  0  0  0  0  0  0  0  0  0  0  0
   -5.4372    1.5695    3.1122 H   0  0  0  0  0  0  0  0  0  0  0  0
  1  2  1  0
  2  3  1  0
  2  4  1  0
  4  5  1  0
  5  6  1  0
  6  7  1  0
  7  8  2  0
  7  9  1  0
  9 10  1  0
 10 11  1  0
 11 12  2  0
 12 13  1  0
 13 14  2  0
 14 15  1  0
 14 16  1  0
 16 17  2  0
  9 18  1  0
 18 19  1  0
 19 20  2  0
 19 21  1  0
 21 22  1  0
 22 23  1  0
 23 24  1  0
 24 25  1  0
 25 26  1  0
 26 27  2  0
 26 28  1  0
 28 29  1  0
 28 30  1  0
 30 31  1  0
 31 32  2  0
 32 33  1  0
 33 34  2  0
 34 35  1  0
 35 36  2  0
  5 37  1  0
 37 38  1  0
 37 39  2  0
 17 11  1  0
 25 21  1  0
 36 31  1  0
  1 40  1  0
  1 41  1  0
  1 42  1  0
  2 43  1  0
  3 44  1  0
  3 45  1  0
  3 46  1  0
  4 47  1  0
  4 48  1  0
  5 49  1  1
  6 50  1  0
  9 51  1  1
 10 52  1  0
 10 53  1  0
 12 54  1  0
 13 55  1  0
 15 56  1  0
 16 57  1  0
 17 58  1  0
 18 59  1  0
 21 60  1  6
 22 61  1  0
 22 62  1  0
 23 63  1  0
 23 64  1  0
 24 65  1  0
 24 66  1  0
 28 67  1  6
 29 68  1  0
 29 69  1  0
 30 70  1  0
 30 71  1  0
 32 72  1  0
 33 73  1  0
 34 74  1  0
 35 75  1  0
 36 76  1  0
 38 77  1  0
 38 78  1  0
M  END
$$$$
[H]c1nc(N([H])c2c([H])c([H])c(N3C([H])([H])C([H])([H])N(C([H])([H])[H])C([H])([H])C3([H])[H])c([H])c2[H])nc(N([H])c2nc([H])c(N3C([H])([H])C([H])([H])OC([H])([H])C3([H])[H])c([H])c2[H])c1C(=O)N([H])[H]
     RDKit          3D

 67 71  0  0  0  0  0  0  0  0999 V2000
   -9.4077    1.0962    0.2808 C   0  0  0  0  0  0  0  0  0  0  0  0
   -8.4832    1.9665    0.9327 N   0  0  0  0  0  0  0  0  0  0  0  0
   -7.7801    1.2726    1.9545 C   0  0  0  0  0  0  0  0  0  0  0  0
   -6.7727    0.3518    1.2522 C   0  0  0  0  0  0  0  0  0  0  0  0
   -5.8017    1.2471    0.6619 N   0  0  0  0  0  0  0  0  0  0  0  0
   -6.1930    2.5579    0.2376 C   0  0  0  0  0  0  0  0  0  0  0  0
   -7.6608    2.7480    0.0612 C   0  0  0  0  0  0  0  0  0  0  0  0
   -4.4645    0.7802    0.5109 C   0  0  0  0  0  0  0  0  0  0  0  0
   -3.4713    1.6676    0.1445 C   0  0  0  0  0  0  0  0  0  0  0  0
   -2.1742    1.2443   -0.0187 C   0  0  0  0  0  0  0  0  0  0  0  0
   -1.7889   -0.0906    0.1740 C   0  0  0  0  0  0  0  0  0  0  0  0
   -0.4338   -0.4112   -0.0052 N   0  0  0  0  0  0  0  0  0  0  0  0
    0.1353   -1.7056   -0.1791 C   0  0  0  0  0  0  0  0  0  0  0  0
   -0.5533   -2.8492   -0.2052 N   0  0  0  0  0  0  0  0  0  0  0  0
   -0.0153   -4.0595   -0.3722 C   0  0  0  0  0  0  0  0  0  0  0  0
    1.3712   -4.2085   -0.5378 C   0  0  0  0  0  0  0  0  0  0  0  0
    1.9053   -5.5365   -0.7147 C   0  0  0  0  0  0  0  0  0  0  0  0
    0.9620   -6.6293   -0.7117 N   0  0  0  0  0  0  0  0  0  0  0  0
    3.0773   -5.8935   -0.8731 O   0  0  0  0  0  0  0  0  0  0  0  0
    2.0946   -3.0398   -0.5132 C   0  0  0  0  0  0  0  0  0  0  0  0
    3.4958   -3.0808   -0.6698 N   0  0  0  0  0  0  0  0  0  0  0  0
    4.2484   -1.8636   -0.6497 C   0  0  0  0  0  0  0  0  0  0  0  0
    5.6182   -1.8787   -0.7968 C   0  0  0  0  0  0  0  0  0  0  0  0
    6.3804   -0.7275   -0.7864 C   0  0  0  0  0  0  0  0  0  0  0  0
    5.7680    0.4953   -0.6240 C   0  0  0  0  0  0  0  0  0  0  0  0
    4.3818    0.4849   -0.4776 C   0  0  0  0  0  0  0  0  0  0  0  0
    3.6936   -0.6581   -0.4948 N   0  0  0  0  0  0  0  0  0  0  0  0
    6.5052    1.6924   -0.6178 N   0  0  0  0  0  0  0  0  0  0  0  0
    7.8405    1.7500   -1.1832 C   0  0  0  0  0  0  0  0  0  0  0  0
    8.6382    2.8493   -0.4747 C   0  0  0  0  0  0  0  0  0  0  0  0
    8.2290    2.9408    0.8536 O   0  0  0  0  0  0  0  0  0  0  0  0
    6.9494    3.3680    1.0483 C   0  0  0  0  0  0  0  0  0  0  0  0
    6.0216    2.9380   -0.0568 C   0  0  0  0  0  0  0  0  0  0  0  0
    1.4627   -1.8479   -0.3376 N   0  0  0  0  0  0  0  0  0  0  0  0
   -2.7739   -0.9679    0.5379 C   0  0  0  0  0  0  0  0  0  0  0  0
   -4.0927   -0.5246    0.7007 C   0  0  0  0  0  0  0  0  0  0  0  0
  -10.4126    1.5931    0.2864 H   0  0  0  0  0  0  0  0  0  0  0  0
   -9.0751    0.8328   -0.7401 H   0  0  0  0  0  0  0  0  0  0  0  0
   -9.5303    0.1490    0.8515 H   0  0  0  0  0  0  0  0  0  0  0  0
   -7.1789    1.9775    2.5836 H   0  0  0  0  0  0  0  0  0  0  0  0
   -8.4920    0.7155    2.5680 H   0  0  0  0  0  0  0  0  0  0  0  0
   -7.3421   -0.2129    0.5056 H   0  0  0  0  0  0  0  0  0  0  0  0
   -6.3363   -0.3618    1.9810 H   0  0  0  0  0  0  0  0  0  0  0  0
   -5.8038    3.2919    0.9687 H   0  0  0  0  0  0  0  0  0  0  0  0
   -5.6484    2.7667   -0.7252 H   0  0  0  0  0  0  0  0  0  0  0  0
   -7.9229    2.4666   -0.9860 H   0  0  0  0  0  0  0  0  0  0  0  0
   -7.9450    3.8143    0.1779 H   0  0  0  0  0  0  0  0  0  0  0  0
   -3.7696    2.7008   -0.0022 H   0  0  0  0  0  0  0  0  0  0  0  0
   -1.4177    1.9581   -0.3048 H   0  0  0  0  0  0  0  0  0  0  0  0
    0.2822    0.3952   -0.0113 H   0  0  0  0  0  0  0  0  0  0  0  0
   -0.6347   -4.9656   -0.3838 H   0  0  0  0  0  0  0  0  0  0  0  0
    0.6935   -7.0221   -1.6254 H   0  0  0  0  0  0  0  0  0  0  0  0
    0.5748   -6.9981    0.1659 H   0  0  0  0  0  0  0  0  0  0  0  0
    4.0276   -3.9320   -0.8002 H   0  0  0  0  0  0  0  0  0  0  0  0
    6.0997   -2.8504   -0.9256 H   0  0  0  0  0  0  0  0  0  0  0  0
    7.4569   -0.8029   -0.9048 H   0  0  0  0  0  0  0  0  0  0  0  0
    3.8480    1.4056   -0.3562 H   0  0  0  0  0  0  0  0  0  0  0  0
    7.8097    2.0525   -2.2507 H   0  0  0  0  0  0  0  0  0  0  0  0
    8.4038    0.8400   -1.0812 H   0  0  0  0  0  0  0  0  0  0  0  0
    9.6973    2.5318   -0.4758 H   0  0  0  0  0  0  0  0  0  0  0  0
    8.5471    3.8022   -1.0113 H   0  0  0  0  0  0  0  0  0  0  0  0
    6.5804    2.9423    2.0272 H   0  0  0  0  0  0  0  0  0  0  0  0
    6.9846    4.4771    1.1532 H   0  0  0  0  0  0  0  0  0  0  0  0
    5.0053    2.7967    0.3617 H   0  0  0  0  0  0  0  0  0  0  0  0
    6.0463    3.7585   -0.8116 H   0  0  0  0  0  0  0  0  0  0  0  0
   -2.6103   -2.0109    0.7287 H   0  0  0  0  0  0  0  0  0  0  0  0
   -4.8483   -1.2583    0.9867 H   0  0  0  0  0  0  0  0  0  0  0  0
  1  2  1  0
  2  3  1  0
  3  4  1  0
  4  5  1  0
  5  6  1  0
  6  7  1  0
  5  8  1  0
  8  9  2  0
  9 10  1  0
 10 11  2  0
 11 12  1  0
 12 13  1  0
 13 14  2  0
 14 15  1  0
 15 16  2  0
 16 17  1  0
 17 18  1  0
 17 19  2  0
 16 20  1  0
 20 21  1  0
 21 22  1  0
 22 23  2  0
 23 24  1  0
 24 25  2  0
 25 26  1  0
 26 27  2  0
 25 28  1  0
 28 29  1  0
 29 30  1  0
 30 31  1  0
 31 32  1  0
 32 33  1  0
 20 34  2  0
 11 35  1  0
 35 36  2  0
  7  2  1  0
 36  8  1  0
 34 13  1  0
 27 22  1  0
 33 28  1  0
  1 37  1  0
  1 38  1  0
  1 39  1  0
  3 40  1  0
  3 41  1  0
  4 42  1  0
  4 43  1  0
  6 44  1  0
  6 45  1  0
  7 46  1  0
  7 47  1  0
  9 48  1  0
 10 49  1  0
 12 50  1  0
 15 51  1  0
 18 52  1  0
 18 53  1  0
 21 54  1  0
 23 55  1  0
 24 56  1  0
 26 57  1  0
 29 58  1  0
 29 59  1  0
 30 60  1  0
 30 61  1  0
 32 62  1  0
 32 63  1  0
 33 64  1  0
 33 65  1  0
 35 66  1  0
 36 67  1  0
M  END
$$$$
[H]c1c([H])c(-c2c([H])c([H])c(N3C([H])([H])C([H])([H])N(C([H])([H])[H])C([H])([H])C3([H])[H])c([H])c2[H])c([H])c([H])c1C#N
     RDKit          3D

 40 42  0  0  0  0  0  0  0  0999 V2000
   -5.0416    0.8368    1.2601 C   0  0  0  0  0  0  0  0  0  0  0  0
   -4.9692    0.0868    0.0341 N   0  0  0  0  0  0  0  0  0  0  0  0
   -4.3363   -1.1998    0.2034 C   0  0  0  0  0  0  0  0  0  0  0  0
   -2.8801   -0.9967    0.5585 C   0  0  0  0  0  0  0  0  0  0  0  0
   -2.2120   -0.1147   -0.3492 N   0  0  0  0  0  0  0  0  0  0  0  0
   -2.9552    0.6702   -1.2897 C   0  0  0  0  0  0  0  0  0  0  0  0
   -4.3912    0.8856   -0.9896 C   0  0  0  0  0  0  0  0  0  0  0  0
   -0.8099   -0.0187   -0.3132 C   0  0  0  0  0  0  0  0  0  0  0  0
   -0.0642    0.6948   -1.2279 C   0  0  0  0  0  0  0  0  0  0  0  0
    1.3104    0.7572   -1.1374 C   0  0  0  0  0  0  0  0  0  0  0  0
    2.0143    0.1148   -0.1351 C   0  0  0  0  0  0  0  0  0  0  0  0
    1.2629   -0.5941    0.7724 C   0  0  0  0  0  0  0  0  0  0  0  0
   -0.1222   -0.6640    0.6913 C   0  0  0  0  0  0  0  0  0  0  0  0
    3.4661    0.1634   -0.0205 C   0  0  0  0  0  0  0  0  0  0  0  0
    4.2856    0.2561   -1.1462 C   0  0  0  0  0  0  0  0  0  0  0  0
    5.6728    0.3026   -1.0342 C   0  0  0  0  0  0  0  0  0  0  0  0
    6.2707    0.2570    0.2119 C   0  0  0  0  0  0  0  0  0  0  0  0
    5.4742    0.1644    1.3517 C   0  0  0  0  0  0  0  0  0  0  0  0
    4.0972    0.1211    1.1904 C   0  0  0  0  0  0  0  0  0  0  0  0
    7.7061    0.3031    0.3607 C   0  0  0  0  0  0  0  0  0  0  0  0
    8.8613    0.3225    0.4903 N   0  0  0  0  0  0  0  0  0  0  0  0
   -5.4957    0.2613    2.0878 H   0  0  0  0  0  0  0  0  0  0  0  0
   -5.6396    1.7557    1.0454 H   0  0  0  0  0  0  0  0  0  0  0  0
   -4.0297    1.2123    1.5752 H   0  0  0  0  0  0  0  0  0  0  0  0
   -4.8095   -1.6983    1.0684 H   0  0  0  0  0  0  0  0  0  0  0  0
   -4.4642   -1.8051   -0.6973 H   0  0  0  0  0  0  0  0  0  0  0  0
   -2.3996   -2.0003    0.6094 H   0  0  0  0  0  0  0  0  0  0  0  0
   -2.8654   -0.5108    1.5723 H   0  0  0  0  0  0  0  0  0  0  0  0
   -2.4248    1.6661   -1.3537 H   0  0  0  0  0  0  0  0  0  0  0  0
   -2.9027    0.2174   -2.3260 H   0  0  0  0  0  0  0  0  0  0  0  0
   -5.0318    0.7947   -1.8971 H   0  0  0  0  0  0  0  0  0  0  0  0
   -4.5206    1.9646   -0.6817 H   0  0  0  0  0  0  0  0  0  0  0  0
   -0.5875    1.2060   -2.0258 H   0  0  0  0  0  0  0  0  0  0  0  0
    1.8800    1.3253   -1.8691 H   0  0  0  0  0  0  0  0  0  0  0  0
    1.7173   -1.1294    1.5905 H   0  0  0  0  0  0  0  0  0  0  0  0
   -0.6969   -1.2320    1.4220 H   0  0  0  0  0  0  0  0  0  0  0  0
    3.8532    0.2929   -2.1197 H   0  0  0  0  0  0  0  0  0  0  0  0
    6.3256    0.3741   -1.8932 H   0  0  0  0  0  0  0  0  0  0  0  0
    5.9556    0.1302    2.3151 H   0  0  0  0  0  0  0  0  0  0  0  0
    3.4968    0.0491    2.0957 H   0  0  0  0  0  0  0  0  0  0  0  0
  1  2  1  0
  2  3  1  0
  3  4  1  0
  4  5  1  0
  5  6  1  0
  6  7  1  0
  5  8  1  0
  8  9  2  0
  9 10  1  0
 10 11  2  0
 11 12  1  0
 12 13  2  0
 11 14  1  0
 14 15  2  0
 15 16  1  0
 16 17  2  0
 17 18  1  0
 18 19  2  0
 17 20  1  0
 20 21  3  0
  7  2  1  0
 13  8  1  0
 19 14  1  0
  1 22  1  0
  1 23  1  0
  1 24  1  0
  3 25  1  0
  3 26  1  0
  4 27  1  0
  4 28  1  0
  6 29  1  0
  6 30  1  0
  7 31  1  0
  7 32  1  0
  9 33  1  0
 10 34  1  0
 12 35  1  0
 13 36  1  0
 15 37  1  0
 16 38  1  0
 18 39  1  0
 19 40  1  0
M  END
$$$$
[H]c1nc2c(c([H])c1C(=O)N([H])[C@]([H])(C(=O)N([H])[C@]1([H])C([H])([H])C([H])([H])[C@@]([H])(c3c([H])c([H])c([H])c([H])c3[H])C([H])([H])C1([H])[H])C([H])([H])[H])c([H])c([H])n2[H]
     RDKit          3D

 55 58  0  0  0  0  0  0  0  0999 V2000
    2.1741    2.5596   -0.4629 C   0  0  0  0  0  0  0  0  0  0  0  0
    2.0365    1.2969    0.3621 C   0  0  2  0  0  0  0  0  0  0  0  0
    3.0357    0.3352   -0.0739 N   0  0  0  0  0  0  0  0  0  0  0  0
    4.2423    0.1664    0.5977 C   0  0  0  0  0  0  0  0  0  0  0  0
    4.4950    0.8908    1.6534 O   0  0  0  0  0  0  0  0  0  0  0  0
    5.2352   -0.7957    0.1543 C   0  0  0  0  0  0  0  0  0  0  0  0
    4.8360   -2.0148   -0.4089 C   0  0  0  0  0  0  0  0  0  0  0  0
    5.7641   -2.8804   -0.8137 N   0  0  0  0  0  0  0  0  0  0  0  0
    7.0983   -2.6818   -0.7267 C   0  0  0  0  0  0  0  0  0  0  0  0
    8.1674   -3.4215   -1.0736 N   0  0  0  0  0  0  0  0  0  0  0  0
    9.2962   -2.7378   -0.7626 C   0  0  0  0  0  0  0  0  0  0  0  0
    8.9256   -1.5385   -0.2057 C   0  0  0  0  0  0  0  0  0  0  0  0
    7.5404   -1.4873   -0.1754 C   0  0  0  0  0  0  0  0  0  0  0  0
    6.5986   -0.5652    0.2551 C   0  0  0  0  0  0  0  0  0  0  0  0
    0.6793    0.7494    0.3299 C   0  0  0  0  0  0  0  0  0  0  0  0
    0.5831   -0.5290    0.3455 O   0  0  0  0  0  0  0  0  0  0  0  0
   -0.5232    1.4661    0.2781 N   0  0  0  0  0  0  0  0  0  0  0  0
   -1.8320    0.8391    0.2503 C   0  0  1  0  0  0  0  0  0  0  0  0
   -2.8561    1.5960    0.9733 C   0  0  0  0  0  0  0  0  0  0  0  0
   -4.1476    1.8985    0.3113 C   0  0  0  0  0  0  0  0  0  0  0  0
   -4.6432    0.9199   -0.6865 C   0  0  1  0  0  0  0  0  0  0  0  0
   -3.5977   -0.1164   -1.0705 C   0  0  0  0  0  0  0  0  0  0  0  0
   -2.2845    0.6670   -1.2055 C   0  0  0  0  0  0  0  0  0  0  0  0
   -5.8322    0.1835   -0.2116 C   0  0  0  0  0  0  0  0  0  0  0  0
   -5.9243   -0.2721    1.0805 C   0  0  0  0  0  0  0  0  0  0  0  0
   -7.0036   -0.9781    1.5774 C   0  0  0  0  0  0  0  0  0  0  0  0
   -8.0610   -1.2510    0.7413 C   0  0  0  0  0  0  0  0  0  0  0  0
   -8.0081   -0.8111   -0.5618 C   0  0  0  0  0  0  0  0  0  0  0  0
   -6.9193   -0.1067   -1.0381 C   0  0  0  0  0  0  0  0  0  0  0  0
    2.4556    3.3970    0.2189 H   0  0  0  0  0  0  0  0  0  0  0  0
    1.2022    2.8508   -0.9301 H   0  0  0  0  0  0  0  0  0  0  0  0
    2.9713    2.3983   -1.2350 H   0  0  0  0  0  0  0  0  0  0  0  0
    2.3580    1.5394    1.4318 H   0  0  0  0  0  0  0  0  0  0  0  0
    2.8486   -0.2653   -0.9416 H   0  0  0  0  0  0  0  0  0  0  0  0
    3.7647   -2.1788   -0.4816 H   0  0  0  0  0  0  0  0  0  0  0  0
    8.1310   -4.3666   -1.5095 H   0  0  0  0  0  0  0  0  0  0  0  0
   10.3176   -3.0632   -0.9190 H   0  0  0  0  0  0  0  0  0  0  0  0
    9.5483   -0.7381    0.1595 H   0  0  0  0  0  0  0  0  0  0  0  0
    6.9196    0.3753    0.6918 H   0  0  0  0  0  0  0  0  0  0  0  0
   -0.4953    2.5057    0.2517 H   0  0  0  0  0  0  0  0  0  0  0  0
   -1.6807   -0.1902    0.6662 H   0  0  0  0  0  0  0  0  0  0  0  0
   -2.3772    2.5711    1.3092 H   0  0  0  0  0  0  0  0  0  0  0  0
   -3.0319    1.0727    1.9630 H   0  0  0  0  0  0  0  0  0  0  0  0
   -4.9295    2.0404    1.1042 H   0  0  0  0  0  0  0  0  0  0  0  0
   -4.0609    2.8972   -0.1671 H   0  0  0  0  0  0  0  0  0  0  0  0
   -4.9038    1.3951   -1.6582 H   0  0  0  0  0  0  0  0  0  0  0  0
   -3.7797   -0.5379   -2.0601 H   0  0  0  0  0  0  0  0  0  0  0  0
   -3.4380   -0.8945   -0.3270 H   0  0  0  0  0  0  0  0  0  0  0  0
   -2.5535    1.6647   -1.6275 H   0  0  0  0  0  0  0  0  0  0  0  0
   -1.5749    0.1112   -1.8025 H   0  0  0  0  0  0  0  0  0  0  0  0
   -5.0973   -0.0730    1.7857 H   0  0  0  0  0  0  0  0  0  0  0  0
   -7.0425   -1.3194    2.5935 H   0  0  0  0  0  0  0  0  0  0  0  0
   -8.9382   -1.8024    1.0635 H   0  0  0  0  0  0  0  0  0  0  0  0
   -8.8425   -1.0256   -1.2269 H   0  0  0  0  0  0  0  0  0  0  0  0
   -6.8462    0.2550   -2.0530 H   0  0  0  0  0  0  0  0  0  0  0  0
  1  2  1  0
  2  3  1  0
  3  4  1  0
  4  5  2  0
  4  6  1  0
  6  7  2  0
  7  8  1  0
  8  9  2  0
  9 10  1  0
 10 11  1  0
 11 12  2  0
 12 13  1  0
 13 14  2  0
  2 15  1  0
 15 16  2  0
 15 17  1  0
 17 18  1  0
 18 19  1  0
 19 20  1  0
 20 21  1  0
 21 22  1  0
 22 23  1  0
 21 24  1  0
 24 25  2  0
 25 26  1  0
 26 27  2  0
 27 28  1  0
 28 29  2  0
 14  6  1  0
 23 18  1  0
 29 24  1  0
 13  9  1  0
  1 30  1  0
  1 31  1  0
  1 32  1  0
  2 33  1  1
  3 34  1  0
  7 35  1  0
 10 36  1  0
 11 37  1  0
 12 38  1  0
 14 39  1  0
 17 40  1  0
 18 41  1  1
 19 42  1  0
 19 43  1  0
 20 44  1  0
 20 45  1  0
 21 46  1  6
 22 47  1  0
 22 48  1  0
 23 49  1  0
 23 50  1  0
 25 51  1  0
 26 52  1  0
 27 53  1  0
 28 54  1  0
 29 55  1  0
M  END
$$$$
[H]OC(=O)[C@@]([H])(N([H])C(=O)[C@]([H])(N([H])C(=O)[C@@]([H])(N([H])S(=O)(=O)c1c([H])c([H])c([H])c([H])c1[H])C([H])(C([H])([H])[H])C([H])([H])[H])C([H])([H])c1c([H])c([H])c([H])c([H])c1[H])C([H])([H])c1c([H])n([H])c2c([H])c([H])c([H])c([H])c12
     RDKit          3D

 76 79  0  0  0  0  0  0  0  0999 V2000
    1.5619    2.2586   -1.8204 C   0  0  0  0  0  0  0  0  0  0  0  0
    2.1669    2.1468   -0.4434 C   0  0  0  0  0  0  0  0  0  0  0  0
    2.9398    3.4175   -0.1575 C   0  0  0  0  0  0  0  0  0  0  0  0
    2.9723    0.9058   -0.2468 C   0  0  2  0  0  0  0  0  0  0  0  0
    4.0633    0.8139   -1.1524 N   0  0  0  0  0  0  0  0  0  0  0  0
    5.5975    0.5132   -0.5208 S   0  0  0  0  0  0  0  0  0  0  0  0
    5.5518   -0.7618    0.2929 O   0  0  0  0  0  0  0  0  0  0  0  0
    6.5830    0.3641   -1.6664 O   0  0  0  0  0  0  0  0  0  0  0  0
    6.1061    1.7731    0.5574 C   0  0  0  0  0  0  0  0  0  0  0  0
    6.7564    2.9222    0.1434 C   0  0  0  0  0  0  0  0  0  0  0  0
    7.1627    3.8976    1.0293 C   0  0  0  0  0  0  0  0  0  0  0  0
    6.9298    3.7552    2.3661 C   0  0  0  0  0  0  0  0  0  0  0  0
    6.2848    2.6229    2.8200 C   0  0  0  0  0  0  0  0  0  0  0  0
    5.8828    1.6553    1.9313 C   0  0  0  0  0  0  0  0  0  0  0  0
    2.0964   -0.3247   -0.3677 C   0  0  0  0  0  0  0  0  0  0  0  0
    2.7053   -1.4238   -0.5110 O   0  0  0  0  0  0  0  0  0  0  0  0
    0.7040   -0.2875   -0.3308 N   0  0  0  0  0  0  0  0  0  0  0  0
   -0.1581   -1.5129   -0.4369 C   0  0  2  0  0  0  0  0  0  0  0  0
   -0.5323   -1.6068   -1.8472 C   0  0  0  0  0  0  0  0  0  0  0  0
   -1.3458   -2.6960   -2.3386 C   0  0  0  0  0  0  0  0  0  0  0  0
   -0.7666   -3.9401   -2.5154 C   0  0  0  0  0  0  0  0  0  0  0  0
   -1.4738   -4.9888   -3.0358 C   0  0  0  0  0  0  0  0  0  0  0  0
   -2.7819   -4.8530   -3.4044 C   0  0  0  0  0  0  0  0  0  0  0  0
   -3.3826   -3.6287   -3.2401 C   0  0  0  0  0  0  0  0  0  0  0  0
   -2.6529   -2.5628   -2.7082 C   0  0  0  0  0  0  0  0  0  0  0  0
   -1.0853   -1.5498    0.6582 C   0  0  0  0  0  0  0  0  0  0  0  0
   -0.8529   -0.6492    1.5944 O   0  0  0  0  0  0  0  0  0  0  0  0
   -2.1954   -2.3451    0.9605 N   0  0  0  0  0  0  0  0  0  0  0  0
   -2.9652   -2.2686    2.1501 C   0  0  1  0  0  0  0  0  0  0  0  0
   -4.2560   -1.5718    2.2176 C   0  0  0  0  0  0  0  0  0  0  0  0
   -4.3236   -0.1511    1.9590 C   0  0  0  0  0  0  0  0  0  0  0  0
   -4.3174    0.8082    2.9796 C   0  0  0  0  0  0  0  0  0  0  0  0
   -4.3634    2.0496    2.4274 N   0  0  0  0  0  0  0  0  0  0  0  0
   -4.3995    1.9004    1.0870 C   0  0  0  0  0  0  0  0  0  0  0  0
   -4.4636    2.8154    0.0587 C   0  0  0  0  0  0  0  0  0  0  0  0
   -4.5074    2.4406   -1.2819 C   0  0  0  0  0  0  0  0  0  0  0  0
   -4.4847    1.0822   -1.5760 C   0  0  0  0  0  0  0  0  0  0  0  0
   -4.4207    0.1939   -0.5455 C   0  0  0  0  0  0  0  0  0  0  0  0
   -4.3751    0.5316    0.7883 C   0  0  0  0  0  0  0  0  0  0  0  0
   -3.1711   -3.6498    2.7021 C   0  0  0  0  0  0  0  0  0  0  0  0
   -3.9323   -3.7444    3.8796 O   0  0  0  0  0  0  0  0  0  0  0  0
   -2.7178   -4.6798    2.1857 O   0  0  0  0  0  0  0  0  0  0  0  0
    1.3617    1.2706   -2.2794 H   0  0  0  0  0  0  0  0  0  0  0  0
    2.1557    2.9232   -2.4830 H   0  0  0  0  0  0  0  0  0  0  0  0
    0.5771    2.7873   -1.7035 H   0  0  0  0  0  0  0  0  0  0  0  0
    1.3206    2.1122    0.2926 H   0  0  0  0  0  0  0  0  0  0  0  0
    3.4602    3.3804    0.8116 H   0  0  0  0  0  0  0  0  0  0  0  0
    3.5825    3.6232   -1.0090 H   0  0  0  0  0  0  0  0  0  0  0  0
    2.1931    4.2579   -0.0417 H   0  0  0  0  0  0  0  0  0  0  0  0
    3.3327    0.8417    0.8267 H   0  0  0  0  0  0  0  0  0  0  0  0
    3.8594    0.4396   -2.0896 H   0  0  0  0  0  0  0  0  0  0  0  0
    6.9390    3.0320   -0.9122 H   0  0  0  0  0  0  0  0  0  0  0  0
    7.6705    4.7950    0.6920 H   0  0  0  0  0  0  0  0  0  0  0  0
    7.2543    4.5322    3.0605 H   0  0  0  0  0  0  0  0  0  0  0  0
    6.1110    2.5342    3.8821 H   0  0  0  0  0  0  0  0  0  0  0  0
    5.3736    0.7665    2.2997 H   0  0  0  0  0  0  0  0  0  0  0  0
    0.1830    0.6014   -0.2247 H   0  0  0  0  0  0  0  0  0  0  0  0
    0.6430   -2.3318   -0.1967 H   0  0  0  0  0  0  0  0  0  0  0  0
    0.4465   -1.6432   -2.4382 H   0  0  0  0  0  0  0  0  0  0  0  0
   -0.9491   -0.6109   -2.1771 H   0  0  0  0  0  0  0  0  0  0  0  0
    0.2563   -4.0814   -2.2393 H   0  0  0  0  0  0  0  0  0  0  0  0
   -1.0054   -5.9709   -3.1728 H   0  0  0  0  0  0  0  0  0  0  0  0
   -3.3278   -5.7035   -3.8204 H   0  0  0  0  0  0  0  0  0  0  0  0
   -4.4257   -3.5305   -3.5333 H   0  0  0  0  0  0  0  0  0  0  0  0
   -3.1512   -1.6252   -2.6170 H   0  0  0  0  0  0  0  0  0  0  0  0
   -2.4936   -3.0772    0.2605 H   0  0  0  0  0  0  0  0  0  0  0  0
   -2.2475   -1.7712    2.9083 H   0  0  0  0  0  0  0  0  0  0  0  0
   -4.9915   -2.1350    1.5485 H   0  0  0  0  0  0  0  0  0  0  0  0
   -4.6868   -1.8178    3.2492 H   0  0  0  0  0  0  0  0  0  0  0  0
   -4.2842    0.6608    4.0535 H   0  0  0  0  0  0  0  0  0  0  0  0
   -4.3702    2.9888    2.9118 H   0  0  0  0  0  0  0  0  0  0  0  0
   -4.4837    3.8783    0.2769 H   0  0  0  0  0  0  0  0  0  0  0  0
   -4.5567    3.1103   -2.1052 H   0  0  0  0  0  0  0  0  0  0  0  0
   -4.5198    0.7387   -2.6190 H   0  0  0  0  0  0  0  0  0  0  0  0
   -4.4099   -0.8770   -0.7649 H   0  0  0  0  0  0  0  0  0  0  0  0
   -4.9563   -3.7705    3.8696 H   0  0  0  0  0  0  0  0  0  0  0  0
  1  2  1  0
  2  3  1  0
  2  4  1  0
  4  5  1  0
  5  6  1  0
  6  7  2  0
  6  8  2  0
  6  9  1  0
  9 10  2  0
 10 11  1  0
 11 12  2  0
 12 13  1  0
 13 14  2  0
  4 15  1  0
 15 16  2  0
 15 17  1  0
 17 18  1  0
 18 19  1  0
 19 20  1  0
 20 21  2  0
 21 22  1  0
 22 23  2  0
 23 24  1  0
 24 25  2  0
 18 26  1  0
 26 27  2  0
 26 28  1  0
 28 29  1  0
 29 30  1  0
 30 31  1  0
 31 32  2  0
 32 33  1  0
 33 34  1  0
 34 35  2  0
 35 36  1  0
 36 37  2  0
 37 38  1  0
 38 39  2  0
 29 40  1  0
 40 41  1  0
 40 42  2  0
 14  9  1  0
 25 20  1  0
 39 31  1  0
 39 34  1  0
  1 43  1  0
  1 44  1  0
  1 45  1  0
  2 46  1  0
  3 47  1  0
  3 48  1  0
  3 49  1  0
  4 50  1  1
  5 51  1  0
 10 52  1  0
 11 53  1  0
 12 54  1  0
 13 55  1  0
 14 56  1  0
 17 57  1  0
 18 58  1  1
 19 59  1  0
 19 60  1  0
 21 61  1  0
 22 62  1  0
 23 63  1  0
 24 64  1  0
 25 65  1  0
 28 66  1  0
 29 67  1  1
 30 68  1  0
 30 69  1  0
 32 70  1  0
 33 71  1  0
 35 72  1  0
 36 73  1  0
 37 74  1  0
 38 75  1  0
 41 76  1  0
M  END
$$$$
[H]O[C@]1([H])[C@]([H])(n2c([H])nc3c(N([H])[H])nc([H])nc32)O[C@]1([H])C([H])([H])OP(=O)(O[H])OP(=O)(O[H])OP(=O)(O[H])O[H]
     RDKit          3D

 43 45  0  0  0  0  0  0  0  0999 V2000
   -7.5759   -1.0596    0.4550 N   0  0  0  0  0  0  0  0  0  0  0  0
   -6.4523   -0.8238   -0.3755 C   0  0  0  0  0  0  0  0  0  0  0  0
   -6.4013   -1.3648   -1.5983 N   0  0  0  0  0  0  0  0  0  0  0  0
   -5.3239   -1.1401   -2.3979 C   0  0  0  0  0  0  0  0  0  0  0  0
   -4.2874   -0.3809   -2.0007 N   0  0  0  0  0  0  0  0  0  0  0  0
   -4.2989    0.1897   -0.7615 C   0  0  0  0  0  0  0  0  0  0  0  0
   -3.4371    0.9765   -0.0970 N   0  0  0  0  0  0  0  0  0  0  0  0
   -3.9401    1.2616    1.1137 C   0  0  0  0  0  0  0  0  0  0  0  0
   -5.1257    0.6367    1.1825 N   0  0  0  0  0  0  0  0  0  0  0  0
   -5.3990   -0.0403    0.0536 C   0  0  0  0  0  0  0  0  0  0  0  0
   -2.1653    1.4381   -0.6193 C   0  0  2  0  0  0  0  0  0  0  0  0
   -1.2955    0.4069   -1.0127 O   0  0  0  0  0  0  0  0  0  0  0  0
   -0.2305    1.2089   -0.6112 C   0  0  2  0  0  0  0  0  0  0  0  0
    0.8881    0.4704    0.0846 C   0  0  0  0  0  0  0  0  0  0  0  0
    1.4617   -0.5082   -0.7051 O   0  0  0  0  0  0  0  0  0  0  0  0
    2.6884   -1.2459    0.1961 P   0  0  0  0  0  0  0  0  0  0  0  0
    2.9707   -0.3771    1.6416 O   0  0  0  0  0  0  0  0  0  0  0  0
    2.2646   -2.6476    0.6450 O   0  0  0  0  0  0  0  0  0  0  0  0
    4.1410   -1.3124   -0.6381 O   0  0  0  0  0  0  0  0  0  0  0  0
    4.8419    0.2259   -0.6404 P   0  0  0  0  0  0  0  0  0  0  0  0
    3.9911    1.1892   -1.7089 O   0  0  0  0  0  0  0  0  0  0  0  0
    4.7973    0.8627    0.7397 O   0  0  0  0  0  0  0  0  0  0  0  0
    6.4862    0.1290   -1.0689 O   0  0  0  0  0  0  0  0  0  0  0  0
    7.3580   -0.5740    0.2055 P   0  0  0  0  0  0  0  0  0  0  0  0
    6.2554   -1.2372    1.3190 O   0  0  0  0  0  0  0  0  0  0  0  0
    8.2799    0.6164    0.9554 O   0  0  0  0  0  0  0  0  0  0  0  0
    8.2235   -1.6598   -0.3507 O   0  0  0  0  0  0  0  0  0  0  0  0
   -1.1716    1.7944    0.4479 C   0  0  2  0  0  0  0  0  0  0  0  0
   -1.2412    0.9290    1.5226 O   0  0  0  0  0  0  0  0  0  0  0  0
   -7.4433   -1.5729    1.3536 H   0  0  0  0  0  0  0  0  0  0  0  0
   -8.5413   -0.7469    0.2194 H   0  0  0  0  0  0  0  0  0  0  0  0
   -5.3176   -1.6018   -3.3971 H   0  0  0  0  0  0  0  0  0  0  0  0
   -3.4828    1.8818    1.9017 H   0  0  0  0  0  0  0  0  0  0  0  0
   -2.3212    2.2293   -1.3660 H   0  0  0  0  0  0  0  0  0  0  0  0
    0.0618    1.9252   -1.3823 H   0  0  0  0  0  0  0  0  0  0  0  0
    0.5572    0.1043    1.0679 H   0  0  0  0  0  0  0  0  0  0  0  0
    1.6898    1.2361    0.2750 H   0  0  0  0  0  0  0  0  0  0  0  0
    2.1688   -0.5649    2.2260 H   0  0  0  0  0  0  0  0  0  0  0  0
    3.8107    0.7024   -2.5620 H   0  0  0  0  0  0  0  0  0  0  0  0
    6.2939   -0.8018    2.1875 H   0  0  0  0  0  0  0  0  0  0  0  0
    8.7921    0.1896    1.6742 H   0  0  0  0  0  0  0  0  0  0  0  0
   -1.0230    2.8510    0.6624 H   0  0  0  0  0  0  0  0  0  0  0  0
   -1.5471    0.0419    1.1637 H   0  0  0  0  0  0  0  0  0  0  0  0
  1  2  1  0
  2  3  2  0
  3  4  1  0
  4  5  2  0
  5  6  1  0
  6  7  1  0
  7  8  1  0
  8  9  2  0
  9 10  1  0
  7 11  1  0
 11 12  1  0
 12 13  1  0
 13 14  1  0
 14 15  1  0
 15 16  1  0
 16 17  1  0
 16 18  2  0
 16 19  1  0
 19 20  1  0
 20 21  1  0
 20 22  2  0
 20 23  1  0
 23 24  1  0
 24 25  1  0
 24 26  1  0
 24 27  2  0
 13 28  1  0
 28 29  1  0
 10  2  1  0
 28 11  1  0
 10  6  2  0
  1 30  1  0
  1 31  1  0
  4 32  1  0
  8 33  1  0
 11 34  1  6
 13 35  1  6
 14 36  1  0
 14 37  1  0
 17 38  1  0
 21 39  1  0
 25 40  1  0
 26 41  1  0
 28 42  1  1
 29 43  1  0
M  END
$$$$
[H]Oc1c([H])c([H])c(C([H])([H])[C@@]([H])(C(=O)N([H])[C@]([H])(C(=O)N([H])[C@]([H])(C(=O)N([H])[C@]([H])(C(=O)N([H])[C@]([H])(C(=O)N([H])[H])C([H])([H])c2c([H])n([H])c3c([H])c([H])c([H])c([H])c23)C([H])([H])[H])C([H])([H])c2c([H])n([H])c3c([H])c([H])c([H])c([H])c23)[C@@]([H])(C([H])([H])[H])C([H])([H])C([H])([H])[H])N([H])[H])c([H])c1[H]
     RDKit          3D

102106  0  0  0  0  0  0  0  0999 V2000
    0.7645   -3.1148   -2.0933 C   0  0  0  0  0  0  0  0  0  0  0  0
    1.9239   -3.7245   -1.3902 C   0  0  0  0  0  0  0  0  0  0  0  0
    3.1033   -2.8400   -1.2265 C   0  0  2  0  0  0  0  0  0  0  0  0
    4.2249   -3.5884   -0.5531 C   0  0  0  0  0  0  0  0  0  0  0  0
    2.8253   -1.5175   -0.5092 C   0  0  2  0  0  0  0  0  0  0  0  0
    4.1077   -0.8497   -0.4904 N   0  0  0  0  0  0  0  0  0  0  0  0
    4.2026    0.3746   -1.1873 C   0  0  0  0  0  0  0  0  0  0  0  0
    3.1652    0.8507   -1.7796 O   0  0  0  0  0  0  0  0  0  0  0  0
    5.4282    1.1561   -1.2925 C   0  0  1  0  0  0  0  0  0  0  0  0
    6.5972    0.4291   -0.8734 N   0  0  0  0  0  0  0  0  0  0  0  0
    5.6355    1.6660   -2.7047 C   0  0  0  0  0  0  0  0  0  0  0  0
    6.8536    2.4680   -2.8771 C   0  0  0  0  0  0  0  0  0  0  0  0
    8.0800    1.9408   -3.2289 C   0  0  0  0  0  0  0  0  0  0  0  0
    9.2108    2.7123   -3.4165 C   0  0  0  0  0  0  0  0  0  0  0  0
    9.1508    4.0739   -3.2532 C   0  0  0  0  0  0  0  0  0  0  0  0
   10.2481    4.9189   -3.4279 O   0  0  0  0  0  0  0  0  0  0  0  0
    7.9415    4.6298   -2.9012 C   0  0  0  0  0  0  0  0  0  0  0  0
    6.8118    3.8567   -2.7145 C   0  0  0  0  0  0  0  0  0  0  0  0
    2.1861   -1.7103    0.8176 C   0  0  0  0  0  0  0  0  0  0  0  0
    2.8621   -2.1875    1.7573 O   0  0  0  0  0  0  0  0  0  0  0  0
    0.8577   -1.3707    1.0481 N   0  0  0  0  0  0  0  0  0  0  0  0
    0.1009   -1.5126    2.2146 C   0  0  1  0  0  0  0  0  0  0  0  0
    0.0202   -0.3464    3.1633 C   0  0  0  0  0  0  0  0  0  0  0  0
    1.3005    0.0730    3.7449 C   0  0  0  0  0  0  0  0  0  0  0  0
    2.1378    1.1005    3.4343 C   0  0  0  0  0  0  0  0  0  0  0  0
    3.2103    1.0784    4.2660 N   0  0  0  0  0  0  0  0  0  0  0  0
    3.0892    0.0494    5.1202 C   0  0  0  0  0  0  0  0  0  0  0  0
    3.9151   -0.3743    6.1445 C   0  0  0  0  0  0  0  0  0  0  0  0
    3.5022   -1.4771    6.8572 C   0  0  0  0  0  0  0  0  0  0  0  0
    2.3222   -2.1435    6.5778 C   0  0  0  0  0  0  0  0  0  0  0  0
    1.5322   -1.6824    5.5466 C   0  0  0  0  0  0  0  0  0  0  0  0
    1.9096   -0.5935    4.8206 C   0  0  0  0  0  0  0  0  0  0  0  0
   -1.2653   -1.9507    1.8232 C   0  0  0  0  0  0  0  0  0  0  0  0
   -1.4240   -2.8374    0.9266 O   0  0  0  0  0  0  0  0  0  0  0  0
   -2.4009   -1.4052    2.4119 N   0  0  0  0  0  0  0  0  0  0  0  0
   -3.7233   -1.8535    1.9929 C   0  0  1  0  0  0  0  0  0  0  0  0
   -4.5251   -2.1834    3.1993 C   0  0  0  0  0  0  0  0  0  0  0  0
   -4.3005   -0.7747    1.1379 C   0  0  0  0  0  0  0  0  0  0  0  0
   -3.5727    0.2419    0.9266 O   0  0  0  0  0  0  0  0  0  0  0  0
   -5.5929   -0.8387    0.5647 N   0  0  0  0  0  0  0  0  0  0  0  0
   -6.0332    0.2803   -0.2730 C   0  0  1  0  0  0  0  0  0  0  0  0
   -6.3739   -0.1858   -1.6358 C   0  0  0  0  0  0  0  0  0  0  0  0
   -6.8417    0.8844   -2.5217 C   0  0  0  0  0  0  0  0  0  0  0  0
   -6.0278    1.7029   -3.3263 C   0  0  0  0  0  0  0  0  0  0  0  0
   -6.7765    2.5948   -3.9629 N   0  0  0  0  0  0  0  0  0  0  0  0
   -8.0702    2.4300   -3.6370 C   0  0  0  0  0  0  0  0  0  0  0  0
   -9.2109    3.0932   -4.0538 C   0  0  0  0  0  0  0  0  0  0  0  0
  -10.4212    2.6819   -3.5665 C   0  0  0  0  0  0  0  0  0  0  0  0
  -10.4899    1.6274   -2.6798 C   0  0  0  0  0  0  0  0  0  0  0  0
   -9.3610    0.9603   -2.2560 C   0  0  0  0  0  0  0  0  0  0  0  0
   -8.1215    1.3641   -2.7389 C   0  0  0  0  0  0  0  0  0  0  0  0
   -7.1241    0.9713    0.3991 C   0  0  0  0  0  0  0  0  0  0  0  0
   -7.2171    2.4039    0.2405 N   0  0  0  0  0  0  0  0  0  0  0  0
   -7.9517    0.3660    1.0935 O   0  0  0  0  0  0  0  0  0  0  0  0
    0.0164   -2.6004   -1.5156 H   0  0  0  0  0  0  0  0  0  0  0  0
    0.2158   -3.9615   -2.6140 H   0  0  0  0  0  0  0  0  0  0  0  0
    1.1177   -2.4784   -2.9406 H   0  0  0  0  0  0  0  0  0  0  0  0
    2.2698   -4.5897   -2.0314 H   0  0  0  0  0  0  0  0  0  0  0  0
    1.5909   -4.2053   -0.4444 H   0  0  0  0  0  0  0  0  0  0  0  0
    3.4791   -2.5597   -2.2331 H   0  0  0  0  0  0  0  0  0  0  0  0
    4.2138   -3.6411    0.5204 H   0  0  0  0  0  0  0  0  0  0  0  0
    4.2752   -4.6348   -0.9691 H   0  0  0  0  0  0  0  0  0  0  0  0
    5.2244   -3.1476   -0.8412 H   0  0  0  0  0  0  0  0  0  0  0  0
    2.1325   -0.9561   -1.1427 H   0  0  0  0  0  0  0  0  0  0  0  0
    4.9223   -1.2355    0.0033 H   0  0  0  0  0  0  0  0  0  0  0  0
    5.3303    2.0684   -0.6584 H   0  0  0  0  0  0  0  0  0  0  0  0
    6.7522    0.4687    0.1418 H   0  0  0  0  0  0  0  0  0  0  0  0
    6.6607   -0.5055   -1.2914 H   0  0  0  0  0  0  0  0  0  0  0  0
    5.7291    0.7933   -3.4160 H   0  0  0  0  0  0  0  0  0  0  0  0
    4.7296    2.2113   -3.0697 H   0  0  0  0  0  0  0  0  0  0  0  0
    8.1296    0.8587   -3.3612 H   0  0  0  0  0  0  0  0  0  0  0  0
   10.1705    2.2821   -3.6929 H   0  0  0  0  0  0  0  0  0  0  0  0
   11.1283    4.4638   -3.6951 H   0  0  0  0  0  0  0  0  0  0  0  0
    7.8972    5.7040   -2.7705 H   0  0  0  0  0  0  0  0  0  0  0  0
    5.8735    4.3035   -2.4412 H   0  0  0  0  0  0  0  0  0  0  0  0
    0.3479   -0.9228    0.2077 H   0  0  0  0  0  0  0  0  0  0  0  0
    0.5657   -2.4007    2.7849 H   0  0  0  0  0  0  0  0  0  0  0  0
   -0.6723   -0.7201    3.9953 H   0  0  0  0  0  0  0  0  0  0  0  0
   -0.5416    0.4722    2.6783 H   0  0  0  0  0  0  0  0  0  0  0  0
    1.9594    1.8142    2.6418 H   0  0  0  0  0  0  0  0  0  0  0  0
    3.9835    1.7677    4.2169 H   0  0  0  0  0  0  0  0  0  0  0  0
    4.8461    0.0863    6.4230 H   0  0  0  0  0  0  0  0  0  0  0  0
    4.0868   -1.8815    7.6745 H   0  0  0  0  0  0  0  0  0  0  0  0
    2.0080   -3.0091    7.1436 H   0  0  0  0  0  0  0  0  0  0  0  0
    0.6083   -2.1794    5.3045 H   0  0  0  0  0  0  0  0  0  0  0  0
   -2.3744   -0.6797    3.1383 H   0  0  0  0  0  0  0  0  0  0  0  0
   -3.6148   -2.7793    1.3656 H   0  0  0  0  0  0  0  0  0  0  0  0
   -4.2222   -1.6093    4.0976 H   0  0  0  0  0  0  0  0  0  0  0  0
   -4.3663   -3.2595    3.4415 H   0  0  0  0  0  0  0  0  0  0  0  0
   -5.6194   -2.0597    3.0581 H   0  0  0  0  0  0  0  0  0  0  0  0
   -6.2065   -1.6528    0.7321 H   0  0  0  0  0  0  0  0  0  0  0  0
   -5.1262    0.9465   -0.3806 H   0  0  0  0  0  0  0  0  0  0  0  0
   -5.5341   -0.7748   -2.1078 H   0  0  0  0  0  0  0  0  0  0  0  0
   -7.1872   -0.9514   -1.5386 H   0  0  0  0  0  0  0  0  0  0  0  0
   -4.9443    1.5571   -3.3647 H   0  0  0  0  0  0  0  0  0  0  0  0
   -6.4347    3.3200   -4.6182 H   0  0  0  0  0  0  0  0  0  0  0  0
   -9.1220    3.9083   -4.7470 H   0  0  0  0  0  0  0  0  0  0  0  0
  -11.3640    3.1487   -3.8467 H   0  0  0  0  0  0  0  0  0  0  0  0
  -11.4434    1.2811   -2.2770 H   0  0  0  0  0  0  0  0  0  0  0  0
   -9.3927    0.1372   -1.5730 H   0  0  0  0  0  0  0  0  0  0  0  0
   -6.4868    2.9332   -0.2771 H   0  0  0  0  0  0  0  0  0  0  0  0
   -8.0075    2.9516    0.6321 H   0  0  0  0  0  0  0  0  0  0  0  0
  1  2  1  0
  2  3  1  0
  3  4  1  0
  3  5  1  0
  5  6  1  0
  6  7  1  0
  7  8  2  0
  7  9  1  0
  9 10  1  0
  9 11  1  0
 11 12  1  0
 12 13  2  0
 13 14  1  0
 14 15  2  0
 15 16  1  0
 15 17  1  0
 17 18  2  0
  5 19  1  0
 19 20  2  0
 19 21  1  0
 21 22  1  0
 22 23  1  0
 23 24  1  0
 24 25  2  0
 25 26  1  0
 26 27  1  0
 27 28  2  0
 28 29  1  0
 29 30  2  0
 30 31  1  0
 31 32  2  0
 22 33  1  0
 33 34  2  0
 33 35  1  0
 35 36  1  0
 36 37  1  0
 36 38  1  0
 38 39  2  0
 38 40  1  0
 40 41  1  0
 41 42  1  0
 42 43  1  0
 43 44  2  0
 44 45  1  0
 45 46  1  0
 46 47  2  0
 47 48  1  0
 48 49  2  0
 49 50  1  0
 50 51  2  0
 41 52  1  0
 52 53  1  0
 52 54  2  0
 18 12  1  0
 32 24  1  0
 51 43  1  0
 32 27  1  0
 51 46  1  0
  1 55  1  0
  1 56  1  0
  1 57  1  0
  2 58  1  0
  2 59  1  0
  3 60  1  6
  4 61  1  0
  4 62  1  0
  4 63  1  0
  5 64  1  6
  6 65  1  0
  9 66  1  1
 10 67  1  0
 10 68  1  0
 11 69  1  0
 11 70  1  0
 13 71  1  0
 14 72  1  0
 16 73  1  0
 17 74  1  0
 18 75  1  0
 21 76  1  0
 22 77  1  1
 23 78  1  0
 23 79  1  0
 25 80  1  0
 26 81  1  0
 28 82  1  0
 29 83  1  0
 30 84  1  0
 31 85  1  0
 35 86  1  0
 36 87  1  6
 37 88  1  0
 37 89  1  0
 37 90  1  0
 40 91  1  0
 41 92  1  6
 42 93  1  0
 42 94  1  0
 44 95  1  0
 45 96  1  0
 47 97  1  0
 48 98  1  0
 49 99  1  0
 50100  1  0
 53101  1  0
 53102  1  0
M  END
$$$$
[H]c1c([H])c([H])c(C([H])([H])C(=O)N([H])[C@]([H])(C(=O)N([H])[C@]([H])(C(=O)N([H])[C@]([H])(C(=O)N([H])[C@]([H])(C(=O)N([H])[C@]([H])(C(=O)N([H])[H])C([H])([H])c2c([H])c([H])c([H])c([H])c2[H])C([H])([H])C([H])(C([H])([H])[H])C([H])([H])[H])C([H])([H])c2c([H])c([H])c([H])c([H])c2[H])C([H])([H])C([H])(C([H])([H])[H])C([H])([H])[H])C([H])([H])c2c([H])c([H])c([H])c([H])c2[H])c([H])c1[H]
     RDKit          3D

117120  0  0  0  0  0  0  0  0999 V2000
    3.6942   -4.8699    0.8519 C   0  0  0  0  0  0  0  0  0  0  0  0
    2.4234   -4.6157    0.1565 C   0  0  0  0  0  0  0  0  0  0  0  0
    1.4402   -5.7032    0.6389 C   0  0  0  0  0  0  0  0  0  0  0  0
    1.7456   -3.3144    0.3477 C   0  0  0  0  0  0  0  0  0  0  0  0
    2.4222   -2.0839   -0.0111 C   0  0  2  0  0  0  0  0  0  0  0  0
    3.6347   -1.8060    0.7666 N   0  0  0  0  0  0  0  0  0  0  0  0
    4.6127   -0.9240    0.2835 C   0  0  0  0  0  0  0  0  0  0  0  0
    4.2420   -0.4177   -0.8992 O   0  0  0  0  0  0  0  0  0  0  0  0
    5.8810   -0.4428    0.7527 C   0  0  2  0  0  0  0  0  0  0  0  0
    6.4858   -0.8498    1.9960 C   0  0  0  0  0  0  0  0  0  0  0  0
    6.9048   -2.2078    2.2945 C   0  0  0  0  0  0  0  0  0  0  0  0
    6.1549   -3.0314    3.0870 C   0  0  0  0  0  0  0  0  0  0  0  0
    6.5208   -4.3193    3.4053 C   0  0  0  0  0  0  0  0  0  0  0  0
    7.6855   -4.8375    2.9244 C   0  0  0  0  0  0  0  0  0  0  0  0
    8.4566   -4.0181    2.1205 C   0  0  0  0  0  0  0  0  0  0  0  0
    8.0984   -2.7399    1.8015 C   0  0  0  0  0  0  0  0  0  0  0  0
    5.9926    1.0077    0.6201 N   0  0  0  0  0  0  0  0  0  0  0  0
    6.4539    1.6719   -0.5250 C   0  0  0  0  0  0  0  0  0  0  0  0
    6.7790    1.0212   -1.5343 O   0  0  0  0  0  0  0  0  0  0  0  0
    6.5585    3.1399   -0.5376 C   0  0  0  0  0  0  0  0  0  0  0  0
    6.2179    3.6863   -1.8546 C   0  0  0  0  0  0  0  0  0  0  0  0
    4.9161    4.1358   -2.0883 C   0  0  0  0  0  0  0  0  0  0  0  0
    4.5500    4.6718   -3.2961 C   0  0  0  0  0  0  0  0  0  0  0  0
    5.4382    4.7958   -4.3401 C   0  0  0  0  0  0  0  0  0  0  0  0
    6.7455    4.3513   -4.1258 C   0  0  0  0  0  0  0  0  0  0  0  0
    7.0931    3.8141   -2.8997 C   0  0  0  0  0  0  0  0  0  0  0  0
    1.5087   -0.8854   -0.0174 C   0  0  0  0  0  0  0  0  0  0  0  0
    1.8237    0.1438    0.6036 O   0  0  0  0  0  0  0  0  0  0  0  0
    0.2876   -0.9121   -0.7387 N   0  0  0  0  0  0  0  0  0  0  0  0
   -0.6526    0.1428   -0.8774 C   0  0  1  0  0  0  0  0  0  0  0  0
   -0.9155    0.3086   -2.3694 C   0  0  0  0  0  0  0  0  0  0  0  0
    0.2906    0.6349   -3.1558 C   0  0  0  0  0  0  0  0  0  0  0  0
    1.0961   -0.3676   -3.6587 C   0  0  0  0  0  0  0  0  0  0  0  0
    2.1915   -0.0315   -4.4258 C   0  0  0  0  0  0  0  0  0  0  0  0
    2.4998    1.2997   -4.7022 C   0  0  0  0  0  0  0  0  0  0  0  0
    1.6839    2.2794   -4.1907 C   0  0  0  0  0  0  0  0  0  0  0  0
    0.6012    1.9446   -3.4325 C   0  0  0  0  0  0  0  0  0  0  0  0
   -1.9808   -0.1163   -0.1982 C   0  0  0  0  0  0  0  0  0  0  0  0
   -2.0433   -1.1621    0.4506 O   0  0  0  0  0  0  0  0  0  0  0  0
   -3.0328    0.7920   -0.3353 N   0  0  0  0  0  0  0  0  0  0  0  0
   -4.3348    0.6532    0.1992 C   0  0  1  0  0  0  0  0  0  0  0  0
   -4.7809   -0.7946    0.3748 C   0  0  0  0  0  0  0  0  0  0  0  0
   -4.8512   -1.5096   -0.9553 C   0  0  0  0  0  0  0  0  0  0  0  0
   -5.8768   -0.8055   -1.8612 C   0  0  0  0  0  0  0  0  0  0  0  0
   -5.2875   -2.9397   -0.7930 C   0  0  0  0  0  0  0  0  0  0  0  0
   -4.7180    1.5435    1.2936 C   0  0  0  0  0  0  0  0  0  0  0  0
   -3.8760    2.3384    1.7724 O   0  0  0  0  0  0  0  0  0  0  0  0
   -6.0110    1.5751    1.8663 N   0  0  0  0  0  0  0  0  0  0  0  0
   -6.4051    2.4498    2.9331 C   0  0  1  0  0  0  0  0  0  0  0  0
   -7.3531    3.5238    2.4841 C   0  0  0  0  0  0  0  0  0  0  0  0
   -8.6189    3.0790    1.9180 C   0  0  0  0  0  0  0  0  0  0  0  0
   -8.7299    2.8208    0.5803 C   0  0  0  0  0  0  0  0  0  0  0  0
   -9.9043    2.4076   -0.0288 C   0  0  0  0  0  0  0  0  0  0  0  0
  -10.9897    2.2667    0.8130 C   0  0  0  0  0  0  0  0  0  0  0  0
  -10.9141    2.5189    2.1686 C   0  0  0  0  0  0  0  0  0  0  0  0
   -9.7244    2.9222    2.7034 C   0  0  0  0  0  0  0  0  0  0  0  0
   -6.8181    1.7479    4.1519 C   0  0  0  0  0  0  0  0  0  0  0  0
   -7.2328    2.3887    5.3571 N   0  0  0  0  0  0  0  0  0  0  0  0
   -6.8239    0.4916    4.1896 O   0  0  0  0  0  0  0  0  0  0  0  0
    3.5993   -4.6634    1.9402 H   0  0  0  0  0  0  0  0  0  0  0  0
    4.5075   -4.1934    0.4757 H   0  0  0  0  0  0  0  0  0  0  0  0
    4.0387   -5.9303    0.7908 H   0  0  0  0  0  0  0  0  0  0  0  0
    2.5955   -4.7999   -0.9380 H   0  0  0  0  0  0  0  0  0  0  0  0
    0.4500   -5.5666    0.2105 H   0  0  0  0  0  0  0  0  0  0  0  0
    1.8910   -6.6988    0.4336 H   0  0  0  0  0  0  0  0  0  0  0  0
    1.3645   -5.6259    1.7558 H   0  0  0  0  0  0  0  0  0  0  0  0
    0.7413   -3.3453   -0.1974 H   0  0  0  0  0  0  0  0  0  0  0  0
    1.3770   -3.2543    1.4337 H   0  0  0  0  0  0  0  0  0  0  0  0
    2.8172   -2.0711   -1.0843 H   0  0  0  0  0  0  0  0  0  0  0  0
    3.6703   -2.2989    1.6706 H   0  0  0  0  0  0  0  0  0  0  0  0
    6.5900   -0.7917   -0.1458 H   0  0  0  0  0  0  0  0  0  0  0  0
    5.9014   -0.4338    2.9119 H   0  0  0  0  0  0  0  0  0  0  0  0
    7.4483   -0.2226    2.1185 H   0  0  0  0  0  0  0  0  0  0  0  0
    5.1955   -2.7069    3.5218 H   0  0  0  0  0  0  0  0  0  0  0  0
    5.8882   -4.9559    4.0447 H   0  0  0  0  0  0  0  0  0  0  0  0
    8.0222   -5.8376    3.1410 H   0  0  0  0  0  0  0  0  0  0  0  0
    9.3816   -4.4225    1.7265 H   0  0  0  0  0  0  0  0  0  0  0  0
    8.7043   -2.1372    1.1879 H   0  0  0  0  0  0  0  0  0  0  0  0
    5.6924    1.5528    1.4642 H   0  0  0  0  0  0  0  0  0  0  0  0
    7.6549    3.3676   -0.3317 H   0  0  0  0  0  0  0  0  0  0  0  0
    5.9345    3.6305    0.2488 H   0  0  0  0  0  0  0  0  0  0  0  0
    4.2182    4.0362   -1.2662 H   0  0  0  0  0  0  0  0  0  0  0  0
    3.5271    5.0129   -3.4367 H   0  0  0  0  0  0  0  0  0  0  0  0
    5.1475    5.2195   -5.2993 H   0  0  0  0  0  0  0  0  0  0  0  0
    7.4304    4.4532   -4.9476 H   0  0  0  0  0  0  0  0  0  0  0  0
    8.1150    3.4583   -2.7224 H   0  0  0  0  0  0  0  0  0  0  0  0
    0.0389   -1.8158   -1.2409 H   0  0  0  0  0  0  0  0  0  0  0  0
   -0.2587    1.0720   -0.4800 H   0  0  0  0  0  0  0  0  0  0  0  0
   -1.6960    1.0905   -2.5555 H   0  0  0  0  0  0  0  0  0  0  0  0
   -1.3727   -0.6483   -2.7590 H   0  0  0  0  0  0  0  0  0  0  0  0
    0.8809   -1.4253   -3.4503 H   0  0  0  0  0  0  0  0  0  0  0  0
    2.8425   -0.7812   -4.8384 H   0  0  0  0  0  0  0  0  0  0  0  0
    3.3603    1.5765   -5.3057 H   0  0  0  0  0  0  0  0  0  0  0  0
    1.9124    3.3451   -4.3913 H   0  0  0  0  0  0  0  0  0  0  0  0
   -0.0204    2.7583   -3.0478 H   0  0  0  0  0  0  0  0  0  0  0  0
   -2.7838    1.6726   -0.9134 H   0  0  0  0  0  0  0  0  0  0  0  0
   -5.0101    0.9183   -0.7415 H   0  0  0  0  0  0  0  0  0  0  0  0
   -5.8714   -0.7116    0.7029 H   0  0  0  0  0  0  0  0  0  0  0  0
   -4.2807   -1.3242    1.1708 H   0  0  0  0  0  0  0  0  0  0  0  0
   -3.8821   -1.5120   -1.4594 H   0  0  0  0  0  0  0  0  0  0  0  0
   -6.6752   -0.3110   -1.2724 H   0  0  0  0  0  0  0  0  0  0  0  0
   -6.3782   -1.5871   -2.4794 H   0  0  0  0  0  0  0  0  0  0  0  0
   -5.3085   -0.1011   -2.5037 H   0  0  0  0  0  0  0  0  0  0  0  0
   -5.9932   -3.0937    0.0314 H   0  0  0  0  0  0  0  0  0  0  0  0
   -4.3788   -3.5851   -0.7163 H   0  0  0  0  0  0  0  0  0  0  0  0
   -5.7758   -3.2630   -1.7427 H   0  0  0  0  0  0  0  0  0  0  0  0
   -6.7335    0.9107    1.4795 H   0  0  0  0  0  0  0  0  0  0  0  0
   -5.4575    3.0166    3.2105 H   0  0  0  0  0  0  0  0  0  0  0  0
   -7.5430    4.2215    3.3521 H   0  0  0  0  0  0  0  0  0  0  0  0
   -6.7536    4.1756    1.7785 H   0  0  0  0  0  0  0  0  0  0  0  0
   -7.8851    2.9228   -0.1117 H   0  0  0  0  0  0  0  0  0  0  0  0
   -9.9636    2.2115   -1.0897 H   0  0  0  0  0  0  0  0  0  0  0  0
  -11.9491    1.9431    0.3893 H   0  0  0  0  0  0  0  0  0  0  0  0
  -11.8176    2.3889    2.7937 H   0  0  0  0  0  0  0  0  0  0  0  0
   -9.7321    3.1070    3.7814 H   0  0  0  0  0  0  0  0  0  0  0  0
   -6.6388    2.1715    6.2065 H   0  0  0  0  0  0  0  0  0  0  0  0
   -8.0348    3.0189    5.4412 H   0  0  0  0  0  0  0  0  0  0  0  0
  1  2  1  0
  2  3  1  0
  2  4  1  0
  4  5  1  0
  5  6  1  0
  6  7  1  0
  7  8  2  0
  7  9  1  0
  9 10  1  0
 10 11  1  0
 11 12  2  0
 12 13  1  0
 13 14  2  0
 14 15  1  0
 15 16  2  0
  9 17  1  0
 17 18  1  0
 18 19  2  0
 18 20  1  0
 20 21  1  0
 21 22  2  0
 22 23  1  0
 23 24  2  0
 24 25  1  0
 25 26  2  0
  5 27  1  0
 27 28  2  0
 27 29  1  0
 29 30  1  0
 30 31  1  0
 31 32  1  0
 32 33  2  0
 33 34  1  0
 34 35  2  0
 35 36  1  0
 36 37  2  0
 30 38  1  0
 38 39  2  0
 38 40  1  0
 40 41  1  0
 41 42  1  0
 42 43  1  0
 43 44  1  0
 43 45  1  0
 41 46  1  0
 46 47  2  0
 46 48  1  0
 48 49  1  0
 49 50  1  0
 50 51  1  0
 51 52  2  0
 52 53  1  0
 53 54  2  0
 54 55  1  0
 55 56  2  0
 49 57  1  0
 57 58  1  0
 57 59  2  0
 16 11  1  0
 26 21  1  0
 37 32  1  0
 56 51  1  0
  1 60  1  0
  1 61  1  0
  1 62  1  0
  2 63  1  0
  3 64  1  0
  3 65  1  0
  3 66  1  0
  4 67  1  0
  4 68  1  0
  5 69  1  6
  6 70  1  0
  9 71  1  6
 10 72  1  0
 10 73  1  0
 12 74  1  0
 13 75  1  0
 14 76  1  0
 15 77  1  0
 16 78  1  0
 17 79  1  0
 20 80  1  0
 20 81  1  0
 22 82  1  0
 23 83  1  0
 24 84  1  0
 25 85  1  0
 26 86  1  0
 29 87  1  0
 30 88  1  1
 31 89  1  0
 31 90  1  0
 33 91  1  0
 34 92  1  0
 35 93  1  0
 36 94  1  0
 37 95  1  0
 40 96  1  0
 41 97  1  6
 42 98  1  0
 42 99  1  0
 43100  1  0
 44101  1  0
 44102  1  0
 44103  1  0
 45104  1  0
 45105  1  0
 45106  1  0
 48107  1  0
 49108  1  1
 50109  1  0
 50110  1  0
 52111  1  0
 53112  1  0
 54113  1  0
 55114  1  0
 56115  1  0
 58116  1  0
 58117  1  0
M  END
$$$$
[H]c1nc2c([H])c(OC([H])([H])C([H])([H])C([H])([H])N3C([H])([H])C([H])([H])C([H])([H])C([H])([H])C3([H])[H])c(OC([H])([H])[H])c([H])c2c(Oc2c([H])c([H])c(N([H])C(=O)c3nn(C([H])([H])[H])c(=O)n(C([H])([H])[H])c3=O)c([H])c2F)c1[H]
     RDKit          3D

 76 80  0  0  0  0  0  0  0  0999 V2000
   -1.8766   -2.3423    0.6312 C   0  0  0  0  0  0  0  0  0  0  0  0
   -3.0005   -1.7026    0.0391 O   0  0  0  0  0  0  0  0  0  0  0  0
   -2.7742   -0.5887   -0.7535 C   0  0  0  0  0  0  0  0  0  0  0  0
   -1.5084   -0.1001   -0.9734 C   0  0  0  0  0  0  0  0  0  0  0  0
   -1.2754    1.0094   -1.7620 C   0  0  0  0  0  0  0  0  0  0  0  0
    0.0471    1.4955   -1.9763 C   0  0  0  0  0  0  0  0  0  0  0  0
    1.0106    0.8154   -1.3725 O   0  0  0  0  0  0  0  0  0  0  0  0
    2.3299    0.7500   -1.2248 C   0  0  0  0  0  0  0  0  0  0  0  0
    3.2715    1.5437   -1.8440 C   0  0  0  0  0  0  0  0  0  0  0  0
    4.6282    1.3910   -1.6130 C   0  0  0  0  0  0  0  0  0  0  0  0
    5.1226    0.4407   -0.7541 C   0  0  0  0  0  0  0  0  0  0  0  0
    6.5485    0.3239   -0.5748 N   0  0  0  0  0  0  0  0  0  0  0  0
    7.1708   -0.1179    0.5917 C   0  0  0  0  0  0  0  0  0  0  0  0
    6.4386   -0.4404    1.6051 O   0  0  0  0  0  0  0  0  0  0  0  0
    8.6077   -0.2420    0.7515 C   0  0  0  0  0  0  0  0  0  0  0  0
    9.0925   -0.6123    1.9773 N   0  0  0  0  0  0  0  0  0  0  0  0
   10.3699   -0.7561    2.2120 N   0  0  0  0  0  0  0  0  0  0  0  0
   10.7892   -1.1570    3.5600 C   0  0  0  0  0  0  0  0  0  0  0  0
   11.2751   -0.5402    1.2346 C   0  0  0  0  0  0  0  0  0  0  0  0
   12.4839   -0.6897    1.5056 O   0  0  0  0  0  0  0  0  0  0  0  0
   10.8966   -0.1773    0.0120 N   0  0  0  0  0  0  0  0  0  0  0  0
   11.8617    0.0550   -1.0416 C   0  0  0  0  0  0  0  0  0  0  0  0
    9.5511   -0.0335   -0.2087 C   0  0  0  0  0  0  0  0  0  0  0  0
    9.2485    0.3069   -1.3709 O   0  0  0  0  0  0  0  0  0  0  0  0
    4.2161   -0.3612   -0.1278 C   0  0  0  0  0  0  0  0  0  0  0  0
    2.8640   -0.2245   -0.3439 C   0  0  0  0  0  0  0  0  0  0  0  0
    1.9817   -1.0332    0.2953 F   0  0  0  0  0  0  0  0  0  0  0  0
    0.1525    2.6150   -2.7892 C   0  0  0  0  0  0  0  0  0  0  0  0
   -0.9778    3.2015   -3.3445 C   0  0  0  0  0  0  0  0  0  0  0  0
   -2.1846    2.6940   -3.1019 N   0  0  0  0  0  0  0  0  0  0  0  0
   -2.3535    1.6063   -2.3189 C   0  0  0  0  0  0  0  0  0  0  0  0
   -3.6567    1.1256   -2.1094 C   0  0  0  0  0  0  0  0  0  0  0  0
   -3.9043    0.0248   -1.3277 C   0  0  0  0  0  0  0  0  0  0  0  0
   -5.1410   -0.4946   -1.0781 O   0  0  0  0  0  0  0  0  0  0  0  0
   -6.3958   -0.1288   -1.4418 C   0  0  0  0  0  0  0  0  0  0  0  0
   -6.8579    1.1882   -0.9187 C   0  0  0  0  0  0  0  0  0  0  0  0
   -6.8498    1.1800    0.6063 C   0  0  0  0  0  0  0  0  0  0  0  0
   -7.7216    0.1536    1.0785 N   0  0  0  0  0  0  0  0  0  0  0  0
   -7.7670    0.0790    2.5283 C   0  0  0  0  0  0  0  0  0  0  0  0
   -7.9534   -1.4046    2.8613 C   0  0  0  0  0  0  0  0  0  0  0  0
   -8.9699   -1.9667    1.8712 C   0  0  0  0  0  0  0  0  0  0  0  0
   -9.8768   -0.8415    1.3635 C   0  0  0  0  0  0  0  0  0  0  0  0
   -9.0664    0.2030    0.5981 C   0  0  0  0  0  0  0  0  0  0  0  0
   -1.4230   -1.6881    1.3807 H   0  0  0  0  0  0  0  0  0  0  0  0
   -1.1323   -2.5365   -0.1875 H   0  0  0  0  0  0  0  0  0  0  0  0
   -2.1794   -3.3303    1.0073 H   0  0  0  0  0  0  0  0  0  0  0  0
   -0.6414   -0.5705   -0.5350 H   0  0  0  0  0  0  0  0  0  0  0  0
    2.9446    2.3071   -2.5416 H   0  0  0  0  0  0  0  0  0  0  0  0
    5.3388    2.0340   -2.1166 H   0  0  0  0  0  0  0  0  0  0  0  0
    7.0861    0.6071   -1.4121 H   0  0  0  0  0  0  0  0  0  0  0  0
   11.6828   -1.8156    3.5049 H   0  0  0  0  0  0  0  0  0  0  0  0
   11.0428   -0.2601    4.1734 H   0  0  0  0  0  0  0  0  0  0  0  0
    9.9871   -1.7218    4.0743 H   0  0  0  0  0  0  0  0  0  0  0  0
   12.7694   -0.5786   -0.8924 H   0  0  0  0  0  0  0  0  0  0  0  0
   11.3558   -0.2558   -1.9944 H   0  0  0  0  0  0  0  0  0  0  0  0
   12.0929    1.1330   -1.0975 H   0  0  0  0  0  0  0  0  0  0  0  0
    4.5550   -1.1507    0.5503 H   0  0  0  0  0  0  0  0  0  0  0  0
    1.1025    3.0589   -3.0027 H   0  0  0  0  0  0  0  0  0  0  0  0
   -0.8329    4.0862   -3.9803 H   0  0  0  0  0  0  0  0  0  0  0  0
   -4.4425    1.6498   -2.6048 H   0  0  0  0  0  0  0  0  0  0  0  0
   -6.4786   -0.0649   -2.5671 H   0  0  0  0  0  0  0  0  0  0  0  0
   -7.1250   -0.9182   -1.1065 H   0  0  0  0  0  0  0  0  0  0  0  0
   -7.8828    1.4271   -1.2976 H   0  0  0  0  0  0  0  0  0  0  0  0
   -6.2077    2.0034   -1.2456 H   0  0  0  0  0  0  0  0  0  0  0  0
   -5.8214    0.9297    0.9064 H   0  0  0  0  0  0  0  0  0  0  0  0
   -7.1037    2.1888    0.9807 H   0  0  0  0  0  0  0  0  0  0  0  0
   -8.6925    0.5841    2.8624 H   0  0  0  0  0  0  0  0  0  0  0  0
   -6.8759    0.4977    2.9960 H   0  0  0  0  0  0  0  0  0  0  0  0
   -8.2664   -1.5491    3.8982 H   0  0  0  0  0  0  0  0  0  0  0  0
   -6.9648   -1.8806    2.7100 H   0  0  0  0  0  0  0  0  0  0  0  0
   -9.6097   -2.7244    2.3200 H   0  0  0  0  0  0  0  0  0  0  0  0
   -8.3947   -2.3225    0.9919 H   0  0  0  0  0  0  0  0  0  0  0  0
  -10.5781   -1.3242    0.6592 H   0  0  0  0  0  0  0  0  0  0  0  0
  -10.4224   -0.4191    2.2103 H   0  0  0  0  0  0  0  0  0  0  0  0
   -9.5328    1.1904    0.8849 H   0  0  0  0  0  0  0  0  0  0  0  0
   -9.1968    0.1111   -0.4804 H   0  0  0  0  0  0  0  0  0  0  0  0
  1  2  1  0
  2  3  1  0
  3  4  2  0
  4  5  1  0
  5  6  2  0
  6  7  1  0
  7  8  1  0
  8  9  2  0
  9 10  1  0
 10 11  2  0
 11 12  1  0
 12 13  1  0
 13 14  2  0
 13 15  1  0
 15 16  2  0
 16 17  1  0
 17 18  1  0
 17 19  1  0
 19 20  2  0
 19 21  1  0
 21 22  1  0
 21 23  1  0
 23 24  2  0
 11 25  1  0
 25 26  2  0
 26 27  1  0
  6 28  1  0
 28 29  2  0
 29 30  1  0
 30 31  2  0
 31 32  1  0
 32 33  2  0
 33 34  1  0
 34 35  1  0
 35 36  1  0
 36 37  1  0
 37 38  1  0
 38 39  1  0
 39 40  1  0
 40 41  1  0
 41 42  1  0
 42 43  1  0
 33  3  1  0
 43 38  1  0
 31  5  1  0
 26  8  1  0
 23 15  1  0
  1 44  1  0
  1 45  1  0
  1 46  1  0
  4 47  1  0
  9 48  1  0
 10 49  1  0
 12 50  1  0
 18 51  1  0
 18 52  1  0
 18 53  1  0
 22 54  1  0
 22 55  1  0
 22 56  1  0
 25 57  1  0
 28 58  1  0
 29 59  1  0
 32 60  1  0
 35 61  1  0
 35 62  1  0
 36 63  1  0
 36 64  1  0
 37 65  1  0
 37 66  1  0
 39 67  1  0
 39 68  1  0
 40 69  1  0
 40 70  1  0
 41 71  1  0
 41 72  1  0
 42 73  1  0
 42 74  1  0
 43 75  1  0
 43 76  1  0
M  END
$$$$
[H]OC(=O)[C@]([H])(N([H])C(=O)[C@@]1([H])N(C(=O)[C@]([H])(N([H])C(=O)[C@@]2([H])N(C(=O)[C@@]([H])(N([H])[H])C([H])([H])c3c([H])c([H])c(C(C([H])([H])[H])(C([H])([H])[H])C([H])([H])[H])c([H])c3[H])C([H])([H])C([H])([H])C2([H])[H])C([H])([H])c2c([H])c([H])c(Cl)c([H])c2[H])C([H])([H])C([H])([H])C1([H])[H])C([H])([H])[H]
     RDKit          3D

 93 96  0  0  0  0  0  0  0  0999 V2000
   -9.1525    4.0308    0.7543 C   0  0  0  0  0  0  0  0  0  0  0  0
   -7.7828    3.9026    0.0856 C   0  0  1  0  0  0  0  0  0  0  0  0
   -7.5322    2.5216   -0.2900 N   0  0  0  0  0  0  0  0  0  0  0  0
   -6.4781    1.7808    0.2969 C   0  0  0  0  0  0  0  0  0  0  0  0
   -5.7719    2.3894    1.1568 O   0  0  0  0  0  0  0  0  0  0  0  0
   -6.1519    0.3819   -0.0138 C   0  0  2  0  0  0  0  0  0  0  0  0
   -7.2815   -0.5793    0.2888 C   0  0  0  0  0  0  0  0  0  0  0  0
   -7.0967   -0.8926    1.7574 C   0  0  0  0  0  0  0  0  0  0  0  0
   -5.6897   -0.4223    2.0817 C   0  0  0  0  0  0  0  0  0  0  0  0
   -5.0891   -0.1560    0.8158 N   0  0  0  0  0  0  0  0  0  0  0  0
   -3.7450   -0.3436    0.4325 C   0  0  0  0  0  0  0  0  0  0  0  0
   -3.4822    0.0084   -0.7593 O   0  0  0  0  0  0  0  0  0  0  0  0
   -2.6713   -0.9005    1.3214 C   0  0  1  0  0  0  0  0  0  0  0  0
   -2.7109   -2.3502    1.5477 C   0  0  0  0  0  0  0  0  0  0  0  0
   -2.6303   -3.2742    0.4109 C   0  0  0  0  0  0  0  0  0  0  0  0
   -1.4783   -3.8975   -0.0021 C   0  0  0  0  0  0  0  0  0  0  0  0
   -1.5210   -4.7475   -1.0861 C   0  0  0  0  0  0  0  0  0  0  0  0
   -2.6688   -5.0193   -1.7982 C   0  0  0  0  0  0  0  0  0  0  0  0
   -2.7174   -6.1022   -3.1823 Cl  0  0  0  0  0  0  0  0  0  0  0  0
   -3.8204   -4.3777   -1.3618 C   0  0  0  0  0  0  0  0  0  0  0  0
   -3.7956   -3.5300   -0.2864 C   0  0  0  0  0  0  0  0  0  0  0  0
   -1.4252   -0.2358    1.1865 N   0  0  0  0  0  0  0  0  0  0  0  0
   -0.5874   -0.1266    0.0442 C   0  0  0  0  0  0  0  0  0  0  0  0
   -0.8238   -0.6455   -1.0418 O   0  0  0  0  0  0  0  0  0  0  0  0
    0.6795    0.6939    0.1950 C   0  0  2  0  0  0  0  0  0  0  0  0
    0.3287    2.1584   -0.1139 C   0  0  0  0  0  0  0  0  0  0  0  0
    0.8595    2.4423   -1.4859 C   0  0  0  0  0  0  0  0  0  0  0  0
    1.3279    1.1018   -1.9961 C   0  0  0  0  0  0  0  0  0  0  0  0
    1.6861    0.4243   -0.7758 N   0  0  0  0  0  0  0  0  0  0  0  0
    2.8963   -0.3350   -0.6033 C   0  0  0  0  0  0  0  0  0  0  0  0
    3.6629   -0.4384   -1.5792 O   0  0  0  0  0  0  0  0  0  0  0  0
    3.2202   -0.9616    0.6802 C   0  0  1  0  0  0  0  0  0  0  0  0
    2.0735   -1.6069    1.3022 N   0  0  0  0  0  0  0  0  0  0  0  0
    4.3974   -1.8643    0.7483 C   0  0  0  0  0  0  0  0  0  0  0  0
    5.7060   -1.2690    0.4306 C   0  0  0  0  0  0  0  0  0  0  0  0
    6.3468   -0.5024    1.4241 C   0  0  0  0  0  0  0  0  0  0  0  0
    7.5818    0.0511    1.1857 C   0  0  0  0  0  0  0  0  0  0  0  0
    8.2316   -0.1159   -0.0101 C   0  0  0  0  0  0  0  0  0  0  0  0
    7.6262   -0.8615   -0.9943 C   0  0  0  0  0  0  0  0  0  0  0  0
    6.3758   -1.4176   -0.7405 C   0  0  0  0  0  0  0  0  0  0  0  0
    9.5523    0.4873   -0.2620 C   0  0  0  0  0  0  0  0  0  0  0  0
   10.1768    0.9693    1.0326 C   0  0  0  0  0  0  0  0  0  0  0  0
   10.4783   -0.5327   -0.8613 C   0  0  0  0  0  0  0  0  0  0  0  0
    9.3758    1.7004   -1.1506 C   0  0  0  0  0  0  0  0  0  0  0  0
   -7.6911    4.7892   -1.0804 C   0  0  0  0  0  0  0  0  0  0  0  0
   -7.8740    6.1543   -0.9403 O   0  0  0  0  0  0  0  0  0  0  0  0
   -7.4492    4.3551   -2.2232 O   0  0  0  0  0  0  0  0  0  0  0  0
   -9.1552    4.8175    1.5272 H   0  0  0  0  0  0  0  0  0  0  0  0
   -9.8862    4.2293   -0.0328 H   0  0  0  0  0  0  0  0  0  0  0  0
   -9.3795    3.0479    1.2653 H   0  0  0  0  0  0  0  0  0  0  0  0
   -7.0307    4.1929    0.8512 H   0  0  0  0  0  0  0  0  0  0  0  0
   -8.1706    2.1059   -1.0155 H   0  0  0  0  0  0  0  0  0  0  0  0
   -5.9293    0.2482   -1.0979 H   0  0  0  0  0  0  0  0  0  0  0  0
   -8.2747   -0.1581    0.0484 H   0  0  0  0  0  0  0  0  0  0  0  0
   -7.1447   -1.5010   -0.3410 H   0  0  0  0  0  0  0  0  0  0  0  0
   -7.8687   -0.2994    2.2896 H   0  0  0  0  0  0  0  0  0  0  0  0
   -7.1962   -1.9727    1.9127 H   0  0  0  0  0  0  0  0  0  0  0  0
   -5.1662   -1.1157    2.7487 H   0  0  0  0  0  0  0  0  0  0  0  0
   -5.7391    0.5395    2.6775 H   0  0  0  0  0  0  0  0  0  0  0  0
   -3.0634   -0.4802    2.3550 H   0  0  0  0  0  0  0  0  0  0  0  0
   -1.8055   -2.5969    2.1918 H   0  0  0  0  0  0  0  0  0  0  0  0
   -3.5707   -2.6403    2.1757 H   0  0  0  0  0  0  0  0  0  0  0  0
   -0.5279   -3.7136    0.5329 H   0  0  0  0  0  0  0  0  0  0  0  0
   -0.6119   -5.2450   -1.4188 H   0  0  0  0  0  0  0  0  0  0  0  0
   -4.7361   -4.5958   -1.9305 H   0  0  0  0  0  0  0  0  0  0  0  0
   -4.7158   -3.0604    0.0114 H   0  0  0  0  0  0  0  0  0  0  0  0
   -1.0358    0.2483    2.0446 H   0  0  0  0  0  0  0  0  0  0  0  0
    0.9576    0.6739    1.2377 H   0  0  0  0  0  0  0  0  0  0  0  0
    0.7770    2.8421    0.6348 H   0  0  0  0  0  0  0  0  0  0  0  0
   -0.7864    2.2810   -0.1133 H   0  0  0  0  0  0  0  0  0  0  0  0
    0.0949    2.8915   -2.1621 H   0  0  0  0  0  0  0  0  0  0  0  0
    1.7418    3.1245   -1.3775 H   0  0  0  0  0  0  0  0  0  0  0  0
    2.2215    1.2211   -2.6702 H   0  0  0  0  0  0  0  0  0  0  0  0
    0.4948    0.6288   -2.5141 H   0  0  0  0  0  0  0  0  0  0  0  0
    3.4472   -0.1135    1.4475 H   0  0  0  0  0  0  0  0  0  0  0  0
    1.9033   -1.3580    2.2734 H   0  0  0  0  0  0  0  0  0  0  0  0
    2.0925   -2.6419    1.1207 H   0  0  0  0  0  0  0  0  0  0  0  0
    4.4544   -2.3968    1.7400 H   0  0  0  0  0  0  0  0  0  0  0  0
    4.2679   -2.7231    0.0240 H   0  0  0  0  0  0  0  0  0  0  0  0
    5.8377   -0.3675    2.3678 H   0  0  0  0  0  0  0  0  0  0  0  0
    8.0901    0.6479    1.9573 H   0  0  0  0  0  0  0  0  0  0  0  0
    8.1327   -0.9976   -1.9365 H   0  0  0  0  0  0  0  0  0  0  0  0
    5.9451   -2.0120   -1.5335 H   0  0  0  0  0  0  0  0  0  0  0  0
   11.2627    1.0884    0.8471 H   0  0  0  0  0  0  0  0  0  0  0  0
   10.0688    0.1398    1.7739 H   0  0  0  0  0  0  0  0  0  0  0  0
    9.7824    1.9281    1.3787 H   0  0  0  0  0  0  0  0  0  0  0  0
   11.5210   -0.2842   -0.6369 H   0  0  0  0  0  0  0  0  0  0  0  0
   10.1677   -1.5395   -0.5093 H   0  0  0  0  0  0  0  0  0  0  0  0
   10.3510   -0.5722   -1.9837 H   0  0  0  0  0  0  0  0  0  0  0  0
    9.3741    1.3561   -2.1996 H   0  0  0  0  0  0  0  0  0  0  0  0
   10.2329    2.4156   -0.9891 H   0  0  0  0  0  0  0  0  0  0  0  0
    8.4201    2.1931   -0.9357 H   0  0  0  0  0  0  0  0  0  0  0  0
   -7.3095    6.6875   -0.2606 H   0  0  0  0  0  0  0  0  0  0  0  0
  1  2  1  0
  2  3  1  0
  3  4  1  0
  4  5  2  0
  4  6  1  0
  6  7  1  0
  7  8  1  0
  8  9  1  0
  9 10  1  0
 10 11  1  0
 11 12  2  0
 11 13  1  0
 13 14  1  0
 14 15  1  0
 15 16  2  0
 16 17  1  0
 17 18  2  0
 18 19  1  0
 18 20  1  0
 20 21  2  0
 13 22  1  0
 22 23  1  0
 23 24  2  0
 23 25  1  0
 25 26  1  0
 26 27  1  0
 27 28  1  0
 28 29  1  0
 29 30  1  0
 30 31  2  0
 30 32  1  0
 32 33  1  0
 32 34  1  0
 34 35  1  0
 35 36  2  0
 36 37  1  0
 37 38  2  0
 38 39  1  0
 39 40  2  0
 38 41  1  0
 41 42  1  0
 41 43  1  0
 41 44  1  0
  2 45  1  0
 45 46  1  0
 45 47  2  0
 10  6  1  0
 21 15  1  0
 29 25  1  0
 40 35  1  0
  1 48  1  0
  1 49  1  0
  1 50  1  0
  2 51  1  1
  3 52  1  0
  6 53  1  6
  7 54  1  0
  7 55  1  0
  8 56  1  0
  8 57  1  0
  9 58  1  0
  9 59  1  0
 13 60  1  1
 14 61  1  0
 14 62  1  0
 16 63  1  0
 17 64  1  0
 20 65  1  0
 21 66  1  0
 22 67  1  0
 25 68  1  1
 26 69  1  0
 26 70  1  0
 27 71  1  0
 27 72  1  0
 28 73  1  0
 28 74  1  0
 32 75  1  1
 33 76  1  0
 33 77  1  0
 34 78  1  0
 34 79  1  0
 36 80  1  0
 37 81  1  0
 39 82  1  0
 40 83  1  0
 42 84  1  0
 42 85  1  0
 42 86  1  0
 43 87  1  0
 43 88  1  0
 43 89  1  0
 44 90  1  0
 44 91  1  0
 44 92  1  0
 46 93  1  0
M  END
$$$$
[H]c1c([H])c(C([H])([H])N([H])C(=O)[C@@]([H])(N([H])C(=O)[C@@]([H])(N([H])C(=O)C2([H])C([H])([H])C2([H])[H])C([H])([H])C([H])(C([H])([H])[H])C([H])([H])[H])C([H])([H])c2c([H])n([H])c3c([H])c([H])c([H])c([H])c23)c([H])c([H])c1F
     RDKit          3D

 69 72  0  0  0  0  0  0  0  0999 V2000
   -4.8636    0.7904   -1.8166 C   0  0  0  0  0  0  0  0  0  0  0  0
   -3.5691    1.4204   -2.1810 C   0  0  0  0  0  0  0  0  0  0  0  0
   -3.7698    2.9443   -2.1464 C   0  0  0  0  0  0  0  0  0  0  0  0
   -2.4043    1.1324   -1.3157 C   0  0  0  0  0  0  0  0  0  0  0  0
   -1.9838   -0.2912   -1.1839 C   0  0  2  0  0  0  0  0  0  0  0  0
   -2.9746   -1.1717   -0.6494 N   0  0  0  0  0  0  0  0  0  0  0  0
   -3.2873   -2.3990   -1.2779 C   0  0  0  0  0  0  0  0  0  0  0  0
   -2.6649   -2.7142   -2.3468 O   0  0  0  0  0  0  0  0  0  0  0  0
   -4.3017   -3.2990   -0.7225 C   0  0  0  0  0  0  0  0  0  0  0  0
   -4.2058   -4.7697   -0.9115 C   0  0  0  0  0  0  0  0  0  0  0  0
   -5.1817   -4.0053   -1.7472 C   0  0  0  0  0  0  0  0  0  0  0  0
   -0.8257   -0.2762   -0.2074 C   0  0  0  0  0  0  0  0  0  0  0  0
   -0.9750   -0.9721    0.8316 O   0  0  0  0  0  0  0  0  0  0  0  0
    0.3324    0.4732   -0.4647 N   0  0  0  0  0  0  0  0  0  0  0  0
    1.4381    0.4813    0.4633 C   0  0  1  0  0  0  0  0  0  0  0  0
    1.1604    1.2880    1.7012 C   0  0  0  0  0  0  0  0  0  0  0  0
    0.8539    2.7074    1.3677 C   0  0  0  0  0  0  0  0  0  0  0  0
   -0.4133    3.2772    1.4133 C   0  0  0  0  0  0  0  0  0  0  0  0
   -0.3363    4.5710    1.0623 N   0  0  0  0  0  0  0  0  0  0  0  0
    0.9678    4.8455    0.7896 C   0  0  0  0  0  0  0  0  0  0  0  0
    1.6018    5.9990    0.3877 C   0  0  0  0  0  0  0  0  0  0  0  0
    2.9594    6.0418    0.1653 C   0  0  0  0  0  0  0  0  0  0  0  0
    3.7097    4.8964    0.3500 C   0  0  0  0  0  0  0  0  0  0  0  0
    3.0810    3.7325    0.7540 C   0  0  0  0  0  0  0  0  0  0  0  0
    1.7225    3.6872    0.9771 C   0  0  0  0  0  0  0  0  0  0  0  0
    1.7443   -0.9493    0.8182 C   0  0  0  0  0  0  0  0  0  0  0  0
    1.5019   -1.8795   -0.0201 O   0  0  0  0  0  0  0  0  0  0  0  0
    2.2947   -1.3069    2.0631 N   0  0  0  0  0  0  0  0  0  0  0  0
    2.5714   -2.6984    2.3739 C   0  0  0  0  0  0  0  0  0  0  0  0
    3.8132   -3.1606    1.7187 C   0  0  0  0  0  0  0  0  0  0  0  0
    4.6506   -2.3439    0.9918 C   0  0  0  0  0  0  0  0  0  0  0  0
    5.8045   -2.8526    0.4076 C   0  0  0  0  0  0  0  0  0  0  0  0
    6.1532   -4.1720    0.5286 C   0  0  0  0  0  0  0  0  0  0  0  0
    7.2764   -4.6736   -0.0364 F   0  0  0  0  0  0  0  0  0  0  0  0
    5.3155   -5.0098    1.2607 C   0  0  0  0  0  0  0  0  0  0  0  0
    4.1761   -4.5000    1.8355 C   0  0  0  0  0  0  0  0  0  0  0  0
   -5.0341    0.6300   -0.7396 H   0  0  0  0  0  0  0  0  0  0  0  0
   -5.6860    1.5097   -2.1144 H   0  0  0  0  0  0  0  0  0  0  0  0
   -5.0907   -0.1095   -2.4361 H   0  0  0  0  0  0  0  0  0  0  0  0
   -3.3582    1.1901   -3.2459 H   0  0  0  0  0  0  0  0  0  0  0  0
   -3.0702    3.4449   -2.8274 H   0  0  0  0  0  0  0  0  0  0  0  0
   -3.6170    3.2616   -1.0751 H   0  0  0  0  0  0  0  0  0  0  0  0
   -4.8203    3.1460   -2.4412 H   0  0  0  0  0  0  0  0  0  0  0  0
   -2.4807    1.5638   -0.2968 H   0  0  0  0  0  0  0  0  0  0  0  0
   -1.5255    1.6735   -1.7811 H   0  0  0  0  0  0  0  0  0  0  0  0
   -1.5623   -0.7319   -2.1134 H   0  0  0  0  0  0  0  0  0  0  0  0
   -3.4771   -0.9108    0.2199 H   0  0  0  0  0  0  0  0  0  0  0  0
   -4.8012   -2.9422    0.2136 H   0  0  0  0  0  0  0  0  0  0  0  0
   -3.3273   -5.2360   -1.4043 H   0  0  0  0  0  0  0  0  0  0  0  0
   -4.6431   -5.3962   -0.1086 H   0  0  0  0  0  0  0  0  0  0  0  0
   -4.9500   -3.9285   -2.8174 H   0  0  0  0  0  0  0  0  0  0  0  0
   -6.2698   -4.0458   -1.5023 H   0  0  0  0  0  0  0  0  0  0  0  0
    0.4078    1.0358   -1.3322 H   0  0  0  0  0  0  0  0  0  0  0  0
    2.3748    0.8420   -0.0531 H   0  0  0  0  0  0  0  0  0  0  0  0
    2.0578    1.2827    2.3840 H   0  0  0  0  0  0  0  0  0  0  0  0
    0.3100    0.8530    2.2625 H   0  0  0  0  0  0  0  0  0  0  0  0
   -1.2961    2.7145    1.6978 H   0  0  0  0  0  0  0  0  0  0  0  0
   -1.1512    5.2149    1.0187 H   0  0  0  0  0  0  0  0  0  0  0  0
    0.9595    6.8797    0.2566 H   0  0  0  0  0  0  0  0  0  0  0  0
    3.4463    6.9491   -0.1492 H   0  0  0  0  0  0  0  0  0  0  0  0
    4.7800    4.8884    0.1850 H   0  0  0  0  0  0  0  0  0  0  0  0
    3.6683    2.8282    0.9003 H   0  0  0  0  0  0  0  0  0  0  0  0
    2.5188   -0.6051    2.7878 H   0  0  0  0  0  0  0  0  0  0  0  0
    2.6154   -2.8619    3.4799 H   0  0  0  0  0  0  0  0  0  0  0  0
    1.7187   -3.3160    1.9506 H   0  0  0  0  0  0  0  0  0  0  0  0
    4.4051   -1.3026    0.8787 H   0  0  0  0  0  0  0  0  0  0  0  0
    6.4350   -2.1502   -0.1609 H   0  0  0  0  0  0  0  0  0  0  0  0
    5.5787   -6.0683    1.3670 H   0  0  0  0  0  0  0  0  0  0  0  0
    3.5131   -5.1459    2.4098 H   0  0  0  0  0  0  0  0  0  0  0  0
  1  2  1  0
  2  3  1  0
  2  4  1  0
  4  5  1  0
  5  6  1  0
  6  7  1  0
  7  8  2  0
  7  9  1  0
  9 10  1  0
 10 11  1  0
  5 12  1  0
 12 13  2  0
 12 14  1  0
 14 15  1  0
 15 16  1  0
 16 17  1  0
 17 18  2  0
 18 19  1  0
 19 20  1  0
 20 21  2  0
 21 22  1  0
 22 23  2  0
 23 24  1  0
 24 25  2  0
 15 26  1  0
 26 27  2  0
 26 28  1  0
 28 29  1  0
 29 30  1  0
 30 31  2  0
 31 32  1  0
 32 33  2  0
 33 34  1  0
 33 35  1  0
 35 36  2  0
 11  9  1  0
 25 17  1  0
 36 30  1  0
 25 20  1  0
  1 37  1  0
  1 38  1  0
  1 39  1  0
  2 40  1  0
  3 41  1  0
  3 42  1  0
  3 43  1  0
  4 44  1  0
  4 45  1  0
  5 46  1  6
  6 47  1  0
  9 48  1  0
 10 49  1  0
 10 50  1  0
 11 51  1  0
 11 52  1  0
 14 53  1  0
 15 54  1  6
 16 55  1  0
 16 56  1  0
 18 57  1  0
 19 58  1  0
 21 59  1  0
 22 60  1  0
 23 61  1  0
 24 62  1  0
 28 63  1  0
 29 64  1  0
 29 65  1  0
 31 66  1  0
 32 67  1  0
 35 68  1  0
 36 69  1  0
M  END
$$$$
[H]N=C(N([H])[H])N([H])C([H])([H])C([H])([H])C([H])([H])[C@@]([H])(C(=O)N([H])[C@]([H])(C(=O)N([H])[H])C([H])([H])c1c([H])c([H])c([H])c([H])c1[H])N([H])C(=O)[C@@]([H])(N([H])C(=O)[C@@]([H])(N([H])[H])C([H])([H])c1c([H])c([H])c([H])c([H])c1[H])C([H])([H])C([H])(C([H])([H])[H])C([H])([H])[H]
     RDKit          3D

 86 87  0  0  0  0  0  0  0  0999 V2000
    3.3759   -2.1853   -3.8180 C   0  0  0  0  0  0  0  0  0  0  0  0
    3.4109   -0.9773   -2.9168 C   0  0  0  0  0  0  0  0  0  0  0  0
    3.5722    0.2492   -3.7877 C   0  0  0  0  0  0  0  0  0  0  0  0
    2.1237   -0.9602   -2.1199 C   0  0  0  0  0  0  0  0  0  0  0  0
    2.0445    0.1941   -1.1888 C   0  0  2  0  0  0  0  0  0  0  0  0
    3.1532    0.1470   -0.2470 N   0  0  0  0  0  0  0  0  0  0  0  0
    3.9911    1.2568   -0.0100 C   0  0  0  0  0  0  0  0  0  0  0  0
    3.7937    2.3230   -0.6175 O   0  0  0  0  0  0  0  0  0  0  0  0
    5.0949    1.1475    0.9572 C   0  0  1  0  0  0  0  0  0  0  0  0
    5.8419    2.3866    1.0857 N   0  0  0  0  0  0  0  0  0  0  0  0
    4.5445    0.8005    2.3089 C   0  0  0  0  0  0  0  0  0  0  0  0
    5.6385    0.6907    3.3093 C   0  0  0  0  0  0  0  0  0  0  0  0
    6.2479   -0.5195    3.5409 C   0  0  0  0  0  0  0  0  0  0  0  0
    7.2721   -0.5882    4.4838 C   0  0  0  0  0  0  0  0  0  0  0  0
    7.6990    0.5066    5.1930 C   0  0  0  0  0  0  0  0  0  0  0  0
    7.0737    1.7057    4.9431 C   0  0  0  0  0  0  0  0  0  0  0  0
    6.0581    1.7957    4.0148 C   0  0  0  0  0  0  0  0  0  0  0  0
    0.7831    0.1697   -0.3877 C   0  0  0  0  0  0  0  0  0  0  0  0
    0.7906    0.1491    0.8608 O   0  0  0  0  0  0  0  0  0  0  0  0
   -0.4999    0.1746   -1.0323 N   0  0  0  0  0  0  0  0  0  0  0  0
   -1.6895    0.1786   -0.2744 C   0  0  1  0  0  0  0  0  0  0  0  0
   -2.6862    1.2180   -0.4694 C   0  0  0  0  0  0  0  0  0  0  0  0
   -3.3919    1.4596   -1.7245 C   0  0  0  0  0  0  0  0  0  0  0  0
   -2.5834    1.7863   -2.9499 C   0  0  0  0  0  0  0  0  0  0  0  0
   -1.7489    2.9124   -2.7229 N   0  0  0  0  0  0  0  0  0  0  0  0
   -2.1936    4.2169   -2.5092 C   0  0  0  0  0  0  0  0  0  0  0  0
   -1.3769    5.1074   -1.7150 N   0  0  0  0  0  0  0  0  0  0  0  0
   -3.2898    4.6584   -2.9673 N   0  0  0  0  0  0  0  0  0  0  0  0
   -2.2893   -1.2026   -0.2472 C   0  0  0  0  0  0  0  0  0  0  0  0
   -1.4916   -2.2035   -0.3498 O   0  0  0  0  0  0  0  0  0  0  0  0
   -3.6737   -1.3984   -0.1150 N   0  0  0  0  0  0  0  0  0  0  0  0
   -4.2123   -2.7418   -0.0700 C   0  0  1  0  0  0  0  0  0  0  0  0
   -5.6345   -2.8153    0.3330 C   0  0  0  0  0  0  0  0  0  0  0  0
   -5.9806   -2.2590    1.6429 C   0  0  0  0  0  0  0  0  0  0  0  0
   -5.9274   -2.9887    2.8004 C   0  0  0  0  0  0  0  0  0  0  0  0
   -6.2639   -2.4859    4.0465 C   0  0  0  0  0  0  0  0  0  0  0  0
   -6.6854   -1.1603    4.1613 C   0  0  0  0  0  0  0  0  0  0  0  0
   -6.7385   -0.4307    3.0045 C   0  0  0  0  0  0  0  0  0  0  0  0
   -6.4057   -0.9256    1.7661 C   0  0  0  0  0  0  0  0  0  0  0  0
   -4.2001   -3.1738   -1.5421 C   0  0  0  0  0  0  0  0  0  0  0  0
   -4.6666   -4.4710   -1.8131 N   0  0  0  0  0  0  0  0  0  0  0  0
   -3.8018   -2.4300   -2.4550 O   0  0  0  0  0  0  0  0  0  0  0  0
    2.8239   -3.0223   -3.3599 H   0  0  0  0  0  0  0  0  0  0  0  0
    4.3949   -2.5480   -4.0879 H   0  0  0  0  0  0  0  0  0  0  0  0
    2.7997   -1.9493   -4.7592 H   0  0  0  0  0  0  0  0  0  0  0  0
    4.3064   -1.0718   -2.2714 H   0  0  0  0  0  0  0  0  0  0  0  0
    3.5727    0.0062   -4.8696 H   0  0  0  0  0  0  0  0  0  0  0  0
    2.7161    0.9441   -3.6277 H   0  0  0  0  0  0  0  0  0  0  0  0
    4.5481    0.7507   -3.5788 H   0  0  0  0  0  0  0  0  0  0  0  0
    2.0693   -1.9027   -1.5576 H   0  0  0  0  0  0  0  0  0  0  0  0
    1.3038   -0.9235   -2.8659 H   0  0  0  0  0  0  0  0  0  0  0  0
    2.0336    1.1819   -1.7170 H   0  0  0  0  0  0  0  0  0  0  0  0
    3.2763   -0.7852    0.2344 H   0  0  0  0  0  0  0  0  0  0  0  0
    5.8048    0.3882    0.5694 H   0  0  0  0  0  0  0  0  0  0  0  0
    5.3220    3.2103    0.7017 H   0  0  0  0  0  0  0  0  0  0  0  0
    6.8208    2.3118    0.7372 H   0  0  0  0  0  0  0  0  0  0  0  0
    3.8224    1.5520    2.6204 H   0  0  0  0  0  0  0  0  0  0  0  0
    4.0791   -0.2044    2.2429 H   0  0  0  0  0  0  0  0  0  0  0  0
    5.9460   -1.4134    3.0058 H   0  0  0  0  0  0  0  0  0  0  0  0
    7.7187   -1.5386    4.6349 H   0  0  0  0  0  0  0  0  0  0  0  0
    8.4921    0.4218    5.9154 H   0  0  0  0  0  0  0  0  0  0  0  0
    7.3886    2.6024    5.4908 H   0  0  0  0  0  0  0  0  0  0  0  0
    5.5634    2.7443    3.8176 H   0  0  0  0  0  0  0  0  0  0  0  0
   -0.4321    0.1703   -2.0781 H   0  0  0  0  0  0  0  0  0  0  0  0
   -1.3318    0.3064    0.8255 H   0  0  0  0  0  0  0  0  0  0  0  0
   -3.4804    1.1395    0.3448 H   0  0  0  0  0  0  0  0  0  0  0  0
   -2.2312    2.2471   -0.1789 H   0  0  0  0  0  0  0  0  0  0  0  0
   -4.2015    0.7180   -1.9630 H   0  0  0  0  0  0  0  0  0  0  0  0
   -4.0099    2.4086   -1.5578 H   0  0  0  0  0  0  0  0  0  0  0  0
   -2.0819    0.9316   -3.4255 H   0  0  0  0  0  0  0  0  0  0  0  0
   -3.3745    2.1476   -3.7030 H   0  0  0  0  0  0  0  0  0  0  0  0
   -0.7015    2.7322   -2.7195 H   0  0  0  0  0  0  0  0  0  0  0  0
   -0.4552    5.4485   -2.0537 H   0  0  0  0  0  0  0  0  0  0  0  0
   -1.6982    5.4382   -0.7604 H   0  0  0  0  0  0  0  0  0  0  0  0
   -3.9156    4.0542   -3.5336 H   0  0  0  0  0  0  0  0  0  0  0  0
   -4.3186   -0.6058   -0.0423 H   0  0  0  0  0  0  0  0  0  0  0  0
   -3.5101   -3.4274    0.4450 H   0  0  0  0  0  0  0  0  0  0  0  0
   -5.9208   -3.9149    0.2724 H   0  0  0  0  0  0  0  0  0  0  0  0
   -6.2478   -2.3631   -0.5069 H   0  0  0  0  0  0  0  0  0  0  0  0
   -5.5960   -4.0353    2.7148 H   0  0  0  0  0  0  0  0  0  0  0  0
   -6.2186   -3.0673    4.9531 H   0  0  0  0  0  0  0  0  0  0  0  0
   -6.9508   -0.7501    5.1319 H   0  0  0  0  0  0  0  0  0  0  0  0
   -7.0655    0.6080    3.0669 H   0  0  0  0  0  0  0  0  0  0  0  0
   -6.4678   -0.3200    0.8903 H   0  0  0  0  0  0  0  0  0  0  0  0
   -4.4610   -5.2356   -1.1370 H   0  0  0  0  0  0  0  0  0  0  0  0
   -5.2098   -4.7024   -2.6622 H   0  0  0  0  0  0  0  0  0  0  0  0
  1  2  1  0
  2  3  1  0
  2  4  1  0
  4  5  1  0
  5  6  1  0
  6  7  1  0
  7  8  2  0
  7  9  1  0
  9 10  1  0
  9 11  1  0
 11 12  1  0
 12 13  2  0
 13 14  1  0
 14 15  2  0
 15 16  1  0
 16 17  2  0
  5 18  1  0
 18 19  2  0
 18 20  1  0
 20 21  1  0
 21 22  1  0
 22 23  1  0
 23 24  1  0
 24 25  1  0
 25 26  1  0
 26 27  1  0
 26 28  2  3
 21 29  1  0
 29 30  2  0
 29 31  1  0
 31 32  1  0
 32 33  1  0
 33 34  1  0
 34 35  2  0
 35 36  1  0
 36 37  2  0
 37 38  1  0
 38 39  2  0
 32 40  1  0
 40 41  1  0
 40 42  2  0
 17 12  1  0
 39 34  1  0
  1 43  1  0
  1 44  1  0
  1 45  1  0
  2 46  1  0
  3 47  1  0
  3 48  1  0
  3 49  1  0
  4 50  1  0
  4 51  1  0
  5 52  1  6
  6 53  1  0
  9 54  1  6
 10 55  1  0
 10 56  1  0
 11 57  1  0
 11 58  1  0
 13 59  1  0
 14 60  1  0
 15 61  1  0
 16 62  1  0
 17 63  1  0
 20 64  1  0
 21 65  1  1
 22 66  1  0
 22 67  1  0
 23 68  1  0
 23 69  1  0
 24 70  1  0
 24 71  1  0
 25 72  1  0
 27 73  1  0
 27 74  1  0
 28 75  1  0
 31 76  1  0
 32 77  1  1
 33 78  1  0
 33 79  1  0
 35 80  1  0
 36 81  1  0
 37 82  1  0
 38 83  1  0
 39 84  1  0
 41 85  1  0
 41 86  1  0
M  END
$$$$
[H]OC(=O)C([H])([H])C([H])([H])[C@@]([H])(C(=O)N([H])[C@]([H])(C(=O)N([H])[C@]([H])(C(=O)N([H])[C@]([H])(C(=O)O[H])C([H])([H])C(=O)O[H])C([H])([H])C(=O)O[H])C([H])([H])C([H])(C([H])([H])[H])C([H])([H])[H])N([H])C(=O)[C@@]([H])(N([H])C(=O)[C@@]([H])(N([H])[H])C([H])([H])C([H])(C([H])([H])[H])C([H])([H])[H])C([H])([H])c1c([H])c([H])c([H])c([H])c1[H]
     RDKit          3D

103103  0  0  0  0  0  0  0  0999 V2000
   -9.7892    3.4474    1.3067 C   0  0  0  0  0  0  0  0  0  0  0  0
  -10.0354    2.1208    0.6071 C   0  0  0  0  0  0  0  0  0  0  0  0
  -10.4472    2.3049   -0.8189 C   0  0  0  0  0  0  0  0  0  0  0  0
   -8.9247    1.1475    0.8287 C   0  0  0  0  0  0  0  0  0  0  0  0
   -7.5864    1.6213    0.3464 C   0  0  2  0  0  0  0  0  0  0  0  0
   -7.6290    1.8766   -1.0628 N   0  0  0  0  0  0  0  0  0  0  0  0
   -6.4805    0.7247    0.7609 C   0  0  0  0  0  0  0  0  0  0  0  0
   -6.5155    0.2959    1.9497 O   0  0  0  0  0  0  0  0  0  0  0  0
   -5.4293    0.3427   -0.0786 N   0  0  0  0  0  0  0  0  0  0  0  0
   -4.3497   -0.5191    0.2805 C   0  0  1  0  0  0  0  0  0  0  0  0
   -4.1294   -1.6714   -0.6622 C   0  0  0  0  0  0  0  0  0  0  0  0
   -5.2884   -2.5665   -0.7824 C   0  0  0  0  0  0  0  0  0  0  0  0
   -6.2394   -2.3340   -1.7513 C   0  0  0  0  0  0  0  0  0  0  0  0
   -7.3302   -3.1298   -1.9078 C   0  0  0  0  0  0  0  0  0  0  0  0
   -7.5333   -4.2250   -1.0866 C   0  0  0  0  0  0  0  0  0  0  0  0
   -6.5740   -4.4572   -0.1113 C   0  0  0  0  0  0  0  0  0  0  0  0
   -5.4696   -3.6478    0.0445 C   0  0  0  0  0  0  0  0  0  0  0  0
   -3.0802    0.2225    0.5207 C   0  0  0  0  0  0  0  0  0  0  0  0
   -3.1052    1.4729    0.4157 O   0  0  0  0  0  0  0  0  0  0  0  0
   -1.8765   -0.4266    0.8569 N   0  0  0  0  0  0  0  0  0  0  0  0
   -0.6351    0.2559    1.1099 C   0  0  1  0  0  0  0  0  0  0  0  0
   -0.0669   -0.0995    2.4614 C   0  0  0  0  0  0  0  0  0  0  0  0
   -0.9447    0.2313    3.6175 C   0  0  0  0  0  0  0  0  0  0  0  0
   -1.2816    1.6332    3.8080 C   0  0  0  0  0  0  0  0  0  0  0  0
   -2.1525    1.9784    4.8589 O   0  0  0  0  0  0  0  0  0  0  0  0
   -0.8709    2.5948    3.1197 O   0  0  0  0  0  0  0  0  0  0  0  0
    0.4281   -0.0640    0.1096 C   0  0  0  0  0  0  0  0  0  0  0  0
    0.1896   -0.8517   -0.8409 O   0  0  0  0  0  0  0  0  0  0  0  0
    1.7229    0.4999    0.1933 N   0  0  0  0  0  0  0  0  0  0  0  0
    2.7778    0.2360   -0.7352 C   0  0  1  0  0  0  0  0  0  0  0  0
    3.1154    1.3265   -1.6483 C   0  0  0  0  0  0  0  0  0  0  0  0
    3.5466    2.6423   -1.1920 C   0  0  0  0  0  0  0  0  0  0  0  0
    2.5290    3.3821   -0.3098 C   0  0  0  0  0  0  0  0  0  0  0  0
    4.8683    2.8259   -0.5704 C   0  0  0  0  0  0  0  0  0  0  0  0
    3.8491   -0.6135   -0.1789 C   0  0  0  0  0  0  0  0  0  0  0  0
    3.7908   -1.0742    1.0049 O   0  0  0  0  0  0  0  0  0  0  0  0
    4.9703   -0.9423   -0.9634 N   0  0  0  0  0  0  0  0  0  0  0  0
    6.0610   -1.8254   -0.4951 C   0  0  1  0  0  0  0  0  0  0  0  0
    6.3330   -2.8143   -1.5604 C   0  0  0  0  0  0  0  0  0  0  0  0
    7.3307   -3.8296   -1.2359 C   0  0  0  0  0  0  0  0  0  0  0  0
    7.8285   -4.6837   -2.2223 O   0  0  0  0  0  0  0  0  0  0  0  0
    7.7840   -3.9870   -0.0860 O   0  0  0  0  0  0  0  0  0  0  0  0
    7.1583   -0.9015   -0.1555 C   0  0  0  0  0  0  0  0  0  0  0  0
    6.8025    0.1039    0.5611 O   0  0  0  0  0  0  0  0  0  0  0  0
    8.5021   -0.9594   -0.4991 N   0  0  0  0  0  0  0  0  0  0  0  0
    9.4578    0.0498   -0.0597 C   0  0  1  0  0  0  0  0  0  0  0  0
   10.5904   -0.5562    0.7022 C   0  0  0  0  0  0  0  0  0  0  0  0
   11.3998   -1.5255   -0.0405 C   0  0  0  0  0  0  0  0  0  0  0  0
   11.2579   -1.7115   -1.3896 O   0  0  0  0  0  0  0  0  0  0  0  0
   12.2440   -2.1920    0.6070 O   0  0  0  0  0  0  0  0  0  0  0  0
   10.0068    0.7893   -1.2336 C   0  0  0  0  0  0  0  0  0  0  0  0
   10.9353    1.8117   -1.0833 O   0  0  0  0  0  0  0  0  0  0  0  0
    9.6214    0.4804   -2.3638 O   0  0  0  0  0  0  0  0  0  0  0  0
   -9.1745    4.0622    0.6139 H   0  0  0  0  0  0  0  0  0  0  0  0
  -10.7672    3.8982    1.5371 H   0  0  0  0  0  0  0  0  0  0  0  0
   -9.2164    3.2707    2.2316 H   0  0  0  0  0  0  0  0  0  0  0  0
  -10.9360    1.6898    1.1470 H   0  0  0  0  0  0  0  0  0  0  0  0
  -10.2763    1.3467   -1.3629 H   0  0  0  0  0  0  0  0  0  0  0  0
  -11.5514    2.5492   -0.8258 H   0  0  0  0  0  0  0  0  0  0  0  0
   -9.8827    3.0907   -1.3574 H   0  0  0  0  0  0  0  0  0  0  0  0
   -8.9209    0.9102    1.9244 H   0  0  0  0  0  0  0  0  0  0  0  0
   -9.2248    0.2021    0.3065 H   0  0  0  0  0  0  0  0  0  0  0  0
   -7.3522    2.6025    0.8536 H   0  0  0  0  0  0  0  0  0  0  0  0
   -7.9137    0.9909   -1.5450 H   0  0  0  0  0  0  0  0  0  0  0  0
   -6.7308    2.2674   -1.4314 H   0  0  0  0  0  0  0  0  0  0  0  0
   -5.4322    0.7283   -1.0691 H   0  0  0  0  0  0  0  0  0  0  0  0
   -4.6097   -0.9264    1.3117 H   0  0  0  0  0  0  0  0  0  0  0  0
   -3.2988   -2.2903   -0.2568 H   0  0  0  0  0  0  0  0  0  0  0  0
   -3.8869   -1.2615   -1.6652 H   0  0  0  0  0  0  0  0  0  0  0  0
   -6.0759   -1.4634   -2.4020 H   0  0  0  0  0  0  0  0  0  0  0  0
   -8.0585   -2.9015   -2.6952 H   0  0  0  0  0  0  0  0  0  0  0  0
   -8.3925   -4.8630   -1.2015 H   0  0  0  0  0  0  0  0  0  0  0  0
   -6.7003   -5.3108    0.5547 H   0  0  0  0  0  0  0  0  0  0  0  0
   -4.7207   -3.8330    0.8100 H   0  0  0  0  0  0  0  0  0  0  0  0
   -1.8695   -1.4776    0.9320 H   0  0  0  0  0  0  0  0  0  0  0  0
   -0.8089    1.3434    1.0836 H   0  0  0  0  0  0  0  0  0  0  0  0
    0.8904    0.4755    2.6102 H   0  0  0  0  0  0  0  0  0  0  0  0
    0.2607   -1.1671    2.4975 H   0  0  0  0  0  0  0  0  0  0  0  0
   -0.5317   -0.1623    4.5875 H   0  0  0  0  0  0  0  0  0  0  0  0
   -1.8969   -0.3700    3.4907 H   0  0  0  0  0  0  0  0  0  0  0  0
   -3.0254    1.4304    4.8655 H   0  0  0  0  0  0  0  0  0  0  0  0
    1.9046    1.1424    0.9912 H   0  0  0  0  0  0  0  0  0  0  0  0
    2.2652   -0.5431   -1.4606 H   0  0  0  0  0  0  0  0  0  0  0  0
    2.1911    1.4891   -2.3097 H   0  0  0  0  0  0  0  0  0  0  0  0
    3.8532    0.9348   -2.4112 H   0  0  0  0  0  0  0  0  0  0  0  0
    3.5625    3.3063   -2.1293 H   0  0  0  0  0  0  0  0  0  0  0  0
    2.8403    3.3171    0.7526 H   0  0  0  0  0  0  0  0  0  0  0  0
    2.5026    4.4717   -0.5355 H   0  0  0  0  0  0  0  0  0  0  0  0
    1.5193    2.9757   -0.4977 H   0  0  0  0  0  0  0  0  0  0  0  0
    5.7099    2.3459   -1.1480 H   0  0  0  0  0  0  0  0  0  0  0  0
    5.1200    3.9293   -0.6195 H   0  0  0  0  0  0  0  0  0  0  0  0
    4.9421    2.5836    0.5109 H   0  0  0  0  0  0  0  0  0  0  0  0
    5.0707   -0.5695   -1.9161 H   0  0  0  0  0  0  0  0  0  0  0  0
    5.7085   -2.3254    0.4540 H   0  0  0  0  0  0  0  0  0  0  0  0
    5.3611   -3.2598   -1.8753 H   0  0  0  0  0  0  0  0  0  0  0  0
    6.6734   -2.2486   -2.4798 H   0  0  0  0  0  0  0  0  0  0  0  0
    7.3026   -4.8175   -3.0832 H   0  0  0  0  0  0  0  0  0  0  0  0
    8.8869   -1.7000   -1.0985 H   0  0  0  0  0  0  0  0  0  0  0  0
    8.9095    0.7643    0.5894 H   0  0  0  0  0  0  0  0  0  0  0  0
   11.2956    0.2561    1.0553 H   0  0  0  0  0  0  0  0  0  0  0  0
   10.2080   -1.0799    1.6173 H   0  0  0  0  0  0  0  0  0  0  0  0
   11.5398   -2.5600   -1.8348 H   0  0  0  0  0  0  0  0  0  0  0  0
   11.4004    1.9457   -0.1920 H   0  0  0  0  0  0  0  0  0  0  0  0
  1  2  1  0
  2  3  1  0
  2  4  1  0
  4  5  1  0
  5  6  1  0
  5  7  1  0
  7  8  2  0
  7  9  1  0
  9 10  1  0
 10 11  1  0
 11 12  1  0
 12 13  2  0
 13 14  1  0
 14 15  2  0
 15 16  1  0
 16 17  2  0
 10 18  1  0
 18 19  2  0
 18 20  1  0
 20 21  1  0
 21 22  1  0
 22 23  1  0
 23 24  1  0
 24 25  1  0
 24 26  2  0
 21 27  1  0
 27 28  2  0
 27 29  1  0
 29 30  1  0
 30 31  1  0
 31 32  1  0
 32 33  1  0
 32 34  1  0
 30 35  1  0
 35 36  2  0
 35 37  1  0
 37 38  1  0
 38 39  1  0
 39 40  1  0
 40 41  1  0
 40 42  2  0
 38 43  1  0
 43 44  2  0
 43 45  1  0
 45 46  1  0
 46 47  1  0
 47 48  1  0
 48 49  1  0
 48 50  2  0
 46 51  1  0
 51 52  1  0
 51 53  2  0
 17 12  1  0
  1 54  1  0
  1 55  1  0
  1 56  1  0
  2 57  1  0
  3 58  1  0
  3 59  1  0
  3 60  1  0
  4 61  1  0
  4 62  1  0
  5 63  1  1
  6 64  1  0
  6 65  1  0
  9 66  1  0
 10 67  1  1
 11 68  1  0
 11 69  1  0
 13 70  1  0
 14 71  1  0
 15 72  1  0
 16 73  1  0
 17 74  1  0
 20 75  1  0
 21 76  1  1
 22 77  1  0
 22 78  1  0
 23 79  1  0
 23 80  1  0
 25 81  1  0
 29 82  1  0
 30 83  1  6
 31 84  1  0
 31 85  1  0
 32 86  1  0
 33 87  1  0
 33 88  1  0
 33 89  1  0
 34 90  1  0
 34 91  1  0
 34 92  1  0
 37 93  1  0
 38 94  1  1
 39 95  1  0
 39 96  1  0
 41 97  1  0
 45 98  1  0
 46 99  1  1
 47100  1  0
 47101  1  0
 49102  1  0
 52103  1  0
M  END
$$$$
[H]c1c([H])c([H])c(C([H])([H])[C@@]([H])(C(=O)N([H])C([H])([H])[H])N([H])C(=O)[C@@]([H])(N([H])C(=O)[C@@]([H])(N([H])C(=O)[C@@]([H])(N([H])C(=O)[C@@]([H])(N([H])C(=O)[C@]([H])(N([H])C(=O)[C@@]([H])(N([H])C(=O)[C@]([H])(N([H])C(=O)[C@@]([H])(N([H])C([H])([H])[H])C([H])([H])C([H])(C([H])([H])[H])C([H])([H])[H])C([H])([H])C([H])(C([H])([H])[H])C([H])([H])[H])C([H])([H])C([H])(C([H])([H])[H])C([H])([H])[H])C([H])([H])C([H])(C([H])([H])[H])C([H])([H])[H])C([H])([H])C([H])(C([H])([H])[H])C([H])([H])[H])C([H])([H])C([H])(C([H])([H])[H])C([H])([H])[H])C([H])([H])C([H])(C([H])([H])[H])C([H])([H])[H])C([H])([H])c2c([H])c([H])c([H])c([H])c2[H])c([H])c1[H]
     RDKit          3D

183184  0  0  0  0  0  0  0  0999 V2000
   16.0882    3.2428    2.0091 C   0  0  0  0  0  0  0  0  0  0  0  0
   15.2687    2.5464    1.0611 N   0  0  0  0  0  0  0  0  0  0  0  0
   13.8611    2.5958    1.0707 C   0  0  0  0  0  0  0  0  0  0  0  0
   13.3574    3.3129    2.0210 O   0  0  0  0  0  0  0  0  0  0  0  0
   12.9677    1.9293    0.1402 C   0  0  2  0  0  0  0  0  0  0  0  0
   12.8796    2.6017   -1.2375 C   0  0  0  0  0  0  0  0  0  0  0  0
   14.1501    2.6858   -1.9483 C   0  0  0  0  0  0  0  0  0  0  0  0
   14.9158    3.8333   -1.8710 C   0  0  0  0  0  0  0  0  0  0  0  0
   16.1256    3.8816   -2.5599 C   0  0  0  0  0  0  0  0  0  0  0  0
   16.5475    2.8235   -3.2952 C   0  0  0  0  0  0  0  0  0  0  0  0
   15.7799    1.6642   -3.3770 C   0  0  0  0  0  0  0  0  0  0  0  0
   14.5892    1.6144   -2.6999 C   0  0  0  0  0  0  0  0  0  0  0  0
   11.5864    1.9809    0.6777 N   0  0  0  0  0  0  0  0  0  0  0  0
   10.6319    0.9926    0.3439 C   0  0  0  0  0  0  0  0  0  0  0  0
   10.9663    0.0706   -0.4408 O   0  0  0  0  0  0  0  0  0  0  0  0
    9.2938    1.0705    0.9159 C   0  0  2  0  0  0  0  0  0  0  0  0
    9.1874    0.2235    2.1878 C   0  0  0  0  0  0  0  0  0  0  0  0
    9.4677   -1.2051    1.9622 C   0  0  0  0  0  0  0  0  0  0  0  0
   10.7507   -1.6663    2.0936 C   0  0  0  0  0  0  0  0  0  0  0  0
   11.0490   -2.9926    1.8997 C   0  0  0  0  0  0  0  0  0  0  0  0
   10.0511   -3.8804    1.5687 C   0  0  0  0  0  0  0  0  0  0  0  0
    8.7498   -3.4187    1.4347 C   0  0  0  0  0  0  0  0  0  0  0  0
    8.4628   -2.0882    1.6308 C   0  0  0  0  0  0  0  0  0  0  0  0
    8.2188    0.6867    0.0167 N   0  0  0  0  0  0  0  0  0  0  0  0
    6.9373    1.2926    0.1298 C   0  0  0  0  0  0  0  0  0  0  0  0
    6.7745    2.1754    1.0693 O   0  0  0  0  0  0  0  0  0  0  0  0
    5.7611    1.0421   -0.6765 C   0  0  2  0  0  0  0  0  0  0  0  0
    5.3279    2.0898   -1.6580 C   0  0  0  0  0  0  0  0  0  0  0  0
    6.2622    2.4194   -2.7357 C   0  0  0  0  0  0  0  0  0  0  0  0
    7.5617    2.9818   -2.3084 C   0  0  0  0  0  0  0  0  0  0  0  0
    5.5819    3.3121   -3.7891 C   0  0  0  0  0  0  0  0  0  0  0  0
    4.6439    0.9241    0.2675 N   0  0  0  0  0  0  0  0  0  0  0  0
    3.5031    0.1900   -0.0625 C   0  0  0  0  0  0  0  0  0  0  0  0
    3.3635   -0.3438   -1.1687 O   0  0  0  0  0  0  0  0  0  0  0  0
    2.3977    0.0234    0.9502 C   0  0  2  0  0  0  0  0  0  0  0  0
    2.6140   -1.2983    1.6490 C   0  0  0  0  0  0  0  0  0  0  0  0
    1.7702   -1.6690    2.7871 C   0  0  0  0  0  0  0  0  0  0  0  0
    1.9051   -0.6671    3.9523 C   0  0  0  0  0  0  0  0  0  0  0  0
    2.3489   -3.0222    3.3093 C   0  0  0  0  0  0  0  0  0  0  0  0
    1.1516    0.2078    0.2864 N   0  0  0  0  0  0  0  0  0  0  0  0
    0.1480   -0.6799   -0.0886 C   0  0  0  0  0  0  0  0  0  0  0  0
    0.2670   -1.9076    0.1140 O   0  0  0  0  0  0  0  0  0  0  0  0
   -1.1084   -0.2535   -0.7348 C   0  0  2  0  0  0  0  0  0  0  0  0
   -1.7852    0.9183   -0.1135 C   0  0  0  0  0  0  0  0  0  0  0  0
   -2.2776    0.9213    1.2447 C   0  0  0  0  0  0  0  0  0  0  0  0
   -2.9130    2.3300    1.4589 C   0  0  0  0  0  0  0  0  0  0  0  0
   -1.3034    0.8090    2.3773 C   0  0  0  0  0  0  0  0  0  0  0  0
   -1.9694   -1.3921   -0.9974 N   0  0  0  0  0  0  0  0  0  0  0  0
   -3.3260   -1.5034   -1.1544 C   0  0  0  0  0  0  0  0  0  0  0  0
   -4.0768   -0.4732   -1.0732 O   0  0  0  0  0  0  0  0  0  0  0  0
   -4.1069   -2.7624   -1.4252 C   0  0  1  0  0  0  0  0  0  0  0  0
   -3.3749   -4.0168   -1.4613 C   0  0  0  0  0  0  0  0  0  0  0  0
   -2.6485   -4.6000   -0.3538 C   0  0  0  0  0  0  0  0  0  0  0  0
   -2.0221   -5.9233   -0.8986 C   0  0  0  0  0  0  0  0  0  0  0  0
   -3.4459   -5.0717    0.8337 C   0  0  0  0  0  0  0  0  0  0  0  0
   -5.3026   -2.7813   -0.5971 N   0  0  0  0  0  0  0  0  0  0  0  0
   -6.6255   -2.6129   -1.0023 C   0  0  0  0  0  0  0  0  0  0  0  0
   -6.9581   -2.3984   -2.1709 O   0  0  0  0  0  0  0  0  0  0  0  0
   -7.7307   -2.7061    0.1049 C   0  0  2  0  0  0  0  0  0  0  0  0
   -7.5047   -3.9688    0.7645 C   0  0  0  0  0  0  0  0  0  0  0  0
   -8.2603   -4.5141    1.8906 C   0  0  0  0  0  0  0  0  0  0  0  0
   -9.7041   -4.7986    1.7417 C   0  0  0  0  0  0  0  0  0  0  0  0
   -7.9637   -3.7830    3.2077 C   0  0  0  0  0  0  0  0  0  0  0  0
   -8.9647   -2.3461   -0.5048 N   0  0  0  0  0  0  0  0  0  0  0  0
   -9.4183   -1.0013   -0.4049 C   0  0  0  0  0  0  0  0  0  0  0  0
   -8.5759   -0.2650    0.2993 O   0  0  0  0  0  0  0  0  0  0  0  0
  -10.5437   -0.2866   -0.8924 C   0  0  1  0  0  0  0  0  0  0  0  0
  -11.9346   -0.4085   -0.5172 C   0  0  0  0  0  0  0  0  0  0  0  0
  -12.7570   -1.6120   -0.6466 C   0  0  0  0  0  0  0  0  0  0  0  0
  -12.3486   -2.8149    0.1298 C   0  0  0  0  0  0  0  0  0  0  0  0
  -12.9499   -2.0300   -2.1116 C   0  0  0  0  0  0  0  0  0  0  0  0
  -10.2357    1.1732   -0.5885 N   0  0  0  0  0  0  0  0  0  0  0  0
  -10.3740    2.1795   -1.5592 C   0  0  0  0  0  0  0  0  0  0  0  0
  -10.8094    1.7861   -2.6994 O   0  0  0  0  0  0  0  0  0  0  0  0
  -10.0450    3.5928   -1.3334 C   0  0  2  0  0  0  0  0  0  0  0  0
  -10.5853    4.2728   -0.1517 C   0  0  0  0  0  0  0  0  0  0  0  0
  -12.0242    4.4463    0.0394 C   0  0  0  0  0  0  0  0  0  0  0  0
  -12.8976    3.2577    0.1078 C   0  0  0  0  0  0  0  0  0  0  0  0
  -12.6568    5.4712   -0.8840 C   0  0  0  0  0  0  0  0  0  0  0  0
  -10.2869    4.3526   -2.5688 N   0  0  0  0  0  0  0  0  0  0  0  0
   -9.4220    3.8631   -3.6046 C   0  0  0  0  0  0  0  0  0  0  0  0
   17.1479    3.3382    1.6574 H   0  0  0  0  0  0  0  0  0  0  0  0
   15.7282    4.2938    2.2121 H   0  0  0  0  0  0  0  0  0  0  0  0
   16.1279    2.7385    2.9898 H   0  0  0  0  0  0  0  0  0  0  0  0
   15.7517    1.9587    0.3500 H   0  0  0  0  0  0  0  0  0  0  0  0
   13.2852    0.9000   -0.0732 H   0  0  0  0  0  0  0  0  0  0  0  0
   12.1945    1.9578   -1.8692 H   0  0  0  0  0  0  0  0  0  0  0  0
   12.4338    3.6021   -1.0786 H   0  0  0  0  0  0  0  0  0  0  0  0
   14.6399    4.7078   -1.3068 H   0  0  0  0  0  0  0  0  0  0  0  0
   16.7275    4.8002   -2.4953 H   0  0  0  0  0  0  0  0  0  0  0  0
   17.4997    2.8889   -3.8273 H   0  0  0  0  0  0  0  0  0  0  0  0
   16.1450    0.8453   -3.9615 H   0  0  0  0  0  0  0  0  0  0  0  0
   13.9951    0.6940   -2.7765 H   0  0  0  0  0  0  0  0  0  0  0  0
   11.3627    2.7685    1.3106 H   0  0  0  0  0  0  0  0  0  0  0  0
    9.0621    2.1019    1.2812 H   0  0  0  0  0  0  0  0  0  0  0  0
    8.1501    0.3460    2.5632 H   0  0  0  0  0  0  0  0  0  0  0  0
    9.9184    0.6383    2.9295 H   0  0  0  0  0  0  0  0  0  0  0  0
   11.5560   -0.9596    2.3602 H   0  0  0  0  0  0  0  0  0  0  0  0
   12.0873   -3.3516    2.0019 H   0  0  0  0  0  0  0  0  0  0  0  0
   10.2846   -4.9445    1.4149 H   0  0  0  0  0  0  0  0  0  0  0  0
    8.0003   -4.1637    1.1682 H   0  0  0  0  0  0  0  0  0  0  0  0
    7.4638   -1.7224    1.5272 H   0  0  0  0  0  0  0  0  0  0  0  0
    8.3881   -0.0292   -0.6997 H   0  0  0  0  0  0  0  0  0  0  0  0
    5.8674    0.0758   -1.2499 H   0  0  0  0  0  0  0  0  0  0  0  0
    5.0557    2.9935   -1.0307 H   0  0  0  0  0  0  0  0  0  0  0  0
    4.3124    1.8060   -2.0903 H   0  0  0  0  0  0  0  0  0  0  0  0
    6.4983    1.4753   -3.3401 H   0  0  0  0  0  0  0  0  0  0  0  0
    7.6109    3.3775   -1.2882 H   0  0  0  0  0  0  0  0  0  0  0  0
    7.7743    3.8509   -3.0330 H   0  0  0  0  0  0  0  0  0  0  0  0
    8.4152    2.2629   -2.4497 H   0  0  0  0  0  0  0  0  0  0  0  0
    4.6350    2.8467   -4.0887 H   0  0  0  0  0  0  0  0  0  0  0  0
    5.4662    4.3333   -3.3992 H   0  0  0  0  0  0  0  0  0  0  0  0
    6.2656    3.3155   -4.6766 H   0  0  0  0  0  0  0  0  0  0  0  0
    4.7043    1.3947    1.2009 H   0  0  0  0  0  0  0  0  0  0  0  0
    2.5188    0.7833    1.7324 H   0  0  0  0  0  0  0  0  0  0  0  0
    2.6276   -2.1269    0.8733 H   0  0  0  0  0  0  0  0  0  0  0  0
    3.6825   -1.2420    2.0295 H   0  0  0  0  0  0  0  0  0  0  0  0
    0.7235   -1.8497    2.6976 H   0  0  0  0  0  0  0  0  0  0  0  0
    1.9245    0.3669    3.6165 H   0  0  0  0  0  0  0  0  0  0  0  0
    1.0597   -0.7865    4.6677 H   0  0  0  0  0  0  0  0  0  0  0  0
    2.8105   -0.9862    4.5444 H   0  0  0  0  0  0  0  0  0  0  0  0
    3.4400   -2.9858    3.2805 H   0  0  0  0  0  0  0  0  0  0  0  0
    1.9247   -3.1648    4.3247 H   0  0  0  0  0  0  0  0  0  0  0  0
    2.0252   -3.8386    2.6383 H   0  0  0  0  0  0  0  0  0  0  0  0
    0.9408    1.2460    0.0113 H   0  0  0  0  0  0  0  0  0  0  0  0
   -0.8598    0.1351   -1.7685 H   0  0  0  0  0  0  0  0  0  0  0  0
   -2.5472    1.3038   -0.8253 H   0  0  0  0  0  0  0  0  0  0  0  0
   -0.9896    1.7521   -0.1725 H   0  0  0  0  0  0  0  0  0  0  0  0
   -3.1283    0.2410    1.5029 H   0  0  0  0  0  0  0  0  0  0  0  0
   -2.0764    3.0481    1.6279 H   0  0  0  0  0  0  0  0  0  0  0  0
   -3.5812    2.2809    2.3146 H   0  0  0  0  0  0  0  0  0  0  0  0
   -3.4648    2.5314    0.5199 H   0  0  0  0  0  0  0  0  0  0  0  0
   -0.5586    1.6192    2.3071 H   0  0  0  0  0  0  0  0  0  0  0  0
   -1.9079    1.0901    3.3028 H   0  0  0  0  0  0  0  0  0  0  0  0
   -0.9449   -0.1889    2.5715 H   0  0  0  0  0  0  0  0  0  0  0  0
   -1.4014   -2.2963   -1.1202 H   0  0  0  0  0  0  0  0  0  0  0  0
   -4.5162   -2.5798   -2.4617 H   0  0  0  0  0  0  0  0  0  0  0  0
   -4.0844   -4.7898   -1.9312 H   0  0  0  0  0  0  0  0  0  0  0  0
   -2.6258   -3.9135   -2.3296 H   0  0  0  0  0  0  0  0  0  0  0  0
   -1.7842   -4.0759    0.0507 H   0  0  0  0  0  0  0  0  0  0  0  0
   -2.8244   -6.5441   -1.3407 H   0  0  0  0  0  0  0  0  0  0  0  0
   -1.3243   -5.6710   -1.7248 H   0  0  0  0  0  0  0  0  0  0  0  0
   -1.5127   -6.4521   -0.1003 H   0  0  0  0  0  0  0  0  0  0  0  0
   -3.4625   -4.2418    1.5681 H   0  0  0  0  0  0  0  0  0  0  0  0
   -4.4647   -5.3647    0.6216 H   0  0  0  0  0  0  0  0  0  0  0  0
   -2.8528   -5.8891    1.3491 H   0  0  0  0  0  0  0  0  0  0  0  0
   -5.0873   -2.9192    0.4239 H   0  0  0  0  0  0  0  0  0  0  0  0
   -7.3996   -1.8479    0.7494 H   0  0  0  0  0  0  0  0  0  0  0  0
   -6.4040   -4.0854    1.0681 H   0  0  0  0  0  0  0  0  0  0  0  0
   -7.5429   -4.8038   -0.0392 H   0  0  0  0  0  0  0  0  0  0  0  0
   -7.7828   -5.5442    2.0927 H   0  0  0  0  0  0  0  0  0  0  0  0
   -9.9568   -4.7988    0.6400 H   0  0  0  0  0  0  0  0  0  0  0  0
  -10.3515   -4.0450    2.2579 H   0  0  0  0  0  0  0  0  0  0  0  0
  -10.0163   -5.7966    2.1267 H   0  0  0  0  0  0  0  0  0  0  0  0
   -7.1251   -3.0682    3.0578 H   0  0  0  0  0  0  0  0  0  0  0  0
   -7.6445   -4.4702    4.0142 H   0  0  0  0  0  0  0  0  0  0  0  0
   -8.8275   -3.2224    3.5815 H   0  0  0  0  0  0  0  0  0  0  0  0
   -9.5247   -3.0175   -1.0264 H   0  0  0  0  0  0  0  0  0  0  0  0
  -10.4846   -0.2704   -2.0383 H   0  0  0  0  0  0  0  0  0  0  0  0
  -12.0587   -0.0337    0.5624 H   0  0  0  0  0  0  0  0  0  0  0  0
  -12.5325    0.4328   -1.0656 H   0  0  0  0  0  0  0  0  0  0  0  0
  -13.8297   -1.3998   -0.3157 H   0  0  0  0  0  0  0  0  0  0  0  0
  -13.2342   -3.3677    0.5662 H   0  0  0  0  0  0  0  0  0  0  0  0
  -11.7344   -2.5401    1.0372 H   0  0  0  0  0  0  0  0  0  0  0  0
  -11.7555   -3.5570   -0.4397 H   0  0  0  0  0  0  0  0  0  0  0  0
  -11.9993   -2.2891   -2.5857 H   0  0  0  0  0  0  0  0  0  0  0  0
  -13.5429   -1.2547   -2.6181 H   0  0  0  0  0  0  0  0  0  0  0  0
  -13.5682   -2.9565   -2.0602 H   0  0  0  0  0  0  0  0  0  0  0  0
   -9.9185    1.4122    0.3681 H   0  0  0  0  0  0  0  0  0  0  0  0
   -8.9166    3.6178   -1.2239 H   0  0  0  0  0  0  0  0  0  0  0  0
  -10.0935    5.2769   -0.0862 H   0  0  0  0  0  0  0  0  0  0  0  0
  -10.1861    3.7354    0.7524 H   0  0  0  0  0  0  0  0  0  0  0  0
  -12.1339    4.9465    1.0699 H   0  0  0  0  0  0  0  0  0  0  0  0
  -12.5677    2.4935    0.8403 H   0  0  0  0  0  0  0  0  0  0  0  0
  -13.9520    3.4983    0.4262 H   0  0  0  0  0  0  0  0  0  0  0  0
  -13.0371    2.8025   -0.9174 H   0  0  0  0  0  0  0  0  0  0  0  0
  -12.1586    6.4622   -0.7813 H   0  0  0  0  0  0  0  0  0  0  0  0
  -12.7941    5.1254   -1.9159 H   0  0  0  0  0  0  0  0  0  0  0  0
  -13.6955    5.6494   -0.4768 H   0  0  0  0  0  0  0  0  0  0  0  0
  -10.0143    5.3361   -2.3518 H   0  0  0  0  0  0  0  0  0  0  0  0
   -8.7861    3.0087   -3.3223 H   0  0  0  0  0  0  0  0  0  0  0  0
   -8.7229    4.6980   -3.9094 H   0  0  0  0  0  0  0  0  0  0  0  0
   -9.9694    3.6153   -4.5428 H   0  0  0  0  0  0  0  0  0  0  0  0
  1  2  1  0
  2  3  1  0
  3  4  2  0
  3  5  1  0
  5  6  1  0
  6  7  1  0
  7  8  2  0
  8  9  1  0
  9 10  2  0
 10 11  1  0
 11 12  2  0
  5 13  1  0
 13 14  1  0
 14 15  2  0
 14 16  1  0
 16 17  1  0
 17 18  1  0
 18 19  2  0
 19 20  1  0
 20 21  2  0
 21 22  1  0
 22 23  2  0
 16 24  1  0
 24 25  1  0
 25 26  2  0
 25 27  1  0
 27 28  1  0
 28 29  1  0
 29 30  1  0
 29 31  1  0
 27 32  1  0
 32 33  1  0
 33 34  2  0
 33 35  1  0
 35 36  1  0
 36 37  1  0
 37 38  1  0
 37 39  1  0
 35 40  1  0
 40 41  1  0
 41 42  2  0
 41 43  1  0
 43 44  1  0
 44 45  1  0
 45 46  1  0
 45 47  1  0
 43 48  1  0
 48 49  1  0
 49 50  2  0
 49 51  1  0
 51 52  1  0
 52 53  1  0
 53 54  1  0
 53 55  1  0
 51 56  1  0
 56 57  1  0
 57 58  2  0
 57 59  1  0
 59 60  1  0
 60 61  1  0
 61 62  1  0
 61 63  1  0
 59 64  1  0
 64 65  1  0
 65 66  2  0
 65 67  1  0
 67 68  1  0
 68 69  1  0
 69 70  1  0
 69 71  1  0
 67 72  1  0
 72 73  1  0
 73 74  2  0
 73 75  1  0
 75 76  1  0
 76 77  1  0
 77 78  1  0
 77 79  1  0
 75 80  1  0
 80 81  1  0
 12  7  1  0
 23 18  1  0
  1 82  1  0
  1 83  1  0
  1 84  1  0
  2 85  1  0
  5 86  1  6
  6 87  1  0
  6 88  1  0
  8 89  1  0
  9 90  1  0
 10 91  1  0
 11 92  1  0
 12 93  1  0
 13 94  1  0
 16 95  1  1
 17 96  1  0
 17 97  1  0
 19 98  1  0
 20 99  1  0
 21100  1  0
 22101  1  0
 23102  1  0
 24103  1  0
 27104  1  6
 28105  1  0
 28106  1  0
 29107  1  0
 30108  1  0
 30109  1  0
 30110  1  0
 31111  1  0
 31112  1  0
 31113  1  0
 32114  1  0
 35115  1  1
 36116  1  0
 36117  1  0
 37118  1  0
 38119  1  0
 38120  1  0
 38121  1  0
 39122  1  0
 39123  1  0
 39124  1  0
 40125  1  0
 43126  1  6
 44127  1  0
 44128  1  0
 45129  1  0
 46130  1  0
 46131  1  0
 46132  1  0
 47133  1  0
 47134  1  0
 47135  1  0
 48136  1  0
 51137  1  6
 52138  1  0
 52139  1  0
 53140  1  0
 54141  1  0
 54142  1  0
 54143  1  0
 55144  1  0
 55145  1  0
 55146  1  0
 56147  1  0
 59148  1  1
 60149  1  0
 60150  1  0
 61151  1  0
 62152  1  0
 62153  1  0
 62154  1  0
 63155  1  0
 63156  1  0
 63157  1  0
 64158  1  0
 67159  1  6
 68160  1  0
 68161  1  0
 69162  1  0
 70163  1  0
 70164  1  0
 70165  1  0
 71166  1  0
 71167  1  0
 71168  1  0
 72169  1  0
 75170  1  1
 76171  1  0
 76172  1  0
 77173  1  0
 78174  1  0
 78175  1  0
 78176  1  0
 79177  1  0
 79178  1  0
 79179  1  0
 80180  1  0
 81181  1  0
 81182  1  0
 81183  1  0
M  END
$$$$
[H]c1c([H])c(C2([H])C([H])([H])C([H])([H])N([C@]3([H])C([H])([H])C([H])([H])[C@@]([H])(c4c([H])c([H])c(N5C([H])([H])C([H])([H])N(C([H])([H])[H])C([H])([H])C5([H])[H])c([H])c4[H])C([H])([H])C3([H])[H])C([H])([H])C2([H])[H])c([H])c([H])c1F
     RDKit          3D

 70 74  0  0  0  0  0  0  0  0999 V2000
    9.2048    0.2732    1.1655 C   0  0  0  0  0  0  0  0  0  0  0  0
    8.6812   -0.8775    0.4575 N   0  0  0  0  0  0  0  0  0  0  0  0
    7.8641   -1.7243    1.2957 C   0  0  0  0  0  0  0  0  0  0  0  0
    6.4241   -1.2824    1.3550 C   0  0  0  0  0  0  0  0  0  0  0  0
    5.8806   -1.1192   -0.0007 N   0  0  0  0  0  0  0  0  0  0  0  0
    6.8146   -1.3729   -1.0692 C   0  0  0  0  0  0  0  0  0  0  0  0
    8.0425   -0.5335   -0.7853 C   0  0  0  0  0  0  0  0  0  0  0  0
    4.5283   -0.7328   -0.1571 C   0  0  0  0  0  0  0  0  0  0  0  0
    3.7745   -0.4260    0.9643 C   0  0  0  0  0  0  0  0  0  0  0  0
    2.4421   -0.0404    0.8558 C   0  0  0  0  0  0  0  0  0  0  0  0
    1.8138    0.0545   -0.3581 C   0  0  0  0  0  0  0  0  0  0  0  0
    2.5594   -0.2507   -1.4845 C   0  0  0  0  0  0  0  0  0  0  0  0
    3.8863   -0.6343   -1.3694 C   0  0  0  0  0  0  0  0  0  0  0  0
    0.4156    0.4630   -0.5345 C   0  0  1  0  0  0  0  0  0  0  0  0
   -0.5982   -0.3325    0.1989 C   0  0  0  0  0  0  0  0  0  0  0  0
   -1.2151    0.4724    1.3048 C   0  0  0  0  0  0  0  0  0  0  0  0
   -1.9813    1.6334    0.7645 C   0  0  1  0  0  0  0  0  0  0  0  0
   -1.1434    2.3592   -0.2627 C   0  0  0  0  0  0  0  0  0  0  0  0
    0.3136    1.9397   -0.1602 C   0  0  0  0  0  0  0  0  0  0  0  0
   -3.2637    1.4154    0.2886 N   0  0  0  0  0  0  0  0  0  0  0  0
   -4.2429    0.9468    1.2160 C   0  0  0  0  0  0  0  0  0  0  0  0
   -4.7459   -0.3871    0.7462 C   0  0  0  0  0  0  0  0  0  0  0  0
   -5.3705   -0.2413   -0.6149 C   0  0  0  0  0  0  0  0  0  0  0  0
   -5.0973    1.1238   -1.2024 C   0  0  0  0  0  0  0  0  0  0  0  0
   -3.5925    1.3835   -1.0616 C   0  0  0  0  0  0  0  0  0  0  0  0
   -6.8318   -0.5220   -0.5504 C   0  0  0  0  0  0  0  0  0  0  0  0
   -7.3654   -1.5851   -1.2399 C   0  0  0  0  0  0  0  0  0  0  0  0
   -8.7401   -1.8388   -1.1726 C   0  0  0  0  0  0  0  0  0  0  0  0
   -9.5864   -1.0577   -0.4357 C   0  0  0  0  0  0  0  0  0  0  0  0
  -10.9105   -1.2883   -0.3599 F   0  0  0  0  0  0  0  0  0  0  0  0
   -9.0421    0.0177    0.2612 C   0  0  0  0  0  0  0  0  0  0  0  0
   -7.6738    0.2710    0.1946 C   0  0  0  0  0  0  0  0  0  0  0  0
    9.2249    0.1173    2.2657 H   0  0  0  0  0  0  0  0  0  0  0  0
    8.6427    1.2011    0.9128 H   0  0  0  0  0  0  0  0  0  0  0  0
   10.2602    0.4633    0.8570 H   0  0  0  0  0  0  0  0  0  0  0  0
    8.2707   -1.6290    2.3400 H   0  0  0  0  0  0  0  0  0  0  0  0
    7.9926   -2.7674    1.0019 H   0  0  0  0  0  0  0  0  0  0  0  0
    6.2627   -0.4003    1.9712 H   0  0  0  0  0  0  0  0  0  0  0  0
    5.8452   -2.1218    1.8089 H   0  0  0  0  0  0  0  0  0  0  0  0
    7.0685   -2.4502   -1.1776 H   0  0  0  0  0  0  0  0  0  0  0  0
    6.3957   -1.0457   -2.0245 H   0  0  0  0  0  0  0  0  0  0  0  0
    7.7358    0.5192   -0.8375 H   0  0  0  0  0  0  0  0  0  0  0  0
    8.7601   -0.7139   -1.6115 H   0  0  0  0  0  0  0  0  0  0  0  0
    4.2064   -0.4781    1.9730 H   0  0  0  0  0  0  0  0  0  0  0  0
    1.8562    0.1983    1.7408 H   0  0  0  0  0  0  0  0  0  0  0  0
    2.1241   -0.1965   -2.4802 H   0  0  0  0  0  0  0  0  0  0  0  0
    4.4238   -0.8634   -2.2799 H   0  0  0  0  0  0  0  0  0  0  0  0
    0.1720    0.3745   -1.6441 H   0  0  0  0  0  0  0  0  0  0  0  0
   -0.2032   -1.3119    0.5608 H   0  0  0  0  0  0  0  0  0  0  0  0
   -1.4072   -0.6365   -0.5295 H   0  0  0  0  0  0  0  0  0  0  0  0
   -0.3963    0.8689    1.9354 H   0  0  0  0  0  0  0  0  0  0  0  0
   -1.8126   -0.1574    2.0045 H   0  0  0  0  0  0  0  0  0  0  0  0
   -2.0545    2.3688    1.6311 H   0  0  0  0  0  0  0  0  0  0  0  0
   -1.5049    2.0145   -1.2696 H   0  0  0  0  0  0  0  0  0  0  0  0
   -1.2241    3.4378   -0.1477 H   0  0  0  0  0  0  0  0  0  0  0  0
    0.6960    2.1504    0.8369 H   0  0  0  0  0  0  0  0  0  0  0  0
    0.8577    2.4928   -0.9277 H   0  0  0  0  0  0  0  0  0  0  0  0
   -5.0359    1.6864    1.4123 H   0  0  0  0  0  0  0  0  0  0  0  0
   -3.7227    0.8016    2.2077 H   0  0  0  0  0  0  0  0  0  0  0  0
   -5.5091   -0.8144    1.4585 H   0  0  0  0  0  0  0  0  0  0  0  0
   -3.8999   -1.1015    0.7765 H   0  0  0  0  0  0  0  0  0  0  0  0
   -4.8851   -0.9839   -1.2830 H   0  0  0  0  0  0  0  0  0  0  0  0
   -5.3225    1.1106   -2.2926 H   0  0  0  0  0  0  0  0  0  0  0  0
   -5.6975    1.9169   -0.7434 H   0  0  0  0  0  0  0  0  0  0  0  0
   -3.4630    2.3828   -1.5800 H   0  0  0  0  0  0  0  0  0  0  0  0
   -3.0964    0.6399   -1.6926 H   0  0  0  0  0  0  0  0  0  0  0  0
   -6.7180   -2.2333   -1.8407 H   0  0  0  0  0  0  0  0  0  0  0  0
   -9.1053   -2.6896   -1.7362 H   0  0  0  0  0  0  0  0  0  0  0  0
   -9.7161    0.6288    0.8395 H   0  0  0  0  0  0  0  0  0  0  0  0
   -7.2657    1.1144    0.7443 H   0  0  0  0  0  0  0  0  0  0  0  0
  1  2  1  0
  2  3  1  0
  3  4  1  0
  4  5  1  0
  5  6  1  0
  6  7  1  0
  5  8  1  0
  8  9  2  0
  9 10  1  0
 10 11  2  0
 11 12  1  0
 12 13  2  0
 11 14  1  0
 14 15  1  0
 15 16  1  0
 16 17  1  0
 17 18  1  0
 18 19  1  0
 17 20  1  0
 20 21  1  0
 21 22  1  0
 22 23  1  0
 23 24  1  0
 24 25  1  0
 23 26  1  0
 26 27  2  0
 27 28  1  0
 28 29  2  0
 29 30  1  0
 29 31  1  0
 31 32  2  0
  7  2  1  0
 13  8  1  0
 19 14  1  0
 25 20  1  0
 32 26  1  0
  1 33  1  0
  1 34  1  0
  1 35  1  0
  3 36  1  0
  3 37  1  0
  4 38  1  0
  4 39  1  0
  6 40  1  0
  6 41  1  0
  7 42  1  0
  7 43  1  0
  9 44  1  0
 10 45  1  0
 12 46  1  0
 13 47  1  0
 14 48  1  6
 15 49  1  0
 15 50  1  0
 16 51  1  0
 16 52  1  0
 17 53  1  1
 18 54  1  0
 18 55  1  0
 19 56  1  0
 19 57  1  0
 21 58  1  0
 21 59  1  0
 22 60  1  0
 22 61  1  0
 23 62  1  0
 24 63  1  0
 24 64  1  0
 25 65  1  0
 25 66  1  0
 27 67  1  0
 28 68  1  0
 31 69  1  0
 32 70  1  0
M  END
$$$$
[H]c1nc(N([H])c2c([H])c([H])c(Cl)c(Cl)c2[H])c2c([H])c(OC([H])([H])[H])c(OC([H])([H])[H])c([H])c2n1
     RDKit          3D

 36 38  0  0  0  0  0  0  0  0999 V2000
   -5.5922   -0.2919   -1.6365 C   0  0  0  0  0  0  0  0  0  0  0  0
   -4.7495    0.2169   -0.6377 O   0  0  0  0  0  0  0  0  0  0  0  0
   -3.3887    0.0677   -0.6067 C   0  0  0  0  0  0  0  0  0  0  0  0
   -2.7450   -0.6241   -1.6042 C   0  0  0  0  0  0  0  0  0  0  0  0
   -1.3575   -0.7663   -1.5562 C   0  0  0  0  0  0  0  0  0  0  0  0
   -0.7183   -1.4488   -2.5425 N   0  0  0  0  0  0  0  0  0  0  0  0
    0.6011   -1.6155   -2.5509 C   0  0  0  0  0  0  0  0  0  0  0  0
    1.3073   -1.0903   -1.5525 N   0  0  0  0  0  0  0  0  0  0  0  0
    0.7643   -0.3988   -0.5322 C   0  0  0  0  0  0  0  0  0  0  0  0
    1.5540    0.1040    0.5056 N   0  0  0  0  0  0  0  0  0  0  0  0
    2.9683    0.0193    0.5913 C   0  0  0  0  0  0  0  0  0  0  0  0
    3.8210   -0.0688   -0.4649 C   0  0  0  0  0  0  0  0  0  0  0  0
    5.1891   -0.1820   -0.2091 C   0  0  0  0  0  0  0  0  0  0  0  0
    5.7076   -0.2072    1.0616 C   0  0  0  0  0  0  0  0  0  0  0  0
    7.4432   -0.3516    1.3471 Cl  0  0  0  0  0  0  0  0  0  0  0  0
    4.8341   -0.1165    2.1181 C   0  0  0  0  0  0  0  0  0  0  0  0
    5.4627   -0.1448    3.7666 Cl  0  0  0  0  0  0  0  0  0  0  0  0
    3.4938   -0.0057    1.8798 C   0  0  0  0  0  0  0  0  0  0  0  0
   -0.6125   -0.2276   -0.5283 C   0  0  0  0  0  0  0  0  0  0  0  0
   -1.2791    0.4604    0.4581 C   0  0  0  0  0  0  0  0  0  0  0  0
   -2.6700    0.6137    0.4276 C   0  0  0  0  0  0  0  0  0  0  0  0
   -3.3014    1.3220    1.4545 O   0  0  0  0  0  0  0  0  0  0  0  0
   -2.5570    1.8800    2.5136 C   0  0  0  0  0  0  0  0  0  0  0  0
   -6.5416    0.2580   -1.7190 H   0  0  0  0  0  0  0  0  0  0  0  0
   -5.8124   -1.3525   -1.3825 H   0  0  0  0  0  0  0  0  0  0  0  0
   -5.1169   -0.2844   -2.6408 H   0  0  0  0  0  0  0  0  0  0  0  0
   -3.2489   -1.0809   -2.4500 H   0  0  0  0  0  0  0  0  0  0  0  0
    1.1404   -2.1524   -3.3196 H   0  0  0  0  0  0  0  0  0  0  0  0
    1.0910    0.5963    1.3033 H   0  0  0  0  0  0  0  0  0  0  0  0
    3.4754   -0.0363   -1.5030 H   0  0  0  0  0  0  0  0  0  0  0  0
    5.8672   -0.2526   -1.0373 H   0  0  0  0  0  0  0  0  0  0  0  0
    2.8431    0.0631    2.7578 H   0  0  0  0  0  0  0  0  0  0  0  0
   -0.7451    0.9001    1.2783 H   0  0  0  0  0  0  0  0  0  0  0  0
   -1.6973    2.4844    2.1549 H   0  0  0  0  0  0  0  0  0  0  0  0
   -3.2513    2.5979    3.0378 H   0  0  0  0  0  0  0  0  0  0  0  0
   -2.1784    1.1151    3.2176 H   0  0  0  0  0  0  0  0  0  0  0  0
  1  2  1  0
  2  3  1  0
  3  4  2  0
  4  5  1  0
  5  6  2  0
  6  7  1  0
  7  8  2  0
  8  9  1  0
  9 10  1  0
 10 11  1  0
 11 12  2  0
 12 13  1  0
 13 14  2  0
 14 15  1  0
 14 16  1  0
 16 17  1  0
 16 18  2  0
  9 19  2  0
 19 20  1  0
 20 21  2  0
 21 22  1  0
 22 23  1  0
 21  3  1  0
 19  5  1  0
 18 11  1  0
  1 24  1  0
  1 25  1  0
  1 26  1  0
  4 27  1  0
  7 28  1  0
 10 29  1  0
 12 30  1  0
 13 31  1  0
 18 32  1  0
 20 33  1  0
 23 34  1  0
 23 35  1  0
 23 36  1  0
M  END
$$$$
[H]c1c([H])c(C(=O)N([H])[C@]2([H])C([H])([H])C([H])([H])[C@@]([H])(C(=O)N3C([H])([H])C([H])([H])N(S(=O)(=O)c4c([H])c([H])c(OC([H])([H])[H])c([H])c4[H])C([H])([H])C3([H])[H])C([H])([H])C2([H])[H])c([H])c(C(F)(F)F)c1[H]
     RDKit          3D

 68 71  0  0  0  0  0  0  0  0999 V2000
   11.2662    1.8839   -0.5504 C   0  0  0  0  0  0  0  0  0  0  0  0
   10.6218    0.6524   -0.6668 O   0  0  0  0  0  0  0  0  0  0  0  0
    9.3625    0.3360   -0.2155 C   0  0  0  0  0  0  0  0  0  0  0  0
    8.8946   -0.9573   -0.4357 C   0  0  0  0  0  0  0  0  0  0  0  0
    7.6597   -1.3479   -0.0202 C   0  0  0  0  0  0  0  0  0  0  0  0
    6.8429   -0.4570    0.6335 C   0  0  0  0  0  0  0  0  0  0  0  0
    7.2594    0.8569    0.8815 C   0  0  0  0  0  0  0  0  0  0  0  0
    8.5179    1.2063    0.4422 C   0  0  0  0  0  0  0  0  0  0  0  0
    5.2352   -0.8859    1.1773 S   0  0  0  0  0  0  0  0  0  0  0  0
    5.1654   -2.3868    1.3499 O   0  0  0  0  0  0  0  0  0  0  0  0
    5.0444   -0.3043    2.5476 O   0  0  0  0  0  0  0  0  0  0  0  0
    4.0220   -0.3316    0.0675 N   0  0  0  0  0  0  0  0  0  0  0  0
    3.3488   -1.4248   -0.5137 C   0  0  0  0  0  0  0  0  0  0  0  0
    1.8751   -1.2732   -0.7584 C   0  0  0  0  0  0  0  0  0  0  0  0
    1.2393   -0.3815    0.1786 N   0  0  0  0  0  0  0  0  0  0  0  0
    2.0617   -0.0705    1.3624 C   0  0  0  0  0  0  0  0  0  0  0  0
    3.2605    0.6546    0.7521 C   0  0  0  0  0  0  0  0  0  0  0  0
   -0.0469    0.1831    0.0876 C   0  0  0  0  0  0  0  0  0  0  0  0
   -0.4022    1.0042    0.9765 O   0  0  0  0  0  0  0  0  0  0  0  0
   -1.0319   -0.1131   -0.9789 C   0  0  1  0  0  0  0  0  0  0  0  0
   -1.7482   -1.4304   -0.7069 C   0  0  0  0  0  0  0  0  0  0  0  0
   -2.6329   -1.2372    0.5155 C   0  0  0  0  0  0  0  0  0  0  0  0
   -3.4894   -0.0631    0.5418 C   0  0  1  0  0  0  0  0  0  0  0  0
   -3.0485    1.1465   -0.1752 C   0  0  0  0  0  0  0  0  0  0  0  0
   -2.0069    0.9787   -1.2050 C   0  0  0  0  0  0  0  0  0  0  0  0
   -4.8548   -0.3774    0.0070 N   0  0  0  0  0  0  0  0  0  0  0  0
   -5.9189    0.3279    0.6221 C   0  0  0  0  0  0  0  0  0  0  0  0
   -5.7261    1.1796    1.5367 O   0  0  0  0  0  0  0  0  0  0  0  0
   -7.2975    0.0776    0.2011 C   0  0  0  0  0  0  0  0  0  0  0  0
   -7.5783   -0.9612   -0.6255 C   0  0  0  0  0  0  0  0  0  0  0  0
   -8.8949   -1.2111   -1.0090 C   0  0  0  0  0  0  0  0  0  0  0  0
   -9.8950   -0.4128   -0.5486 C   0  0  0  0  0  0  0  0  0  0  0  0
   -9.6285    0.6595    0.3009 C   0  0  0  0  0  0  0  0  0  0  0  0
   -8.3191    0.8975    0.6723 C   0  0  0  0  0  0  0  0  0  0  0  0
  -10.7271    1.5141    0.8050 C   0  0  0  0  0  0  0  0  0  0  0  0
  -10.7875    1.5996    2.1700 F   0  0  0  0  0  0  0  0  0  0  0  0
  -11.9257    0.9956    0.2872 F   0  0  0  0  0  0  0  0  0  0  0  0
  -10.6399    2.7927    0.2983 F   0  0  0  0  0  0  0  0  0  0  0  0
   12.1976    1.7126    0.0392 H   0  0  0  0  0  0  0  0  0  0  0  0
   10.6635    2.6549   -0.0359 H   0  0  0  0  0  0  0  0  0  0  0  0
   11.5777    2.2575   -1.5531 H   0  0  0  0  0  0  0  0  0  0  0  0
    9.5299   -1.6891   -0.9515 H   0  0  0  0  0  0  0  0  0  0  0  0
    7.3285   -2.3710   -0.2098 H   0  0  0  0  0  0  0  0  0  0  0  0
    6.5952    1.5261    1.4019 H   0  0  0  0  0  0  0  0  0  0  0  0
    8.8359    2.2205    0.6356 H   0  0  0  0  0  0  0  0  0  0  0  0
    3.8375   -1.6080   -1.5272 H   0  0  0  0  0  0  0  0  0  0  0  0
    3.5857   -2.3713    0.0409 H   0  0  0  0  0  0  0  0  0  0  0  0
    1.4236   -2.2852   -0.6192 H   0  0  0  0  0  0  0  0  0  0  0  0
    1.6989   -0.9617   -1.8130 H   0  0  0  0  0  0  0  0  0  0  0  0
    2.4615   -1.0114    1.8166 H   0  0  0  0  0  0  0  0  0  0  0  0
    1.5204    0.5572    2.0739 H   0  0  0  0  0  0  0  0  0  0  0  0
    3.8300    1.1999    1.5332 H   0  0  0  0  0  0  0  0  0  0  0  0
    2.8909    1.3925    0.0160 H   0  0  0  0  0  0  0  0  0  0  0  0
   -0.4481   -0.2709   -1.9204 H   0  0  0  0  0  0  0  0  0  0  0  0
   -1.0210   -2.1961   -0.4914 H   0  0  0  0  0  0  0  0  0  0  0  0
   -2.3969   -1.7257   -1.5353 H   0  0  0  0  0  0  0  0  0  0  0  0
   -3.2618   -2.1588    0.5887 H   0  0  0  0  0  0  0  0  0  0  0  0
   -1.9788   -1.2667    1.4250 H   0  0  0  0  0  0  0  0  0  0  0  0
   -3.6621    0.1977    1.6582 H   0  0  0  0  0  0  0  0  0  0  0  0
   -2.6558    1.8861    0.6091 H   0  0  0  0  0  0  0  0  0  0  0  0
   -3.9611    1.7030   -0.6115 H   0  0  0  0  0  0  0  0  0  0  0  0
   -2.4552    0.9397   -2.2413 H   0  0  0  0  0  0  0  0  0  0  0  0
   -1.3964    1.9443   -1.2159 H   0  0  0  0  0  0  0  0  0  0  0  0
   -4.9400   -1.0659   -0.7559 H   0  0  0  0  0  0  0  0  0  0  0  0
   -6.7964   -1.6199   -1.0069 H   0  0  0  0  0  0  0  0  0  0  0  0
   -9.0878   -2.0576   -1.6674 H   0  0  0  0  0  0  0  0  0  0  0  0
  -10.9583   -0.5720   -0.8280 H   0  0  0  0  0  0  0  0  0  0  0  0
   -8.0343    1.7193    1.3396 H   0  0  0  0  0  0  0  0  0  0  0  0
  1  2  1  0
  2  3  1  0
  3  4  2  0
  4  5  1  0
  5  6  2  0
  6  7  1  0
  7  8  2  0
  6  9  1  0
  9 10  2  0
  9 11  2  0
  9 12  1  0
 12 13  1  0
 13 14  1  0
 14 15  1  0
 15 16  1  0
 16 17  1  0
 15 18  1  0
 18 19  2  0
 18 20  1  0
 20 21  1  0
 21 22  1  0
 22 23  1  0
 23 24  1  0
 24 25  1  0
 23 26  1  0
 26 27  1  0
 27 28  2  0
 27 29  1  0
 29 30  2  0
 30 31  1  0
 31 32  2  0
 32 33  1  0
 33 34  2  0
 33 35  1  0
 35 36  1  0
 35 37  1  0
 35 38  1  0
  8  3  1  0
 17 12  1  0
 25 20  1  0
 34 29  1  0
  1 39  1  0
  1 40  1  0
  1 41  1  0
  4 42  1  0
  5 43  1  0
  7 44  1  0
  8 45  1  0
 13 46  1  0
 13 47  1  0
 14 48  1  0
 14 49  1  0
 16 50  1  0
 16 51  1  0
 17 52  1  0
 17 53  1  0
 20 54  1  6
 21 55  1  0
 21 56  1  0
 22 57  1  0
 22 58  1  0
 23 59  1  1
 24 60  1  0
 24 61  1  0
 25 62  1  0
 25 63  1  0
 26 64  1  0
 30 65  1  0
 31 66  1  0
 32 67  1  0
 34 68  1  0
M  END
$$$$
[H]c1c([H])c([H])c(C(=O)N([H])[C@]([H])(C(=O)N([H])[C@]([H])(C(=O)N([H])[C@]([H])(C(=O)N2C([H])([H])C([H])([H])C([H])([H])[C@@]2([H])C(=O)N([H])[C@]([H])(C(=O)N([H])[C@]([H])(C([H])(C([H])([H])[H])C([H])([H])[H])[C@@]([H])(C([H])([H])[H])C([H])([H])C([H])([H])[H])C([H])([H])c2c([H])n([H])c3c([H])c([H])c([H])c([H])c23)C([H])([H])c2c([H])c([H])c([H])c([H])c2[H])C([H])([H])c2c([H])c([H])c([H])c([H])c2[H])C([H])([H])c2c([H])c([H])c([H])c([H])c2[H])c([H])c1[H]
     RDKit          3D

138144  0  0  0  0  0  0  0  0999 V2000
   -7.0037    4.3056    0.7727 C   0  0  0  0  0  0  0  0  0  0  0  0
   -5.8942    3.6911   -0.0035 C   0  0  0  0  0  0  0  0  0  0  0  0
   -6.3781    2.9884   -1.2951 C   0  0  2  0  0  0  0  0  0  0  0  0
   -7.0351    4.1188   -2.0808 C   0  0  0  0  0  0  0  0  0  0  0  0
   -7.2858    1.9046   -0.8572 C   0  0  2  0  0  0  0  0  0  0  0  0
   -6.6220    0.9853    0.0158 N   0  0  0  0  0  0  0  0  0  0  0  0
   -5.3691    0.3736   -0.1000 C   0  0  0  0  0  0  0  0  0  0  0  0
   -4.6525    0.6342   -1.1407 O   0  0  0  0  0  0  0  0  0  0  0  0
   -4.7565   -0.5425    0.8454 C   0  0  2  0  0  0  0  0  0  0  0  0
   -5.5453   -0.9440    2.0481 C   0  0  0  0  0  0  0  0  0  0  0  0
   -6.7741   -1.7035    1.6921 C   0  0  0  0  0  0  0  0  0  0  0  0
   -7.1265   -2.2859    0.4774 C   0  0  0  0  0  0  0  0  0  0  0  0
   -8.2991   -2.9099    0.5811 N   0  0  0  0  0  0  0  0  0  0  0  0
   -8.7642   -2.7662    1.8544 C   0  0  0  0  0  0  0  0  0  0  0  0
   -9.9078   -3.2143    2.4691 C   0  0  0  0  0  0  0  0  0  0  0  0
  -10.1443   -2.9337    3.7785 C   0  0  0  0  0  0  0  0  0  0  0  0
   -9.2205   -2.1907    4.4899 C   0  0  0  0  0  0  0  0  0  0  0  0
   -8.0833   -1.7502    3.8623 C   0  0  0  0  0  0  0  0  0  0  0  0
   -7.8159   -2.0188    2.5365 C   0  0  0  0  0  0  0  0  0  0  0  0
   -3.3372   -0.3565    1.0829 N   0  0  0  0  0  0  0  0  0  0  0  0
   -2.4937   -1.4452    1.4085 C   0  0  0  0  0  0  0  0  0  0  0  0
   -3.0197   -2.6083    1.5076 O   0  0  0  0  0  0  0  0  0  0  0  0
   -1.0352   -1.3723    1.6535 C   0  0  2  0  0  0  0  0  0  0  0  0
   -0.8761   -1.1299    3.1776 C   0  0  0  0  0  0  0  0  0  0  0  0
    0.1077    0.0058    3.2054 C   0  0  0  0  0  0  0  0  0  0  0  0
   -0.1705    0.7691    1.9447 C   0  0  0  0  0  0  0  0  0  0  0  0
   -0.3503   -0.3373    0.9703 N   0  0  0  0  0  0  0  0  0  0  0  0
    0.1293   -0.2358   -0.3318 C   0  0  0  0  0  0  0  0  0  0  0  0
    0.6869    1.0168   -0.4691 O   0  0  0  0  0  0  0  0  0  0  0  0
    0.2462   -0.9477   -1.5476 C   0  0  2  0  0  0  0  0  0  0  0  0
    0.2949   -2.3640   -1.7849 C   0  0  0  0  0  0  0  0  0  0  0  0
   -0.7122   -3.3549   -1.4894 C   0  0  0  0  0  0  0  0  0  0  0  0
   -0.5265   -4.3456   -0.5639 C   0  0  0  0  0  0  0  0  0  0  0  0
   -1.4865   -5.2956   -0.3178 C   0  0  0  0  0  0  0  0  0  0  0  0
   -2.7013   -5.2938   -1.0011 C   0  0  0  0  0  0  0  0  0  0  0  0
   -2.8557   -4.2800   -1.9274 C   0  0  0  0  0  0  0  0  0  0  0  0
   -1.9148   -3.3239   -2.1908 C   0  0  0  0  0  0  0  0  0  0  0  0
    1.5081   -0.4263   -2.2090 N   0  0  0  0  0  0  0  0  0  0  0  0
    2.7204   -0.3400   -1.5221 C   0  0  0  0  0  0  0  0  0  0  0  0
    2.7642   -0.7278   -0.2977 O   0  0  0  0  0  0  0  0  0  0  0  0
    3.9751    0.1571   -2.0608 C   0  0  2  0  0  0  0  0  0  0  0  0
    4.4943   -0.6260   -3.2625 C   0  0  0  0  0  0  0  0  0  0  0  0
    4.7352   -2.0354   -2.9987 C   0  0  0  0  0  0  0  0  0  0  0  0
    3.8217   -3.0172   -3.3103 C   0  0  0  0  0  0  0  0  0  0  0  0
    4.0281   -4.3443   -3.0486 C   0  0  0  0  0  0  0  0  0  0  0  0
    5.2173   -4.7372   -2.4362 C   0  0  0  0  0  0  0  0  0  0  0  0
    6.1405   -3.7821   -2.1161 C   0  0  0  0  0  0  0  0  0  0  0  0
    5.9058   -2.4322   -2.3940 C   0  0  0  0  0  0  0  0  0  0  0  0
    5.0707    0.1822   -1.1036 N   0  0  0  0  0  0  0  0  0  0  0  0
    5.9781    1.2512   -0.9856 C   0  0  0  0  0  0  0  0  0  0  0  0
    5.8971    2.2886   -1.7274 O   0  0  0  0  0  0  0  0  0  0  0  0
    7.0772    1.2206    0.0083 C   0  0  2  0  0  0  0  0  0  0  0  0
    6.5213    1.2024    1.4309 C   0  0  0  0  0  0  0  0  0  0  0  0
    7.6153    1.1806    2.4206 C   0  0  0  0  0  0  0  0  0  0  0  0
    8.1594    0.0080    2.8951 C   0  0  0  0  0  0  0  0  0  0  0  0
    9.1782    0.0098    3.8167 C   0  0  0  0  0  0  0  0  0  0  0  0
    9.7047    1.1970    4.3116 C   0  0  0  0  0  0  0  0  0  0  0  0
    9.1578    2.3731    3.8352 C   0  0  0  0  0  0  0  0  0  0  0  0
    8.1249    2.3673    2.9007 C   0  0  0  0  0  0  0  0  0  0  0  0
    7.9627    2.3691   -0.1545 N   0  0  0  0  0  0  0  0  0  0  0  0
    9.3239    2.1475   -0.4746 C   0  0  0  0  0  0  0  0  0  0  0  0
    9.7370    0.9404   -0.6057 O   0  0  0  0  0  0  0  0  0  0  0  0
   10.3022    3.2048   -0.6705 C   0  0  0  0  0  0  0  0  0  0  0  0
   11.6213    2.8973   -1.0119 C   0  0  0  0  0  0  0  0  0  0  0  0
   12.5684    3.8670   -1.2169 C   0  0  0  0  0  0  0  0  0  0  0  0
   12.2616    5.2034   -1.0940 C   0  0  0  0  0  0  0  0  0  0  0  0
   10.9711    5.5289   -0.7590 C   0  0  0  0  0  0  0  0  0  0  0  0
   10.0056    4.5460   -0.5499 C   0  0  0  0  0  0  0  0  0  0  0  0
   -8.1584    1.2386   -1.8408 C   0  0  0  0  0  0  0  0  0  0  0  0
   -9.1801    2.0783   -2.5422 C   0  0  0  0  0  0  0  0  0  0  0  0
   -7.3921    0.4567   -2.8974 C   0  0  0  0  0  0  0  0  0  0  0  0
   -6.5231    5.0687    1.4594 H   0  0  0  0  0  0  0  0  0  0  0  0
   -7.7134    4.8231    0.1330 H   0  0  0  0  0  0  0  0  0  0  0  0
   -7.5056    3.6012    1.4691 H   0  0  0  0  0  0  0  0  0  0  0  0
   -5.2256    3.0540    0.5738 H   0  0  0  0  0  0  0  0  0  0  0  0
   -5.2524    4.5359   -0.3842 H   0  0  0  0  0  0  0  0  0  0  0  0
   -5.4448    2.6849   -1.8047 H   0  0  0  0  0  0  0  0  0  0  0  0
   -6.4634    5.0847   -1.8683 H   0  0  0  0  0  0  0  0  0  0  0  0
   -6.8852    3.9999   -3.1822 H   0  0  0  0  0  0  0  0  0  0  0  0
   -8.0526    4.3416   -1.7737 H   0  0  0  0  0  0  0  0  0  0  0  0
   -8.0194    2.4722   -0.1519 H   0  0  0  0  0  0  0  0  0  0  0  0
   -7.1514    0.7386    0.9065 H   0  0  0  0  0  0  0  0  0  0  0  0
   -4.7279   -1.5676    0.2400 H   0  0  0  0  0  0  0  0  0  0  0  0
   -4.9667   -1.5539    2.7514 H   0  0  0  0  0  0  0  0  0  0  0  0
   -5.8884   -0.0271    2.5876 H   0  0  0  0  0  0  0  0  0  0  0  0
   -6.5232   -2.2324   -0.4113 H   0  0  0  0  0  0  0  0  0  0  0  0
   -8.8294   -3.4415   -0.1553 H   0  0  0  0  0  0  0  0  0  0  0  0
  -10.6068   -3.7876    1.9067 H   0  0  0  0  0  0  0  0  0  0  0  0
  -11.0644   -3.3043    4.2379 H   0  0  0  0  0  0  0  0  0  0  0  0
   -9.4516   -1.9954    5.5189 H   0  0  0  0  0  0  0  0  0  0  0  0
   -7.3433   -1.1668    4.3958 H   0  0  0  0  0  0  0  0  0  0  0  0
   -2.9402    0.5943    1.0085 H   0  0  0  0  0  0  0  0  0  0  0  0
   -0.5680   -2.3742    1.5148 H   0  0  0  0  0  0  0  0  0  0  0  0
   -1.8381   -0.7446    3.5830 H   0  0  0  0  0  0  0  0  0  0  0  0
   -0.5431   -2.0503    3.6817 H   0  0  0  0  0  0  0  0  0  0  0  0
   -0.0378    0.6189    4.1188 H   0  0  0  0  0  0  0  0  0  0  0  0
    1.1331   -0.3856    3.2177 H   0  0  0  0  0  0  0  0  0  0  0  0
   -0.9928    1.4639    1.9661 H   0  0  0  0  0  0  0  0  0  0  0  0
    0.7443    1.3490    1.6956 H   0  0  0  0  0  0  0  0  0  0  0  0
   -0.5903   -0.4779   -2.2668 H   0  0  0  0  0  0  0  0  0  0  0  0
    1.3339   -2.7896   -1.4241 H   0  0  0  0  0  0  0  0  0  0  0  0
    0.4922   -2.5303   -2.9374 H   0  0  0  0  0  0  0  0  0  0  0  0
    0.4228   -4.4067    0.0187 H   0  0  0  0  0  0  0  0  0  0  0  0
   -1.3055   -6.0783    0.4283 H   0  0  0  0  0  0  0  0  0  0  0  0
   -3.4595   -6.0449   -0.8036 H   0  0  0  0  0  0  0  0  0  0  0  0
   -3.8202   -4.2802   -2.4641 H   0  0  0  0  0  0  0  0  0  0  0  0
   -2.1021   -2.5434   -2.9464 H   0  0  0  0  0  0  0  0  0  0  0  0
    1.4082   -0.1486   -3.1927 H   0  0  0  0  0  0  0  0  0  0  0  0
    3.8450    1.1945   -2.4274 H   0  0  0  0  0  0  0  0  0  0  0  0
    3.8282   -0.5388   -4.1409 H   0  0  0  0  0  0  0  0  0  0  0  0
    5.4595   -0.1644   -3.5532 H   0  0  0  0  0  0  0  0  0  0  0  0
    2.9147   -2.7072   -3.7765 H   0  0  0  0  0  0  0  0  0  0  0  0
    3.3328   -5.1349   -3.2833 H   0  0  0  0  0  0  0  0  0  0  0  0
    5.4097   -5.7933   -2.2132 H   0  0  0  0  0  0  0  0  0  0  0  0
    7.0672   -4.1098   -1.6328 H   0  0  0  0  0  0  0  0  0  0  0  0
    6.6519   -1.7163   -2.1234 H   0  0  0  0  0  0  0  0  0  0  0  0
    5.1724   -0.6408   -0.4835 H   0  0  0  0  0  0  0  0  0  0  0  0
    7.7026    0.3093   -0.0951 H   0  0  0  0  0  0  0  0  0  0  0  0
    5.8785    2.1081    1.5176 H   0  0  0  0  0  0  0  0  0  0  0  0
    5.8771    0.3238    1.5983 H   0  0  0  0  0  0  0  0  0  0  0  0
    7.8040   -0.9637    2.5584 H   0  0  0  0  0  0  0  0  0  0  0  0
    9.6218   -0.8971    4.2050 H   0  0  0  0  0  0  0  0  0  0  0  0
   10.5016    1.2148    5.0339 H   0  0  0  0  0  0  0  0  0  0  0  0
    9.5472    3.3272    4.2039 H   0  0  0  0  0  0  0  0  0  0  0  0
    7.7290    3.3100    2.5584 H   0  0  0  0  0  0  0  0  0  0  0  0
    7.6343    3.3467   -0.0441 H   0  0  0  0  0  0  0  0  0  0  0  0
   11.8751    1.8504   -1.1097 H   0  0  0  0  0  0  0  0  0  0  0  0
   13.5914    3.6263   -1.4809 H   0  0  0  0  0  0  0  0  0  0  0  0
   13.0258    5.9660   -1.2649 H   0  0  0  0  0  0  0  0  0  0  0  0
   10.6790    6.5524   -0.6488 H   0  0  0  0  0  0  0  0  0  0  0  0
    8.9905    4.8153   -0.2842 H   0  0  0  0  0  0  0  0  0  0  0  0
   -8.7363    0.4444   -1.2782 H   0  0  0  0  0  0  0  0  0  0  0  0
  -10.0027    1.4275   -2.9800 H   0  0  0  0  0  0  0  0  0  0  0  0
   -8.7873    2.6204   -3.4187 H   0  0  0  0  0  0  0  0  0  0  0  0
   -9.7416    2.7519   -1.8622 H   0  0  0  0  0  0  0  0  0  0  0  0
   -7.0012   -0.4908   -2.4726 H   0  0  0  0  0  0  0  0  0  0  0  0
   -8.1457    0.1634   -3.6653 H   0  0  0  0  0  0  0  0  0  0  0  0
   -6.5489    1.0143   -3.3074 H   0  0  0  0  0  0  0  0  0  0  0  0
  1  2  1  0
  2  3  1  0
  3  4  1  0
  3  5  1  0
  5  6  1  0
  6  7  1  0
  7  8  2  0
  7  9  1  0
  9 10  1  0
 10 11  1  0
 11 12  2  0
 12 13  1  0
 13 14  1  0
 14 15  2  0
 15 16  1  0
 16 17  2  0
 17 18  1  0
 18 19  2  0
  9 20  1  0
 20 21  1  0
 21 22  2  0
 21 23  1  0
 23 24  1  0
 24 25  1  0
 25 26  1  0
 26 27  1  0
 27 28  1  0
 28 29  2  0
 28 30  1  0
 30 31  1  0
 31 32  1  0
 32 33  2  0
 33 34  1  0
 34 35  2  0
 35 36  1  0
 36 37  2  0
 30 38  1  0
 38 39  1  0
 39 40  2  0
 39 41  1  0
 41 42  1  0
 42 43  1  0
 43 44  2  0
 44 45  1  0
 45 46  2  0
 46 47  1  0
 47 48  2  0
 41 49  1  0
 49 50  1  0
 50 51  2  0
 50 52  1  0
 52 53  1  0
 53 54  1  0
 54 55  2  0
 55 56  1  0
 56 57  2  0
 57 58  1  0
 58 59  2  0
 52 60  1  0
 60 61  1  0
 61 62  2  0
 61 63  1  0
 63 64  2  0
 64 65  1  0
 65 66  2  0
 66 67  1  0
 67 68  2  0
  5 69  1  0
 69 70  1  0
 69 71  1  0
 19 11  1  0
 27 23  1  0
 37 32  1  0
 48 43  1  0
 59 54  1  0
 68 63  1  0
 19 14  1  0
  1 72  1  0
  1 73  1  0
  1 74  1  0
  2 75  1  0
  2 76  1  0
  3 77  1  6
  4 78  1  0
  4 79  1  0
  4 80  1  0
  5 81  1  1
  6 82  1  0
  9 83  1  6
 10 84  1  0
 10 85  1  0
 12 86  1  0
 13 87  1  0
 15 88  1  0
 16 89  1  0
 17 90  1  0
 18 91  1  0
 20 92  1  0
 23 93  1  1
 24 94  1  0
 24 95  1  0
 25 96  1  0
 25 97  1  0
 26 98  1  0
 26 99  1  0
 30100  1  6
 31101  1  0
 31102  1  0
 33103  1  0
 34104  1  0
 35105  1  0
 36106  1  0
 37107  1  0
 38108  1  0
 41109  1  6
 42110  1  0
 42111  1  0
 44112  1  0
 45113  1  0
 46114  1  0
 47115  1  0
 48116  1  0
 49117  1  0
 52118  1  6
 53119  1  0
 53120  1  0
 55121  1  0
 56122  1  0
 57123  1  0
 58124  1  0
 59125  1  0
 60126  1  0
 64127  1  0
 65128  1  0
 66129  1  0
 67130  1  0
 68131  1  0
 69132  1  0
 70133  1  0
 70134  1  0
 70135  1  0
 71136  1  0
 71137  1  0
 71138  1  0
M  END
$$$$
[H]c1c([H])c(Cl)c([H])c(C(=O)N([H])c2c([H])c([H])c(Cl)c(-c3nc4c([H])c([H])c(N5C([H])([H])C([H])([H])N(C([H])([H])[H])C([H])([H])C5([H])[H])c([H])c4n3[H])c2[H])c1[H]
     RDKit          3D

 56 60  0  0  0  0  0  0  0  0999 V2000
   -7.3664    0.9728    2.5336 C   0  0  0  0  0  0  0  0  0  0  0  0
   -6.4994    0.3232    1.5970 N   0  0  0  0  0  0  0  0  0  0  0  0
   -5.2973   -0.0748    2.2513 C   0  0  0  0  0  0  0  0  0  0  0  0
   -4.7833   -1.3659    1.6193 C   0  0  0  0  0  0  0  0  0  0  0  0
   -4.9882   -1.2293    0.2034 N   0  0  0  0  0  0  0  0  0  0  0  0
   -6.3651   -1.2896   -0.2405 C   0  0  0  0  0  0  0  0  0  0  0  0
   -7.2134   -0.7189    0.9094 C   0  0  0  0  0  0  0  0  0  0  0  0
   -3.8982   -1.0406   -0.6679 C   0  0  0  0  0  0  0  0  0  0  0  0
   -4.1191   -1.0568   -2.0547 C   0  0  0  0  0  0  0  0  0  0  0  0
   -3.0834   -0.8698   -2.9368 C   0  0  0  0  0  0  0  0  0  0  0  0
   -1.7891   -0.6589   -2.5352 C   0  0  0  0  0  0  0  0  0  0  0  0
   -0.6132   -0.4521   -3.1729 N   0  0  0  0  0  0  0  0  0  0  0  0
    0.3456   -0.3052   -2.2499 C   0  0  0  0  0  0  0  0  0  0  0  0
   -0.2345   -0.4207   -1.0381 N   0  0  0  0  0  0  0  0  0  0  0  0
   -1.5531   -0.6397   -1.1790 C   0  0  0  0  0  0  0  0  0  0  0  0
   -2.5983   -0.8286   -0.2720 C   0  0  0  0  0  0  0  0  0  0  0  0
    1.7685   -0.0627   -2.4863 C   0  0  0  0  0  0  0  0  0  0  0  0
    2.6618    0.0724   -1.4613 C   0  0  0  0  0  0  0  0  0  0  0  0
    4.0409    0.3070   -1.7014 C   0  0  0  0  0  0  0  0  0  0  0  0
    4.8873    0.4077   -0.5765 N   0  0  0  0  0  0  0  0  0  0  0  0
    6.1496    0.9893   -0.5380 C   0  0  0  0  0  0  0  0  0  0  0  0
    6.6575    1.5079   -1.5608 O   0  0  0  0  0  0  0  0  0  0  0  0
    6.9594    1.0303    0.6992 C   0  0  0  0  0  0  0  0  0  0  0  0
    6.6172    0.4042    1.8495 C   0  0  0  0  0  0  0  0  0  0  0  0
    7.4036    0.4776    2.9720 C   0  0  0  0  0  0  0  0  0  0  0  0
    8.5660    1.1977    2.9440 C   0  0  0  0  0  0  0  0  0  0  0  0
    8.9388    1.8417    1.7957 C   0  0  0  0  0  0  0  0  0  0  0  0
   10.4178    2.7846    1.6850 Cl  0  0  0  0  0  0  0  0  0  0  0  0
    8.1344    1.7517    0.6887 C   0  0  0  0  0  0  0  0  0  0  0  0
    4.4807    0.3985   -2.9869 C   0  0  0  0  0  0  0  0  0  0  0  0
    3.5749    0.2622   -4.0513 C   0  0  0  0  0  0  0  0  0  0  0  0
    2.2476    0.0360   -3.7727 C   0  0  0  0  0  0  0  0  0  0  0  0
    1.0883   -0.1391   -5.0845 Cl  0  0  0  0  0  0  0  0  0  0  0  0
   -6.8915    1.0904    3.5293 H   0  0  0  0  0  0  0  0  0  0  0  0
   -8.3439    0.4524    2.5916 H   0  0  0  0  0  0  0  0  0  0  0  0
   -7.5253    2.0217    2.1474 H   0  0  0  0  0  0  0  0  0  0  0  0
   -4.5596    0.7391    2.1897 H   0  0  0  0  0  0  0  0  0  0  0  0
   -5.4319   -0.2941    3.3306 H   0  0  0  0  0  0  0  0  0  0  0  0
   -5.4705   -2.1544    2.0175 H   0  0  0  0  0  0  0  0  0  0  0  0
   -3.7756   -1.6324    1.9263 H   0  0  0  0  0  0  0  0  0  0  0  0
   -6.6757   -2.3340   -0.3732 H   0  0  0  0  0  0  0  0  0  0  0  0
   -6.5708   -0.6977   -1.1420 H   0  0  0  0  0  0  0  0  0  0  0  0
   -7.5533   -1.5321    1.5502 H   0  0  0  0  0  0  0  0  0  0  0  0
   -8.1069   -0.2498    0.4484 H   0  0  0  0  0  0  0  0  0  0  0  0
   -5.1079   -1.2172   -2.4514 H   0  0  0  0  0  0  0  0  0  0  0  0
   -3.2425   -0.8801   -4.0264 H   0  0  0  0  0  0  0  0  0  0  0  0
    0.2644   -0.3504   -0.1446 H   0  0  0  0  0  0  0  0  0  0  0  0
   -2.3766   -0.8042    0.7831 H   0  0  0  0  0  0  0  0  0  0  0  0
    2.3300    0.0022   -0.4435 H   0  0  0  0  0  0  0  0  0  0  0  0
    4.5506    0.0035    0.3646 H   0  0  0  0  0  0  0  0  0  0  0  0
    5.7186   -0.1786    1.9363 H   0  0  0  0  0  0  0  0  0  0  0  0
    7.1045   -0.0363    3.8865 H   0  0  0  0  0  0  0  0  0  0  0  0
    9.2208    1.2793    3.8222 H   0  0  0  0  0  0  0  0  0  0  0  0
    8.4405    2.2627   -0.2045 H   0  0  0  0  0  0  0  0  0  0  0  0
    5.5141    0.5588   -3.2334 H   0  0  0  0  0  0  0  0  0  0  0  0
    3.9504    0.3395   -5.0519 H   0  0  0  0  0  0  0  0  0  0  0  0
  1  2  1  0
  2  3  1  0
  3  4  1  0
  4  5  1  0
  5  6  1  0
  6  7  1  0
  5  8  1  0
  8  9  2  0
  9 10  1  0
 10 11  2  0
 11 12  1  0
 12 13  2  0
 13 14  1  0
 14 15  1  0
 15 16  2  0
 13 17  1  0
 17 18  2  0
 18 19  1  0
 19 20  1  0
 20 21  1  0
 21 22  2  0
 21 23  1  0
 23 24  2  0
 24 25  1  0
 25 26  2  0
 26 27  1  0
 27 28  1  0
 27 29  2  0
 19 30  2  0
 30 31  1  0
 31 32  2  0
 32 33  1  0
  7  2  1  0
 16  8  1  0
 32 17  1  0
 15 11  1  0
 29 23  1  0
  1 34  1  0
  1 35  1  0
  1 36  1  0
  3 37  1  0
  3 38  1  0
  4 39  1  0
  4 40  1  0
  6 41  1  0
  6 42  1  0
  7 43  1  0
  7 44  1  0
  9 45  1  0
 10 46  1  0
 14 47  1  0
 16 48  1  0
 18 49  1  0
 20 50  1  0
 24 51  1  0
 25 52  1  0
 26 53  1  0
 29 54  1  0
 30 55  1  0
 31 56  1  0
M  END
$$$$
[H]c1c([H])c(N([H])C(=O)c2c([H])c([H])c(OC([H])(C([H])([H])[H])C([H])([H])[H])c(C(=O)N([H])c3c([H])c([H])c(C(F)(F)F)c([H])c3[H])c2[H])c([H])c(C(F)(F)F)c1[H]
     RDKit          3D

 56 58  0  0  0  0  0  0  0  0999 V2000
   -3.4409   -4.2200    1.5983 C   0  0  0  0  0  0  0  0  0  0  0  0
   -2.0371   -3.9894    1.1200 C   0  0  0  0  0  0  0  0  0  0  0  0
   -1.8068   -4.9698   -0.0642 C   0  0  0  0  0  0  0  0  0  0  0  0
   -1.7974   -2.6962    0.7165 O   0  0  0  0  0  0  0  0  0  0  0  0
   -0.5538   -2.1084    0.6282 C   0  0  0  0  0  0  0  0  0  0  0  0
    0.5819   -2.8852    0.8991 C   0  0  0  0  0  0  0  0  0  0  0  0
    1.8311   -2.3302    0.8104 C   0  0  0  0  0  0  0  0  0  0  0  0
    2.0331   -1.0028    0.4567 C   0  0  0  0  0  0  0  0  0  0  0  0
    0.9153   -0.2578    0.1984 C   0  0  0  0  0  0  0  0  0  0  0  0
   -0.3971   -0.7777    0.2755 C   0  0  0  0  0  0  0  0  0  0  0  0
   -1.5156    0.0946    0.0075 C   0  0  0  0  0  0  0  0  0  0  0  0
   -1.1765    1.3081   -0.3191 O   0  0  0  0  0  0  0  0  0  0  0  0
   -2.8746   -0.1553    0.0426 N   0  0  0  0  0  0  0  0  0  0  0  0
   -3.9469    0.7297   -0.2373 C   0  0  0  0  0  0  0  0  0  0  0  0
   -3.8733    1.9047   -0.9498 C   0  0  0  0  0  0  0  0  0  0  0  0
   -5.0025    2.7020   -1.1032 C   0  0  0  0  0  0  0  0  0  0  0  0
   -6.2257    2.3599   -0.5640 C   0  0  0  0  0  0  0  0  0  0  0  0
   -6.3184    1.1940    0.1499 C   0  0  0  0  0  0  0  0  0  0  0  0
   -5.2018    0.4193    0.2949 C   0  0  0  0  0  0  0  0  0  0  0  0
   -7.4180    3.2296   -0.7675 C   0  0  0  0  0  0  0  0  0  0  0  0
   -7.7310    3.2128   -2.1371 F   0  0  0  0  0  0  0  0  0  0  0  0
   -7.2168    4.5375   -0.4277 F   0  0  0  0  0  0  0  0  0  0  0  0
   -8.4624    2.6739   -0.0607 F   0  0  0  0  0  0  0  0  0  0  0  0
    3.3917   -0.5203    0.3736 C   0  0  0  0  0  0  0  0  0  0  0  0
    4.3500   -1.2874    0.7517 O   0  0  0  0  0  0  0  0  0  0  0  0
    3.7526    0.7660   -0.1070 N   0  0  0  0  0  0  0  0  0  0  0  0
    5.0810    1.2369   -0.2003 C   0  0  0  0  0  0  0  0  0  0  0  0
    6.1121    0.3980   -0.5083 C   0  0  0  0  0  0  0  0  0  0  0  0
    7.4353    0.8295   -0.5717 C   0  0  0  0  0  0  0  0  0  0  0  0
    7.7579    2.1357   -0.3221 C   0  0  0  0  0  0  0  0  0  0  0  0
    6.7232    3.0043   -0.0073 C   0  0  0  0  0  0  0  0  0  0  0  0
    5.4058    2.5544    0.0498 C   0  0  0  0  0  0  0  0  0  0  0  0
    7.0449    4.4243    0.2724 C   0  0  0  0  0  0  0  0  0  0  0  0
    7.0961    4.6113    1.6601 F   0  0  0  0  0  0  0  0  0  0  0  0
    8.2752    4.7000   -0.2894 F   0  0  0  0  0  0  0  0  0  0  0  0
    6.0317    5.2244   -0.1731 F   0  0  0  0  0  0  0  0  0  0  0  0
   -3.9642   -3.2921    1.9348 H   0  0  0  0  0  0  0  0  0  0  0  0
   -4.0714   -4.6815    0.7841 H   0  0  0  0  0  0  0  0  0  0  0  0
   -3.4073   -4.9308    2.4432 H   0  0  0  0  0  0  0  0  0  0  0  0
   -1.3134   -4.2793    1.9167 H   0  0  0  0  0  0  0  0  0  0  0  0
   -1.8525   -4.3604   -0.9823 H   0  0  0  0  0  0  0  0  0  0  0  0
   -2.5836   -5.7519    0.0039 H   0  0  0  0  0  0  0  0  0  0  0  0
   -0.8188   -5.4721    0.0183 H   0  0  0  0  0  0  0  0  0  0  0  0
    0.4687   -3.9324    1.1862 H   0  0  0  0  0  0  0  0  0  0  0  0
    2.6963   -2.9495    1.0237 H   0  0  0  0  0  0  0  0  0  0  0  0
    1.0295    0.7823   -0.0789 H   0  0  0  0  0  0  0  0  0  0  0  0
   -3.1740   -1.1323    0.3074 H   0  0  0  0  0  0  0  0  0  0  0  0
   -2.9507    2.2179   -1.4157 H   0  0  0  0  0  0  0  0  0  0  0  0
   -4.9698    3.6384   -1.6596 H   0  0  0  0  0  0  0  0  0  0  0  0
   -7.2878    0.9375    0.5776 H   0  0  0  0  0  0  0  0  0  0  0  0
   -5.3089   -0.5076    0.8634 H   0  0  0  0  0  0  0  0  0  0  0  0
    3.0085    1.4483   -0.4399 H   0  0  0  0  0  0  0  0  0  0  0  0
    5.9870   -0.6585   -0.7498 H   0  0  0  0  0  0  0  0  0  0  0  0
    8.2535    0.1343   -0.8214 H   0  0  0  0  0  0  0  0  0  0  0  0
    8.7993    2.4745   -0.3769 H   0  0  0  0  0  0  0  0  0  0  0  0
    4.6375    3.2647    0.2964 H   0  0  0  0  0  0  0  0  0  0  0  0
  1  2  1  0
  2  3  1  0
  2  4  1  0
  4  5  1  0
  5  6  2  0
  6  7  1  0
  7  8  2  0
  8  9  1  0
  9 10  2  0
 10 11  1  0
 11 12  2  0
 11 13  1  0
 13 14  1  0
 14 15  2  0
 15 16  1  0
 16 17  2  0
 17 18  1  0
 18 19  2  0
 17 20  1  0
 20 21  1  0
 20 22  1  0
 20 23  1  0
  8 24  1  0
 24 25  2  0
 24 26  1  0
 26 27  1  0
 27 28  2  0
 28 29  1  0
 29 30  2  0
 30 31  1  0
 31 32  2  0
 31 33  1  0
 33 34  1  0
 33 35  1  0
 33 36  1  0
 10  5  1  0
 19 14  1  0
 32 27  1  0
  1 37  1  0
  1 38  1  0
  1 39  1  0
  2 40  1  0
  3 41  1  0
  3 42  1  0
  3 43  1  0
  6 44  1  0
  7 45  1  0
  9 46  1  0
 13 47  1  0
 15 48  1  0
 16 49  1  0
 18 50  1  0
 19 51  1  0
 26 52  1  0
 28 53  1  0
 29 54  1  0
 30 55  1  0
 32 56  1  0
M  END
$$$$
[H]c1c([H])c([H])c(C([H])([H])[C@@]([H])(C(=O)N([H])[C@]([H])(C(=O)N([H])[C@]([H])(C(=O)N([H])[C@]([H])(C(=O)N2C([H])([H])C([H])([H])OC([H])([H])C2([H])[H])C([H])([H])C([H])(C([H])([H])[H])C([H])([H])[H])C([H])([H])C([H])(C([H])([H])[H])C([H])([H])[H])C([H])([H])c2c([H])c([H])c([H])c([H])c2[H])N([H])C(=O)[C@@]([H])(N([H])[H])C([H])([H])C([H])([H])C([H])([H])N=C(N([H])[H])N([H])[H])c([H])c1[H]
     RDKit          3D

116118  0  0  0  0  0  0  0  0999 V2000
   -3.4228    1.7123   -2.8328 C   0  0  0  0  0  0  0  0  0  0  0  0
   -1.9859    1.7946   -2.4815 C   0  0  0  0  0  0  0  0  0  0  0  0
   -1.4674    3.1185   -3.0649 C   0  0  0  0  0  0  0  0  0  0  0  0
   -1.5851    1.7605   -1.0775 C   0  0  0  0  0  0  0  0  0  0  0  0
   -1.8981    0.5936   -0.2325 C   0  0  2  0  0  0  0  0  0  0  0  0
   -1.3068   -0.6279   -0.7342 N   0  0  0  0  0  0  0  0  0  0  0  0
   -0.1913   -1.2942   -0.2582 C   0  0  0  0  0  0  0  0  0  0  0  0
    0.4584   -0.9028    0.7178 O   0  0  0  0  0  0  0  0  0  0  0  0
    0.2665   -2.5465   -0.9593 C   0  0  2  0  0  0  0  0  0  0  0  0
   -0.7464   -3.6314   -0.8812 C   0  0  0  0  0  0  0  0  0  0  0  0
   -0.3462   -4.8759   -1.5698 C   0  0  0  0  0  0  0  0  0  0  0  0
   -0.6238   -5.0491   -2.9280 C   0  0  0  0  0  0  0  0  0  0  0  0
   -0.3001   -6.1941   -3.6205 C   0  0  0  0  0  0  0  0  0  0  0  0
    0.3308   -7.2262   -2.9447 C   0  0  0  0  0  0  0  0  0  0  0  0
    0.6174   -7.0781   -1.5973 C   0  0  0  0  0  0  0  0  0  0  0  0
    0.2776   -5.9125   -0.9308 C   0  0  0  0  0  0  0  0  0  0  0  0
    1.5574   -2.9810   -0.3764 N   0  0  0  0  0  0  0  0  0  0  0  0
    2.7457   -2.3837   -0.8015 C   0  0  0  0  0  0  0  0  0  0  0  0
    2.5472   -1.4286   -1.7212 O   0  0  0  0  0  0  0  0  0  0  0  0
    4.1463   -2.5225   -0.5110 C   0  0  2  0  0  0  0  0  0  0  0  0
    4.6853   -3.3393    0.5704 C   0  0  0  0  0  0  0  0  0  0  0  0
    4.3635   -3.0685    1.9493 C   0  0  0  0  0  0  0  0  0  0  0  0
    5.1143   -2.0884    2.6249 C   0  0  0  0  0  0  0  0  0  0  0  0
    4.8876   -1.8082    3.9493 C   0  0  0  0  0  0  0  0  0  0  0  0
    3.9038   -2.4967    4.6456 C   0  0  0  0  0  0  0  0  0  0  0  0
    3.1402   -3.4659    4.0311 C   0  0  0  0  0  0  0  0  0  0  0  0
    3.4161   -3.7075    2.6837 C   0  0  0  0  0  0  0  0  0  0  0  0
    4.7950   -1.1875   -0.5118 N   0  0  0  0  0  0  0  0  0  0  0  0
    5.5251   -0.6997   -1.6078 C   0  0  0  0  0  0  0  0  0  0  0  0
    5.6590   -1.4131   -2.6590 O   0  0  0  0  0  0  0  0  0  0  0  0
    6.1645    0.6511   -1.5971 C   0  0  1  0  0  0  0  0  0  0  0  0
    5.9879    1.1685   -0.2514 N   0  0  0  0  0  0  0  0  0  0  0  0
    7.5826    0.5872   -2.0183 C   0  0  0  0  0  0  0  0  0  0  0  0
    8.3433    1.8594   -2.0767 C   0  0  0  0  0  0  0  0  0  0  0  0
    8.4873    2.6289   -0.8083 C   0  0  0  0  0  0  0  0  0  0  0  0
    9.2783    3.8276   -1.1360 N   0  0  0  0  0  0  0  0  0  0  0  0
    9.1116    4.8502   -0.3716 C   0  0  0  0  0  0  0  0  0  0  0  0
    8.2089    4.7807    0.7098 N   0  0  0  0  0  0  0  0  0  0  0  0
    9.8302    6.0306   -0.6334 N   0  0  0  0  0  0  0  0  0  0  0  0
   -3.3454    0.4263    0.1167 C   0  0  0  0  0  0  0  0  0  0  0  0
   -3.8731   -0.7242   -0.0009 O   0  0  0  0  0  0  0  0  0  0  0  0
   -4.0726    1.5058    0.5511 N   0  0  0  0  0  0  0  0  0  0  0  0
   -5.4193    1.7373    0.9355 C   0  0  1  0  0  0  0  0  0  0  0  0
   -6.4286    0.6749    0.6667 C   0  0  0  0  0  0  0  0  0  0  0  0
   -6.7426    0.3643   -0.7493 C   0  0  0  0  0  0  0  0  0  0  0  0
   -7.3001    1.5863   -1.4872 C   0  0  0  0  0  0  0  0  0  0  0  0
   -7.9192   -0.6335   -0.7602 C   0  0  0  0  0  0  0  0  0  0  0  0
   -5.4897    2.2333    2.3046 C   0  0  0  0  0  0  0  0  0  0  0  0
   -4.3806    2.1256    2.9734 O   0  0  0  0  0  0  0  0  0  0  0  0
   -6.5442    2.8043    3.0068 N   0  0  0  0  0  0  0  0  0  0  0  0
   -6.3146    3.1840    4.4196 C   0  0  0  0  0  0  0  0  0  0  0  0
   -7.3692    2.4558    5.2215 C   0  0  0  0  0  0  0  0  0  0  0  0
   -8.6239    2.8564    4.7460 O   0  0  0  0  0  0  0  0  0  0  0  0
   -8.8566    2.4015    3.4444 C   0  0  0  0  0  0  0  0  0  0  0  0
   -7.8694    3.1338    2.5588 C   0  0  0  0  0  0  0  0  0  0  0  0
   -3.9409    2.7159   -2.7403 H   0  0  0  0  0  0  0  0  0  0  0  0
   -3.4501    1.5623   -3.9589 H   0  0  0  0  0  0  0  0  0  0  0  0
   -4.0022    0.8928   -2.4187 H   0  0  0  0  0  0  0  0  0  0  0  0
   -1.4552    1.0178   -3.0777 H   0  0  0  0  0  0  0  0  0  0  0  0
   -0.3660    3.2034   -2.9520 H   0  0  0  0  0  0  0  0  0  0  0  0
   -1.8005    3.1405   -4.1166 H   0  0  0  0  0  0  0  0  0  0  0  0
   -2.0127    3.9257   -2.5325 H   0  0  0  0  0  0  0  0  0  0  0  0
   -0.4539    1.8801   -1.0505 H   0  0  0  0  0  0  0  0  0  0  0  0
   -1.9200    2.6936   -0.5331 H   0  0  0  0  0  0  0  0  0  0  0  0
   -1.3739    0.7818    0.7477 H   0  0  0  0  0  0  0  0  0  0  0  0
   -1.8241   -1.0221   -1.5671 H   0  0  0  0  0  0  0  0  0  0  0  0
    0.4235   -2.2785   -2.0492 H   0  0  0  0  0  0  0  0  0  0  0  0
   -1.7122   -3.2985   -1.3404 H   0  0  0  0  0  0  0  0  0  0  0  0
   -0.9510   -3.9320    0.1981 H   0  0  0  0  0  0  0  0  0  0  0  0
   -1.1134   -4.2612   -3.4851 H   0  0  0  0  0  0  0  0  0  0  0  0
   -0.5110   -6.3361   -4.6707 H   0  0  0  0  0  0  0  0  0  0  0  0
    0.6032   -8.1471   -3.4527 H   0  0  0  0  0  0  0  0  0  0  0  0
    1.1034   -7.8932   -1.1176 H   0  0  0  0  0  0  0  0  0  0  0  0
    0.5238   -5.8635    0.1165 H   0  0  0  0  0  0  0  0  0  0  0  0
    1.5492   -3.7242    0.3255 H   0  0  0  0  0  0  0  0  0  0  0  0
    4.5920   -2.9715   -1.4874 H   0  0  0  0  0  0  0  0  0  0  0  0
    4.5116   -4.4416    0.4019 H   0  0  0  0  0  0  0  0  0  0  0  0
    5.8291   -3.2880    0.4939 H   0  0  0  0  0  0  0  0  0  0  0  0
    5.8795   -1.5693    2.0795 H   0  0  0  0  0  0  0  0  0  0  0  0
    5.4808   -1.0419    4.4586 H   0  0  0  0  0  0  0  0  0  0  0  0
    3.7122   -2.2923    5.6739 H   0  0  0  0  0  0  0  0  0  0  0  0
    2.3663   -4.0293    4.5301 H   0  0  0  0  0  0  0  0  0  0  0  0
    2.8354   -4.4732    2.1709 H   0  0  0  0  0  0  0  0  0  0  0  0
    4.7086   -0.5675    0.3187 H   0  0  0  0  0  0  0  0  0  0  0  0
    5.6232    1.3469   -2.2869 H   0  0  0  0  0  0  0  0  0  0  0  0
    4.9877    1.4112   -0.0918 H   0  0  0  0  0  0  0  0  0  0  0  0
    6.4044    0.5746    0.4748 H   0  0  0  0  0  0  0  0  0  0  0  0
    7.5880    0.1715   -3.0742 H   0  0  0  0  0  0  0  0  0  0  0  0
    8.1660   -0.1885   -1.4412 H   0  0  0  0  0  0  0  0  0  0  0  0
    7.9452    2.5050   -2.9028 H   0  0  0  0  0  0  0  0  0  0  0  0
    9.3828    1.5870   -2.4384 H   0  0  0  0  0  0  0  0  0  0  0  0
    8.9403    2.0339   -0.0019 H   0  0  0  0  0  0  0  0  0  0  0  0
    7.5059    3.0621   -0.4679 H   0  0  0  0  0  0  0  0  0  0  0  0
    7.2879    5.2832    0.7311 H   0  0  0  0  0  0  0  0  0  0  0  0
    8.4834    4.1878    1.5378 H   0  0  0  0  0  0  0  0  0  0  0  0
   10.7118    6.0543   -1.2116 H   0  0  0  0  0  0  0  0  0  0  0  0
    9.4755    6.9262   -0.2359 H   0  0  0  0  0  0  0  0  0  0  0  0
   -3.4907    2.4404    0.6369 H   0  0  0  0  0  0  0  0  0  0  0  0
   -5.7624    2.5426    0.1568 H   0  0  0  0  0  0  0  0  0  0  0  0
   -7.3760    0.9168    1.1711 H   0  0  0  0  0  0  0  0  0  0  0  0
   -6.1253   -0.3101    1.1360 H   0  0  0  0  0  0  0  0  0  0  0  0
   -5.9658   -0.0667   -1.3218 H   0  0  0  0  0  0  0  0  0  0  0  0
   -8.1562    1.9663   -0.9300 H   0  0  0  0  0  0  0  0  0  0  0  0
   -7.6531    1.1816   -2.4602 H   0  0  0  0  0  0  0  0  0  0  0  0
   -6.5125    2.3095   -1.7198 H   0  0  0  0  0  0  0  0  0  0  0  0
   -8.8763   -0.0762   -0.6450 H   0  0  0  0  0  0  0  0  0  0  0  0
   -7.8289   -1.3250    0.0839 H   0  0  0  0  0  0  0  0  0  0  0  0
   -7.9643   -1.1928   -1.7181 H   0  0  0  0  0  0  0  0  0  0  0  0
   -6.5431    4.2868    4.4703 H   0  0  0  0  0  0  0  0  0  0  0  0
   -5.2934    2.9615    4.7248 H   0  0  0  0  0  0  0  0  0  0  0  0
   -7.3184    2.7534    6.2937 H   0  0  0  0  0  0  0  0  0  0  0  0
   -7.2677    1.3728    5.0628 H   0  0  0  0  0  0  0  0  0  0  0  0
   -9.8722    2.7015    3.1742 H   0  0  0  0  0  0  0  0  0  0  0  0
   -8.6699    1.3154    3.3534 H   0  0  0  0  0  0  0  0  0  0  0  0
   -8.0026    4.2357    2.8446 H   0  0  0  0  0  0  0  0  0  0  0  0
   -8.0632    3.0822    1.4957 H   0  0  0  0  0  0  0  0  0  0  0  0
  1  2  1  0
  2  3  1  0
  2  4  1  0
  4  5  1  0
  5  6  1  0
  6  7  1  0
  7  8  2  0
  7  9  1  0
  9 10  1  0
 10 11  1  0
 11 12  2  0
 12 13  1  0
 13 14  2  0
 14 15  1  0
 15 16  2  0
  9 17  1  0
 17 18  1  0
 18 19  2  0
 18 20  1  0
 20 21  1  0
 21 22  1  0
 22 23  2  0
 23 24  1  0
 24 25  2  0
 25 26  1  0
 26 27  2  0
 20 28  1  0
 28 29  1  0
 29 30  2  0
 29 31  1  0
 31 32  1  0
 31 33  1  0
 33 34  1  0
 34 35  1  0
 35 36  1  0
 36 37  2  3
 37 38  1  0
 37 39  1  0
  5 40  1  0
 40 41  2  0
 40 42  1  0
 42 43  1  0
 43 44  1  0
 44 45  1  0
 45 46  1  0
 45 47  1  0
 43 48  1  0
 48 49  2  0
 48 50  1  0
 50 51  1  0
 51 52  1  0
 52 53  1  0
 53 54  1  0
 54 55  1  0
 16 11  1  0
 27 22  1  0
 55 50  1  0
  1 56  1  0
  1 57  1  0
  1 58  1  0
  2 59  1  0
  3 60  1  0
  3 61  1  0
  3 62  1  0
  4 63  1  0
  4 64  1  0
  5 65  1  1
  6 66  1  0
  9 67  1  6
 10 68  1  0
 10 69  1  0
 12 70  1  0
 13 71  1  0
 14 72  1  0
 15 73  1  0
 16 74  1  0
 17 75  1  0
 20 76  1  6
 21 77  1  0
 21 78  1  0
 23 79  1  0
 24 80  1  0
 25 81  1  0
 26 82  1  0
 27 83  1  0
 28 84  1  0
 31 85  1  6
 32 86  1  0
 32 87  1  0
 33 88  1  0
 33 89  1  0
 34 90  1  0
 34 91  1  0
 35 92  1  0
 35 93  1  0
 38 94  1  0
 38 95  1  0
 39 96  1  0
 39 97  1  0
 42 98  1  0
 43 99  1  6
 44100  1  0
 44101  1  0
 45102  1  0
 46103  1  0
 46104  1  0
 46105  1  0
 47106  1  0
 47107  1  0
 47108  1  0
 51109  1  0
 51110  1  0
 52111  1  0
 52112  1  0
 54113  1  0
 54114  1  0
 55115  1  0
 55116  1  0
M  END
$$$$
[H]c1c([H])c([H])c(C([H])([H])OC(=O)N2C([H])([H])C([H])([H])N(C(=O)c3c([H])c([H])c(-c4c([H])c([H])c(S(=O)(=O)N([H])[H])c([H])c4[H])c([H])c3[H])C([H])([H])C2([H])[H])c([H])c1[H]
     RDKit          3D

 59 62  0  0  0  0  0  0  0  0999 V2000
  -10.9789    1.3184    0.1707 N   0  0  0  0  0  0  0  0  0  0  0  0
  -10.1653   -0.1418    0.5491 S   0  0  0  0  0  0  0  0  0  0  0  0
  -10.3337   -0.4259    2.0296 O   0  0  0  0  0  0  0  0  0  0  0  0
  -10.7096   -1.3065   -0.2430 O   0  0  0  0  0  0  0  0  0  0  0  0
   -8.4535   -0.0456    0.2299 C   0  0  0  0  0  0  0  0  0  0  0  0
   -7.5655    0.3699    1.1927 C   0  0  0  0  0  0  0  0  0  0  0  0
   -6.2083    0.4366    0.9047 C   0  0  0  0  0  0  0  0  0  0  0  0
   -5.6969    0.0946   -0.3404 C   0  0  0  0  0  0  0  0  0  0  0  0
   -6.6137   -0.3180   -1.2837 C   0  0  0  0  0  0  0  0  0  0  0  0
   -7.9807   -0.3882   -1.0026 C   0  0  0  0  0  0  0  0  0  0  0  0
   -4.2780    0.1654   -0.6273 C   0  0  0  0  0  0  0  0  0  0  0  0
   -3.7786    0.4554   -1.8865 C   0  0  0  0  0  0  0  0  0  0  0  0
   -2.4639    0.5223   -2.1737 C   0  0  0  0  0  0  0  0  0  0  0  0
   -1.4955    0.2947   -1.1813 C   0  0  0  0  0  0  0  0  0  0  0  0
   -1.9501    0.0078    0.0753 C   0  0  0  0  0  0  0  0  0  0  0  0
   -3.3312   -0.0558    0.3431 C   0  0  0  0  0  0  0  0  0  0  0  0
   -0.1006    0.4666   -1.5127 C   0  0  0  0  0  0  0  0  0  0  0  0
    0.1091    1.2273   -2.5806 O   0  0  0  0  0  0  0  0  0  0  0  0
    0.9975   -0.0543   -0.8687 N   0  0  0  0  0  0  0  0  0  0  0  0
    2.3372    0.3955   -1.3686 C   0  0  0  0  0  0  0  0  0  0  0  0
    3.1772    0.8132   -0.1831 C   0  0  0  0  0  0  0  0  0  0  0  0
    3.0552   -0.1215    0.8888 N   0  0  0  0  0  0  0  0  0  0  0  0
    1.7525   -0.4777    1.3941 C   0  0  0  0  0  0  0  0  0  0  0  0
    1.0160   -1.0375    0.1590 C   0  0  0  0  0  0  0  0  0  0  0  0
    4.1983   -0.7041    1.4650 C   0  0  0  0  0  0  0  0  0  0  0  0
    4.1015   -1.5427    2.4170 O   0  0  0  0  0  0  0  0  0  0  0  0
    5.4822   -0.4013    1.0337 O   0  0  0  0  0  0  0  0  0  0  0  0
    6.5882   -1.0185    1.6493 C   0  0  0  0  0  0  0  0  0  0  0  0
    7.8281   -0.5199    1.0101 C   0  0  0  0  0  0  0  0  0  0  0  0
    8.4672    0.5607    1.5590 C   0  0  0  0  0  0  0  0  0  0  0  0
    9.6255    1.0330    0.9683 C   0  0  0  0  0  0  0  0  0  0  0  0
   10.1204    0.4225   -0.1506 C   0  0  0  0  0  0  0  0  0  0  0  0
    9.4638   -0.6590   -0.6840 C   0  0  0  0  0  0  0  0  0  0  0  0
    8.3014   -1.1563   -0.1161 C   0  0  0  0  0  0  0  0  0  0  0  0
  -10.7782    2.0000    0.9413 H   0  0  0  0  0  0  0  0  0  0  0  0
  -10.6384    1.7168   -0.7160 H   0  0  0  0  0  0  0  0  0  0  0  0
   -7.9622    0.6360    2.1614 H   0  0  0  0  0  0  0  0  0  0  0  0
   -5.5698    0.7687    1.6987 H   0  0  0  0  0  0  0  0  0  0  0  0
   -6.3135   -0.6028   -2.2763 H   0  0  0  0  0  0  0  0  0  0  0  0
   -8.6698   -0.7144   -1.7603 H   0  0  0  0  0  0  0  0  0  0  0  0
   -4.5375    0.6331   -2.6612 H   0  0  0  0  0  0  0  0  0  0  0  0
   -2.1033    0.7510   -3.1763 H   0  0  0  0  0  0  0  0  0  0  0  0
   -1.3003   -0.1315    0.9205 H   0  0  0  0  0  0  0  0  0  0  0  0
   -3.6574   -0.2897    1.3580 H   0  0  0  0  0  0  0  0  0  0  0  0
    2.8222   -0.3850   -1.9638 H   0  0  0  0  0  0  0  0  0  0  0  0
    2.1601    1.2751   -1.9918 H   0  0  0  0  0  0  0  0  0  0  0  0
    2.8275    1.8215    0.1628 H   0  0  0  0  0  0  0  0  0  0  0  0
    4.2221    0.9097   -0.5478 H   0  0  0  0  0  0  0  0  0  0  0  0
    1.8217   -1.2510    2.1672 H   0  0  0  0  0  0  0  0  0  0  0  0
    1.2181    0.4317    1.6992 H   0  0  0  0  0  0  0  0  0  0  0  0
    0.1358   -1.5822    0.4052 H   0  0  0  0  0  0  0  0  0  0  0  0
    1.7369   -1.8907   -0.2077 H   0  0  0  0  0  0  0  0  0  0  0  0
    6.5524   -2.1378    1.5296 H   0  0  0  0  0  0  0  0  0  0  0  0
    6.6280   -0.7844    2.7353 H   0  0  0  0  0  0  0  0  0  0  0  0
    8.0787    1.0493    2.4475 H   0  0  0  0  0  0  0  0  0  0  0  0
   10.1123    1.8791    1.4109 H   0  0  0  0  0  0  0  0  0  0  0  0
   11.0332    0.8303   -0.5784 H   0  0  0  0  0  0  0  0  0  0  0  0
    9.8516   -1.1338   -1.5566 H   0  0  0  0  0  0  0  0  0  0  0  0
    7.8123   -2.0086   -0.5646 H   0  0  0  0  0  0  0  0  0  0  0  0
  1  2  1  0
  2  3  2  0
  2  4  2  0
  2  5  1  0
  5  6  2  0
  6  7  1  0
  7  8  2  0
  8  9  1  0
  9 10  2  0
  8 11  1  0
 11 12  2  0
 12 13  1  0
 13 14  2  0
 14 15  1  0
 15 16  2  0
 14 17  1  0
 17 18  2  0
 17 19  1  0
 19 20  1  0
 20 21  1  0
 21 22  1  0
 22 23  1  0
 23 24  1  0
 22 25  1  0
 25 26  2  0
 25 27  1  0
 27 28  1  0
 28 29  1  0
 29 30  2  0
 30 31  1  0
 31 32  2  0
 32 33  1  0
 33 34  2  0
 10  5  1  0
 16 11  1  0
 24 19  1  0
 34 29  1  0
  1 35  1  0
  1 36  1  0
  6 37  1  0
  7 38  1  0
  9 39  1  0
 10 40  1  0
 12 41  1  0
 13 42  1  0
 15 43  1  0
 16 44  1  0
 20 45  1  0
 20 46  1  0
 21 47  1  0
 21 48  1  0
 23 49  1  0
 23 50  1  0
 24 51  1  0
 24 52  1  0
 28 53  1  0
 28 54  1  0
 30 55  1  0
 31 56  1  0
 32 57  1  0
 33 58  1  0
 34 59  1  0
M  END
$$$$
[H]O[C@@]1([H])[C@]([H])(C([H])([H])OP(=O)(O[H])OP(=O)(O[H])OP(=O)(O[H])O[H])O[C@@]1([H])n1c([H])nc2c(N([H])[H])nc([H])nc21
     RDKit          3D

 43 45  0  0  0  0  0  0  0  0999 V2000
   -7.5602    0.0609    0.8522 N   0  0  0  0  0  0  0  0  0  0  0  0
   -6.5234    0.0804   -0.1118 C   0  0  0  0  0  0  0  0  0  0  0  0
   -6.7183    0.0627   -1.4254 N   0  0  0  0  0  0  0  0  0  0  0  0
   -5.6826    0.1347   -2.2946 C   0  0  0  0  0  0  0  0  0  0  0  0
   -4.4032    0.2208   -1.8660 N   0  0  0  0  0  0  0  0  0  0  0  0
   -4.1881    0.2307   -0.5471 C   0  0  0  0  0  0  0  0  0  0  0  0
   -3.0625    0.2984    0.1955 N   0  0  0  0  0  0  0  0  0  0  0  0
   -3.4209    0.2571    1.4855 C   0  0  0  0  0  0  0  0  0  0  0  0
   -4.7279    0.1771    1.5837 N   0  0  0  0  0  0  0  0  0  0  0  0
   -5.2326    0.1622    0.3594 C   0  0  0  0  0  0  0  0  0  0  0  0
   -1.6845    0.5078   -0.2348 C   0  0  2  0  0  0  0  0  0  0  0  0
   -1.4362    0.3410   -1.5355 O   0  0  0  0  0  0  0  0  0  0  0  0
   -0.2660   -0.2419   -1.3416 C   0  0  1  0  0  0  0  0  0  0  0  0
    1.0449    0.3956   -1.0248 C   0  0  0  0  0  0  0  0  0  0  0  0
    1.2762    0.5783    0.3382 O   0  0  0  0  0  0  0  0  0  0  0  0
    2.6767   -0.3788    0.6925 P   0  0  0  0  0  0  0  0  0  0  0  0
    2.9328   -0.3049    2.3354 O   0  0  0  0  0  0  0  0  0  0  0  0
    2.2084   -1.8642    0.4034 O   0  0  0  0  0  0  0  0  0  0  0  0
    3.9895   -0.1759   -0.2209 O   0  0  0  0  0  0  0  0  0  0  0  0
    4.6025    1.3594   -0.4002 P   0  0  0  0  0  0  0  0  0  0  0  0
    4.6305    1.6865   -2.0681 O   0  0  0  0  0  0  0  0  0  0  0  0
    3.6644    2.3801    0.2476 O   0  0  0  0  0  0  0  0  0  0  0  0
    6.1156    1.5301    0.3178 O   0  0  0  0  0  0  0  0  0  0  0  0
    6.9078    0.1103    0.6590 P   0  0  0  0  0  0  0  0  0  0  0  0
    5.9459   -1.0752    1.3711 O   0  0  0  0  0  0  0  0  0  0  0  0
    8.1444    0.4652    1.7987 O   0  0  0  0  0  0  0  0  0  0  0  0
    7.5968   -0.4833   -0.5739 O   0  0  0  0  0  0  0  0  0  0  0  0
   -0.8778   -0.7212    0.0497 C   0  0  2  0  0  0  0  0  0  0  0  0
   -1.4776   -1.9290   -0.0833 O   0  0  0  0  0  0  0  0  0  0  0  0
   -7.4129   -0.2509    1.8278 H   0  0  0  0  0  0  0  0  0  0  0  0
   -8.5545    0.3874    0.6215 H   0  0  0  0  0  0  0  0  0  0  0  0
   -5.9446    0.1103   -3.3378 H   0  0  0  0  0  0  0  0  0  0  0  0
   -2.7399    0.2917    2.3562 H   0  0  0  0  0  0  0  0  0  0  0  0
   -1.2423    1.4435    0.2354 H   0  0  0  0  0  0  0  0  0  0  0  0
   -0.0617   -1.2106   -1.8847 H   0  0  0  0  0  0  0  0  0  0  0  0
    1.8851    0.3492   -1.6329 H   0  0  0  0  0  0  0  0  0  0  0  0
    0.7046    1.5626   -1.2545 H   0  0  0  0  0  0  0  0  0  0  0  0
    2.0759   -0.2379    2.8374 H   0  0  0  0  0  0  0  0  0  0  0  0
    4.0056    1.0529   -2.5585 H   0  0  0  0  0  0  0  0  0  0  0  0
    5.8319   -0.8672    2.3413 H   0  0  0  0  0  0  0  0  0  0  0  0
    8.9542   -0.0605    1.6005 H   0  0  0  0  0  0  0  0  0  0  0  0
   -0.2492   -0.5472    0.9121 H   0  0  0  0  0  0  0  0  0  0  0  0
   -1.7269   -2.0511   -1.0253 H   0  0  0  0  0  0  0  0  0  0  0  0
  1  2  1  0
  2  3  2  0
  3  4  1  0
  4  5  2  0
  5  6  1  0
  6  7  1  0
  7  8  1  0
  8  9  2  0
  9 10  1  0
  7 11  1  0
 11 12  1  0
 12 13  1  0
 13 14  1  0
 14 15  1  0
 15 16  1  0
 16 17  1  0
 16 18  2  0
 16 19  1  0
 19 20  1  0
 20 21  1  0
 20 22  2  0
 20 23  1  0
 23 24  1  0
 24 25  1  0
 24 26  1  0
 24 27  2  0
 13 28  1  0
 28 29  1  0
 10  2  1  0
 28 11  1  0
 10  6  2  0
  1 30  1  0
  1 31  1  0
  4 32  1  0
  8 33  1  0
 11 34  1  1
 13 35  1  6
 14 36  1  0
 14 37  1  0
 17 38  1  0
 21 39  1  0
 25 40  1  0
 26 41  1  0
 28 42  1  1
 29 43  1  0
M  END
$$$$
[H]c1nc2c([H])c(OC([H])([H])C([H])([H])C([H])([H])N3C([H])([H])C([H])([H])OC([H])([H])C3([H])[H])c(OC([H])([H])[H])c([H])c2c(Oc2c([H])c([H])c(N([H])C(=O)N([H])c3c(F)c([H])c([H])c([H])c3F)c([H])c2F)c1[H]
     RDKit          3D

 71 75  0  0  0  0  0  0  0  0999 V2000
    2.2684    2.4175   -0.2532 C   0  0  0  0  0  0  0  0  0  0  0  0
    3.1339    1.3494    0.1281 O   0  0  0  0  0  0  0  0  0  0  0  0
    2.5614    0.0944    0.3003 C   0  0  0  0  0  0  0  0  0  0  0  0
    1.2120   -0.1396    0.1180 C   0  0  0  0  0  0  0  0  0  0  0  0
    0.6476   -1.3921    0.2909 C   0  0  0  0  0  0  0  0  0  0  0  0
   -0.7295   -1.5906    0.0970 C   0  0  0  0  0  0  0  0  0  0  0  0
   -1.4406   -0.4831   -0.2646 O   0  0  0  0  0  0  0  0  0  0  0  0
   -2.7726   -0.3774   -0.5657 C   0  0  0  0  0  0  0  0  0  0  0  0
   -3.6093    0.3909    0.2138 C   0  0  0  0  0  0  0  0  0  0  0  0
   -4.9541    0.4986   -0.0912 C   0  0  0  0  0  0  0  0  0  0  0  0
   -5.5361   -0.1368   -1.1657 C   0  0  0  0  0  0  0  0  0  0  0  0
   -6.9019   -0.0668   -1.4949 N   0  0  0  0  0  0  0  0  0  0  0  0
   -7.9489    0.3511   -0.6743 C   0  0  0  0  0  0  0  0  0  0  0  0
   -7.8151    0.7304    0.5222 O   0  0  0  0  0  0  0  0  0  0  0  0
   -9.3128    0.3873   -1.1351 N   0  0  0  0  0  0  0  0  0  0  0  0
  -10.3989    0.7975   -0.3407 C   0  0  0  0  0  0  0  0  0  0  0  0
  -11.0892   -0.1455    0.4244 C   0  0  0  0  0  0  0  0  0  0  0  0
  -10.7191   -1.4487    0.4094 F   0  0  0  0  0  0  0  0  0  0  0  0
  -12.1459    0.3133    1.1818 C   0  0  0  0  0  0  0  0  0  0  0  0
  -12.5247    1.6255    1.2037 C   0  0  0  0  0  0  0  0  0  0  0  0
  -11.8118    2.5329    0.4278 C   0  0  0  0  0  0  0  0  0  0  0  0
  -10.7456    2.1348   -0.3502 C   0  0  0  0  0  0  0  0  0  0  0  0
  -10.0448    3.0342   -1.1145 F   0  0  0  0  0  0  0  0  0  0  0  0
   -4.6728   -0.9072   -1.9406 C   0  0  0  0  0  0  0  0  0  0  0  0
   -3.3484   -1.0184   -1.6477 C   0  0  0  0  0  0  0  0  0  0  0  0
   -2.5081   -1.7682   -2.4386 F   0  0  0  0  0  0  0  0  0  0  0  0
   -1.2623   -2.8320    0.2734 C   0  0  0  0  0  0  0  0  0  0  0  0
   -0.4151   -3.8674    0.6421 C   0  0  0  0  0  0  0  0  0  0  0  0
    0.9037   -3.6931    0.8311 N   0  0  0  0  0  0  0  0  0  0  0  0
    1.4260   -2.4635    0.6559 C   0  0  0  0  0  0  0  0  0  0  0  0
    2.7874   -2.2244    0.8391 C   0  0  0  0  0  0  0  0  0  0  0  0
    3.3539   -0.9726    0.6674 C   0  0  0  0  0  0  0  0  0  0  0  0
    4.7105   -0.7500    0.8548 O   0  0  0  0  0  0  0  0  0  0  0  0
    5.6117   -1.7647    1.2318 C   0  0  0  0  0  0  0  0  0  0  0  0
    7.0057   -1.1367    1.3451 C   0  0  0  0  0  0  0  0  0  0  0  0
    7.3604   -0.5790    0.0097 C   0  0  0  0  0  0  0  0  0  0  0  0
    8.6606    0.0491   -0.0269 N   0  0  0  0  0  0  0  0  0  0  0  0
    8.9297    0.5445   -1.3652 C   0  0  0  0  0  0  0  0  0  0  0  0
    9.6770    1.8480   -1.3376 C   0  0  0  0  0  0  0  0  0  0  0  0
   10.6668    1.8797   -0.3800 O   0  0  0  0  0  0  0  0  0  0  0  0
   10.2486    1.5833    0.8916 C   0  0  0  0  0  0  0  0  0  0  0  0
    8.8186    1.0853    0.9695 C   0  0  0  0  0  0  0  0  0  0  0  0
    1.5132    2.5805    0.5352 H   0  0  0  0  0  0  0  0  0  0  0  0
    1.7242    2.1701   -1.1938 H   0  0  0  0  0  0  0  0  0  0  0  0
    2.8475    3.3348   -0.4765 H   0  0  0  0  0  0  0  0  0  0  0  0
    0.5732    0.6705   -0.1668 H   0  0  0  0  0  0  0  0  0  0  0  0
   -3.2152    0.9244    1.0841 H   0  0  0  0  0  0  0  0  0  0  0  0
   -5.5567    1.1416    0.5726 H   0  0  0  0  0  0  0  0  0  0  0  0
   -7.1673   -0.3643   -2.4826 H   0  0  0  0  0  0  0  0  0  0  0  0
   -9.4720    0.0854   -2.1192 H   0  0  0  0  0  0  0  0  0  0  0  0
  -12.6954   -0.3976    1.7810 H   0  0  0  0  0  0  0  0  0  0  0  0
  -13.3534    2.0006    1.7931 H   0  0  0  0  0  0  0  0  0  0  0  0
  -12.0873    3.5903    0.4215 H   0  0  0  0  0  0  0  0  0  0  0  0
   -5.0959   -1.4221   -2.7959 H   0  0  0  0  0  0  0  0  0  0  0  0
   -2.3267   -2.9937    0.1366 H   0  0  0  0  0  0  0  0  0  0  0  0
   -0.9033   -4.8442    0.7681 H   0  0  0  0  0  0  0  0  0  0  0  0
    3.4130   -3.0536    1.1247 H   0  0  0  0  0  0  0  0  0  0  0  0
    5.3033   -2.0970    2.2576 H   0  0  0  0  0  0  0  0  0  0  0  0
    5.6141   -2.6270    0.5586 H   0  0  0  0  0  0  0  0  0  0  0  0
    6.9508   -0.3428    2.1470 H   0  0  0  0  0  0  0  0  0  0  0  0
    7.7534   -1.9166    1.6152 H   0  0  0  0  0  0  0  0  0  0  0  0
    6.6294    0.1242   -0.3985 H   0  0  0  0  0  0  0  0  0  0  0  0
    7.4302   -1.4554   -0.6918 H   0  0  0  0  0  0  0  0  0  0  0  0
    7.9979    0.6656   -1.9373 H   0  0  0  0  0  0  0  0  0  0  0  0
    9.5693   -0.2047   -1.8978 H   0  0  0  0  0  0  0  0  0  0  0  0
   10.1991    1.9404   -2.3331 H   0  0  0  0  0  0  0  0  0  0  0  0
    9.0292    2.7377   -1.2611 H   0  0  0  0  0  0  0  0  0  0  0  0
   10.8941    0.8147    1.3864 H   0  0  0  0  0  0  0  0  0  0  0  0
   10.2992    2.5192    1.4930 H   0  0  0  0  0  0  0  0  0  0  0  0
    8.1294    1.9198    0.8458 H   0  0  0  0  0  0  0  0  0  0  0  0
    8.7264    0.6092    1.9681 H   0  0  0  0  0  0  0  0  0  0  0  0
  1  2  1  0
  2  3  1  0
  3  4  2  0
  4  5  1  0
  5  6  2  0
  6  7  1  0
  7  8  1  0
  8  9  2  0
  9 10  1  0
 10 11  2  0
 11 12  1  0
 12 13  1  0
 13 14  2  0
 13 15  1  0
 15 16  1  0
 16 17  2  0
 17 18  1  0
 17 19  1  0
 19 20  2  0
 20 21  1  0
 21 22  2  0
 22 23  1  0
 11 24  1  0
 24 25  2  0
 25 26  1  0
  6 27  1  0
 27 28  2  0
 28 29  1  0
 29 30  2  0
 30 31  1  0
 31 32  2  0
 32 33  1  0
 33 34  1  0
 34 35  1  0
 35 36  1  0
 36 37  1  0
 37 38  1  0
 38 39  1  0
 39 40  1  0
 40 41  1  0
 41 42  1  0
 32  3  1  0
 42 37  1  0
 30  5  1  0
 25  8  1  0
 22 16  1  0
  1 43  1  0
  1 44  1  0
  1 45  1  0
  4 46  1  0
  9 47  1  0
 10 48  1  0
 12 49  1  0
 15 50  1  0
 19 51  1  0
 20 52  1  0
 21 53  1  0
 24 54  1  0
 27 55  1  0
 28 56  1  0
 31 57  1  0
 34 58  1  0
 34 59  1  0
 35 60  1  0
 35 61  1  0
 36 62  1  0
 36 63  1  0
 38 64  1  0
 38 65  1  0
 39 66  1  0
 39 67  1  0
 41 68  1  0
 41 69  1  0
 42 70  1  0
 42 71  1  0
M  END
$$$$
[H]OC(=O)[C@@]([H])(N([H])C(=O)[C@@]([H])(N([H])C(=O)[C@@]([H])(N([H])C(=O)[C@@]([H])(N([H])[H])C([H])([H])c1c([H])c([H])c(O[H])c([H])c1[H])[C@@]([H])(C([H])([H])[H])C([H])([H])C([H])([H])[H])C([H])([H])c1c([H])c([H])c(O[H])c([H])c1[H])C([H])([H])c1c([H])n([H])c2c([H])c([H])c([H])c([H])c12
     RDKit          3D

 88 91  0  0  0  0  0  0  0  0999 V2000
   -0.8104    1.8757   -4.0992 C   0  0  0  0  0  0  0  0  0  0  0  0
   -1.6438    0.6614   -4.3038 C   0  0  0  0  0  0  0  0  0  0  0  0
   -1.6208   -0.4002   -3.3071 C   0  0  2  0  0  0  0  0  0  0  0  0
   -2.5381   -1.5217   -3.7150 C   0  0  0  0  0  0  0  0  0  0  0  0
   -1.8884   -0.0706   -1.8547 C   0  0  2  0  0  0  0  0  0  0  0  0
   -3.1850    0.5386   -1.6873 N   0  0  0  0  0  0  0  0  0  0  0  0
   -4.3615   -0.1263   -1.3239 C   0  0  0  0  0  0  0  0  0  0  0  0
   -4.4155   -1.3837   -1.0956 O   0  0  0  0  0  0  0  0  0  0  0  0
   -5.6287    0.6181   -1.1902 C   0  0  1  0  0  0  0  0  0  0  0  0
   -6.7677   -0.2959   -1.3429 N   0  0  0  0  0  0  0  0  0  0  0  0
   -5.7217    1.2780    0.1865 C   0  0  0  0  0  0  0  0  0  0  0  0
   -5.6762    0.1964    1.2205 C   0  0  0  0  0  0  0  0  0  0  0  0
   -6.8975   -0.3434    1.6220 C   0  0  0  0  0  0  0  0  0  0  0  0
   -6.9353   -1.3443    2.5589 C   0  0  0  0  0  0  0  0  0  0  0  0
   -5.7460   -1.8022    3.0928 C   0  0  0  0  0  0  0  0  0  0  0  0
   -5.7790   -2.8256    4.0515 O   0  0  0  0  0  0  0  0  0  0  0  0
   -4.5254   -1.2837    2.7113 C   0  0  0  0  0  0  0  0  0  0  0  0
   -4.5068   -0.2751    1.7650 C   0  0  0  0  0  0  0  0  0  0  0  0
   -0.7928    0.7077   -1.2517 C   0  0  0  0  0  0  0  0  0  0  0  0
   -1.0131    1.8846   -0.8888 O   0  0  0  0  0  0  0  0  0  0  0  0
    0.5096    0.1988   -1.0579 N   0  0  0  0  0  0  0  0  0  0  0  0
    1.6519    0.8606   -0.5251 C   0  0  1  0  0  0  0  0  0  0  0  0
    1.8618    0.7034    0.9402 C   0  0  0  0  0  0  0  0  0  0  0  0
    0.8067    1.2405    1.8100 C   0  0  0  0  0  0  0  0  0  0  0  0
    0.7693    2.5746    2.1823 C   0  0  0  0  0  0  0  0  0  0  0  0
   -0.1885    3.0406    3.0341 C   0  0  0  0  0  0  0  0  0  0  0  0
   -1.1734    2.1993    3.5690 C   0  0  0  0  0  0  0  0  0  0  0  0
   -2.1282    2.7106    4.4311 O   0  0  0  0  0  0  0  0  0  0  0  0
   -1.1314    0.8896    3.1988 C   0  0  0  0  0  0  0  0  0  0  0  0
   -0.1588    0.4156    2.3333 C   0  0  0  0  0  0  0  0  0  0  0  0
    2.9142    0.4807   -1.2445 C   0  0  0  0  0  0  0  0  0  0  0  0
    2.8303   -0.3081   -2.2452 O   0  0  0  0  0  0  0  0  0  0  0  0
    4.1972    0.9436   -0.8839 N   0  0  0  0  0  0  0  0  0  0  0  0
    5.4495    0.6973   -1.4585 C   0  0  1  0  0  0  0  0  0  0  0  0
    6.1708   -0.5680   -1.2261 C   0  0  0  0  0  0  0  0  0  0  0  0
    6.5186   -0.9018    0.1778 C   0  0  0  0  0  0  0  0  0  0  0  0
    7.7442   -0.5754    0.7732 C   0  0  0  0  0  0  0  0  0  0  0  0
    7.7185   -0.9850    2.0653 N   0  0  0  0  0  0  0  0  0  0  0  0
    6.5405   -1.5595    2.3331 C   0  0  0  0  0  0  0  0  0  0  0  0
    6.0012   -2.1503    3.4810 C   0  0  0  0  0  0  0  0  0  0  0  0
    4.7344   -2.6894    3.4708 C   0  0  0  0  0  0  0  0  0  0  0  0
    4.0023   -2.6430    2.3217 C   0  0  0  0  0  0  0  0  0  0  0  0
    4.5352   -2.0559    1.1796 C   0  0  0  0  0  0  0  0  0  0  0  0
    5.7829   -1.5159    1.1667 C   0  0  0  0  0  0  0  0  0  0  0  0
    5.4941    0.9494   -2.9496 C   0  0  0  0  0  0  0  0  0  0  0  0
    6.6843    0.6647   -3.6229 O   0  0  0  0  0  0  0  0  0  0  0  0
    4.5353    1.3899   -3.5897 O   0  0  0  0  0  0  0  0  0  0  0  0
    0.1545    1.6866   -3.6451 H   0  0  0  0  0  0  0  0  0  0  0  0
   -0.5524    2.3379   -5.1062 H   0  0  0  0  0  0  0  0  0  0  0  0
   -1.4088    2.7046   -3.6171 H   0  0  0  0  0  0  0  0  0  0  0  0
   -1.2521    0.1747   -5.2562 H   0  0  0  0  0  0  0  0  0  0  0  0
   -2.6853    0.9618   -4.6449 H   0  0  0  0  0  0  0  0  0  0  0  0
   -0.5892   -0.8635   -3.3130 H   0  0  0  0  0  0  0  0  0  0  0  0
   -2.4882   -2.3565   -2.9839 H   0  0  0  0  0  0  0  0  0  0  0  0
   -3.5894   -1.1849   -3.8355 H   0  0  0  0  0  0  0  0  0  0  0  0
   -2.1788   -1.9964   -4.6800 H   0  0  0  0  0  0  0  0  0  0  0  0
   -1.9357   -1.0588   -1.3741 H   0  0  0  0  0  0  0  0  0  0  0  0
   -3.2487    1.5657   -1.8547 H   0  0  0  0  0  0  0  0  0  0  0  0
   -5.7447    1.4081   -1.9391 H   0  0  0  0  0  0  0  0  0  0  0  0
   -6.5359   -1.2643   -1.0105 H   0  0  0  0  0  0  0  0  0  0  0  0
   -7.0768   -0.3188   -2.3550 H   0  0  0  0  0  0  0  0  0  0  0  0
   -4.8623    1.9329    0.3445 H   0  0  0  0  0  0  0  0  0  0  0  0
   -6.6542    1.8498    0.3195 H   0  0  0  0  0  0  0  0  0  0  0  0
   -7.8056    0.0298    1.1924 H   0  0  0  0  0  0  0  0  0  0  0  0
   -7.8554   -1.8005    2.9047 H   0  0  0  0  0  0  0  0  0  0  0  0
   -6.6520   -3.2151    4.3384 H   0  0  0  0  0  0  0  0  0  0  0  0
   -3.5753   -1.6313    3.1171 H   0  0  0  0  0  0  0  0  0  0  0  0
   -3.5685    0.1685    1.4217 H   0  0  0  0  0  0  0  0  0  0  0  0
    0.6983   -0.8267   -1.3390 H   0  0  0  0  0  0  0  0  0  0  0  0
    1.5200    1.9693   -0.7452 H   0  0  0  0  0  0  0  0  0  0  0  0
    1.9114   -0.4212    1.1476 H   0  0  0  0  0  0  0  0  0  0  0  0
    2.8264    1.0772    1.3109 H   0  0  0  0  0  0  0  0  0  0  0  0
    1.5014    3.2667    1.7991 H   0  0  0  0  0  0  0  0  0  0  0  0
   -0.2217    4.0822    3.3290 H   0  0  0  0  0  0  0  0  0  0  0  0
   -2.8584    2.1834    4.8530 H   0  0  0  0  0  0  0  0  0  0  0  0
   -1.8976    0.2230    3.6134 H   0  0  0  0  0  0  0  0  0  0  0  0
   -0.1676   -0.6392    2.0694 H   0  0  0  0  0  0  0  0  0  0  0  0
    4.1792    1.5956   -0.0206 H   0  0  0  0  0  0  0  0  0  0  0  0
    6.1647    1.5230   -1.0742 H   0  0  0  0  0  0  0  0  0  0  0  0
    7.1490   -0.5886   -1.8024 H   0  0  0  0  0  0  0  0  0  0  0  0
    5.6013   -1.4696   -1.6181 H   0  0  0  0  0  0  0  0  0  0  0  0
    8.5747   -0.0792    0.2862 H   0  0  0  0  0  0  0  0  0  0  0  0
    8.5047   -0.8747    2.7688 H   0  0  0  0  0  0  0  0  0  0  0  0
    6.5786   -2.1844    4.3795 H   0  0  0  0  0  0  0  0  0  0  0  0
    4.2802   -3.1568    4.3470 H   0  0  0  0  0  0  0  0  0  0  0  0
    3.0239   -3.0577    2.3067 H   0  0  0  0  0  0  0  0  0  0  0  0
    3.9548   -2.0278    0.2720 H   0  0  0  0  0  0  0  0  0  0  0  0
    6.5621    0.1803   -4.5263 H   0  0  0  0  0  0  0  0  0  0  0  0
  1  2  1  0
  2  3  1  0
  3  4  1  0
  3  5  1  0
  5  6  1  0
  6  7  1  0
  7  8  2  0
  7  9  1  0
  9 10  1  0
  9 11  1  0
 11 12  1  0
 12 13  2  0
 13 14  1  0
 14 15  2  0
 15 16  1  0
 15 17  1  0
 17 18  2  0
  5 19  1  0
 19 20  2  0
 19 21  1  0
 21 22  1  0
 22 23  1  0
 23 24  1  0
 24 25  2  0
 25 26  1  0
 26 27  2  0
 27 28  1  0
 27 29  1  0
 29 30  2  0
 22 31  1  0
 31 32  2  0
 31 33  1  0
 33 34  1  0
 34 35  1  0
 35 36  1  0
 36 37  2  0
 37 38  1  0
 38 39  1  0
 39 40  2  0
 40 41  1  0
 41 42  2  0
 42 43  1  0
 43 44  2  0
 34 45  1  0
 45 46  1  0
 45 47  2  0
 18 12  1  0
 30 24  1  0
 44 36  1  0
 44 39  1  0
  1 48  1  0
  1 49  1  0
  1 50  1  0
  2 51  1  0
  2 52  1  0
  3 53  1  1
  4 54  1  0
  4 55  1  0
  4 56  1  0
  5 57  1  1
  6 58  1  0
  9 59  1  6
 10 60  1  0
 10 61  1  0
 11 62  1  0
 11 63  1  0
 13 64  1  0
 14 65  1  0
 16 66  1  0
 17 67  1  0
 18 68  1  0
 21 69  1  0
 22 70  1  1
 23 71  1  0
 23 72  1  0
 25 73  1  0
 26 74  1  0
 28 75  1  0
 29 76  1  0
 30 77  1  0
 33 78  1  0
 34 79  1  1
 35 80  1  0
 35 81  1  0
 37 82  1  0
 38 83  1  0
 40 84  1  0
 41 85  1  0
 42 86  1  0
 43 87  1  0
 46 88  1  0
M  END
$$$$
[H]c1nc(N([H])[H])nc([H])c1-c1c([H])c([H])c(S(=O)(=O)N2C([H])([H])C([H])([H])N(C(=O)c3c([H])c([H])c(C(F)(F)F)c([H])c3[H])[C@]([H])(C([H])([H])[H])C2([H])[H])c([H])c1[H]
     RDKit          3D

 57 60  0  0  0  0  0  0  0  0999 V2000
   -3.6438   -1.2799   -1.1806 C   0  0  0  0  0  0  0  0  0  0  0  0
   -2.6349   -0.2108   -0.8396 C   0  0  2  0  0  0  0  0  0  0  0  0
   -1.3313   -0.7001   -1.5278 C   0  0  0  0  0  0  0  0  0  0  0  0
   -0.3600    0.3884   -1.4057 N   0  0  0  0  0  0  0  0  0  0  0  0
   -0.1675    0.6875   -0.0342 C   0  0  0  0  0  0  0  0  0  0  0  0
   -0.9053   -0.2353    0.9090 C   0  0  0  0  0  0  0  0  0  0  0  0
   -2.3391   -0.1834    0.5795 N   0  0  0  0  0  0  0  0  0  0  0  0
   -3.2755   -0.0952    1.6058 C   0  0  0  0  0  0  0  0  0  0  0  0
   -2.9169   -0.2443    2.7942 O   0  0  0  0  0  0  0  0  0  0  0  0
   -4.7088    0.1598    1.3767 C   0  0  0  0  0  0  0  0  0  0  0  0
   -5.7087   -0.4930    2.0703 C   0  0  0  0  0  0  0  0  0  0  0  0
   -7.0439   -0.1691    1.9633 C   0  0  0  0  0  0  0  0  0  0  0  0
   -7.4676    0.8691    1.1198 C   0  0  0  0  0  0  0  0  0  0  0  0
   -6.4737    1.5189    0.4276 C   0  0  0  0  0  0  0  0  0  0  0  0
   -5.1138    1.1947    0.5334 C   0  0  0  0  0  0  0  0  0  0  0  0
   -8.8950    1.2394    1.0014 C   0  0  0  0  0  0  0  0  0  0  0  0
   -9.6784    0.3925    1.7360 F   0  0  0  0  0  0  0  0  0  0  0  0
   -9.2698    1.1156   -0.3351 F   0  0  0  0  0  0  0  0  0  0  0  0
   -9.0930    2.5746    1.3418 F   0  0  0  0  0  0  0  0  0  0  0  0
    0.9779    0.0365   -2.3649 S   0  0  0  0  0  0  0  0  0  0  0  0
    0.7620   -1.2754   -3.1448 O   0  0  0  0  0  0  0  0  0  0  0  0
    1.1058    1.0668   -3.4896 O   0  0  0  0  0  0  0  0  0  0  0  0
    2.5066   -0.0940   -1.5831 C   0  0  0  0  0  0  0  0  0  0  0  0
    2.9164   -1.1832   -0.8509 C   0  0  0  0  0  0  0  0  0  0  0  0
    4.2053   -1.2240   -0.3039 C   0  0  0  0  0  0  0  0  0  0  0  0
    5.1024   -0.1956   -0.4704 C   0  0  0  0  0  0  0  0  0  0  0  0
    4.7027    0.9238   -1.2144 C   0  0  0  0  0  0  0  0  0  0  0  0
    3.4407    0.9338   -1.7316 C   0  0  0  0  0  0  0  0  0  0  0  0
    6.4539   -0.1679    0.0514 C   0  0  0  0  0  0  0  0  0  0  0  0
    6.8317   -0.7730    1.2410 C   0  0  0  0  0  0  0  0  0  0  0  0
    8.1280   -0.7027    1.6287 N   0  0  0  0  0  0  0  0  0  0  0  0
    9.0735   -0.0734    0.9143 C   0  0  0  0  0  0  0  0  0  0  0  0
   10.4499   -0.0005    1.3376 N   0  0  0  0  0  0  0  0  0  0  0  0
    8.7036    0.5076   -0.2319 N   0  0  0  0  0  0  0  0  0  0  0  0
    7.4331    0.4740   -0.6680 C   0  0  0  0  0  0  0  0  0  0  0  0
   -3.7893   -1.9394   -0.2688 H   0  0  0  0  0  0  0  0  0  0  0  0
   -4.5871   -0.9280   -1.6015 H   0  0  0  0  0  0  0  0  0  0  0  0
   -3.2277   -1.9898   -1.9606 H   0  0  0  0  0  0  0  0  0  0  0  0
   -2.9087    0.7427   -1.2356 H   0  0  0  0  0  0  0  0  0  0  0  0
   -0.9783   -1.6023   -1.0263 H   0  0  0  0  0  0  0  0  0  0  0  0
   -1.5634   -0.8737   -2.5671 H   0  0  0  0  0  0  0  0  0  0  0  0
    0.9216    0.7367    0.2040 H   0  0  0  0  0  0  0  0  0  0  0  0
   -0.5587    1.7126    0.1684 H   0  0  0  0  0  0  0  0  0  0  0  0
   -0.5324   -1.2639    0.9434 H   0  0  0  0  0  0  0  0  0  0  0  0
   -0.7419    0.1752    1.9487 H   0  0  0  0  0  0  0  0  0  0  0  0
   -5.3980   -1.3195    2.7342 H   0  0  0  0  0  0  0  0  0  0  0  0
   -7.8274   -0.6821    2.5042 H   0  0  0  0  0  0  0  0  0  0  0  0
   -6.7438    2.3417   -0.2412 H   0  0  0  0  0  0  0  0  0  0  0  0
   -4.3800    1.7551    0.0022 H   0  0  0  0  0  0  0  0  0  0  0  0
    2.2515   -2.0237   -0.6866 H   0  0  0  0  0  0  0  0  0  0  0  0
    4.5387   -2.0879    0.2753 H   0  0  0  0  0  0  0  0  0  0  0  0
    5.3954    1.7245   -1.3581 H   0  0  0  0  0  0  0  0  0  0  0  0
    3.1220    1.8036   -2.2948 H   0  0  0  0  0  0  0  0  0  0  0  0
    6.1310   -1.2896    1.8468 H   0  0  0  0  0  0  0  0  0  0  0  0
   10.9933   -0.8295    1.6609 H   0  0  0  0  0  0  0  0  0  0  0  0
   10.8921    0.9428    1.3068 H   0  0  0  0  0  0  0  0  0  0  0  0
    7.2242    0.9792   -1.6093 H   0  0  0  0  0  0  0  0  0  0  0  0
  1  2  1  0
  2  3  1  0
  3  4  1  0
  4  5  1  0
  5  6  1  0
  6  7  1  0
  7  8  1  0
  8  9  2  0
  8 10  1  0
 10 11  2  0
 11 12  1  0
 12 13  2  0
 13 14  1  0
 14 15  2  0
 13 16  1  0
 16 17  1  0
 16 18  1  0
 16 19  1  0
  4 20  1  0
 20 21  2  0
 20 22  2  0
 20 23  1  0
 23 24  2  0
 24 25  1  0
 25 26  2  0
 26 27  1  0
 27 28  2  0
 26 29  1  0
 29 30  2  0
 30 31  1  0
 31 32  2  0
 32 33  1  0
 32 34  1  0
 34 35  2  0
  7  2  1  0
 15 10  1  0
 28 23  1  0
 35 29  1  0
  1 36  1  0
  1 37  1  0
  1 38  1  0
  2 39  1  6
  3 40  1  0
  3 41  1  0
  5 42  1  0
  5 43  1  0
  6 44  1  0
  6 45  1  0
 11 46  1  0
 12 47  1  0
 14 48  1  0
 15 49  1  0
 24 50  1  0
 25 51  1  0
 27 52  1  0
 28 53  1  0
 30 54  1  0
 33 55  1  0
 33 56  1  0
 35 57  1  0
M  END
$$$$
[H]c1c([H])c([H])c(-c2c([H])c([H])c([H])c(C(=O)N([H])[C@]3([H])C([H])([H])[C@@]4([H])C([H])([H])N(S(=O)(=O)c5c([H])c([H])c(OC([H])([H])[H])c([H])c5[H])[C@]([H])(C([H])([H])C4([H])[H])C3([H])[H])c2[H])c([H])c1[H]
     RDKit          3D

 65 69  0  0  0  0  0  0  0  0999 V2000
    9.3115    2.8597   -1.3181 C   0  0  0  0  0  0  0  0  0  0  0  0
    9.0451    1.8054   -0.4431 O   0  0  0  0  0  0  0  0  0  0  0  0
    7.7758    1.5629    0.0615 C   0  0  0  0  0  0  0  0  0  0  0  0
    7.5976    0.4970    0.9230 C   0  0  0  0  0  0  0  0  0  0  0  0
    6.3449    0.2670    1.4139 C   0  0  0  0  0  0  0  0  0  0  0  0
    5.2506    1.0539    1.0855 C   0  0  0  0  0  0  0  0  0  0  0  0
    5.4139    2.1069    0.2376 C   0  0  0  0  0  0  0  0  0  0  0  0
    6.6891    2.3627   -0.2786 C   0  0  0  0  0  0  0  0  0  0  0  0
    3.6911    0.6409    1.7913 S   0  0  0  0  0  0  0  0  0  0  0  0
    2.8989    1.9388    1.8037 O   0  0  0  0  0  0  0  0  0  0  0  0
    3.8111    0.1800    3.1916 O   0  0  0  0  0  0  0  0  0  0  0  0
    2.9165   -0.4332    0.7525 N   0  0  0  0  0  0  0  0  0  0  0  0
    2.6302    0.0543   -0.5507 C   0  0  0  0  0  0  0  0  0  0  0  0
    1.9860   -1.1003   -1.3109 C   0  0  1  0  0  0  0  0  0  0  0  0
    2.5842   -2.4181   -0.7941 C   0  0  0  0  0  0  0  0  0  0  0  0
    2.0463   -2.6396    0.6041 C   0  0  0  0  0  0  0  0  0  0  0  0
    1.9421   -1.3024    1.3070 C   0  0  2  0  0  0  0  0  0  0  0  0
    0.5485   -0.7788    1.3317 C   0  0  0  0  0  0  0  0  0  0  0  0
   -0.0987   -0.5575    0.0266 C   0  0  1  0  0  0  0  0  0  0  0  0
    0.5206   -1.1920   -1.1545 C   0  0  0  0  0  0  0  0  0  0  0  0
   -1.4651   -1.1076    0.1209 N   0  0  0  0  0  0  0  0  0  0  0  0
   -2.6064   -0.3283   -0.0207 C   0  0  0  0  0  0  0  0  0  0  0  0
   -2.4742    0.9026   -0.2384 O   0  0  0  0  0  0  0  0  0  0  0  0
   -3.9567   -0.8676    0.0707 C   0  0  0  0  0  0  0  0  0  0  0  0
   -4.1986   -2.2066    0.2654 C   0  0  0  0  0  0  0  0  0  0  0  0
   -5.4942   -2.6842    0.3478 C   0  0  0  0  0  0  0  0  0  0  0  0
   -6.5500   -1.8102    0.2336 C   0  0  0  0  0  0  0  0  0  0  0  0
   -6.3476   -0.4794    0.0406 C   0  0  0  0  0  0  0  0  0  0  0  0
   -5.0639   -0.0109   -0.0404 C   0  0  0  0  0  0  0  0  0  0  0  0
   -7.4852    0.4417   -0.0793 C   0  0  0  0  0  0  0  0  0  0  0  0
   -8.6607    0.1988    0.6021 C   0  0  0  0  0  0  0  0  0  0  0  0
   -9.7523    1.0589    0.5025 C   0  0  0  0  0  0  0  0  0  0  0  0
   -9.6856    2.1914   -0.2908 C   0  0  0  0  0  0  0  0  0  0  0  0
   -8.5071    2.4193   -0.9634 C   0  0  0  0  0  0  0  0  0  0  0  0
   -7.4152    1.5661   -0.8685 C   0  0  0  0  0  0  0  0  0  0  0  0
   10.3862    2.8131   -1.6069 H   0  0  0  0  0  0  0  0  0  0  0  0
    9.1016    3.8369   -0.8799 H   0  0  0  0  0  0  0  0  0  0  0  0
    8.6498    2.7641   -2.2170 H   0  0  0  0  0  0  0  0  0  0  0  0
    8.4405   -0.1175    1.1826 H   0  0  0  0  0  0  0  0  0  0  0  0
    6.2128   -0.5844    2.0996 H   0  0  0  0  0  0  0  0  0  0  0  0
    4.5613    2.7399   -0.0336 H   0  0  0  0  0  0  0  0  0  0  0  0
    6.8004    3.1944   -0.9442 H   0  0  0  0  0  0  0  0  0  0  0  0
    2.0360    0.9706   -0.5913 H   0  0  0  0  0  0  0  0  0  0  0  0
    3.6155    0.2903   -1.0452 H   0  0  0  0  0  0  0  0  0  0  0  0
    2.2871   -1.0208   -2.3664 H   0  0  0  0  0  0  0  0  0  0  0  0
    2.1639   -3.2191   -1.4329 H   0  0  0  0  0  0  0  0  0  0  0  0
    3.6922   -2.3787   -0.8099 H   0  0  0  0  0  0  0  0  0  0  0  0
    2.7747   -3.3001    1.1232 H   0  0  0  0  0  0  0  0  0  0  0  0
    1.0679   -3.1564    0.5971 H   0  0  0  0  0  0  0  0  0  0  0  0
    2.2349   -1.5024    2.3752 H   0  0  0  0  0  0  0  0  0  0  0  0
   -0.0447   -1.4662    2.0046 H   0  0  0  0  0  0  0  0  0  0  0  0
    0.5738    0.1891    1.9050 H   0  0  0  0  0  0  0  0  0  0  0  0
   -0.2356    0.5324   -0.1727 H   0  0  0  0  0  0  0  0  0  0  0  0
    0.0497   -0.7334   -2.0733 H   0  0  0  0  0  0  0  0  0  0  0  0
    0.1781   -2.2638   -1.1949 H   0  0  0  0  0  0  0  0  0  0  0  0
   -1.4980   -2.1323    0.3033 H   0  0  0  0  0  0  0  0  0  0  0  0
   -3.3438   -2.8924    0.3542 H   0  0  0  0  0  0  0  0  0  0  0  0
   -5.6528   -3.7528    0.5027 H   0  0  0  0  0  0  0  0  0  0  0  0
   -7.5781   -2.1892    0.2987 H   0  0  0  0  0  0  0  0  0  0  0  0
   -4.8628    1.0582   -0.1957 H   0  0  0  0  0  0  0  0  0  0  0  0
   -8.7244   -0.6868    1.2273 H   0  0  0  0  0  0  0  0  0  0  0  0
  -10.6664    0.8623    1.0378 H   0  0  0  0  0  0  0  0  0  0  0  0
  -10.5282    2.8772   -0.3825 H   0  0  0  0  0  0  0  0  0  0  0  0
   -8.4430    3.3143   -1.5954 H   0  0  0  0  0  0  0  0  0  0  0  0
   -6.4911    1.7622   -1.4076 H   0  0  0  0  0  0  0  0  0  0  0  0
  1  2  1  0
  2  3  1  0
  3  4  2  0
  4  5  1  0
  5  6  2  0
  6  7  1  0
  7  8  2  0
  6  9  1  0
  9 10  2  0
  9 11  2  0
  9 12  1  0
 12 13  1  0
 13 14  1  0
 14 15  1  0
 15 16  1  0
 16 17  1  0
 17 18  1  0
 18 19  1  0
 19 20  1  0
 19 21  1  0
 21 22  1  0
 22 23  2  0
 22 24  1  0
 24 25  2  0
 25 26  1  0
 26 27  2  0
 27 28  1  0
 28 29  2  0
 28 30  1  0
 30 31  2  0
 31 32  1  0
 32 33  2  0
 33 34  1  0
 34 35  2  0
  8  3  1  0
 17 12  1  0
 29 24  1  0
 35 30  1  0
 20 14  1  0
  1 36  1  0
  1 37  1  0
  1 38  1  0
  4 39  1  0
  5 40  1  0
  7 41  1  0
  8 42  1  0
 13 43  1  0
 13 44  1  0
 14 45  1  6
 15 46  1  0
 15 47  1  0
 16 48  1  0
 16 49  1  0
 17 50  1  1
 18 51  1  0
 18 52  1  0
 19 53  1  6
 20 54  1  0
 20 55  1  0
 21 56  1  0
 25 57  1  0
 26 58  1  0
 27 59  1  0
 29 60  1  0
 31 61  1  0
 32 62  1  0
 33 63  1  0
 34 64  1  0
 35 65  1  0
M  END
$$$$
[H]c1c([H])c(C(F)(F)F)c([H])c([H])c1C(=O)N([H])[C@@]([H])(C(=O)N([H])[C@]1([H])C([H])([H])C([H])([H])[C@@]([H])(OC(=O)N2C([H])([H])C([H])([H])OC([H])([H])C2([H])[H])C([H])([H])C1([H])[H])C([H])([H])[H]
     RDKit          3D

 61 63  0  0  0  0  0  0  0  0999 V2000
   -2.8636   -1.8414    1.8147 C   0  0  0  0  0  0  0  0  0  0  0  0
   -3.0651   -1.5084    0.3258 C   0  0  1  0  0  0  0  0  0  0  0  0
   -4.2855   -0.7707    0.1947 N   0  0  0  0  0  0  0  0  0  0  0  0
   -5.4315   -1.2765   -0.4489 C   0  0  0  0  0  0  0  0  0  0  0  0
   -5.4154   -2.4382   -0.9512 O   0  0  0  0  0  0  0  0  0  0  0  0
   -6.6603   -0.4775   -0.5491 C   0  0  0  0  0  0  0  0  0  0  0  0
   -7.8717   -1.0805   -0.8778 C   0  0  0  0  0  0  0  0  0  0  0  0
   -9.0468   -0.3517   -0.9663 C   0  0  0  0  0  0  0  0  0  0  0  0
   -9.0749    1.0029   -0.7309 C   0  0  0  0  0  0  0  0  0  0  0  0
   -7.8843    1.6124   -0.4043 C   0  0  0  0  0  0  0  0  0  0  0  0
   -6.6947    0.8836   -0.3156 C   0  0  0  0  0  0  0  0  0  0  0  0
  -10.3400    1.7877   -0.8289 C   0  0  0  0  0  0  0  0  0  0  0  0
  -10.6499    2.1899   -2.0940 F   0  0  0  0  0  0  0  0  0  0  0  0
  -11.4109    1.0415   -0.3526 F   0  0  0  0  0  0  0  0  0  0  0  0
  -10.2745    2.8901   -0.0044 F   0  0  0  0  0  0  0  0  0  0  0  0
   -1.9221   -0.6652   -0.0970 C   0  0  0  0  0  0  0  0  0  0  0  0
   -2.0671    0.5024   -0.5928 O   0  0  0  0  0  0  0  0  0  0  0  0
   -0.6080   -1.2047    0.0684 N   0  0  0  0  0  0  0  0  0  0  0  0
    0.5881   -0.4484   -0.3134 C   0  0  1  0  0  0  0  0  0  0  0  0
    1.1719    0.1421    0.9713 C   0  0  0  0  0  0  0  0  0  0  0  0
    2.4524    0.8340    0.4886 C   0  0  0  0  0  0  0  0  0  0  0  0
    3.4295   -0.3223    0.2859 C   0  0  1  0  0  0  0  0  0  0  0  0
    2.9458   -1.3472   -0.6379 C   0  0  0  0  0  0  0  0  0  0  0  0
    1.5418   -1.2213   -1.1260 C   0  0  0  0  0  0  0  0  0  0  0  0
    4.6679    0.2662   -0.0527 O   0  0  0  0  0  0  0  0  0  0  0  0
    5.7143    0.3568    0.8337 C   0  0  0  0  0  0  0  0  0  0  0  0
    5.5350   -0.0976    1.9847 O   0  0  0  0  0  0  0  0  0  0  0  0
    6.9238    0.9488    0.4274 N   0  0  0  0  0  0  0  0  0  0  0  0
    8.0158    1.0765    1.3566 C   0  0  0  0  0  0  0  0  0  0  0  0
    9.2614    0.4979    0.7388 C   0  0  0  0  0  0  0  0  0  0  0  0
    9.0968    0.1116   -0.5621 O   0  0  0  0  0  0  0  0  0  0  0  0
    8.4796    1.0252   -1.3892 C   0  0  0  0  0  0  0  0  0  0  0  0
    7.0955    1.4319   -0.9168 C   0  0  0  0  0  0  0  0  0  0  0  0
   -3.2843   -1.0351    2.4550 H   0  0  0  0  0  0  0  0  0  0  0  0
   -3.3264   -2.8312    2.0023 H   0  0  0  0  0  0  0  0  0  0  0  0
   -1.7852   -1.8992    2.0648 H   0  0  0  0  0  0  0  0  0  0  0  0
   -3.1082   -2.4591   -0.2518 H   0  0  0  0  0  0  0  0  0  0  0  0
   -4.2904    0.2057    0.6194 H   0  0  0  0  0  0  0  0  0  0  0  0
   -7.8461   -2.1473   -1.0566 H   0  0  0  0  0  0  0  0  0  0  0  0
  -10.0015   -0.8142   -1.2259 H   0  0  0  0  0  0  0  0  0  0  0  0
   -7.8924    2.6909   -0.2282 H   0  0  0  0  0  0  0  0  0  0  0  0
   -5.7689    1.3882   -0.0697 H   0  0  0  0  0  0  0  0  0  0  0  0
   -0.4631   -2.1292    0.4571 H   0  0  0  0  0  0  0  0  0  0  0  0
    0.1966    0.4585   -0.8573 H   0  0  0  0  0  0  0  0  0  0  0  0
    1.3846   -0.6632    1.6896 H   0  0  0  0  0  0  0  0  0  0  0  0
    0.4620    0.8822    1.3408 H   0  0  0  0  0  0  0  0  0  0  0  0
    2.2390    1.3870   -0.4242 H   0  0  0  0  0  0  0  0  0  0  0  0
    2.8103    1.4392    1.3432 H   0  0  0  0  0  0  0  0  0  0  0  0
    3.5571   -0.7116    1.3352 H   0  0  0  0  0  0  0  0  0  0  0  0
    3.0776   -2.3677   -0.1839 H   0  0  0  0  0  0  0  0  0  0  0  0
    3.6097   -1.3854   -1.5481 H   0  0  0  0  0  0  0  0  0  0  0  0
    1.1133   -2.2592   -1.2710 H   0  0  0  0  0  0  0  0  0  0  0  0
    1.5342   -0.7990   -2.1753 H   0  0  0  0  0  0  0  0  0  0  0  0
    7.7734    0.6250    2.3292 H   0  0  0  0  0  0  0  0  0  0  0  0
    8.2132    2.1772    1.5368 H   0  0  0  0  0  0  0  0  0  0  0  0
    9.4951   -0.4367    1.3292 H   0  0  0  0  0  0  0  0  0  0  0  0
   10.1434    1.1454    0.8705 H   0  0  0  0  0  0  0  0  0  0  0  0
    9.1190    1.8710   -1.6542 H   0  0  0  0  0  0  0  0  0  0  0  0
    8.3141    0.4850   -2.3692 H   0  0  0  0  0  0  0  0  0  0  0  0
    7.0779    2.5559   -0.8843 H   0  0  0  0  0  0  0  0  0  0  0  0
    6.2930    1.0771   -1.5957 H   0  0  0  0  0  0  0  0  0  0  0  0
  1  2  1  0
  2  3  1  0
  3  4  1  0
  4  5  2  0
  4  6  1  0
  6  7  2  0
  7  8  1  0
  8  9  2  0
  9 10  1  0
 10 11  2  0
  9 12  1  0
 12 13  1  0
 12 14  1  0
 12 15  1  0
  2 16  1  0
 16 17  2  0
 16 18  1  0
 18 19  1  0
 19 20  1  0
 20 21  1  0
 21 22  1  0
 22 23  1  0
 23 24  1  0
 22 25  1  0
 25 26  1  0
 26 27  2  0
 26 28  1  0
 28 29  1  0
 29 30  1  0
 30 31  1  0
 31 32  1  0
 32 33  1  0
 11  6  1  0
 24 19  1  0
 33 28  1  0
  1 34  1  0
  1 35  1  0
  1 36  1  0
  2 37  1  6
  3 38  1  0
  7 39  1  0
  8 40  1  0
 10 41  1  0
 11 42  1  0
 18 43  1  0
 19 44  1  6
 20 45  1  0
 20 46  1  0
 21 47  1  0
 21 48  1  0
 22 49  1  1
 23 50  1  0
 23 51  1  0
 24 52  1  0
 24 53  1  0
 29 54  1  0
 29 55  1  0
 30 56  1  0
 30 57  1  0
 32 58  1  0
 32 59  1  0
 33 60  1  0
 33 61  1  0
M  END
$$$$
[H]c1nn(C([H])([H])[H])c([H])c1-c1c([H])c(N2C([H])([H])C([H])([H])N(C([H])([H])[H])C([H])([H])C2([H])[H])c([H])c([H])c1N([H])C(=O)c1nc([H])c(C#N)n1[H]
     RDKit          3D

 51 54  0  0  0  0  0  0  0  0999 V2000
    6.4756    1.6741    0.1368 C   0  0  0  0  0  0  0  0  0  0  0  0
    5.9962    0.3363   -0.1902 N   0  0  0  0  0  0  0  0  0  0  0  0
    5.1746   -0.2113    0.8489 C   0  0  0  0  0  0  0  0  0  0  0  0
    3.9273   -0.8922    0.2704 C   0  0  0  0  0  0  0  0  0  0  0  0
    3.1826    0.1465   -0.4262 N   0  0  0  0  0  0  0  0  0  0  0  0
    3.9623    1.1121   -1.1908 C   0  0  0  0  0  0  0  0  0  0  0  0
    5.3074    0.4275   -1.4614 C   0  0  0  0  0  0  0  0  0  0  0  0
    1.7785    0.2722   -0.4133 C   0  0  0  0  0  0  0  0  0  0  0  0
    1.1780    1.3489   -0.9914 C   0  0  0  0  0  0  0  0  0  0  0  0
   -0.2108    1.4555   -0.9749 C   0  0  0  0  0  0  0  0  0  0  0  0
   -1.0621    0.5363   -0.4053 C   0  0  0  0  0  0  0  0  0  0  0  0
   -2.4745    0.6026   -0.4286 N   0  0  0  0  0  0  0  0  0  0  0  0
   -3.2337    1.6890   -0.8340 C   0  0  0  0  0  0  0  0  0  0  0  0
   -2.7698    2.7611   -1.2306 O   0  0  0  0  0  0  0  0  0  0  0  0
   -4.7130    1.5755   -0.7963 C   0  0  0  0  0  0  0  0  0  0  0  0
   -5.6079    2.5333   -1.1555 N   0  0  0  0  0  0  0  0  0  0  0  0
   -6.8228    1.9995   -0.9604 C   0  0  0  0  0  0  0  0  0  0  0  0
   -6.6990    0.7220   -0.4846 C   0  0  0  0  0  0  0  0  0  0  0  0
   -5.3617    0.4772   -0.3895 N   0  0  0  0  0  0  0  0  0  0  0  0
   -7.7827   -0.1432   -0.1658 C   0  0  0  0  0  0  0  0  0  0  0  0
   -8.6566   -0.8667    0.0972 N   0  0  0  0  0  0  0  0  0  0  0  0
   -0.4090   -0.5549    0.1799 C   0  0  0  0  0  0  0  0  0  0  0  0
    0.9625   -0.6679    0.1668 C   0  0  0  0  0  0  0  0  0  0  0  0
   -1.1431   -1.5861    0.8650 C   0  0  0  0  0  0  0  0  0  0  0  0
   -1.1194   -2.9420    0.6355 C   0  0  0  0  0  0  0  0  0  0  0  0
   -1.9220   -3.5165    1.5410 N   0  0  0  0  0  0  0  0  0  0  0  0
   -2.4471   -2.5999    2.3244 N   0  0  0  0  0  0  0  0  0  0  0  0
   -3.3644   -2.8043    3.4263 C   0  0  0  0  0  0  0  0  0  0  0  0
   -1.9868   -1.4041    1.9330 C   0  0  0  0  0  0  0  0  0  0  0  0
    7.5675    1.5848    0.3139 H   0  0  0  0  0  0  0  0  0  0  0  0
    5.9216    2.0080    1.0362 H   0  0  0  0  0  0  0  0  0  0  0  0
    6.3469    2.3820   -0.7141 H   0  0  0  0  0  0  0  0  0  0  0  0
    5.7548   -1.0292    1.3640 H   0  0  0  0  0  0  0  0  0  0  0  0
    4.8722    0.5145    1.6221 H   0  0  0  0  0  0  0  0  0  0  0  0
    3.3516   -1.2916    1.1203 H   0  0  0  0  0  0  0  0  0  0  0  0
    4.2361   -1.7134   -0.4000 H   0  0  0  0  0  0  0  0  0  0  0  0
    3.4619    1.3125   -2.1837 H   0  0  0  0  0  0  0  0  0  0  0  0
    4.0624    2.0257   -0.6077 H   0  0  0  0  0  0  0  0  0  0  0  0
    5.0683   -0.5701   -1.8712 H   0  0  0  0  0  0  0  0  0  0  0  0
    5.8900    1.0398   -2.1623 H   0  0  0  0  0  0  0  0  0  0  0  0
    1.7618    2.1544   -1.4793 H   0  0  0  0  0  0  0  0  0  0  0  0
   -0.6280    2.3355   -1.4617 H   0  0  0  0  0  0  0  0  0  0  0  0
   -2.9519   -0.3022   -0.1135 H   0  0  0  0  0  0  0  0  0  0  0  0
   -7.8008    2.4746   -1.1402 H   0  0  0  0  0  0  0  0  0  0  0  0
   -4.9718   -0.4485   -0.0437 H   0  0  0  0  0  0  0  0  0  0  0  0
    1.4149   -1.5575    0.6442 H   0  0  0  0  0  0  0  0  0  0  0  0
   -0.5676   -3.4817   -0.1251 H   0  0  0  0  0  0  0  0  0  0  0  0
   -4.1153   -3.5781    3.2042 H   0  0  0  0  0  0  0  0  0  0  0  0
   -2.7401   -3.0629    4.3213 H   0  0  0  0  0  0  0  0  0  0  0  0
   -3.8813   -1.8432    3.6809 H   0  0  0  0  0  0  0  0  0  0  0  0
   -2.2118   -0.4336    2.3540 H   0  0  0  0  0  0  0  0  0  0  0  0
  1  2  1  0
  2  3  1  0
  3  4  1  0
  4  5  1  0
  5  6  1  0
  6  7  1  0
  5  8  1  0
  8  9  2  0
  9 10  1  0
 10 11  2  0
 11 12  1  0
 12 13  1  0
 13 14  2  0
 13 15  1  0
 15 16  2  0
 16 17  1  0
 17 18  2  0
 18 19  1  0
 18 20  1  0
 20 21  3  0
 11 22  1  0
 22 23  2  0
 22 24  1  0
 24 25  1  0
 25 26  2  0
 26 27  1  0
 27 28  1  0
 27 29  1  0
  7  2  1  0
 23  8  1  0
 29 24  2  0
 19 15  1  0
  1 30  1  0
  1 31  1  0
  1 32  1  0
  3 33  1  0
  3 34  1  0
  4 35  1  0
  4 36  1  0
  6 37  1  0
  6 38  1  0
  7 39  1  0
  7 40  1  0
  9 41  1  0
 10 42  1  0
 12 43  1  0
 17 44  1  0
 19 45  1  0
 23 46  1  0
 25 47  1  0
 28 48  1  0
 28 49  1  0
 28 50  1  0
 29 51  1  0
M  END
$$$$
[H]N=C(N([H])[H])N([H])C([H])([H])C([H])([H])C([H])([H])[C@]([H])(C(=O)N([H])[C@]([H])(C(=O)N([H])[C@]([H])(C(=O)N([H])[C@]([H])(C(=O)N([H])[H])C([H])([H])C([H])(C([H])([H])[H])C([H])([H])[H])C([H])([H])c1c([H])c([H])c([H])c([H])c1[H])C([H])([H])c1c([H])c([H])c([H])c([H])c1[H])N([H])C(=O)[C@@]([H])(N([H])C(=O)[C@@]([H])(N([H])C(=O)[C@@]([H])(N([H])C(=O)OC([H])([H])c1c([H])c([H])c([H])c([H])c1[H])C([H])([H])c1c([H])c([H])c([H])c([H])c1[H])C([H])([H])c1c([H])c([H])c([H])c([H])c1[H])C([H])([H])c1c([H])c([H])c([H])c([H])c1[H]
     RDKit          3D

162167  0  0  0  0  0  0  0  0999 V2000
    9.1183    5.8807   -1.4767 C   0  0  0  0  0  0  0  0  0  0  0  0
   10.1325    5.7022   -0.3404 C   0  0  0  0  0  0  0  0  0  0  0  0
   10.0625    7.0179    0.4694 C   0  0  0  0  0  0  0  0  0  0  0  0
    9.6513    4.6300    0.5599 C   0  0  0  0  0  0  0  0  0  0  0  0
    9.4674    3.2672   -0.0348 C   0  0  2  0  0  0  0  0  0  0  0  0
    8.9738    2.4153    1.0581 N   0  0  0  0  0  0  0  0  0  0  0  0
    8.0153    1.3988    0.8058 C   0  0  0  0  0  0  0  0  0  0  0  0
    7.6961    1.3105   -0.4443 O   0  0  0  0  0  0  0  0  0  0  0  0
    7.3678    0.4832    1.7230 C   0  0  2  0  0  0  0  0  0  0  0  0
    8.1419   -0.3386    2.6642 C   0  0  0  0  0  0  0  0  0  0  0  0
    9.0164    0.3038    3.6536 C   0  0  0  0  0  0  0  0  0  0  0  0
   10.3809    0.3476    3.5391 C   0  0  0  0  0  0  0  0  0  0  0  0
   11.1436    0.9708    4.4807 C   0  0  0  0  0  0  0  0  0  0  0  0
   10.5858    1.5840    5.5843 C   0  0  0  0  0  0  0  0  0  0  0  0
    9.1948    1.5316    5.6854 C   0  0  0  0  0  0  0  0  0  0  0  0
    8.4085    0.9084    4.7478 C   0  0  0  0  0  0  0  0  0  0  0  0
    6.6141   -0.4598    0.8479 N   0  0  0  0  0  0  0  0  0  0  0  0
    5.2844   -0.3708    0.4679 C   0  0  0  0  0  0  0  0  0  0  0  0
    4.5630    0.5751    0.8544 O   0  0  0  0  0  0  0  0  0  0  0  0
    4.7099   -1.4451   -0.4431 C   0  0  2  0  0  0  0  0  0  0  0  0
    5.6767   -1.7407   -1.5428 C   0  0  0  0  0  0  0  0  0  0  0  0
    5.2389   -2.7537   -2.5194 C   0  0  0  0  0  0  0  0  0  0  0  0
    5.4412   -4.1210   -2.3328 C   0  0  0  0  0  0  0  0  0  0  0  0
    5.0723   -5.0292   -3.2915 C   0  0  0  0  0  0  0  0  0  0  0  0
    4.4913   -4.6008   -4.4653 C   0  0  0  0  0  0  0  0  0  0  0  0
    4.2842   -3.2619   -4.6645 C   0  0  0  0  0  0  0  0  0  0  0  0
    4.6574   -2.3467   -3.6934 C   0  0  0  0  0  0  0  0  0  0  0  0
    3.3948   -1.1490   -0.8734 N   0  0  0  0  0  0  0  0  0  0  0  0
    2.1910   -1.7299   -0.3350 C   0  0  0  0  0  0  0  0  0  0  0  0
    2.3096   -2.5517    0.5870 O   0  0  0  0  0  0  0  0  0  0  0  0
    0.8851   -1.3388   -0.8732 C   0  0  1  0  0  0  0  0  0  0  0  0
    0.6017   -1.7872   -2.2747 C   0  0  0  0  0  0  0  0  0  0  0  0
    0.5097   -3.2678   -2.4556 C   0  0  0  0  0  0  0  0  0  0  0  0
    0.1593   -3.5423   -3.9200 C   0  0  0  0  0  0  0  0  0  0  0  0
   -0.0535   -4.9312   -4.1339 N   0  0  0  0  0  0  0  0  0  0  0  0
    0.8825   -5.9948   -4.1146 C   0  0  0  0  0  0  0  0  0  0  0  0
    1.1861   -6.6909   -5.3405 N   0  0  0  0  0  0  0  0  0  0  0  0
    1.4889   -6.3975   -3.0630 N   0  0  0  0  0  0  0  0  0  0  0  0
   -0.1296   -1.8542    0.0424 N   0  0  0  0  0  0  0  0  0  0  0  0
   -1.5200   -1.6825   -0.0486 C   0  0  0  0  0  0  0  0  0  0  0  0
   -1.9350   -1.0164   -1.0745 O   0  0  0  0  0  0  0  0  0  0  0  0
   -2.5519   -2.1552    0.8693 C   0  0  2  0  0  0  0  0  0  0  0  0
   -2.3189   -3.4117    1.6265 C   0  0  0  0  0  0  0  0  0  0  0  0
   -2.1194   -4.6738    0.9111 C   0  0  0  0  0  0  0  0  0  0  0  0
   -0.9212   -5.2362    0.6190 C   0  0  0  0  0  0  0  0  0  0  0  0
   -0.7297   -6.4203   -0.0402 C   0  0  0  0  0  0  0  0  0  0  0  0
   -1.8674   -7.1124   -0.4499 C   0  0  0  0  0  0  0  0  0  0  0  0
   -3.0867   -6.5643   -0.1669 C   0  0  0  0  0  0  0  0  0  0  0  0
   -3.2764   -5.3714    0.4971 C   0  0  0  0  0  0  0  0  0  0  0  0
   -3.9013   -2.0981    0.3453 N   0  0  0  0  0  0  0  0  0  0  0  0
   -4.7800   -1.0538    0.6038 C   0  0  0  0  0  0  0  0  0  0  0  0
   -4.3059   -0.0915    1.3094 O   0  0  0  0  0  0  0  0  0  0  0  0
   -6.1682   -0.9654    0.1597 C   0  0  2  0  0  0  0  0  0  0  0  0
   -6.5814   -1.4550   -1.1530 C   0  0  0  0  0  0  0  0  0  0  0  0
   -6.0313   -0.8825   -2.3617 C   0  0  0  0  0  0  0  0  0  0  0  0
   -6.7234    0.1956   -2.9158 C   0  0  0  0  0  0  0  0  0  0  0  0
   -6.3404    0.8275   -4.0753 C   0  0  0  0  0  0  0  0  0  0  0  0
   -5.2233    0.4103   -4.7589 C   0  0  0  0  0  0  0  0  0  0  0  0
   -4.5355   -0.6598   -4.2113 C   0  0  0  0  0  0  0  0  0  0  0  0
   -4.9138   -1.2938   -3.0543 C   0  0  0  0  0  0  0  0  0  0  0  0
   -6.7454    0.3302    0.4974 N   0  0  0  0  0  0  0  0  0  0  0  0
   -7.4830    0.6033    1.6711 C   0  0  0  0  0  0  0  0  0  0  0  0
   -7.6057   -0.4083    2.4663 O   0  0  0  0  0  0  0  0  0  0  0  0
   -8.1056    1.8597    2.0570 C   0  0  2  0  0  0  0  0  0  0  0  0
   -7.2720    3.0651    2.2351 C   0  0  0  0  0  0  0  0  0  0  0  0
   -6.5016    3.5618    1.0932 C   0  0  0  0  0  0  0  0  0  0  0  0
   -7.1414    4.3180    0.0934 C   0  0  0  0  0  0  0  0  0  0  0  0
   -6.4539    4.8454   -0.9726 C   0  0  0  0  0  0  0  0  0  0  0  0
   -5.1096    4.6608   -1.1118 C   0  0  0  0  0  0  0  0  0  0  0  0
   -4.4660    3.9225   -0.1387 C   0  0  0  0  0  0  0  0  0  0  0  0
   -5.1495    3.3857    0.9382 C   0  0  0  0  0  0  0  0  0  0  0  0
   -8.9166    1.6238    3.2634 N   0  0  0  0  0  0  0  0  0  0  0  0
  -10.3190    1.6728    3.2617 C   0  0  0  0  0  0  0  0  0  0  0  0
  -10.9407    1.9186    2.2152 O   0  0  0  0  0  0  0  0  0  0  0  0
  -11.0160    1.4479    4.4347 O   0  0  0  0  0  0  0  0  0  0  0  0
  -12.4505    1.5070    4.3701 C   0  0  0  0  0  0  0  0  0  0  0  0
  -12.7954    2.8662    3.9018 C   0  0  0  0  0  0  0  0  0  0  0  0
  -13.8490    3.0714    3.0449 C   0  0  0  0  0  0  0  0  0  0  0  0
  -14.1972    4.3146    2.5843 C   0  0  0  0  0  0  0  0  0  0  0  0
  -13.4275    5.3827    3.0253 C   0  0  0  0  0  0  0  0  0  0  0  0
  -12.3781    5.1996    3.8757 C   0  0  0  0  0  0  0  0  0  0  0  0
  -12.0413    3.9305    4.3319 C   0  0  0  0  0  0  0  0  0  0  0  0
   10.8239    2.7112   -0.3616 C   0  0  0  0  0  0  0  0  0  0  0  0
   11.6251    3.2165   -1.4248 N   0  0  0  0  0  0  0  0  0  0  0  0
   11.3011    1.7623    0.3049 O   0  0  0  0  0  0  0  0  0  0  0  0
    9.1036    4.9535   -2.0492 H   0  0  0  0  0  0  0  0  0  0  0  0
    9.3579    6.7772   -2.0774 H   0  0  0  0  0  0  0  0  0  0  0  0
    8.1308    5.9925   -0.9756 H   0  0  0  0  0  0  0  0  0  0  0  0
   11.1372    5.5622   -0.7414 H   0  0  0  0  0  0  0  0  0  0  0  0
   10.2540    7.8894   -0.1697 H   0  0  0  0  0  0  0  0  0  0  0  0
    9.1301    7.0573    1.0551 H   0  0  0  0  0  0  0  0  0  0  0  0
   10.8922    6.9488    1.2279 H   0  0  0  0  0  0  0  0  0  0  0  0
    8.7063    4.9605    1.0576 H   0  0  0  0  0  0  0  0  0  0  0  0
   10.3799    4.4870    1.4114 H   0  0  0  0  0  0  0  0  0  0  0  0
    8.8295    3.2130   -0.9175 H   0  0  0  0  0  0  0  0  0  0  0  0
    9.3322    2.6052    1.9930 H   0  0  0  0  0  0  0  0  0  0  0  0
    6.5279    0.9958    2.2853 H   0  0  0  0  0  0  0  0  0  0  0  0
    8.7962   -1.1000    2.1266 H   0  0  0  0  0  0  0  0  0  0  0  0
    7.4384   -1.0410    3.2409 H   0  0  0  0  0  0  0  0  0  0  0  0
   10.8704   -0.1267    2.6705 H   0  0  0  0  0  0  0  0  0  0  0  0
   12.2397    1.0196    4.4206 H   0  0  0  0  0  0  0  0  0  0  0  0
   11.2041    2.0750    6.3343 H   0  0  0  0  0  0  0  0  0  0  0  0
    8.7313    1.9978    6.5253 H   0  0  0  0  0  0  0  0  0  0  0  0
    7.3108    0.8790    4.8466 H   0  0  0  0  0  0  0  0  0  0  0  0
    7.2599   -1.2583    0.5414 H   0  0  0  0  0  0  0  0  0  0  0  0
    4.6972   -2.3713    0.2252 H   0  0  0  0  0  0  0  0  0  0  0  0
    6.6874   -2.0338   -1.1251 H   0  0  0  0  0  0  0  0  0  0  0  0
    5.8673   -0.7814   -2.1075 H   0  0  0  0  0  0  0  0  0  0  0  0
    5.8904   -4.4802   -1.4295 H   0  0  0  0  0  0  0  0  0  0  0  0
    5.2340   -6.1031   -3.1458 H   0  0  0  0  0  0  0  0  0  0  0  0
    4.1905   -5.2893   -5.2380 H   0  0  0  0  0  0  0  0  0  0  0  0
    3.8405   -2.8983   -5.5612 H   0  0  0  0  0  0  0  0  0  0  0  0
    4.4578   -1.2900   -3.9070 H   0  0  0  0  0  0  0  0  0  0  0  0
    3.2537   -0.4504   -1.6518 H   0  0  0  0  0  0  0  0  0  0  0  0
    0.7016   -0.2208   -0.9179 H   0  0  0  0  0  0  0  0  0  0  0  0
   -0.2889   -1.3075   -2.6723 H   0  0  0  0  0  0  0  0  0  0  0  0
    1.4317   -1.3909   -2.9574 H   0  0  0  0  0  0  0  0  0  0  0  0
    1.4373   -3.8153   -2.2395 H   0  0  0  0  0  0  0  0  0  0  0  0
   -0.3753   -3.6094   -1.8887 H   0  0  0  0  0  0  0  0  0  0  0  0
   -0.7546   -2.9763   -4.2239 H   0  0  0  0  0  0  0  0  0  0  0  0
    0.9954   -3.2228   -4.5670 H   0  0  0  0  0  0  0  0  0  0  0  0
   -1.0638   -5.2837   -4.3551 H   0  0  0  0  0  0  0  0  0  0  0  0
    1.8600   -6.2723   -5.9884 H   0  0  0  0  0  0  0  0  0  0  0  0
    0.7157   -7.5831   -5.5258 H   0  0  0  0  0  0  0  0  0  0  0  0
    2.1712   -7.1810   -3.0675 H   0  0  0  0  0  0  0  0  0  0  0  0
    0.2298   -2.4011    0.8644 H   0  0  0  0  0  0  0  0  0  0  0  0
   -2.5137   -1.3290    1.7144 H   0  0  0  0  0  0  0  0  0  0  0  0
   -3.1286   -3.5776    2.3940 H   0  0  0  0  0  0  0  0  0  0  0  0
   -1.3895   -3.3129    2.2897 H   0  0  0  0  0  0  0  0  0  0  0  0
    0.0073   -4.7321    0.9246 H   0  0  0  0  0  0  0  0  0  0  0  0
    0.2287   -6.8543   -0.2624 H   0  0  0  0  0  0  0  0  0  0  0  0
   -1.7543   -8.0660   -0.9809 H   0  0  0  0  0  0  0  0  0  0  0  0
   -3.9817   -7.1286   -0.5014 H   0  0  0  0  0  0  0  0  0  0  0  0
   -4.2617   -4.9986    0.6955 H   0  0  0  0  0  0  0  0  0  0  0  0
   -4.2072   -2.8801   -0.2649 H   0  0  0  0  0  0  0  0  0  0  0  0
   -6.7182   -1.6556    0.9194 H   0  0  0  0  0  0  0  0  0  0  0  0
   -6.4021   -2.5744   -1.2034 H   0  0  0  0  0  0  0  0  0  0  0  0
   -7.7062   -1.4010   -1.1900 H   0  0  0  0  0  0  0  0  0  0  0  0
   -7.6241    0.5837   -2.4357 H   0  0  0  0  0  0  0  0  0  0  0  0
   -6.8880    1.6735   -4.5058 H   0  0  0  0  0  0  0  0  0  0  0  0
   -4.8809    0.8819   -5.6871 H   0  0  0  0  0  0  0  0  0  0  0  0
   -3.6398   -1.0209   -4.7369 H   0  0  0  0  0  0  0  0  0  0  0  0
   -4.3343   -2.1101   -2.6905 H   0  0  0  0  0  0  0  0  0  0  0  0
   -6.6071    1.0711   -0.2019 H   0  0  0  0  0  0  0  0  0  0  0  0
   -8.8581    2.1038    1.2450 H   0  0  0  0  0  0  0  0  0  0  0  0
   -6.4923    2.9003    3.0607 H   0  0  0  0  0  0  0  0  0  0  0  0
   -7.9276    3.9076    2.5826 H   0  0  0  0  0  0  0  0  0  0  0  0
   -8.1999    4.4892    0.1592 H   0  0  0  0  0  0  0  0  0  0  0  0
   -6.9826    5.4329   -1.7283 H   0  0  0  0  0  0  0  0  0  0  0  0
   -4.5528    5.0827   -1.9615 H   0  0  0  0  0  0  0  0  0  0  0  0
   -3.3807    3.7639   -0.2378 H   0  0  0  0  0  0  0  0  0  0  0  0
   -4.6015    2.8005    1.6881 H   0  0  0  0  0  0  0  0  0  0  0  0
   -8.3995    1.4159    4.1225 H   0  0  0  0  0  0  0  0  0  0  0  0
  -12.8729    0.6949    3.7718 H   0  0  0  0  0  0  0  0  0  0  0  0
  -12.8078    1.3932    5.4378 H   0  0  0  0  0  0  0  0  0  0  0  0
  -14.4668    2.2323    2.6876 H   0  0  0  0  0  0  0  0  0  0  0  0
  -15.0374    4.4916    1.9082 H   0  0  0  0  0  0  0  0  0  0  0  0
  -13.6928    6.3965    2.6670 H   0  0  0  0  0  0  0  0  0  0  0  0
  -11.7784    6.0561    4.2093 H   0  0  0  0  0  0  0  0  0  0  0  0
  -11.1878    3.8438    5.0127 H   0  0  0  0  0  0  0  0  0  0  0  0
   11.2171    3.5075   -2.3506 H   0  0  0  0  0  0  0  0  0  0  0  0
   12.6429    3.3102   -1.3016 H   0  0  0  0  0  0  0  0  0  0  0  0
  1  2  1  0
  2  3  1  0
  2  4  1  0
  4  5  1  0
  5  6  1  0
  6  7  1  0
  7  8  2  0
  7  9  1  0
  9 10  1  0
 10 11  1  0
 11 12  2  0
 12 13  1  0
 13 14  2  0
 14 15  1  0
 15 16  2  0
  9 17  1  0
 17 18  1  0
 18 19  2  0
 18 20  1  0
 20 21  1  0
 21 22  1  0
 22 23  2  0
 23 24  1  0
 24 25  2  0
 25 26  1  0
 26 27  2  0
 20 28  1  0
 28 29  1  0
 29 30  2  0
 29 31  1  0
 31 32  1  0
 32 33  1  0
 33 34  1  0
 34 35  1  0
 35 36  1  0
 36 37  1  0
 36 38  2  3
 31 39  1  0
 39 40  1  0
 40 41  2  0
 40 42  1  0
 42 43  1  0
 43 44  1  0
 44 45  2  0
 45 46  1  0
 46 47  2  0
 47 48  1  0
 48 49  2  0
 42 50  1  0
 50 51  1  0
 51 52  2  0
 51 53  1  0
 53 54  1  0
 54 55  1  0
 55 56  2  0
 56 57  1  0
 57 58  2  0
 58 59  1  0
 59 60  2  0
 53 61  1  0
 61 62  1  0
 62 63  2  0
 62 64  1  0
 64 65  1  0
 65 66  1  0
 66 67  2  0
 67 68  1  0
 68 69  2  0
 69 70  1  0
 70 71  2  0
 64 72  1  0
 72 73  1  0
 73 74  2  0
 73 75  1  0
 75 76  1  0
 76 77  1  0
 77 78  2  0
 78 79  1  0
 79 80  2  0
 80 81  1  0
 81 82  2  0
  5 83  1  0
 83 84  1  0
 83 85  2  0
 16 11  1  0
 27 22  1  0
 49 44  1  0
 60 55  1  0
 71 66  1  0
 82 77  1  0
  1 86  1  0
  1 87  1  0
  1 88  1  0
  2 89  1  0
  3 90  1  0
  3 91  1  0
  3 92  1  0
  4 93  1  0
  4 94  1  0
  5 95  1  6
  6 96  1  0
  9 97  1  1
 10 98  1  0
 10 99  1  0
 12100  1  0
 13101  1  0
 14102  1  0
 15103  1  0
 16104  1  0
 17105  1  0
 20106  1  1
 21107  1  0
 21108  1  0
 23109  1  0
 24110  1  0
 25111  1  0
 26112  1  0
 27113  1  0
 28114  1  0
 31115  1  6
 32116  1  0
 32117  1  0
 33118  1  0
 33119  1  0
 34120  1  0
 34121  1  0
 35122  1  0
 37123  1  0
 37124  1  0
 38125  1  0
 39126  1  0
 42127  1  1
 43128  1  0
 43129  1  0
 45130  1  0
 46131  1  0
 47132  1  0
 48133  1  0
 49134  1  0
 50135  1  0
 53136  1  1
 54137  1  0
 54138  1  0
 56139  1  0
 57140  1  0
 58141  1  0
 59142  1  0
 60143  1  0
 61144  1  0
 64145  1  6
 65146  1  0
 65147  1  0
 67148  1  0
 68149  1  0
 69150  1  0
 70151  1  0
 71152  1  0
 72153  1  0
 76154  1  0
 76155  1  0
 78156  1  0
 79157  1  0
 80158  1  0
 81159  1  0
 82160  1  0
 84161  1  0
 84162  1  0
M  END
$$$$
[H]c1c([H])c([H])c(C([H])([H])[C@@]([H])(C(=O)N([H])[H])N([H])C(=O)[C@@]([H])(N([H])C(=O)[C@@]([H])(N([H])C(=O)[C@@]([H])(N([H])C(=O)c2c([H])n([H])c3c([H])c([H])c([H])c([H])c23)C([H])([H])C([H])(C([H])([H])[H])C([H])([H])[H])C([H])([H])c2c([H])c([H])c([H])c([H])c2[H])C([H])([H])c2c([H])c([H])c([H])c([H])c2[H])c([H])c1[H]
     RDKit          3D

 99103  0  0  0  0  0  0  0  0999 V2000
   -1.6169    2.2470   -2.6026 C   0  0  0  0  0  0  0  0  0  0  0  0
   -2.3376    1.8517   -1.2984 C   0  0  0  0  0  0  0  0  0  0  0  0
   -3.3530    2.9261   -1.0362 C   0  0  0  0  0  0  0  0  0  0  0  0
   -2.8759    0.4853   -1.5322 C   0  0  0  0  0  0  0  0  0  0  0  0
   -3.6200   -0.1441   -0.3971 C   0  0  2  0  0  0  0  0  0  0  0  0
   -4.7833    0.5566   -0.0032 N   0  0  0  0  0  0  0  0  0  0  0  0
   -5.3065    1.1235    1.1269 C   0  0  0  0  0  0  0  0  0  0  0  0
   -4.7301    1.1826    2.2377 O   0  0  0  0  0  0  0  0  0  0  0  0
   -6.6561    1.7440    1.1464 C   0  0  0  0  0  0  0  0  0  0  0  0
   -7.0181    2.8891    1.8198 C   0  0  0  0  0  0  0  0  0  0  0  0
   -8.2948    3.0983    1.5198 N   0  0  0  0  0  0  0  0  0  0  0  0
   -8.7792    2.1642    0.6989 C   0  0  0  0  0  0  0  0  0  0  0  0
  -10.0384    2.0091    0.1736 C   0  0  0  0  0  0  0  0  0  0  0  0
  -10.3265    0.9413   -0.6457 C   0  0  0  0  0  0  0  0  0  0  0  0
   -9.3008    0.0567   -0.9018 C   0  0  0  0  0  0  0  0  0  0  0  0
   -8.0361    0.2175   -0.3712 C   0  0  0  0  0  0  0  0  0  0  0  0
   -7.7278    1.2808    0.4503 C   0  0  0  0  0  0  0  0  0  0  0  0
   -2.7458   -0.7326    0.6269 C   0  0  0  0  0  0  0  0  0  0  0  0
   -2.9976   -0.6883    1.8337 O   0  0  0  0  0  0  0  0  0  0  0  0
   -1.5432   -1.3982    0.2664 N   0  0  0  0  0  0  0  0  0  0  0  0
   -0.6132   -2.0237    1.1790 C   0  0  1  0  0  0  0  0  0  0  0  0
   -0.4622   -3.4740    0.9915 C   0  0  0  0  0  0  0  0  0  0  0  0
   -0.0096   -3.9377   -0.3067 C   0  0  0  0  0  0  0  0  0  0  0  0
    1.2451   -4.1689   -0.7563 C   0  0  0  0  0  0  0  0  0  0  0  0
    1.5329   -4.5979   -2.0225 C   0  0  0  0  0  0  0  0  0  0  0  0
    0.5256   -4.8219   -2.9294 C   0  0  0  0  0  0  0  0  0  0  0  0
   -0.7811   -4.6005   -2.5208 C   0  0  0  0  0  0  0  0  0  0  0  0
   -1.0367   -4.1685   -1.2373 C   0  0  0  0  0  0  0  0  0  0  0  0
    0.5700   -1.2030    1.3581 C   0  0  0  0  0  0  0  0  0  0  0  0
    0.4089    0.0540    1.1322 O   0  0  0  0  0  0  0  0  0  0  0  0
    1.8583   -1.5827    1.7391 N   0  0  0  0  0  0  0  0  0  0  0  0
    2.9607   -0.6375    1.9029 C   0  0  1  0  0  0  0  0  0  0  0  0
    3.8782   -1.1326    2.9506 C   0  0  0  0  0  0  0  0  0  0  0  0
    3.2904   -1.2970    4.2746 C   0  0  0  0  0  0  0  0  0  0  0  0
    3.3454   -0.2259    5.1540 C   0  0  0  0  0  0  0  0  0  0  0  0
    2.8328   -0.2554    6.4252 C   0  0  0  0  0  0  0  0  0  0  0  0
    2.2235   -1.4352    6.8470 C   0  0  0  0  0  0  0  0  0  0  0  0
    2.1585   -2.5059    5.9929 C   0  0  0  0  0  0  0  0  0  0  0  0
    2.6891   -2.4535    4.6989 C   0  0  0  0  0  0  0  0  0  0  0  0
    3.5641   -0.4914    0.5560 C   0  0  0  0  0  0  0  0  0  0  0  0
    3.1150   -1.1308   -0.4036 O   0  0  0  0  0  0  0  0  0  0  0  0
    4.6425    0.3759    0.3642 N   0  0  0  0  0  0  0  0  0  0  0  0
    5.2687    0.5841   -0.9404 C   0  0  1  0  0  0  0  0  0  0  0  0
    5.1492    2.0499   -1.2181 C   0  0  0  0  0  0  0  0  0  0  0  0
    5.7141    2.4968   -2.5079 C   0  0  0  0  0  0  0  0  0  0  0  0
    4.9227    2.4188   -3.6751 C   0  0  0  0  0  0  0  0  0  0  0  0
    5.3881    2.8525   -4.8747 C   0  0  0  0  0  0  0  0  0  0  0  0
    6.6673    3.3767   -4.9213 C   0  0  0  0  0  0  0  0  0  0  0  0
    7.4520    3.4613   -3.7955 C   0  0  0  0  0  0  0  0  0  0  0  0
    6.9823    3.0220   -2.5799 C   0  0  0  0  0  0  0  0  0  0  0  0
    6.5988    0.0167   -1.0318 C   0  0  0  0  0  0  0  0  0  0  0  0
    7.4854   -0.0284   -2.0994 N   0  0  0  0  0  0  0  0  0  0  0  0
    7.0251   -0.5404    0.0585 O   0  0  0  0  0  0  0  0  0  0  0  0
   -2.3993    2.2394   -3.3866 H   0  0  0  0  0  0  0  0  0  0  0  0
   -0.8235    1.5142   -2.8505 H   0  0  0  0  0  0  0  0  0  0  0  0
   -1.2262    3.2802   -2.5469 H   0  0  0  0  0  0  0  0  0  0  0  0
   -1.5501    1.8738   -0.5100 H   0  0  0  0  0  0  0  0  0  0  0  0
   -3.0138    3.8470   -1.6074 H   0  0  0  0  0  0  0  0  0  0  0  0
   -4.3379    2.6978   -1.4351 H   0  0  0  0  0  0  0  0  0  0  0  0
   -3.3486    3.2656    0.0238 H   0  0  0  0  0  0  0  0  0  0  0  0
   -2.0737   -0.1337   -1.9647 H   0  0  0  0  0  0  0  0  0  0  0  0
   -3.5980    0.6019   -2.4181 H   0  0  0  0  0  0  0  0  0  0  0  0
   -4.0705   -1.1358   -0.8523 H   0  0  0  0  0  0  0  0  0  0  0  0
   -5.4400    0.7047   -0.8943 H   0  0  0  0  0  0  0  0  0  0  0  0
   -6.3910    3.4742    2.4448 H   0  0  0  0  0  0  0  0  0  0  0  0
   -8.8450    3.9050    1.8914 H   0  0  0  0  0  0  0  0  0  0  0  0
  -10.8657    2.6957    0.3622 H   0  0  0  0  0  0  0  0  0  0  0  0
  -11.3012    0.7716   -1.0852 H   0  0  0  0  0  0  0  0  0  0  0  0
   -9.4822   -0.7850   -1.5307 H   0  0  0  0  0  0  0  0  0  0  0  0
   -7.2780   -0.5116   -0.5858 H   0  0  0  0  0  0  0  0  0  0  0  0
   -1.3199   -1.4425   -0.7749 H   0  0  0  0  0  0  0  0  0  0  0  0
   -1.1645   -1.9218    2.1880 H   0  0  0  0  0  0  0  0  0  0  0  0
   -1.4178   -3.9756    1.2535 H   0  0  0  0  0  0  0  0  0  0  0  0
    0.2613   -3.8549    1.7574 H   0  0  0  0  0  0  0  0  0  0  0  0
    2.0553   -4.0010   -0.0591 H   0  0  0  0  0  0  0  0  0  0  0  0
    2.5607   -4.7677   -2.3337 H   0  0  0  0  0  0  0  0  0  0  0  0
    0.7368   -5.1640   -3.9518 H   0  0  0  0  0  0  0  0  0  0  0  0
   -1.5634   -4.7804   -3.2491 H   0  0  0  0  0  0  0  0  0  0  0  0
   -2.0857   -4.0190   -0.9830 H   0  0  0  0  0  0  0  0  0  0  0  0
    2.0619   -2.5826    1.9115 H   0  0  0  0  0  0  0  0  0  0  0  0
    2.4861    0.3628    2.1429 H   0  0  0  0  0  0  0  0  0  0  0  0
    4.3641   -2.1009    2.6881 H   0  0  0  0  0  0  0  0  0  0  0  0
    4.7584   -0.4236    3.0575 H   0  0  0  0  0  0  0  0  0  0  0  0
    3.8200    0.7210    4.8514 H   0  0  0  0  0  0  0  0  0  0  0  0
    2.8873    0.6007    7.1024 H   0  0  0  0  0  0  0  0  0  0  0  0
    1.8254   -1.4453    7.8526 H   0  0  0  0  0  0  0  0  0  0  0  0
    1.6771   -3.4091    6.3449 H   0  0  0  0  0  0  0  0  0  0  0  0
    2.6003   -3.3390    4.0878 H   0  0  0  0  0  0  0  0  0  0  0  0
    5.0347    0.9131    1.1490 H   0  0  0  0  0  0  0  0  0  0  0  0
    4.6141    0.0362   -1.6709 H   0  0  0  0  0  0  0  0  0  0  0  0
    4.0859    2.3992   -1.1603 H   0  0  0  0  0  0  0  0  0  0  0  0
    5.6671    2.6626   -0.4262 H   0  0  0  0  0  0  0  0  0  0  0  0
    3.9341    1.9961   -3.5349 H   0  0  0  0  0  0  0  0  0  0  0  0
    4.7932    2.7987   -5.7692 H   0  0  0  0  0  0  0  0  0  0  0  0
    7.0514    3.7246   -5.8581 H   0  0  0  0  0  0  0  0  0  0  0  0
    8.4677    3.8854   -3.8562 H   0  0  0  0  0  0  0  0  0  0  0  0
    7.6001    3.0941   -1.7159 H   0  0  0  0  0  0  0  0  0  0  0  0
    7.2423   -0.2039   -3.1013 H   0  0  0  0  0  0  0  0  0  0  0  0
    8.5060    0.1255   -1.9127 H   0  0  0  0  0  0  0  0  0  0  0  0
  1  2  1  0
  2  3  1  0
  2  4  1  0
  4  5  1  0
  5  6  1  0
  6  7  1  0
  7  8  2  0
  7  9  1  0
  9 10  2  0
 10 11  1  0
 11 12  1  0
 12 13  2  0
 13 14  1  0
 14 15  2  0
 15 16  1  0
 16 17  2  0
  5 18  1  0
 18 19  2  0
 18 20  1  0
 20 21  1  0
 21 22  1  0
 22 23  1  0
 23 24  2  0
 24 25  1  0
 25 26  2  0
 26 27  1  0
 27 28  2  0
 21 29  1  0
 29 30  2  0
 29 31  1  0
 31 32  1  0
 32 33  1  0
 33 34  1  0
 34 35  2  0
 35 36  1  0
 36 37  2  0
 37 38  1  0
 38 39  2  0
 32 40  1  0
 40 41  2  0
 40 42  1  0
 42 43  1  0
 43 44  1  0
 44 45  1  0
 45 46  2  0
 46 47  1  0
 47 48  2  0
 48 49  1  0
 49 50  2  0
 43 51  1  0
 51 52  1  0
 51 53  2  0
 17  9  1  0
 28 23  1  0
 39 34  1  0
 50 45  1  0
 17 12  1  0
  1 54  1  0
  1 55  1  0
  1 56  1  0
  2 57  1  0
  3 58  1  0
  3 59  1  0
  3 60  1  0
  4 61  1  0
  4 62  1  0
  5 63  1  6
  6 64  1  0
 10 65  1  0
 11 66  1  0
 13 67  1  0
 14 68  1  0
 15 69  1  0
 16 70  1  0
 20 71  1  0
 21 72  1  1
 22 73  1  0
 22 74  1  0
 24 75  1  0
 25 76  1  0
 26 77  1  0
 27 78  1  0
 28 79  1  0
 31 80  1  0
 32 81  1  1
 33 82  1  0
 33 83  1  0
 35 84  1  0
 36 85  1  0
 37 86  1  0
 38 87  1  0
 39 88  1  0
 42 89  1  0
 43 90  1  6
 44 91  1  0
 44 92  1  0
 46 93  1  0
 47 94  1  0
 48 95  1  0
 49 96  1  0
 50 97  1  0
 52 98  1  0
 52 99  1  0
M  END
$$$$
[H]c1c([H])c([H])c(C([H])([H])[C@@]([H])(C(=O)N([H])[C@]([H])(C(=O)N([H])[C@]([H])(C(=O)N([H])[C@]([H])(C(=O)N([H])[H])C([H])([H])c2c([H])c([H])c([H])c([H])c2[H])C([H])([H])c2c([H])c([H])c([H])c([H])c2[H])C([H])([H])C([H])(C([H])([H])[H])C([H])([H])[H])N([H])[H])c([H])c1[H]
     RDKit          3D

 83 85  0  0  0  0  0  0  0  0999 V2000
   -4.8387   -1.7766    0.7559 C   0  0  0  0  0  0  0  0  0  0  0  0
   -3.5605   -1.9493    1.4997 C   0  0  0  0  0  0  0  0  0  0  0  0
   -3.1603   -3.3944    1.4909 C   0  0  0  0  0  0  0  0  0  0  0  0
   -2.5081   -0.9418    1.3821 C   0  0  0  0  0  0  0  0  0  0  0  0
   -1.9332   -0.6142    0.0208 C   0  0  2  0  0  0  0  0  0  0  0  0
   -2.8920   -0.1249   -0.8817 N   0  0  0  0  0  0  0  0  0  0  0  0
   -3.1358    1.2970   -1.0801 C   0  0  0  0  0  0  0  0  0  0  0  0
   -2.4303    2.0734   -0.4004 O   0  0  0  0  0  0  0  0  0  0  0  0
   -4.1442    1.8477   -1.9859 C   0  0  1  0  0  0  0  0  0  0  0  0
   -4.3879    0.9750   -3.1239 N   0  0  0  0  0  0  0  0  0  0  0  0
   -5.4604    1.9426   -1.2202 C   0  0  0  0  0  0  0  0  0  0  0  0
   -5.3701    2.8365   -0.0375 C   0  0  0  0  0  0  0  0  0  0  0  0
   -4.9394    2.3887    1.1977 C   0  0  0  0  0  0  0  0  0  0  0  0
   -4.8699    3.2125    2.3156 C   0  0  0  0  0  0  0  0  0  0  0  0
   -5.2495    4.5232    2.1718 C   0  0  0  0  0  0  0  0  0  0  0  0
   -5.6787    4.9791    0.9622 C   0  0  0  0  0  0  0  0  0  0  0  0
   -5.7532    4.1896   -0.1455 C   0  0  0  0  0  0  0  0  0  0  0  0
   -1.1354   -1.8294   -0.4645 C   0  0  0  0  0  0  0  0  0  0  0  0
   -1.8155   -2.5842   -1.1772 O   0  0  0  0  0  0  0  0  0  0  0  0
    0.1724   -1.9833   -0.0875 N   0  0  0  0  0  0  0  0  0  0  0  0
    1.4854   -2.1385    0.2906 C   0  0  1  0  0  0  0  0  0  0  0  0
    2.4863   -2.4960   -0.7807 C   0  0  0  0  0  0  0  0  0  0  0  0
    2.1759   -3.8057   -1.4299 C   0  0  0  0  0  0  0  0  0  0  0  0
    2.5763   -4.9827   -0.8027 C   0  0  0  0  0  0  0  0  0  0  0  0
    2.3676   -6.2418   -1.3405 C   0  0  0  0  0  0  0  0  0  0  0  0
    1.7348   -6.3158   -2.5523 C   0  0  0  0  0  0  0  0  0  0  0  0
    1.3222   -5.1676   -3.2093 C   0  0  0  0  0  0  0  0  0  0  0  0
    1.5460   -3.9209   -2.6480 C   0  0  0  0  0  0  0  0  0  0  0  0
    2.0470   -0.9709    1.0933 C   0  0  0  0  0  0  0  0  0  0  0  0
    1.3488   -0.6815    2.0774 O   0  0  0  0  0  0  0  0  0  0  0  0
    3.2057   -0.3269    0.7198 N   0  0  0  0  0  0  0  0  0  0  0  0
    3.9860    0.7659    1.2679 C   0  0  1  0  0  0  0  0  0  0  0  0
    5.0315    1.0956    0.2770 C   0  0  0  0  0  0  0  0  0  0  0  0
    5.9946    2.1527    0.4887 C   0  0  0  0  0  0  0  0  0  0  0  0
    7.1276    2.0455    1.2764 C   0  0  0  0  0  0  0  0  0  0  0  0
    8.0887    3.0450    1.3720 C   0  0  0  0  0  0  0  0  0  0  0  0
    7.9140    4.2166    0.6379 C   0  0  0  0  0  0  0  0  0  0  0  0
    6.8268    4.3597   -0.1376 C   0  0  0  0  0  0  0  0  0  0  0  0
    5.8770    3.3652   -0.2256 C   0  0  0  0  0  0  0  0  0  0  0  0
    3.2746    1.8331    1.9364 C   0  0  0  0  0  0  0  0  0  0  0  0
    3.5501    3.2470    1.8821 N   0  0  0  0  0  0  0  0  0  0  0  0
    2.2631    1.6093    2.6935 O   0  0  0  0  0  0  0  0  0  0  0  0
   -5.2954   -0.7960    0.7471 H   0  0  0  0  0  0  0  0  0  0  0  0
   -4.8306   -2.2601   -0.2764 H   0  0  0  0  0  0  0  0  0  0  0  0
   -5.6156   -2.4158    1.2882 H   0  0  0  0  0  0  0  0  0  0  0  0
   -3.9138   -1.7902    2.6076 H   0  0  0  0  0  0  0  0  0  0  0  0
   -2.0712   -3.5915    1.4901 H   0  0  0  0  0  0  0  0  0  0  0  0
   -3.5640   -3.9472    2.3780 H   0  0  0  0  0  0  0  0  0  0  0  0
   -3.5702   -3.8445    0.5588 H   0  0  0  0  0  0  0  0  0  0  0  0
   -1.5997   -1.3384    1.9394 H   0  0  0  0  0  0  0  0  0  0  0  0
   -2.7596    0.0145    1.8923 H   0  0  0  0  0  0  0  0  0  0  0  0
   -1.1703    0.1618    0.2338 H   0  0  0  0  0  0  0  0  0  0  0  0
   -3.4719   -0.7519   -1.4568 H   0  0  0  0  0  0  0  0  0  0  0  0
   -3.8393    2.8167   -2.3474 H   0  0  0  0  0  0  0  0  0  0  0  0
   -3.5499    1.0385   -3.7633 H   0  0  0  0  0  0  0  0  0  0  0  0
   -4.6655    0.0122   -2.9130 H   0  0  0  0  0  0  0  0  0  0  0  0
   -5.7443    0.8990   -0.8740 H   0  0  0  0  0  0  0  0  0  0  0  0
   -6.2535    2.2763   -1.9119 H   0  0  0  0  0  0  0  0  0  0  0  0
   -4.6409    1.3615    1.2876 H   0  0  0  0  0  0  0  0  0  0  0  0
   -4.5111    2.7609    3.2341 H   0  0  0  0  0  0  0  0  0  0  0  0
   -5.1911    5.1723    3.0478 H   0  0  0  0  0  0  0  0  0  0  0  0
   -5.9940    6.0311    0.8761 H   0  0  0  0  0  0  0  0  0  0  0  0
   -6.1003    4.5152   -1.1170 H   0  0  0  0  0  0  0  0  0  0  0  0
    0.1677   -3.2740   -0.5536 H   0  0  0  0  0  0  0  0  0  0  0  0
    1.6127   -3.0236    1.0608 H   0  0  0  0  0  0  0  0  0  0  0  0
    2.4875   -1.7328   -1.5552 H   0  0  0  0  0  0  0  0  0  0  0  0
    3.4661   -2.6536   -0.2441 H   0  0  0  0  0  0  0  0  0  0  0  0
    3.0731   -4.8904    0.1483 H   0  0  0  0  0  0  0  0  0  0  0  0
    2.6925   -7.1588   -0.8532 H   0  0  0  0  0  0  0  0  0  0  0  0
    1.5531   -7.2756   -3.0001 H   0  0  0  0  0  0  0  0  0  0  0  0
    0.8002   -5.2964   -4.1757 H   0  0  0  0  0  0  0  0  0  0  0  0
    1.2003   -3.0621   -3.2026 H   0  0  0  0  0  0  0  0  0  0  0  0
    3.6338   -0.7529   -0.1996 H   0  0  0  0  0  0  0  0  0  0  0  0
    4.5295    0.2525    2.1786 H   0  0  0  0  0  0  0  0  0  0  0  0
    5.6021    0.1272   -0.0206 H   0  0  0  0  0  0  0  0  0  0  0  0
    4.5131    1.2983   -0.7380 H   0  0  0  0  0  0  0  0  0  0  0  0
    7.2742    1.1182    1.8556 H   0  0  0  0  0  0  0  0  0  0  0  0
    8.9821    2.9814    1.9698 H   0  0  0  0  0  0  0  0  0  0  0  0
    8.6627    5.0110    0.7058 H   0  0  0  0  0  0  0  0  0  0  0  0
    6.6958    5.2555   -0.7142 H   0  0  0  0  0  0  0  0  0  0  0  0
    4.9964    3.4593   -0.8435 H   0  0  0  0  0  0  0  0  0  0  0  0
    4.4162    3.6715    2.3084 H   0  0  0  0  0  0  0  0  0  0  0  0
    2.8539    3.8664    1.4129 H   0  0  0  0  0  0  0  0  0  0  0  0
  1  2  1  0
  2  3  1  0
  2  4  1  0
  4  5  1  0
  5  6  1  0
  6  7  1  0
  7  8  2  0
  7  9  1  0
  9 10  1  0
  9 11  1  0
 11 12  1  0
 12 13  2  0
 13 14  1  0
 14 15  2  0
 15 16  1  0
 16 17  2  0
  5 18  1  0
 18 19  2  0
 18 20  1  0
 20 21  1  0
 21 22  1  0
 22 23  1  0
 23 24  2  0
 24 25  1  0
 25 26  2  0
 26 27  1  0
 27 28  2  0
 21 29  1  0
 29 30  2  0
 29 31  1  0
 31 32  1  0
 32 33  1  0
 33 34  1  0
 34 35  2  0
 35 36  1  0
 36 37  2  0
 37 38  1  0
 38 39  2  0
 32 40  1  0
 40 41  1  0
 40 42  2  0
 17 12  1  0
 28 23  1  0
 39 34  1  0
  1 43  1  0
  1 44  1  0
  1 45  1  0
  2 46  1  0
  3 47  1  0
  3 48  1  0
  3 49  1  0
  4 50  1  0
  4 51  1  0
  5 52  1  1
  6 53  1  0
  9 54  1  6
 10 55  1  0
 10 56  1  0
 11 57  1  0
 11 58  1  0
 13 59  1  0
 14 60  1  0
 15 61  1  0
 16 62  1  0
 17 63  1  0
 20 64  1  0
 21 65  1  1
 22 66  1  0
 22 67  1  0
 24 68  1  0
 25 69  1  0
 26 70  1  0
 27 71  1  0
 28 72  1  0
 31 73  1  0
 32 74  1  1
 33 75  1  0
 33 76  1  0
 35 77  1  0
 36 78  1  0
 37 79  1  0
 38 80  1  0
 39 81  1  0
 41 82  1  0
 41 83  1  0
M  END
$$$$
[H]c1nc(N([H])c2c([H])c([H])c(N3C([H])([H])C([H])([H])C([H])([H])C3([H])[H])c([H])c2OC([H])([H])[H])nc(N([H])c2c([H])c([H])c([H])c([H])c2S(=O)(=O)C([H])(C([H])([H])[H])C([H])([H])[H])c1Cl
     RDKit          3D

 62 65  0  0  0  0  0  0  0  0999 V2000
    3.2096   -2.0609    2.6947 C   0  0  0  0  0  0  0  0  0  0  0  0
    2.4224   -1.4133    1.7127 O   0  0  0  0  0  0  0  0  0  0  0  0
    2.9677   -0.3618    0.9953 C   0  0  0  0  0  0  0  0  0  0  0  0
    4.2572    0.0530    1.2291 C   0  0  0  0  0  0  0  0  0  0  0  0
    4.8235    1.0886    0.5366 C   0  0  0  0  0  0  0  0  0  0  0  0
    4.0752    1.7161   -0.4079 C   0  0  0  0  0  0  0  0  0  0  0  0
    2.7540    1.2879   -0.6446 C   0  0  0  0  0  0  0  0  0  0  0  0
    2.1664    0.2666    0.0243 C   0  0  0  0  0  0  0  0  0  0  0  0
    0.8696   -0.1802   -0.1856 N   0  0  0  0  0  0  0  0  0  0  0  0
   -0.1084    0.2853   -1.0961 C   0  0  0  0  0  0  0  0  0  0  0  0
    0.0610    1.2910   -1.9564 N   0  0  0  0  0  0  0  0  0  0  0  0
   -0.8873    1.7043   -2.8056 C   0  0  0  0  0  0  0  0  0  0  0  0
   -2.1134    1.0929   -2.8294 C   0  0  0  0  0  0  0  0  0  0  0  0
   -3.3915    1.5675   -3.9002 Cl  0  0  0  0  0  0  0  0  0  0  0  0
   -2.3447    0.0208   -1.9370 C   0  0  0  0  0  0  0  0  0  0  0  0
   -3.6191   -0.5623   -1.9497 N   0  0  0  0  0  0  0  0  0  0  0  0
   -4.0331   -1.6625   -1.1801 C   0  0  0  0  0  0  0  0  0  0  0  0
   -3.0825   -2.5500   -0.6621 C   0  0  0  0  0  0  0  0  0  0  0  0
   -3.4800   -3.7098   -0.0047 C   0  0  0  0  0  0  0  0  0  0  0  0
   -4.8200   -3.9597    0.1206 C   0  0  0  0  0  0  0  0  0  0  0  0
   -5.7733   -3.1221   -0.3685 C   0  0  0  0  0  0  0  0  0  0  0  0
   -5.4002   -1.9313   -1.0412 C   0  0  0  0  0  0  0  0  0  0  0  0
   -6.6384   -0.8507   -1.5489 S   0  0  0  0  0  0  0  0  0  0  0  0
   -7.9900   -1.6248   -1.4519 O   0  0  0  0  0  0  0  0  0  0  0  0
   -6.4774   -0.4460   -2.9853 O   0  0  0  0  0  0  0  0  0  0  0  0
   -6.8303    0.5130   -0.4913 C   0  0  0  0  0  0  0  0  0  0  0  0
   -7.3705    0.0426    0.8690 C   0  0  0  0  0  0  0  0  0  0  0  0
   -5.5901    1.2834   -0.2036 C   0  0  0  0  0  0  0  0  0  0  0  0
   -1.3250   -0.2996   -1.1400 N   0  0  0  0  0  0  0  0  0  0  0  0
    6.1674    1.4448    0.8462 N   0  0  0  0  0  0  0  0  0  0  0  0
    6.8682    2.5381    0.1883 C   0  0  0  0  0  0  0  0  0  0  0  0
    8.2520    2.5587    0.7521 C   0  0  0  0  0  0  0  0  0  0  0  0
    8.4449    1.1679    1.3147 C   0  0  0  0  0  0  0  0  0  0  0  0
    7.0530    0.8320    1.8113 C   0  0  0  0  0  0  0  0  0  0  0  0
    4.0894   -2.5362    2.1987 H   0  0  0  0  0  0  0  0  0  0  0  0
    2.6755   -2.8565    3.2164 H   0  0  0  0  0  0  0  0  0  0  0  0
    3.5743   -1.2577    3.3766 H   0  0  0  0  0  0  0  0  0  0  0  0
    4.8446   -0.4612    1.9910 H   0  0  0  0  0  0  0  0  0  0  0  0
    4.5234    2.5305   -0.9509 H   0  0  0  0  0  0  0  0  0  0  0  0
    2.2714    1.8655   -1.4148 H   0  0  0  0  0  0  0  0  0  0  0  0
    0.5351   -1.0076    0.4279 H   0  0  0  0  0  0  0  0  0  0  0  0
   -0.7109    2.5334   -3.4969 H   0  0  0  0  0  0  0  0  0  0  0  0
   -4.3140   -0.1463   -2.6066 H   0  0  0  0  0  0  0  0  0  0  0  0
   -2.0227   -2.3788   -0.7743 H   0  0  0  0  0  0  0  0  0  0  0  0
   -2.7473   -4.3997    0.3987 H   0  0  0  0  0  0  0  0  0  0  0  0
   -5.1686   -4.8689    0.6336 H   0  0  0  0  0  0  0  0  0  0  0  0
   -6.8436   -3.3243   -0.2661 H   0  0  0  0  0  0  0  0  0  0  0  0
   -7.6366    1.2216   -0.8449 H   0  0  0  0  0  0  0  0  0  0  0  0
   -8.2066   -0.6669    0.7112 H   0  0  0  0  0  0  0  0  0  0  0  0
   -7.7906    0.9344    1.3833 H   0  0  0  0  0  0  0  0  0  0  0  0
   -6.5680   -0.3436    1.5138 H   0  0  0  0  0  0  0  0  0  0  0  0
   -4.8537    0.7097    0.3759 H   0  0  0  0  0  0  0  0  0  0  0  0
   -5.8201    2.1632    0.4907 H   0  0  0  0  0  0  0  0  0  0  0  0
   -5.2221    1.7511   -1.1308 H   0  0  0  0  0  0  0  0  0  0  0  0
    6.3066    3.4803    0.3755 H   0  0  0  0  0  0  0  0  0  0  0  0
    6.8731    2.3300   -0.9042 H   0  0  0  0  0  0  0  0  0  0  0  0
    8.4205    3.3305    1.5265 H   0  0  0  0  0  0  0  0  0  0  0  0
    8.9618    2.7046   -0.1146 H   0  0  0  0  0  0  0  0  0  0  0  0
    8.6951    0.5113    0.4519 H   0  0  0  0  0  0  0  0  0  0  0  0
    9.2055    1.1239    2.1031 H   0  0  0  0  0  0  0  0  0  0  0  0
    6.8957   -0.2634    1.8903 H   0  0  0  0  0  0  0  0  0  0  0  0
    6.9158    1.3020    2.8021 H   0  0  0  0  0  0  0  0  0  0  0  0
  1  2  1  0
  2  3  1  0
  3  4  2  0
  4  5  1  0
  5  6  2  0
  6  7  1  0
  7  8  2  0
  8  9  1  0
  9 10  1  0
 10 11  2  0
 11 12  1  0
 12 13  2  0
 13 14  1  0
 13 15  1  0
 15 16  1  0
 16 17  1  0
 17 18  2  0
 18 19  1  0
 19 20  2  0
 20 21  1  0
 21 22  2  0
 22 23  1  0
 23 24  2  0
 23 25  2  0
 23 26  1  0
 26 27  1  0
 26 28  1  0
 15 29  2  0
  5 30  1  0
 30 31  1  0
 31 32  1  0
 32 33  1  0
 33 34  1  0
  8  3  1  0
 29 10  1  0
 34 30  1  0
 22 17  1  0
  1 35  1  0
  1 36  1  0
  1 37  1  0
  4 38  1  0
  6 39  1  0
  7 40  1  0
  9 41  1  0
 12 42  1  0
 16 43  1  0
 18 44  1  0
 19 45  1  0
 20 46  1  0
 21 47  1  0
 26 48  1  0
 27 49  1  0
 27 50  1  0
 27 51  1  0
 28 52  1  0
 28 53  1  0
 28 54  1  0
 31 55  1  0
 31 56  1  0
 32 57  1  0
 32 58  1  0
 33 59  1  0
 33 60  1  0
 34 61  1  0
 34 62  1  0
M  END
$$$$
[H]N=C(N([H])[H])N([H])C([H])([H])C([H])([H])C([H])([H])[C@@]([H])(C(=O)c1c([H])c([H])c([H])c([H])c1[H])N([H])C(=O)[C@@]([H])(N([H])C(=O)[C@@]([H])(N([H])C(=O)c1c([H])c([H])c([H])c([H])c1[H])C([H])([H])C([H])(C([H])([H])[H])C([H])([H])[H])C([H])([H])c1c([H])c([H])c([H])c([H])c1[H]
     RDKit          3D

 86 88  0  0  0  0  0  0  0  0999 V2000
   -5.8195   -2.9345    1.2831 C   0  0  0  0  0  0  0  0  0  0  0  0
   -4.6993   -2.0732    1.9151 C   0  0  0  0  0  0  0  0  0  0  0  0
   -5.3847   -0.7783    2.2704 C   0  0  0  0  0  0  0  0  0  0  0  0
   -3.6041   -1.9112    0.9273 C   0  0  0  0  0  0  0  0  0  0  0  0
   -2.4068   -1.1385    1.3214 C   0  0  2  0  0  0  0  0  0  0  0  0
   -2.6252    0.2377    1.6886 N   0  0  0  0  0  0  0  0  0  0  0  0
   -2.2583    0.7903    2.9431 C   0  0  0  0  0  0  0  0  0  0  0  0
   -1.7144    0.0777    3.8014 O   0  0  0  0  0  0  0  0  0  0  0  0
   -2.5120    2.1907    3.2428 C   0  0  0  0  0  0  0  0  0  0  0  0
   -2.5843    2.6666    4.5410 C   0  0  0  0  0  0  0  0  0  0  0  0
   -2.8210    3.9971    4.8261 C   0  0  0  0  0  0  0  0  0  0  0  0
   -2.9997    4.9349    3.8318 C   0  0  0  0  0  0  0  0  0  0  0  0
   -2.9286    4.4693    2.5342 C   0  0  0  0  0  0  0  0  0  0  0  0
   -2.6896    3.1252    2.2310 C   0  0  0  0  0  0  0  0  0  0  0  0
   -1.4204   -1.2193    0.1970 C   0  0  0  0  0  0  0  0  0  0  0  0
   -0.9259   -0.1591   -0.2478 O   0  0  0  0  0  0  0  0  0  0  0  0
   -0.9927   -2.4207   -0.4195 N   0  0  0  0  0  0  0  0  0  0  0  0
   -0.0427   -2.4448   -1.4969 C   0  0  1  0  0  0  0  0  0  0  0  0
   -0.5071   -1.8958   -2.8012 C   0  0  0  0  0  0  0  0  0  0  0  0
   -1.6843   -2.7318   -3.2231 C   0  0  0  0  0  0  0  0  0  0  0  0
   -1.4093   -3.8666   -3.9546 C   0  0  0  0  0  0  0  0  0  0  0  0
   -2.4234   -4.7197   -4.3753 C   0  0  0  0  0  0  0  0  0  0  0  0
   -3.7147   -4.4210   -4.0550 C   0  0  0  0  0  0  0  0  0  0  0  0
   -4.0048   -3.2907   -3.3255 C   0  0  0  0  0  0  0  0  0  0  0  0
   -2.9851   -2.4400   -2.9064 C   0  0  0  0  0  0  0  0  0  0  0  0
    1.2451   -1.8894   -1.0819 C   0  0  0  0  0  0  0  0  0  0  0  0
    1.6847   -2.2305    0.0543 O   0  0  0  0  0  0  0  0  0  0  0  0
    1.9974   -1.0156   -1.8657 N   0  0  0  0  0  0  0  0  0  0  0  0
    3.3276   -0.5061   -1.3788 C   0  0  1  0  0  0  0  0  0  0  0  0
    3.9984   -0.0353   -2.6019 C   0  0  0  0  0  0  0  0  0  0  0  0
    5.3442    0.5588   -2.6064 C   0  0  0  0  0  0  0  0  0  0  0  0
    5.5516    1.8433   -1.8790 C   0  0  0  0  0  0  0  0  0  0  0  0
    4.6813    2.8910   -2.3712 N   0  0  0  0  0  0  0  0  0  0  0  0
    4.5724    4.1007   -1.6694 C   0  0  0  0  0  0  0  0  0  0  0  0
    3.7655    5.1942   -2.1288 N   0  0  0  0  0  0  0  0  0  0  0  0
    5.1982    4.3360   -0.5345 N   0  0  0  0  0  0  0  0  0  0  0  0
    2.9931    0.5063   -0.3498 C   0  0  0  0  0  0  0  0  0  0  0  0
    2.0618    1.3301   -0.6197 O   0  0  0  0  0  0  0  0  0  0  0  0
    3.6443    0.6253    0.9534 C   0  0  0  0  0  0  0  0  0  0  0  0
    3.2698    1.6060    1.8529 C   0  0  0  0  0  0  0  0  0  0  0  0
    3.8897    1.7270    3.0880 C   0  0  0  0  0  0  0  0  0  0  0  0
    4.9027    0.8535    3.4343 C   0  0  0  0  0  0  0  0  0  0  0  0
    5.2648   -0.1140    2.5363 C   0  0  0  0  0  0  0  0  0  0  0  0
    4.6509   -0.2471    1.2934 C   0  0  0  0  0  0  0  0  0  0  0  0
   -5.5124   -3.9737    1.3731 H   0  0  0  0  0  0  0  0  0  0  0  0
   -6.7694   -2.7502    1.7797 H   0  0  0  0  0  0  0  0  0  0  0  0
   -5.9158   -2.6609    0.1924 H   0  0  0  0  0  0  0  0  0  0  0  0
   -4.3719   -2.6403    2.8112 H   0  0  0  0  0  0  0  0  0  0  0  0
   -6.5054   -0.8778    2.2748 H   0  0  0  0  0  0  0  0  0  0  0  0
   -5.1079   -0.3935    3.2825 H   0  0  0  0  0  0  0  0  0  0  0  0
   -5.1836    0.0297    1.5442 H   0  0  0  0  0  0  0  0  0  0  0  0
   -4.0473   -1.4899   -0.0311 H   0  0  0  0  0  0  0  0  0  0  0  0
   -3.3012   -2.9538    0.5941 H   0  0  0  0  0  0  0  0  0  0  0  0
   -1.9285   -1.6516    2.1834 H   0  0  0  0  0  0  0  0  0  0  0  0
   -3.0725    0.8828    0.9983 H   0  0  0  0  0  0  0  0  0  0  0  0
   -2.4452    1.9428    5.3360 H   0  0  0  0  0  0  0  0  0  0  0  0
   -2.8750    4.3635    5.8621 H   0  0  0  0  0  0  0  0  0  0  0  0
   -3.1892    5.9860    4.0247 H   0  0  0  0  0  0  0  0  0  0  0  0
   -3.0654    5.1882    1.7280 H   0  0  0  0  0  0  0  0  0  0  0  0
   -2.6328    2.8021    1.1939 H   0  0  0  0  0  0  0  0  0  0  0  0
   -1.4277   -3.2985   -0.0234 H   0  0  0  0  0  0  0  0  0  0  0  0
    0.1096   -3.5782   -1.7040 H   0  0  0  0  0  0  0  0  0  0  0  0
    0.2834   -1.9705   -3.5997 H   0  0  0  0  0  0  0  0  0  0  0  0
   -0.8321   -0.8425   -2.7843 H   0  0  0  0  0  0  0  0  0  0  0  0
   -0.3961   -4.0947   -4.2035 H   0  0  0  0  0  0  0  0  0  0  0  0
   -2.1965   -5.6233   -4.9578 H   0  0  0  0  0  0  0  0  0  0  0  0
   -4.5391   -5.0647   -4.3623 H   0  0  0  0  0  0  0  0  0  0  0  0
   -5.0145   -3.0091   -3.0456 H   0  0  0  0  0  0  0  0  0  0  0  0
   -3.1991   -1.5531   -2.3395 H   0  0  0  0  0  0  0  0  0  0  0  0
    1.6542   -0.7046   -2.7875 H   0  0  0  0  0  0  0  0  0  0  0  0
    3.8245   -1.3244   -0.8360 H   0  0  0  0  0  0  0  0  0  0  0  0
    4.0482   -0.9400   -3.3138 H   0  0  0  0  0  0  0  0  0  0  0  0
    3.2607    0.6358   -3.1709 H   0  0  0  0  0  0  0  0  0  0  0  0
    6.0864   -0.1899   -2.1842 H   0  0  0  0  0  0  0  0  0  0  0  0
    5.7080    0.7501   -3.6712 H   0  0  0  0  0  0  0  0  0  0  0  0
    6.6088    2.1741   -2.1888 H   0  0  0  0  0  0  0  0  0  0  0  0
    5.5751    1.8292   -0.8120 H   0  0  0  0  0  0  0  0  0  0  0  0
    4.1510    2.7312   -3.2383 H   0  0  0  0  0  0  0  0  0  0  0  0
    3.0335    5.6459   -1.5359 H   0  0  0  0  0  0  0  0  0  0  0  0
    3.9376    5.5332   -3.0998 H   0  0  0  0  0  0  0  0  0  0  0  0
    5.8168    3.6605   -0.0784 H   0  0  0  0  0  0  0  0  0  0  0  0
    2.4590    2.3070    1.5801 H   0  0  0  0  0  0  0  0  0  0  0  0
    3.5976    2.4983    3.7976 H   0  0  0  0  0  0  0  0  0  0  0  0
    5.4188    0.9124    4.3957 H   0  0  0  0  0  0  0  0  0  0  0  0
    6.0584   -0.8279    2.7605 H   0  0  0  0  0  0  0  0  0  0  0  0
    5.0117   -1.0380    0.6564 H   0  0  0  0  0  0  0  0  0  0  0  0
  1  2  1  0
  2  3  1  0
  2  4  1  0
  4  5  1  0
  5  6  1  0
  6  7  1  0
  7  8  2  0
  7  9  1  0
  9 10  2  0
 10 11  1  0
 11 12  2  0
 12 13  1  0
 13 14  2  0
  5 15  1  0
 15 16  2  0
 15 17  1  0
 17 18  1  0
 18 19  1  0
 19 20  1  0
 20 21  2  0
 21 22  1  0
 22 23  2  0
 23 24  1  0
 24 25  2  0
 18 26  1  0
 26 27  2  0
 26 28  1  0
 28 29  1  0
 29 30  1  0
 30 31  1  0
 31 32  1  0
 32 33  1  0
 33 34  1  0
 34 35  1  0
 34 36  2  3
 29 37  1  0
 37 38  2  0
 37 39  1  0
 39 40  2  0
 40 41  1  0
 41 42  2  0
 42 43  1  0
 43 44  2  0
 14  9  1  0
 25 20  1  0
 44 39  1  0
  1 45  1  0
  1 46  1  0
  1 47  1  0
  2 48  1  0
  3 49  1  0
  3 50  1  0
  3 51  1  0
  4 52  1  0
  4 53  1  0
  5 54  1  1
  6 55  1  0
 10 56  1  0
 11 57  1  0
 12 58  1  0
 13 59  1  0
 14 60  1  0
 17 61  1  0
 18 62  1  6
 19 63  1  0
 19 64  1  0
 21 65  1  0
 22 66  1  0
 23 67  1  0
 24 68  1  0
 25 69  1  0
 28 70  1  0
 29 71  1  1
 30 72  1  0
 30 73  1  0
 31 74  1  0
 31 75  1  0
 32 76  1  0
 32 77  1  0
 33 78  1  0
 35 79  1  0
 35 80  1  0
 36 81  1  0
 40 82  1  0
 41 83  1  0
 42 84  1  0
 43 85  1  0
 44 86  1  0
M  END
$$$$
[H]N=C(N([H])[H])N([H])C([H])([H])C([H])([H])C([H])([H])[C@@]([H])(C(=O)N1C([H])([H])C([H])([H])OC([H])([H])C1([H])[H])N([H])C(=O)[C@@]([H])(N([H])C(=O)[C@@]([H])(N([H])C(=O)[C@@]([H])(N([H])[H])C([H])([H])c1c([H])c([H])c([H])c([H])c1[H])C([H])([H])c1c([H])c([H])c([H])c([H])c1[H])C([H])([H])[H]
     RDKit          3D

 88 90  0  0  0  0  0  0  0  0999 V2000
   -0.3649   -0.2351   -2.6684 C   0  0  0  0  0  0  0  0  0  0  0  0
   -0.2591   -0.1392   -1.1544 C   0  0  2  0  0  0  0  0  0  0  0  0
    0.7713   -1.0516   -0.7682 N   0  0  0  0  0  0  0  0  0  0  0  0
    2.0822   -0.6257   -0.4757 C   0  0  0  0  0  0  0  0  0  0  0  0
    2.4003    0.5720   -0.5473 O   0  0  0  0  0  0  0  0  0  0  0  0
    3.0971   -1.7024   -0.0667 C   0  0  2  0  0  0  0  0  0  0  0  0
    3.2626   -1.4232    1.3875 C   0  0  0  0  0  0  0  0  0  0  0  0
    3.8594   -2.3286    2.3183 C   0  0  0  0  0  0  0  0  0  0  0  0
    2.7523   -3.1310    2.9536 C   0  0  0  0  0  0  0  0  0  0  0  0
    3.1572   -4.0514    3.8969 C   0  0  0  0  0  0  0  0  0  0  0  0
    4.4011   -4.3124    4.3125 C   0  0  0  0  0  0  0  0  0  0  0  0
    5.4451   -3.5428    3.7013 C   0  0  0  0  0  0  0  0  0  0  0  0
    5.0748   -2.6178    2.7569 C   0  0  0  0  0  0  0  0  0  0  0  0
    4.2053   -1.1988   -0.9355 N   0  0  0  0  0  0  0  0  0  0  0  0
    5.5025   -0.8676   -0.8819 C   0  0  0  0  0  0  0  0  0  0  0  0
    6.3927   -0.8278   -0.0055 O   0  0  0  0  0  0  0  0  0  0  0  0
    6.0864   -0.3975   -2.2544 C   0  0  1  0  0  0  0  0  0  0  0  0
    5.2476   -0.9393   -3.3279 N   0  0  0  0  0  0  0  0  0  0  0  0
    6.0413    1.0957   -2.2933 C   0  0  0  0  0  0  0  0  0  0  0  0
    6.8632    1.7182   -1.2499 C   0  0  0  0  0  0  0  0  0  0  0  0
    8.1655    2.0106   -1.4114 C   0  0  0  0  0  0  0  0  0  0  0  0
    8.8980    2.6318   -0.4129 C   0  0  0  0  0  0  0  0  0  0  0  0
    8.3741    2.9584    0.7213 C   0  0  0  0  0  0  0  0  0  0  0  0
    6.9449    2.6633    0.9985 C   0  0  0  0  0  0  0  0  0  0  0  0
    6.2974    2.0629   -0.0220 C   0  0  0  0  0  0  0  0  0  0  0  0
   -1.5817   -0.5771   -0.5846 C   0  0  0  0  0  0  0  0  0  0  0  0
   -1.4914   -1.7013    0.0686 O   0  0  0  0  0  0  0  0  0  0  0  0
   -2.7030    0.1092   -0.7359 N   0  0  0  0  0  0  0  0  0  0  0  0
   -3.8977    0.8342   -0.8930 C   0  0  1  0  0  0  0  0  0  0  0  0
   -5.0467   -0.1000   -1.2512 C   0  0  0  0  0  0  0  0  0  0  0  0
   -5.3026   -1.1825   -0.2326 C   0  0  0  0  0  0  0  0  0  0  0  0
   -6.4887   -2.0152   -0.7970 C   0  0  0  0  0  0  0  0  0  0  0  0
   -6.7720   -3.0779    0.1074 N   0  0  0  0  0  0  0  0  0  0  0  0
   -7.2874   -2.7194    1.4002 C   0  0  0  0  0  0  0  0  0  0  0  0
   -7.0614   -3.5594    2.5111 N   0  0  0  0  0  0  0  0  0  0  0  0
   -7.9657   -1.6465    1.4853 N   0  0  0  0  0  0  0  0  0  0  0  0
   -4.2002    1.8622    0.0156 C   0  0  0  0  0  0  0  0  0  0  0  0
   -3.3122    2.0273    1.0770 O   0  0  0  0  0  0  0  0  0  0  0  0
   -5.1988    2.8279    0.1542 N   0  0  0  0  0  0  0  0  0  0  0  0
   -6.2675    2.9236   -0.8252 C   0  0  0  0  0  0  0  0  0  0  0  0
   -6.6968    4.3328   -1.1081 C   0  0  0  0  0  0  0  0  0  0  0  0
   -6.5835    5.2213   -0.0620 O   0  0  0  0  0  0  0  0  0  0  0  0
   -5.3176    5.1576    0.5426 C   0  0  0  0  0  0  0  0  0  0  0  0
   -5.2987    3.7939    1.2390 C   0  0  0  0  0  0  0  0  0  0  0  0
   -1.2731    0.2938   -3.0804 H   0  0  0  0  0  0  0  0  0  0  0  0
   -0.4811   -1.2909   -3.0380 H   0  0  0  0  0  0  0  0  0  0  0  0
    0.5590    0.1227   -3.1412 H   0  0  0  0  0  0  0  0  0  0  0  0
   -0.0628    0.9243   -0.9197 H   0  0  0  0  0  0  0  0  0  0  0  0
    0.4808   -2.0602   -0.6979 H   0  0  0  0  0  0  0  0  0  0  0  0
    2.7813   -2.6574   -0.3392 H   0  0  0  0  0  0  0  0  0  0  0  0
    2.4189   -0.8948    1.8458 H   0  0  0  0  0  0  0  0  0  0  0  0
    4.0371   -0.5024    1.3590 H   0  0  0  0  0  0  0  0  0  0  0  0
    1.7822   -2.9757    2.6765 H   0  0  0  0  0  0  0  0  0  0  0  0
    2.3417   -4.6598    4.3895 H   0  0  0  0  0  0  0  0  0  0  0  0
    4.6993   -5.0217    5.0477 H   0  0  0  0  0  0  0  0  0  0  0  0
    6.4387   -3.7140    3.9841 H   0  0  0  0  0  0  0  0  0  0  0  0
    5.9164   -2.0602    2.3404 H   0  0  0  0  0  0  0  0  0  0  0  0
    3.7629   -1.0305   -1.9775 H   0  0  0  0  0  0  0  0  0  0  0  0
    7.1273   -0.7943   -2.3295 H   0  0  0  0  0  0  0  0  0  0  0  0
    4.8617   -0.1295   -3.8391 H   0  0  0  0  0  0  0  0  0  0  0  0
    5.8549   -1.4765   -3.9859 H   0  0  0  0  0  0  0  0  0  0  0  0
    6.2738    1.4763   -3.3120 H   0  0  0  0  0  0  0  0  0  0  0  0
    4.9400    1.3411   -2.1138 H   0  0  0  0  0  0  0  0  0  0  0  0
    8.6749    1.7562   -2.3489 H   0  0  0  0  0  0  0  0  0  0  0  0
    9.9452    2.8145   -0.6354 H   0  0  0  0  0  0  0  0  0  0  0  0
    8.8517    3.4442    1.5411 H   0  0  0  0  0  0  0  0  0  0  0  0
    6.5618    2.9315    1.9339 H   0  0  0  0  0  0  0  0  0  0  0  0
    5.2231    1.8177    0.1044 H   0  0  0  0  0  0  0  0  0  0  0  0
   -3.2627   -0.4600    0.3537 H   0  0  0  0  0  0  0  0  0  0  0  0
   -3.7042    1.3512   -1.9415 H   0  0  0  0  0  0  0  0  0  0  0  0
   -6.0070    0.4192   -1.3623 H   0  0  0  0  0  0  0  0  0  0  0  0
   -4.8468   -0.5874   -2.2284 H   0  0  0  0  0  0  0  0  0  0  0  0
   -4.5118   -1.9297   -0.1192 H   0  0  0  0  0  0  0  0  0  0  0  0
   -5.6395   -0.8208    0.7481 H   0  0  0  0  0  0  0  0  0  0  0  0
   -6.1600   -2.3864   -1.7966 H   0  0  0  0  0  0  0  0  0  0  0  0
   -7.3710   -1.3437   -0.9842 H   0  0  0  0  0  0  0  0  0  0  0  0
   -6.6141   -4.0532   -0.1412 H   0  0  0  0  0  0  0  0  0  0  0  0
   -7.4247   -4.5264    2.4935 H   0  0  0  0  0  0  0  0  0  0  0  0
   -6.5178   -3.2266    3.3357 H   0  0  0  0  0  0  0  0  0  0  0  0
   -8.3261   -1.4286    2.4971 H   0  0  0  0  0  0  0  0  0  0  0  0
   -5.9490    2.5080   -1.8101 H   0  0  0  0  0  0  0  0  0  0  0  0
   -7.1526    2.3365   -0.4613 H   0  0  0  0  0  0  0  0  0  0  0  0
   -7.7884    4.2969   -1.3599 H   0  0  0  0  0  0  0  0  0  0  0  0
   -6.1911    4.7444   -2.0322 H   0  0  0  0  0  0  0  0  0  0  0  0
   -4.4982    5.2166   -0.2274 H   0  0  0  0  0  0  0  0  0  0  0  0
   -5.2220    6.0087    1.2095 H   0  0  0  0  0  0  0  0  0  0  0  0
   -4.4699    3.7325    1.9796 H   0  0  0  0  0  0  0  0  0  0  0  0
   -6.2834    3.6626    1.7005 H   0  0  0  0  0  0  0  0  0  0  0  0
  1  2  1  0
  2  3  1  0
  3  4  1  0
  4  5  2  0
  4  6  1  0
  6  7  1  0
  7  8  1  0
  8  9  2  0
  9 10  1  0
 10 11  2  0
 11 12  1  0
 12 13  2  0
  6 14  1  0
 14 15  1  0
 15 16  2  0
 15 17  1  0
 17 18  1  0
 17 19  1  0
 19 20  1  0
 20 21  2  0
 21 22  1  0
 22 23  2  0
 23 24  1  0
 24 25  2  0
  2 26  1  0
 26 27  2  0
 26 28  1  0
 28 29  1  0
 29 30  1  0
 30 31  1  0
 31 32  1  0
 32 33  1  0
 33 34  1  0
 34 35  1  0
 34 36  2  3
 29 37  1  0
 37 38  2  0
 37 39  1  0
 39 40  1  0
 40 41  1  0
 41 42  1  0
 42 43  1  0
 43 44  1  0
 13  8  1  0
 25 20  1  0
 44 39  1  0
  1 45  1  0
  1 46  1  0
  1 47  1  0
  2 48  1  6
  3 49  1  0
  6 50  1  1
  7 51  1  0
  7 52  1  0
  9 53  1  0
 10 54  1  0
 11 55  1  0
 12 56  1  0
 13 57  1  0
 14 58  1  0
 17 59  1  6
 18 60  1  0
 18 61  1  0
 19 62  1  0
 19 63  1  0
 21 64  1  0
 22 65  1  0
 23 66  1  0
 24 67  1  0
 25 68  1  0
 28 69  1  0
 29 70  1  6
 30 71  1  0
 30 72  1  0
 31 73  1  0
 31 74  1  0
 32 75  1  0
 32 76  1  0
 33 77  1  0
 35 78  1  0
 35 79  1  0
 36 80  1  0
 40 81  1  0
 40 82  1  0
 41 83  1  0
 41 84  1  0
 43 85  1  0
 43 86  1  0
 44 87  1  0
 44 88  1  0
M  END
$$$$
[H]c1nc(N2C([H])([H])C([H])([H])N(C([H])([H])[H])C([H])([H])C2([H])[H])c([H])c([H])c1N([H])C(=O)c1nc([H])c(C#Cc2c([H])c([H])c(C(F)(F)F)c([H])c2[H])n1[H]
     RDKit          3D

 54 57  0  0  0  0  0  0  0  0999 V2000
   -8.1039   -2.7441    0.8054 C   0  0  0  0  0  0  0  0  0  0  0  0
   -6.6798   -2.5706    0.7238 N   0  0  0  0  0  0  0  0  0  0  0  0
   -6.0571   -2.0672    1.8908 C   0  0  0  0  0  0  0  0  0  0  0  0
   -6.1164   -0.5594    1.9835 C   0  0  0  0  0  0  0  0  0  0  0  0
   -5.6880   -0.0245    0.7274 N   0  0  0  0  0  0  0  0  0  0  0  0
   -6.5474   -0.4070   -0.4199 C   0  0  0  0  0  0  0  0  0  0  0  0
   -6.3023   -1.9364   -0.5099 C   0  0  0  0  0  0  0  0  0  0  0  0
   -4.5209    0.7382    0.5070 C   0  0  0  0  0  0  0  0  0  0  0  0
   -4.4435    1.5569   -0.5868 C   0  0  0  0  0  0  0  0  0  0  0  0
   -3.2351    2.2124   -0.8703 C   0  0  0  0  0  0  0  0  0  0  0  0
   -2.1194    2.0591   -0.0813 C   0  0  0  0  0  0  0  0  0  0  0  0
   -0.8447    2.5669   -0.4851 N   0  0  0  0  0  0  0  0  0  0  0  0
    0.2820    2.6320    0.3227 C   0  0  0  0  0  0  0  0  0  0  0  0
    0.2526    2.3264    1.5591 O   0  0  0  0  0  0  0  0  0  0  0  0
    1.6030    3.0249   -0.2021 C   0  0  0  0  0  0  0  0  0  0  0  0
    2.0676    3.8631   -1.0905 N   0  0  0  0  0  0  0  0  0  0  0  0
    3.4075    3.6015   -1.2847 C   0  0  0  0  0  0  0  0  0  0  0  0
    3.7787    2.5747   -0.4915 C   0  0  0  0  0  0  0  0  0  0  0  0
    2.6650    2.2183    0.1827 N   0  0  0  0  0  0  0  0  0  0  0  0
    5.0049    1.8257   -0.3335 C   0  0  0  0  0  0  0  0  0  0  0  0
    5.9569    1.1311   -0.1785 C   0  0  0  0  0  0  0  0  0  0  0  0
    7.0428    0.2033    0.0517 C   0  0  0  0  0  0  0  0  0  0  0  0
    8.1131    0.5371    0.8292 C   0  0  0  0  0  0  0  0  0  0  0  0
    9.0684   -0.4273    1.0847 C   0  0  0  0  0  0  0  0  0  0  0  0
    8.9953   -1.7246    0.5886 C   0  0  0  0  0  0  0  0  0  0  0  0
    7.9051   -2.0598   -0.2079 C   0  0  0  0  0  0  0  0  0  0  0  0
    6.9669   -1.0884   -0.4512 C   0  0  0  0  0  0  0  0  0  0  0  0
    9.9954   -2.7547    0.8795 C   0  0  0  0  0  0  0  0  0  0  0  0
   11.1450   -2.1136    1.3076 F   0  0  0  0  0  0  0  0  0  0  0  0
   10.2614   -3.4474   -0.2886 F   0  0  0  0  0  0  0  0  0  0  0  0
    9.4922   -3.6009    1.8738 F   0  0  0  0  0  0  0  0  0  0  0  0
   -2.2795    1.2214    1.0184 C   0  0  0  0  0  0  0  0  0  0  0  0
   -3.4356    0.5969    1.2812 N   0  0  0  0  0  0  0  0  0  0  0  0
   -8.5107   -2.8864    1.8019 H   0  0  0  0  0  0  0  0  0  0  0  0
   -8.3144   -3.6608    0.1730 H   0  0  0  0  0  0  0  0  0  0  0  0
   -8.6460   -1.9299    0.2367 H   0  0  0  0  0  0  0  0  0  0  0  0
   -5.0170   -2.4659    1.9186 H   0  0  0  0  0  0  0  0  0  0  0  0
   -6.5877   -2.4988    2.7759 H   0  0  0  0  0  0  0  0  0  0  0  0
   -5.5281   -0.1821    2.8408 H   0  0  0  0  0  0  0  0  0  0  0  0
   -7.1762   -0.2595    2.1387 H   0  0  0  0  0  0  0  0  0  0  0  0
   -7.5763   -0.2295   -0.1065 H   0  0  0  0  0  0  0  0  0  0  0  0
   -6.2061    0.0181   -1.3533 H   0  0  0  0  0  0  0  0  0  0  0  0
   -6.8983   -2.3319   -1.3223 H   0  0  0  0  0  0  0  0  0  0  0  0
   -5.2055   -2.0506   -0.6264 H   0  0  0  0  0  0  0  0  0  0  0  0
   -5.2418    1.7650   -1.2792 H   0  0  0  0  0  0  0  0  0  0  0  0
   -3.1892    2.8673   -1.7317 H   0  0  0  0  0  0  0  0  0  0  0  0
   -0.8081    2.9179   -1.4788 H   0  0  0  0  0  0  0  0  0  0  0  0
    4.0516    4.1299   -1.9531 H   0  0  0  0  0  0  0  0  0  0  0  0
    2.5932    1.4734    0.8802 H   0  0  0  0  0  0  0  0  0  0  0  0
    8.1887    1.5314    1.2230 H   0  0  0  0  0  0  0  0  0  0  0  0
    9.9415   -0.1908    1.7121 H   0  0  0  0  0  0  0  0  0  0  0  0
    7.8456   -3.0689   -0.5849 H   0  0  0  0  0  0  0  0  0  0  0  0
    6.1145   -1.3382   -1.0699 H   0  0  0  0  0  0  0  0  0  0  0  0
   -1.4602    1.0264    1.6802 H   0  0  0  0  0  0  0  0  0  0  0  0
  1  2  1  0
  2  3  1  0
  3  4  1  0
  4  5  1  0
  5  6  1  0
  6  7  1  0
  5  8  1  0
  8  9  2  0
  9 10  1  0
 10 11  2  0
 11 12  1  0
 12 13  1  0
 13 14  2  0
 13 15  1  0
 15 16  2  0
 16 17  1  0
 17 18  2  0
 18 19  1  0
 18 20  1  0
 20 21  3  0
 21 22  1  0
 22 23  2  0
 23 24  1  0
 24 25  2  0
 25 26  1  0
 26 27  2  0
 25 28  1  0
 28 29  1  0
 28 30  1  0
 28 31  1  0
 11 32  1  0
 32 33  2  0
  7  2  1  0
 33  8  1  0
 19 15  1  0
 27 22  1  0
  1 34  1  0
  1 35  1  0
  1 36  1  0
  3 37  1  0
  3 38  1  0
  4 39  1  0
  4 40  1  0
  6 41  1  0
  6 42  1  0
  7 43  1  0
  7 44  1  0
  9 45  1  0
 10 46  1  0
 12 47  1  0
 17 48  1  0
 19 49  1  0
 23 50  1  0
 24 51  1  0
 26 52  1  0
 27 53  1  0
 32 54  1  0
M  END
$$$$
[H]OC(=O)c1c([H])c([H])c([H])c(C(=O)N([H])c2c([H])c([H])c([H])c(C(F)(F)F)c2[H])c1[H]
     RDKit          3D

 32 33  0  0  0  0  0  0  0  0999 V2000
    6.0144    1.7476   -0.9236 O   0  0  0  0  0  0  0  0  0  0  0  0
    4.6981    1.4359   -1.1744 C   0  0  0  0  0  0  0  0  0  0  0  0
    4.1467    1.9660   -2.1581 O   0  0  0  0  0  0  0  0  0  0  0  0
    3.9478    0.5061   -0.3236 C   0  0  0  0  0  0  0  0  0  0  0  0
    4.5584   -0.0574    0.7938 C   0  0  0  0  0  0  0  0  0  0  0  0
    3.8193   -0.9570    1.5432 C   0  0  0  0  0  0  0  0  0  0  0  0
    2.5162   -1.2701    1.1703 C   0  0  0  0  0  0  0  0  0  0  0  0
    1.9142   -0.7100    0.0602 C   0  0  0  0  0  0  0  0  0  0  0  0
    2.6626    0.1883   -0.6814 C   0  0  0  0  0  0  0  0  0  0  0  0
    0.5333   -1.0464   -0.3443 C   0  0  0  0  0  0  0  0  0  0  0  0
    0.3659   -1.9385   -1.1714 O   0  0  0  0  0  0  0  0  0  0  0  0
   -0.5206   -0.3224    0.2504 N   0  0  0  0  0  0  0  0  0  0  0  0
   -1.9010   -0.5037   -0.0133 C   0  0  0  0  0  0  0  0  0  0  0  0
   -2.4887   -1.5911   -0.6090 C   0  0  0  0  0  0  0  0  0  0  0  0
   -3.8548   -1.6931   -0.8510 C   0  0  0  0  0  0  0  0  0  0  0  0
   -4.6433   -0.6424   -0.4698 C   0  0  0  0  0  0  0  0  0  0  0  0
   -4.0903    0.4831    0.1346 C   0  0  0  0  0  0  0  0  0  0  0  0
   -2.7548    0.5406    0.3560 C   0  0  0  0  0  0  0  0  0  0  0  0
   -4.9365    1.6363    0.5102 C   0  0  0  0  0  0  0  0  0  0  0  0
   -4.5816    2.0076    1.7852 F   0  0  0  0  0  0  0  0  0  0  0  0
   -4.8077    2.5987   -0.4292 F   0  0  0  0  0  0  0  0  0  0  0  0
   -6.2996    1.2144    0.4497 F   0  0  0  0  0  0  0  0  0  0  0  0
    6.2921    2.6566   -0.5399 H   0  0  0  0  0  0  0  0  0  0  0  0
    5.5850    0.2080    1.0111 H   0  0  0  0  0  0  0  0  0  0  0  0
    4.2796   -1.3663    2.4149 H   0  0  0  0  0  0  0  0  0  0  0  0
    1.9158   -1.9619    1.7611 H   0  0  0  0  0  0  0  0  0  0  0  0
    2.1630    0.6113   -1.5621 H   0  0  0  0  0  0  0  0  0  0  0  0
   -0.2723    0.4269    0.9768 H   0  0  0  0  0  0  0  0  0  0  0  0
   -1.8657   -2.4172   -0.8789 H   0  0  0  0  0  0  0  0  0  0  0  0
   -4.3020   -2.5549   -1.3089 H   0  0  0  0  0  0  0  0  0  0  0  0
   -5.7155   -0.6317   -0.6188 H   0  0  0  0  0  0  0  0  0  0  0  0
   -2.3781    1.4368    0.8403 H   0  0  0  0  0  0  0  0  0  0  0  0
  1  2  1  0
  2  3  2  0
  2  4  1  0
  4  5  2  0
  5  6  1  0
  6  7  2  0
  7  8  1  0
  8  9  2  0
  8 10  1  0
 10 11  2  0
 10 12  1  0
 12 13  1  0
 13 14  2  0
 14 15  1  0
 15 16  2  0
 16 17  1  0
 17 18  2  0
 17 19  1  0
 19 20  1  0
 19 21  1  0
 19 22  1  0
  9  4  1  0
 18 13  1  0
  1 23  1  0
  5 24  1  0
  6 25  1  0
  7 26  1  0
  9 27  1  0
 12 28  1  0
 14 29  1  0
 15 30  1  0
 16 31  1  0
 18 32  1  0
M  END
$$$$
[H]N=C(N([H])[H])N([H])C([H])([H])C([H])([H])C([H])([H])[C@@]([H])(C(=O)N([H])[C@]([H])(C(=O)N([H])[C@]([H])(C(=O)O[H])C([H])([H])c1c([H])n([H])c2c([H])c([H])c([H])c([H])c12)C([H])([H])C([H])(C([H])([H])[H])C([H])([H])[H])N([H])C(=O)[C@@]([H])(N([H])C(=O)[C@@]([H])(N([H])C(=O)OC([H])([H])c1c([H])c([H])c([H])c([H])c1[H])C([H])([H])c1c([H])c([H])c([H])c([H])c1[H])C([H])([H])[H]
     RDKit          3D

115118  0  0  0  0  0  0  0  0999 V2000
    2.8103   -1.9545    0.6198 C   0  0  0  0  0  0  0  0  0  0  0  0
    3.0036   -0.7626   -0.3054 C   0  0  2  0  0  0  0  0  0  0  0  0
    4.0889   -0.0036    0.2887 N   0  0  0  0  0  0  0  0  0  0  0  0
    5.4090   -0.1425   -0.1993 C   0  0  0  0  0  0  0  0  0  0  0  0
    5.6308   -0.9272   -1.1517 O   0  0  0  0  0  0  0  0  0  0  0  0
    6.5267    0.6087    0.3840 C   0  0  2  0  0  0  0  0  0  0  0  0
    6.3808    2.1094    0.3416 C   0  0  0  0  0  0  0  0  0  0  0  0
    6.2890    2.7300   -0.9664 C   0  0  0  0  0  0  0  0  0  0  0  0
    7.4356    3.1618   -1.6521 C   0  0  0  0  0  0  0  0  0  0  0  0
    7.3474    3.7681   -2.8943 C   0  0  0  0  0  0  0  0  0  0  0  0
    6.1415    3.9663   -3.4952 C   0  0  0  0  0  0  0  0  0  0  0  0
    4.9951    3.5519   -2.8457 C   0  0  0  0  0  0  0  0  0  0  0  0
    5.1027    2.9497   -1.6077 C   0  0  0  0  0  0  0  0  0  0  0  0
    7.7943    0.2152   -0.2359 N   0  0  0  0  0  0  0  0  0  0  0  0
    8.9543    0.0153    0.5339 C   0  0  0  0  0  0  0  0  0  0  0  0
    8.8663    0.1898    1.7882 O   0  0  0  0  0  0  0  0  0  0  0  0
   10.1919   -0.3522    0.0586 O   0  0  0  0  0  0  0  0  0  0  0  0
   11.3460   -0.5279    0.8312 C   0  0  0  0  0  0  0  0  0  0  0  0
   11.2397   -1.5445    1.8922 C   0  0  0  0  0  0  0  0  0  0  0  0
   11.5041   -1.2127    3.2037 C   0  0  0  0  0  0  0  0  0  0  0  0
   11.4073   -2.1586    4.2231 C   0  0  0  0  0  0  0  0  0  0  0  0
   11.0419   -3.4507    3.9230 C   0  0  0  0  0  0  0  0  0  0  0  0
   10.7770   -3.7923    2.6246 C   0  0  0  0  0  0  0  0  0  0  0  0
   10.8770   -2.8381    1.6136 C   0  0  0  0  0  0  0  0  0  0  0  0
    1.8023    0.0400   -0.4632 C   0  0  0  0  0  0  0  0  0  0  0  0
    1.8628    1.2415   -0.1768 O   0  0  0  0  0  0  0  0  0  0  0  0
    0.5644   -0.4777   -0.9214 N   0  0  0  0  0  0  0  0  0  0  0  0
   -0.6124    0.3076   -1.0746 C   0  0  1  0  0  0  0  0  0  0  0  0
   -0.9122    0.7875   -2.3959 C   0  0  0  0  0  0  0  0  0  0  0  0
   -1.2027    0.1336   -3.6417 C   0  0  0  0  0  0  0  0  0  0  0  0
   -0.2637   -0.7701   -4.3524 C   0  0  0  0  0  0  0  0  0  0  0  0
    0.1128   -1.9984   -3.7760 N   0  0  0  0  0  0  0  0  0  0  0  0
   -0.7477   -3.1151   -3.5971 C   0  0  0  0  0  0  0  0  0  0  0  0
   -2.1424   -3.0004   -3.3609 N   0  0  0  0  0  0  0  0  0  0  0  0
   -0.2411   -4.2938   -3.6583 N   0  0  0  0  0  0  0  0  0  0  0  0
   -1.7306   -0.0956   -0.1962 C   0  0  0  0  0  0  0  0  0  0  0  0
   -1.6340   -1.1499    0.4762 O   0  0  0  0  0  0  0  0  0  0  0  0
   -2.9143    0.6127   -0.0353 N   0  0  0  0  0  0  0  0  0  0  0  0
   -4.0560    0.3107    0.8127 C   0  0  1  0  0  0  0  0  0  0  0  0
   -4.0431    0.9710    2.1173 C   0  0  0  0  0  0  0  0  0  0  0  0
   -5.1456    0.5748    3.0540 C   0  0  0  0  0  0  0  0  0  0  0  0
   -5.0436    1.3352    4.3818 C   0  0  0  0  0  0  0  0  0  0  0  0
   -4.9580   -0.9267    3.4429 C   0  0  0  0  0  0  0  0  0  0  0  0
   -5.2141    0.5190   -0.0763 C   0  0  0  0  0  0  0  0  0  0  0  0
   -5.2221   -0.0595   -1.2401 O   0  0  0  0  0  0  0  0  0  0  0  0
   -6.3695    1.3050    0.1560 N   0  0  0  0  0  0  0  0  0  0  0  0
   -7.4357    1.4004   -0.8359 C   0  0  1  0  0  0  0  0  0  0  0  0
   -8.6959    1.8606   -0.2038 C   0  0  0  0  0  0  0  0  0  0  0  0
   -9.1856    0.9706    0.8405 C   0  0  0  0  0  0  0  0  0  0  0  0
   -9.1438    1.1769    2.2008 C   0  0  0  0  0  0  0  0  0  0  0  0
   -9.7326    0.1318    2.7761 N   0  0  0  0  0  0  0  0  0  0  0  0
  -10.1553   -0.7463    1.8495 C   0  0  0  0  0  0  0  0  0  0  0  0
  -10.8109   -1.9668    1.8910 C   0  0  0  0  0  0  0  0  0  0  0  0
  -11.1239   -2.6617    0.7445 C   0  0  0  0  0  0  0  0  0  0  0  0
  -10.7822   -2.1416   -0.4928 C   0  0  0  0  0  0  0  0  0  0  0  0
  -10.1325   -0.9302   -0.5180 C   0  0  0  0  0  0  0  0  0  0  0  0
   -9.8206   -0.2379    0.6279 C   0  0  0  0  0  0  0  0  0  0  0  0
   -7.0651    2.4991   -1.8214 C   0  0  0  0  0  0  0  0  0  0  0  0
   -7.8878    2.8090   -2.8816 O   0  0  0  0  0  0  0  0  0  0  0  0
   -6.0074    3.1046   -1.6415 O   0  0  0  0  0  0  0  0  0  0  0  0
    2.2939   -2.7286   -0.0272 H   0  0  0  0  0  0  0  0  0  0  0  0
    3.7681   -2.2948    1.0133 H   0  0  0  0  0  0  0  0  0  0  0  0
    2.0648   -1.6620    1.3798 H   0  0  0  0  0  0  0  0  0  0  0  0
    3.4054   -1.2028   -1.2589 H   0  0  0  0  0  0  0  0  0  0  0  0
    3.8242    0.6294    1.0763 H   0  0  0  0  0  0  0  0  0  0  0  0
    6.6205    0.3570    1.4555 H   0  0  0  0  0  0  0  0  0  0  0  0
    5.4956    2.3577    0.9447 H   0  0  0  0  0  0  0  0  0  0  0  0
    7.2593    2.5281    0.8733 H   0  0  0  0  0  0  0  0  0  0  0  0
    8.4007    3.0323   -1.2311 H   0  0  0  0  0  0  0  0  0  0  0  0
    8.2462    4.1056   -3.4250 H   0  0  0  0  0  0  0  0  0  0  0  0
    6.0495    4.4487   -4.4833 H   0  0  0  0  0  0  0  0  0  0  0  0
    4.0629    3.7305   -3.3569 H   0  0  0  0  0  0  0  0  0  0  0  0
    4.1671    2.6571   -1.1591 H   0  0  0  0  0  0  0  0  0  0  0  0
    7.8647    0.0739   -1.2735 H   0  0  0  0  0  0  0  0  0  0  0  0
   12.1654   -0.8092    0.1281 H   0  0  0  0  0  0  0  0  0  0  0  0
   11.6502    0.4709    1.2510 H   0  0  0  0  0  0  0  0  0  0  0  0
   11.7959   -0.2041    3.4642 H   0  0  0  0  0  0  0  0  0  0  0  0
   11.6139   -1.8935    5.2319 H   0  0  0  0  0  0  0  0  0  0  0  0
   10.9705   -4.1939    4.7393 H   0  0  0  0  0  0  0  0  0  0  0  0
   10.4925   -4.8002    2.3906 H   0  0  0  0  0  0  0  0  0  0  0  0
   10.6664   -3.1097    0.5873 H   0  0  0  0  0  0  0  0  0  0  0  0
    0.5543   -1.4917   -1.0996 H   0  0  0  0  0  0  0  0  0  0  0  0
   -0.2762    1.2865   -0.5049 H   0  0  0  0  0  0  0  0  0  0  0  0
   -0.0500    1.5447   -2.6965 H   0  0  0  0  0  0  0  0  0  0  0  0
   -1.7286    1.6355   -2.3069 H   0  0  0  0  0  0  0  0  0  0  0  0
   -1.3567    0.9796   -4.4247 H   0  0  0  0  0  0  0  0  0  0  0  0
   -2.2702   -0.2886   -3.6983 H   0  0  0  0  0  0  0  0  0  0  0  0
    0.6566   -0.1643   -4.6497 H   0  0  0  0  0  0  0  0  0  0  0  0
   -0.6754   -1.0384   -5.3910 H   0  0  0  0  0  0  0  0  0  0  0  0
    1.1125   -2.1108   -3.4456 H   0  0  0  0  0  0  0  0  0  0  0  0
   -2.5092   -3.1001   -2.3914 H   0  0  0  0  0  0  0  0  0  0  0  0
   -2.7957   -2.8211   -4.1678 H   0  0  0  0  0  0  0  0  0  0  0  0
   -0.8321   -5.1389   -3.5337 H   0  0  0  0  0  0  0  0  0  0  0  0
   -3.0060    1.4952   -0.6020 H   0  0  0  0  0  0  0  0  0  0  0  0
   -3.9900   -0.7900    1.0359 H   0  0  0  0  0  0  0  0  0  0  0  0
   -3.0854    0.7019    2.6655 H   0  0  0  0  0  0  0  0  0  0  0  0
   -4.0162    2.0777    2.1060 H   0  0  0  0  0  0  0  0  0  0  0  0
   -6.1581    0.6316    2.7399 H   0  0  0  0  0  0  0  0  0  0  0  0
   -3.9869    1.5763    4.5272 H   0  0  0  0  0  0  0  0  0  0  0  0
   -5.3570    0.6709    5.2127 H   0  0  0  0  0  0  0  0  0  0  0  0
   -5.6082    2.2808    4.3589 H   0  0  0  0  0  0  0  0  0  0  0  0
   -5.6962   -1.0937    4.2356 H   0  0  0  0  0  0  0  0  0  0  0  0
   -3.9476   -1.1065    3.8292 H   0  0  0  0  0  0  0  0  0  0  0  0
   -5.2393   -1.5394    2.5677 H   0  0  0  0  0  0  0  0  0  0  0  0
   -6.5094    1.8671    0.9998 H   0  0  0  0  0  0  0  0  0  0  0  0
   -7.5155    0.5203   -1.4752 H   0  0  0  0  0  0  0  0  0  0  0  0
   -8.5086    2.8683    0.2785 H   0  0  0  0  0  0  0  0  0  0  0  0
   -9.5044    2.0302   -0.9705 H   0  0  0  0  0  0  0  0  0  0  0  0
   -8.7080    2.0349    2.7029 H   0  0  0  0  0  0  0  0  0  0  0  0
   -9.8630   -0.0151    3.8054 H   0  0  0  0  0  0  0  0  0  0  0  0
  -11.0865   -2.3904    2.8324 H   0  0  0  0  0  0  0  0  0  0  0  0
  -11.6375   -3.6233    0.7450 H   0  0  0  0  0  0  0  0  0  0  0  0
  -11.0360   -2.6951   -1.3776 H   0  0  0  0  0  0  0  0  0  0  0  0
   -9.8475   -0.4808   -1.4653 H   0  0  0  0  0  0  0  0  0  0  0  0
   -7.4712    3.0756   -3.7447 H   0  0  0  0  0  0  0  0  0  0  0  0
  1  2  1  0
  2  3  1  0
  3  4  1  0
  4  5  2  0
  4  6  1  0
  6  7  1  0
  7  8  1  0
  8  9  2  0
  9 10  1  0
 10 11  2  0
 11 12  1  0
 12 13  2  0
  6 14  1  0
 14 15  1  0
 15 16  2  0
 15 17  1  0
 17 18  1  0
 18 19  1  0
 19 20  2  0
 20 21  1  0
 21 22  2  0
 22 23  1  0
 23 24  2  0
  2 25  1  0
 25 26  2  0
 25 27  1  0
 27 28  1  0
 28 29  1  0
 29 30  1  0
 30 31  1  0
 31 32  1  0
 32 33  1  0
 33 34  1  0
 33 35  2  3
 28 36  1  0
 36 37  2  0
 36 38  1  0
 38 39  1  0
 39 40  1  0
 40 41  1  0
 41 42  1  0
 41 43  1  0
 39 44  1  0
 44 45  2  0
 44 46  1  0
 46 47  1  0
 47 48  1  0
 48 49  1  0
 49 50  2  0
 50 51  1  0
 51 52  1  0
 52 53  2  0
 53 54  1  0
 54 55  2  0
 55 56  1  0
 56 57  2  0
 47 58  1  0
 58 59  1  0
 58 60  2  0
 13  8  1  0
 24 19  1  0
 57 49  1  0
 57 52  1  0
  1 61  1  0
  1 62  1  0
  1 63  1  0
  2 64  1  6
  3 65  1  0
  6 66  1  1
  7 67  1  0
  7 68  1  0
  9 69  1  0
 10 70  1  0
 11 71  1  0
 12 72  1  0
 13 73  1  0
 14 74  1  0
 18 75  1  0
 18 76  1  0
 20 77  1  0
 21 78  1  0
 22 79  1  0
 23 80  1  0
 24 81  1  0
 27 82  1  0
 28 83  1  1
 29 84  1  0
 29 85  1  0
 30 86  1  0
 30 87  1  0
 31 88  1  0
 31 89  1  0
 32 90  1  0
 34 91  1  0
 34 92  1  0
 35 93  1  0
 38 94  1  0
 39 95  1  1
 40 96  1  0
 40 97  1  0
 41 98  1  0
 42 99  1  0
 42100  1  0
 42101  1  0
 43102  1  0
 43103  1  0
 43104  1  0
 46105  1  0
 47106  1  6
 48107  1  0
 48108  1  0
 50109  1  0
 51110  1  0
 53111  1  0
 54112  1  0
 55113  1  0
 56114  1  0
 59115  1  0
M  END
$$$$
[H]c1nc(N([H])[H])c(N2C([H])([H])C([H])([H])OC([H])([H])C2([H])[H])nc1-c1c([H])c(N([H])C(=O)c2c([H])c([H])c([H])c(C(F)(F)F)c2[H])c([H])c([H])c1C([H])([H])[H]
     RDKit          3D

 55 58  0  0  0  0  0  0  0  0999 V2000
   -0.3943   -0.1126   -4.3383 C   0  0  0  0  0  0  0  0  0  0  0  0
    0.3028   -0.0009   -3.0157 C   0  0  0  0  0  0  0  0  0  0  0  0
    1.6499    0.3801   -3.0219 C   0  0  0  0  0  0  0  0  0  0  0  0
    2.3516    0.5800   -1.8562 C   0  0  0  0  0  0  0  0  0  0  0  0
    1.7526    0.4061   -0.6157 C   0  0  0  0  0  0  0  0  0  0  0  0
    2.5757    0.5658    0.5750 N   0  0  0  0  0  0  0  0  0  0  0  0
    3.8415    0.0121    0.6395 C   0  0  0  0  0  0  0  0  0  0  0  0
    4.1429   -0.6734   -0.4705 O   0  0  0  0  0  0  0  0  0  0  0  0
    4.9048    0.0022    1.5870 C   0  0  0  0  0  0  0  0  0  0  0  0
    4.7991    0.3110    2.9445 C   0  0  0  0  0  0  0  0  0  0  0  0
    5.8646    0.3197    3.8037 C   0  0  0  0  0  0  0  0  0  0  0  0
    7.1297    0.0075    3.3144 C   0  0  0  0  0  0  0  0  0  0  0  0
    7.2821   -0.3029    1.9852 C   0  0  0  0  0  0  0  0  0  0  0  0
    6.2057   -0.3081    1.1492 C   0  0  0  0  0  0  0  0  0  0  0  0
    8.6619   -0.6554    1.4284 C   0  0  0  0  0  0  0  0  0  0  0  0
    9.1009   -1.8550    1.9067 F   0  0  0  0  0  0  0  0  0  0  0  0
    9.5370    0.3972    1.7504 F   0  0  0  0  0  0  0  0  0  0  0  0
    8.6099   -0.6696    0.0587 F   0  0  0  0  0  0  0  0  0  0  0  0
    0.4465    0.0366   -0.6207 C   0  0  0  0  0  0  0  0  0  0  0  0
   -0.2982   -0.1759   -1.7918 C   0  0  0  0  0  0  0  0  0  0  0  0
   -1.7035   -0.5637   -1.7125 C   0  0  0  0  0  0  0  0  0  0  0  0
   -2.1945   -1.5495   -2.5258 C   0  0  0  0  0  0  0  0  0  0  0  0
   -3.4865   -1.9354   -2.3467 N   0  0  0  0  0  0  0  0  0  0  0  0
   -4.2589   -1.3821   -1.4009 C   0  0  0  0  0  0  0  0  0  0  0  0
   -5.6040   -1.8037   -1.1797 N   0  0  0  0  0  0  0  0  0  0  0  0
   -3.7595   -0.3746   -0.5630 C   0  0  0  0  0  0  0  0  0  0  0  0
   -2.4874   -0.0179   -0.7739 N   0  0  0  0  0  0  0  0  0  0  0  0
   -4.6392    0.1880    0.3993 N   0  0  0  0  0  0  0  0  0  0  0  0
   -5.6310    1.1865    0.0295 C   0  0  0  0  0  0  0  0  0  0  0  0
   -7.0079    0.8236    0.5071 C   0  0  0  0  0  0  0  0  0  0  0  0
   -6.9727    0.0918    1.6958 O   0  0  0  0  0  0  0  0  0  0  0  0
   -5.8464    0.4288    2.4491 C   0  0  0  0  0  0  0  0  0  0  0  0
   -4.6227   -0.2035    1.8100 C   0  0  0  0  0  0  0  0  0  0  0  0
   -1.4651    0.2063   -4.2922 H   0  0  0  0  0  0  0  0  0  0  0  0
   -0.1810   -1.0426   -4.8474 H   0  0  0  0  0  0  0  0  0  0  0  0
    0.0803    0.7223   -4.9797 H   0  0  0  0  0  0  0  0  0  0  0  0
    2.0990    0.5196   -4.0162 H   0  0  0  0  0  0  0  0  0  0  0  0
    3.3949    0.8886   -1.9127 H   0  0  0  0  0  0  0  0  0  0  0  0
    2.1676    1.1039    1.3757 H   0  0  0  0  0  0  0  0  0  0  0  0
    3.7980    0.5375    3.3449 H   0  0  0  0  0  0  0  0  0  0  0  0
    5.7204    0.5602    4.8487 H   0  0  0  0  0  0  0  0  0  0  0  0
    7.9684    0.0088    3.9966 H   0  0  0  0  0  0  0  0  0  0  0  0
    6.3951   -0.5732    0.0846 H   0  0  0  0  0  0  0  0  0  0  0  0
   -0.0561   -0.1106    0.3526 H   0  0  0  0  0  0  0  0  0  0  0  0
   -1.5914   -2.0822   -3.2737 H   0  0  0  0  0  0  0  0  0  0  0  0
   -6.3185   -1.7018   -1.9358 H   0  0  0  0  0  0  0  0  0  0  0  0
   -5.9377   -2.2265   -0.2972 H   0  0  0  0  0  0  0  0  0  0  0  0
   -5.3258    2.2111    0.3482 H   0  0  0  0  0  0  0  0  0  0  0  0
   -5.6813    1.2381   -1.0884 H   0  0  0  0  0  0  0  0  0  0  0  0
   -7.5306    1.7931    0.7470 H   0  0  0  0  0  0  0  0  0  0  0  0
   -7.5938    0.3012   -0.2441 H   0  0  0  0  0  0  0  0  0  0  0  0
   -5.9410   -0.0551    3.4538 H   0  0  0  0  0  0  0  0  0  0  0  0
   -5.7859    1.5306    2.4760 H   0  0  0  0  0  0  0  0  0  0  0  0
   -3.6799    0.0763    2.2447 H   0  0  0  0  0  0  0  0  0  0  0  0
   -4.7883   -1.3257    1.8146 H   0  0  0  0  0  0  0  0  0  0  0  0
  1  2  1  0
  2  3  2  0
  3  4  1  0
  4  5  2  0
  5  6  1  0
  6  7  1  0
  7  8  2  0
  7  9  1  0
  9 10  2  0
 10 11  1  0
 11 12  2  0
 12 13  1  0
 13 14  2  0
 13 15  1  0
 15 16  1  0
 15 17  1  0
 15 18  1  0
  5 19  1  0
 19 20  2  0
 20 21  1  0
 21 22  2  0
 22 23  1  0
 23 24  2  0
 24 25  1  0
 24 26  1  0
 26 27  2  0
 26 28  1  0
 28 29  1  0
 29 30  1  0
 30 31  1  0
 31 32  1  0
 32 33  1  0
 20  2  1  0
 27 21  1  0
 33 28  1  0
 14  9  1  0
  1 34  1  0
  1 35  1  0
  1 36  1  0
  3 37  1  0
  4 38  1  0
  6 39  1  0
 10 40  1  0
 11 41  1  0
 12 42  1  0
 14 43  1  0
 19 44  1  0
 22 45  1  0
 25 46  1  0
 25 47  1  0
 29 48  1  0
 29 49  1  0
 30 50  1  0
 30 51  1  0
 32 52  1  0
 32 53  1  0
 33 54  1  0
 33 55  1  0
M  END
$$$$
[H]OC(=O)C([H])([H])[C@@]([H])(C(=O)N([H])[C@]([H])(C(=O)N([H])[H])C([H])([H])C([H])(C([H])([H])[H])C([H])([H])[H])N([H])C(=O)[C@@]([H])(N([H])C(=O)[C@@]([H])(N([H])C(=O)[C@@]([H])(N([H])C(=O)C([H])([H])[H])C([H])([H])c1c([H])n([H])c2c([H])c([H])c([H])c([H])c12)C([H])([H])C([H])(C([H])([H])[H])C([H])([H])[H])C([H])([H])C([H])(C([H])([H])[H])C([H])([H])[H]
     RDKit          3D

103104  0  0  0  0  0  0  0  0999 V2000
    7.5881    2.2232   -2.5105 C   0  0  0  0  0  0  0  0  0  0  0  0
    6.3749    2.6493   -3.2849 C   0  0  0  0  0  0  0  0  0  0  0  0
    6.2182    1.6185   -4.4215 C   0  0  0  0  0  0  0  0  0  0  0  0
    5.1018    2.5934   -2.5080 C   0  0  0  0  0  0  0  0  0  0  0  0
    5.1001    3.4622   -1.2578 C   0  0  2  0  0  0  0  0  0  0  0  0
    3.7681    3.2610   -0.6696 N   0  0  0  0  0  0  0  0  0  0  0  0
    3.5267    2.2068    0.2467 C   0  0  0  0  0  0  0  0  0  0  0  0
    4.4757    1.4439    0.5340 O   0  0  0  0  0  0  0  0  0  0  0  0
    2.2053    2.0119    0.8441 C   0  0  2  0  0  0  0  0  0  0  0  0
    1.8202    3.2169    1.7253 C   0  0  0  0  0  0  0  0  0  0  0  0
    2.7753    3.4127    2.8270 C   0  0  0  0  0  0  0  0  0  0  0  0
    2.5891    4.4652    3.7028 O   0  0  0  0  0  0  0  0  0  0  0  0
    3.7527    2.6604    3.0019 O   0  0  0  0  0  0  0  0  0  0  0  0
    2.1071    0.8122    1.6542 N   0  0  0  0  0  0  0  0  0  0  0  0
    0.8713    0.0904    1.7138 C   0  0  0  0  0  0  0  0  0  0  0  0
   -0.0762    0.5761    1.0584 O   0  0  0  0  0  0  0  0  0  0  0  0
    0.7353   -1.1853    2.5232 C   0  0  2  0  0  0  0  0  0  0  0  0
    1.7680   -2.1055    2.0203 C   0  0  0  0  0  0  0  0  0  0  0  0
    1.8902   -3.4490    2.6447 C   0  0  0  0  0  0  0  0  0  0  0  0
    3.0343   -4.2083    1.9294 C   0  0  0  0  0  0  0  0  0  0  0  0
    2.2514   -3.4470    4.1027 C   0  0  0  0  0  0  0  0  0  0  0  0
   -0.6376   -1.5785    2.3613 N   0  0  0  0  0  0  0  0  0  0  0  0
   -1.3199   -1.9028    1.1993 C   0  0  0  0  0  0  0  0  0  0  0  0
   -0.7236   -1.8941    0.0856 O   0  0  0  0  0  0  0  0  0  0  0  0
   -2.7374   -2.2594    1.1670 C   0  0  2  0  0  0  0  0  0  0  0  0
   -2.8978   -3.7737    1.1073 C   0  0  0  0  0  0  0  0  0  0  0  0
   -2.3441   -4.4978    2.2910 C   0  0  0  0  0  0  0  0  0  0  0  0
   -3.0117   -4.1155    3.6017 C   0  0  0  0  0  0  0  0  0  0  0  0
   -2.5416   -5.9845    2.1014 C   0  0  0  0  0  0  0  0  0  0  0  0
   -3.4575   -1.6656    0.0352 N   0  0  0  0  0  0  0  0  0  0  0  0
   -4.7251   -1.0571    0.1845 C   0  0  0  0  0  0  0  0  0  0  0  0
   -5.2041   -1.0682    1.3848 O   0  0  0  0  0  0  0  0  0  0  0  0
   -5.5381   -0.4332   -0.8564 C   0  0  2  0  0  0  0  0  0  0  0  0
   -5.4958    1.0788   -0.8808 C   0  0  0  0  0  0  0  0  0  0  0  0
   -4.1685    1.6566   -1.1091 C   0  0  0  0  0  0  0  0  0  0  0  0
   -3.3398    2.2281   -0.1729 C   0  0  0  0  0  0  0  0  0  0  0  0
   -2.2253    2.6347   -0.8119 N   0  0  0  0  0  0  0  0  0  0  0  0
   -2.2732    2.3611   -2.1234 C   0  0  0  0  0  0  0  0  0  0  0  0
   -1.4308    2.5540   -3.1953 C   0  0  0  0  0  0  0  0  0  0  0  0
   -1.8069    2.1360   -4.4462 C   0  0  0  0  0  0  0  0  0  0  0  0
   -3.0375    1.5118   -4.6651 C   0  0  0  0  0  0  0  0  0  0  0  0
   -3.8690    1.3257   -3.5839 C   0  0  0  0  0  0  0  0  0  0  0  0
   -3.5117    1.7368   -2.3199 C   0  0  0  0  0  0  0  0  0  0  0  0
   -6.9629   -0.7476   -0.5948 N   0  0  0  0  0  0  0  0  0  0  0  0
   -7.7363   -1.4113   -1.5696 C   0  0  0  0  0  0  0  0  0  0  0  0
   -9.1457   -1.7707   -1.4070 C   0  0  0  0  0  0  0  0  0  0  0  0
   -7.1816   -1.7265   -2.6804 O   0  0  0  0  0  0  0  0  0  0  0  0
    5.3183    4.8689   -1.4803 C   0  0  0  0  0  0  0  0  0  0  0  0
    6.4991    5.4565   -2.0113 N   0  0  0  0  0  0  0  0  0  0  0  0
    4.3998    5.7108   -1.1906 O   0  0  0  0  0  0  0  0  0  0  0  0
    8.5068    2.6819   -2.9864 H   0  0  0  0  0  0  0  0  0  0  0  0
    7.7828    1.1333   -2.5300 H   0  0  0  0  0  0  0  0  0  0  0  0
    7.5566    2.5103   -1.4306 H   0  0  0  0  0  0  0  0  0  0  0  0
    6.5449    3.6063   -3.8160 H   0  0  0  0  0  0  0  0  0  0  0  0
    5.1481    1.4860   -4.6922 H   0  0  0  0  0  0  0  0  0  0  0  0
    6.7416    1.9643   -5.3297 H   0  0  0  0  0  0  0  0  0  0  0  0
    6.6184    0.6362   -4.1472 H   0  0  0  0  0  0  0  0  0  0  0  0
    4.9459    1.5447   -2.1711 H   0  0  0  0  0  0  0  0  0  0  0  0
    4.2697    2.8915   -3.1422 H   0  0  0  0  0  0  0  0  0  0  0  0
    5.8252    3.0544   -0.5175 H   0  0  0  0  0  0  0  0  0  0  0  0
    2.9797    3.8954   -0.9243 H   0  0  0  0  0  0  0  0  0  0  0  0
    1.3568    1.9546    0.1132 H   0  0  0  0  0  0  0  0  0  0  0  0
    0.8120    3.0745    2.1535 H   0  0  0  0  0  0  0  0  0  0  0  0
    1.7295    4.1312    1.0705 H   0  0  0  0  0  0  0  0  0  0  0  0
    2.7305    4.3431    4.7117 H   0  0  0  0  0  0  0  0  0  0  0  0
    2.8938    0.4403    2.2021 H   0  0  0  0  0  0  0  0  0  0  0  0
    0.8857   -0.8341    3.5651 H   0  0  0  0  0  0  0  0  0  0  0  0
    1.6925   -2.1968    0.9140 H   0  0  0  0  0  0  0  0  0  0  0  0
    2.7700   -1.5911    2.1660 H   0  0  0  0  0  0  0  0  0  0  0  0
    1.0199   -4.0911    2.5086 H   0  0  0  0  0  0  0  0  0  0  0  0
    3.0227   -3.9228    0.8387 H   0  0  0  0  0  0  0  0  0  0  0  0
    4.0158   -3.9516    2.3748 H   0  0  0  0  0  0  0  0  0  0  0  0
    2.8710   -5.2775    2.0906 H   0  0  0  0  0  0  0  0  0  0  0  0
    1.4824   -2.9214    4.7295 H   0  0  0  0  0  0  0  0  0  0  0  0
    3.2669   -3.1045    4.3168 H   0  0  0  0  0  0  0  0  0  0  0  0
    2.1907   -4.5136    4.4365 H   0  0  0  0  0  0  0  0  0  0  0  0
   -1.1989   -1.6143    3.2703 H   0  0  0  0  0  0  0  0  0  0  0  0
   -3.2339   -1.8639    2.0791 H   0  0  0  0  0  0  0  0  0  0  0  0
   -3.9737   -4.0506    0.9559 H   0  0  0  0  0  0  0  0  0  0  0  0
   -2.3620   -4.1583    0.2038 H   0  0  0  0  0  0  0  0  0  0  0  0
   -1.2742   -4.2609    2.4140 H   0  0  0  0  0  0  0  0  0  0  0  0
   -4.0654   -4.5193    3.6579 H   0  0  0  0  0  0  0  0  0  0  0  0
   -2.4571   -4.5558    4.4285 H   0  0  0  0  0  0  0  0  0  0  0  0
   -3.0440   -3.0218    3.7485 H   0  0  0  0  0  0  0  0  0  0  0  0
   -3.6095   -6.2130    2.2948 H   0  0  0  0  0  0  0  0  0  0  0  0
   -2.3064   -6.2046    1.0322 H   0  0  0  0  0  0  0  0  0  0  0  0
   -1.8412   -6.4861    2.7857 H   0  0  0  0  0  0  0  0  0  0  0  0
   -3.0159   -1.7010   -0.8951 H   0  0  0  0  0  0  0  0  0  0  0  0
   -5.2230   -0.7943   -1.8422 H   0  0  0  0  0  0  0  0  0  0  0  0
   -5.9579    1.4295    0.0809 H   0  0  0  0  0  0  0  0  0  0  0  0
   -6.2169    1.3849   -1.6925 H   0  0  0  0  0  0  0  0  0  0  0  0
   -3.4933    2.3567    0.8898 H   0  0  0  0  0  0  0  0  0  0  0  0
   -1.3971    3.1149   -0.3525 H   0  0  0  0  0  0  0  0  0  0  0  0
   -0.4728    3.0469   -2.9871 H   0  0  0  0  0  0  0  0  0  0  0  0
   -1.1516    2.2873   -5.2770 H   0  0  0  0  0  0  0  0  0  0  0  0
   -3.3037    1.1928   -5.6689 H   0  0  0  0  0  0  0  0  0  0  0  0
   -4.8258    0.8451   -3.7553 H   0  0  0  0  0  0  0  0  0  0  0  0
   -7.3532   -0.4634    0.3143 H   0  0  0  0  0  0  0  0  0  0  0  0
   -9.2158   -2.8693   -1.1584 H   0  0  0  0  0  0  0  0  0  0  0  0
   -9.6691   -1.5940   -2.3823 H   0  0  0  0  0  0  0  0  0  0  0  0
   -9.6496   -1.2449   -0.5810 H   0  0  0  0  0  0  0  0  0  0  0  0
    7.3398    5.4986   -1.4033 H   0  0  0  0  0  0  0  0  0  0  0  0
    6.5410    5.8330   -2.9612 H   0  0  0  0  0  0  0  0  0  0  0  0
  1  2  1  0
  2  3  1  0
  2  4  1  0
  4  5  1  0
  5  6  1  0
  6  7  1  0
  7  8  2  0
  7  9  1  0
  9 10  1  0
 10 11  1  0
 11 12  1  0
 11 13  2  0
  9 14  1  0
 14 15  1  0
 15 16  2  0
 15 17  1  0
 17 18  1  0
 18 19  1  0
 19 20  1  0
 19 21  1  0
 17 22  1  0
 22 23  1  0
 23 24  2  0
 23 25  1  0
 25 26  1  0
 26 27  1  0
 27 28  1  0
 27 29  1  0
 25 30  1  0
 30 31  1  0
 31 32  2  0
 31 33  1  0
 33 34  1  0
 34 35  1  0
 35 36  2  0
 36 37  1  0
 37 38  1  0
 38 39  2  0
 39 40  1  0
 40 41  2  0
 41 42  1  0
 42 43  2  0
 33 44  1  0
 44 45  1  0
 45 46  1  0
 45 47  2  0
  5 48  1  0
 48 49  1  0
 48 50  2  0
 43 35  1  0
 43 38  1  0
  1 51  1  0
  1 52  1  0
  1 53  1  0
  2 54  1  0
  3 55  1  0
  3 56  1  0
  3 57  1  0
  4 58  1  0
  4 59  1  0
  5 60  1  1
  6 61  1  0
  9 62  1  6
 10 63  1  0
 10 64  1  0
 12 65  1  0
 14 66  1  0
 17 67  1  1
 18 68  1  0
 18 69  1  0
 19 70  1  0
 20 71  1  0
 20 72  1  0
 20 73  1  0
 21 74  1  0
 21 75  1  0
 21 76  1  0
 22 77  1  0
 25 78  1  1
 26 79  1  0
 26 80  1  0
 27 81  1  0
 28 82  1  0
 28 83  1  0
 28 84  1  0
 29 85  1  0
 29 86  1  0
 29 87  1  0
 30 88  1  0
 33 89  1  6
 34 90  1  0
 34 91  1  0
 36 92  1  0
 37 93  1  0
 39 94  1  0
 40 95  1  0
 41 96  1  0
 42 97  1  0
 44 98  1  0
 46 99  1  0
 46100  1  0
 46101  1  0
 49102  1  0
 49103  1  0
M  END
$$$$
[H]N=C(N([H])[H])N([H])C([H])([H])C([H])([H])C([H])([H])[C@]([H])(C(=O)N([H])[C@]([H])(C(=O)N([H])[C@]([H])(C(=O)N([H])[C@]([H])(C([H])([H])[H])C([H])([H])C([H])(C([H])([H])[H])C([H])([H])[H])C([H])([H])c1c([H])c([H])c([H])c([H])c1[H])C([H])([H])c1c([H])c([H])c([H])c([H])c1[H])N([H])C(=O)[C@@]([H])(N([H])C(=O)OC(C([H])([H])[H])(C([H])([H])[H])C([H])([H])[H])C([H])([H])c1c([H])n([H])c2c([H])c([H])c([H])c([H])c12
     RDKit          3D

124127  0  0  0  0  0  0  0  0999 V2000
    8.6938   -3.4102   -0.0187 C   0  0  0  0  0  0  0  0  0  0  0  0
    7.5501   -2.4719    0.4036 C   0  0  0  0  0  0  0  0  0  0  0  0
    7.1310   -2.8417    1.8244 C   0  0  0  0  0  0  0  0  0  0  0  0
    8.0392   -1.0465    0.4320 C   0  0  0  0  0  0  0  0  0  0  0  0
    6.9525   -0.1124    0.8230 C   0  0  2  0  0  0  0  0  0  0  0  0
    5.8504   -0.1678   -0.1218 N   0  0  0  0  0  0  0  0  0  0  0  0
    4.5952    0.3625    0.1984 C   0  0  0  0  0  0  0  0  0  0  0  0
    4.5560    0.8967    1.4031 O   0  0  0  0  0  0  0  0  0  0  0  0
    3.3824    0.4096   -0.5933 C   0  0  2  0  0  0  0  0  0  0  0  0
    3.1537   -0.4150   -1.7839 C   0  0  0  0  0  0  0  0  0  0  0  0
    3.1001   -1.8787   -1.6281 C   0  0  0  0  0  0  0  0  0  0  0  0
    1.9010   -2.4916   -1.1909 C   0  0  0  0  0  0  0  0  0  0  0  0
    1.7783   -3.8490   -1.0766 C   0  0  0  0  0  0  0  0  0  0  0  0
    2.8367   -4.6761   -1.3891 C   0  0  0  0  0  0  0  0  0  0  0  0
    4.0227   -4.1261   -1.8189 C   0  0  0  0  0  0  0  0  0  0  0  0
    4.1067   -2.7475   -1.9209 C   0  0  0  0  0  0  0  0  0  0  0  0
    2.7453    1.7319   -0.6509 N   0  0  0  0  0  0  0  0  0  0  0  0
    1.6807    2.1017    0.1662 C   0  0  0  0  0  0  0  0  0  0  0  0
    1.2847    1.2012    1.0053 O   0  0  0  0  0  0  0  0  0  0  0  0
    0.9853    3.4162    0.1252 C   0  0  2  0  0  0  0  0  0  0  0  0
    1.7791    4.5360    0.6426 C   0  0  0  0  0  0  0  0  0  0  0  0
    3.0515    4.8314    0.0007 C   0  0  0  0  0  0  0  0  0  0  0  0
    4.2766    4.3989    0.5175 C   0  0  0  0  0  0  0  0  0  0  0  0
    5.4743    4.6668   -0.0934 C   0  0  0  0  0  0  0  0  0  0  0  0
    5.5347    5.3859   -1.2654 C   0  0  0  0  0  0  0  0  0  0  0  0
    4.3146    5.8182   -1.7817 C   0  0  0  0  0  0  0  0  0  0  0  0
    3.1055    5.5607   -1.1854 C   0  0  0  0  0  0  0  0  0  0  0  0
   -0.2307    3.2049    0.9234 N   0  0  0  0  0  0  0  0  0  0  0  0
   -1.3602    2.5214    0.3547 C   0  0  0  0  0  0  0  0  0  0  0  0
   -1.2117    2.1276   -0.8458 O   0  0  0  0  0  0  0  0  0  0  0  0
   -2.5863    2.2828    1.1030 C   0  0  1  0  0  0  0  0  0  0  0  0
   -3.4089    3.4490    1.4264 C   0  0  0  0  0  0  0  0  0  0  0  0
   -4.0507    4.2771    0.4073 C   0  0  0  0  0  0  0  0  0  0  0  0
   -3.2496    5.0043   -0.6015 C   0  0  0  0  0  0  0  0  0  0  0  0
   -2.3112    5.9756   -0.0822 N   0  0  0  0  0  0  0  0  0  0  0  0
   -2.7712    7.1649    0.5393 C   0  0  0  0  0  0  0  0  0  0  0  0
   -2.6962    8.3628   -0.2606 N   0  0  0  0  0  0  0  0  0  0  0  0
   -3.2223    7.1675    1.7484 N   0  0  0  0  0  0  0  0  0  0  0  0
   -3.3415    1.2737    0.3282 N   0  0  0  0  0  0  0  0  0  0  0  0
   -3.7201    0.0488    0.8908 C   0  0  0  0  0  0  0  0  0  0  0  0
   -3.4362   -0.1706    2.0890 O   0  0  0  0  0  0  0  0  0  0  0  0
   -4.4486   -1.0061    0.0950 C   0  0  2  0  0  0  0  0  0  0  0  0
   -5.4137   -0.4723   -0.8983 C   0  0  0  0  0  0  0  0  0  0  0  0
   -6.1441   -1.4645   -1.6860 C   0  0  0  0  0  0  0  0  0  0  0  0
   -5.7220   -1.9390   -2.9378 C   0  0  0  0  0  0  0  0  0  0  0  0
   -6.5710   -2.8620   -3.3907 N   0  0  0  0  0  0  0  0  0  0  0  0
   -7.5606   -3.0319   -2.4865 C   0  0  0  0  0  0  0  0  0  0  0  0
   -8.6924   -3.8603   -2.4963 C   0  0  0  0  0  0  0  0  0  0  0  0
   -9.5596   -3.7881   -1.4030 C   0  0  0  0  0  0  0  0  0  0  0  0
   -9.2887   -2.9345   -0.3749 C   0  0  0  0  0  0  0  0  0  0  0  0
   -8.1768   -2.1347   -0.3830 C   0  0  0  0  0  0  0  0  0  0  0  0
   -7.3067   -2.1863   -1.4496 C   0  0  0  0  0  0  0  0  0  0  0  0
   -4.8159   -2.1030    0.9130 N   0  0  0  0  0  0  0  0  0  0  0  0
   -4.0318   -3.2657    1.1082 C   0  0  0  0  0  0  0  0  0  0  0  0
   -2.9102   -3.3119    0.5091 O   0  0  0  0  0  0  0  0  0  0  0  0
   -4.3726   -4.3462    1.8841 O   0  0  0  0  0  0  0  0  0  0  0  0
   -3.4460   -5.4342    1.9959 C   0  0  0  0  0  0  0  0  0  0  0  0
   -2.2155   -4.8392    2.6392 C   0  0  0  0  0  0  0  0  0  0  0  0
   -4.0381   -6.5573    2.8116 C   0  0  0  0  0  0  0  0  0  0  0  0
   -3.0620   -5.9870    0.6499 C   0  0  0  0  0  0  0  0  0  0  0  0
    7.4708    1.3511    0.6987 C   0  0  0  0  0  0  0  0  0  0  0  0
    9.0815   -3.9024    0.8728 H   0  0  0  0  0  0  0  0  0  0  0  0
    9.4936   -2.7952   -0.4767 H   0  0  0  0  0  0  0  0  0  0  0  0
    8.3135   -4.0973   -0.7811 H   0  0  0  0  0  0  0  0  0  0  0  0
    6.6830   -2.6289   -0.2298 H   0  0  0  0  0  0  0  0  0  0  0  0
    7.0900   -3.9516    1.9317 H   0  0  0  0  0  0  0  0  0  0  0  0
    7.9440   -2.4448    2.5014 H   0  0  0  0  0  0  0  0  0  0  0  0
    6.1805   -2.3442    2.0837 H   0  0  0  0  0  0  0  0  0  0  0  0
    8.8855   -0.9532    1.1644 H   0  0  0  0  0  0  0  0  0  0  0  0
    8.4705   -0.7784   -0.5691 H   0  0  0  0  0  0  0  0  0  0  0  0
    6.6167   -0.2000    1.8756 H   0  0  0  0  0  0  0  0  0  0  0  0
    6.0384   -0.5971   -1.0415 H   0  0  0  0  0  0  0  0  0  0  0  0
    2.6260   -0.1423    0.1923 H   0  0  0  0  0  0  0  0  0  0  0  0
    3.9016   -0.2185   -2.6110 H   0  0  0  0  0  0  0  0  0  0  0  0
    2.1614   -0.1143   -2.2266 H   0  0  0  0  0  0  0  0  0  0  0  0
    1.0725   -1.8668   -0.9494 H   0  0  0  0  0  0  0  0  0  0  0  0
    0.8576   -4.3340   -0.7439 H   0  0  0  0  0  0  0  0  0  0  0  0
    2.7901   -5.7540   -1.3176 H   0  0  0  0  0  0  0  0  0  0  0  0
    4.8779   -4.7439   -2.0748 H   0  0  0  0  0  0  0  0  0  0  0  0
    5.0637   -2.3643   -2.2717 H   0  0  0  0  0  0  0  0  0  0  0  0
    3.1382    2.3720   -1.3743 H   0  0  0  0  0  0  0  0  0  0  0  0
    0.7057    3.5602   -0.9489 H   0  0  0  0  0  0  0  0  0  0  0  0
    1.9832    4.4264    1.7427 H   0  0  0  0  0  0  0  0  0  0  0  0
    1.1525    5.4703    0.5495 H   0  0  0  0  0  0  0  0  0  0  0  0
    4.2210    3.8299    1.4514 H   0  0  0  0  0  0  0  0  0  0  0  0
    6.4117    4.3187    0.3299 H   0  0  0  0  0  0  0  0  0  0  0  0
    6.4493    5.6259   -1.7864 H   0  0  0  0  0  0  0  0  0  0  0  0
    4.3448    6.3830   -2.7000 H   0  0  0  0  0  0  0  0  0  0  0  0
    2.1568    5.9087   -1.6098 H   0  0  0  0  0  0  0  0  0  0  0  0
   -0.2905    3.5397    1.8805 H   0  0  0  0  0  0  0  0  0  0  0  0
   -2.3221    1.7744    2.0731 H   0  0  0  0  0  0  0  0  0  0  0  0
   -2.7143    4.1517    2.0273 H   0  0  0  0  0  0  0  0  0  0  0  0
   -4.1292    3.1341    2.2432 H   0  0  0  0  0  0  0  0  0  0  0  0
   -4.6314    5.0954    0.9750 H   0  0  0  0  0  0  0  0  0  0  0  0
   -4.8377    3.6914   -0.1836 H   0  0  0  0  0  0  0  0  0  0  0  0
   -4.0276    5.5929   -1.2266 H   0  0  0  0  0  0  0  0  0  0  0  0
   -2.7923    4.3196   -1.3339 H   0  0  0  0  0  0  0  0  0  0  0  0
   -1.2812    5.8340   -0.1583 H   0  0  0  0  0  0  0  0  0  0  0  0
   -1.7451    8.6445   -0.5849 H   0  0  0  0  0  0  0  0  0  0  0  0
   -3.5032    8.9381   -0.5301 H   0  0  0  0  0  0  0  0  0  0  0  0
   -3.5656    8.0466    2.2090 H   0  0  0  0  0  0  0  0  0  0  0  0
   -3.5869    1.5042   -0.6445 H   0  0  0  0  0  0  0  0  0  0  0  0
   -3.5927   -1.4574   -0.5736 H   0  0  0  0  0  0  0  0  0  0  0  0
   -4.8100    0.1560   -1.6276 H   0  0  0  0  0  0  0  0  0  0  0  0
   -6.0956    0.2988   -0.4459 H   0  0  0  0  0  0  0  0  0  0  0  0
   -4.8347   -1.5968   -3.4494 H   0  0  0  0  0  0  0  0  0  0  0  0
   -6.5309   -3.3969   -4.2816 H   0  0  0  0  0  0  0  0  0  0  0  0
   -8.8424   -4.5069   -3.3386 H   0  0  0  0  0  0  0  0  0  0  0  0
  -10.4331   -4.4484   -1.4535 H   0  0  0  0  0  0  0  0  0  0  0  0
   -9.9749   -2.8896    0.4737 H   0  0  0  0  0  0  0  0  0  0  0  0
   -7.9350   -1.4489    0.4196 H   0  0  0  0  0  0  0  0  0  0  0  0
   -5.7235   -2.0759    1.4418 H   0  0  0  0  0  0  0  0  0  0  0  0
   -1.4289   -4.7547    1.8697 H   0  0  0  0  0  0  0  0  0  0  0  0
   -1.8480   -5.5392    3.4328 H   0  0  0  0  0  0  0  0  0  0  0  0
   -2.4285   -3.8315    3.0758 H   0  0  0  0  0  0  0  0  0  0  0  0
   -3.4798   -7.4897    2.6017 H   0  0  0  0  0  0  0  0  0  0  0  0
   -5.0893   -6.7463    2.4786 H   0  0  0  0  0  0  0  0  0  0  0  0
   -3.9896   -6.2432    3.8850 H   0  0  0  0  0  0  0  0  0  0  0  0
   -2.0767   -5.6129    0.3088 H   0  0  0  0  0  0  0  0  0  0  0  0
   -2.9367   -7.0967    0.7152 H   0  0  0  0  0  0  0  0  0  0  0  0
   -3.8690   -5.7864   -0.0998 H   0  0  0  0  0  0  0  0  0  0  0  0
    7.3783    1.6027   -0.3745 H   0  0  0  0  0  0  0  0  0  0  0  0
    6.7786    1.9762    1.3020 H   0  0  0  0  0  0  0  0  0  0  0  0
    8.4985    1.3571    1.0692 H   0  0  0  0  0  0  0  0  0  0  0  0
  1  2  1  0
  2  3  1  0
  2  4  1  0
  4  5  1  0
  5  6  1  0
  6  7  1  0
  7  8  2  0
  7  9  1  0
  9 10  1  0
 10 11  1  0
 11 12  2  0
 12 13  1  0
 13 14  2  0
 14 15  1  0
 15 16  2  0
  9 17  1  0
 17 18  1  0
 18 19  2  0
 18 20  1  0
 20 21  1  0
 21 22  1  0
 22 23  2  0
 23 24  1  0
 24 25  2  0
 25 26  1  0
 26 27  2  0
 20 28  1  0
 28 29  1  0
 29 30  2  0
 29 31  1  0
 31 32  1  0
 32 33  1  0
 33 34  1  0
 34 35  1  0
 35 36  1  0
 36 37  1  0
 36 38  2  3
 31 39  1  0
 39 40  1  0
 40 41  2  0
 40 42  1  0
 42 43  1  0
 43 44  1  0
 44 45  2  0
 45 46  1  0
 46 47  1  0
 47 48  2  0
 48 49  1  0
 49 50  2  0
 50 51  1  0
 51 52  2  0
 42 53  1  0
 53 54  1  0
 54 55  2  0
 54 56  1  0
 56 57  1  0
 57 58  1  0
 57 59  1  0
 57 60  1  0
  5 61  1  0
 16 11  1  0
 27 22  1  0
 52 44  1  0
 52 47  1  0
  1 62  1  0
  1 63  1  0
  1 64  1  0
  2 65  1  0
  3 66  1  0
  3 67  1  0
  3 68  1  0
  4 69  1  0
  4 70  1  0
  5 71  1  1
  6 72  1  0
  9 73  1  1
 10 74  1  0
 10 75  1  0
 12 76  1  0
 13 77  1  0
 14 78  1  0
 15 79  1  0
 16 80  1  0
 17 81  1  0
 20 82  1  6
 21 83  1  0
 21 84  1  0
 23 85  1  0
 24 86  1  0
 25 87  1  0
 26 88  1  0
 27 89  1  0
 28 90  1  0
 31 91  1  1
 32 92  1  0
 32 93  1  0
 33 94  1  0
 33 95  1  0
 34 96  1  0
 34 97  1  0
 35 98  1  0
 37 99  1  0
 37100  1  0
 38101  1  0
 39102  1  0
 42103  1  6
 43104  1  0
 43105  1  0
 45106  1  0
 46107  1  0
 48108  1  0
 49109  1  0
 50110  1  0
 51111  1  0
 53112  1  0
 58113  1  0
 58114  1  0
 58115  1  0
 59116  1  0
 59117  1  0
 59118  1  0
 60119  1  0
 60120  1  0
 60121  1  0
 61122  1  0
 61123  1  0
 61124  1  0
M  END
$$$$
[H]c1c([H])c([H])c(N2C([H])([H])C([H])([H])N(C(=O)c3c([H])c([H])c([H])c(-c4c([H])c([H])c([H])c(OC(F)(F)F)c4[H])c3[H])[C@]([H])(C([H])([H])[H])C2([H])[H])c([H])c1[H]
     RDKit          3D

 55 58  0  0  0  0  0  0  0  0999 V2000
    2.6001   -2.0744   -1.9444 C   0  0  0  0  0  0  0  0  0  0  0  0
    2.3883   -0.6376   -1.5977 C   0  0  2  0  0  0  0  0  0  0  0  0
    3.6412    0.1361   -1.3645 C   0  0  0  0  0  0  0  0  0  0  0  0
    4.2764   -0.2916   -0.1219 N   0  0  0  0  0  0  0  0  0  0  0  0
    3.5580   -1.1379    0.7724 C   0  0  0  0  0  0  0  0  0  0  0  0
    2.1018   -0.6620    0.8525 C   0  0  0  0  0  0  0  0  0  0  0  0
    1.4764   -0.5089   -0.4157 N   0  0  0  0  0  0  0  0  0  0  0  0
    0.1379   -0.2740   -0.6512 C   0  0  0  0  0  0  0  0  0  0  0  0
   -0.1421   -0.2177   -1.9538 O   0  0  0  0  0  0  0  0  0  0  0  0
   -1.0141   -0.0787    0.1895 C   0  0  0  0  0  0  0  0  0  0  0  0
   -0.9392   -0.0174    1.5463 C   0  0  0  0  0  0  0  0  0  0  0  0
   -2.1329    0.1549    2.2714 C   0  0  0  0  0  0  0  0  0  0  0  0
   -3.3458    0.2600    1.6368 C   0  0  0  0  0  0  0  0  0  0  0  0
   -3.4491    0.2017    0.2647 C   0  0  0  0  0  0  0  0  0  0  0  0
   -2.2779    0.0334   -0.4271 C   0  0  0  0  0  0  0  0  0  0  0  0
   -4.7491    0.3175   -0.3707 C   0  0  0  0  0  0  0  0  0  0  0  0
   -4.9001    0.8811   -1.6200 C   0  0  0  0  0  0  0  0  0  0  0  0
   -6.1123    1.0121   -2.2610 C   0  0  0  0  0  0  0  0  0  0  0  0
   -7.2297    0.5494   -1.6054 C   0  0  0  0  0  0  0  0  0  0  0  0
   -7.1299   -0.0225   -0.3538 C   0  0  0  0  0  0  0  0  0  0  0  0
   -8.3081   -0.4616    0.2335 O   0  0  0  0  0  0  0  0  0  0  0  0
   -9.0020    0.4886    1.0373 C   0  0  0  0  0  0  0  0  0  0  0  0
   -9.3676    1.6021    0.3116 F   0  0  0  0  0  0  0  0  0  0  0  0
  -10.1295   -0.1372    1.5607 F   0  0  0  0  0  0  0  0  0  0  0  0
   -8.2356    0.9188    2.1020 F   0  0  0  0  0  0  0  0  0  0  0  0
   -5.8958   -0.1328    0.2498 C   0  0  0  0  0  0  0  0  0  0  0  0
    5.5861    0.1631    0.1294 C   0  0  0  0  0  0  0  0  0  0  0  0
    6.1729    1.0846   -0.7010 C   0  0  0  0  0  0  0  0  0  0  0  0
    7.4737    1.5476   -0.4771 C   0  0  0  0  0  0  0  0  0  0  0  0
    8.1796    1.0656    0.6027 C   0  0  0  0  0  0  0  0  0  0  0  0
    7.6020    0.1421    1.4416 C   0  0  0  0  0  0  0  0  0  0  0  0
    6.3116   -0.2974    1.1936 C   0  0  0  0  0  0  0  0  0  0  0  0
    3.6678   -2.3758   -1.9062 H   0  0  0  0  0  0  0  0  0  0  0  0
    2.2298   -2.3464   -2.9575 H   0  0  0  0  0  0  0  0  0  0  0  0
    2.0048   -2.7220   -1.2379 H   0  0  0  0  0  0  0  0  0  0  0  0
    1.8752   -0.1629   -2.4701 H   0  0  0  0  0  0  0  0  0  0  0  0
    4.3557   -0.1296   -2.1702 H   0  0  0  0  0  0  0  0  0  0  0  0
    3.5035    1.2218   -1.4062 H   0  0  0  0  0  0  0  0  0  0  0  0
    3.9364   -0.9521    1.8248 H   0  0  0  0  0  0  0  0  0  0  0  0
    3.5562   -2.1995    0.5265 H   0  0  0  0  0  0  0  0  0  0  0  0
    1.6225   -1.4863    1.4678 H   0  0  0  0  0  0  0  0  0  0  0  0
    2.1215    0.3040    1.3761 H   0  0  0  0  0  0  0  0  0  0  0  0
   -0.0195   -0.0804    2.1108 H   0  0  0  0  0  0  0  0  0  0  0  0
   -2.0339    0.1985    3.3489 H   0  0  0  0  0  0  0  0  0  0  0  0
   -4.2505    0.3930    2.2348 H   0  0  0  0  0  0  0  0  0  0  0  0
   -2.3853   -0.0101   -1.5082 H   0  0  0  0  0  0  0  0  0  0  0  0
   -4.0193    1.2427   -2.1302 H   0  0  0  0  0  0  0  0  0  0  0  0
   -6.2037    1.4627   -3.2510 H   0  0  0  0  0  0  0  0  0  0  0  0
   -8.1762    0.6624   -2.1288 H   0  0  0  0  0  0  0  0  0  0  0  0
   -5.8326   -0.5773    1.2181 H   0  0  0  0  0  0  0  0  0  0  0  0
    5.6825    1.5125   -1.5730 H   0  0  0  0  0  0  0  0  0  0  0  0
    7.9594    2.2713   -1.1135 H   0  0  0  0  0  0  0  0  0  0  0  0
    9.1968    1.4261    0.7800 H   0  0  0  0  0  0  0  0  0  0  0  0
    8.1370   -0.2373    2.2783 H   0  0  0  0  0  0  0  0  0  0  0  0
    5.9268   -1.0220    1.8889 H   0  0  0  0  0  0  0  0  0  0  0  0
  1  2  1  0
  2  3  1  0
  3  4  1  0
  4  5  1  0
  5  6  1  0
  6  7  1  0
  7  8  1  0
  8  9  2  0
  8 10  1  0
 10 11  2  0
 11 12  1  0
 12 13  2  0
 13 14  1  0
 14 15  2  0
 14 16  1  0
 16 17  2  0
 17 18  1  0
 18 19  2  0
 19 20  1  0
 20 21  1  0
 21 22  1  0
 22 23  1  0
 22 24  1  0
 22 25  1  0
 20 26  2  0
  4 27  1  0
 27 28  2  0
 28 29  1  0
 29 30  2  0
 30 31  1  0
 31 32  2  0
  7  2  1  0
 15 10  1  0
 26 16  1  0
 32 27  1  0
  1 33  1  0
  1 34  1  0
  1 35  1  0
  2 36  1  6
  3 37  1  0
  3 38  1  0
  5 39  1  0
  5 40  1  0
  6 41  1  0
  6 42  1  0
 11 43  1  0
 12 44  1  0
 13 45  1  0
 15 46  1  0
 17 47  1  0
 18 48  1  0
 19 49  1  0
 26 50  1  0
 28 51  1  0
 29 52  1  0
 30 53  1  0
 31 54  1  0
 32 55  1  0
M  END
$$$$
[H]c1c(F)c([H])c2c(C3([H])C([H])([H])C([H])([H])N(C([H])([H])[H])C([H])([H])C3([H])[H])c([H])n([H])c2c1[H]
     RDKit          3D

 34 36  0  0  0  0  0  0  0  0999 V2000
   -4.0440    0.9483   -0.4110 C   0  0  0  0  0  0  0  0  0  0  0  0
   -3.0948   -0.0913   -0.4837 N   0  0  0  0  0  0  0  0  0  0  0  0
   -1.9007    0.2955   -1.2129 C   0  0  0  0  0  0  0  0  0  0  0  0
   -0.9959   -0.8801   -1.1500 C   0  0  0  0  0  0  0  0  0  0  0  0
   -0.3347   -1.0148    0.1907 C   0  0  0  0  0  0  0  0  0  0  0  0
   -1.4431   -0.8193    1.2349 C   0  0  0  0  0  0  0  0  0  0  0  0
   -2.8392   -0.9116    0.6302 C   0  0  0  0  0  0  0  0  0  0  0  0
    0.6835    0.0557    0.3560 C   0  0  0  0  0  0  0  0  0  0  0  0
    0.5215    1.3198    0.8458 C   0  0  0  0  0  0  0  0  0  0  0  0
    1.7697    1.8749    0.9209 N   0  0  0  0  0  0  0  0  0  0  0  0
    2.7106    1.0083    0.4911 C   0  0  0  0  0  0  0  0  0  0  0  0
    4.0765    1.1263    0.3055 C   0  0  0  0  0  0  0  0  0  0  0  0
    4.7658    0.0923   -0.2398 C   0  0  0  0  0  0  0  0  0  0  0  0
    4.0788   -1.0560   -0.5929 C   0  0  0  0  0  0  0  0  0  0  0  0
    4.7887   -2.0705   -1.1508 F   0  0  0  0  0  0  0  0  0  0  0  0
    2.7338   -1.2057   -0.4237 C   0  0  0  0  0  0  0  0  0  0  0  0
    2.0283   -0.1293    0.1383 C   0  0  0  0  0  0  0  0  0  0  0  0
   -4.8812    0.7586    0.2551 H   0  0  0  0  0  0  0  0  0  0  0  0
   -3.5736    1.9640   -0.2210 H   0  0  0  0  0  0  0  0  0  0  0  0
   -4.4918    1.0598   -1.4501 H   0  0  0  0  0  0  0  0  0  0  0  0
   -2.1787    0.4432   -2.2926 H   0  0  0  0  0  0  0  0  0  0  0  0
   -1.4542    1.1844   -0.7927 H   0  0  0  0  0  0  0  0  0  0  0  0
   -0.2467   -0.9131   -1.9796 H   0  0  0  0  0  0  0  0  0  0  0  0
   -1.6407   -1.8075   -1.2712 H   0  0  0  0  0  0  0  0  0  0  0  0
    0.1517   -1.9884    0.2829 H   0  0  0  0  0  0  0  0  0  0  0  0
   -1.3688    0.1931    1.6577 H   0  0  0  0  0  0  0  0  0  0  0  0
   -1.4013   -1.5855    2.0284 H   0  0  0  0  0  0  0  0  0  0  0  0
   -3.5390   -0.7036    1.4589 H   0  0  0  0  0  0  0  0  0  0  0  0
   -3.0461   -1.9804    0.3427 H   0  0  0  0  0  0  0  0  0  0  0  0
   -0.3878    1.8587    1.1574 H   0  0  0  0  0  0  0  0  0  0  0  0
    1.9767    2.8488    1.2778 H   0  0  0  0  0  0  0  0  0  0  0  0
    4.5829    2.0285    0.5834 H   0  0  0  0  0  0  0  0  0  0  0  0
    5.8214    0.1678   -0.3994 H   0  0  0  0  0  0  0  0  0  0  0  0
    2.1724   -2.0708   -0.6860 H   0  0  0  0  0  0  0  0  0  0  0  0
  1  2  1  0
  2  3  1  0
  3  4  1  0
  4  5  1  0
  5  6  1  0
  6  7  1  0
  5  8  1  0
  8  9  2  0
  9 10  1  0
 10 11  1  0
 11 12  2  0
 12 13  1  0
 13 14  2  0
 14 15  1  0
 14 16  1  0
 16 17  2  0
  7  2  1  0
 17  8  1  0
 17 11  1  0
  1 18  1  0
  1 19  1  0
  1 20  1  0
  3 21  1  0
  3 22  1  0
  4 23  1  0
  4 24  1  0
  5 25  1  0
  6 26  1  0
  6 27  1  0
  7 28  1  0
  7 29  1  0
  9 30  1  0
 10 31  1  0
 12 32  1  0
 13 33  1  0
 16 34  1  0
M  END
$$$$
[H]c1nc(N2C([H])([H])C([H])([H])C([H])(N([H])C(=O)c3nc([H])c(Cl)c([H])c3[H])C([H])([H])C2([H])[H])c2c([H])c(-c3c([H])c([H])c(N4C([H])([H])C([H])([H])N(C([H])([H])[H])C([H])([H])C4([H])[H])c([H])c3[H])oc2n1
     RDKit          3D

 68 73  0  0  0  0  0  0  0  0999 V2000
    8.4092    2.3500   -0.8121 C   0  0  0  0  0  0  0  0  0  0  0  0
    8.5158    1.7344   -2.1019 N   0  0  0  0  0  0  0  0  0  0  0  0
    8.7038    0.3017   -2.0314 C   0  0  0  0  0  0  0  0  0  0  0  0
    7.5390   -0.4166   -1.4044 C   0  0  0  0  0  0  0  0  0  0  0  0
    6.2863    0.2731   -1.5660 N   0  0  0  0  0  0  0  0  0  0  0  0
    6.0975    1.4542   -2.3715 C   0  0  0  0  0  0  0  0  0  0  0  0
    7.3736    1.9735   -2.9588 C   0  0  0  0  0  0  0  0  0  0  0  0
    5.1560   -0.2632   -0.8718 C   0  0  0  0  0  0  0  0  0  0  0  0
    3.9180    0.3417   -0.9550 C   0  0  0  0  0  0  0  0  0  0  0  0
    2.8413   -0.1874   -0.2785 C   0  0  0  0  0  0  0  0  0  0  0  0
    2.9381   -1.3218    0.4992 C   0  0  0  0  0  0  0  0  0  0  0  0
    4.1638   -1.9385    0.5940 C   0  0  0  0  0  0  0  0  0  0  0  0
    5.2292   -1.3974   -0.0877 C   0  0  0  0  0  0  0  0  0  0  0  0
    1.7661   -1.8462    1.2025 C   0  0  0  0  0  0  0  0  0  0  0  0
    0.5149   -1.2722    1.1516 C   0  0  0  0  0  0  0  0  0  0  0  0
   -0.3325   -2.0532    1.9453 C   0  0  0  0  0  0  0  0  0  0  0  0
   -1.6726   -1.9792    2.2746 C   0  0  0  0  0  0  0  0  0  0  0  0
   -2.2219   -2.8990    3.0822 N   0  0  0  0  0  0  0  0  0  0  0  0
   -1.4265   -3.8777    3.5480 C   0  0  0  0  0  0  0  0  0  0  0  0
   -0.1098   -3.9620    3.2329 N   0  0  0  0  0  0  0  0  0  0  0  0
    0.4830   -3.0642    2.4290 C   0  0  0  0  0  0  0  0  0  0  0  0
    1.7187   -2.8955    1.9585 O   0  0  0  0  0  0  0  0  0  0  0  0
   -2.4011   -0.8994    1.7166 N   0  0  0  0  0  0  0  0  0  0  0  0
   -2.5312   -0.7787    0.2888 C   0  0  0  0  0  0  0  0  0  0  0  0
   -3.9982   -1.0254   -0.0461 C   0  0  0  0  0  0  0  0  0  0  0  0
   -4.9020   -0.3276    0.9372 C   0  0  0  0  0  0  0  0  0  0  0  0
   -4.0832    0.7695    1.6350 C   0  0  0  0  0  0  0  0  0  0  0  0
   -3.0396    0.1236    2.5279 C   0  0  0  0  0  0  0  0  0  0  0  0
   -5.9539    0.3506    0.1912 N   0  0  0  0  0  0  0  0  0  0  0  0
   -7.3173    0.2119    0.5112 C   0  0  0  0  0  0  0  0  0  0  0  0
   -7.6592   -0.5139    1.4682 O   0  0  0  0  0  0  0  0  0  0  0  0
   -8.3424    0.8986   -0.2491 C   0  0  0  0  0  0  0  0  0  0  0  0
   -8.1061    1.6907   -1.3532 C   0  0  0  0  0  0  0  0  0  0  0  0
   -9.0770    2.3432   -2.0640 C   0  0  0  0  0  0  0  0  0  0  0  0
  -10.3957    2.2014   -1.6488 C   0  0  0  0  0  0  0  0  0  0  0  0
  -11.7267    2.9815   -2.4732 Cl  0  0  0  0  0  0  0  0  0  0  0  0
  -10.6515    1.4135   -0.5471 C   0  0  0  0  0  0  0  0  0  0  0  0
   -9.6604    0.7973    0.1114 N   0  0  0  0  0  0  0  0  0  0  0  0
    7.6617    3.1714   -0.7566 H   0  0  0  0  0  0  0  0  0  0  0  0
    9.3817    2.8132   -0.5206 H   0  0  0  0  0  0  0  0  0  0  0  0
    8.1759    1.5492   -0.0672 H   0  0  0  0  0  0  0  0  0  0  0  0
    9.6057    0.1392   -1.3737 H   0  0  0  0  0  0  0  0  0  0  0  0
    8.8798   -0.0775   -3.0489 H   0  0  0  0  0  0  0  0  0  0  0  0
    7.4592   -1.4402   -1.8288 H   0  0  0  0  0  0  0  0  0  0  0  0
    7.7209   -0.5340   -0.3068 H   0  0  0  0  0  0  0  0  0  0  0  0
    5.3959    1.2671   -3.2349 H   0  0  0  0  0  0  0  0  0  0  0  0
    5.6030    2.2371   -1.7269 H   0  0  0  0  0  0  0  0  0  0  0  0
    7.2314    3.0588   -3.1568 H   0  0  0  0  0  0  0  0  0  0  0  0
    7.5739    1.4446   -3.9160 H   0  0  0  0  0  0  0  0  0  0  0  0
    3.8392    1.2374   -1.5699 H   0  0  0  0  0  0  0  0  0  0  0  0
    1.8777    0.3314   -0.3782 H   0  0  0  0  0  0  0  0  0  0  0  0
    4.2629   -2.8204    1.1920 H   0  0  0  0  0  0  0  0  0  0  0  0
    6.2204   -1.8807   -0.0228 H   0  0  0  0  0  0  0  0  0  0  0  0
    0.2051   -0.3913    0.6173 H   0  0  0  0  0  0  0  0  0  0  0  0
   -1.8198   -4.6543    4.2094 H   0  0  0  0  0  0  0  0  0  0  0  0
   -2.1966    0.2066   -0.1072 H   0  0  0  0  0  0  0  0  0  0  0  0
   -1.9293   -1.5361   -0.2580 H   0  0  0  0  0  0  0  0  0  0  0  0
   -4.2117   -2.1142   -0.0218 H   0  0  0  0  0  0  0  0  0  0  0  0
   -4.2068   -0.6477   -1.0908 H   0  0  0  0  0  0  0  0  0  0  0  0
   -5.2684   -0.9989    1.7108 H   0  0  0  0  0  0  0  0  0  0  0  0
   -4.7627    1.4082    2.1962 H   0  0  0  0  0  0  0  0  0  0  0  0
   -3.5770    1.3490    0.8656 H   0  0  0  0  0  0  0  0  0  0  0  0
   -2.3167    0.8760    2.8739 H   0  0  0  0  0  0  0  0  0  0  0  0
   -3.5473   -0.3164    3.4133 H   0  0  0  0  0  0  0  0  0  0  0  0
   -5.6243    0.9492   -0.6022 H   0  0  0  0  0  0  0  0  0  0  0  0
   -7.0869    1.8034   -1.6811 H   0  0  0  0  0  0  0  0  0  0  0  0
   -8.8922    2.9588   -2.9231 H   0  0  0  0  0  0  0  0  0  0  0  0
  -11.7005    1.3198   -0.2390 H   0  0  0  0  0  0  0  0  0  0  0  0
  1  2  1  0
  2  3  1  0
  3  4  1  0
  4  5  1  0
  5  6  1  0
  6  7  1  0
  5  8  1  0
  8  9  2  0
  9 10  1  0
 10 11  2  0
 11 12  1  0
 12 13  2  0
 11 14  1  0
 14 15  2  0
 15 16  1  0
 16 17  2  0
 17 18  1  0
 18 19  2  0
 19 20  1  0
 20 21  2  0
 21 22  1  0
 17 23  1  0
 23 24  1  0
 24 25  1  0
 25 26  1  0
 26 27  1  0
 27 28  1  0
 26 29  1  0
 29 30  1  0
 30 31  2  0
 30 32  1  0
 32 33  2  0
 33 34  1  0
 34 35  2  0
 35 36  1  0
 35 37  1  0
 37 38  2  0
  7  2  1  0
 13  8  1  0
 22 14  1  0
 28 23  1  0
 38 32  1  0
 21 16  1  0
  1 39  1  0
  1 40  1  0
  1 41  1  0
  3 42  1  0
  3 43  1  0
  4 44  1  0
  4 45  1  0
  6 46  1  0
  6 47  1  0
  7 48  1  0
  7 49  1  0
  9 50  1  0
 10 51  1  0
 12 52  1  0
 13 53  1  0
 15 54  1  0
 19 55  1  0
 24 56  1  0
 24 57  1  0
 25 58  1  0
 25 59  1  0
 26 60  1  0
 27 61  1  0
 27 62  1  0
 28 63  1  0
 28 64  1  0
 29 65  1  0
 33 66  1  0
 34 67  1  0
 37 68  1  0
M  END
$$$$
[H]c1c([H])c(-c2c([H])c([H])c(C(F)(F)F)c([H])c2[H])c([H])c([H])c1C(=O)N([H])[C@@]([H])(C([H])([H])[H])C(C([H])([H])[H])(C([H])([H])[H])C([H])([H])[H]
     RDKit          3D

 47 48  0  0  0  0  0  0  0  0999 V2000
   -4.2299   -1.6367   -1.5210 C   0  0  0  0  0  0  0  0  0  0  0  0
   -3.9251   -0.2772   -0.8899 C   0  0  2  0  0  0  0  0  0  0  0  0
   -2.5273   -0.2898   -0.5778 N   0  0  0  0  0  0  0  0  0  0  0  0
   -1.6171    0.7501   -0.7779 C   0  0  0  0  0  0  0  0  0  0  0  0
   -1.9299    1.9053   -1.2770 O   0  0  0  0  0  0  0  0  0  0  0  0
   -0.2118    0.5741   -0.4330 C   0  0  0  0  0  0  0  0  0  0  0  0
    0.7112    1.2814   -1.2155 C   0  0  0  0  0  0  0  0  0  0  0  0
    2.0463    1.1471   -0.9766 C   0  0  0  0  0  0  0  0  0  0  0  0
    2.5825    0.3316    0.0264 C   0  0  0  0  0  0  0  0  0  0  0  0
    1.6577   -0.3481    0.7785 C   0  0  0  0  0  0  0  0  0  0  0  0
    0.2809   -0.2327    0.5567 C   0  0  0  0  0  0  0  0  0  0  0  0
    4.0037    0.2003    0.1919 C   0  0  0  0  0  0  0  0  0  0  0  0
    4.6901    0.0164    1.3587 C   0  0  0  0  0  0  0  0  0  0  0  0
    6.0514   -0.1498    1.4725 C   0  0  0  0  0  0  0  0  0  0  0  0
    6.8187   -0.1386    0.3043 C   0  0  0  0  0  0  0  0  0  0  0  0
    6.1804    0.0435   -0.8983 C   0  0  0  0  0  0  0  0  0  0  0  0
    4.8142    0.2093   -0.9570 C   0  0  0  0  0  0  0  0  0  0  0  0
    8.2926   -0.3035    0.3846 C   0  0  0  0  0  0  0  0  0  0  0  0
    8.7480   -0.6217   -0.8689 F   0  0  0  0  0  0  0  0  0  0  0  0
    8.9137    0.8542    0.8264 F   0  0  0  0  0  0  0  0  0  0  0  0
    8.5666   -1.3269    1.2895 F   0  0  0  0  0  0  0  0  0  0  0  0
   -4.7961   -0.0161    0.2908 C   0  0  0  0  0  0  0  0  0  0  0  0
   -6.2747   -0.0593   -0.1020 C   0  0  0  0  0  0  0  0  0  0  0  0
   -4.5728    1.4443    0.7279 C   0  0  0  0  0  0  0  0  0  0  0  0
   -4.5334   -0.8831    1.4762 C   0  0  0  0  0  0  0  0  0  0  0  0
   -5.2157   -1.6726   -2.0083 H   0  0  0  0  0  0  0  0  0  0  0  0
   -4.2331   -2.4212   -0.7459 H   0  0  0  0  0  0  0  0  0  0  0  0
   -3.4836   -1.8265   -2.3516 H   0  0  0  0  0  0  0  0  0  0  0  0
   -4.1187    0.5209   -1.6611 H   0  0  0  0  0  0  0  0  0  0  0  0
   -2.1671   -1.2010   -0.1471 H   0  0  0  0  0  0  0  0  0  0  0  0
    0.3602    1.9426   -2.0092 H   0  0  0  0  0  0  0  0  0  0  0  0
    2.7614    1.7033   -1.5607 H   0  0  0  0  0  0  0  0  0  0  0  0
    2.0408   -0.9901    1.5748 H   0  0  0  0  0  0  0  0  0  0  0  0
   -0.4168   -0.7793    1.1775 H   0  0  0  0  0  0  0  0  0  0  0  0
    4.0728    0.0115    2.2612 H   0  0  0  0  0  0  0  0  0  0  0  0
    6.5610   -0.2916    2.4128 H   0  0  0  0  0  0  0  0  0  0  0  0
    6.7630    0.0644   -1.8064 H   0  0  0  0  0  0  0  0  0  0  0  0
    4.3171    0.3524   -1.9031 H   0  0  0  0  0  0  0  0  0  0  0  0
   -6.6664   -1.0924   -0.0892 H   0  0  0  0  0  0  0  0  0  0  0  0
   -6.8166    0.5302    0.6513 H   0  0  0  0  0  0  0  0  0  0  0  0
   -6.3889    0.4472   -1.0846 H   0  0  0  0  0  0  0  0  0  0  0  0
   -4.5370    2.1038   -0.1481 H   0  0  0  0  0  0  0  0  0  0  0  0
   -5.4821    1.7369    1.3221 H   0  0  0  0  0  0  0  0  0  0  0  0
   -3.7284    1.5528    1.4092 H   0  0  0  0  0  0  0  0  0  0  0  0
   -3.9512   -1.7914    1.2762 H   0  0  0  0  0  0  0  0  0  0  0  0
   -5.4957   -1.0876    2.0326 H   0  0  0  0  0  0  0  0  0  0  0  0
   -3.9147   -0.2865    2.2081 H   0  0  0  0  0  0  0  0  0  0  0  0
  1  2  1  0
  2  3  1  0
  3  4  1  0
  4  5  2  0
  4  6  1  0
  6  7  2  0
  7  8  1  0
  8  9  2  0
  9 10  1  0
 10 11  2  0
  9 12  1  0
 12 13  2  0
 13 14  1  0
 14 15  2  0
 15 16  1  0
 16 17  2  0
 15 18  1  0
 18 19  1  0
 18 20  1  0
 18 21  1  0
  2 22  1  0
 22 23  1  0
 22 24  1  0
 22 25  1  0
 11  6  1  0
 17 12  1  0
  1 26  1  0
  1 27  1  0
  1 28  1  0
  2 29  1  6
  3 30  1  0
  7 31  1  0
  8 32  1  0
 10 33  1  0
 11 34  1  0
 13 35  1  0
 14 36  1  0
 16 37  1  0
 17 38  1  0
 23 39  1  0
 23 40  1  0
 23 41  1  0
 24 42  1  0
 24 43  1  0
 24 44  1  0
 25 45  1  0
 25 46  1  0
 25 47  1  0
M  END
$$$$
[H]c1c(Cl)c([H])c(C(=O)N([H])[C@]2([H])C([H])([H])C([H])([H])[C@@]([H])(OC([H])([H])[H])C([H])([H])C2([H])[H])c([H])c1Cl
     RDKit          3D

 36 37  0  0  0  0  0  0  0  0999 V2000
   -5.3582   -0.4139    1.2201 C   0  0  0  0  0  0  0  0  0  0  0  0
   -4.3300    0.3420    0.6868 O   0  0  0  0  0  0  0  0  0  0  0  0
   -3.2520   -0.4841    0.4712 C   0  0  1  0  0  0  0  0  0  0  0  0
   -2.8480   -0.5140   -1.0029 C   0  0  0  0  0  0  0  0  0  0  0  0
   -1.3571   -0.8555   -1.0652 C   0  0  0  0  0  0  0  0  0  0  0  0
   -0.6185    0.4147   -0.7046 C   0  0  1  0  0  0  0  0  0  0  0  0
   -1.4051    1.1114    0.3770 C   0  0  0  0  0  0  0  0  0  0  0  0
   -2.0703    0.0575    1.2328 C   0  0  0  0  0  0  0  0  0  0  0  0
    0.7318    0.1367   -0.2469 N   0  0  0  0  0  0  0  0  0  0  0  0
    1.8352    0.6484   -0.9613 C   0  0  0  0  0  0  0  0  0  0  0  0
    1.6795    1.3561   -2.0115 O   0  0  0  0  0  0  0  0  0  0  0  0
    3.2111    0.4033   -0.5498 C   0  0  0  0  0  0  0  0  0  0  0  0
    3.4790   -0.1981    0.6770 C   0  0  0  0  0  0  0  0  0  0  0  0
    4.7744   -0.4280    1.0514 C   0  0  0  0  0  0  0  0  0  0  0  0
    5.1305   -1.1877    2.5995 Cl  0  0  0  0  0  0  0  0  0  0  0  0
    5.8040   -0.0618    0.2098 C   0  0  0  0  0  0  0  0  0  0  0  0
    5.5309    0.5381   -1.0136 C   0  0  0  0  0  0  0  0  0  0  0  0
    6.8705    0.9968   -2.0716 Cl  0  0  0  0  0  0  0  0  0  0  0  0
    4.2558    0.7717   -1.3972 C   0  0  0  0  0  0  0  0  0  0  0  0
   -5.0760   -0.8939    2.1931 H   0  0  0  0  0  0  0  0  0  0  0  0
   -5.6495   -1.2503    0.5481 H   0  0  0  0  0  0  0  0  0  0  0  0
   -6.2251    0.2613    1.3751 H   0  0  0  0  0  0  0  0  0  0  0  0
   -3.4515   -1.5330    0.7662 H   0  0  0  0  0  0  0  0  0  0  0  0
   -3.0124    0.4685   -1.4878 H   0  0  0  0  0  0  0  0  0  0  0  0
   -3.4648   -1.2522   -1.5314 H   0  0  0  0  0  0  0  0  0  0  0  0
   -1.1781   -1.6717   -0.3463 H   0  0  0  0  0  0  0  0  0  0  0  0
   -1.1497   -1.1592   -2.1058 H   0  0  0  0  0  0  0  0  0  0  0  0
   -0.5758    1.0330   -1.6141 H   0  0  0  0  0  0  0  0  0  0  0  0
   -2.1286    1.7833   -0.1054 H   0  0  0  0  0  0  0  0  0  0  0  0
   -0.7666    1.7189    1.0490 H   0  0  0  0  0  0  0  0  0  0  0  0
   -2.3762    0.5334    2.1930 H   0  0  0  0  0  0  0  0  0  0  0  0
   -1.3485   -0.7433    1.4627 H   0  0  0  0  0  0  0  0  0  0  0  0
    0.8301   -0.4367    0.5982 H   0  0  0  0  0  0  0  0  0  0  0  0
    2.6633   -0.4844    1.3410 H   0  0  0  0  0  0  0  0  0  0  0  0
    6.8128   -0.2458    0.5115 H   0  0  0  0  0  0  0  0  0  0  0  0
    4.0331    1.2384   -2.3483 H   0  0  0  0  0  0  0  0  0  0  0  0
  1  2  1  0
  2  3  1  0
  3  4  1  0
  4  5  1  0
  5  6  1  0
  6  7  1  0
  7  8  1  0
  6  9  1  0
  9 10  1  0
 10 11  2  0
 10 12  1  0
 12 13  2  0
 13 14  1  0
 14 15  1  0
 14 16  2  0
 16 17  1  0
 17 18  1  0
 17 19  2  0
  8  3  1  0
 19 12  1  0
  1 20  1  0
  1 21  1  0
  1 22  1  0
  3 23  1  1
  4 24  1  0
  4 25  1  0
  5 26  1  0
  5 27  1  0
  6 28  1  6
  7 29  1  0
  7 30  1  0
  8 31  1  0
  8 32  1  0
  9 33  1  0
 13 34  1  0
 16 35  1  0
 19 36  1  0
M  END
$$$$
[H]c1c([H])c([H])c(S(=O)(=O)N2C([H])([H])C([H])([H])N(C(=O)c3c([H])c([H])c(Cl)c([H])c3[H])[C@]([H])(C([H])([H])[H])C2([H])[H])c([H])c1[H]
     RDKit          3D

 44 46  0  0  0  0  0  0  0  0999 V2000
   -0.2570   -1.7788   -1.9385 C   0  0  0  0  0  0  0  0  0  0  0  0
   -0.0513   -0.6207   -1.0516 C   0  0  2  0  0  0  0  0  0  0  0  0
    0.7264   -1.0421    0.1802 C   0  0  0  0  0  0  0  0  0  0  0  0
    0.8276    0.0890    1.1159 N   0  0  0  0  0  0  0  0  0  0  0  0
    0.5876    1.3241    0.4577 C   0  0  0  0  0  0  0  0  0  0  0  0
   -0.9146    1.3462    0.0570 C   0  0  0  0  0  0  0  0  0  0  0  0
   -1.2245    0.0710   -0.5490 N   0  0  0  0  0  0  0  0  0  0  0  0
   -2.4948   -0.4884   -0.5835 C   0  0  0  0  0  0  0  0  0  0  0  0
   -2.5697   -1.7204   -1.0361 O   0  0  0  0  0  0  0  0  0  0  0  0
   -3.7965    0.0293   -0.2067 C   0  0  0  0  0  0  0  0  0  0  0  0
   -4.0670    1.3420    0.0636 C   0  0  0  0  0  0  0  0  0  0  0  0
   -5.3406    1.7443    0.4819 C   0  0  0  0  0  0  0  0  0  0  0  0
   -6.3490    0.8242    0.6281 C   0  0  0  0  0  0  0  0  0  0  0  0
   -7.9196    1.3819    1.1533 Cl  0  0  0  0  0  0  0  0  0  0  0  0
   -6.1001   -0.4957    0.3609 C   0  0  0  0  0  0  0  0  0  0  0  0
   -4.8667   -0.8637   -0.0401 C   0  0  0  0  0  0  0  0  0  0  0  0
    2.2830   -0.0505    1.9524 S   0  0  0  0  0  0  0  0  0  0  0  0
    2.3704    1.0349    3.0155 O   0  0  0  0  0  0  0  0  0  0  0  0
    2.2570   -1.3741    2.7074 O   0  0  0  0  0  0  0  0  0  0  0  0
    3.7260    0.0054    1.0240 C   0  0  0  0  0  0  0  0  0  0  0  0
    4.3929    1.1694    0.7111 C   0  0  0  0  0  0  0  0  0  0  0  0
    5.5459    1.1151   -0.0365 C   0  0  0  0  0  0  0  0  0  0  0  0
    6.0653   -0.0848   -0.4908 C   0  0  0  0  0  0  0  0  0  0  0  0
    5.4089   -1.2362   -0.1835 C   0  0  0  0  0  0  0  0  0  0  0  0
    4.2593   -1.1747    0.5627 C   0  0  0  0  0  0  0  0  0  0  0  0
   -0.4190   -2.7250   -1.3827 H   0  0  0  0  0  0  0  0  0  0  0  0
    0.7556   -1.9650   -2.4437 H   0  0  0  0  0  0  0  0  0  0  0  0
   -0.9452   -1.6484   -2.7873 H   0  0  0  0  0  0  0  0  0  0  0  0
    0.5739    0.1391   -1.5905 H   0  0  0  0  0  0  0  0  0  0  0  0
    0.2427   -1.8704    0.6983 H   0  0  0  0  0  0  0  0  0  0  0  0
    1.7111   -1.3822   -0.1821 H   0  0  0  0  0  0  0  0  0  0  0  0
    1.2233    1.5866   -0.3800 H   0  0  0  0  0  0  0  0  0  0  0  0
    0.6747    2.1416    1.2062 H   0  0  0  0  0  0  0  0  0  0  0  0
   -1.0948    2.1573   -0.6371 H   0  0  0  0  0  0  0  0  0  0  0  0
   -1.4627    1.5305    1.0039 H   0  0  0  0  0  0  0  0  0  0  0  0
   -3.3215    2.1307   -0.0681 H   0  0  0  0  0  0  0  0  0  0  0  0
   -5.5098    2.8056    0.6880 H   0  0  0  0  0  0  0  0  0  0  0  0
   -6.8801   -1.2511    0.4667 H   0  0  0  0  0  0  0  0  0  0  0  0
   -4.6854   -1.8976   -0.2430 H   0  0  0  0  0  0  0  0  0  0  0  0
    4.0101    2.1417    1.0548 H   0  0  0  0  0  0  0  0  0  0  0  0
    6.0896    2.0159   -0.2964 H   0  0  0  0  0  0  0  0  0  0  0  0
    6.9782   -0.1264   -1.0826 H   0  0  0  0  0  0  0  0  0  0  0  0
    5.7873   -2.1909   -0.5225 H   0  0  0  0  0  0  0  0  0  0  0  0
    3.7730   -2.1390    0.7797 H   0  0  0  0  0  0  0  0  0  0  0  0
  1  2  1  0
  2  3  1  0
  3  4  1  0
  4  5  1  0
  5  6  1  0
  6  7  1  0
  7  8  1  0
  8  9  2  0
  8 10  1  0
 10 11  2  0
 11 12  1  0
 12 13  2  0
 13 14  1  0
 13 15  1  0
 15 16  2  0
  4 17  1  0
 17 18  2  0
 17 19  2  0
 17 20  1  0
 20 21  2  0
 21 22  1  0
 22 23  2  0
 23 24  1  0
 24 25  2  0
  7  2  1  0
 16 10  1  0
 25 20  1  0
  1 26  1  0
  1 27  1  0
  1 28  1  0
  2 29  1  6
  3 30  1  0
  3 31  1  0
  5 32  1  0
  5 33  1  0
  6 34  1  0
  6 35  1  0
 11 36  1  0
 12 37  1  0
 15 38  1  0
 16 39  1  0
 21 40  1  0
 22 41  1  0
 23 42  1  0
 24 43  1  0
 25 44  1  0
M  END
$$$$
[H]c1nc(N([H])c2c([H])c([H])c(N3C([H])([H])C([H])([H])OC([H])([H])C3([H])[H])c([H])c2OC([H])([H])[H])nc(N([H])c2c([H])c([H])c([H])c([H])c2S(=O)(=O)C([H])(C([H])([H])[H])C([H])([H])[H])c1Cl
     RDKit          3D

 63 66  0  0  0  0  0  0  0  0999 V2000
    3.6437   -2.0120   -2.5675 C   0  0  0  0  0  0  0  0  0  0  0  0
    2.8669   -1.2961   -1.6426 O   0  0  0  0  0  0  0  0  0  0  0  0
    3.3871   -0.6019   -0.5867 C   0  0  0  0  0  0  0  0  0  0  0  0
    4.7411   -0.5811   -0.3889 C   0  0  0  0  0  0  0  0  0  0  0  0
    5.3376    0.0942    0.6493 C   0  0  0  0  0  0  0  0  0  0  0  0
    4.4934    0.7658    1.5037 C   0  0  0  0  0  0  0  0  0  0  0  0
    3.0990    0.7572    1.3183 C   0  0  0  0  0  0  0  0  0  0  0  0
    2.5112    0.0817    0.2806 C   0  0  0  0  0  0  0  0  0  0  0  0
    1.1323    0.0331    0.0429 N   0  0  0  0  0  0  0  0  0  0  0  0
    0.0772    0.6383    0.7645 C   0  0  0  0  0  0  0  0  0  0  0  0
    0.2179    1.4001    1.8494 N   0  0  0  0  0  0  0  0  0  0  0  0
   -0.7908    1.9640    2.5218 C   0  0  0  0  0  0  0  0  0  0  0  0
   -2.0564    1.7305    2.0458 C   0  0  0  0  0  0  0  0  0  0  0  0
   -3.4138    2.4314    2.8695 Cl  0  0  0  0  0  0  0  0  0  0  0  0
   -2.3023    0.9374    0.9046 C   0  0  0  0  0  0  0  0  0  0  0  0
   -3.6255    0.7548    0.5134 N   0  0  0  0  0  0  0  0  0  0  0  0
   -4.0700    0.0171   -0.5895 C   0  0  0  0  0  0  0  0  0  0  0  0
   -3.3018   -0.5769   -1.5571 C   0  0  0  0  0  0  0  0  0  0  0  0
   -3.8235   -1.2834   -2.6463 C   0  0  0  0  0  0  0  0  0  0  0  0
   -5.1784   -1.3982   -2.7697 C   0  0  0  0  0  0  0  0  0  0  0  0
   -6.0032   -0.8232   -1.8300 C   0  0  0  0  0  0  0  0  0  0  0  0
   -5.4661   -0.1344   -0.7678 C   0  0  0  0  0  0  0  0  0  0  0  0
   -6.5314    0.5722    0.4003 S   0  0  0  0  0  0  0  0  0  0  0  0
   -6.2858    0.0031    1.7748 O   0  0  0  0  0  0  0  0  0  0  0  0
   -6.4838    2.0804    0.3882 O   0  0  0  0  0  0  0  0  0  0  0  0
   -8.2264    0.1770   -0.0589 C   0  0  0  0  0  0  0  0  0  0  0  0
   -8.5676   -1.2538    0.1547 C   0  0  0  0  0  0  0  0  0  0  0  0
   -9.0737    1.0663    0.8814 C   0  0  0  0  0  0  0  0  0  0  0  0
   -1.2064    0.4429    0.3395 N   0  0  0  0  0  0  0  0  0  0  0  0
    6.7460    0.1002    0.8261 N   0  0  0  0  0  0  0  0  0  0  0  0
    7.2910    0.7873    1.9629 C   0  0  0  0  0  0  0  0  0  0  0  0
    8.7792    0.6290    2.0247 C   0  0  0  0  0  0  0  0  0  0  0  0
    9.2907    0.9121    0.7566 O   0  0  0  0  0  0  0  0  0  0  0  0
    9.0441   -0.2107   -0.0319 C   0  0  0  0  0  0  0  0  0  0  0  0
    7.6019   -0.5643   -0.1128 C   0  0  0  0  0  0  0  0  0  0  0  0
    4.2027   -2.7883   -1.9862 H   0  0  0  0  0  0  0  0  0  0  0  0
    4.3711   -1.3833   -3.1162 H   0  0  0  0  0  0  0  0  0  0  0  0
    3.0201   -2.5336   -3.3212 H   0  0  0  0  0  0  0  0  0  0  0  0
    5.4204   -1.1194   -1.0708 H   0  0  0  0  0  0  0  0  0  0  0  0
    4.9295    1.3128    2.3389 H   0  0  0  0  0  0  0  0  0  0  0  0
    2.5385    1.3094    2.0391 H   0  0  0  0  0  0  0  0  0  0  0  0
    0.8202   -0.5519   -0.8172 H   0  0  0  0  0  0  0  0  0  0  0  0
   -0.6285    2.5783    3.4023 H   0  0  0  0  0  0  0  0  0  0  0  0
   -4.3573    1.2212    1.0982 H   0  0  0  0  0  0  0  0  0  0  0  0
   -2.2238   -0.4938   -1.4844 H   0  0  0  0  0  0  0  0  0  0  0  0
   -3.1232   -1.7098   -3.3465 H   0  0  0  0  0  0  0  0  0  0  0  0
   -5.6265   -1.9476   -3.6132 H   0  0  0  0  0  0  0  0  0  0  0  0
   -7.0920   -0.9288   -1.9656 H   0  0  0  0  0  0  0  0  0  0  0  0
   -8.4110    0.5489   -1.0713 H   0  0  0  0  0  0  0  0  0  0  0  0
   -9.2714   -1.3415    1.0065 H   0  0  0  0  0  0  0  0  0  0  0  0
   -7.6703   -1.8914    0.2950 H   0  0  0  0  0  0  0  0  0  0  0  0
   -9.0847   -1.6751   -0.7504 H   0  0  0  0  0  0  0  0  0  0  0  0
   -9.0076    0.6112    1.8821 H   0  0  0  0  0  0  0  0  0  0  0  0
   -8.5582    2.0444    0.9180 H   0  0  0  0  0  0  0  0  0  0  0  0
  -10.0922    1.1558    0.5034 H   0  0  0  0  0  0  0  0  0  0  0  0
    6.8922    0.3054    2.9060 H   0  0  0  0  0  0  0  0  0  0  0  0
    7.0117    1.8662    1.9751 H   0  0  0  0  0  0  0  0  0  0  0  0
    9.1663    1.3638    2.7834 H   0  0  0  0  0  0  0  0  0  0  0  0
    9.0169   -0.4042    2.3636 H   0  0  0  0  0  0  0  0  0  0  0  0
    9.5239   -0.1191   -1.0341 H   0  0  0  0  0  0  0  0  0  0  0  0
    9.6039   -1.0477    0.4801 H   0  0  0  0  0  0  0  0  0  0  0  0
    7.2906   -0.3564   -1.1783 H   0  0  0  0  0  0  0  0  0  0  0  0
    7.4852   -1.6655    0.0961 H   0  0  0  0  0  0  0  0  0  0  0  0
  1  2  1  0
  2  3  1  0
  3  4  2  0
  4  5  1  0
  5  6  2  0
  6  7  1  0
  7  8  2  0
  8  9  1  0
  9 10  1  0
 10 11  2  0
 11 12  1  0
 12 13  2  0
 13 14  1  0
 13 15  1  0
 15 16  1  0
 16 17  1  0
 17 18  2  0
 18 19  1  0
 19 20  2  0
 20 21  1  0
 21 22  2  0
 22 23  1  0
 23 24  2  0
 23 25  2  0
 23 26  1  0
 26 27  1  0
 26 28  1  0
 15 29  2  0
  5 30  1  0
 30 31  1  0
 31 32  1  0
 32 33  1  0
 33 34  1  0
 34 35  1  0
  8  3  1  0
 29 10  1  0
 35 30  1  0
 22 17  1  0
  1 36  1  0
  1 37  1  0
  1 38  1  0
  4 39  1  0
  6 40  1  0
  7 41  1  0
  9 42  1  0
 12 43  1  0
 16 44  1  0
 18 45  1  0
 19 46  1  0
 20 47  1  0
 21 48  1  0
 26 49  1  0
 27 50  1  0
 27 51  1  0
 27 52  1  0
 28 53  1  0
 28 54  1  0
 28 55  1  0
 31 56  1  0
 31 57  1  0
 32 58  1  0
 32 59  1  0
 34 60  1  0
 34 61  1  0
 35 62  1  0
 35 63  1  0
M  END
$$$$
[H]c1c([H])c([H])c(C([H])([H])OC(=O)N([H])[C@]([H])(C(=O)N([H])[C@]([H])(C(=O)N([H])[C@]([H])(C(=O)N([H])[H])C([H])([H])c2c([H])c([H])c([H])c([H])c2[H])C([H])([H])C([H])(C([H])([H])[H])C([H])([H])[H])C([H])([H])c2c([H])c([H])c([H])c([H])c2[H])c([H])c1[H]
     RDKit          3D

 79 81  0  0  0  0  0  0  0  0999 V2000
   -2.6763    2.5316   -4.2037 C   0  0  0  0  0  0  0  0  0  0  0  0
   -2.5475    2.6078   -2.6470 C   0  0  0  0  0  0  0  0  0  0  0  0
   -3.8846    2.8591   -2.1424 C   0  0  0  0  0  0  0  0  0  0  0  0
   -1.6919    1.4960   -2.2539 C   0  0  0  0  0  0  0  0  0  0  0  0
   -1.2936    1.1776   -0.8938 C   0  0  2  0  0  0  0  0  0  0  0  0
   -0.2991    0.0334   -1.0765 N   0  0  0  0  0  0  0  0  0  0  0  0
    1.0814    0.2255   -0.8597 C   0  0  0  0  0  0  0  0  0  0  0  0
    1.4725    1.3524   -0.5140 O   0  0  0  0  0  0  0  0  0  0  0  0
    2.0396   -0.9221   -1.0517 C   0  0  2  0  0  0  0  0  0  0  0  0
    1.5492   -2.0711   -0.2496 C   0  0  0  0  0  0  0  0  0  0  0  0
    2.3974   -3.2877   -0.3671 C   0  0  0  0  0  0  0  0  0  0  0  0
    3.4428   -3.5749    0.4634 C   0  0  0  0  0  0  0  0  0  0  0  0
    4.1703   -4.7320    0.2625 C   0  0  0  0  0  0  0  0  0  0  0  0
    3.8767   -5.6118   -0.7497 C   0  0  0  0  0  0  0  0  0  0  0  0
    2.8082   -5.3130   -1.5945 C   0  0  0  0  0  0  0  0  0  0  0  0
    2.0844   -4.1614   -1.3956 C   0  0  0  0  0  0  0  0  0  0  0  0
    3.3810   -0.5211   -0.7882 N   0  0  0  0  0  0  0  0  0  0  0  0
    3.9130    0.0751    0.3589 C   0  0  0  0  0  0  0  0  0  0  0  0
    3.2712    0.3716    1.4057 O   0  0  0  0  0  0  0  0  0  0  0  0
    5.2679    0.3893    0.4052 O   0  0  0  0  0  0  0  0  0  0  0  0
    5.8851    0.9836    1.5153 C   0  0  0  0  0  0  0  0  0  0  0  0
    7.3426    1.1767    1.2502 C   0  0  0  0  0  0  0  0  0  0  0  0
    8.3072    0.2718    1.6432 C   0  0  0  0  0  0  0  0  0  0  0  0
    9.6389    0.4473    1.4070 C   0  0  0  0  0  0  0  0  0  0  0  0
   10.0725    1.5957    0.7346 C   0  0  0  0  0  0  0  0  0  0  0  0
    9.1454    2.5335    0.3198 C   0  0  0  0  0  0  0  0  0  0  0  0
    7.7966    2.3126    0.5826 C   0  0  0  0  0  0  0  0  0  0  0  0
   -2.1544    0.6483    0.1384 C   0  0  0  0  0  0  0  0  0  0  0  0
   -1.4578    0.1465    1.1562 O   0  0  0  0  0  0  0  0  0  0  0  0
   -3.5226    0.5192    0.3439 N   0  0  0  0  0  0  0  0  0  0  0  0
   -4.0490   -0.1029    1.5906 C   0  0  1  0  0  0  0  0  0  0  0  0
   -5.1527    0.6672    2.2120 C   0  0  0  0  0  0  0  0  0  0  0  0
   -6.3559    0.8797    1.4192 C   0  0  0  0  0  0  0  0  0  0  0  0
   -6.4748    1.9993    0.6180 C   0  0  0  0  0  0  0  0  0  0  0  0
   -7.5911    2.2396   -0.1515 C   0  0  0  0  0  0  0  0  0  0  0  0
   -8.6344    1.3115   -0.1142 C   0  0  0  0  0  0  0  0  0  0  0  0
   -8.5635    0.1793    0.6671 C   0  0  0  0  0  0  0  0  0  0  0  0
   -7.4026   -0.0082    1.4279 C   0  0  0  0  0  0  0  0  0  0  0  0
   -4.3479   -1.5414    1.3394 C   0  0  0  0  0  0  0  0  0  0  0  0
   -4.8150   -2.4224    2.3272 N   0  0  0  0  0  0  0  0  0  0  0  0
   -4.1724   -2.0255    0.1659 O   0  0  0  0  0  0  0  0  0  0  0  0
   -3.0630    1.5621   -4.5198 H   0  0  0  0  0  0  0  0  0  0  0  0
   -1.6873    2.6995   -4.6821 H   0  0  0  0  0  0  0  0  0  0  0  0
   -3.3632    3.3078   -4.5704 H   0  0  0  0  0  0  0  0  0  0  0  0
   -1.9684    3.6144   -2.5272 H   0  0  0  0  0  0  0  0  0  0  0  0
   -3.9615    3.1846   -1.0817 H   0  0  0  0  0  0  0  0  0  0  0  0
   -4.5556    2.0094   -2.3680 H   0  0  0  0  0  0  0  0  0  0  0  0
   -4.3210    3.7191   -2.7298 H   0  0  0  0  0  0  0  0  0  0  0  0
   -0.7006    1.6458   -2.8402 H   0  0  0  0  0  0  0  0  0  0  0  0
   -2.0554    0.4951   -2.7194 H   0  0  0  0  0  0  0  0  0  0  0  0
   -0.6109    1.9674   -0.4415 H   0  0  0  0  0  0  0  0  0  0  0  0
   -0.6448   -0.8950   -1.3670 H   0  0  0  0  0  0  0  0  0  0  0  0
    1.9097   -1.1908   -2.1431 H   0  0  0  0  0  0  0  0  0  0  0  0
    0.5376   -2.3429   -0.5904 H   0  0  0  0  0  0  0  0  0  0  0  0
    1.4320   -1.7951    0.8394 H   0  0  0  0  0  0  0  0  0  0  0  0
    3.6895   -2.8954    1.2764 H   0  0  0  0  0  0  0  0  0  0  0  0
    5.0070   -4.9569    0.9263 H   0  0  0  0  0  0  0  0  0  0  0  0
    4.4419   -6.5297   -0.9174 H   0  0  0  0  0  0  0  0  0  0  0  0
    2.5968   -6.0291   -2.3915 H   0  0  0  0  0  0  0  0  0  0  0  0
    1.2438   -3.9489   -2.0752 H   0  0  0  0  0  0  0  0  0  0  0  0
    4.0623   -0.7137   -1.5976 H   0  0  0  0  0  0  0  0  0  0  0  0
    5.8042    0.2878    2.3676 H   0  0  0  0  0  0  0  0  0  0  0  0
    5.4858    1.9886    1.7587 H   0  0  0  0  0  0  0  0  0  0  0  0
    7.9841   -0.6175    2.1662 H   0  0  0  0  0  0  0  0  0  0  0  0
   10.3457   -0.3070    1.7396 H   0  0  0  0  0  0  0  0  0  0  0  0
   11.1392    1.7032    0.5613 H   0  0  0  0  0  0  0  0  0  0  0  0
    9.5054    3.4077   -0.1991 H   0  0  0  0  0  0  0  0  0  0  0  0
    7.0896    3.0585    0.2475 H   0  0  0  0  0  0  0  0  0  0  0  0
   -4.2852    0.7921   -0.2954 H   0  0  0  0  0  0  0  0  0  0  0  0
   -3.1742   -0.1141    2.2839 H   0  0  0  0  0  0  0  0  0  0  0  0
   -5.3650    0.1674    3.2034 H   0  0  0  0  0  0  0  0  0  0  0  0
   -4.6902    1.6592    2.5523 H   0  0  0  0  0  0  0  0  0  0  0  0
   -5.6827    2.7650    0.5511 H   0  0  0  0  0  0  0  0  0  0  0  0
   -7.7354    3.0954   -0.7947 H   0  0  0  0  0  0  0  0  0  0  0  0
   -9.5455    1.4585   -0.7093 H   0  0  0  0  0  0  0  0  0  0  0  0
   -9.3518   -0.5789    0.7217 H   0  0  0  0  0  0  0  0  0  0  0  0
   -7.3955   -0.9168    2.0357 H   0  0  0  0  0  0  0  0  0  0  0  0
   -4.8969   -3.4350    2.1379 H   0  0  0  0  0  0  0  0  0  0  0  0
   -5.0772   -2.0573    3.2602 H   0  0  0  0  0  0  0  0  0  0  0  0
  1  2  1  0
  2  3  1  0
  2  4  1  0
  4  5  1  0
  5  6  1  0
  6  7  1  0
  7  8  2  0
  7  9  1  0
  9 10  1  0
 10 11  1  0
 11 12  2  0
 12 13  1  0
 13 14  2  0
 14 15  1  0
 15 16  2  0
  9 17  1  0
 17 18  1  0
 18 19  2  0
 18 20  1  0
 20 21  1  0
 21 22  1  0
 22 23  2  0
 23 24  1  0
 24 25  2  0
 25 26  1  0
 26 27  2  0
  5 28  1  0
 28 29  2  0
 28 30  1  0
 30 31  1  0
 31 32  1  0
 32 33  1  0
 33 34  2  0
 34 35  1  0
 35 36  2  0
 36 37  1  0
 37 38  2  0
 31 39  1  0
 39 40  1  0
 39 41  2  0
 16 11  1  0
 27 22  1  0
 38 33  1  0
  1 42  1  0
  1 43  1  0
  1 44  1  0
  2 45  1  0
  3 46  1  0
  3 47  1  0
  3 48  1  0
  4 49  1  0
  4 50  1  0
  5 51  1  1
  6 52  1  0
  9 53  1  6
 10 54  1  0
 10 55  1  0
 12 56  1  0
 13 57  1  0
 14 58  1  0
 15 59  1  0
 16 60  1  0
 17 61  1  0
 21 62  1  0
 21 63  1  0
 23 64  1  0
 24 65  1  0
 25 66  1  0
 26 67  1  0
 27 68  1  0
 30 69  1  0
 31 70  1  1
 32 71  1  0
 32 72  1  0
 34 73  1  0
 35 74  1  0
 36 75  1  0
 37 76  1  0
 38 77  1  0
 40 78  1  0
 40 79  1  0
M  END
$$$$
[H]c1c([H])c([H])c(C([H])([H])OC(=O)N([H])[C@@]([H])(C(=O)N([H])[C@]([H])(C(=O)N([H])[C@]([H])(C(=O)N([H])[C@]([H])(C(=O)N([H])[H])C([H])([H])c2c([H])c([H])c([H])c([H])c2[H])C([H])([H])c2c([H])c([H])c([H])c([H])c2[H])C([H])(C([H])([H])[H])C([H])([H])[H])C([H])([H])c2c([H])c([H])c([H])c([H])c2[H])c([H])c1[H]
     RDKit          3D

 96 99  0  0  0  0  0  0  0  0999 V2000
   -0.9765   -3.4917    1.3975 C   0  0  0  0  0  0  0  0  0  0  0  0
    0.2107   -2.6193    1.7039 C   0  0  0  0  0  0  0  0  0  0  0  0
    0.0406   -1.9200    3.0419 C   0  0  0  0  0  0  0  0  0  0  0  0
    0.6128   -1.6913    0.6119 C   0  0  2  0  0  0  0  0  0  0  0  0
    1.8154   -0.9713    1.0401 N   0  0  0  0  0  0  0  0  0  0  0  0
    3.0671   -1.1457    0.3911 C   0  0  0  0  0  0  0  0  0  0  0  0
    3.0440   -1.9798   -0.5961 O   0  0  0  0  0  0  0  0  0  0  0  0
    4.3116   -0.4651    0.7512 C   0  0  1  0  0  0  0  0  0  0  0  0
    4.7518   -0.8947    2.1274 C   0  0  0  0  0  0  0  0  0  0  0  0
    5.0407   -2.3126    2.3056 C   0  0  0  0  0  0  0  0  0  0  0  0
    6.3077   -2.7670    2.0560 C   0  0  0  0  0  0  0  0  0  0  0  0
    6.5852   -4.1009    2.2412 C   0  0  0  0  0  0  0  0  0  0  0  0
    5.6224   -4.9699    2.6665 C   0  0  0  0  0  0  0  0  0  0  0  0
    4.3584   -4.5443    2.9196 C   0  0  0  0  0  0  0  0  0  0  0  0
    4.0706   -3.1794    2.7313 C   0  0  0  0  0  0  0  0  0  0  0  0
    5.3500   -0.7062   -0.2512 N   0  0  0  0  0  0  0  0  0  0  0  0
    6.1063    0.3843   -0.7372 C   0  0  0  0  0  0  0  0  0  0  0  0
    5.8902    1.5317   -0.2948 O   0  0  0  0  0  0  0  0  0  0  0  0
    7.0770    0.1937   -1.6956 O   0  0  0  0  0  0  0  0  0  0  0  0
    7.8566    1.2807   -2.1964 C   0  0  0  0  0  0  0  0  0  0  0  0
    8.5645    1.8097   -0.9763 C   0  0  0  0  0  0  0  0  0  0  0  0
    8.6086    3.1350   -0.7099 C   0  0  0  0  0  0  0  0  0  0  0  0
    9.2598    3.5729    0.4297 C   0  0  0  0  0  0  0  0  0  0  0  0
    9.8578    2.7037    1.2895 C   0  0  0  0  0  0  0  0  0  0  0  0
    9.8222    1.3427    1.0356 C   0  0  0  0  0  0  0  0  0  0  0  0
    9.1716    0.9157   -0.0992 C   0  0  0  0  0  0  0  0  0  0  0  0
   -0.3857   -0.6863    0.1875 C   0  0  0  0  0  0  0  0  0  0  0  0
   -0.0363    0.5536    0.2332 O   0  0  0  0  0  0  0  0  0  0  0  0
   -1.6600   -0.9409   -0.2585 N   0  0  0  0  0  0  0  0  0  0  0  0
   -2.5977    0.1603   -0.6977 C   0  0  1  0  0  0  0  0  0  0  0  0
   -2.7837   -0.1302   -2.1470 C   0  0  0  0  0  0  0  0  0  0  0  0
   -3.6163    0.6800   -2.9961 C   0  0  0  0  0  0  0  0  0  0  0  0
   -3.1984    1.9498   -3.3978 C   0  0  0  0  0  0  0  0  0  0  0  0
   -3.9177    2.7108   -4.2637 C   0  0  0  0  0  0  0  0  0  0  0  0
   -5.1066    2.2885   -4.8068 C   0  0  0  0  0  0  0  0  0  0  0  0
   -5.5579    1.0122   -4.4262 C   0  0  0  0  0  0  0  0  0  0  0  0
   -4.8112    0.2626   -3.5463 C   0  0  0  0  0  0  0  0  0  0  0  0
   -3.6906    0.2607    0.2359 C   0  0  0  0  0  0  0  0  0  0  0  0
   -3.4019   -0.1809    1.4422 O   0  0  0  0  0  0  0  0  0  0  0  0
   -4.9719    0.7293    0.0859 N   0  0  0  0  0  0  0  0  0  0  0  0
   -6.0717    0.8151    1.0183 C   0  0  1  0  0  0  0  0  0  0  0  0
   -6.9282    1.9961    0.9663 C   0  0  0  0  0  0  0  0  0  0  0  0
   -7.6406    2.3350   -0.2830 C   0  0  0  0  0  0  0  0  0  0  0  0
   -7.0761    3.1856   -1.2171 C   0  0  0  0  0  0  0  0  0  0  0  0
   -7.7590    3.5119   -2.3525 C   0  0  0  0  0  0  0  0  0  0  0  0
   -9.0190    3.0236   -2.6316 C   0  0  0  0  0  0  0  0  0  0  0  0
   -9.5876    2.1804   -1.7126 C   0  0  0  0  0  0  0  0  0  0  0  0
   -8.9058    1.8469   -0.5612 C   0  0  0  0  0  0  0  0  0  0  0  0
   -6.6246   -0.4617    1.4885 C   0  0  0  0  0  0  0  0  0  0  0  0
   -7.9879   -0.8242    1.5222 N   0  0  0  0  0  0  0  0  0  0  0  0
   -5.8258   -1.3779    1.9106 O   0  0  0  0  0  0  0  0  0  0  0  0
   -0.8631   -4.4085    2.0464 H   0  0  0  0  0  0  0  0  0  0  0  0
   -1.0320   -3.7817    0.3416 H   0  0  0  0  0  0  0  0  0  0  0  0
   -1.8921   -2.9762    1.6886 H   0  0  0  0  0  0  0  0  0  0  0  0
    1.0648   -3.3374    1.8311 H   0  0  0  0  0  0  0  0  0  0  0  0
    1.0091   -1.8457    3.5812 H   0  0  0  0  0  0  0  0  0  0  0  0
   -0.3620   -0.9040    2.9343 H   0  0  0  0  0  0  0  0  0  0  0  0
   -0.6140   -2.5616    3.7101 H   0  0  0  0  0  0  0  0  0  0  0  0
    0.9379   -2.3204   -0.2637 H   0  0  0  0  0  0  0  0  0  0  0  0
    1.7807   -0.3033    1.8377 H   0  0  0  0  0  0  0  0  0  0  0  0
    4.1537    0.6503    0.8395 H   0  0  0  0  0  0  0  0  0  0  0  0
    5.6094   -0.2703    2.5018 H   0  0  0  0  0  0  0  0  0  0  0  0
    3.9027   -0.5652    2.8089 H   0  0  0  0  0  0  0  0  0  0  0  0
    7.1110   -2.1172    1.7145 H   0  0  0  0  0  0  0  0  0  0  0  0
    7.5621   -4.4993    2.0628 H   0  0  0  0  0  0  0  0  0  0  0  0
    5.8746   -6.0367    2.8088 H   0  0  0  0  0  0  0  0  0  0  0  0
    3.5811   -5.2331    3.2607 H   0  0  0  0  0  0  0  0  0  0  0  0
    3.0612   -2.9021    2.9678 H   0  0  0  0  0  0  0  0  0  0  0  0
    5.5537   -1.6557   -0.6228 H   0  0  0  0  0  0  0  0  0  0  0  0
    7.2148    2.0600   -2.6367 H   0  0  0  0  0  0  0  0  0  0  0  0
    8.5987    0.8872   -2.9136 H   0  0  0  0  0  0  0  0  0  0  0  0
    8.1375    3.8646   -1.3851 H   0  0  0  0  0  0  0  0  0  0  0  0
    9.2846    4.6438    0.6342 H   0  0  0  0  0  0  0  0  0  0  0  0
   10.3556    3.1167    2.1750 H   0  0  0  0  0  0  0  0  0  0  0  0
   10.2970    0.6892    1.7374 H   0  0  0  0  0  0  0  0  0  0  0  0
    9.1088   -0.1296   -0.3507 H   0  0  0  0  0  0  0  0  0  0  0  0
   -2.0711   -1.8682   -0.3491 H   0  0  0  0  0  0  0  0  0  0  0  0
   -1.9117    1.0679   -0.6495 H   0  0  0  0  0  0  0  0  0  0  0  0
   -1.7406   -0.1404   -2.5952 H   0  0  0  0  0  0  0  0  0  0  0  0
   -3.0539   -1.2493   -2.2605 H   0  0  0  0  0  0  0  0  0  0  0  0
   -2.2555    2.2909   -2.9758 H   0  0  0  0  0  0  0  0  0  0  0  0
   -3.5877    3.7164   -4.5766 H   0  0  0  0  0  0  0  0  0  0  0  0
   -5.6983    2.8706   -5.4919 H   0  0  0  0  0  0  0  0  0  0  0  0
   -6.4907    0.7018   -4.8694 H   0  0  0  0  0  0  0  0  0  0  0  0
   -5.2214   -0.7345   -3.2878 H   0  0  0  0  0  0  0  0  0  0  0  0
   -5.2102    1.1436   -0.8777 H   0  0  0  0  0  0  0  0  0  0  0  0
   -5.4039    1.0657    2.0210 H   0  0  0  0  0  0  0  0  0  0  0  0
   -7.7585    1.9574    1.7486 H   0  0  0  0  0  0  0  0  0  0  0  0
   -6.3709    2.9349    1.2700 H   0  0  0  0  0  0  0  0  0  0  0  0
   -6.0876    3.5621   -1.0068 H   0  0  0  0  0  0  0  0  0  0  0  0
   -7.3116    4.2008   -3.1061 H   0  0  0  0  0  0  0  0  0  0  0  0
   -9.5412    3.3089   -3.5598 H   0  0  0  0  0  0  0  0  0  0  0  0
  -10.5634    1.7812   -1.8873 H   0  0  0  0  0  0  0  0  0  0  0  0
   -9.4216    1.1852    0.1392 H   0  0  0  0  0  0  0  0  0  0  0  0
   -8.4025   -1.5520    0.8971 H   0  0  0  0  0  0  0  0  0  0  0  0
   -8.5979   -0.3181    2.2184 H   0  0  0  0  0  0  0  0  0  0  0  0
  1  2  1  0
  2  3  1  0
  2  4  1  0
  4  5  1  0
  5  6  1  0
  6  7  2  0
  6  8  1  0
  8  9  1  0
  9 10  1  0
 10 11  2  0
 11 12  1  0
 12 13  2  0
 13 14  1  0
 14 15  2  0
  8 16  1  0
 16 17  1  0
 17 18  2  0
 17 19  1  0
 19 20  1  0
 20 21  1  0
 21 22  2  0
 22 23  1  0
 23 24  2  0
 24 25  1  0
 25 26  2  0
  4 27  1  0
 27 28  2  0
 27 29  1  0
 29 30  1  0
 30 31  1  0
 31 32  1  0
 32 33  2  0
 33 34  1  0
 34 35  2  0
 35 36  1  0
 36 37  2  0
 30 38  1  0
 38 39  2  0
 38 40  1  0
 40 41  1  0
 41 42  1  0
 42 43  1  0
 43 44  2  0
 44 45  1  0
 45 46  2  0
 46 47  1  0
 47 48  2  0
 41 49  1  0
 49 50  1  0
 49 51  2  0
 15 10  1  0
 26 21  1  0
 37 32  1  0
 48 43  1  0
  1 52  1  0
  1 53  1  0
  1 54  1  0
  2 55  1  0
  3 56  1  0
  3 57  1  0
  3 58  1  0
  4 59  1  6
  5 60  1  0
  8 61  1  1
  9 62  1  0
  9 63  1  0
 11 64  1  0
 12 65  1  0
 13 66  1  0
 14 67  1  0
 15 68  1  0
 16 69  1  0
 20 70  1  0
 20 71  1  0
 22 72  1  0
 23 73  1  0
 24 74  1  0
 25 75  1  0
 26 76  1  0
 29 77  1  0
 30 78  1  6
 31 79  1  0
 31 80  1  0
 33 81  1  0
 34 82  1  0
 35 83  1  0
 36 84  1  0
 37 85  1  0
 40 86  1  0
 41 87  1  1
 42 88  1  0
 42 89  1  0
 44 90  1  0
 45 91  1  0
 46 92  1  0
 47 93  1  0
 48 94  1  0
 50 95  1  0
 50 96  1  0
M  END
$$$$
[H]OC(=O)C([H])([H])N([H])C(=O)[C@@]([H])(N([H])C(=O)[C@@]([H])(N([H])C(=O)[C@@]([H])(N([H])C(=O)[C@@]([H])(N([H])[H])C([H])([H])C([H])([H])C([H])([H])N=C(N([H])[H])N([H])[H])C([H])([H])c1c([H])c([H])c([H])c([H])c1[H])[C@@]([H])(C([H])([H])[H])C([H])([H])C([H])([H])[H])C([H])([H])c1c([H])c([H])c([H])c([H])c1[H]
     RDKit          3D

 92 93  0  0  0  0  0  0  0  0999 V2000
   -1.6014   -4.8445    2.2914 C   0  0  0  0  0  0  0  0  0  0  0  0
   -1.1092   -4.1772    1.0427 C   0  0  0  0  0  0  0  0  0  0  0  0
   -2.0307   -3.0006    0.6710 C   0  0  2  0  0  0  0  0  0  0  0  0
   -3.3785   -3.5588    0.4426 C   0  0  0  0  0  0  0  0  0  0  0  0
   -1.4279   -2.1737   -0.3605 C   0  0  2  0  0  0  0  0  0  0  0  0
   -0.1192   -1.6334    0.0862 N   0  0  0  0  0  0  0  0  0  0  0  0
    1.0688   -1.7287   -0.6047 C   0  0  0  0  0  0  0  0  0  0  0  0
    0.9767   -2.3394   -1.7560 O   0  0  0  0  0  0  0  0  0  0  0  0
    2.3764   -1.2593   -0.2683 C   0  0  2  0  0  0  0  0  0  0  0  0
    2.6989   -0.7440    1.0770 C   0  0  0  0  0  0  0  0  0  0  0  0
    2.6014   -1.6973    2.2055 C   0  0  0  0  0  0  0  0  0  0  0  0
    1.6140   -1.7783    3.1331 C   0  0  0  0  0  0  0  0  0  0  0  0
    1.6217   -2.7451    4.1468 C   0  0  0  0  0  0  0  0  0  0  0  0
    2.6398   -3.6613    4.2463 C   0  0  0  0  0  0  0  0  0  0  0  0
    3.6534   -3.6035    3.3216 C   0  0  0  0  0  0  0  0  0  0  0  0
    3.6301   -2.6497    2.3343 C   0  0  0  0  0  0  0  0  0  0  0  0
    2.9510   -0.5182   -1.3910 N   0  0  0  0  0  0  0  0  0  0  0  0
    4.3020   -0.7298   -1.7443 C   0  0  0  0  0  0  0  0  0  0  0  0
    4.9960   -1.5485   -1.0488 O   0  0  0  0  0  0  0  0  0  0  0  0
    4.9752   -0.0846   -2.8601 C   0  0  1  0  0  0  0  0  0  0  0  0
    4.0578    0.8262   -3.5701 N   0  0  0  0  0  0  0  0  0  0  0  0
    6.2342    0.6103   -2.5934 C   0  0  0  0  0  0  0  0  0  0  0  0
    6.2652    1.7648   -1.6825 C   0  0  0  0  0  0  0  0  0  0  0  0
    5.8901    1.5710   -0.2491 C   0  0  0  0  0  0  0  0  0  0  0  0
    6.0215    2.8901    0.3920 N   0  0  0  0  0  0  0  0  0  0  0  0
    6.8281    3.1064    1.3629 C   0  0  0  0  0  0  0  0  0  0  0  0
    6.8661    4.4358    1.9061 N   0  0  0  0  0  0  0  0  0  0  0  0
    7.6264    2.0620    1.8505 N   0  0  0  0  0  0  0  0  0  0  0  0
   -2.1574   -0.9957   -0.8539 C   0  0  0  0  0  0  0  0  0  0  0  0
   -1.4404   -0.2164   -1.5849 O   0  0  0  0  0  0  0  0  0  0  0  0
   -3.4628   -0.6068   -0.6509 N   0  0  0  0  0  0  0  0  0  0  0  0
   -4.0390    0.6434   -1.2434 C   0  0  1  0  0  0  0  0  0  0  0  0
   -5.4035    0.2747   -1.6816 C   0  0  0  0  0  0  0  0  0  0  0  0
   -6.2710    1.2676   -2.3009 C   0  0  0  0  0  0  0  0  0  0  0  0
   -7.2285    1.9605   -1.5449 C   0  0  0  0  0  0  0  0  0  0  0  0
   -8.0698    2.8779   -2.1110 C   0  0  0  0  0  0  0  0  0  0  0  0
   -8.0308    3.1783   -3.4520 C   0  0  0  0  0  0  0  0  0  0  0  0
   -7.0886    2.5001   -4.2043 C   0  0  0  0  0  0  0  0  0  0  0  0
   -6.2365    1.5761   -3.6505 C   0  0  0  0  0  0  0  0  0  0  0  0
   -3.9619    1.7166   -0.2738 C   0  0  0  0  0  0  0  0  0  0  0  0
   -3.5259    1.4047    0.9003 O   0  0  0  0  0  0  0  0  0  0  0  0
   -4.2889    3.0908   -0.4088 N   0  0  0  0  0  0  0  0  0  0  0  0
   -4.1402    4.0382    0.6568 C   0  0  0  0  0  0  0  0  0  0  0  0
   -4.9226    3.7986    1.8601 C   0  0  0  0  0  0  0  0  0  0  0  0
   -4.8134    4.6574    2.9549 O   0  0  0  0  0  0  0  0  0  0  0  0
   -5.7203    2.8429    2.0000 O   0  0  0  0  0  0  0  0  0  0  0  0
   -1.7409   -4.0643    3.0742 H   0  0  0  0  0  0  0  0  0  0  0  0
   -0.7473   -5.4687    2.6671 H   0  0  0  0  0  0  0  0  0  0  0  0
   -2.4534   -5.5046    2.1754 H   0  0  0  0  0  0  0  0  0  0  0  0
   -0.9079   -4.8434    0.2071 H   0  0  0  0  0  0  0  0  0  0  0  0
   -0.1421   -3.6963    1.3055 H   0  0  0  0  0  0  0  0  0  0  0  0
   -2.0720   -2.3853    1.6193 H   0  0  0  0  0  0  0  0  0  0  0  0
   -4.1597   -3.1845    1.1541 H   0  0  0  0  0  0  0  0  0  0  0  0
   -3.7313   -3.4565   -0.6184 H   0  0  0  0  0  0  0  0  0  0  0  0
   -3.3597   -4.6518    0.6035 H   0  0  0  0  0  0  0  0  0  0  0  0
   -1.1949   -2.7724   -1.2614 H   0  0  0  0  0  0  0  0  0  0  0  0
   -0.1946   -1.1191    0.9895 H   0  0  0  0  0  0  0  0  0  0  0  0
    3.0314   -2.2897   -0.2923 H   0  0  0  0  0  0  0  0  0  0  0  0
    2.1219    0.1763    1.3509 H   0  0  0  0  0  0  0  0  0  0  0  0
    3.7733   -0.3647    1.0134 H   0  0  0  0  0  0  0  0  0  0  0  0
    0.8028   -1.0654    3.0932 H   0  0  0  0  0  0  0  0  0  0  0  0
    0.8263   -2.7906    4.8722 H   0  0  0  0  0  0  0  0  0  0  0  0
    2.6342   -4.4076    5.0411 H   0  0  0  0  0  0  0  0  0  0  0  0
    4.4554   -4.3206    3.3946 H   0  0  0  0  0  0  0  0  0  0  0  0
    4.4264   -2.6012    1.6063 H   0  0  0  0  0  0  0  0  0  0  0  0
    2.4211    0.1710   -1.9595 H   0  0  0  0  0  0  0  0  0  0  0  0
    5.1199   -0.9191   -3.6367 H   0  0  0  0  0  0  0  0  0  0  0  0
    3.3530    0.2948   -4.1044 H   0  0  0  0  0  0  0  0  0  0  0  0
    3.6578    1.5430   -2.9133 H   0  0  0  0  0  0  0  0  0  0  0  0
    6.9706   -0.1541   -2.1681 H   0  0  0  0  0  0  0  0  0  0  0  0
    6.6970    0.8741   -3.6005 H   0  0  0  0  0  0  0  0  0  0  0  0
    7.3341    2.1484   -1.6670 H   0  0  0  0  0  0  0  0  0  0  0  0
    5.6789    2.6498   -2.0850 H   0  0  0  0  0  0  0  0  0  0  0  0
    4.8292    1.3196   -0.1568 H   0  0  0  0  0  0  0  0  0  0  0  0
    6.5025    0.8176    0.2500 H   0  0  0  0  0  0  0  0  0  0  0  0
    7.7511    4.9671    1.9322 H   0  0  0  0  0  0  0  0  0  0  0  0
    5.9901    4.8662    2.2788 H   0  0  0  0  0  0  0  0  0  0  0  0
    7.2044    1.1578    2.1389 H   0  0  0  0  0  0  0  0  0  0  0  0
    8.6445    2.1796    1.9290 H   0  0  0  0  0  0  0  0  0  0  0  0
   -4.1276   -1.1409   -0.0727 H   0  0  0  0  0  0  0  0  0  0  0  0
   -3.4049    0.9072   -2.1306 H   0  0  0  0  0  0  0  0  0  0  0  0
   -5.9938   -0.2027   -0.8386 H   0  0  0  0  0  0  0  0  0  0  0  0
   -5.2739   -0.5404   -2.4804 H   0  0  0  0  0  0  0  0  0  0  0  0
   -7.2521    1.7159   -0.4793 H   0  0  0  0  0  0  0  0  0  0  0  0
   -8.8084    3.3940   -1.4703 H   0  0  0  0  0  0  0  0  0  0  0  0
   -8.7135    3.9081   -3.8495 H   0  0  0  0  0  0  0  0  0  0  0  0
   -7.0732    2.7541   -5.2697 H   0  0  0  0  0  0  0  0  0  0  0  0
   -5.5234    1.0715   -4.2687 H   0  0  0  0  0  0  0  0  0  0  0  0
   -4.6273    3.4237   -1.3346 H   0  0  0  0  0  0  0  0  0  0  0  0
   -4.3638    5.0608    0.2425 H   0  0  0  0  0  0  0  0  0  0  0  0
   -3.0641    4.0912    0.9387 H   0  0  0  0  0  0  0  0  0  0  0  0
   -4.7222    5.6526    2.8475 H   0  0  0  0  0  0  0  0  0  0  0  0
  1  2  1  0
  2  3  1  0
  3  4  1  0
  3  5  1  0
  5  6  1  0
  6  7  1  0
  7  8  2  0
  7  9  1  0
  9 10  1  0
 10 11  1  0
 11 12  2  0
 12 13  1  0
 13 14  2  0
 14 15  1  0
 15 16  2  0
  9 17  1  0
 17 18  1  0
 18 19  2  0
 18 20  1  0
 20 21  1  0
 20 22  1  0
 22 23  1  0
 23 24  1  0
 24 25  1  0
 25 26  2  3
 26 27  1  0
 26 28  1  0
  5 29  1  0
 29 30  2  0
 29 31  1  0
 31 32  1  0
 32 33  1  0
 33 34  1  0
 34 35  2  0
 35 36  1  0
 36 37  2  0
 37 38  1  0
 38 39  2  0
 32 40  1  0
 40 41  2  0
 40 42  1  0
 42 43  1  0
 43 44  1  0
 44 45  1  0
 44 46  2  0
 16 11  1  0
 39 34  1  0
  1 47  1  0
  1 48  1  0
  1 49  1  0
  2 50  1  0
  2 51  1  0
  3 52  1  1
  4 53  1  0
  4 54  1  0
  4 55  1  0
  5 56  1  6
  6 57  1  0
  9 58  1  1
 10 59  1  0
 10 60  1  0
 12 61  1  0
 13 62  1  0
 14 63  1  0
 15 64  1  0
 16 65  1  0
 17 66  1  0
 20 67  1  6
 21 68  1  0
 21 69  1  0
 22 70  1  0
 22 71  1  0
 23 72  1  0
 23 73  1  0
 24 74  1  0
 24 75  1  0
 27 76  1  0
 27 77  1  0
 28 78  1  0
 28 79  1  0
 31 80  1  0
 32 81  1  6
 33 82  1  0
 33 83  1  0
 35 84  1  0
 36 85  1  0
 37 86  1  0
 38 87  1  0
 39 88  1  0
 42 89  1  0
 43 90  1  0
 43 91  1  0
 45 92  1  0
M  END
$$$$
[H]OC(=O)[C@@]([H])(N([H])C(=O)[C@@]([H])(N([H])C(=O)[C@@]([H])(N([H])C(=O)[C@@]([H])(N([H])C(=O)[C@@]([H])(N([H])C(=O)[C@]([H])(N([H])C(=O)N([H])c1c([H])c([H])c(C(F)(F)F)c([H])c1F)C([H])([H])C([H])(C([H])([H])[H])C([H])([H])[H])C([H])(C([H])([H])[H])C([H])([H])[H])C([H])([H])[H])C([H])([H])[H])C([H])(C([H])([H])[H])C([H])([H])[H])C([H])([H])[H]
     RDKit          3D

101101  0  0  0  0  0  0  0  0999 V2000
   -7.1508   -3.2420   -1.0043 C   0  0  0  0  0  0  0  0  0  0  0  0
   -5.8247   -2.8427   -1.5307 C   0  0  0  0  0  0  0  0  0  0  0  0
   -5.7314   -3.2689   -3.0202 C   0  0  0  0  0  0  0  0  0  0  0  0
   -5.4568   -1.3978   -1.4160 C   0  0  0  0  0  0  0  0  0  0  0  0
   -5.4046   -0.8090   -0.0345 C   0  0  1  0  0  0  0  0  0  0  0  0
   -6.6869   -0.8593    0.5707 N   0  0  0  0  0  0  0  0  0  0  0  0
   -7.5716    0.2844    0.3487 C   0  0  0  0  0  0  0  0  0  0  0  0
   -7.0033    1.1836   -0.3428 O   0  0  0  0  0  0  0  0  0  0  0  0
   -8.8625    0.3260    0.8414 N   0  0  0  0  0  0  0  0  0  0  0  0
   -9.6784    1.4892    0.5889 C   0  0  0  0  0  0  0  0  0  0  0  0
   -9.1031    2.7054    0.3248 C   0  0  0  0  0  0  0  0  0  0  0  0
   -9.9459    3.8276    0.0726 C   0  0  0  0  0  0  0  0  0  0  0  0
  -11.2866    3.7539    0.0794 C   0  0  0  0  0  0  0  0  0  0  0  0
  -11.8772    2.5192    0.3489 C   0  0  0  0  0  0  0  0  0  0  0  0
  -11.0546    1.4186    0.5973 C   0  0  0  0  0  0  0  0  0  0  0  0
  -11.6175    0.1888    0.8660 F   0  0  0  0  0  0  0  0  0  0  0  0
  -12.1191    4.9538   -0.2075 C   0  0  0  0  0  0  0  0  0  0  0  0
  -13.0744    5.1658    0.7533 F   0  0  0  0  0  0  0  0  0  0  0  0
  -12.6500    4.7623   -1.4753 F   0  0  0  0  0  0  0  0  0  0  0  0
  -11.2781    6.0764   -0.2735 F   0  0  0  0  0  0  0  0  0  0  0  0
   -4.3278   -1.4110    0.7758 C   0  0  0  0  0  0  0  0  0  0  0  0
   -4.6198   -1.9525    1.8567 O   0  0  0  0  0  0  0  0  0  0  0  0
   -3.0106   -1.3367    0.2779 N   0  0  0  0  0  0  0  0  0  0  0  0
   -1.7456   -1.7760    0.7349 C   0  0  1  0  0  0  0  0  0  0  0  0
   -1.1158   -2.8070   -0.1714 C   0  0  0  0  0  0  0  0  0  0  0  0
   -2.0193   -4.0286   -0.2146 C   0  0  0  0  0  0  0  0  0  0  0  0
   -0.9319   -2.2482   -1.5738 C   0  0  0  0  0  0  0  0  0  0  0  0
   -0.8505   -0.6257    1.0016 C   0  0  0  0  0  0  0  0  0  0  0  0
   -1.3617    0.5167    1.0448 O   0  0  0  0  0  0  0  0  0  0  0  0
    0.5184   -0.7902    1.1968 N   0  0  0  0  0  0  0  0  0  0  0  0
    1.3973    0.3692    1.4583 C   0  0  1  0  0  0  0  0  0  0  0  0
    2.2207    0.0065    2.7236 C   0  0  0  0  0  0  0  0  0  0  0  0
    2.3250    0.4603    0.3241 C   0  0  0  0  0  0  0  0  0  0  0  0
    2.3486   -0.4277   -0.5411 O   0  0  0  0  0  0  0  0  0  0  0  0
    3.1897    1.5802    0.2335 N   0  0  0  0  0  0  0  0  0  0  0  0
    4.1564    1.6939   -0.8779 C   0  0  1  0  0  0  0  0  0  0  0  0
    3.8180    2.9895   -1.6259 C   0  0  0  0  0  0  0  0  0  0  0  0
    5.4562    1.8600   -0.1829 C   0  0  0  0  0  0  0  0  0  0  0  0
    5.4437    2.7340    0.7569 O   0  0  0  0  0  0  0  0  0  0  0  0
    6.6516    1.1674   -0.4480 N   0  0  0  0  0  0  0  0  0  0  0  0
    7.8547    1.4129    0.3059 C   0  0  1  0  0  0  0  0  0  0  0  0
    7.6414    0.6666    1.6384 C   0  0  0  0  0  0  0  0  0  0  0  0
    7.4475   -0.8144    1.4291 C   0  0  0  0  0  0  0  0  0  0  0  0
    8.6556    1.0065    2.6743 C   0  0  0  0  0  0  0  0  0  0  0  0
    9.0509    0.8911   -0.3868 C   0  0  0  0  0  0  0  0  0  0  0  0
    8.8463    0.2234   -1.4121 O   0  0  0  0  0  0  0  0  0  0  0  0
   10.3503    1.1331    0.0794 N   0  0  0  0  0  0  0  0  0  0  0  0
   11.5491    0.6576   -0.5220 C   0  0  1  0  0  0  0  0  0  0  0  0
   12.0625   -0.6082    0.0813 C   0  0  0  0  0  0  0  0  0  0  0  0
   11.5481    0.5566   -1.9999 C   0  0  0  0  0  0  0  0  0  0  0  0
   12.1653   -0.4509   -2.6766 O   0  0  0  0  0  0  0  0  0  0  0  0
   10.9327    1.4699   -2.6661 O   0  0  0  0  0  0  0  0  0  0  0  0
   -7.5626   -4.0628   -1.6600 H   0  0  0  0  0  0  0  0  0  0  0  0
   -7.8667   -2.4190   -1.0962 H   0  0  0  0  0  0  0  0  0  0  0  0
   -7.0694   -3.6843    0.0119 H   0  0  0  0  0  0  0  0  0  0  0  0
   -5.0304   -3.4447   -1.0236 H   0  0  0  0  0  0  0  0  0  0  0  0
   -6.7498   -3.2442   -3.3893 H   0  0  0  0  0  0  0  0  0  0  0  0
   -5.0585   -2.5518   -3.5228 H   0  0  0  0  0  0  0  0  0  0  0  0
   -5.3176   -4.2845   -3.0636 H   0  0  0  0  0  0  0  0  0  0  0  0
   -6.2031   -0.8318   -2.0265 H   0  0  0  0  0  0  0  0  0  0  0  0
   -4.4479   -1.2535   -1.8683 H   0  0  0  0  0  0  0  0  0  0  0  0
   -5.1837    0.2907   -0.2335 H   0  0  0  0  0  0  0  0  0  0  0  0
   -7.0273   -1.6142    1.1455 H   0  0  0  0  0  0  0  0  0  0  0  0
   -9.2309   -0.4653    1.3831 H   0  0  0  0  0  0  0  0  0  0  0  0
   -8.0607    2.8634    0.3325 H   0  0  0  0  0  0  0  0  0  0  0  0
   -9.4196    4.7708   -0.1243 H   0  0  0  0  0  0  0  0  0  0  0  0
  -12.9377    2.4430    0.3440 H   0  0  0  0  0  0  0  0  0  0  0  0
   -2.9260   -0.8083   -0.6799 H   0  0  0  0  0  0  0  0  0  0  0  0
   -1.8771   -2.2884    1.7378 H   0  0  0  0  0  0  0  0  0  0  0  0
   -0.1439   -3.1174    0.1999 H   0  0  0  0  0  0  0  0  0  0  0  0
   -1.3899   -4.9603   -0.2059 H   0  0  0  0  0  0  0  0  0  0  0  0
   -2.7433   -4.0320   -1.0345 H   0  0  0  0  0  0  0  0  0  0  0  0
   -2.5668   -4.0407    0.7795 H   0  0  0  0  0  0  0  0  0  0  0  0
   -0.6328   -1.1909   -1.5101 H   0  0  0  0  0  0  0  0  0  0  0  0
   -0.1529   -2.7970   -2.1371 H   0  0  0  0  0  0  0  0  0  0  0  0
   -1.8625   -2.3887   -2.1747 H   0  0  0  0  0  0  0  0  0  0  0  0
    0.9336   -1.7382    1.1445 H   0  0  0  0  0  0  0  0  0  0  0  0
    0.8239    1.2622    1.6681 H   0  0  0  0  0  0  0  0  0  0  0  0
    1.5210   -0.3871    3.4829 H   0  0  0  0  0  0  0  0  0  0  0  0
    2.8422   -0.8741    2.3601 H   0  0  0  0  0  0  0  0  0  0  0  0
    2.8308    0.8461    3.0074 H   0  0  0  0  0  0  0  0  0  0  0  0
    3.1968    2.3571    0.9160 H   0  0  0  0  0  0  0  0  0  0  0  0
    4.0934    0.8602   -1.5507 H   0  0  0  0  0  0  0  0  0  0  0  0
    4.5757    3.1850   -2.3871 H   0  0  0  0  0  0  0  0  0  0  0  0
    2.8397    2.8584   -2.0643 H   0  0  0  0  0  0  0  0  0  0  0  0
    3.8029    3.7984   -0.8299 H   0  0  0  0  0  0  0  0  0  0  0  0
    6.6679    0.4687   -1.2118 H   0  0  0  0  0  0  0  0  0  0  0  0
    7.9314    2.4566    0.5832 H   0  0  0  0  0  0  0  0  0  0  0  0
    6.6546    1.0610    2.0292 H   0  0  0  0  0  0  0  0  0  0  0  0
    8.0667   -1.3893    2.1438 H   0  0  0  0  0  0  0  0  0  0  0  0
    6.3851   -1.1174    1.6926 H   0  0  0  0  0  0  0  0  0  0  0  0
    7.6196   -1.0966    0.3912 H   0  0  0  0  0  0  0  0  0  0  0  0
    8.9139    2.0771    2.6763 H   0  0  0  0  0  0  0  0  0  0  0  0
    9.5675    0.3506    2.6599 H   0  0  0  0  0  0  0  0  0  0  0  0
    8.2187    0.8208    3.7010 H   0  0  0  0  0  0  0  0  0  0  0  0
   10.4763    1.7403    0.9455 H   0  0  0  0  0  0  0  0  0  0  0  0
   12.3877    1.4451   -0.3407 H   0  0  0  0  0  0  0  0  0  0  0  0
   11.9915   -0.5752    1.2013 H   0  0  0  0  0  0  0  0  0  0  0  0
   11.4517   -1.4577   -0.2578 H   0  0  0  0  0  0  0  0  0  0  0  0
   13.1263   -0.7900   -0.2555 H   0  0  0  0  0  0  0  0  0  0  0  0
   12.2726   -1.4030   -2.3928 H   0  0  0  0  0  0  0  0  0  0  0  0
  1  2  1  0
  2  3  1  0
  2  4  1  0
  4  5  1  0
  5  6  1  0
  6  7  1  0
  7  8  2  0
  7  9  1  0
  9 10  1  0
 10 11  2  0
 11 12  1  0
 12 13  2  0
 13 14  1  0
 14 15  2  0
 15 16  1  0
 13 17  1  0
 17 18  1  0
 17 19  1  0
 17 20  1  0
  5 21  1  0
 21 22  2  0
 21 23  1  0
 23 24  1  0
 24 25  1  0
 25 26  1  0
 25 27  1  0
 24 28  1  0
 28 29  2  0
 28 30  1  0
 30 31  1  0
 31 32  1  0
 31 33  1  0
 33 34  2  0
 33 35  1  0
 35 36  1  0
 36 37  1  0
 36 38  1  0
 38 39  2  0
 38 40  1  0
 40 41  1  0
 41 42  1  0
 42 43  1  0
 42 44  1  0
 41 45  1  0
 45 46  2  0
 45 47  1  0
 47 48  1  0
 48 49  1  0
 48 50  1  0
 50 51  1  0
 50 52  2  0
 15 10  1  0
  1 53  1  0
  1 54  1  0
  1 55  1  0
  2 56  1  0
  3 57  1  0
  3 58  1  0
  3 59  1  0
  4 60  1  0
  4 61  1  0
  5 62  1  6
  6 63  1  0
  9 64  1  0
 11 65  1  0
 12 66  1  0
 14 67  1  0
 23 68  1  0
 24 69  1  1
 25 70  1  0
 26 71  1  0
 26 72  1  0
 26 73  1  0
 27 74  1  0
 27 75  1  0
 27 76  1  0
 30 77  1  0
 31 78  1  1
 32 79  1  0
 32 80  1  0
 32 81  1  0
 35 82  1  0
 36 83  1  6
 37 84  1  0
 37 85  1  0
 37 86  1  0
 40 87  1  0
 41 88  1  1
 42 89  1  0
 43 90  1  0
 43 91  1  0
 43 92  1  0
 44 93  1  0
 44 94  1  0
 44 95  1  0
 47 96  1  0
 48 97  1  6
 49 98  1  0
 49 99  1  0
 49100  1  0
 51101  1  0
M  END
$$$$
[H]N=C(N([H])[H])N([H])C([H])([H])C([H])([H])C([H])([H])[C@@]([H])(C(=O)N([H])[C@]([H])(C(=O)N([H])[C@]([H])(C(=O)N([H])[H])C([H])([H])c1c([H])c([H])c([H])c([H])c1[H])C([H])([H])c1c([H])c([H])c([H])c([H])c1[H])N([H])C(=O)[C@@]([H])(N([H])C(=O)C([H])(C([H])([H])[H])C([H])([H])[H])C([H])([H])c1c([H])c([H])c([H])c([H])c1[H]
     RDKit          3D

 98100  0  0  0  0  0  0  0  0999 V2000
   -3.0391   -4.6025    0.8322 C   0  0  0  0  0  0  0  0  0  0  0  0
   -4.3942   -3.9607    1.1420 C   0  0  0  0  0  0  0  0  0  0  0  0
   -4.5123   -3.9312    2.6474 C   0  0  0  0  0  0  0  0  0  0  0  0
   -4.3540   -2.5665    0.6483 C   0  0  0  0  0  0  0  0  0  0  0  0
   -4.5370   -1.6369    1.4665 O   0  0  0  0  0  0  0  0  0  0  0  0
   -4.1081   -2.3320   -0.7279 N   0  0  0  0  0  0  0  0  0  0  0  0
   -4.0210   -1.0533   -1.3651 C   0  0  1  0  0  0  0  0  0  0  0  0
   -5.2609   -0.2279   -1.2977 C   0  0  0  0  0  0  0  0  0  0  0  0
   -6.4506   -0.8415   -1.9396 C   0  0  0  0  0  0  0  0  0  0  0  0
   -6.6895   -0.7015   -3.2876 C   0  0  0  0  0  0  0  0  0  0  0  0
   -7.7998   -1.2641   -3.8572 C   0  0  0  0  0  0  0  0  0  0  0  0
   -8.7163   -1.9891   -3.1074 C   0  0  0  0  0  0  0  0  0  0  0  0
   -8.4573   -2.1145   -1.7676 C   0  0  0  0  0  0  0  0  0  0  0  0
   -7.3366   -1.5489   -1.1773 C   0  0  0  0  0  0  0  0  0  0  0  0
   -2.8970   -0.2638   -0.7530 C   0  0  0  0  0  0  0  0  0  0  0  0
   -2.2198   -0.7748    0.1533 O   0  0  0  0  0  0  0  0  0  0  0  0
   -2.6310    1.0549   -1.2222 N   0  0  0  0  0  0  0  0  0  0  0  0
   -1.5824    1.8590   -0.6606 C   0  0  1  0  0  0  0  0  0  0  0  0
   -1.7464    2.1353    0.8228 C   0  0  0  0  0  0  0  0  0  0  0  0
   -3.0276    2.8511    1.1250 C   0  0  0  0  0  0  0  0  0  0  0  0
   -3.1883    4.1739    0.4544 C   0  0  0  0  0  0  0  0  0  0  0  0
   -2.1661    5.1425    0.7787 N   0  0  0  0  0  0  0  0  0  0  0  0
   -2.1387    5.6403    2.1068 C   0  0  0  0  0  0  0  0  0  0  0  0
   -3.2804    6.3071    2.6004 N   0  0  0  0  0  0  0  0  0  0  0  0
   -1.1063    5.5059    2.8829 N   0  0  0  0  0  0  0  0  0  0  0  0
   -0.2500    1.2653   -0.9642 C   0  0  0  0  0  0  0  0  0  0  0  0
   -0.2308    0.2439   -1.7241 O   0  0  0  0  0  0  0  0  0  0  0  0
    0.9263    1.8169   -0.4268 N   0  0  0  0  0  0  0  0  0  0  0  0
    2.2909    1.2697   -0.7068 C   0  0  1  0  0  0  0  0  0  0  0  0
    3.1966    2.3965   -0.9889 C   0  0  0  0  0  0  0  0  0  0  0  0
    4.5865    2.2048   -1.2854 C   0  0  0  0  0  0  0  0  0  0  0  0
    5.5975    2.3082   -0.3206 C   0  0  0  0  0  0  0  0  0  0  0  0
    6.9266    2.1224   -0.6362 C   0  0  0  0  0  0  0  0  0  0  0  0
    7.3147    1.8259   -1.9195 C   0  0  0  0  0  0  0  0  0  0  0  0
    6.3383    1.7215   -2.8747 C   0  0  0  0  0  0  0  0  0  0  0  0
    5.0191    1.9073   -2.5533 C   0  0  0  0  0  0  0  0  0  0  0  0
    2.6077    0.3000    0.3121 C   0  0  0  0  0  0  0  0  0  0  0  0
    1.7755    0.1233    1.2730 O   0  0  0  0  0  0  0  0  0  0  0  0
    3.7541   -0.5025    0.3753 N   0  0  0  0  0  0  0  0  0  0  0  0
    3.9929   -1.4687    1.4287 C   0  0  1  0  0  0  0  0  0  0  0  0
    4.6259   -2.7187    0.9477 C   0  0  0  0  0  0  0  0  0  0  0  0
    5.9298   -2.6029    0.3073 C   0  0  0  0  0  0  0  0  0  0  0  0
    7.0880   -2.6981    1.0448 C   0  0  0  0  0  0  0  0  0  0  0  0
    8.3411   -2.5878    0.4114 C   0  0  0  0  0  0  0  0  0  0  0  0
    8.4279   -2.3849   -0.9423 C   0  0  0  0  0  0  0  0  0  0  0  0
    7.2675   -2.2906   -1.6778 C   0  0  0  0  0  0  0  0  0  0  0  0
    6.0659   -2.4005   -1.0452 C   0  0  0  0  0  0  0  0  0  0  0  0
    4.7122   -0.8766    2.5863 C   0  0  0  0  0  0  0  0  0  0  0  0
    4.9404   -1.6899    3.7210 N   0  0  0  0  0  0  0  0  0  0  0  0
    5.1323    0.2923    2.6392 O   0  0  0  0  0  0  0  0  0  0  0  0
   -3.0986   -5.6937    0.9699 H   0  0  0  0  0  0  0  0  0  0  0  0
   -2.3052   -4.1469    1.5374 H   0  0  0  0  0  0  0  0  0  0  0  0
   -2.7730   -4.3558   -0.2175 H   0  0  0  0  0  0  0  0  0  0  0  0
   -5.2129   -4.5589    0.6696 H   0  0  0  0  0  0  0  0  0  0  0  0
   -5.2115   -4.7422    3.0075 H   0  0  0  0  0  0  0  0  0  0  0  0
   -4.9446   -2.9441    2.9898 H   0  0  0  0  0  0  0  0  0  0  0  0
   -3.5524   -4.1142    3.1474 H   0  0  0  0  0  0  0  0  0  0  0  0
   -3.9774   -3.1786   -1.3530 H   0  0  0  0  0  0  0  0  0  0  0  0
   -3.6859   -1.2224   -2.4276 H   0  0  0  0  0  0  0  0  0  0  0  0
   -5.4998   -0.0921   -0.2060 H   0  0  0  0  0  0  0  0  0  0  0  0
   -5.0703    0.7905   -1.6859 H   0  0  0  0  0  0  0  0  0  0  0  0
   -5.9781   -0.1335   -3.8914 H   0  0  0  0  0  0  0  0  0  0  0  0
   -8.0001   -1.1580   -4.9237 H   0  0  0  0  0  0  0  0  0  0  0  0
   -9.5899   -2.4238   -3.5967 H   0  0  0  0  0  0  0  0  0  0  0  0
   -9.1592   -2.6804   -1.1385 H   0  0  0  0  0  0  0  0  0  0  0  0
   -7.1846   -1.6687   -0.0906 H   0  0  0  0  0  0  0  0  0  0  0  0
   -3.2037    1.4624   -2.0052 H   0  0  0  0  0  0  0  0  0  0  0  0
   -1.6092    2.8819   -1.1289 H   0  0  0  0  0  0  0  0  0  0  0  0
   -1.7234    1.2146    1.4310 H   0  0  0  0  0  0  0  0  0  0  0  0
   -0.9173    2.8020    1.1517 H   0  0  0  0  0  0  0  0  0  0  0  0
   -3.1103    2.9600    2.2254 H   0  0  0  0  0  0  0  0  0  0  0  0
   -3.9131    2.2241    0.8346 H   0  0  0  0  0  0  0  0  0  0  0  0
   -3.2046    4.0189   -0.6527 H   0  0  0  0  0  0  0  0  0  0  0  0
   -4.1688    4.6258    0.7166 H   0  0  0  0  0  0  0  0  0  0  0  0
   -1.4777    5.4639    0.0645 H   0  0  0  0  0  0  0  0  0  0  0  0
   -4.1510    6.3525    2.0460 H   0  0  0  0  0  0  0  0  0  0  0  0
   -3.2731    6.7720    3.5415 H   0  0  0  0  0  0  0  0  0  0  0  0
   -0.2915    5.0064    2.4710 H   0  0  0  0  0  0  0  0  0  0  0  0
    0.8431    2.6512    0.1951 H   0  0  0  0  0  0  0  0  0  0  0  0
    2.1124    0.6673   -1.6543 H   0  0  0  0  0  0  0  0  0  0  0  0
    3.1530    3.0664   -0.0559 H   0  0  0  0  0  0  0  0  0  0  0  0
    2.6830    3.0943   -1.7454 H   0  0  0  0  0  0  0  0  0  0  0  0
    5.3680    2.5382    0.7081 H   0  0  0  0  0  0  0  0  0  0  0  0
    7.7141    2.2019    0.1133 H   0  0  0  0  0  0  0  0  0  0  0  0
    8.3682    1.6805   -2.1640 H   0  0  0  0  0  0  0  0  0  0  0  0
    6.6696    1.4889   -3.8829 H   0  0  0  0  0  0  0  0  0  0  0  0
    4.3026    1.8084   -3.3793 H   0  0  0  0  0  0  0  0  0  0  0  0
    4.4685   -0.4368   -0.3685 H   0  0  0  0  0  0  0  0  0  0  0  0
    2.9707   -1.7157    1.8461 H   0  0  0  0  0  0  0  0  0  0  0  0
    3.9080   -3.1981    0.2117 H   0  0  0  0  0  0  0  0  0  0  0  0
    4.6230   -3.4575    1.8004 H   0  0  0  0  0  0  0  0  0  0  0  0
    7.1500   -2.8618    2.1029 H   0  0  0  0  0  0  0  0  0  0  0  0
    9.2554   -2.6594    0.9759 H   0  0  0  0  0  0  0  0  0  0  0  0
    9.4116   -2.2966   -1.4458 H   0  0  0  0  0  0  0  0  0  0  0  0
    7.3597   -2.1259   -2.7592 H   0  0  0  0  0  0  0  0  0  0  0  0
    5.1709   -2.3190   -1.6729 H   0  0  0  0  0  0  0  0  0  0  0  0
    5.6376   -1.4538    4.4652 H   0  0  0  0  0  0  0  0  0  0  0  0
    4.4017   -2.5713    3.8487 H   0  0  0  0  0  0  0  0  0  0  0  0
  1  2  1  0
  2  3  1  0
  2  4  1  0
  4  5  2  0
  4  6  1  0
  6  7  1  0
  7  8  1  0
  8  9  1  0
  9 10  2  0
 10 11  1  0
 11 12  2  0
 12 13  1  0
 13 14  2  0
  7 15  1  0
 15 16  2  0
 15 17  1  0
 17 18  1  0
 18 19  1  0
 19 20  1  0
 20 21  1  0
 21 22  1  0
 22 23  1  0
 23 24  1  0
 23 25  2  3
 18 26  1  0
 26 27  2  0
 26 28  1  0
 28 29  1  0
 29 30  1  0
 30 31  1  0
 31 32  2  0
 32 33  1  0
 33 34  2  0
 34 35  1  0
 35 36  2  0
 29 37  1  0
 37 38  2  0
 37 39  1  0
 39 40  1  0
 40 41  1  0
 41 42  1  0
 42 43  2  0
 43 44  1  0
 44 45  2  0
 45 46  1  0
 46 47  2  0
 40 48  1  0
 48 49  1  0
 48 50  2  0
 14  9  1  0
 36 31  1  0
 47 42  1  0
  1 51  1  0
  1 52  1  0
  1 53  1  0
  2 54  1  0
  3 55  1  0
  3 56  1  0
  3 57  1  0
  6 58  1  0
  7 59  1  6
  8 60  1  0
  8 61  1  0
 10 62  1  0
 11 63  1  0
 12 64  1  0
 13 65  1  0
 14 66  1  0
 17 67  1  0
 18 68  1  6
 19 69  1  0
 19 70  1  0
 20 71  1  0
 20 72  1  0
 21 73  1  0
 21 74  1  0
 22 75  1  0
 24 76  1  0
 24 77  1  0
 25 78  1  0
 28 79  1  0
 29 80  1  6
 30 81  1  0
 30 82  1  0
 32 83  1  0
 33 84  1  0
 34 85  1  0
 35 86  1  0
 36 87  1  0
 39 88  1  0
 40 89  1  1
 41 90  1  0
 41 91  1  0
 43 92  1  0
 44 93  1  0
 45 94  1  0
 46 95  1  0
 47 96  1  0
 49 97  1  0
 49 98  1  0
M  END
$$$$
[H]OC(=O)[C@@]([H])(N([H])C(=O)c1c([H])c([H])c(-c2c([H])c([H])c(S(=O)(=O)N([H])[C@]([H])(C(=O)OC(C([H])([H])[H])(C([H])([H])[H])C([H])([H])[H])C([H])(C([H])([H])[H])C([H])([H])[H])c([H])c2[H])c([H])c1[H])C([H])([H])[H]
     RDKit          3D

 67 68  0  0  0  0  0  0  0  0999 V2000
   -6.8049   -0.0062   -1.5640 C   0  0  0  0  0  0  0  0  0  0  0  0
   -5.7448    1.0564   -1.7992 C   0  0  0  0  0  0  0  0  0  0  0  0
   -5.8213    2.1691   -0.7768 C   0  0  0  0  0  0  0  0  0  0  0  0
   -4.3579    0.4774   -1.7591 C   0  0  2  0  0  0  0  0  0  0  0  0
   -4.1418   -0.5384   -2.7556 N   0  0  0  0  0  0  0  0  0  0  0  0
   -2.7972   -0.2084   -3.7734 S   0  0  0  0  0  0  0  0  0  0  0  0
   -2.9684    1.0431   -4.5611 O   0  0  0  0  0  0  0  0  0  0  0  0
   -2.6640   -1.3472   -4.7443 O   0  0  0  0  0  0  0  0  0  0  0  0
   -1.2992   -0.1310   -2.8596 C   0  0  0  0  0  0  0  0  0  0  0  0
   -0.8745    1.0678   -2.3383 C   0  0  0  0  0  0  0  0  0  0  0  0
    0.3060    1.1431   -1.6132 C   0  0  0  0  0  0  0  0  0  0  0  0
    1.0680    0.0264   -1.4043 C   0  0  0  0  0  0  0  0  0  0  0  0
    0.6296   -1.1608   -1.9313 C   0  0  0  0  0  0  0  0  0  0  0  0
   -0.5409   -1.2564   -2.6549 C   0  0  0  0  0  0  0  0  0  0  0  0
    2.2920    0.1034   -0.6492 C   0  0  0  0  0  0  0  0  0  0  0  0
    3.3385   -0.7364   -0.9361 C   0  0  0  0  0  0  0  0  0  0  0  0
    4.5050   -0.6796   -0.2299 C   0  0  0  0  0  0  0  0  0  0  0  0
    4.7096    0.2071    0.7999 C   0  0  0  0  0  0  0  0  0  0  0  0
    3.6508    1.0572    1.0907 C   0  0  0  0  0  0  0  0  0  0  0  0
    2.4750    1.0052    0.3843 C   0  0  0  0  0  0  0  0  0  0  0  0
    5.9555    0.2605    1.5452 C   0  0  0  0  0  0  0  0  0  0  0  0
    6.0198    1.0525    2.5302 O   0  0  0  0  0  0  0  0  0  0  0  0
    7.0761   -0.5305    1.2088 N   0  0  0  0  0  0  0  0  0  0  0  0
    8.3203   -0.4675    1.9665 C   0  0  1  0  0  0  0  0  0  0  0  0
    8.6924   -1.8492    2.4421 C   0  0  0  0  0  0  0  0  0  0  0  0
    9.3596    0.0728    1.0323 C   0  0  0  0  0  0  0  0  0  0  0  0
   10.6785    0.2491    1.4822 O   0  0  0  0  0  0  0  0  0  0  0  0
    9.1028    0.3816   -0.1568 O   0  0  0  0  0  0  0  0  0  0  0  0
   -4.1485   -0.1481   -0.4188 C   0  0  0  0  0  0  0  0  0  0  0  0
   -3.8366   -1.3831   -0.3037 O   0  0  0  0  0  0  0  0  0  0  0  0
   -4.2728    0.5437    0.7704 O   0  0  0  0  0  0  0  0  0  0  0  0
   -4.0780   -0.0324    2.0437 C   0  0  0  0  0  0  0  0  0  0  0  0
   -5.0463   -1.1773    2.2892 C   0  0  0  0  0  0  0  0  0  0  0  0
   -4.3980    1.0474    3.0646 C   0  0  0  0  0  0  0  0  0  0  0  0
   -2.6489   -0.4490    2.2755 C   0  0  0  0  0  0  0  0  0  0  0  0
   -7.0307   -0.0347   -0.4836 H   0  0  0  0  0  0  0  0  0  0  0  0
   -7.7298    0.2508   -2.0939 H   0  0  0  0  0  0  0  0  0  0  0  0
   -6.3770   -0.9654   -1.9344 H   0  0  0  0  0  0  0  0  0  0  0  0
   -5.9868    1.5156   -2.7788 H   0  0  0  0  0  0  0  0  0  0  0  0
   -6.4433    3.0143   -1.1451 H   0  0  0  0  0  0  0  0  0  0  0  0
   -6.2841    1.8339    0.1817 H   0  0  0  0  0  0  0  0  0  0  0  0
   -4.7992    2.5346   -0.5882 H   0  0  0  0  0  0  0  0  0  0  0  0
   -3.6253    1.3024   -1.8174 H   0  0  0  0  0  0  0  0  0  0  0  0
   -4.0215   -1.4670   -2.3360 H   0  0  0  0  0  0  0  0  0  0  0  0
   -1.4253    1.9998   -2.4624 H   0  0  0  0  0  0  0  0  0  0  0  0
    0.6182    2.1061   -1.2118 H   0  0  0  0  0  0  0  0  0  0  0  0
    1.2419   -2.0565   -1.7630 H   0  0  0  0  0  0  0  0  0  0  0  0
   -0.8765   -2.2013   -3.0662 H   0  0  0  0  0  0  0  0  0  0  0  0
    3.2114   -1.4447   -1.7389 H   0  0  0  0  0  0  0  0  0  0  0  0
    5.2772   -1.3923   -0.5370 H   0  0  0  0  0  0  0  0  0  0  0  0
    3.7806    1.7783    1.9084 H   0  0  0  0  0  0  0  0  0  0  0  0
    1.6388    1.6783    0.6156 H   0  0  0  0  0  0  0  0  0  0  0  0
    7.0318   -1.1703    0.4148 H   0  0  0  0  0  0  0  0  0  0  0  0
    8.2276    0.2559    2.8147 H   0  0  0  0  0  0  0  0  0  0  0  0
    8.6741   -1.9592    3.5394 H   0  0  0  0  0  0  0  0  0  0  0  0
    9.6907   -2.1487    2.0513 H   0  0  0  0  0  0  0  0  0  0  0  0
    7.9779   -2.6049    2.0447 H   0  0  0  0  0  0  0  0  0  0  0  0
   11.4511    0.3344    0.8632 H   0  0  0  0  0  0  0  0  0  0  0  0
   -5.2509   -1.2013    3.3797 H   0  0  0  0  0  0  0  0  0  0  0  0
   -5.9634   -0.9284    1.7073 H   0  0  0  0  0  0  0  0  0  0  0  0
   -4.5911   -2.1406    1.9786 H   0  0  0  0  0  0  0  0  0  0  0  0
   -5.3017    1.6241    2.7715 H   0  0  0  0  0  0  0  0  0  0  0  0
   -3.5114    1.6994    3.1863 H   0  0  0  0  0  0  0  0  0  0  0  0
   -4.6147    0.5864    4.0522 H   0  0  0  0  0  0  0  0  0  0  0  0
   -2.2326   -0.0176    3.2328 H   0  0  0  0  0  0  0  0  0  0  0  0
   -1.9614   -0.1055    1.4755 H   0  0  0  0  0  0  0  0  0  0  0  0
   -2.5302   -1.5383    2.3742 H   0  0  0  0  0  0  0  0  0  0  0  0
  1  2  1  0
  2  3  1  0
  2  4  1  0
  4  5  1  0
  5  6  1  0
  6  7  2  0
  6  8  2  0
  6  9  1  0
  9 10  2  0
 10 11  1  0
 11 12  2  0
 12 13  1  0
 13 14  2  0
 12 15  1  0
 15 16  2  0
 16 17  1  0
 17 18  2  0
 18 19  1  0
 19 20  2  0
 18 21  1  0
 21 22  2  0
 21 23  1  0
 23 24  1  0
 24 25  1  0
 24 26  1  0
 26 27  1  0
 26 28  2  0
  4 29  1  0
 29 30  2  0
 29 31  1  0
 31 32  1  0
 32 33  1  0
 32 34  1  0
 32 35  1  0
 14  9  1  0
 20 15  1  0
  1 36  1  0
  1 37  1  0
  1 38  1  0
  2 39  1  0
  3 40  1  0
  3 41  1  0
  3 42  1  0
  4 43  1  6
  5 44  1  0
 10 45  1  0
 11 46  1  0
 13 47  1  0
 14 48  1  0
 16 49  1  0
 17 50  1  0
 19 51  1  0
 20 52  1  0
 23 53  1  0
 24 54  1  1
 25 55  1  0
 25 56  1  0
 25 57  1  0
 27 58  1  0
 33 59  1  0
 33 60  1  0
 33 61  1  0
 34 62  1  0
 34 63  1  0
 34 64  1  0
 35 65  1  0
 35 66  1  0
 35 67  1  0
M  END
$$$$
[H]Oc1c([H])c([H])c(C([H])([H])[C@]([H])(C(=O)N2C([H])([H])C([H])([H])C([H])([H])[C@@]2([H])C(=O)N([H])[C@]([H])(C(=O)N([H])[H])C([H])([H])[H])N([H])C(=O)[C@@]2([H])N(C(=O)[C@@]([H])(N([H])[H])C([H])([H])c3c([H])c([H])c([H])c([H])c3[H])C([H])([H])C([H])([H])C2([H])[H])c([H])c1[H]
     RDKit          3D

 83 86  0  0  0  0  0  0  0  0999 V2000
   -7.4822   -3.0581   -1.0859 C   0  0  0  0  0  0  0  0  0  0  0  0
   -7.2545   -1.5583   -1.2482 C   0  0  2  0  0  0  0  0  0  0  0  0
   -6.5371   -1.0158   -0.1189 N   0  0  0  0  0  0  0  0  0  0  0  0
   -5.2596   -0.4284   -0.2189 C   0  0  0  0  0  0  0  0  0  0  0  0
   -4.7349   -0.3833   -1.3747 O   0  0  0  0  0  0  0  0  0  0  0  0
   -4.5933    0.1002    0.9983 C   0  0  2  0  0  0  0  0  0  0  0  0
   -5.3374    1.3185    1.4731 C   0  0  0  0  0  0  0  0  0  0  0  0
   -4.4716    2.5073    1.1315 C   0  0  0  0  0  0  0  0  0  0  0  0
   -3.4411    1.9339    0.2045 C   0  0  0  0  0  0  0  0  0  0  0  0
   -3.2406    0.5918    0.6779 N   0  0  0  0  0  0  0  0  0  0  0  0
   -2.0344   -0.1756    0.8053 C   0  0  0  0  0  0  0  0  0  0  0  0
   -2.2121   -1.3788    1.2281 O   0  0  0  0  0  0  0  0  0  0  0  0
   -0.6849    0.2833    0.5013 C   0  0  1  0  0  0  0  0  0  0  0  0
    0.1226    0.7116    1.7139 C   0  0  0  0  0  0  0  0  0  0  0  0
   -0.4492    1.8190    2.4831 C   0  0  0  0  0  0  0  0  0  0  0  0
   -1.2975    1.6113    3.5481 C   0  0  0  0  0  0  0  0  0  0  0  0
   -1.8199    2.6790    4.2791 C   0  0  0  0  0  0  0  0  0  0  0  0
   -1.5017    3.9824    3.9564 C   0  0  0  0  0  0  0  0  0  0  0  0
   -2.0379    5.0460    4.7043 O   0  0  0  0  0  0  0  0  0  0  0  0
   -0.6582    4.1984    2.8967 C   0  0  0  0  0  0  0  0  0  0  0  0
   -0.1453    3.1409    2.1788 C   0  0  0  0  0  0  0  0  0  0  0  0
    0.1136   -0.7899   -0.1118 N   0  0  0  0  0  0  0  0  0  0  0  0
    0.9406   -0.5800   -1.2573 C   0  0  0  0  0  0  0  0  0  0  0  0
    0.9773    0.5773   -1.7325 O   0  0  0  0  0  0  0  0  0  0  0  0
    1.6672   -1.6966   -1.7798 C   0  0  2  0  0  0  0  0  0  0  0  0
    1.3886   -3.0491   -1.2007 C   0  0  0  0  0  0  0  0  0  0  0  0
    2.4789   -3.8649   -1.9238 C   0  0  0  0  0  0  0  0  0  0  0  0
    3.4713   -2.8212   -2.4560 C   0  0  0  0  0  0  0  0  0  0  0  0
    3.1302   -1.6784   -1.6460 N   0  0  0  0  0  0  0  0  0  0  0  0
    3.9463   -0.8323   -0.9226 C   0  0  0  0  0  0  0  0  0  0  0  0
    3.3345    0.0972   -0.2466 O   0  0  0  0  0  0  0  0  0  0  0  0
    5.4031   -0.7897   -0.7699 C   0  0  1  0  0  0  0  0  0  0  0  0
    6.1806   -1.6334   -1.5961 N   0  0  0  0  0  0  0  0  0  0  0  0
    5.9454    0.6275   -0.9070 C   0  0  0  0  0  0  0  0  0  0  0  0
    7.4195    0.6457   -0.7382 C   0  0  0  0  0  0  0  0  0  0  0  0
    8.0032    0.8203    0.5044 C   0  0  0  0  0  0  0  0  0  0  0  0
    9.3821    0.8341    0.6613 C   0  0  0  0  0  0  0  0  0  0  0  0
   10.1799    0.6732   -0.4287 C   0  0  0  0  0  0  0  0  0  0  0  0
    9.6316    0.4972   -1.6768 C   0  0  0  0  0  0  0  0  0  0  0  0
    8.2537    0.4853   -1.8194 C   0  0  0  0  0  0  0  0  0  0  0  0
   -8.5761   -0.9015   -1.3555 C   0  0  0  0  0  0  0  0  0  0  0  0
   -9.5022   -1.2280   -2.3655 N   0  0  0  0  0  0  0  0  0  0  0  0
   -8.8920   -0.0172   -0.5177 O   0  0  0  0  0  0  0  0  0  0  0  0
   -6.7045   -3.6466   -1.6497 H   0  0  0  0  0  0  0  0  0  0  0  0
   -7.4890   -3.3474   -0.0051 H   0  0  0  0  0  0  0  0  0  0  0  0
   -8.4648   -3.2999   -1.5181 H   0  0  0  0  0  0  0  0  0  0  0  0
   -6.6926   -1.4356   -2.1998 H   0  0  0  0  0  0  0  0  0  0  0  0
   -6.9935   -1.0618    0.8145 H   0  0  0  0  0  0  0  0  0  0  0  0
   -4.5296   -0.6847    1.7905 H   0  0  0  0  0  0  0  0  0  0  0  0
   -5.5552    1.2742    2.5654 H   0  0  0  0  0  0  0  0  0  0  0  0
   -6.3175    1.4636    0.9482 H   0  0  0  0  0  0  0  0  0  0  0  0
   -5.0717    3.3151    0.6388 H   0  0  0  0  0  0  0  0  0  0  0  0
   -4.0305    2.8685    2.0849 H   0  0  0  0  0  0  0  0  0  0  0  0
   -2.5038    2.5327    0.1816 H   0  0  0  0  0  0  0  0  0  0  0  0
   -3.9167    1.9047   -0.8155 H   0  0  0  0  0  0  0  0  0  0  0  0
   -0.6839    1.1213   -0.1816 H   0  0  0  0  0  0  0  0  0  0  0  0
    1.0983    1.0938    1.2913 H   0  0  0  0  0  0  0  0  0  0  0  0
    0.4101   -0.1536    2.3407 H   0  0  0  0  0  0  0  0  0  0  0  0
   -1.5961    0.6160    3.8658 H   0  0  0  0  0  0  0  0  0  0  0  0
   -2.4895    2.5305    5.1190 H   0  0  0  0  0  0  0  0  0  0  0  0
   -1.4862    5.3534    5.5178 H   0  0  0  0  0  0  0  0  0  0  0  0
   -0.3923    5.2057    2.6172 H   0  0  0  0  0  0  0  0  0  0  0  0
    0.5294    3.3376    1.3375 H   0  0  0  0  0  0  0  0  0  0  0  0
    0.0276   -1.7124    0.3569 H   0  0  0  0  0  0  0  0  0  0  0  0
    1.5107   -1.7349   -2.8959 H   0  0  0  0  0  0  0  0  0  0  0  0
    1.6026   -3.0281   -0.1121 H   0  0  0  0  0  0  0  0  0  0  0  0
    0.3810   -3.4260   -1.4223 H   0  0  0  0  0  0  0  0  0  0  0  0
    1.9716   -4.3048   -2.7927 H   0  0  0  0  0  0  0  0  0  0  0  0
    2.9298   -4.5674   -1.2237 H   0  0  0  0  0  0  0  0  0  0  0  0
    4.4807   -3.1798   -2.4319 H   0  0  0  0  0  0  0  0  0  0  0  0
    3.2304   -2.6110   -3.5374 H   0  0  0  0  0  0  0  0  0  0  0  0
    5.5912   -1.1314    0.3063 H   0  0  0  0  0  0  0  0  0  0  0  0
    6.1832   -1.4568   -2.6003 H   0  0  0  0  0  0  0  0  0  0  0  0
    6.9945   -2.0892   -1.1774 H   0  0  0  0  0  0  0  0  0  0  0  0
    5.6713    1.1204   -1.8354 H   0  0  0  0  0  0  0  0  0  0  0  0
    5.5349    1.2008   -0.0244 H   0  0  0  0  0  0  0  0  0  0  0  0
    7.3935    0.9490    1.3727 H   0  0  0  0  0  0  0  0  0  0  0  0
    9.8488    0.9698    1.6360 H   0  0  0  0  0  0  0  0  0  0  0  0
   11.2473    0.6838   -0.3220 H   0  0  0  0  0  0  0  0  0  0  0  0
   10.3149    0.3733   -2.5066 H   0  0  0  0  0  0  0  0  0  0  0  0
    7.8439    0.3465   -2.8102 H   0  0  0  0  0  0  0  0  0  0  0  0
   -9.7750   -0.5137   -3.0622 H   0  0  0  0  0  0  0  0  0  0  0  0
   -9.9097   -2.1760   -2.4150 H   0  0  0  0  0  0  0  0  0  0  0  0
  1  2  1  0
  2  3  1  0
  3  4  1  0
  4  5  2  0
  4  6  1  0
  6  7  1  0
  7  8  1  0
  8  9  1  0
  9 10  1  0
 10 11  1  0
 11 12  2  0
 11 13  1  0
 13 14  1  0
 14 15  1  0
 15 16  2  0
 16 17  1  0
 17 18  2  0
 18 19  1  0
 18 20  1  0
 20 21  2  0
 13 22  1  0
 22 23  1  0
 23 24  2  0
 23 25  1  0
 25 26  1  0
 26 27  1  0
 27 28  1  0
 28 29  1  0
 29 30  1  0
 30 31  2  0
 30 32  1  0
 32 33  1  0
 32 34  1  0
 34 35  1  0
 35 36  2  0
 36 37  1  0
 37 38  2  0
 38 39  1  0
 39 40  2  0
  2 41  1  0
 41 42  1  0
 41 43  2  0
 10  6  1  0
 21 15  1  0
 29 25  1  0
 40 35  1  0
  1 44  1  0
  1 45  1  0
  1 46  1  0
  2 47  1  6
  3 48  1  0
  6 49  1  1
  7 50  1  0
  7 51  1  0
  8 52  1  0
  8 53  1  0
  9 54  1  0
  9 55  1  0
 13 56  1  6
 14 57  1  0
 14 58  1  0
 16 59  1  0
 17 60  1  0
 19 61  1  0
 20 62  1  0
 21 63  1  0
 22 64  1  0
 25 65  1  6
 26 66  1  0
 26 67  1  0
 27 68  1  0
 27 69  1  0
 28 70  1  0
 28 71  1  0
 32 72  1  1
 33 73  1  0
 33 74  1  0
 34 75  1  0
 34 76  1  0
 36 77  1  0
 37 78  1  0
 38 79  1  0
 39 80  1  0
 40 81  1  0
 42 82  1  0
 42 83  1  0
M  END
$$$$
[H]Oc1c([H])c([H])c(C([H])([H])[C@]([H])(C(=O)N2C([H])([H])C([H])([H])C([H])([H])[C@@]2([H])C(=O)N([H])[C@@]([H])(C([H])([H])[H])C(F)(F)F)N([H])C(=O)[C@@]2([H])N(C(=O)[C@@]([H])(N([H])[H])C([H])([H])c3c([H])c([H])c(C(C([H])([H])[H])(C([H])([H])[H])C([H])([H])[H])c([H])c3[H])C([H])([H])C([H])([H])C2([H])[H])c([H])c1[H]
     RDKit          3D

 94 97  0  0  0  0  0  0  0  0999 V2000
   -9.1179    2.7363   -1.6934 C   0  0  0  0  0  0  0  0  0  0  0  0
   -8.3609    1.9062   -0.6754 C   0  0  2  0  0  0  0  0  0  0  0  0
   -7.2737    1.1750   -1.2787 N   0  0  0  0  0  0  0  0  0  0  0  0
   -5.9619    1.2248   -0.7802 C   0  0  0  0  0  0  0  0  0  0  0  0
   -5.7851    1.9720    0.2442 O   0  0  0  0  0  0  0  0  0  0  0  0
   -4.7857    0.5134   -1.3144 C   0  0  2  0  0  0  0  0  0  0  0  0
   -4.9841    0.5016   -2.8360 C   0  0  0  0  0  0  0  0  0  0  0  0
   -5.5373   -0.8584   -3.1143 C   0  0  0  0  0  0  0  0  0  0  0  0
   -5.7275   -1.5157   -1.7789 C   0  0  0  0  0  0  0  0  0  0  0  0
   -4.6683   -0.8657   -0.9857 N   0  0  0  0  0  0  0  0  0  0  0  0
   -3.7691   -1.5684   -0.1862 C   0  0  0  0  0  0  0  0  0  0  0  0
   -3.9248   -2.8673   -0.0505 O   0  0  0  0  0  0  0  0  0  0  0  0
   -2.6027   -1.0751    0.5645 C   0  0  1  0  0  0  0  0  0  0  0  0
   -2.8193   -1.1258    2.0679 C   0  0  0  0  0  0  0  0  0  0  0  0
   -3.9134   -0.3274    2.6024 C   0  0  0  0  0  0  0  0  0  0  0  0
   -5.2090   -0.7732    2.7415 C   0  0  0  0  0  0  0  0  0  0  0  0
   -6.2044   -0.0093    3.3127 C   0  0  0  0  0  0  0  0  0  0  0  0
   -5.9522    1.2704    3.7855 C   0  0  0  0  0  0  0  0  0  0  0  0
   -6.9566    2.0359    4.3613 O   0  0  0  0  0  0  0  0  0  0  0  0
   -4.6596    1.7321    3.6520 C   0  0  0  0  0  0  0  0  0  0  0  0
   -3.6663    0.9713    3.0824 C   0  0  0  0  0  0  0  0  0  0  0  0
   -1.5133   -2.0405    0.2760 N   0  0  0  0  0  0  0  0  0  0  0  0
   -0.1891   -1.6625    0.0087 C   0  0  0  0  0  0  0  0  0  0  0  0
    0.1265   -0.4518    0.0110 O   0  0  0  0  0  0  0  0  0  0  0  0
    0.8788   -2.6582   -0.2815 C   0  0  2  0  0  0  0  0  0  0  0  0
    0.9006   -3.6577    0.8628 C   0  0  0  0  0  0  0  0  0  0  0  0
    1.8884   -3.0401    1.8234 C   0  0  0  0  0  0  0  0  0  0  0  0
    2.5452   -1.8832    1.1254 C   0  0  0  0  0  0  0  0  0  0  0  0
    2.2054   -2.0869   -0.2624 N   0  0  0  0  0  0  0  0  0  0  0  0
    3.0395   -1.7808   -1.3615 C   0  0  0  0  0  0  0  0  0  0  0  0
    2.6134   -2.0179   -2.5111 O   0  0  0  0  0  0  0  0  0  0  0  0
    4.3626   -1.2060   -1.1570 C   0  0  1  0  0  0  0  0  0  0  0  0
    5.0648   -1.1690   -2.4544 N   0  0  0  0  0  0  0  0  0  0  0  0
    4.3349    0.2466   -0.6596 C   0  0  0  0  0  0  0  0  0  0  0  0
    5.7625    0.6281   -0.5166 C   0  0  0  0  0  0  0  0  0  0  0  0
    6.4351    1.2061   -1.5649 C   0  0  0  0  0  0  0  0  0  0  0  0
    7.7886    1.5411   -1.4200 C   0  0  0  0  0  0  0  0  0  0  0  0
    8.4654    1.3012   -0.2398 C   0  0  0  0  0  0  0  0  0  0  0  0
    7.7892    0.7288    0.7929 C   0  0  0  0  0  0  0  0  0  0  0  0
    6.4669    0.4042    0.6453 C   0  0  0  0  0  0  0  0  0  0  0  0
    9.9051    1.6741   -0.1679 C   0  0  0  0  0  0  0  0  0  0  0  0
   10.0135    2.9845    0.5668 C   0  0  0  0  0  0  0  0  0  0  0  0
   10.7067    0.6053    0.5568 C   0  0  0  0  0  0  0  0  0  0  0  0
   10.4646    1.7415   -1.5721 C   0  0  0  0  0  0  0  0  0  0  0  0
   -9.3688    0.8421   -0.2068 C   0  0  0  0  0  0  0  0  0  0  0  0
  -10.4772    1.3959    0.3567 F   0  0  0  0  0  0  0  0  0  0  0  0
   -9.7053    0.0912   -1.3404 F   0  0  0  0  0  0  0  0  0  0  0  0
   -8.7068    0.0092    0.6576 F   0  0  0  0  0  0  0  0  0  0  0  0
   -8.7550    3.7789   -1.6833 H   0  0  0  0  0  0  0  0  0  0  0  0
  -10.1838    2.7570   -1.4120 H   0  0  0  0  0  0  0  0  0  0  0  0
   -9.0253    2.3263   -2.7216 H   0  0  0  0  0  0  0  0  0  0  0  0
   -8.0558    2.5318    0.1803 H   0  0  0  0  0  0  0  0  0  0  0  0
   -7.5012    0.6166   -2.1175 H   0  0  0  0  0  0  0  0  0  0  0  0
   -3.8875    1.1157   -1.1212 H   0  0  0  0  0  0  0  0  0  0  0  0
   -4.0123    0.6877   -3.3421 H   0  0  0  0  0  0  0  0  0  0  0  0
   -5.7378    1.2598   -3.1165 H   0  0  0  0  0  0  0  0  0  0  0  0
   -4.7483   -1.4472   -3.6467 H   0  0  0  0  0  0  0  0  0  0  0  0
   -6.4775   -0.8300   -3.7119 H   0  0  0  0  0  0  0  0  0  0  0  0
   -6.6982   -1.3663   -1.3008 H   0  0  0  0  0  0  0  0  0  0  0  0
   -5.5232   -2.6196   -1.8331 H   0  0  0  0  0  0  0  0  0  0  0  0
   -2.2377   -0.0925    0.3269 H   0  0  0  0  0  0  0  0  0  0  0  0
   -2.9713   -2.1872    2.4019 H   0  0  0  0  0  0  0  0  0  0  0  0
   -1.8791   -0.7748    2.5699 H   0  0  0  0  0  0  0  0  0  0  0  0
   -5.4199   -1.7802    2.3720 H   0  0  0  0  0  0  0  0  0  0  0  0
   -7.2354   -0.3790    3.4190 H   0  0  0  0  0  0  0  0  0  0  0  0
   -7.5181    2.6440    3.7693 H   0  0  0  0  0  0  0  0  0  0  0  0
   -4.4574    2.7338    4.0208 H   0  0  0  0  0  0  0  0  0  0  0  0
   -2.6394    1.3409    2.9753 H   0  0  0  0  0  0  0  0  0  0  0  0
   -1.7797   -3.0408    0.2803 H   0  0  0  0  0  0  0  0  0  0  0  0
    0.6903   -3.1813   -1.2480 H   0  0  0  0  0  0  0  0  0  0  0  0
    1.2522   -4.6642    0.5090 H   0  0  0  0  0  0  0  0  0  0  0  0
   -0.0968   -3.8183    1.3122 H   0  0  0  0  0  0  0  0  0  0  0  0
    2.6085   -3.7570    2.2475 H   0  0  0  0  0  0  0  0  0  0  0  0
    1.2918   -2.6265    2.6815 H   0  0  0  0  0  0  0  0  0  0  0  0
    2.0837   -0.9121    1.4273 H   0  0  0  0  0  0  0  0  0  0  0  0
    3.6443   -1.8581    1.3004 H   0  0  0  0  0  0  0  0  0  0  0  0
    5.0167   -1.7602   -0.4583 H   0  0  0  0  0  0  0  0  0  0  0  0
    4.5787   -0.5620   -3.1420 H   0  0  0  0  0  0  0  0  0  0  0  0
    5.1518   -2.1131   -2.8654 H   0  0  0  0  0  0  0  0  0  0  0  0
    3.8621    0.2831    0.3306 H   0  0  0  0  0  0  0  0  0  0  0  0
    3.8155    0.8939   -1.3991 H   0  0  0  0  0  0  0  0  0  0  0  0
    5.9277    1.4066   -2.5046 H   0  0  0  0  0  0  0  0  0  0  0  0
    8.2803    1.9926   -2.2552 H   0  0  0  0  0  0  0  0  0  0  0  0
    8.2850    0.5294    1.7201 H   0  0  0  0  0  0  0  0  0  0  0  0
    5.9330   -0.0508    1.4722 H   0  0  0  0  0  0  0  0  0  0  0  0
   11.0166    3.4588    0.4596 H   0  0  0  0  0  0  0  0  0  0  0  0
    9.2002    3.6410    0.1837 H   0  0  0  0  0  0  0  0  0  0  0  0
    9.7489    2.7832    1.6310 H   0  0  0  0  0  0  0  0  0  0  0  0
   10.3973   -0.3594    0.1215 H   0  0  0  0  0  0  0  0  0  0  0  0
   10.6092    0.6564    1.6392 H   0  0  0  0  0  0  0  0  0  0  0  0
   11.7682    0.7484    0.2491 H   0  0  0  0  0  0  0  0  0  0  0  0
   10.2034    2.6784   -2.0837 H   0  0  0  0  0  0  0  0  0  0  0  0
    9.9807    0.9086   -2.1535 H   0  0  0  0  0  0  0  0  0  0  0  0
   11.5774    1.6103   -1.5680 H   0  0  0  0  0  0  0  0  0  0  0  0
  1  2  1  0
  2  3  1  0
  3  4  1  0
  4  5  2  0
  4  6  1  0
  6  7  1  0
  7  8  1  0
  8  9  1  0
  9 10  1  0
 10 11  1  0
 11 12  2  0
 11 13  1  0
 13 14  1  0
 14 15  1  0
 15 16  2  0
 16 17  1  0
 17 18  2  0
 18 19  1  0
 18 20  1  0
 20 21  2  0
 13 22  1  0
 22 23  1  0
 23 24  2  0
 23 25  1  0
 25 26  1  0
 26 27  1  0
 27 28  1  0
 28 29  1  0
 29 30  1  0
 30 31  2  0
 30 32  1  0
 32 33  1  0
 32 34  1  0
 34 35  1  0
 35 36  2  0
 36 37  1  0
 37 38  2  0
 38 39  1  0
 39 40  2  0
 38 41  1  0
 41 42  1  0
 41 43  1  0
 41 44  1  0
  2 45  1  0
 45 46  1  0
 45 47  1  0
 45 48  1  0
 10  6  1  0
 21 15  1  0
 29 25  1  0
 40 35  1  0
  1 49  1  0
  1 50  1  0
  1 51  1  0
  2 52  1  1
  3 53  1  0
  6 54  1  6
  7 55  1  0
  7 56  1  0
  8 57  1  0
  8 58  1  0
  9 59  1  0
  9 60  1  0
 13 61  1  6
 14 62  1  0
 14 63  1  0
 16 64  1  0
 17 65  1  0
 19 66  1  0
 20 67  1  0
 21 68  1  0
 22 69  1  0
 25 70  1  6
 26 71  1  0
 26 72  1  0
 27 73  1  0
 27 74  1  0
 28 75  1  0
 28 76  1  0
 32 77  1  1
 33 78  1  0
 33 79  1  0
 34 80  1  0
 34 81  1  0
 36 82  1  0
 37 83  1  0
 39 84  1  0
 40 85  1  0
 42 86  1  0
 42 87  1  0
 42 88  1  0
 43 89  1  0
 43 90  1  0
 43 91  1  0
 44 92  1  0
 44 93  1  0
 44 94  1  0
M  END
$$$$
[H]c1c([H])c([C@]2([H])C([H])([H])N(S(=O)(=O)c3c([H])c([H])c(OC([H])([H])[H])c([H])c3[H])[C@]([H])(C(=O)N3C([H])([H])C([H])([H])N(C([H])([H])[H])C([H])([H])C3([H])[H])C2([H])[H])c([H])c([H])c1C#N
     RDKit          3D

 61 64  0  0  0  0  0  0  0  0999 V2000
    7.7112   -0.7038    1.8259 C   0  0  0  0  0  0  0  0  0  0  0  0
    6.7773   -1.6528    1.3568 O   0  0  0  0  0  0  0  0  0  0  0  0
    5.5721   -1.2842    0.7451 C   0  0  0  0  0  0  0  0  0  0  0  0
    4.7461   -2.3117    0.3315 C   0  0  0  0  0  0  0  0  0  0  0  0
    3.5437   -2.0448   -0.2780 C   0  0  0  0  0  0  0  0  0  0  0  0
    3.1292   -0.7513   -0.4927 C   0  0  0  0  0  0  0  0  0  0  0  0
    3.9441    0.2690   -0.0849 C   0  0  0  0  0  0  0  0  0  0  0  0
    5.1747    0.0008    0.5390 C   0  0  0  0  0  0  0  0  0  0  0  0
    1.5580   -0.4730   -1.2969 S   0  0  0  0  0  0  0  0  0  0  0  0
    1.5642   -1.4224   -2.4426 O   0  0  0  0  0  0  0  0  0  0  0  0
    1.7130    0.9077   -1.9358 O   0  0  0  0  0  0  0  0  0  0  0  0
    0.3058   -0.4695   -0.2369 N   0  0  0  0  0  0  0  0  0  0  0  0
    0.4952    0.6287    0.7392 C   0  0  0  0  0  0  0  0  0  0  0  0
   -0.7391    1.5197    0.6252 C   0  0  2  0  0  0  0  0  0  0  0  0
   -1.4038    1.0553   -0.6386 C   0  0  0  0  0  0  0  0  0  0  0  0
   -1.0454   -0.4640   -0.4858 C   0  0  1  0  0  0  0  0  0  0  0  0
   -1.7043   -1.2575   -1.4829 C   0  0  0  0  0  0  0  0  0  0  0  0
   -1.0676   -1.7884   -2.4262 O   0  0  0  0  0  0  0  0  0  0  0  0
   -3.0933   -1.5144   -1.4996 N   0  0  0  0  0  0  0  0  0  0  0  0
   -3.9734   -1.0100   -0.4837 C   0  0  0  0  0  0  0  0  0  0  0  0
   -5.0900   -2.0075   -0.1867 C   0  0  0  0  0  0  0  0  0  0  0  0
   -4.6892   -3.3544   -0.5062 N   0  0  0  0  0  0  0  0  0  0  0  0
   -3.8044   -3.9546    0.4521 C   0  0  0  0  0  0  0  0  0  0  0  0
   -4.2898   -3.5504   -1.8664 C   0  0  0  0  0  0  0  0  0  0  0  0
   -3.7415   -2.3047   -2.5370 C   0  0  0  0  0  0  0  0  0  0  0  0
   -0.4825    2.9370    0.7538 C   0  0  0  0  0  0  0  0  0  0  0  0
    0.1174    3.7436   -0.1731 C   0  0  0  0  0  0  0  0  0  0  0  0
    0.3395    5.0941   -0.0021 C   0  0  0  0  0  0  0  0  0  0  0  0
   -0.0585    5.6946    1.1669 C   0  0  0  0  0  0  0  0  0  0  0  0
   -0.6704    4.9336    2.1428 C   0  0  0  0  0  0  0  0  0  0  0  0
   -0.8804    3.5680    1.9381 C   0  0  0  0  0  0  0  0  0  0  0  0
    0.1740    7.1115    1.3387 C   0  0  0  0  0  0  0  0  0  0  0  0
    0.3652    8.2542    1.4669 N   0  0  0  0  0  0  0  0  0  0  0  0
    8.0147    0.0149    1.0491 H   0  0  0  0  0  0  0  0  0  0  0  0
    7.2477   -0.2137    2.7136 H   0  0  0  0  0  0  0  0  0  0  0  0
    8.6315   -1.2457    2.1245 H   0  0  0  0  0  0  0  0  0  0  0  0
    4.9970   -3.3643    0.4637 H   0  0  0  0  0  0  0  0  0  0  0  0
    2.8967   -2.8724   -0.6042 H   0  0  0  0  0  0  0  0  0  0  0  0
    3.6582    1.2816   -0.2383 H   0  0  0  0  0  0  0  0  0  0  0  0
    5.8075    0.8084    0.8549 H   0  0  0  0  0  0  0  0  0  0  0  0
    1.4064    1.1845    0.5138 H   0  0  0  0  0  0  0  0  0  0  0  0
    0.5570    0.1055    1.7192 H   0  0  0  0  0  0  0  0  0  0  0  0
   -1.4040    1.1621    1.4688 H   0  0  0  0  0  0  0  0  0  0  0  0
   -1.0152    1.4433   -1.5646 H   0  0  0  0  0  0  0  0  0  0  0  0
   -2.4935    1.1272   -0.6204 H   0  0  0  0  0  0  0  0  0  0  0  0
   -1.5427   -0.6606    0.5472 H   0  0  0  0  0  0  0  0  0  0  0  0
   -4.5189   -0.1005   -0.8637 H   0  0  0  0  0  0  0  0  0  0  0  0
   -3.5118   -0.7341    0.4608 H   0  0  0  0  0  0  0  0  0  0  0  0
   -5.2966   -1.9618    0.8943 H   0  0  0  0  0  0  0  0  0  0  0  0
   -6.0106   -1.7887   -0.7586 H   0  0  0  0  0  0  0  0  0  0  0  0
   -3.7213   -3.3927    1.4061 H   0  0  0  0  0  0  0  0  0  0  0  0
   -2.7718   -4.0403    0.0343 H   0  0  0  0  0  0  0  0  0  0  0  0
   -4.0984   -4.9947    0.7334 H   0  0  0  0  0  0  0  0  0  0  0  0
   -5.1782   -3.9460   -2.4245 H   0  0  0  0  0  0  0  0  0  0  0  0
   -3.4572   -4.3055   -1.8753 H   0  0  0  0  0  0  0  0  0  0  0  0
   -4.5852   -1.7025   -2.9876 H   0  0  0  0  0  0  0  0  0  0  0  0
   -3.0306   -2.6303   -3.3158 H   0  0  0  0  0  0  0  0  0  0  0  0
    0.4366    3.3211   -1.0937 H   0  0  0  0  0  0  0  0  0  0  0  0
    0.8207    5.6708   -0.7789 H   0  0  0  0  0  0  0  0  0  0  0  0
   -0.9695    5.4388    3.0489 H   0  0  0  0  0  0  0  0  0  0  0  0
   -1.3654    2.9973    2.7272 H   0  0  0  0  0  0  0  0  0  0  0  0
  1  2  1  0
  2  3  1  0
  3  4  2  0
  4  5  1  0
  5  6  2  0
  6  7  1  0
  7  8  2  0
  6  9  1  0
  9 10  2  0
  9 11  2  0
  9 12  1  0
 12 13  1  0
 13 14  1  0
 14 15  1  0
 15 16  1  0
 16 17  1  0
 17 18  2  0
 17 19  1  0
 19 20  1  0
 20 21  1  0
 21 22  1  0
 22 23  1  0
 22 24  1  0
 24 25  1  0
 14 26  1  0
 26 27  2  0
 27 28  1  0
 28 29  2  0
 29 30  1  0
 30 31  2  0
 29 32  1  0
 32 33  3  0
  8  3  1  0
 16 12  1  0
 25 19  1  0
 31 26  1  0
  1 34  1  0
  1 35  1  0
  1 36  1  0
  4 37  1  0
  5 38  1  0
  7 39  1  0
  8 40  1  0
 13 41  1  0
 13 42  1  0
 14 43  1  1
 15 44  1  0
 15 45  1  0
 16 46  1  1
 20 47  1  0
 20 48  1  0
 21 49  1  0
 21 50  1  0
 23 51  1  0
 23 52  1  0
 23 53  1  0
 24 54  1  0
 24 55  1  0
 25 56  1  0
 25 57  1  0
 27 58  1  0
 28 59  1  0
 30 60  1  0
 31 61  1  0
M  END
$$$$
[H]c1c([H])c([H])c(C([H])([H])[C@@]([H])(C(=O)N([H])C([H])([H])[H])N([H])C(=O)[C@@]([H])(N([H])C(=O)[C@@]([H])(N([H])C(=O)[C@@]([H])(N([H])C(=O)[C@@]([H])(N([H])C(=O)[C@@]([H])(N([H])C(=O)[C@@]([H])(N([H])C(=O)[C@@]([H])(N([H])C(=O)[C@]([H])(N([H])C([H])([H])[H])C([H])([H])C([H])(C([H])([H])[H])C([H])([H])[H])C([H])([H])C([H])(C([H])([H])[H])C([H])([H])[H])C([H])([H])C([H])(C([H])([H])[H])C([H])([H])[H])C([H])([H])C([H])(C([H])([H])[H])C([H])([H])[H])C([H])([H])C([H])(C([H])([H])[H])C([H])([H])[H])C([H])([H])C([H])(C([H])([H])[H])C([H])([H])[H])C([H])([H])C([H])(C([H])([H])[H])C([H])([H])[H])C([H])([H])C([H])(C([H])([H])[H])C([H])([H])[H])c([H])c1[H]
     RDKit          3D

182182  0  0  0  0  0  0  0  0999 V2000
   15.1773    0.8665    0.2165 C   0  0  0  0  0  0  0  0  0  0  0  0
   14.0817    1.4585   -0.5404 N   0  0  0  0  0  0  0  0  0  0  0  0
   12.7766    1.5835    0.0302 C   0  0  0  0  0  0  0  0  0  0  0  0
   12.5927    1.1635    1.1801 O   0  0  0  0  0  0  0  0  0  0  0  0
   11.6963    2.1946   -0.7508 C   0  0  2  0  0  0  0  0  0  0  0  0
   11.7730    3.6886   -0.8687 C   0  0  0  0  0  0  0  0  0  0  0  0
   12.9672    4.2375   -1.4701 C   0  0  0  0  0  0  0  0  0  0  0  0
   13.0713    4.3695   -2.8321 C   0  0  0  0  0  0  0  0  0  0  0  0
   14.1940    4.9007   -3.4395 C   0  0  0  0  0  0  0  0  0  0  0  0
   15.2456    5.3145   -2.6724 C   0  0  0  0  0  0  0  0  0  0  0  0
   15.1506    5.1868   -1.3101 C   0  0  0  0  0  0  0  0  0  0  0  0
   14.0340    4.6574   -0.6923 C   0  0  0  0  0  0  0  0  0  0  0  0
   10.3964    1.8961   -0.0813 N   0  0  0  0  0  0  0  0  0  0  0  0
    9.4639    0.9886   -0.6433 C   0  0  0  0  0  0  0  0  0  0  0  0
    9.7806    0.4504   -1.7440 O   0  0  0  0  0  0  0  0  0  0  0  0
    8.1826    0.6571    0.0090 C   0  0  2  0  0  0  0  0  0  0  0  0
    8.5075    0.4727    1.4937 C   0  0  0  0  0  0  0  0  0  0  0  0
    7.2483    0.1229    2.2368 C   0  0  0  0  0  0  0  0  0  0  0  0
    7.6283   -0.1005    3.7121 C   0  0  0  0  0  0  0  0  0  0  0  0
    6.3636    1.3831    2.2766 C   0  0  0  0  0  0  0  0  0  0  0  0
    7.6755   -0.6023   -0.5284 N   0  0  0  0  0  0  0  0  0  0  0  0
    6.3515   -0.8308   -0.9415 C   0  0  0  0  0  0  0  0  0  0  0  0
    5.5198    0.1115   -0.8876 O   0  0  0  0  0  0  0  0  0  0  0  0
    5.9281   -2.1475   -1.4054 C   0  0  2  0  0  0  0  0  0  0  0  0
    5.7159   -2.2430   -2.8723 C   0  0  0  0  0  0  0  0  0  0  0  0
    6.8401   -1.9612   -3.7954 C   0  0  0  0  0  0  0  0  0  0  0  0
    8.0770   -2.8005   -3.5833 C   0  0  0  0  0  0  0  0  0  0  0  0
    7.1882   -0.5554   -4.0995 C   0  0  0  0  0  0  0  0  0  0  0  0
    4.6953   -2.5406   -0.7338 N   0  0  0  0  0  0  0  0  0  0  0  0
    3.5202   -3.0656   -1.1457 C   0  0  0  0  0  0  0  0  0  0  0  0
    3.2139   -3.3027   -2.3410 O   0  0  0  0  0  0  0  0  0  0  0  0
    2.4008   -3.4437   -0.1602 C   0  0  2  0  0  0  0  0  0  0  0  0
    2.4935   -4.9188    0.0591 C   0  0  0  0  0  0  0  0  0  0  0  0
    1.5934   -5.6428    0.9369 C   0  0  0  0  0  0  0  0  0  0  0  0
    1.6269   -5.2203    2.3872 C   0  0  0  0  0  0  0  0  0  0  0  0
    0.1908   -5.8762    0.4457 C   0  0  0  0  0  0  0  0  0  0  0  0
    1.1727   -2.9527   -0.6288 N   0  0  0  0  0  0  0  0  0  0  0  0
    0.3780   -2.1068    0.2020 C   0  0  0  0  0  0  0  0  0  0  0  0
    0.8447   -1.8616    1.3508 O   0  0  0  0  0  0  0  0  0  0  0  0
   -0.8870   -1.5553   -0.2136 C   0  0  2  0  0  0  0  0  0  0  0  0
   -0.8702   -0.5004   -1.2946 C   0  0  0  0  0  0  0  0  0  0  0  0
   -0.1850    0.7617   -1.0453 C   0  0  0  0  0  0  0  0  0  0  0  0
    1.2802    0.6329   -0.7693 C   0  0  0  0  0  0  0  0  0  0  0  0
   -0.3162    1.6076   -2.3240 C   0  0  0  0  0  0  0  0  0  0  0  0
   -1.5028   -0.9676    0.9971 N   0  0  0  0  0  0  0  0  0  0  0  0
   -2.8377   -1.0890    1.3186 C   0  0  0  0  0  0  0  0  0  0  0  0
   -3.6572   -1.6940    0.6163 O   0  0  0  0  0  0  0  0  0  0  0  0
   -3.3382   -0.4499    2.5956 C   0  0  2  0  0  0  0  0  0  0  0  0
   -2.4510   -0.7733    3.7432 C   0  0  0  0  0  0  0  0  0  0  0  0
   -2.2714   -2.2410    4.0233 C   0  0  0  0  0  0  0  0  0  0  0  0
   -1.3393   -2.4125    5.2046 C   0  0  0  0  0  0  0  0  0  0  0  0
   -3.5651   -2.9261    4.3771 C   0  0  0  0  0  0  0  0  0  0  0  0
   -4.7328   -0.5036    2.7817 N   0  0  0  0  0  0  0  0  0  0  0  0
   -5.5937    0.2733    1.9225 C   0  0  0  0  0  0  0  0  0  0  0  0
   -5.0388    0.9462    1.0231 O   0  0  0  0  0  0  0  0  0  0  0  0
   -7.0774    0.2724    2.1023 C   0  0  2  0  0  0  0  0  0  0  0  0
   -7.4654   -0.6174    3.2128 C   0  0  0  0  0  0  0  0  0  0  0  0
   -8.9061   -0.7270    3.5459 C   0  0  0  0  0  0  0  0  0  0  0  0
   -9.0044   -1.7228    4.7212 C   0  0  0  0  0  0  0  0  0  0  0  0
   -9.8177   -1.2637    2.5058 C   0  0  0  0  0  0  0  0  0  0  0  0
   -7.8140    0.1979    0.8971 N   0  0  0  0  0  0  0  0  0  0  0  0
   -8.2385    1.2686    0.0833 C   0  0  0  0  0  0  0  0  0  0  0  0
   -7.8906    2.4460    0.4942 O   0  0  0  0  0  0  0  0  0  0  0  0
   -9.0336    1.1474   -1.1515 C   0  0  2  0  0  0  0  0  0  0  0  0
   -8.4379    0.7718   -2.4185 C   0  0  0  0  0  0  0  0  0  0  0  0
   -7.7399   -0.4820   -2.6806 C   0  0  0  0  0  0  0  0  0  0  0  0
   -6.5089   -0.8265   -1.9354 C   0  0  0  0  0  0  0  0  0  0  0  0
   -8.6567   -1.7055   -2.5875 C   0  0  0  0  0  0  0  0  0  0  0  0
   -9.7464    2.4433   -1.2812 N   0  0  0  0  0  0  0  0  0  0  0  0
  -10.9344    2.6640   -0.5078 C   0  0  0  0  0  0  0  0  0  0  0  0
  -11.3326    1.7453    0.2814 O   0  0  0  0  0  0  0  0  0  0  0  0
  -11.6995    3.9050   -0.5845 C   0  0  1  0  0  0  0  0  0  0  0  0
  -13.0030    3.8814   -1.2980 C   0  0  0  0  0  0  0  0  0  0  0  0
  -13.0465    3.5010   -2.7266 C   0  0  0  0  0  0  0  0  0  0  0  0
  -14.5291    3.6118   -3.1865 C   0  0  0  0  0  0  0  0  0  0  0  0
  -12.7047    2.0554   -2.9614 C   0  0  0  0  0  0  0  0  0  0  0  0
  -12.0668    4.2065    0.8378 N   0  0  0  0  0  0  0  0  0  0  0  0
  -10.8448    4.3999    1.5968 C   0  0  0  0  0  0  0  0  0  0  0  0
   15.6290    0.0745   -0.3987 H   0  0  0  0  0  0  0  0  0  0  0  0
   15.9132    1.6015    0.5586 H   0  0  0  0  0  0  0  0  0  0  0  0
   14.7205    0.3408    1.1080 H   0  0  0  0  0  0  0  0  0  0  0  0
   14.2854    1.7488   -1.4999 H   0  0  0  0  0  0  0  0  0  0  0  0
   11.6166    1.7429   -1.7485 H   0  0  0  0  0  0  0  0  0  0  0  0
   11.7127    4.1006    0.1854 H   0  0  0  0  0  0  0  0  0  0  0  0
   10.8186    4.0256   -1.3521 H   0  0  0  0  0  0  0  0  0  0  0  0
   12.2623    4.0524   -3.5110 H   0  0  0  0  0  0  0  0  0  0  0  0
   14.2905    5.0168   -4.5249 H   0  0  0  0  0  0  0  0  0  0  0  0
   16.1416    5.7350   -3.1444 H   0  0  0  0  0  0  0  0  0  0  0  0
   16.0092    5.5352   -0.7153 H   0  0  0  0  0  0  0  0  0  0  0  0
   14.0579    4.5974    0.3895 H   0  0  0  0  0  0  0  0  0  0  0  0
   10.2602    2.4128    0.8115 H   0  0  0  0  0  0  0  0  0  0  0  0
    7.4390    1.4557   -0.1152 H   0  0  0  0  0  0  0  0  0  0  0  0
    8.8344    1.4619    1.9252 H   0  0  0  0  0  0  0  0  0  0  0  0
    9.3245   -0.2319    1.6583 H   0  0  0  0  0  0  0  0  0  0  0  0
    6.7201   -0.7570    1.8638 H   0  0  0  0  0  0  0  0  0  0  0  0
    8.5392    0.4417    4.0011 H   0  0  0  0  0  0  0  0  0  0  0  0
    6.7847    0.2503    4.3443 H   0  0  0  0  0  0  0  0  0  0  0  0
    7.7888   -1.1766    3.9215 H   0  0  0  0  0  0  0  0  0  0  0  0
    5.3658    1.1815    1.8218 H   0  0  0  0  0  0  0  0  0  0  0  0
    6.8261    2.2222    1.7249 H   0  0  0  0  0  0  0  0  0  0  0  0
    6.1882    1.7311    3.2943 H   0  0  0  0  0  0  0  0  0  0  0  0
    8.3564   -1.4221   -0.6005 H   0  0  0  0  0  0  0  0  0  0  0  0
    6.7307   -2.9133   -1.1141 H   0  0  0  0  0  0  0  0  0  0  0  0
    4.8394   -1.6342   -3.2371 H   0  0  0  0  0  0  0  0  0  0  0  0
    5.3978   -3.3254   -3.0938 H   0  0  0  0  0  0  0  0  0  0  0  0
    6.4748   -2.3793   -4.8439 H   0  0  0  0  0  0  0  0  0  0  0  0
    8.6412   -2.8648   -4.5338 H   0  0  0  0  0  0  0  0  0  0  0  0
    7.7847   -3.8648   -3.3388 H   0  0  0  0  0  0  0  0  0  0  0  0
    8.7102   -2.3617   -2.8102 H   0  0  0  0  0  0  0  0  0  0  0  0
    6.7559    0.1761   -3.4232 H   0  0  0  0  0  0  0  0  0  0  0  0
    8.3102   -0.3728   -4.0829 H   0  0  0  0  0  0  0  0  0  0  0  0
    6.8015   -0.2869   -5.1272 H   0  0  0  0  0  0  0  0  0  0  0  0
    4.7652   -2.3488    0.3450 H   0  0  0  0  0  0  0  0  0  0  0  0
    2.6798   -2.9389    0.7709 H   0  0  0  0  0  0  0  0  0  0  0  0
    2.5207   -5.3995   -0.9501 H   0  0  0  0  0  0  0  0  0  0  0  0
    3.5514   -5.1467    0.4547 H   0  0  0  0  0  0  0  0  0  0  0  0
    2.0161   -6.7062    0.9678 H   0  0  0  0  0  0  0  0  0  0  0  0
    1.6864   -6.0800    3.0856 H   0  0  0  0  0  0  0  0  0  0  0  0
    2.5584   -4.6232    2.6151 H   0  0  0  0  0  0  0  0  0  0  0  0
    0.7146   -4.6649    2.6188 H   0  0  0  0  0  0  0  0  0  0  0  0
   -0.5107   -5.0726    0.5804 H   0  0  0  0  0  0  0  0  0  0  0  0
   -0.2046   -6.7568    1.0348 H   0  0  0  0  0  0  0  0  0  0  0  0
    0.2667   -6.2765   -0.6044 H   0  0  0  0  0  0  0  0  0  0  0  0
    0.7782   -3.1555   -1.5757 H   0  0  0  0  0  0  0  0  0  0  0  0
   -1.5983   -2.3126   -0.5606 H   0  0  0  0  0  0  0  0  0  0  0  0
   -0.3952   -1.0131   -2.1945 H   0  0  0  0  0  0  0  0  0  0  0  0
   -1.9148   -0.3457   -1.5953 H   0  0  0  0  0  0  0  0  0  0  0  0
   -0.6874    1.4123   -0.2740 H   0  0  0  0  0  0  0  0  0  0  0  0
    1.8042   -0.1469   -1.3219 H   0  0  0  0  0  0  0  0  0  0  0  0
    1.7777    1.5960   -1.1400 H   0  0  0  0  0  0  0  0  0  0  0  0
    1.5100    0.6783    0.3258 H   0  0  0  0  0  0  0  0  0  0  0  0
    0.4804    1.3316   -3.0371 H   0  0  0  0  0  0  0  0  0  0  0  0
   -0.1050    2.6586   -2.0285 H   0  0  0  0  0  0  0  0  0  0  0  0
   -1.3348    1.5633   -2.7026 H   0  0  0  0  0  0  0  0  0  0  0  0
   -0.8374   -0.4478    1.6202 H   0  0  0  0  0  0  0  0  0  0  0  0
   -3.1297    0.6665    2.3396 H   0  0  0  0  0  0  0  0  0  0  0  0
   -2.9469   -0.3608    4.6845 H   0  0  0  0  0  0  0  0  0  0  0  0
   -1.4873   -0.2427    3.6895 H   0  0  0  0  0  0  0  0  0  0  0  0
   -1.7606   -2.7615    3.1688 H   0  0  0  0  0  0  0  0  0  0  0  0
   -0.2775   -2.1753    4.9402 H   0  0  0  0  0  0  0  0  0  0  0  0
   -1.3179   -3.4968    5.5096 H   0  0  0  0  0  0  0  0  0  0  0  0
   -1.6282   -1.8345    6.0820 H   0  0  0  0  0  0  0  0  0  0  0  0
   -4.1369   -2.3770    5.1425 H   0  0  0  0  0  0  0  0  0  0  0  0
   -4.1750   -3.1312    3.4410 H   0  0  0  0  0  0  0  0  0  0  0  0
   -3.3857   -3.9756    4.7680 H   0  0  0  0  0  0  0  0  0  0  0  0
   -5.1979   -1.0609    3.5074 H   0  0  0  0  0  0  0  0  0  0  0  0
   -7.2559    1.3524    2.4757 H   0  0  0  0  0  0  0  0  0  0  0  0
   -6.9527   -0.2893    4.1729 H   0  0  0  0  0  0  0  0  0  0  0  0
   -7.0936   -1.6732    3.0642 H   0  0  0  0  0  0  0  0  0  0  0  0
   -9.2691    0.2272    4.0010 H   0  0  0  0  0  0  0  0  0  0  0  0
  -10.0431   -1.7909    5.0829 H   0  0  0  0  0  0  0  0  0  0  0  0
   -8.7356   -2.7080    4.2704 H   0  0  0  0  0  0  0  0  0  0  0  0
   -8.2662   -1.4895    5.5026 H   0  0  0  0  0  0  0  0  0  0  0  0
  -10.1777   -0.5638    1.7485 H   0  0  0  0  0  0  0  0  0  0  0  0
  -10.7600   -1.5922    3.0508 H   0  0  0  0  0  0  0  0  0  0  0  0
   -9.4039   -2.2190    2.1157 H   0  0  0  0  0  0  0  0  0  0  0  0
   -8.0955   -0.7664    0.5807 H   0  0  0  0  0  0  0  0  0  0  0  0
   -9.8686    0.4291   -0.8515 H   0  0  0  0  0  0  0  0  0  0  0  0
   -7.7768    1.6102   -2.8483 H   0  0  0  0  0  0  0  0  0  0  0  0
   -9.3011    0.8098   -3.1900 H   0  0  0  0  0  0  0  0  0  0  0  0
   -7.4583   -0.4711   -3.7884 H   0  0  0  0  0  0  0  0  0  0  0  0
   -5.7784   -1.3062   -2.6585 H   0  0  0  0  0  0  0  0  0  0  0  0
   -5.9631    0.0642   -1.5653 H   0  0  0  0  0  0  0  0  0  0  0  0
   -6.6453   -1.6219   -1.1630 H   0  0  0  0  0  0  0  0  0  0  0  0
   -8.1025   -2.5371   -3.0799 H   0  0  0  0  0  0  0  0  0  0  0  0
   -9.6034   -1.5725   -3.1302 H   0  0  0  0  0  0  0  0  0  0  0  0
   -8.7601   -1.9843   -1.5232 H   0  0  0  0  0  0  0  0  0  0  0  0
   -9.3848    3.1710   -1.9075 H   0  0  0  0  0  0  0  0  0  0  0  0
  -11.0723    4.7686   -0.8922 H   0  0  0  0  0  0  0  0  0  0  0  0
  -13.3979    4.9530   -1.2225 H   0  0  0  0  0  0  0  0  0  0  0  0
  -13.7811    3.3238   -0.6897 H   0  0  0  0  0  0  0  0  0  0  0  0
  -12.5061    4.1983   -3.3886 H   0  0  0  0  0  0  0  0  0  0  0  0
  -15.1396    3.3106   -2.2993 H   0  0  0  0  0  0  0  0  0  0  0  0
  -14.7108    2.8890   -3.9811 H   0  0  0  0  0  0  0  0  0  0  0  0
  -14.7827    4.6551   -3.3942 H   0  0  0  0  0  0  0  0  0  0  0  0
  -13.4074    1.5858   -3.7107 H   0  0  0  0  0  0  0  0  0  0  0  0
  -12.7838    1.4280   -2.0646 H   0  0  0  0  0  0  0  0  0  0  0  0
  -11.7054    1.9318   -3.4395 H   0  0  0  0  0  0  0  0  0  0  0  0
  -12.6343    3.3928    1.1992 H   0  0  0  0  0  0  0  0  0  0  0  0
   -9.9937    4.5646    0.9322 H   0  0  0  0  0  0  0  0  0  0  0  0
  -10.6967    3.4855    2.2307 H   0  0  0  0  0  0  0  0  0  0  0  0
  -11.0547    5.2527    2.2904 H   0  0  0  0  0  0  0  0  0  0  0  0
  1  2  1  0
  2  3  1  0
  3  4  2  0
  3  5  1  0
  5  6  1  0
  6  7  1  0
  7  8  2  0
  8  9  1  0
  9 10  2  0
 10 11  1  0
 11 12  2  0
  5 13  1  0
 13 14  1  0
 14 15  2  0
 14 16  1  0
 16 17  1  0
 17 18  1  0
 18 19  1  0
 18 20  1  0
 16 21  1  0
 21 22  1  0
 22 23  2  0
 22 24  1  0
 24 25  1  0
 25 26  1  0
 26 27  1  0
 26 28  1  0
 24 29  1  0
 29 30  1  0
 30 31  2  0
 30 32  1  0
 32 33  1  0
 33 34  1  0
 34 35  1  0
 34 36  1  0
 32 37  1  0
 37 38  1  0
 38 39  2  0
 38 40  1  0
 40 41  1  0
 41 42  1  0
 42 43  1  0
 42 44  1  0
 40 45  1  0
 45 46  1  0
 46 47  2  0
 46 48  1  0
 48 49  1  0
 49 50  1  0
 50 51  1  0
 50 52  1  0
 48 53  1  0
 53 54  1  0
 54 55  2  0
 54 56  1  0
 56 57  1  0
 57 58  1  0
 58 59  1  0
 58 60  1  0
 56 61  1  0
 61 62  1  0
 62 63  2  0
 62 64  1  0
 64 65  1  0
 65 66  1  0
 66 67  1  0
 66 68  1  0
 64 69  1  0
 69 70  1  0
 70 71  2  0
 70 72  1  0
 72 73  1  0
 73 74  1  0
 74 75  1  0
 74 76  1  0
 72 77  1  0
 77 78  1  0
 12  7  1  0
  1 79  1  0
  1 80  1  0
  1 81  1  0
  2 82  1  0
  5 83  1  6
  6 84  1  0
  6 85  1  0
  8 86  1  0
  9 87  1  0
 10 88  1  0
 11 89  1  0
 12 90  1  0
 13 91  1  0
 16 92  1  1
 17 93  1  0
 17 94  1  0
 18 95  1  0
 19 96  1  0
 19 97  1  0
 19 98  1  0
 20 99  1  0
 20100  1  0
 20101  1  0
 21102  1  0
 24103  1  1
 25104  1  0
 25105  1  0
 26106  1  0
 27107  1  0
 27108  1  0
 27109  1  0
 28110  1  0
 28111  1  0
 28112  1  0
 29113  1  0
 32114  1  1
 33115  1  0
 33116  1  0
 34117  1  0
 35118  1  0
 35119  1  0
 35120  1  0
 36121  1  0
 36122  1  0
 36123  1  0
 37124  1  0
 40125  1  6
 41126  1  0
 41127  1  0
 42128  1  0
 43129  1  0
 43130  1  0
 43131  1  0
 44132  1  0
 44133  1  0
 44134  1  0
 45135  1  0
 48136  1  6
 49137  1  0
 49138  1  0
 50139  1  0
 51140  1  0
 51141  1  0
 51142  1  0
 52143  1  0
 52144  1  0
 52145  1  0
 53146  1  0
 56147  1  1
 57148  1  0
 57149  1  0
 58150  1  0
 59151  1  0
 59152  1  0
 59153  1  0
 60154  1  0
 60155  1  0
 60156  1  0
 61157  1  0
 64158  1  1
 65159  1  0
 65160  1  0
 66161  1  0
 67162  1  0
 67163  1  0
 67164  1  0
 68165  1  0
 68166  1  0
 68167  1  0
 69168  1  0
 72169  1  6
 73170  1  0
 73171  1  0
 74172  1  0
 75173  1  0
 75174  1  0
 75175  1  0
 76176  1  0
 76177  1  0
 76178  1  0
 77179  1  0
 78180  1  0
 78181  1  0
 78182  1  0
M  END
$$$$
[H]OC([H])([H])[C@@]1([H])O[C@]([H])(n2c([H])nc3c(N([H])C4([H])C([H])([H])C4([H])[H])nc(-c4oc([H])c([H])c4[H])nc32)[C@]([H])(O[H])[C@]1([H])O[H]
     RDKit          3D

 46 50  0  0  0  0  0  0  0  0999 V2000
    5.7158    2.3888   -0.4970 O   0  0  0  0  0  0  0  0  0  0  0  0
    4.6110    1.8691   -1.1648 C   0  0  0  0  0  0  0  0  0  0  0  0
    3.5207    1.6693   -0.1395 C   0  0  1  0  0  0  0  0  0  0  0  0
    2.3563    1.1494   -0.6937 O   0  0  0  0  0  0  0  0  0  0  0  0
    2.5994   -0.1682   -1.0074 C   0  0  1  0  0  0  0  0  0  0  0  0
    3.7463   -0.6460   -0.1780 C   0  0  2  0  0  0  0  0  0  0  0  0
    3.4439   -1.7709    0.5794 O   0  0  0  0  0  0  0  0  0  0  0  0
    3.9597    0.5249    0.7593 C   0  0  2  0  0  0  0  0  0  0  0  0
    3.0375    0.4595    1.7989 O   0  0  0  0  0  0  0  0  0  0  0  0
    1.4317   -1.0057   -0.8392 N   0  0  0  0  0  0  0  0  0  0  0  0
    1.4483   -2.3394   -1.0058 C   0  0  0  0  0  0  0  0  0  0  0  0
    0.1848   -2.7562   -0.7641 N   0  0  0  0  0  0  0  0  0  0  0  0
   -0.6103   -1.7259   -0.4544 C   0  0  0  0  0  0  0  0  0  0  0  0
   -1.9708   -1.6367   -0.1286 C   0  0  0  0  0  0  0  0  0  0  0  0
   -2.7559   -2.8002   -0.1042 N   0  0  0  0  0  0  0  0  0  0  0  0
   -4.1404   -2.9352    0.2130 C   0  0  0  0  0  0  0  0  0  0  0  0
   -5.0938   -2.0108   -0.5836 C   0  0  0  0  0  0  0  0  0  0  0  0
   -4.9135   -1.8989    0.8930 C   0  0  0  0  0  0  0  0  0  0  0  0
   -2.4196   -0.4204    0.1237 N   0  0  0  0  0  0  0  0  0  0  0  0
   -1.6659    0.6929    0.0851 C   0  0  0  0  0  0  0  0  0  0  0  0
   -0.3627    0.6020   -0.2277 N   0  0  0  0  0  0  0  0  0  0  0  0
    0.1942   -0.6079   -0.5042 C   0  0  0  0  0  0  0  0  0  0  0  0
   -2.2897    1.9961    0.3885 C   0  0  0  0  0  0  0  0  0  0  0  0
   -3.6126    2.1940    0.7188 C   0  0  0  0  0  0  0  0  0  0  0  0
   -3.8000    3.5342    0.9258 C   0  0  0  0  0  0  0  0  0  0  0  0
   -2.5593    4.1164    0.7097 C   0  0  0  0  0  0  0  0  0  0  0  0
   -1.7108    3.1716    0.3980 O   0  0  0  0  0  0  0  0  0  0  0  0
    6.3767    1.6963   -0.2439 H   0  0  0  0  0  0  0  0  0  0  0  0
    4.8345    0.9482   -1.7104 H   0  0  0  0  0  0  0  0  0  0  0  0
    4.2941    2.6548   -1.9080 H   0  0  0  0  0  0  0  0  0  0  0  0
    3.3365    2.5877    0.4149 H   0  0  0  0  0  0  0  0  0  0  0  0
    2.8938   -0.2018   -2.0823 H   0  0  0  0  0  0  0  0  0  0  0  0
    4.6657   -0.8614   -0.7840 H   0  0  0  0  0  0  0  0  0  0  0  0
    4.0088   -1.8244    1.3987 H   0  0  0  0  0  0  0  0  0  0  0  0
    4.9941    0.6299    1.0990 H   0  0  0  0  0  0  0  0  0  0  0  0
    3.2072   -0.2620    2.4369 H   0  0  0  0  0  0  0  0  0  0  0  0
    2.2934   -2.9746   -1.2789 H   0  0  0  0  0  0  0  0  0  0  0  0
   -2.2722   -3.7470   -0.3580 H   0  0  0  0  0  0  0  0  0  0  0  0
   -4.5639   -3.9999    0.2417 H   0  0  0  0  0  0  0  0  0  0  0  0
   -4.6029   -1.2813   -1.2604 H   0  0  0  0  0  0  0  0  0  0  0  0
   -6.0537   -2.4169   -0.9205 H   0  0  0  0  0  0  0  0  0  0  0  0
   -5.8125   -2.2242    1.5226 H   0  0  0  0  0  0  0  0  0  0  0  0
   -4.4571   -1.0061    1.3298 H   0  0  0  0  0  0  0  0  0  0  0  0
   -4.3607    1.4215    0.7977 H   0  0  0  0  0  0  0  0  0  0  0  0
   -4.7302    4.0254    1.2010 H   0  0  0  0  0  0  0  0  0  0  0  0
   -2.3960    5.1901    0.8029 H   0  0  0  0  0  0  0  0  0  0  0  0
  1  2  1  0
  2  3  1  0
  3  4  1  0
  4  5  1  0
  5  6  1  0
  6  7  1  0
  6  8  1  0
  8  9  1  0
  5 10  1  0
 10 11  1  0
 11 12  2  0
 12 13  1  0
 13 14  2  0
 14 15  1  0
 15 16  1  0
 16 17  1  0
 17 18  1  0
 14 19  1  0
 19 20  2  0
 20 21  1  0
 21 22  2  0
 20 23  1  0
 23 24  2  0
 24 25  1  0
 25 26  2  0
 26 27  1  0
  8  3  1  0
 22 10  1  0
 27 23  1  0
 22 13  1  0
 18 16  1  0
  1 28  1  0
  2 29  1  0
  2 30  1  0
  3 31  1  1
  5 32  1  6
  6 33  1  6
  7 34  1  0
  8 35  1  1
  9 36  1  0
 11 37  1  0
 15 38  1  0
 16 39  1  0
 17 40  1  0
 17 41  1  0
 18 42  1  0
 18 43  1  0
 24 44  1  0
 25 45  1  0
 26 46  1  0
M  END
$$$$
[H]c1nc(N([H])c2c([H])c([H])c(S(=O)(=O)N([H])[H])c([H])c2[H])c2c([H])c(-c3c([H])c([H])c(N4C([H])([H])C([H])([H])N(C([H])([H])[H])C([H])([H])C4([H])[H])c([H])c3[H])sc2n1
     RDKit          3D

 57 61  0  0  0  0  0  0  0  0999 V2000
   -8.7915   -2.0333   -0.1836 C   0  0  0  0  0  0  0  0  0  0  0  0
   -8.0468   -1.0165    0.5331 N   0  0  0  0  0  0  0  0  0  0  0  0
   -7.7212    0.0709   -0.3278 C   0  0  0  0  0  0  0  0  0  0  0  0
   -6.5152    0.8203    0.1751 C   0  0  0  0  0  0  0  0  0  0  0  0
   -5.3718   -0.0572    0.3227 N   0  0  0  0  0  0  0  0  0  0  0  0
   -5.6322   -1.4524    0.5422 C   0  0  0  0  0  0  0  0  0  0  0  0
   -6.9575   -1.5414    1.2876 C   0  0  0  0  0  0  0  0  0  0  0  0
   -4.0406    0.4761    0.2521 C   0  0  0  0  0  0  0  0  0  0  0  0
   -3.7969    1.8227    0.1124 C   0  0  0  0  0  0  0  0  0  0  0  0
   -2.5136    2.3523    0.0407 C   0  0  0  0  0  0  0  0  0  0  0  0
   -1.4129    1.5257    0.1089 C   0  0  0  0  0  0  0  0  0  0  0  0
   -1.6575    0.1785    0.2487 C   0  0  0  0  0  0  0  0  0  0  0  0
   -2.9339   -0.3427    0.3194 C   0  0  0  0  0  0  0  0  0  0  0  0
   -0.0505    2.0521    0.0373 C   0  0  0  0  0  0  0  0  0  0  0  0
    1.1465    1.3855    0.0884 C   0  0  0  0  0  0  0  0  0  0  0  0
    2.2654    2.1143    0.0002 C   0  0  0  0  0  0  0  0  0  0  0  0
    3.6038    1.6329    0.0315 C   0  0  0  0  0  0  0  0  0  0  0  0
    3.8622    0.2596    0.1360 N   0  0  0  0  0  0  0  0  0  0  0  0
    5.1368   -0.3037    0.2079 C   0  0  0  0  0  0  0  0  0  0  0  0
    5.3028   -1.6184   -0.2710 C   0  0  0  0  0  0  0  0  0  0  0  0
    6.5163   -2.2538   -0.2084 C   0  0  0  0  0  0  0  0  0  0  0  0
    7.6386   -1.6545    0.3209 C   0  0  0  0  0  0  0  0  0  0  0  0
    7.4775   -0.3726    0.7886 C   0  0  0  0  0  0  0  0  0  0  0  0
    6.2451    0.2976    0.7353 C   0  0  0  0  0  0  0  0  0  0  0  0
    9.1743   -2.4845    0.3899 S   0  0  0  0  0  0  0  0  0  0  0  0
   10.0323   -2.1492   -1.0722 N   0  0  0  0  0  0  0  0  0  0  0  0
    8.9180   -3.9599    0.5412 O   0  0  0  0  0  0  0  0  0  0  0  0
    9.9230   -1.9280    1.5847 O   0  0  0  0  0  0  0  0  0  0  0  0
    4.5812    2.5252   -0.0707 N   0  0  0  0  0  0  0  0  0  0  0  0
    4.4458    3.8332   -0.2004 C   0  0  0  0  0  0  0  0  0  0  0  0
    3.2003    4.3223   -0.2337 N   0  0  0  0  0  0  0  0  0  0  0  0
    2.1304    3.4658   -0.1339 C   0  0  0  0  0  0  0  0  0  0  0  0
    0.4261    3.6743   -0.1322 S   0  0  0  0  0  0  0  0  0  0  0  0
   -9.8720   -1.8603   -0.0002 H   0  0  0  0  0  0  0  0  0  0  0  0
   -8.4738   -3.0568    0.1015 H   0  0  0  0  0  0  0  0  0  0  0  0
   -8.6255   -1.8544   -1.2716 H   0  0  0  0  0  0  0  0  0  0  0  0
   -7.5507   -0.1902   -1.3815 H   0  0  0  0  0  0  0  0  0  0  0  0
   -8.5689    0.8182   -0.3152 H   0  0  0  0  0  0  0  0  0  0  0  0
   -6.2482    1.5320   -0.6612 H   0  0  0  0  0  0  0  0  0  0  0  0
   -6.7016    1.3580    1.1288 H   0  0  0  0  0  0  0  0  0  0  0  0
   -4.8934   -1.9449    1.2133 H   0  0  0  0  0  0  0  0  0  0  0  0
   -5.7137   -2.0600   -0.3616 H   0  0  0  0  0  0  0  0  0  0  0  0
   -7.1939   -2.5735    1.5994 H   0  0  0  0  0  0  0  0  0  0  0  0
   -6.8394   -0.9138    2.2075 H   0  0  0  0  0  0  0  0  0  0  0  0
   -4.6316    2.5124    0.0558 H   0  0  0  0  0  0  0  0  0  0  0  0
   -2.3296    3.4107   -0.0689 H   0  0  0  0  0  0  0  0  0  0  0  0
   -0.7874   -0.4833    0.3034 H   0  0  0  0  0  0  0  0  0  0  0  0
   -3.0956   -1.4159    0.4297 H   0  0  0  0  0  0  0  0  0  0  0  0
    1.1030    0.2739    0.2011 H   0  0  0  0  0  0  0  0  0  0  0  0
    3.0353   -0.4238    0.1663 H   0  0  0  0  0  0  0  0  0  0  0  0
    4.4683   -2.1664   -0.7054 H   0  0  0  0  0  0  0  0  0  0  0  0
    6.6409   -3.2745   -0.5814 H   0  0  0  0  0  0  0  0  0  0  0  0
    8.3563    0.1172    1.2112 H   0  0  0  0  0  0  0  0  0  0  0  0
    6.2309    1.3041    1.1548 H   0  0  0  0  0  0  0  0  0  0  0  0
    9.3120   -2.0104   -1.8335 H   0  0  0  0  0  0  0  0  0  0  0  0
   10.5126   -1.2219   -0.9166 H   0  0  0  0  0  0  0  0  0  0  0  0
    5.2816    4.4824   -0.2765 H   0  0  0  0  0  0  0  0  0  0  0  0
  1  2  1  0
  2  3  1  0
  3  4  1  0
  4  5  1  0
  5  6  1  0
  6  7  1  0
  5  8  1  0
  8  9  2  0
  9 10  1  0
 10 11  2  0
 11 12  1  0
 12 13  2  0
 11 14  1  0
 14 15  2  0
 15 16  1  0
 16 17  2  0
 17 18  1  0
 18 19  1  0
 19 20  2  0
 20 21  1  0
 21 22  2  0
 22 23  1  0
 23 24  2  0
 22 25  1  0
 25 26  1  0
 25 27  2  0
 25 28  2  0
 17 29  1  0
 29 30  2  0
 30 31  1  0
 31 32  2  0
 32 33  1  0
  7  2  1  0
 13  8  1  0
 33 14  1  0
 32 16  1  0
 24 19  1  0
  1 34  1  0
  1 35  1  0
  1 36  1  0
  3 37  1  0
  3 38  1  0
  4 39  1  0
  4 40  1  0
  6 41  1  0
  6 42  1  0
  7 43  1  0
  7 44  1  0
  9 45  1  0
 10 46  1  0
 12 47  1  0
 13 48  1  0
 15 49  1  0
 18 50  1  0
 20 51  1  0
 21 52  1  0
 23 53  1  0
 24 54  1  0
 26 55  1  0
 26 56  1  0
 30 57  1  0
M  END
$$$$
[H]c1nc2c([H])c(OC([H])([H])C([H])([H])C([H])([H])N3C([H])([H])C([H])([H])OC([H])([H])C3([H])[H])c(OC([H])([H])[H])c([H])c2c(Oc2c([H])c([H])c(N([H])C(=O)c3c(F)c([H])c([H])c([H])c3F)c([H])c2F)c1[H]
     RDKit          3D

 69 73  0  0  0  0  0  0  0  0999 V2000
   -1.9921   -3.1908    0.1707 C   0  0  0  0  0  0  0  0  0  0  0  0
   -2.8403   -2.1656    0.6457 O   0  0  0  0  0  0  0  0  0  0  0  0
   -2.3233   -0.9183    0.9959 C   0  0  0  0  0  0  0  0  0  0  0  0
   -0.9865   -0.6930    0.8762 C   0  0  0  0  0  0  0  0  0  0  0  0
   -0.4390    0.5159    1.2086 C   0  0  0  0  0  0  0  0  0  0  0  0
    0.9423    0.7214    1.0771 C   0  0  0  0  0  0  0  0  0  0  0  0
    1.7123   -0.2872    0.6217 O   0  0  0  0  0  0  0  0  0  0  0  0
    3.0462   -0.3974    0.4349 C   0  0  0  0  0  0  0  0  0  0  0  0
    3.5645   -0.6044   -0.8202 C   0  0  0  0  0  0  0  0  0  0  0  0
    4.9529   -0.7179   -0.9931 C   0  0  0  0  0  0  0  0  0  0  0  0
    5.8382   -0.6306    0.0441 C   0  0  0  0  0  0  0  0  0  0  0  0
    7.2641   -0.7042   -0.0709 N   0  0  0  0  0  0  0  0  0  0  0  0
    7.9568   -0.2840   -1.1934 C   0  0  0  0  0  0  0  0  0  0  0  0
    7.2504    0.2013   -2.1492 O   0  0  0  0  0  0  0  0  0  0  0  0
    9.3910   -0.3189   -1.4351 C   0  0  0  0  0  0  0  0  0  0  0  0
   10.3237   -0.8326   -0.5793 C   0  0  0  0  0  0  0  0  0  0  0  0
    9.9431   -1.3811    0.6028 F   0  0  0  0  0  0  0  0  0  0  0  0
   11.6901   -0.8446   -0.8337 C   0  0  0  0  0  0  0  0  0  0  0  0
   12.1568   -0.3170   -2.0037 C   0  0  0  0  0  0  0  0  0  0  0  0
   11.2484    0.2098   -2.8918 C   0  0  0  0  0  0  0  0  0  0  0  0
    9.9088    0.2137   -2.6262 C   0  0  0  0  0  0  0  0  0  0  0  0
    9.0538    0.7372   -3.5185 F   0  0  0  0  0  0  0  0  0  0  0  0
    5.2922   -0.4194    1.3231 C   0  0  0  0  0  0  0  0  0  0  0  0
    3.9296   -0.3093    1.4887 C   0  0  0  0  0  0  0  0  0  0  0  0
    3.5260   -0.1213    2.7899 F   0  0  0  0  0  0  0  0  0  0  0  0
    1.4466    1.9453    1.4221 C   0  0  0  0  0  0  0  0  0  0  0  0
    0.5997    2.9421    1.8875 C   0  0  0  0  0  0  0  0  0  0  0  0
   -0.7248    2.7364    2.0110 N   0  0  0  0  0  0  0  0  0  0  0  0
   -1.2559    1.5235    1.6733 C   0  0  0  0  0  0  0  0  0  0  0  0
   -2.6239    1.3329    1.8098 C   0  0  0  0  0  0  0  0  0  0  0  0
   -3.1516    0.1068    1.4679 C   0  0  0  0  0  0  0  0  0  0  0  0
   -4.4777   -0.2269    1.5458 O   0  0  0  0  0  0  0  0  0  0  0  0
   -5.5903    0.4577    1.9088 C   0  0  0  0  0  0  0  0  0  0  0  0
   -5.9971    1.6411    1.0631 C   0  0  0  0  0  0  0  0  0  0  0  0
   -6.2869    1.2596   -0.3566 C   0  0  0  0  0  0  0  0  0  0  0  0
   -7.3475    0.3236   -0.5279 N   0  0  0  0  0  0  0  0  0  0  0  0
   -7.5673   -0.0294   -1.9157 C   0  0  0  0  0  0  0  0  0  0  0  0
   -8.4874   -1.1906   -2.0857 C   0  0  0  0  0  0  0  0  0  0  0  0
   -9.4043   -1.2933   -1.0385 O   0  0  0  0  0  0  0  0  0  0  0  0
   -9.7264   -0.0377   -0.5251 C   0  0  0  0  0  0  0  0  0  0  0  0
   -8.5560    0.6245    0.1707 C   0  0  0  0  0  0  0  0  0  0  0  0
   -2.5196   -4.1491    0.0780 H   0  0  0  0  0  0  0  0  0  0  0  0
   -1.1887   -3.3445    0.9428 H   0  0  0  0  0  0  0  0  0  0  0  0
   -1.4729   -2.8669   -0.7477 H   0  0  0  0  0  0  0  0  0  0  0  0
   -0.2859   -1.4460    0.5159 H   0  0  0  0  0  0  0  0  0  0  0  0
    2.9374   -0.6866   -1.7098 H   0  0  0  0  0  0  0  0  0  0  0  0
    5.2833   -0.9033   -2.0039 H   0  0  0  0  0  0  0  0  0  0  0  0
    7.7361   -1.1108    0.7845 H   0  0  0  0  0  0  0  0  0  0  0  0
   12.3379   -1.2675   -0.1040 H   0  0  0  0  0  0  0  0  0  0  0  0
   13.2071   -0.3051   -2.2418 H   0  0  0  0  0  0  0  0  0  0  0  0
   11.6652    0.6252   -3.8233 H   0  0  0  0  0  0  0  0  0  0  0  0
    5.9917   -0.3508    2.1417 H   0  0  0  0  0  0  0  0  0  0  0  0
    2.5026    2.1180    1.3165 H   0  0  0  0  0  0  0  0  0  0  0  0
    1.0428    3.9066    2.1530 H   0  0  0  0  0  0  0  0  0  0  0  0
   -3.2453    2.1277    2.1917 H   0  0  0  0  0  0  0  0  0  0  0  0
   -5.4400    0.8331    2.9673 H   0  0  0  0  0  0  0  0  0  0  0  0
   -6.4438   -0.2647    1.9844 H   0  0  0  0  0  0  0  0  0  0  0  0
   -5.1680    2.3573    1.0300 H   0  0  0  0  0  0  0  0  0  0  0  0
   -6.8397    2.2064    1.5327 H   0  0  0  0  0  0  0  0  0  0  0  0
   -5.3656    0.8360   -0.7940 H   0  0  0  0  0  0  0  0  0  0  0  0
   -6.5438    2.1883   -0.9067 H   0  0  0  0  0  0  0  0  0  0  0  0
   -7.9149    0.8782   -2.4451 H   0  0  0  0  0  0  0  0  0  0  0  0
   -6.5743   -0.3193   -2.3460 H   0  0  0  0  0  0  0  0  0  0  0  0
   -7.9188   -2.1329   -2.1787 H   0  0  0  0  0  0  0  0  0  0  0  0
   -9.0234   -1.0519   -3.0698 H   0  0  0  0  0  0  0  0  0  0  0  0
  -10.1551    0.6290   -1.3014 H   0  0  0  0  0  0  0  0  0  0  0  0
  -10.5305   -0.1883    0.2226 H   0  0  0  0  0  0  0  0  0  0  0  0
   -8.7289    1.7301    0.0581 H   0  0  0  0  0  0  0  0  0  0  0  0
   -8.6038    0.3742    1.2232 H   0  0  0  0  0  0  0  0  0  0  0  0
  1  2  1  0
  2  3  1  0
  3  4  2  0
  4  5  1  0
  5  6  2  0
  6  7  1  0
  7  8  1  0
  8  9  2  0
  9 10  1  0
 10 11  2  0
 11 12  1  0
 12 13  1  0
 13 14  2  0
 13 15  1  0
 15 16  2  0
 16 17  1  0
 16 18  1  0
 18 19  2  0
 19 20  1  0
 20 21  2  0
 21 22  1  0
 11 23  1  0
 23 24  2  0
 24 25  1  0
  6 26  1  0
 26 27  2  0
 27 28  1  0
 28 29  2  0
 29 30  1  0
 30 31  2  0
 31 32  1  0
 32 33  1  0
 33 34  1  0
 34 35  1  0
 35 36  1  0
 36 37  1  0
 37 38  1  0
 38 39  1  0
 39 40  1  0
 40 41  1  0
 31  3  1  0
 41 36  1  0
 29  5  1  0
 24  8  1  0
 21 15  1  0
  1 42  1  0
  1 43  1  0
  1 44  1  0
  4 45  1  0
  9 46  1  0
 10 47  1  0
 12 48  1  0
 18 49  1  0
 19 50  1  0
 20 51  1  0
 23 52  1  0
 26 53  1  0
 27 54  1  0
 30 55  1  0
 33 56  1  0
 33 57  1  0
 34 58  1  0
 34 59  1  0
 35 60  1  0
 35 61  1  0
 37 62  1  0
 37 63  1  0
 38 64  1  0
 38 65  1  0
 40 66  1  0
 40 67  1  0
 41 68  1  0
 41 69  1  0
M  END
$$$$
[H]Oc1c([H])c(C([H])([H])[H])c(C([H])([H])[C@@]([H])(C(=O)N2C([H])([H])c3c([H])c([H])c([H])c([H])c3C([H])([H])[C@@]2([H])C(=O)N([H])[C@]([H])(C(=O)N([H])[C@@]([H])(C(=O)N([H])[H])C([H])([H])c2c([H])c([H])c([H])c([H])c2[H])C([H])([H])c2c([H])c([H])c([H])c([H])c2[H])N([H])[H])c(C([H])([H])[H])c1[H]
     RDKit          3D

 92 96  0  0  0  0  0  0  0  0999 V2000
    6.3114    1.5733   -1.0752 C   0  0  0  0  0  0  0  0  0  0  0  0
    6.2520    1.7034    0.4120 C   0  0  0  0  0  0  0  0  0  0  0  0
    7.3072    2.3866    1.0012 C   0  0  0  0  0  0  0  0  0  0  0  0
    7.3467    2.5564    2.3876 C   0  0  0  0  0  0  0  0  0  0  0  0
    8.4015    3.2415    3.0022 O   0  0  0  0  0  0  0  0  0  0  0  0
    6.3419    2.0479    3.1645 C   0  0  0  0  0  0  0  0  0  0  0  0
    5.2869    1.3632    2.5570 C   0  0  0  0  0  0  0  0  0  0  0  0
    4.2595    0.8275    3.4855 C   0  0  0  0  0  0  0  0  0  0  0  0
    5.2284    1.1833    1.1747 C   0  0  0  0  0  0  0  0  0  0  0  0
    4.1172    0.4528    0.5638 C   0  0  0  0  0  0  0  0  0  0  0  0
    3.1469    1.3094   -0.2222 C   0  0  2  0  0  0  0  0  0  0  0  0
    2.6362    2.3070    0.7073 N   0  0  0  0  0  0  0  0  0  0  0  0
    2.0003    0.4153   -0.5703 C   0  0  0  0  0  0  0  0  0  0  0  0
    0.9795    0.5684    0.1908 O   0  0  0  0  0  0  0  0  0  0  0  0
    1.9675   -0.5199   -1.6087 N   0  0  0  0  0  0  0  0  0  0  0  0
    3.0625   -0.8251   -2.5263 C   0  0  0  0  0  0  0  0  0  0  0  0
    3.2811   -2.3253   -2.4751 C   0  0  0  0  0  0  0  0  0  0  0  0
    4.4107   -2.8179   -3.0478 C   0  0  0  0  0  0  0  0  0  0  0  0
    4.7079   -4.1565   -3.0501 C   0  0  0  0  0  0  0  0  0  0  0  0
    3.7994   -4.9974   -2.4370 C   0  0  0  0  0  0  0  0  0  0  0  0
    2.6526   -4.5038   -1.8554 C   0  0  0  0  0  0  0  0  0  0  0  0
    2.3679   -3.1325   -1.8645 C   0  0  0  0  0  0  0  0  0  0  0  0
    1.1065   -2.6694   -1.2159 C   0  0  0  0  0  0  0  0  0  0  0  0
    0.7831   -1.3380   -1.8406 C   0  0  1  0  0  0  0  0  0  0  0  0
   -0.4955   -0.7469   -1.5500 C   0  0  0  0  0  0  0  0  0  0  0  0
   -0.7170    0.4644   -1.8795 O   0  0  0  0  0  0  0  0  0  0  0  0
   -1.5581   -1.4347   -0.9000 N   0  0  0  0  0  0  0  0  0  0  0  0
   -2.8285   -0.7833   -0.6229 C   0  0  1  0  0  0  0  0  0  0  0  0
   -3.9938   -1.6339   -1.0483 C   0  0  0  0  0  0  0  0  0  0  0  0
   -4.0067   -1.9449   -2.4794 C   0  0  0  0  0  0  0  0  0  0  0  0
   -4.6654   -1.0891   -3.3497 C   0  0  0  0  0  0  0  0  0  0  0  0
   -4.6490   -1.4331   -4.6831 C   0  0  0  0  0  0  0  0  0  0  0  0
   -4.0166   -2.5660   -5.1615 C   0  0  0  0  0  0  0  0  0  0  0  0
   -3.3711   -3.3974   -4.2757 C   0  0  0  0  0  0  0  0  0  0  0  0
   -3.3725   -3.0778   -2.9400 C   0  0  0  0  0  0  0  0  0  0  0  0
   -2.8879   -0.5957    0.8475 C   0  0  0  0  0  0  0  0  0  0  0  0
   -2.2063   -1.3482    1.5766 O   0  0  0  0  0  0  0  0  0  0  0  0
   -3.6906    0.4121    1.4253 N   0  0  0  0  0  0  0  0  0  0  0  0
   -3.8218    0.6881    2.8287 C   0  0  2  0  0  0  0  0  0  0  0  0
   -5.2284    0.7406    3.3229 C   0  0  0  0  0  0  0  0  0  0  0  0
   -6.0762    1.7459    2.6676 C   0  0  0  0  0  0  0  0  0  0  0  0
   -6.1825    3.0131    3.1747 C   0  0  0  0  0  0  0  0  0  0  0  0
   -6.9816    3.9787    2.5647 C   0  0  0  0  0  0  0  0  0  0  0  0
   -7.6658    3.6224    1.4326 C   0  0  0  0  0  0  0  0  0  0  0  0
   -7.5725    2.3403    0.9001 C   0  0  0  0  0  0  0  0  0  0  0  0
   -6.7752    1.4193    1.5310 C   0  0  0  0  0  0  0  0  0  0  0  0
   -2.9923    1.8508    3.2178 C   0  0  0  0  0  0  0  0  0  0  0  0
   -2.9458    2.2630    4.5623 N   0  0  0  0  0  0  0  0  0  0  0  0
   -2.3352    2.4612    2.3561 O   0  0  0  0  0  0  0  0  0  0  0  0
    5.7880    2.4262   -1.5094 H   0  0  0  0  0  0  0  0  0  0  0  0
    5.9649    0.5783   -1.3965 H   0  0  0  0  0  0  0  0  0  0  0  0
    7.3655    1.6407   -1.4351 H   0  0  0  0  0  0  0  0  0  0  0  0
    8.1271    2.8110    0.4296 H   0  0  0  0  0  0  0  0  0  0  0  0
    8.2657    4.2497    3.1125 H   0  0  0  0  0  0  0  0  0  0  0  0
    6.3790    2.1826    4.2295 H   0  0  0  0  0  0  0  0  0  0  0  0
    4.6674    0.7626    4.5320 H   0  0  0  0  0  0  0  0  0  0  0  0
    4.0486   -0.2557    3.2425 H   0  0  0  0  0  0  0  0  0  0  0  0
    3.3063    1.3552    3.4539 H   0  0  0  0  0  0  0  0  0  0  0  0
    4.5526   -0.3832   -0.0137 H   0  0  0  0  0  0  0  0  0  0  0  0
    3.4904   -0.0375    1.3434 H   0  0  0  0  0  0  0  0  0  0  0  0
    3.5260    1.7852   -1.1036 H   0  0  0  0  0  0  0  0  0  0  0  0
    3.3901    2.8250    1.2029 H   0  0  0  0  0  0  0  0  0  0  0  0
    1.9628    2.9712    0.2470 H   0  0  0  0  0  0  0  0  0  0  0  0
    2.8072   -0.5996   -3.5812 H   0  0  0  0  0  0  0  0  0  0  0  0
    4.0059   -0.3639   -2.2960 H   0  0  0  0  0  0  0  0  0  0  0  0
    5.1067   -2.1411   -3.5200 H   0  0  0  0  0  0  0  0  0  0  0  0
    5.6106   -4.5883   -3.5037 H   0  0  0  0  0  0  0  0  0  0  0  0
    4.0486   -6.0679   -2.4414 H   0  0  0  0  0  0  0  0  0  0  0  0
    1.9834   -5.2169   -1.3917 H   0  0  0  0  0  0  0  0  0  0  0  0
    0.2836   -3.3885   -1.4362 H   0  0  0  0  0  0  0  0  0  0  0  0
    1.2752   -2.5269   -0.1301 H   0  0  0  0  0  0  0  0  0  0  0  0
    0.8413   -1.5813   -2.9789 H   0  0  0  0  0  0  0  0  0  0  0  0
   -1.4292   -2.4146   -0.6153 H   0  0  0  0  0  0  0  0  0  0  0  0
   -2.8912    0.2006   -1.1422 H   0  0  0  0  0  0  0  0  0  0  0  0
   -3.8833   -2.6022   -0.4981 H   0  0  0  0  0  0  0  0  0  0  0  0
   -4.9590   -1.1673   -0.7925 H   0  0  0  0  0  0  0  0  0  0  0  0
   -5.1671   -0.2007   -3.0166 H   0  0  0  0  0  0  0  0  0  0  0  0
   -5.1656   -0.7621   -5.3746 H   0  0  0  0  0  0  0  0  0  0  0  0
   -4.0530   -2.7593   -6.2388 H   0  0  0  0  0  0  0  0  0  0  0  0
   -2.8737   -4.2835   -4.6104 H   0  0  0  0  0  0  0  0  0  0  0  0
   -2.8436   -3.7740   -2.2694 H   0  0  0  0  0  0  0  0  0  0  0  0
   -4.2510    1.0292    0.7753 H   0  0  0  0  0  0  0  0  0  0  0  0
   -3.3400   -0.1821    3.3973 H   0  0  0  0  0  0  0  0  0  0  0  0
   -5.7098   -0.2810    3.3111 H   0  0  0  0  0  0  0  0  0  0  0  0
   -5.2152    1.0170    4.4127 H   0  0  0  0  0  0  0  0  0  0  0  0
   -5.6792    3.3638    4.0702 H   0  0  0  0  0  0  0  0  0  0  0  0
   -7.0654    4.9962    2.9669 H   0  0  0  0  0  0  0  0  0  0  0  0
   -8.2927    4.3758    0.9529 H   0  0  0  0  0  0  0  0  0  0  0  0
   -8.1336    2.1119    0.0054 H   0  0  0  0  0  0  0  0  0  0  0  0
   -6.7352    0.4309    1.0810 H   0  0  0  0  0  0  0  0  0  0  0  0
   -3.5978    1.9088    5.3000 H   0  0  0  0  0  0  0  0  0  0  0  0
   -2.2296    2.9568    4.8536 H   0  0  0  0  0  0  0  0  0  0  0  0
  1  2  1  0
  2  3  2  0
  3  4  1  0
  4  5  1  0
  4  6  2  0
  6  7  1  0
  7  8  1  0
  7  9  2  0
  9 10  1  0
 10 11  1  0
 11 12  1  0
 11 13  1  0
 13 14  2  0
 13 15  1  0
 15 16  1  0
 16 17  1  0
 17 18  2  0
 18 19  1  0
 19 20  2  0
 20 21  1  0
 21 22  2  0
 22 23  1  0
 23 24  1  0
 24 25  1  0
 25 26  2  0
 25 27  1  0
 27 28  1  0
 28 29  1  0
 29 30  1  0
 30 31  2  0
 31 32  1  0
 32 33  2  0
 33 34  1  0
 34 35  2  0
 28 36  1  0
 36 37  2  0
 36 38  1  0
 38 39  1  0
 39 40  1  0
 40 41  1  0
 41 42  2  0
 42 43  1  0
 43 44  2  0
 44 45  1  0
 45 46  2  0
 39 47  1  0
 47 48  1  0
 47 49  2  0
  9  2  1  0
 24 15  1  0
 35 30  1  0
 46 41  1  0
 22 17  1  0
  1 50  1  0
  1 51  1  0
  1 52  1  0
  3 53  1  0
  5 54  1  0
  6 55  1  0
  8 56  1  0
  8 57  1  0
  8 58  1  0
 10 59  1  0
 10 60  1  0
 11 61  1  6
 12 62  1  0
 12 63  1  0
 16 64  1  0
 16 65  1  0
 18 66  1  0
 19 67  1  0
 20 68  1  0
 21 69  1  0
 23 70  1  0
 23 71  1  0
 24 72  1  6
 27 73  1  0
 28 74  1  6
 29 75  1  0
 29 76  1  0
 31 77  1  0
 32 78  1  0
 33 79  1  0
 34 80  1  0
 35 81  1  0
 38 82  1  0
 39 83  1  1
 40 84  1  0
 40 85  1  0
 42 86  1  0
 43 87  1  0
 44 88  1  0
 45 89  1  0
 46 90  1  0
 48 91  1  0
 48 92  1  0
M  END
$$$$
[H]c1nc(N([H])c2c([H])c([H])c(N3C([H])([H])C([H])([H])N(C([H])([H])[H])C([H])([H])C3([H])[H])c([H])c2OC([H])([H])[H])nc(N([H])c2c([H])c([H])c([H])c([H])c2S(=O)(=O)C([H])(C([H])([H])[H])C([H])([H])[H])c1Cl
     RDKit          3D

 67 70  0  0  0  0  0  0  0  0999 V2000
    2.7980   -3.3310   -1.2288 C   0  0  0  0  0  0  0  0  0  0  0  0
    1.9415   -2.2352   -0.9986 O   0  0  0  0  0  0  0  0  0  0  0  0
    2.4816   -1.0407   -0.5265 C   0  0  0  0  0  0  0  0  0  0  0  0
    3.8274   -0.9244   -0.2865 C   0  0  0  0  0  0  0  0  0  0  0  0
    4.4213    0.2145    0.1751 C   0  0  0  0  0  0  0  0  0  0  0  0
    3.5861    1.2917    0.4024 C   0  0  0  0  0  0  0  0  0  0  0  0
    2.2085    1.1836    0.1606 C   0  0  0  0  0  0  0  0  0  0  0  0
    1.6255    0.0523   -0.2972 C   0  0  0  0  0  0  0  0  0  0  0  0
    0.2667   -0.0963   -0.5497 N   0  0  0  0  0  0  0  0  0  0  0  0
   -0.7485    0.8732   -0.3847 C   0  0  0  0  0  0  0  0  0  0  0  0
   -0.5976    2.1249    0.0475 N   0  0  0  0  0  0  0  0  0  0  0  0
   -1.5696    3.0148    0.1930 C   0  0  0  0  0  0  0  0  0  0  0  0
   -2.8553    2.6370   -0.1234 C   0  0  0  0  0  0  0  0  0  0  0  0
   -4.1874    3.7633    0.0449 Cl  0  0  0  0  0  0  0  0  0  0  0  0
   -3.1059    1.3214   -0.5915 C   0  0  0  0  0  0  0  0  0  0  0  0
   -4.4442    0.9705   -0.8839 N   0  0  0  0  0  0  0  0  0  0  0  0
   -4.8563   -0.2771   -1.3763 C   0  0  0  0  0  0  0  0  0  0  0  0
   -4.0250   -1.2445   -1.8945 C   0  0  0  0  0  0  0  0  0  0  0  0
   -4.4990   -2.4531   -2.4340 C   0  0  0  0  0  0  0  0  0  0  0  0
   -5.8636   -2.6532   -2.4324 C   0  0  0  0  0  0  0  0  0  0  0  0
   -6.7143   -1.7053   -1.9218 C   0  0  0  0  0  0  0  0  0  0  0  0
   -6.2437   -0.5196   -1.3917 C   0  0  0  0  0  0  0  0  0  0  0  0
   -7.3164    0.6608   -0.6987 S   0  0  0  0  0  0  0  0  0  0  0  0
   -7.3933    1.9371   -1.4847 O   0  0  0  0  0  0  0  0  0  0  0  0
   -8.7283    0.0574   -0.8397 O   0  0  0  0  0  0  0  0  0  0  0  0
   -7.0890    0.8939    1.0249 C   0  0  0  0  0  0  0  0  0  0  0  0
   -7.3480   -0.4235    1.7701 C   0  0  0  0  0  0  0  0  0  0  0  0
   -8.1301    1.8608    1.6013 C   0  0  0  0  0  0  0  0  0  0  0  0
   -2.0417    0.5457   -0.6857 N   0  0  0  0  0  0  0  0  0  0  0  0
    5.8136    0.2932    0.3958 N   0  0  0  0  0  0  0  0  0  0  0  0
    6.4498    1.3219    1.2076 C   0  0  0  0  0  0  0  0  0  0  0  0
    7.4716    0.7173    2.1500 C   0  0  0  0  0  0  0  0  0  0  0  0
    8.2281   -0.3570    1.5914 N   0  0  0  0  0  0  0  0  0  0  0  0
    9.2895    0.0606    0.7233 C   0  0  0  0  0  0  0  0  0  0  0  0
    7.3758   -1.3808    0.9847 C   0  0  0  0  0  0  0  0  0  0  0  0
    6.7127   -0.6643   -0.2033 C   0  0  0  0  0  0  0  0  0  0  0  0
    2.1978   -4.1742   -1.5940 H   0  0  0  0  0  0  0  0  0  0  0  0
    3.3465   -3.6080   -0.3147 H   0  0  0  0  0  0  0  0  0  0  0  0
    3.5586   -2.9887   -1.9679 H   0  0  0  0  0  0  0  0  0  0  0  0
    4.4382   -1.8245   -0.4810 H   0  0  0  0  0  0  0  0  0  0  0  0
    4.0232    2.2148    0.7675 H   0  0  0  0  0  0  0  0  0  0  0  0
    1.6829    2.0994    0.3817 H   0  0  0  0  0  0  0  0  0  0  0  0
   -0.0953   -1.0472   -0.9152 H   0  0  0  0  0  0  0  0  0  0  0  0
   -1.3686    4.0319    0.5559 H   0  0  0  0  0  0  0  0  0  0  0  0
   -5.1553    1.7451   -0.7241 H   0  0  0  0  0  0  0  0  0  0  0  0
   -2.9519   -1.1300   -1.9331 H   0  0  0  0  0  0  0  0  0  0  0  0
   -3.8051   -3.1751   -2.8254 H   0  0  0  0  0  0  0  0  0  0  0  0
   -6.2117   -3.5899   -2.8525 H   0  0  0  0  0  0  0  0  0  0  0  0
   -7.7729   -1.8830   -1.9315 H   0  0  0  0  0  0  0  0  0  0  0  0
   -6.0945    1.2164    1.2893 H   0  0  0  0  0  0  0  0  0  0  0  0
   -7.0459   -0.2515    2.8164 H   0  0  0  0  0  0  0  0  0  0  0  0
   -6.7761   -1.2538    1.3513 H   0  0  0  0  0  0  0  0  0  0  0  0
   -8.4409   -0.6809    1.6975 H   0  0  0  0  0  0  0  0  0  0  0  0
   -8.1469    1.6683    2.6953 H   0  0  0  0  0  0  0  0  0  0  0  0
   -7.8558    2.8834    1.3399 H   0  0  0  0  0  0  0  0  0  0  0  0
   -9.1318    1.5480    1.2224 H   0  0  0  0  0  0  0  0  0  0  0  0
    5.6986    1.8496    1.8178 H   0  0  0  0  0  0  0  0  0  0  0  0
    6.9306    2.0340    0.5190 H   0  0  0  0  0  0  0  0  0  0  0  0
    6.9661    0.3984    3.0955 H   0  0  0  0  0  0  0  0  0  0  0  0
    8.1853    1.5113    2.4512 H   0  0  0  0  0  0  0  0  0  0  0  0
    9.0845    1.0803    0.3255 H   0  0  0  0  0  0  0  0  0  0  0  0
   10.2479    0.0559    1.3173 H   0  0  0  0  0  0  0  0  0  0  0  0
    9.3924   -0.6645   -0.1011 H   0  0  0  0  0  0  0  0  0  0  0  0
    6.5706   -1.6106    1.6897 H   0  0  0  0  0  0  0  0  0  0  0  0
    7.9791   -2.2304    0.6689 H   0  0  0  0  0  0  0  0  0  0  0  0
    6.2815   -1.3420   -0.9293 H   0  0  0  0  0  0  0  0  0  0  0  0
    7.5281   -0.0532   -0.6714 H   0  0  0  0  0  0  0  0  0  0  0  0
  1  2  1  0
  2  3  1  0
  3  4  2  0
  4  5  1  0
  5  6  2  0
  6  7  1  0
  7  8  2  0
  8  9  1  0
  9 10  1  0
 10 11  2  0
 11 12  1  0
 12 13  2  0
 13 14  1  0
 13 15  1  0
 15 16  1  0
 16 17  1  0
 17 18  2  0
 18 19  1  0
 19 20  2  0
 20 21  1  0
 21 22  2  0
 22 23  1  0
 23 24  2  0
 23 25  2  0
 23 26  1  0
 26 27  1  0
 26 28  1  0
 15 29  2  0
  5 30  1  0
 30 31  1  0
 31 32  1  0
 32 33  1  0
 33 34  1  0
 33 35  1  0
 35 36  1  0
  8  3  1  0
 29 10  1  0
 36 30  1  0
 22 17  1  0
  1 37  1  0
  1 38  1  0
  1 39  1  0
  4 40  1  0
  6 41  1  0
  7 42  1  0
  9 43  1  0
 12 44  1  0
 16 45  1  0
 18 46  1  0
 19 47  1  0
 20 48  1  0
 21 49  1  0
 26 50  1  0
 27 51  1  0
 27 52  1  0
 27 53  1  0
 28 54  1  0
 28 55  1  0
 28 56  1  0
 31 57  1  0
 31 58  1  0
 32 59  1  0
 32 60  1  0
 34 61  1  0
 34 62  1  0
 34 63  1  0
 35 64  1  0
 35 65  1  0
 36 66  1  0
 36 67  1  0
M  END
$$$$
[H]c1c([H])c(S(=O)(=O)N2C([H])([H])[C@@]3([H])[C@]([H])(N(C([H])([H])[H])C([H])([H])[H])C([H])([H])[C@@]3([H])C2([H])[H])c([H])c([H])c1C([H])([H])[H]
     RDKit          3D

 42 44  0  0  0  0  0  0  0  0999 V2000
    5.8303   -2.2286    1.1572 C   0  0  0  0  0  0  0  0  0  0  0  0
    4.7100   -1.2374    0.9874 C   0  0  0  0  0  0  0  0  0  0  0  0
    4.1571   -1.0183   -0.2521 C   0  0  0  0  0  0  0  0  0  0  0  0
    3.1310   -0.1261   -0.4732 C   0  0  0  0  0  0  0  0  0  0  0  0
    2.6316    0.5827    0.5959 C   0  0  0  0  0  0  0  0  0  0  0  0
    3.1814    0.3670    1.8384 C   0  0  0  0  0  0  0  0  0  0  0  0
    4.2192   -0.5327    2.0730 C   0  0  0  0  0  0  0  0  0  0  0  0
    1.3535    1.7241    0.4445 S   0  0  0  0  0  0  0  0  0  0  0  0
    1.5804    2.8152    1.4721 O   0  0  0  0  0  0  0  0  0  0  0  0
    1.4389    2.3627   -0.9141 O   0  0  0  0  0  0  0  0  0  0  0  0
   -0.2072    1.0683    0.6362 N   0  0  0  0  0  0  0  0  0  0  0  0
   -0.5727    0.0826   -0.3054 C   0  0  0  0  0  0  0  0  0  0  0  0
   -1.8897    0.4951   -0.8699 C   0  0  1  0  0  0  0  0  0  0  0  0
   -3.1088    0.2678    0.0017 C   0  0  1  0  0  0  0  0  0  0  0  0
   -3.5258    1.6708   -0.3474 C   0  0  0  0  0  0  0  0  0  0  0  0
   -2.0528    1.9705   -0.5389 C   0  0  1  0  0  0  0  0  0  0  0  0
   -1.2351    2.0728    0.7178 C   0  0  0  0  0  0  0  0  0  0  0  0
   -3.9095   -0.8001   -0.4275 N   0  0  0  0  0  0  0  0  0  0  0  0
   -4.5080   -0.7179   -1.6999 C   0  0  0  0  0  0  0  0  0  0  0  0
   -3.2014   -2.0514   -0.2807 C   0  0  0  0  0  0  0  0  0  0  0  0
    6.6271   -2.0540    0.3920 H   0  0  0  0  0  0  0  0  0  0  0  0
    5.4170   -3.2410    0.9860 H   0  0  0  0  0  0  0  0  0  0  0  0
    6.2590   -2.0922    2.1657 H   0  0  0  0  0  0  0  0  0  0  0  0
    4.5458   -1.5762   -1.1096 H   0  0  0  0  0  0  0  0  0  0  0  0
    2.7183    0.0166   -1.4901 H   0  0  0  0  0  0  0  0  0  0  0  0
    2.8286    0.9001    2.7329 H   0  0  0  0  0  0  0  0  0  0  0  0
    4.6454   -0.6962    3.0520 H   0  0  0  0  0  0  0  0  0  0  0  0
   -0.7404   -0.9086    0.2042 H   0  0  0  0  0  0  0  0  0  0  0  0
    0.1369   -0.0264   -1.1523 H   0  0  0  0  0  0  0  0  0  0  0  0
   -2.0573    0.2532   -1.9416 H   0  0  0  0  0  0  0  0  0  0  0  0
   -2.7985    0.2496    1.0769 H   0  0  0  0  0  0  0  0  0  0  0  0
   -4.0503    1.8238   -1.2873 H   0  0  0  0  0  0  0  0  0  0  0  0
   -4.0157    2.2369    0.4671 H   0  0  0  0  0  0  0  0  0  0  0  0
   -1.8093    2.6732   -1.3465 H   0  0  0  0  0  0  0  0  0  0  0  0
   -0.7403    3.0573    0.7797 H   0  0  0  0  0  0  0  0  0  0  0  0
   -1.8644    1.9710    1.6245 H   0  0  0  0  0  0  0  0  0  0  0  0
   -4.1227    0.0883   -2.3561 H   0  0  0  0  0  0  0  0  0  0  0  0
   -5.6329   -0.6262   -1.6495 H   0  0  0  0  0  0  0  0  0  0  0  0
   -4.3357   -1.6645   -2.2530 H   0  0  0  0  0  0  0  0  0  0  0  0
   -3.9022   -2.9213   -0.3817 H   0  0  0  0  0  0  0  0  0  0  0  0
   -2.7477   -2.0888    0.7526 H   0  0  0  0  0  0  0  0  0  0  0  0
   -2.3834   -2.1416   -1.0229 H   0  0  0  0  0  0  0  0  0  0  0  0
  1  2  1  0
  2  3  2  0
  3  4  1  0
  4  5  2  0
  5  6  1  0
  6  7  2  0
  5  8  1  0
  8  9  2  0
  8 10  2  0
  8 11  1  0
 11 12  1  0
 12 13  1  0
 13 14  1  0
 14 15  1  0
 15 16  1  0
 16 17  1  0
 14 18  1  0
 18 19  1  0
 18 20  1  0
  7  2  1  0
 17 11  1  0
 16 13  1  0
  1 21  1  0
  1 22  1  0
  1 23  1  0
  3 24  1  0
  4 25  1  0
  6 26  1  0
  7 27  1  0
 12 28  1  0
 12 29  1  0
 13 30  1  6
 14 31  1  1
 15 32  1  0
 15 33  1  0
 16 34  1  6
 17 35  1  0
 17 36  1  0
 19 37  1  0
 19 38  1  0
 19 39  1  0
 20 40  1  0
 20 41  1  0
 20 42  1  0
M  END
$$$$
[H]Oc1c([H])c([H])c(C([H])([H])[C@@]([H])(C(=O)N([H])[C@]([H])(C(=O)N([H])[H])C([H])([H])c2c([H])c([H])c([H])c([H])c2[H])N([H])C(=O)[C@@]([H])(N([H])C(=O)[C@@]([H])(N([H])[H])C([H])([H])C([H])(C([H])([H])[H])C([H])([H])[H])C([H])([H])c2c([H])c([H])c(O[H])c([H])c2[H])c([H])c1[H]
     RDKit          3D

 85 87  0  0  0  0  0  0  0  0999 V2000
    6.9376   -3.5321   -1.5437 C   0  0  0  0  0  0  0  0  0  0  0  0
    7.0013   -2.3092   -0.6496 C   0  0  0  0  0  0  0  0  0  0  0  0
    7.7152   -1.1521   -1.3478 C   0  0  0  0  0  0  0  0  0  0  0  0
    5.6743   -1.9362   -0.0899 C   0  0  0  0  0  0  0  0  0  0  0  0
    4.6388   -1.5995   -1.1494 C   0  0  2  0  0  0  0  0  0  0  0  0
    5.1398   -0.4638   -1.9125 N   0  0  0  0  0  0  0  0  0  0  0  0
    3.3127   -1.3794   -0.5794 C   0  0  0  0  0  0  0  0  0  0  0  0
    2.5788   -2.3594   -0.3133 O   0  0  0  0  0  0  0  0  0  0  0  0
    2.7935   -0.0852   -0.2990 N   0  0  0  0  0  0  0  0  0  0  0  0
    1.4822    0.1086    0.2431 C   0  0  1  0  0  0  0  0  0  0  0  0
    1.5568    0.2239    1.7754 C   0  0  0  0  0  0  0  0  0  0  0  0
    2.3982    1.3639    2.1922 C   0  0  0  0  0  0  0  0  0  0  0  0
    1.8879    2.6330    2.4448 C   0  0  0  0  0  0  0  0  0  0  0  0
    2.7121    3.6612    2.8204 C   0  0  0  0  0  0  0  0  0  0  0  0
    4.0538    3.4233    2.9456 C   0  0  0  0  0  0  0  0  0  0  0  0
    4.9644    4.4200    3.3231 O   0  0  0  0  0  0  0  0  0  0  0  0
    4.5810    2.1744    2.7003 C   0  0  0  0  0  0  0  0  0  0  0  0
    3.7630    1.1592    2.3294 C   0  0  0  0  0  0  0  0  0  0  0  0
    0.9545    1.4516   -0.2028 C   0  0  0  0  0  0  0  0  0  0  0  0
    1.8563    2.2498   -0.5584 O   0  0  0  0  0  0  0  0  0  0  0  0
   -0.3836    1.7089   -0.1870 N   0  0  0  0  0  0  0  0  0  0  0  0
   -1.7205    1.9678   -0.1718 C   0  0  1  0  0  0  0  0  0  0  0  0
   -2.2067    2.5942   -1.4693 C   0  0  0  0  0  0  0  0  0  0  0  0
   -1.9650    1.8472   -2.6832 C   0  0  0  0  0  0  0  0  0  0  0  0
   -0.7347    1.9524   -3.3372 C   0  0  0  0  0  0  0  0  0  0  0  0
   -0.4722    1.3067   -4.5276 C   0  0  0  0  0  0  0  0  0  0  0  0
   -1.4494    0.5218   -5.1127 C   0  0  0  0  0  0  0  0  0  0  0  0
   -1.1775   -0.1299   -6.3247 O   0  0  0  0  0  0  0  0  0  0  0  0
   -2.6567    0.4065   -4.4894 C   0  0  0  0  0  0  0  0  0  0  0  0
   -2.9048    1.0660   -3.2875 C   0  0  0  0  0  0  0  0  0  0  0  0
   -2.4879    0.8343    0.3337 C   0  0  0  0  0  0  0  0  0  0  0  0
   -1.9100   -0.1924    0.8418 O   0  0  0  0  0  0  0  0  0  0  0  0
   -3.8995    0.7775    0.3072 N   0  0  0  0  0  0  0  0  0  0  0  0
   -4.5796   -0.3962    0.8889 C   0  0  1  0  0  0  0  0  0  0  0  0
   -5.7473    0.1465    1.6413 C   0  0  0  0  0  0  0  0  0  0  0  0
   -6.6051   -0.8128    2.3189 C   0  0  0  0  0  0  0  0  0  0  0  0
   -6.3477   -1.2366    3.5923 C   0  0  0  0  0  0  0  0  0  0  0  0
   -7.1618   -2.1194    4.2377 C   0  0  0  0  0  0  0  0  0  0  0  0
   -8.2664   -2.5923    3.5926 C   0  0  0  0  0  0  0  0  0  0  0  0
   -8.5604   -2.1880    2.3052 C   0  0  0  0  0  0  0  0  0  0  0  0
   -7.7329   -1.3091    1.6870 C   0  0  0  0  0  0  0  0  0  0  0  0
   -4.9249   -1.4107   -0.0996 C   0  0  0  0  0  0  0  0  0  0  0  0
   -5.3888   -2.7155    0.2794 N   0  0  0  0  0  0  0  0  0  0  0  0
   -4.8328   -1.2113   -1.3338 O   0  0  0  0  0  0  0  0  0  0  0  0
    7.9366   -4.0392   -1.5973 H   0  0  0  0  0  0  0  0  0  0  0  0
    6.2170   -4.2714   -1.1750 H   0  0  0  0  0  0  0  0  0  0  0  0
    6.7064   -3.2635   -2.6053 H   0  0  0  0  0  0  0  0  0  0  0  0
    7.6600   -2.5821    0.2015 H   0  0  0  0  0  0  0  0  0  0  0  0
    7.5671   -1.1496   -2.4259 H   0  0  0  0  0  0  0  0  0  0  0  0
    8.8337   -1.2671   -1.2132 H   0  0  0  0  0  0  0  0  0  0  0  0
    7.4586   -0.2262   -0.8225 H   0  0  0  0  0  0  0  0  0  0  0  0
    5.8552   -1.0414    0.5777 H   0  0  0  0  0  0  0  0  0  0  0  0
    5.2902   -2.7272    0.5777 H   0  0  0  0  0  0  0  0  0  0  0  0
    4.6795   -2.4801   -1.8601 H   0  0  0  0  0  0  0  0  0  0  0  0
    4.5147   -0.3923   -2.7592 H   0  0  0  0  0  0  0  0  0  0  0  0
    5.1614    0.3900   -1.3412 H   0  0  0  0  0  0  0  0  0  0  0  0
    3.3643    0.7721   -0.4780 H   0  0  0  0  0  0  0  0  0  0  0  0
    0.8148   -0.6917   -0.0119 H   0  0  0  0  0  0  0  0  0  0  0  0
    1.8311   -0.7152    2.2597 H   0  0  0  0  0  0  0  0  0  0  0  0
    0.5285    0.4624    2.1095 H   0  0  0  0  0  0  0  0  0  0  0  0
    0.8205    2.8288    2.3494 H   0  0  0  0  0  0  0  0  0  0  0  0
    2.3313    4.6420    3.0196 H   0  0  0  0  0  0  0  0  0  0  0  0
    5.3548    4.9344    2.5179 H   0  0  0  0  0  0  0  0  0  0  0  0
    5.6382    1.9419    2.7865 H   0  0  0  0  0  0  0  0  0  0  0  0
    4.1385    0.1719    2.1307 H   0  0  0  0  0  0  0  0  0  0  0  0
   -0.1602    3.0252   -0.5503 H   0  0  0  0  0  0  0  0  0  0  0  0
   -1.9550    2.8756    0.5556 H   0  0  0  0  0  0  0  0  0  0  0  0
   -1.6931    3.6120   -1.4956 H   0  0  0  0  0  0  0  0  0  0  0  0
   -3.2944    2.8742   -1.3648 H   0  0  0  0  0  0  0  0  0  0  0  0
    0.0375    2.5595   -2.9176 H   0  0  0  0  0  0  0  0  0  0  0  0
    0.4775    1.3930   -5.0254 H   0  0  0  0  0  0  0  0  0  0  0  0
   -0.7862   -1.0518   -6.3731 H   0  0  0  0  0  0  0  0  0  0  0  0
   -3.4167   -0.2156   -4.9641 H   0  0  0  0  0  0  0  0  0  0  0  0
   -3.8954    0.9296   -2.8687 H   0  0  0  0  0  0  0  0  0  0  0  0
   -4.5149    1.5028   -0.0947 H   0  0  0  0  0  0  0  0  0  0  0  0
   -3.8657   -0.8711    1.6151 H   0  0  0  0  0  0  0  0  0  0  0  0
   -5.3430    0.8358    2.4431 H   0  0  0  0  0  0  0  0  0  0  0  0
   -6.3736    0.8294    0.9877 H   0  0  0  0  0  0  0  0  0  0  0  0
   -5.4669   -0.8499    4.1022 H   0  0  0  0  0  0  0  0  0  0  0  0
   -6.9052   -2.4191    5.2481 H   0  0  0  0  0  0  0  0  0  0  0  0
   -8.9244   -3.2884    4.0779 H   0  0  0  0  0  0  0  0  0  0  0  0
   -9.4356   -2.5479    1.7665 H   0  0  0  0  0  0  0  0  0  0  0  0
   -7.9428   -0.9794    0.6779 H   0  0  0  0  0  0  0  0  0  0  0  0
   -5.9888   -3.2600   -0.3800 H   0  0  0  0  0  0  0  0  0  0  0  0
   -5.1416   -3.1179    1.1892 H   0  0  0  0  0  0  0  0  0  0  0  0
  1  2  1  0
  2  3  1  0
  2  4  1  0
  4  5  1  0
  5  6  1  0
  5  7  1  0
  7  8  2  0
  7  9  1  0
  9 10  1  0
 10 11  1  0
 11 12  1  0
 12 13  2  0
 13 14  1  0
 14 15  2  0
 15 16  1  0
 15 17  1  0
 17 18  2  0
 10 19  1  0
 19 20  2  0
 19 21  1  0
 21 22  1  0
 22 23  1  0
 23 24  1  0
 24 25  2  0
 25 26  1  0
 26 27  2  0
 27 28  1  0
 27 29  1  0
 29 30  2  0
 22 31  1  0
 31 32  2  0
 31 33  1  0
 33 34  1  0
 34 35  1  0
 35 36  1  0
 36 37  2  0
 37 38  1  0
 38 39  2  0
 39 40  1  0
 40 41  2  0
 34 42  1  0
 42 43  1  0
 42 44  2  0
 18 12  1  0
 30 24  1  0
 41 36  1  0
  1 45  1  0
  1 46  1  0
  1 47  1  0
  2 48  1  0
  3 49  1  0
  3 50  1  0
  3 51  1  0
  4 52  1  0
  4 53  1  0
  5 54  1  6
  6 55  1  0
  6 56  1  0
  9 57  1  0
 10 58  1  1
 11 59  1  0
 11 60  1  0
 13 61  1  0
 14 62  1  0
 16 63  1  0
 17 64  1  0
 18 65  1  0
 21 66  1  0
 22 67  1  1
 23 68  1  0
 23 69  1  0
 25 70  1  0
 26 71  1  0
 28 72  1  0
 29 73  1  0
 30 74  1  0
 33 75  1  0
 34 76  1  1
 35 77  1  0
 35 78  1  0
 37 79  1  0
 38 80  1  0
 39 81  1  0
 40 82  1  0
 41 83  1  0
 43 84  1  0
 43 85  1  0
M  END
$$$$
[H]c1nc(N([H])c2c([H])c([H])c(N3C([H])([H])C([H])([H])C(F)(F)C([H])([H])C3([H])[H])c([H])c2OC([H])([H])[H])nc(N([H])c2c([H])c([H])c([H])c([H])c2S(=O)(=O)C(F)(F)F)c1Cl
     RDKit          3D

 59 62  0  0  0  0  0  0  0  0999 V2000
    1.5725    3.7241    0.8747 C   0  0  0  0  0  0  0  0  0  0  0  0
    1.0330    2.4753    0.5730 O   0  0  0  0  0  0  0  0  0  0  0  0
    1.7668    1.2934    0.6576 C   0  0  0  0  0  0  0  0  0  0  0  0
    3.0785    1.3927    1.0587 C   0  0  0  0  0  0  0  0  0  0  0  0
    3.9296    0.3151    1.1902 C   0  0  0  0  0  0  0  0  0  0  0  0
    3.3889   -0.9203    0.8900 C   0  0  0  0  0  0  0  0  0  0  0  0
    2.0513   -1.0382    0.4790 C   0  0  0  0  0  0  0  0  0  0  0  0
    1.2153    0.0443    0.3526 C   0  0  0  0  0  0  0  0  0  0  0  0
   -0.1240   -0.0028   -0.0603 N   0  0  0  0  0  0  0  0  0  0  0  0
   -0.9034   -1.1381   -0.3813 C   0  0  0  0  0  0  0  0  0  0  0  0
   -0.5462   -2.4068   -0.3602 N   0  0  0  0  0  0  0  0  0  0  0  0
   -1.3446   -3.4313   -0.6787 C   0  0  0  0  0  0  0  0  0  0  0  0
   -2.6405   -3.1911   -1.0622 C   0  0  0  0  0  0  0  0  0  0  0  0
   -3.6943   -4.5125   -1.4797 Cl  0  0  0  0  0  0  0  0  0  0  0  0
   -3.0629   -1.8436   -1.0985 C   0  0  0  0  0  0  0  0  0  0  0  0
   -4.3887   -1.5943   -1.4881 N   0  0  0  0  0  0  0  0  0  0  0  0
   -5.1003   -0.3935   -1.6293 C   0  0  0  0  0  0  0  0  0  0  0  0
   -4.4958    0.8252   -1.4039 C   0  0  0  0  0  0  0  0  0  0  0  0
   -5.2684    1.9767   -1.5705 C   0  0  0  0  0  0  0  0  0  0  0  0
   -6.5794    1.9124   -1.9440 C   0  0  0  0  0  0  0  0  0  0  0  0
   -7.1726    0.6623   -2.1677 C   0  0  0  0  0  0  0  0  0  0  0  0
   -6.4526   -0.4966   -2.0160 C   0  0  0  0  0  0  0  0  0  0  0  0
   -7.1984   -2.0716   -2.2978 S   0  0  0  0  0  0  0  0  0  0  0  0
   -6.5642   -2.7940   -3.4549 O   0  0  0  0  0  0  0  0  0  0  0  0
   -7.2092   -2.9133   -1.0543 O   0  0  0  0  0  0  0  0  0  0  0  0
   -8.8960   -1.8119   -2.7497 C   0  0  0  0  0  0  0  0  0  0  0  0
   -9.4560   -3.0723   -2.9648 F   0  0  0  0  0  0  0  0  0  0  0  0
   -8.9439   -1.1394   -3.9432 F   0  0  0  0  0  0  0  0  0  0  0  0
   -9.5826   -1.2102   -1.7302 F   0  0  0  0  0  0  0  0  0  0  0  0
   -2.1866   -0.8990   -0.7612 N   0  0  0  0  0  0  0  0  0  0  0  0
    5.2817    0.4642    1.6041 N   0  0  0  0  0  0  0  0  0  0  0  0
    5.7984    1.7912    1.8304 C   0  0  0  0  0  0  0  0  0  0  0  0
    7.3354    1.7826    1.7771 C   0  0  0  0  0  0  0  0  0  0  0  0
    7.7781    0.8861    2.8831 C   0  0  0  0  0  0  0  0  0  0  0  0
    9.1578    0.8850    3.0442 F   0  0  0  0  0  0  0  0  0  0  0  0
    7.2500    1.3149    4.0848 F   0  0  0  0  0  0  0  0  0  0  0  0
    7.3167   -0.5045    2.6371 C   0  0  0  0  0  0  0  0  0  0  0  0
    6.1095   -0.6753    1.7904 C   0  0  0  0  0  0  0  0  0  0  0  0
    0.8168    4.4920    0.5568 H   0  0  0  0  0  0  0  0  0  0  0  0
    1.8371    3.8357    1.9527 H   0  0  0  0  0  0  0  0  0  0  0  0
    2.4948    3.8690    0.2868 H   0  0  0  0  0  0  0  0  0  0  0  0
    3.5139    2.3765    1.3011 H   0  0  0  0  0  0  0  0  0  0  0  0
    3.9809   -1.8206    0.9645 H   0  0  0  0  0  0  0  0  0  0  0  0
    1.7068   -2.0330    0.2614 H   0  0  0  0  0  0  0  0  0  0  0  0
   -0.5940    0.9715   -0.1362 H   0  0  0  0  0  0  0  0  0  0  0  0
   -1.0218   -4.4655   -0.6518 H   0  0  0  0  0  0  0  0  0  0  0  0
   -4.9454   -2.4893   -1.7185 H   0  0  0  0  0  0  0  0  0  0  0  0
   -3.4561    0.9518   -1.1067 H   0  0  0  0  0  0  0  0  0  0  0  0
   -4.8171    2.9359   -1.3999 H   0  0  0  0  0  0  0  0  0  0  0  0
   -7.2149    2.7738   -2.0850 H   0  0  0  0  0  0  0  0  0  0  0  0
   -8.2001    0.6305   -2.4616 H   0  0  0  0  0  0  0  0  0  0  0  0
    5.5179    2.4873    0.9847 H   0  0  0  0  0  0  0  0  0  0  0  0
    5.5313    2.2173    2.8161 H   0  0  0  0  0  0  0  0  0  0  0  0
    7.6833    1.4614    0.7935 H   0  0  0  0  0  0  0  0  0  0  0  0
    7.6439    2.8155    2.0241 H   0  0  0  0  0  0  0  0  0  0  0  0
    7.2214   -1.0487    3.6179 H   0  0  0  0  0  0  0  0  0  0  0  0
    8.1651   -1.0290    2.1000 H   0  0  0  0  0  0  0  0  0  0  0  0
    5.5234   -1.5318    2.2478 H   0  0  0  0  0  0  0  0  0  0  0  0
    6.3600   -1.0852    0.7640 H   0  0  0  0  0  0  0  0  0  0  0  0
  1  2  1  0
  2  3  1  0
  3  4  2  0
  4  5  1  0
  5  6  2  0
  6  7  1  0
  7  8  2  0
  8  9  1  0
  9 10  1  0
 10 11  2  0
 11 12  1  0
 12 13  2  0
 13 14  1  0
 13 15  1  0
 15 16  1  0
 16 17  1  0
 17 18  2  0
 18 19  1  0
 19 20  2  0
 20 21  1  0
 21 22  2  0
 22 23  1  0
 23 24  2  0
 23 25  2  0
 23 26  1  0
 26 27  1  0
 26 28  1  0
 26 29  1  0
 15 30  2  0
  5 31  1  0
 31 32  1  0
 32 33  1  0
 33 34  1  0
 34 35  1  0
 34 36  1  0
 34 37  1  0
 37 38  1  0
  8  3  1  0
 30 10  1  0
 38 31  1  0
 22 17  1  0
  1 39  1  0
  1 40  1  0
  1 41  1  0
  4 42  1  0
  6 43  1  0
  7 44  1  0
  9 45  1  0
 12 46  1  0
 16 47  1  0
 18 48  1  0
 19 49  1  0
 20 50  1  0
 21 51  1  0
 32 52  1  0
 32 53  1  0
 33 54  1  0
 33 55  1  0
 37 56  1  0
 37 57  1  0
 38 58  1  0
 38 59  1  0
M  END
$$$$
[H]OC([H])([H])[C@]1([H])N(S(=O)(=O)c2c([H])c([H])c(OC([H])([H])[H])c([H])c2[H])C([H])([H])[C@]([H])(O[H])[C@@]([H])(O[H])[C@@]1([H])O[H]
     RDKit          3D

 41 42  0  0  0  0  0  0  0  0999 V2000
    6.3506   -0.1208   -1.6005 C   0  0  0  0  0  0  0  0  0  0  0  0
    5.2169   -0.5649   -2.3309 O   0  0  0  0  0  0  0  0  0  0  0  0
    4.0134   -0.7118   -1.6645 C   0  0  0  0  0  0  0  0  0  0  0  0
    2.9085   -1.1366   -2.3412 C   0  0  0  0  0  0  0  0  0  0  0  0
    1.6800   -1.2954   -1.7000 C   0  0  0  0  0  0  0  0  0  0  0  0
    1.5587   -1.0225   -0.3539 C   0  0  0  0  0  0  0  0  0  0  0  0
    2.6791   -0.5953    0.3168 C   0  0  0  0  0  0  0  0  0  0  0  0
    3.9031   -0.4338   -0.3079 C   0  0  0  0  0  0  0  0  0  0  0  0
    0.0216   -1.2218    0.4457 S   0  0  0  0  0  0  0  0  0  0  0  0
    0.2609   -1.7713    1.8040 O   0  0  0  0  0  0  0  0  0  0  0  0
   -0.7248   -2.3025   -0.3280 O   0  0  0  0  0  0  0  0  0  0  0  0
   -0.9326    0.1759    0.4202 N   0  0  0  0  0  0  0  0  0  0  0  0
   -1.2945    0.6295   -0.8741 C   0  0  0  0  0  0  0  0  0  0  0  0
   -2.6591    0.0625   -1.2012 C   0  0  2  0  0  0  0  0  0  0  0  0
   -2.9841    0.5050   -2.4828 O   0  0  0  0  0  0  0  0  0  0  0  0
   -3.6349    0.6840   -0.2376 C   0  0  1  0  0  0  0  0  0  0  0  0
   -4.8927    0.1420   -0.4962 O   0  0  0  0  0  0  0  0  0  0  0  0
   -3.2599    0.4899    1.1969 C   0  0  1  0  0  0  0  0  0  0  0  0
   -3.9622   -0.6478    1.6613 O   0  0  0  0  0  0  0  0  0  0  0  0
   -1.8201    0.3895    1.4832 C   0  0  2  0  0  0  0  0  0  0  0  0
   -1.3546    1.6411    2.2439 C   0  0  0  0  0  0  0  0  0  0  0  0
   -2.2194    1.8727    3.3025 O   0  0  0  0  0  0  0  0  0  0  0  0
    7.2051    0.0876   -2.2746 H   0  0  0  0  0  0  0  0  0  0  0  0
    6.6262   -0.8805   -0.8372 H   0  0  0  0  0  0  0  0  0  0  0  0
    6.0747    0.8116   -1.0327 H   0  0  0  0  0  0  0  0  0  0  0  0
    2.9590   -1.3614   -3.3957 H   0  0  0  0  0  0  0  0  0  0  0  0
    0.8363   -1.6313   -2.2678 H   0  0  0  0  0  0  0  0  0  0  0  0
    2.6144   -0.3775    1.3555 H   0  0  0  0  0  0  0  0  0  0  0  0
    4.7656   -0.0962    0.2471 H   0  0  0  0  0  0  0  0  0  0  0  0
   -0.5391    0.2733   -1.5988 H   0  0  0  0  0  0  0  0  0  0  0  0
   -1.3773    1.7352   -0.8629 H   0  0  0  0  0  0  0  0  0  0  0  0
   -2.6820   -1.0380   -1.1202 H   0  0  0  0  0  0  0  0  0  0  0  0
   -3.8905    0.1724   -2.7142 H   0  0  0  0  0  0  0  0  0  0  0  0
   -3.6927    1.7696   -0.4905 H   0  0  0  0  0  0  0  0  0  0  0  0
   -5.5036    0.3462    0.2740 H   0  0  0  0  0  0  0  0  0  0  0  0
   -3.7068    1.3428    1.7681 H   0  0  0  0  0  0  0  0  0  0  0  0
   -3.5169   -1.0290    2.4596 H   0  0  0  0  0  0  0  0  0  0  0  0
   -1.6767   -0.4454    2.2325 H   0  0  0  0  0  0  0  0  0  0  0  0
   -1.2996    2.4556    1.5176 H   0  0  0  0  0  0  0  0  0  0  0  0
   -0.3280    1.3757    2.6127 H   0  0  0  0  0  0  0  0  0  0  0  0
   -1.7219    1.7219    4.1535 H   0  0  0  0  0  0  0  0  0  0  0  0
  1  2  1  0
  2  3  1  0
  3  4  2  0
  4  5  1  0
  5  6  2  0
  6  7  1  0
  7  8  2  0
  6  9  1  0
  9 10  2  0
  9 11  2  0
  9 12  1  0
 12 13  1  0
 13 14  1  0
 14 15  1  0
 14 16  1  0
 16 17  1  0
 16 18  1  0
 18 19  1  0
 18 20  1  0
 20 21  1  0
 21 22  1  0
  8  3  1  0
 20 12  1  0
  1 23  1  0
  1 24  1  0
  1 25  1  0
  4 26  1  0
  5 27  1  0
  7 28  1  0
  8 29  1  0
 13 30  1  0
 13 31  1  0
 14 32  1  6
 15 33  1  0
 16 34  1  6
 17 35  1  0
 18 36  1  1
 19 37  1  0
 20 38  1  1
 21 39  1  0
 21 40  1  0
 22 41  1  0
M  END
$$$$
[H]c1c([H])c([H])c(C(=O)N(C([H])([H])[H])[C@]2([H])C([H])([H])[C@]3([H])C([H])([H])N(S(=O)(=O)c4c([H])c([H])c(OC([H])([H])[H])c([H])c4[H])C([H])([H])[C@]32[H])c([H])c1[H]
     RDKit          3D

 52 55  0  0  0  0  0  0  0  0999 V2000
   -5.0615    0.8643    3.0292 C   0  0  0  0  0  0  0  0  0  0  0  0
   -4.3188   -0.2936    2.7815 O   0  0  0  0  0  0  0  0  0  0  0  0
   -3.9721   -0.6526    1.4988 C   0  0  0  0  0  0  0  0  0  0  0  0
   -4.3653    0.1430    0.4532 C   0  0  0  0  0  0  0  0  0  0  0  0
   -4.0234   -0.2085   -0.8320 C   0  0  0  0  0  0  0  0  0  0  0  0
   -3.2940   -1.3466   -1.0702 C   0  0  0  0  0  0  0  0  0  0  0  0
   -2.9011   -2.1426   -0.0195 C   0  0  0  0  0  0  0  0  0  0  0  0
   -3.2343   -1.8066    1.2747 C   0  0  0  0  0  0  0  0  0  0  0  0
   -2.8840   -1.7660   -2.7147 S   0  0  0  0  0  0  0  0  0  0  0  0
   -2.6910   -3.2773   -2.7555 O   0  0  0  0  0  0  0  0  0  0  0  0
   -4.0625   -1.4749   -3.5798 O   0  0  0  0  0  0  0  0  0  0  0  0
   -1.4358   -1.0830   -3.2643 N   0  0  0  0  0  0  0  0  0  0  0  0
   -0.3262   -1.5517   -2.4562 C   0  0  0  0  0  0  0  0  0  0  0  0
    0.0345   -0.3577   -1.6746 C   0  0  1  0  0  0  0  0  0  0  0  0
    1.3298    0.2193   -1.5165 C   0  0  1  0  0  0  0  0  0  0  0  0
    0.6225    1.5174   -1.9761 C   0  0  0  0  0  0  0  0  0  0  0  0
   -0.0099    0.6147   -2.9139 C   0  0  2  0  0  0  0  0  0  0  0  0
   -1.4065    0.3871   -3.2055 C   0  0  0  0  0  0  0  0  0  0  0  0
    1.9325    0.4824   -0.2181 N   0  0  0  0  0  0  0  0  0  0  0  0
    1.0824    0.8827    0.8464 C   0  0  0  0  0  0  0  0  0  0  0  0
    3.3195    0.3027   -0.1297 C   0  0  0  0  0  0  0  0  0  0  0  0
    3.8807   -0.1041   -1.2838 O   0  0  0  0  0  0  0  0  0  0  0  0
    4.2714    0.4557    0.9183 C   0  0  0  0  0  0  0  0  0  0  0  0
    5.6117    0.1336    0.6717 C   0  0  0  0  0  0  0  0  0  0  0  0
    6.6097    0.2553    1.6122 C   0  0  0  0  0  0  0  0  0  0  0  0
    6.2979    0.7143    2.8642 C   0  0  0  0  0  0  0  0  0  0  0  0
    5.0019    1.0370    3.1372 C   0  0  0  0  0  0  0  0  0  0  0  0
    4.0027    0.9066    2.1679 C   0  0  0  0  0  0  0  0  0  0  0  0
   -6.0468    0.8489    2.5482 H   0  0  0  0  0  0  0  0  0  0  0  0
   -4.5364    1.7880    2.6708 H   0  0  0  0  0  0  0  0  0  0  0  0
   -5.2021    1.0287    4.1244 H   0  0  0  0  0  0  0  0  0  0  0  0
   -4.9537    1.0643    0.6227 H   0  0  0  0  0  0  0  0  0  0  0  0
   -4.3478    0.4433   -1.6683 H   0  0  0  0  0  0  0  0  0  0  0  0
   -2.3148   -3.0630   -0.2011 H   0  0  0  0  0  0  0  0  0  0  0  0
   -2.9293   -2.4281    2.1148 H   0  0  0  0  0  0  0  0  0  0  0  0
   -0.6900   -2.3572   -1.8007 H   0  0  0  0  0  0  0  0  0  0  0  0
    0.4887   -1.9757   -3.0705 H   0  0  0  0  0  0  0  0  0  0  0  0
   -0.7815   -0.0502   -1.0167 H   0  0  0  0  0  0  0  0  0  0  0  0
    2.0810   -0.0984   -2.2731 H   0  0  0  0  0  0  0  0  0  0  0  0
    0.0416    1.9256   -1.1535 H   0  0  0  0  0  0  0  0  0  0  0  0
    1.4058    2.2251   -2.3403 H   0  0  0  0  0  0  0  0  0  0  0  0
    0.7058    0.1786   -3.6415 H   0  0  0  0  0  0  0  0  0  0  0  0
   -1.7438    0.8293   -4.1572 H   0  0  0  0  0  0  0  0  0  0  0  0
   -2.0844    0.7116   -2.4193 H   0  0  0  0  0  0  0  0  0  0  0  0
    1.2135    0.1632    1.7000 H   0  0  0  0  0  0  0  0  0  0  0  0
   -0.0112    0.8660    0.5481 H   0  0  0  0  0  0  0  0  0  0  0  0
    1.3220    1.8947    1.2243 H   0  0  0  0  0  0  0  0  0  0  0  0
    5.9006   -0.2372   -0.3157 H   0  0  0  0  0  0  0  0  0  0  0  0
    7.6201   -0.0149    1.3416 H   0  0  0  0  0  0  0  0  0  0  0  0
    7.0853    0.8161    3.6245 H   0  0  0  0  0  0  0  0  0  0  0  0
    4.7360    1.3970    4.1067 H   0  0  0  0  0  0  0  0  0  0  0  0
    3.0305    1.1937    2.4919 H   0  0  0  0  0  0  0  0  0  0  0  0
  1  2  1  0
  2  3  1  0
  3  4  2  0
  4  5  1  0
  5  6  2  0
  6  7  1  0
  7  8  2  0
  6  9  1  0
  9 10  2  0
  9 11  2  0
  9 12  1  0
 12 13  1  0
 13 14  1  0
 14 15  1  0
 15 16  1  0
 16 17  1  0
 17 18  1  0
 15 19  1  0
 19 20  1  0
 19 21  1  0
 21 22  2  0
 21 23  1  0
 23 24  2  0
 24 25  1  0
 25 26  2  0
 26 27  1  0
 27 28  2  0
  8  3  1  0
 18 12  1  0
 28 23  1  0
 17 14  1  0
  1 29  1  0
  1 30  1  0
  1 31  1  0
  4 32  1  0
  5 33  1  0
  7 34  1  0
  8 35  1  0
 13 36  1  0
 13 37  1  0
 14 38  1  1
 15 39  1  6
 16 40  1  0
 16 41  1  0
 17 42  1  6
 18 43  1  0
 18 44  1  0
 20 45  1  0
 20 46  1  0
 20 47  1  0
 24 48  1  0
 25 49  1  0
 26 50  1  0
 27 51  1  0
 28 52  1  0
M  END
$$$$
[H]OC(=O)c1c([H])c([H])c([H])c(N([H])C(=O)c2c([H])c([H])c(-c3c([H])c([H])c(OC([H])([H])[H])c(OC([H])([H])[H])c3[H])c([H])c2[H])c1[H]
     RDKit          3D

 47 49  0  0  0  0  0  0  0  0999 V2000
   -8.1747   -0.6116    0.0188 C   0  0  0  0  0  0  0  0  0  0  0  0
   -7.2464    0.4311    0.1703 O   0  0  0  0  0  0  0  0  0  0  0  0
   -5.8694    0.1688    0.0828 C   0  0  0  0  0  0  0  0  0  0  0  0
   -5.3934   -1.1023   -0.1515 C   0  0  0  0  0  0  0  0  0  0  0  0
   -4.0539   -1.3225   -0.2306 C   0  0  0  0  0  0  0  0  0  0  0  0
   -3.1217   -0.3134   -0.0848 C   0  0  0  0  0  0  0  0  0  0  0  0
   -3.6330    0.9590    0.1508 C   0  0  0  0  0  0  0  0  0  0  0  0
   -4.9792    1.2105    0.2355 C   0  0  0  0  0  0  0  0  0  0  0  0
   -5.4843    2.4688    0.4684 O   0  0  0  0  0  0  0  0  0  0  0  0
   -4.7225    3.6319    0.6461 C   0  0  0  0  0  0  0  0  0  0  0  0
   -1.6899   -0.5559   -0.1709 C   0  0  0  0  0  0  0  0  0  0  0  0
   -1.2245   -1.5504   -1.0013 C   0  0  0  0  0  0  0  0  0  0  0  0
    0.1306   -1.7968   -1.0972 C   0  0  0  0  0  0  0  0  0  0  0  0
    1.0571   -1.0614   -0.3704 C   0  0  0  0  0  0  0  0  0  0  0  0
    0.5928   -0.0749    0.4533 C   0  0  0  0  0  0  0  0  0  0  0  0
   -0.7873    0.1809    0.5551 C   0  0  0  0  0  0  0  0  0  0  0  0
    2.4967   -1.3838   -0.5158 C   0  0  0  0  0  0  0  0  0  0  0  0
    2.7772   -2.4986   -1.0633 O   0  0  0  0  0  0  0  0  0  0  0  0
    3.4989   -0.5080   -0.0744 N   0  0  0  0  0  0  0  0  0  0  0  0
    4.8765   -0.6726   -0.1359 C   0  0  0  0  0  0  0  0  0  0  0  0
    5.5173   -1.8035   -0.4944 C   0  0  0  0  0  0  0  0  0  0  0  0
    6.9123   -1.9033   -0.5481 C   0  0  0  0  0  0  0  0  0  0  0  0
    7.6793   -0.8106   -0.2243 C   0  0  0  0  0  0  0  0  0  0  0  0
    7.0623    0.3674    0.1486 C   0  0  0  0  0  0  0  0  0  0  0  0
    5.6956    0.4234    0.1882 C   0  0  0  0  0  0  0  0  0  0  0  0
    7.8998    1.5310    0.4932 C   0  0  0  0  0  0  0  0  0  0  0  0
    7.3456    2.7373    0.8731 O   0  0  0  0  0  0  0  0  0  0  0  0
    9.1535    1.4528    0.4490 O   0  0  0  0  0  0  0  0  0  0  0  0
   -8.2251   -1.0241   -1.0031 H   0  0  0  0  0  0  0  0  0  0  0  0
   -9.1895   -0.2096    0.2824 H   0  0  0  0  0  0  0  0  0  0  0  0
   -7.9958   -1.4515    0.7233 H   0  0  0  0  0  0  0  0  0  0  0  0
   -6.0649   -1.9260   -0.2735 H   0  0  0  0  0  0  0  0  0  0  0  0
   -3.6209   -2.3192   -0.4157 H   0  0  0  0  0  0  0  0  0  0  0  0
   -2.9438    1.7826    0.2722 H   0  0  0  0  0  0  0  0  0  0  0  0
   -3.7686    3.6407    0.1069 H   0  0  0  0  0  0  0  0  0  0  0  0
   -4.5353    3.7492    1.7482 H   0  0  0  0  0  0  0  0  0  0  0  0
   -5.3427    4.5208    0.3477 H   0  0  0  0  0  0  0  0  0  0  0  0
   -1.9490   -2.1190   -1.5643 H   0  0  0  0  0  0  0  0  0  0  0  0
    0.4952   -2.5805   -1.7518 H   0  0  0  0  0  0  0  0  0  0  0  0
    1.2906    0.5109    1.0345 H   0  0  0  0  0  0  0  0  0  0  0  0
   -1.1124    0.9711    1.2190 H   0  0  0  0  0  0  0  0  0  0  0  0
    3.1347    0.4004    0.3612 H   0  0  0  0  0  0  0  0  0  0  0  0
    5.0024   -2.7023   -0.7545 H   0  0  0  0  0  0  0  0  0  0  0  0
    7.4157   -2.8101   -0.8356 H   0  0  0  0  0  0  0  0  0  0  0  0
    8.7698   -0.8655   -0.2592 H   0  0  0  0  0  0  0  0  0  0  0  0
    5.2600    1.3739    0.4880 H   0  0  0  0  0  0  0  0  0  0  0  0
    7.0641    3.4650    0.2298 H   0  0  0  0  0  0  0  0  0  0  0  0
  1  2  1  0
  2  3  1  0
  3  4  2  0
  4  5  1  0
  5  6  2  0
  6  7  1  0
  7  8  2  0
  8  9  1  0
  9 10  1  0
  6 11  1  0
 11 12  2  0
 12 13  1  0
 13 14  2  0
 14 15  1  0
 15 16  2  0
 14 17  1  0
 17 18  2  0
 17 19  1  0
 19 20  1  0
 20 21  2  0
 21 22  1  0
 22 23  2  0
 23 24  1  0
 24 25  2  0
 24 26  1  0
 26 27  1  0
 26 28  2  0
  8  3  1  0
 16 11  1  0
 25 20  1  0
  1 29  1  0
  1 30  1  0
  1 31  1  0
  4 32  1  0
  5 33  1  0
  7 34  1  0
 10 35  1  0
 10 36  1  0
 10 37  1  0
 12 38  1  0
 13 39  1  0
 15 40  1  0
 16 41  1  0
 19 42  1  0
 21 43  1  0
 22 44  1  0
 23 45  1  0
 25 46  1  0
 27 47  1  0
M  END
$$$$
[H]O[C@]1([H])[C@@]([H])(C([H])([H])OP(=O)(O[H])OP(=O)(O[H])O[H])O[C@@]([H])(n2c([H])nc3c(N([H])[H])nc([H])nc32)[C@]1([H])O[H]
     RDKit          3D

 42 44  0  0  0  0  0  0  0  0999 V2000
   -5.5858    2.7066   -0.5194 N   0  0  0  0  0  0  0  0  0  0  0  0
   -5.1159    1.4760    0.0108 C   0  0  0  0  0  0  0  0  0  0  0  0
   -5.9272    0.4247    0.2437 N   0  0  0  0  0  0  0  0  0  0  0  0
   -5.4161   -0.7101    0.7468 C   0  0  0  0  0  0  0  0  0  0  0  0
   -4.1184   -0.8534    1.0342 N   0  0  0  0  0  0  0  0  0  0  0  0
   -3.2751    0.1579    0.8216 C   0  0  0  0  0  0  0  0  0  0  0  0
   -1.9283    0.3121    1.0108 N   0  0  0  0  0  0  0  0  0  0  0  0
   -1.6612    1.5620    0.6077 C   0  0  0  0  0  0  0  0  0  0  0  0
   -2.7578    2.1980    0.1783 N   0  0  0  0  0  0  0  0  0  0  0  0
   -3.7743    1.3333    0.3060 C   0  0  0  0  0  0  0  0  0  0  0  0
   -1.0158   -0.6848    1.5386 C   0  0  2  0  0  0  0  0  0  0  0  0
    0.2860   -0.2664    1.3491 O   0  0  0  0  0  0  0  0  0  0  0  0
    0.8174   -0.8342    0.2246 C   0  0  2  0  0  0  0  0  0  0  0  0
    1.6152    0.0755   -0.6428 C   0  0  0  0  0  0  0  0  0  0  0  0
    2.6843    0.5569    0.1452 O   0  0  0  0  0  0  0  0  0  0  0  0
    3.6621    1.6040   -0.7381 P   0  0  0  0  0  0  0  0  0  0  0  0
    2.8393    2.0329   -2.1655 O   0  0  0  0  0  0  0  0  0  0  0  0
    4.0290    2.8425    0.0398 O   0  0  0  0  0  0  0  0  0  0  0  0
    5.0668    0.8034   -1.1797 O   0  0  0  0  0  0  0  0  0  0  0  0
    5.7546   -0.0719    0.0759 P   0  0  0  0  0  0  0  0  0  0  0  0
    6.1093   -1.6329   -0.5025 O   0  0  0  0  0  0  0  0  0  0  0  0
    7.1822    0.6553    0.6227 O   0  0  0  0  0  0  0  0  0  0  0  0
    4.8417   -0.2329    1.2544 O   0  0  0  0  0  0  0  0  0  0  0  0
   -0.3642   -1.4766   -0.5192 C   0  0  1  0  0  0  0  0  0  0  0  0
    0.0318   -2.5060   -1.3242 O   0  0  0  0  0  0  0  0  0  0  0  0
   -1.0814   -1.9720    0.7467 C   0  0  1  0  0  0  0  0  0  0  0  0
   -0.2123   -2.8760    1.3444 O   0  0  0  0  0  0  0  0  0  0  0  0
   -5.9591    3.4149    0.1432 H   0  0  0  0  0  0  0  0  0  0  0  0
   -5.5492    2.8757   -1.5432 H   0  0  0  0  0  0  0  0  0  0  0  0
   -6.1422   -1.5102    0.9043 H   0  0  0  0  0  0  0  0  0  0  0  0
   -0.6671    2.0177    0.6238 H   0  0  0  0  0  0  0  0  0  0  0  0
   -1.2008   -0.8631    2.6232 H   0  0  0  0  0  0  0  0  0  0  0  0
    1.4363   -1.7120    0.5620 H   0  0  0  0  0  0  0  0  0  0  0  0
    1.9710   -0.3780   -1.5697 H   0  0  0  0  0  0  0  0  0  0  0  0
    1.0254    0.9763   -0.9057 H   0  0  0  0  0  0  0  0  0  0  0  0
    2.8340    1.2104   -2.7406 H   0  0  0  0  0  0  0  0  0  0  0  0
    6.1433   -1.6184   -1.5091 H   0  0  0  0  0  0  0  0  0  0  0  0
    7.7498   -0.0424    0.9997 H   0  0  0  0  0  0  0  0  0  0  0  0
   -0.9861   -0.7162   -0.9911 H   0  0  0  0  0  0  0  0  0  0  0  0
   -0.6865   -2.6783   -1.9848 H   0  0  0  0  0  0  0  0  0  0  0  0
   -2.0680   -2.3539    0.5546 H   0  0  0  0  0  0  0  0  0  0  0  0
   -0.5867   -3.2466    2.1815 H   0  0  0  0  0  0  0  0  0  0  0  0
  1  2  1  0
  2  3  2  0
  3  4  1  0
  4  5  2  0
  5  6  1  0
  6  7  1  0
  7  8  1  0
  8  9  2  0
  9 10  1  0
  7 11  1  0
 11 12  1  0
 12 13  1  0
 13 14  1  0
 14 15  1  0
 15 16  1  0
 16 17  1  0
 16 18  2  0
 16 19  1  0
 19 20  1  0
 20 21  1  0
 20 22  1  0
 20 23  2  0
 13 24  1  0
 24 25  1  0
 24 26  1  0
 26 27  1  0
 10  2  1  0
 26 11  1  0
 10  6  2  0
  1 28  1  0
  1 29  1  0
  4 30  1  0
  8 31  1  0
 11 32  1  1
 13 33  1  1
 14 34  1  0
 14 35  1  0
 17 36  1  0
 21 37  1  0
 22 38  1  0
 24 39  1  6
 25 40  1  0
 26 41  1  6
 27 42  1  0
M  END
$$$$
[H]c1c([H])c(C(=O)N2C([H])([H])C([H])([H])C([H])(N3C([H])([H])C([H])([H])N(S(=O)(=O)c4c([H])c([H])c(C([H])([H])[H])c([H])c4[H])C([H])([H])C3([H])[H])C([H])([H])C2([H])[H])c(Cl)c([H])c1Cl
     RDKit          3D

 59 62  0  0  0  0  0  0  0  0999 V2000
   -9.0478    1.4713    0.2668 C   0  0  0  0  0  0  0  0  0  0  0  0
   -7.7406    0.8726   -0.1136 C   0  0  0  0  0  0  0  0  0  0  0  0
   -6.6936    1.6191   -0.6030 C   0  0  0  0  0  0  0  0  0  0  0  0
   -5.4961    1.0175   -0.9437 C   0  0  0  0  0  0  0  0  0  0  0  0
   -5.2898   -0.3368   -0.8144 C   0  0  0  0  0  0  0  0  0  0  0  0
   -6.3489   -1.0796   -0.3212 C   0  0  0  0  0  0  0  0  0  0  0  0
   -7.5571   -0.4840    0.0244 C   0  0  0  0  0  0  0  0  0  0  0  0
   -3.8017   -1.1385   -1.2331 S   0  0  0  0  0  0  0  0  0  0  0  0
   -3.1647   -0.3203   -2.3252 O   0  0  0  0  0  0  0  0  0  0  0  0
   -4.1496   -2.4984   -1.7768 O   0  0  0  0  0  0  0  0  0  0  0  0
   -2.7160   -1.2364    0.0798 N   0  0  0  0  0  0  0  0  0  0  0  0
   -2.3683    0.1038    0.5027 C   0  0  0  0  0  0  0  0  0  0  0  0
   -1.0962    0.5872   -0.1563 C   0  0  0  0  0  0  0  0  0  0  0  0
    0.0075   -0.1427    0.4086 N   0  0  0  0  0  0  0  0  0  0  0  0
   -0.3774   -1.4914    0.6667 C   0  0  0  0  0  0  0  0  0  0  0  0
   -1.5223   -1.9698   -0.2212 C   0  0  0  0  0  0  0  0  0  0  0  0
    1.2063   -0.0388   -0.4043 C   0  0  0  0  0  0  0  0  0  0  0  0
    1.7053    1.3639   -0.5146 C   0  0  0  0  0  0  0  0  0  0  0  0
    2.7090    1.7291    0.5561 C   0  0  0  0  0  0  0  0  0  0  0  0
    3.8379    0.8540    0.3965 N   0  0  0  0  0  0  0  0  0  0  0  0
    3.6498   -0.5001   -0.0176 C   0  0  0  0  0  0  0  0  0  0  0  0
    2.2261   -0.9877    0.1357 C   0  0  0  0  0  0  0  0  0  0  0  0
    5.1370    1.3351    0.6496 C   0  0  0  0  0  0  0  0  0  0  0  0
    5.3280    2.5364    1.0183 O   0  0  0  0  0  0  0  0  0  0  0  0
    6.3321    0.5210    0.5139 C   0  0  0  0  0  0  0  0  0  0  0  0
    6.8085   -0.2010    1.5785 C   0  0  0  0  0  0  0  0  0  0  0  0
    7.9547   -0.9886    1.4671 C   0  0  0  0  0  0  0  0  0  0  0  0
    8.6236   -1.0447    0.2662 C   0  0  0  0  0  0  0  0  0  0  0  0
   10.0550   -2.0177    0.1000 Cl  0  0  0  0  0  0  0  0  0  0  0  0
    8.1258   -0.3151   -0.7764 C   0  0  0  0  0  0  0  0  0  0  0  0
    6.9961    0.4675   -0.6842 C   0  0  0  0  0  0  0  0  0  0  0  0
    6.4695    1.3510   -2.1006 Cl  0  0  0  0  0  0  0  0  0  0  0  0
   -9.1331    2.5234   -0.0760 H   0  0  0  0  0  0  0  0  0  0  0  0
   -9.8431    0.9048   -0.2309 H   0  0  0  0  0  0  0  0  0  0  0  0
   -9.1213    1.4814    1.3713 H   0  0  0  0  0  0  0  0  0  0  0  0
   -6.8544    2.6943   -0.7066 H   0  0  0  0  0  0  0  0  0  0  0  0
   -4.6801    1.6374   -1.3306 H   0  0  0  0  0  0  0  0  0  0  0  0
   -6.2106   -2.1542   -0.2096 H   0  0  0  0  0  0  0  0  0  0  0  0
   -8.3925   -1.0680    0.4128 H   0  0  0  0  0  0  0  0  0  0  0  0
   -3.1797    0.8377    0.3622 H   0  0  0  0  0  0  0  0  0  0  0  0
   -2.1286    0.0856    1.6075 H   0  0  0  0  0  0  0  0  0  0  0  0
   -1.1269    0.5201   -1.2644 H   0  0  0  0  0  0  0  0  0  0  0  0
   -1.0420    1.6865    0.1102 H   0  0  0  0  0  0  0  0  0  0  0  0
    0.4271   -2.2353    0.6336 H   0  0  0  0  0  0  0  0  0  0  0  0
   -0.8137   -1.5051    1.7100 H   0  0  0  0  0  0  0  0  0  0  0  0
   -1.2241   -1.8906   -1.2894 H   0  0  0  0  0  0  0  0  0  0  0  0
   -1.6711   -3.0445    0.0096 H   0  0  0  0  0  0  0  0  0  0  0  0
    0.9612   -0.3874   -1.4512 H   0  0  0  0  0  0  0  0  0  0  0  0
    2.2426    1.4684   -1.4907 H   0  0  0  0  0  0  0  0  0  0  0  0
    0.8731    2.0951   -0.5556 H   0  0  0  0  0  0  0  0  0  0  0  0
    2.3145    1.6395    1.5768 H   0  0  0  0  0  0  0  0  0  0  0  0
    2.9882    2.7935    0.4114 H   0  0  0  0  0  0  0  0  0  0  0  0
    4.2688   -1.1450    0.6669 H   0  0  0  0  0  0  0  0  0  0  0  0
    3.9746   -0.7196   -1.0437 H   0  0  0  0  0  0  0  0  0  0  0  0
    2.0614   -1.1580    1.2173 H   0  0  0  0  0  0  0  0  0  0  0  0
    2.1642   -1.9646   -0.3877 H   0  0  0  0  0  0  0  0  0  0  0  0
    6.3374   -0.2074    2.5534 H   0  0  0  0  0  0  0  0  0  0  0  0
    8.3465   -1.5639    2.2895 H   0  0  0  0  0  0  0  0  0  0  0  0
    8.6594   -0.3617   -1.7314 H   0  0  0  0  0  0  0  0  0  0  0  0
  1  2  1  0
  2  3  2  0
  3  4  1  0
  4  5  2  0
  5  6  1  0
  6  7  2  0
  5  8  1  0
  8  9  2  0
  8 10  2  0
  8 11  1  0
 11 12  1  0
 12 13  1  0
 13 14  1  0
 14 15  1  0
 15 16  1  0
 14 17  1  0
 17 18  1  0
 18 19  1  0
 19 20  1  0
 20 21  1  0
 21 22  1  0
 20 23  1  0
 23 24  2  0
 23 25  1  0
 25 26  2  0
 26 27  1  0
 27 28  2  0
 28 29  1  0
 28 30  1  0
 30 31  2  0
 31 32  1  0
  7  2  1  0
 16 11  1  0
 22 17  1  0
 31 25  1  0
  1 33  1  0
  1 34  1  0
  1 35  1  0
  3 36  1  0
  4 37  1  0
  6 38  1  0
  7 39  1  0
 12 40  1  0
 12 41  1  0
 13 42  1  0
 13 43  1  0
 15 44  1  0
 15 45  1  0
 16 46  1  0
 16 47  1  0
 17 48  1  0
 18 49  1  0
 18 50  1  0
 19 51  1  0
 19 52  1  0
 21 53  1  0
 21 54  1  0
 22 55  1  0
 22 56  1  0
 26 57  1  0
 27 58  1  0
 30 59  1  0
M  END
$$$$
[H]Oc1c([H])c(C([H])([H])[H])c(C([H])([H])[C@@]([H])(C(=O)N2C([H])([H])c3c([H])c([H])c([H])c([H])c3C([H])([H])C2([H])C(=O)N([H])[C@@]([H])(C(=O)N([H])[C@]([H])(C(=O)N([H])[H])C([H])([H])c2c([H])c([H])c([H])c([H])c2[H])C([H])([H])c2c([H])c([H])c([H])c([H])c2[H])N([H])[H])c(C([H])([H])[H])c1[H]
     RDKit          3D

 92 96  0  0  0  0  0  0  0  0999 V2000
   -8.0983    0.6218   -1.1970 C   0  0  0  0  0  0  0  0  0  0  0  0
   -7.4107    1.2526   -0.0284 C   0  0  0  0  0  0  0  0  0  0  0  0
   -8.1360    2.1911    0.7040 C   0  0  0  0  0  0  0  0  0  0  0  0
   -7.5733    2.7397    1.8138 C   0  0  0  0  0  0  0  0  0  0  0  0
   -8.2824    3.6744    2.5501 O   0  0  0  0  0  0  0  0  0  0  0  0
   -6.3105    2.3596    2.1875 C   0  0  0  0  0  0  0  0  0  0  0  0
   -5.5683    1.4409    1.4917 C   0  0  0  0  0  0  0  0  0  0  0  0
   -4.2338    1.0463    1.9429 C   0  0  0  0  0  0  0  0  0  0  0  0
   -6.1548    0.8771    0.3404 C   0  0  0  0  0  0  0  0  0  0  0  0
   -5.2341   -0.0534   -0.3853 C   0  0  0  0  0  0  0  0  0  0  0  0
   -4.4965    0.6340   -1.4403 C   0  0  2  0  0  0  0  0  0  0  0  0
   -5.3253    1.2157   -2.4762 N   0  0  0  0  0  0  0  0  0  0  0  0
   -3.2130    0.1781   -1.9286 C   0  0  0  0  0  0  0  0  0  0  0  0
   -2.5354    1.0897   -2.6269 O   0  0  0  0  0  0  0  0  0  0  0  0
   -2.4914   -1.0244   -1.8387 N   0  0  0  0  0  0  0  0  0  0  0  0
   -2.9273   -2.2678   -1.2571 C   0  0  0  0  0  0  0  0  0  0  0  0
   -2.8108   -3.3071   -2.3607 C   0  0  0  0  0  0  0  0  0  0  0  0
   -3.6183   -4.4080   -2.2329 C   0  0  0  0  0  0  0  0  0  0  0  0
   -3.5861   -5.3895   -3.2038 C   0  0  0  0  0  0  0  0  0  0  0  0
   -2.7310   -5.2108   -4.2679 C   0  0  0  0  0  0  0  0  0  0  0  0
   -1.9214   -4.0903   -4.3792 C   0  0  0  0  0  0  0  0  0  0  0  0
   -1.9494   -3.1047   -3.4102 C   0  0  0  0  0  0  0  0  0  0  0  0
   -1.0822   -1.9394   -3.5589 C   0  0  0  0  0  0  0  0  0  0  0  0
   -1.1202   -1.0308   -2.3643 C   0  0  0  0  0  0  0  0  0  0  0  0
   -0.0920   -1.4747   -1.4163 C   0  0  0  0  0  0  0  0  0  0  0  0
   -0.0182   -2.6532   -0.9796 O   0  0  0  0  0  0  0  0  0  0  0  0
    0.8723   -0.5499   -0.9581 N   0  0  0  0  0  0  0  0  0  0  0  0
    1.9625   -0.8920   -0.0222 C   0  0  2  0  0  0  0  0  0  0  0  0
    1.3661   -0.8010    1.3992 C   0  0  0  0  0  0  0  0  0  0  0  0
    2.3267   -1.1107    2.4552 C   0  0  0  0  0  0  0  0  0  0  0  0
    2.6571   -2.4194    2.8259 C   0  0  0  0  0  0  0  0  0  0  0  0
    3.5388   -2.6646    3.8387 C   0  0  0  0  0  0  0  0  0  0  0  0
    4.1063   -1.6298    4.4998 C   0  0  0  0  0  0  0  0  0  0  0  0
    3.8179   -0.3289    4.1787 C   0  0  0  0  0  0  0  0  0  0  0  0
    2.9369   -0.0616    3.1662 C   0  0  0  0  0  0  0  0  0  0  0  0
    3.0359    0.0720   -0.2364 C   0  0  0  0  0  0  0  0  0  0  0  0
    2.7926    1.1477   -0.9086 O   0  0  0  0  0  0  0  0  0  0  0  0
    4.3380   -0.1137    0.2532 N   0  0  0  0  0  0  0  0  0  0  0  0
    5.3492    0.9588   -0.0237 C   0  0  1  0  0  0  0  0  0  0  0  0
    6.0480    1.2694    1.2454 C   0  0  0  0  0  0  0  0  0  0  0  0
    7.0827    2.3086    1.1662 C   0  0  0  0  0  0  0  0  0  0  0  0
    8.4179    2.0561    1.0194 C   0  0  0  0  0  0  0  0  0  0  0  0
    9.3574    3.0763    0.9567 C   0  0  0  0  0  0  0  0  0  0  0  0
    8.9183    4.3795    1.0464 C   0  0  0  0  0  0  0  0  0  0  0  0
    7.5961    4.6692    1.1935 C   0  0  0  0  0  0  0  0  0  0  0  0
    6.6635    3.6249    1.2546 C   0  0  0  0  0  0  0  0  0  0  0  0
    6.1896    0.5070   -1.1330 C   0  0  0  0  0  0  0  0  0  0  0  0
    7.1423    1.3563   -1.7399 N   0  0  0  0  0  0  0  0  0  0  0  0
    6.0900   -0.6794   -1.6046 O   0  0  0  0  0  0  0  0  0  0  0  0
   -8.2135    1.2869   -2.0597 H   0  0  0  0  0  0  0  0  0  0  0  0
   -9.1424    0.3960   -0.7863 H   0  0  0  0  0  0  0  0  0  0  0  0
   -7.6691   -0.3678   -1.4040 H   0  0  0  0  0  0  0  0  0  0  0  0
   -9.1357    2.4739    0.3762 H   0  0  0  0  0  0  0  0  0  0  0  0
   -8.1912    4.6556    2.3149 H   0  0  0  0  0  0  0  0  0  0  0  0
   -5.9093    2.8356    3.0970 H   0  0  0  0  0  0  0  0  0  0  0  0
   -4.2913    0.1004    2.5653 H   0  0  0  0  0  0  0  0  0  0  0  0
   -3.4749    0.8733    1.1936 H   0  0  0  0  0  0  0  0  0  0  0  0
   -3.7972    1.8451    2.6145 H   0  0  0  0  0  0  0  0  0  0  0  0
   -5.8754   -0.8587   -0.8214 H   0  0  0  0  0  0  0  0  0  0  0  0
   -4.5580   -0.5484    0.3796 H   0  0  0  0  0  0  0  0  0  0  0  0
   -4.1786    1.6572   -0.8795 H   0  0  0  0  0  0  0  0  0  0  0  0
   -5.5635    0.5240   -3.2240 H   0  0  0  0  0  0  0  0  0  0  0  0
   -5.0443    2.1450   -2.7975 H   0  0  0  0  0  0  0  0  0  0  0  0
   -2.3289   -2.6257   -0.4036 H   0  0  0  0  0  0  0  0  0  0  0  0
   -3.9766   -2.2765   -0.8960 H   0  0  0  0  0  0  0  0  0  0  0  0
   -4.2917   -4.5546   -1.4039 H   0  0  0  0  0  0  0  0  0  0  0  0
   -4.1863   -6.2850   -3.1864 H   0  0  0  0  0  0  0  0  0  0  0  0
   -2.6673   -5.9548   -5.0599 H   0  0  0  0  0  0  0  0  0  0  0  0
   -1.2692   -4.0114   -5.2461 H   0  0  0  0  0  0  0  0  0  0  0  0
   -1.2219   -1.3694   -4.5145 H   0  0  0  0  0  0  0  0  0  0  0  0
   -0.0094   -2.3070   -3.6550 H   0  0  0  0  0  0  0  0  0  0  0  0
   -0.8463    0.0133   -2.6722 H   0  0  0  0  0  0  0  0  0  0  0  0
    0.8311    0.4330   -1.2896 H   0  0  0  0  0  0  0  0  0  0  0  0
    2.2139   -1.9369   -0.1638 H   0  0  0  0  0  0  0  0  0  0  0  0
    0.5266   -1.5089    1.4390 H   0  0  0  0  0  0  0  0  0  0  0  0
    1.0267    0.2519    1.5198 H   0  0  0  0  0  0  0  0  0  0  0  0
    2.1624   -3.2000    2.2501 H   0  0  0  0  0  0  0  0  0  0  0  0
    3.7370   -3.7231    4.0567 H   0  0  0  0  0  0  0  0  0  0  0  0
    4.8177   -1.8514    5.3112 H   0  0  0  0  0  0  0  0  0  0  0  0
    4.3181    0.4414    4.7632 H   0  0  0  0  0  0  0  0  0  0  0  0
    2.7210    0.9668    2.9295 H   0  0  0  0  0  0  0  0  0  0  0  0
    4.6544   -0.9431    0.7799 H   0  0  0  0  0  0  0  0  0  0  0  0
    4.7775    1.8450   -0.4142 H   0  0  0  0  0  0  0  0  0  0  0  0
    6.4724    0.3523    1.7328 H   0  0  0  0  0  0  0  0  0  0  0  0
    5.2590    1.6307    1.9719 H   0  0  0  0  0  0  0  0  0  0  0  0
    8.7861    1.0396    0.9483 H   0  0  0  0  0  0  0  0  0  0  0  0
   10.4191    2.8777    0.8387 H   0  0  0  0  0  0  0  0  0  0  0  0
    9.6352    5.2131    0.9999 H   0  0  0  0  0  0  0  0  0  0  0  0
    7.1919    5.6679    1.2732 H   0  0  0  0  0  0  0  0  0  0  0  0
    5.6275    3.8586    1.3673 H   0  0  0  0  0  0  0  0  0  0  0  0
    6.9884    2.3921   -1.7293 H   0  0  0  0  0  0  0  0  0  0  0  0
    7.9905    1.0042   -2.2074 H   0  0  0  0  0  0  0  0  0  0  0  0
  1  2  1  0
  2  3  2  0
  3  4  1  0
  4  5  1  0
  4  6  2  0
  6  7  1  0
  7  8  1  0
  7  9  2  0
  9 10  1  0
 10 11  1  0
 11 12  1  0
 11 13  1  0
 13 14  2  0
 13 15  1  0
 15 16  1  0
 16 17  1  0
 17 18  2  0
 18 19  1  0
 19 20  2  0
 20 21  1  0
 21 22  2  0
 22 23  1  0
 23 24  1  0
 24 25  1  0
 25 26  2  0
 25 27  1  0
 27 28  1  0
 28 29  1  0
 29 30  1  0
 30 31  2  0
 31 32  1  0
 32 33  2  0
 33 34  1  0
 34 35  2  0
 28 36  1  0
 36 37  2  0
 36 38  1  0
 38 39  1  0
 39 40  1  0
 40 41  1  0
 41 42  2  0
 42 43  1  0
 43 44  2  0
 44 45  1  0
 45 46  2  0
 39 47  1  0
 47 48  1  0
 47 49  2  0
  9  2  1  0
 24 15  1  0
 35 30  1  0
 46 41  1  0
 22 17  1  0
  1 50  1  0
  1 51  1  0
  1 52  1  0
  3 53  1  0
  5 54  1  0
  6 55  1  0
  8 56  1  0
  8 57  1  0
  8 58  1  0
 10 59  1  0
 10 60  1  0
 11 61  1  1
 12 62  1  0
 12 63  1  0
 16 64  1  0
 16 65  1  0
 18 66  1  0
 19 67  1  0
 20 68  1  0
 21 69  1  0
 23 70  1  0
 23 71  1  0
 24 72  1  0
 27 73  1  0
 28 74  1  6
 29 75  1  0
 29 76  1  0
 31 77  1  0
 32 78  1  0
 33 79  1  0
 34 80  1  0
 35 81  1  0
 38 82  1  0
 39 83  1  6
 40 84  1  0
 40 85  1  0
 42 86  1  0
 43 87  1  0
 44 88  1  0
 45 89  1  0
 46 90  1  0
 48 91  1  0
 48 92  1  0
M  END
$$$$
[H]c1c([H])c([H])c(-c2c([H])c([H])c(C(=O)N([H])[C@]3([H])C([H])([H])[C@]4([H])C([H])([H])N(S(=O)(=O)c5c([H])c([H])c(OC([H])([H])[H])c([H])c5[H])C([H])([H])[C@]43[H])c([H])c2[H])c([H])c1[H]
     RDKit          3D

 59 63  0  0  0  0  0  0  0  0999 V2000
    8.9324    1.0546    2.0240 C   0  0  0  0  0  0  0  0  0  0  0  0
    8.1880   -0.1421    1.9069 O   0  0  0  0  0  0  0  0  0  0  0  0
    7.3341   -0.3122    0.8245 C   0  0  0  0  0  0  0  0  0  0  0  0
    6.6097   -1.4828    0.7152 C   0  0  0  0  0  0  0  0  0  0  0  0
    5.7645   -1.6429   -0.3628 C   0  0  0  0  0  0  0  0  0  0  0  0
    5.6082   -0.6848   -1.3406 C   0  0  0  0  0  0  0  0  0  0  0  0
    6.3421    0.4722   -1.2070 C   0  0  0  0  0  0  0  0  0  0  0  0
    7.2069    0.6618   -0.1244 C   0  0  0  0  0  0  0  0  0  0  0  0
    4.5505   -0.9058   -2.6784 S   0  0  0  0  0  0  0  0  0  0  0  0
    5.1551   -0.1889   -3.8696 O   0  0  0  0  0  0  0  0  0  0  0  0
    4.5503   -2.3761   -3.0586 O   0  0  0  0  0  0  0  0  0  0  0  0
    2.9829   -0.4034   -2.5041 N   0  0  0  0  0  0  0  0  0  0  0  0
    2.2177   -1.0775   -1.4391 C   0  0  0  0  0  0  0  0  0  0  0  0
    1.1294   -0.1172   -1.3275 C   0  0  1  0  0  0  0  0  0  0  0  0
    0.4397    0.3575   -0.1617 C   0  0  1  0  0  0  0  0  0  0  0  0
    0.8513    1.7550   -0.7050 C   0  0  0  0  0  0  0  0  0  0  0  0
    2.0921    1.0801   -1.0164 C   0  0  2  0  0  0  0  0  0  0  0  0
    2.8039    1.0382   -2.2784 C   0  0  0  0  0  0  0  0  0  0  0  0
   -1.0079    0.2696   -0.1758 N   0  0  0  0  0  0  0  0  0  0  0  0
   -1.7653   -0.0334    0.9747 C   0  0  0  0  0  0  0  0  0  0  0  0
   -1.1682   -0.2364    2.0577 O   0  0  0  0  0  0  0  0  0  0  0  0
   -3.2081   -0.1174    0.9444 C   0  0  0  0  0  0  0  0  0  0  0  0
   -3.9177   -0.4406    2.1061 C   0  0  0  0  0  0  0  0  0  0  0  0
   -5.2922   -0.5285    2.1093 C   0  0  0  0  0  0  0  0  0  0  0  0
   -6.0247   -0.3021    0.9699 C   0  0  0  0  0  0  0  0  0  0  0  0
   -5.3531    0.0176   -0.1872 C   0  0  0  0  0  0  0  0  0  0  0  0
   -3.9770    0.1009   -0.1706 C   0  0  0  0  0  0  0  0  0  0  0  0
   -7.4923   -0.3957    0.9695 C   0  0  0  0  0  0  0  0  0  0  0  0
   -8.1870   -0.7979   -0.1530 C   0  0  0  0  0  0  0  0  0  0  0  0
   -9.5671   -0.8900   -0.1666 C   0  0  0  0  0  0  0  0  0  0  0  0
  -10.3002   -0.5774    0.9590 C   0  0  0  0  0  0  0  0  0  0  0  0
   -9.6059   -0.1766    2.0773 C   0  0  0  0  0  0  0  0  0  0  0  0
   -8.2277   -0.0831    2.0962 C   0  0  0  0  0  0  0  0  0  0  0  0
    8.3060    1.9240    2.2381 H   0  0  0  0  0  0  0  0  0  0  0  0
    9.6568    0.9598    2.8635 H   0  0  0  0  0  0  0  0  0  0  0  0
    9.4728    1.2807    1.0702 H   0  0  0  0  0  0  0  0  0  0  0  0
    6.7459   -2.2223    1.4925 H   0  0  0  0  0  0  0  0  0  0  0  0
    5.2062   -2.5643   -0.4316 H   0  0  0  0  0  0  0  0  0  0  0  0
    6.2704    1.2497   -1.9226 H   0  0  0  0  0  0  0  0  0  0  0  0
    7.7666    1.5810   -0.0515 H   0  0  0  0  0  0  0  0  0  0  0  0
    2.8163   -1.0853   -0.4907 H   0  0  0  0  0  0  0  0  0  0  0  0
    1.9358   -2.0819   -1.7585 H   0  0  0  0  0  0  0  0  0  0  0  0
    0.6066    0.1420   -2.2836 H   0  0  0  0  0  0  0  0  0  0  0  0
    0.9159    0.1749    0.8119 H   0  0  0  0  0  0  0  0  0  0  0  0
    0.2221    1.9904   -1.5789 H   0  0  0  0  0  0  0  0  0  0  0  0
    0.9263    2.5167    0.0719 H   0  0  0  0  0  0  0  0  0  0  0  0
    2.6787    0.8166   -0.1006 H   0  0  0  0  0  0  0  0  0  0  0  0
    3.7969    1.5606   -2.2350 H   0  0  0  0  0  0  0  0  0  0  0  0
    2.2443    1.4976   -3.0914 H   0  0  0  0  0  0  0  0  0  0  0  0
   -1.4908    0.4397   -1.0787 H   0  0  0  0  0  0  0  0  0  0  0  0
   -3.4015   -0.6320    3.0448 H   0  0  0  0  0  0  0  0  0  0  0  0
   -5.8423   -0.7814    3.0200 H   0  0  0  0  0  0  0  0  0  0  0  0
   -5.9055    0.1983   -1.0889 H   0  0  0  0  0  0  0  0  0  0  0  0
   -3.4979    0.3544   -1.1009 H   0  0  0  0  0  0  0  0  0  0  0  0
   -7.6786   -1.0562   -1.0618 H   0  0  0  0  0  0  0  0  0  0  0  0
  -10.1240   -1.2072   -1.0501 H   0  0  0  0  0  0  0  0  0  0  0  0
  -11.3942   -0.6442    0.9675 H   0  0  0  0  0  0  0  0  0  0  0  0
  -10.2061    0.0668    2.9593 H   0  0  0  0  0  0  0  0  0  0  0  0
   -7.6912    0.2323    2.9772 H   0  0  0  0  0  0  0  0  0  0  0  0
  1  2  1  0
  2  3  1  0
  3  4  2  0
  4  5  1  0
  5  6  2  0
  6  7  1  0
  7  8  2  0
  6  9  1  0
  9 10  2  0
  9 11  2  0
  9 12  1  0
 12 13  1  0
 13 14  1  0
 14 15  1  0
 15 16  1  0
 16 17  1  0
 17 18  1  0
 15 19  1  0
 19 20  1  0
 20 21  2  0
 20 22  1  0
 22 23  2  0
 23 24  1  0
 24 25  2  0
 25 26  1  0
 26 27  2  0
 25 28  1  0
 28 29  2  0
 29 30  1  0
 30 31  2  0
 31 32  1  0
 32 33  2  0
  8  3  1  0
 18 12  1  0
 27 22  1  0
 33 28  1  0
 17 14  1  0
  1 34  1  0
  1 35  1  0
  1 36  1  0
  4 37  1  0
  5 38  1  0
  7 39  1  0
  8 40  1  0
 13 41  1  0
 13 42  1  0
 14 43  1  6
 15 44  1  1
 16 45  1  0
 16 46  1  0
 17 47  1  1
 18 48  1  0
 18 49  1  0
 19 50  1  0
 23 51  1  0
 24 52  1  0
 26 53  1  0
 27 54  1  0
 29 55  1  0
 30 56  1  0
 31 57  1  0
 32 58  1  0
 33 59  1  0
M  END
$$$$
[H]OC([H])([H])[C@]1([H])N(S(=O)(=O)c2c([H])c([H])c(OC([H])([H])[H])c([H])c2[H])C([H])([H])[C@]([H])(O[H])[C@@]([H])(O[H])[C@]1([H])O[H]
     RDKit          3D

 41 42  0  0  0  0  0  0  0  0999 V2000
    6.4538   -0.2066   -0.9734 C   0  0  0  0  0  0  0  0  0  0  0  0
    5.4396   -1.1720   -1.1465 O   0  0  0  0  0  0  0  0  0  0  0  0
    4.1710   -1.0149   -0.6041 C   0  0  0  0  0  0  0  0  0  0  0  0
    3.2057   -1.9603   -0.7837 C   0  0  0  0  0  0  0  0  0  0  0  0
    1.9634   -1.7587   -0.2259 C   0  0  0  0  0  0  0  0  0  0  0  0
    1.6589   -0.6345    0.5087 C   0  0  0  0  0  0  0  0  0  0  0  0
    2.6511    0.3063    0.6760 C   0  0  0  0  0  0  0  0  0  0  0  0
    3.9166    0.1259    0.1217 C   0  0  0  0  0  0  0  0  0  0  0  0
    0.0822   -0.3852    1.2130 S   0  0  0  0  0  0  0  0  0  0  0  0
    0.1642    0.2768    2.5446 O   0  0  0  0  0  0  0  0  0  0  0  0
   -0.4993   -1.7710    1.4586 O   0  0  0  0  0  0  0  0  0  0  0  0
   -0.9791    0.4426    0.1571 N   0  0  0  0  0  0  0  0  0  0  0  0
   -1.2359   -0.2568   -1.0574 C   0  0  0  0  0  0  0  0  0  0  0  0
   -2.4253   -1.1471   -0.9332 C   0  0  2  0  0  0  0  0  0  0  0  0
   -2.6219   -1.7513   -2.1970 O   0  0  0  0  0  0  0  0  0  0  0  0
   -3.6610   -0.4243   -0.4855 C   0  0  1  0  0  0  0  0  0  0  0  0
   -4.4129   -1.2120    0.4151 O   0  0  0  0  0  0  0  0  0  0  0  0
   -3.3947    0.9180    0.1055 C   0  0  2  0  0  0  0  0  0  0  0  0
   -3.6144    1.9183   -0.8666 O   0  0  0  0  0  0  0  0  0  0  0  0
   -2.0850    1.0621    0.7858 C   0  0  2  0  0  0  0  0  0  0  0  0
   -1.7930    2.5692    0.8555 C   0  0  0  0  0  0  0  0  0  0  0  0
   -2.8849    3.2031    1.4794 O   0  0  0  0  0  0  0  0  0  0  0  0
    7.3359   -0.5354   -1.5672 H   0  0  0  0  0  0  0  0  0  0  0  0
    6.7316   -0.1571    0.1033 H   0  0  0  0  0  0  0  0  0  0  0  0
    6.0650    0.7637   -1.2834 H   0  0  0  0  0  0  0  0  0  0  0  0
    3.4165   -2.8502   -1.3542 H   0  0  0  0  0  0  0  0  0  0  0  0
    1.1833   -2.5055   -0.3614 H   0  0  0  0  0  0  0  0  0  0  0  0
    2.4634    1.1902    1.2349 H   0  0  0  0  0  0  0  0  0  0  0  0
    4.6926    0.8668    0.2555 H   0  0  0  0  0  0  0  0  0  0  0  0
   -0.3438   -0.8952   -1.2743 H   0  0  0  0  0  0  0  0  0  0  0  0
   -1.4310    0.4609   -1.8762 H   0  0  0  0  0  0  0  0  0  0  0  0
   -2.2743   -2.0003   -0.2339 H   0  0  0  0  0  0  0  0  0  0  0  0
   -3.6120   -1.7799   -2.3537 H   0  0  0  0  0  0  0  0  0  0  0  0
   -4.3149   -0.2886   -1.3721 H   0  0  0  0  0  0  0  0  0  0  0  0
   -3.8721   -1.4565    1.2059 H   0  0  0  0  0  0  0  0  0  0  0  0
   -4.1987    1.1004    0.8777 H   0  0  0  0  0  0  0  0  0  0  0  0
   -4.2783    1.5920   -1.5424 H   0  0  0  0  0  0  0  0  0  0  0  0
   -2.1529    0.7229    1.8499 H   0  0  0  0  0  0  0  0  0  0  0  0
   -1.7478    2.8975   -0.2175 H   0  0  0  0  0  0  0  0  0  0  0  0
   -0.8799    2.7794    1.4119 H   0  0  0  0  0  0  0  0  0  0  0  0
   -2.8816    2.9676    2.4310 H   0  0  0  0  0  0  0  0  0  0  0  0
  1  2  1  0
  2  3  1  0
  3  4  2  0
  4  5  1  0
  5  6  2  0
  6  7  1  0
  7  8  2  0
  6  9  1  0
  9 10  2  0
  9 11  2  0
  9 12  1  0
 12 13  1  0
 13 14  1  0
 14 15  1  0
 14 16  1  0
 16 17  1  0
 16 18  1  0
 18 19  1  0
 18 20  1  0
 20 21  1  0
 21 22  1  0
  8  3  1  0
 20 12  1  0
  1 23  1  0
  1 24  1  0
  1 25  1  0
  4 26  1  0
  5 27  1  0
  7 28  1  0
  8 29  1  0
 13 30  1  0
 13 31  1  0
 14 32  1  1
 15 33  1  0
 16 34  1  6
 17 35  1  0
 18 36  1  1
 19 37  1  0
 20 38  1  1
 21 39  1  0
 21 40  1  0
 22 41  1  0
M  END
$$$$
[H]c1nc2c(c([H])c1-c1c([H])c([H])c(C(=O)N3C([H])([H])C([H])([H])N(C([H])([H])[H])C([H])([H])C3([H])[H])c([H])c1[H])c([H])c([H])n2[H]
     RDKit          3D

 44 47  0  0  0  0  0  0  0  0999 V2000
    6.7654   -0.0569   -1.2359 C   0  0  0  0  0  0  0  0  0  0  0  0
    5.4257   -0.4924   -0.8832 N   0  0  0  0  0  0  0  0  0  0  0  0
    5.2299   -0.4244    0.5494 C   0  0  0  0  0  0  0  0  0  0  0  0
    4.4125    0.8001    0.8919 C   0  0  0  0  0  0  0  0  0  0  0  0
    3.0374    0.4863    0.3655 N   0  0  0  0  0  0  0  0  0  0  0  0
    3.0482    0.0880   -0.9932 C   0  0  0  0  0  0  0  0  0  0  0  0
    4.4599    0.3079   -1.5810 C   0  0  0  0  0  0  0  0  0  0  0  0
    1.9522    0.6305    1.2095 C   0  0  0  0  0  0  0  0  0  0  0  0
    2.2367    1.0619    2.4249 O   0  0  0  0  0  0  0  0  0  0  0  0
    0.5723    0.3862    0.9691 C   0  0  0  0  0  0  0  0  0  0  0  0
   -0.3337    0.7218    1.9954 C   0  0  0  0  0  0  0  0  0  0  0  0
   -1.6647    0.5166    1.8799 C   0  0  0  0  0  0  0  0  0  0  0  0
   -2.2286   -0.0261    0.7718 C   0  0  0  0  0  0  0  0  0  0  0  0
   -1.3996   -0.3714   -0.2553 C   0  0  0  0  0  0  0  0  0  0  0  0
   -0.0109   -0.1605   -0.1414 C   0  0  0  0  0  0  0  0  0  0  0  0
   -3.6691   -0.2238    0.7082 C   0  0  0  0  0  0  0  0  0  0  0  0
   -4.3678   -0.5056    1.8650 C   0  0  0  0  0  0  0  0  0  0  0  0
   -5.6936   -0.6852    1.7888 N   0  0  0  0  0  0  0  0  0  0  0  0
   -6.3576   -0.5962    0.6086 C   0  0  0  0  0  0  0  0  0  0  0  0
   -7.6618   -0.7327    0.2766 N   0  0  0  0  0  0  0  0  0  0  0  0
   -7.8543   -0.5547   -1.0380 C   0  0  0  0  0  0  0  0  0  0  0  0
   -6.6116   -0.2915   -1.5735 C   0  0  0  0  0  0  0  0  0  0  0  0
   -5.6793   -0.3158   -0.5581 C   0  0  0  0  0  0  0  0  0  0  0  0
   -4.3163   -0.1242   -0.5249 C   0  0  0  0  0  0  0  0  0  0  0  0
    7.2239   -0.8728   -1.8314 H   0  0  0  0  0  0  0  0  0  0  0  0
    6.7466    0.8649   -1.8611 H   0  0  0  0  0  0  0  0  0  0  0  0
    7.2949    0.1929   -0.3179 H   0  0  0  0  0  0  0  0  0  0  0  0
    6.1584   -0.5079    1.1140 H   0  0  0  0  0  0  0  0  0  0  0  0
    4.5877   -1.3104    0.8142 H   0  0  0  0  0  0  0  0  0  0  0  0
    4.7865    1.7305    0.4672 H   0  0  0  0  0  0  0  0  0  0  0  0
    4.3607    0.8877    1.9953 H   0  0  0  0  0  0  0  0  0  0  0  0
    2.8039   -0.9860   -1.1011 H   0  0  0  0  0  0  0  0  0  0  0  0
    2.3993    0.6697   -1.6663 H   0  0  0  0  0  0  0  0  0  0  0  0
    4.4017   -0.0266   -2.6254 H   0  0  0  0  0  0  0  0  0  0  0  0
    4.7312    1.3642   -1.5339 H   0  0  0  0  0  0  0  0  0  0  0  0
    0.0327    1.1709    2.9341 H   0  0  0  0  0  0  0  0  0  0  0  0
   -2.3117    0.7984    2.7103 H   0  0  0  0  0  0  0  0  0  0  0  0
   -1.7968   -0.8080   -1.1613 H   0  0  0  0  0  0  0  0  0  0  0  0
    0.5823   -0.4614   -0.9693 H   0  0  0  0  0  0  0  0  0  0  0  0
   -3.8350   -0.5797    2.8274 H   0  0  0  0  0  0  0  0  0  0  0  0
   -8.4204   -0.9507    0.9723 H   0  0  0  0  0  0  0  0  0  0  0  0
   -8.8065   -0.6064   -1.5879 H   0  0  0  0  0  0  0  0  0  0  0  0
   -6.4438   -0.1033   -2.6216 H   0  0  0  0  0  0  0  0  0  0  0  0
   -3.7871    0.0962   -1.4407 H   0  0  0  0  0  0  0  0  0  0  0  0
  1  2  1  0
  2  3  1  0
  3  4  1  0
  4  5  1  0
  5  6  1  0
  6  7  1  0
  5  8  1  0
  8  9  2  0
  8 10  1  0
 10 11  2  0
 11 12  1  0
 12 13  2  0
 13 14  1  0
 14 15  2  0
 13 16  1  0
 16 17  2  0
 17 18  1  0
 18 19  2  0
 19 20  1  0
 20 21  1  0
 21 22  2  0
 22 23  1  0
 23 24  2  0
  7  2  1  0
 15 10  1  0
 24 16  1  0
 23 19  1  0
  1 25  1  0
  1 26  1  0
  1 27  1  0
  3 28  1  0
  3 29  1  0
  4 30  1  0
  4 31  1  0
  6 32  1  0
  6 33  1  0
  7 34  1  0
  7 35  1  0
 11 36  1  0
 12 37  1  0
 14 38  1  0
 15 39  1  0
 17 40  1  0
 20 41  1  0
 21 42  1  0
 22 43  1  0
 24 44  1  0
M  END
$$$$
[H]OC(=O)[C@@]([H])(N([H])C(=O)[C@@]([H])(N([H])C(=O)[C@@]([H])(N([H])C(=O)[C@@]([H])(N([H])C(=O)[C@@]([H])(N([H])C(=O)[C@]([H])(N([H])C(=O)N([H])c1c([H])c([H])c(C(F)(F)F)c([H])c1F)C([H])([H])C([H])(C([H])([H])[H])C([H])([H])[H])C([H])(C([H])([H])[H])C([H])([H])[H])C([H])(C([H])([H])[H])C([H])([H])[H])C([H])([H])[H])C([H])(C([H])([H])[H])C([H])([H])[H])C([H])(C([H])([H])[H])C([H])([H])[H]
     RDKit          3D

113113  0  0  0  0  0  0  0  0999 V2000
   -6.2181   -2.0343   -2.5969 C   0  0  0  0  0  0  0  0  0  0  0  0
   -6.3042   -1.8093   -1.0814 C   0  0  0  0  0  0  0  0  0  0  0  0
   -7.7541   -1.7291   -0.7555 C   0  0  0  0  0  0  0  0  0  0  0  0
   -5.4755   -0.6331   -0.7672 C   0  0  0  0  0  0  0  0  0  0  0  0
   -5.3926   -0.2275    0.6945 C   0  0  1  0  0  0  0  0  0  0  0  0
   -6.6547    0.1520    1.2241 N   0  0  0  0  0  0  0  0  0  0  0  0
   -7.1360    1.5177    1.0008 C   0  0  0  0  0  0  0  0  0  0  0  0
   -6.3643    2.2535    0.3636 O   0  0  0  0  0  0  0  0  0  0  0  0
   -8.3654    1.9470    1.4633 N   0  0  0  0  0  0  0  0  0  0  0  0
   -8.9586    3.2102    1.2932 C   0  0  0  0  0  0  0  0  0  0  0  0
   -8.3868    4.2811    0.6607 C   0  0  0  0  0  0  0  0  0  0  0  0
   -9.0647    5.4993    0.5101 C   0  0  0  0  0  0  0  0  0  0  0  0
  -10.3402    5.6698    0.9943 C   0  0  0  0  0  0  0  0  0  0  0  0
  -10.9312    4.6059    1.6338 C   0  0  0  0  0  0  0  0  0  0  0  0
  -10.2579    3.4378    1.7689 C   0  0  0  0  0  0  0  0  0  0  0  0
  -10.8615    2.3981    2.4109 F   0  0  0  0  0  0  0  0  0  0  0  0
  -11.0753    6.9618    0.8266 C   0  0  0  0  0  0  0  0  0  0  0  0
  -10.4547    7.9524    1.5311 F   0  0  0  0  0  0  0  0  0  0  0  0
  -11.1515    7.3127   -0.5113 F   0  0  0  0  0  0  0  0  0  0  0  0
  -12.3574    6.8071    1.2850 F   0  0  0  0  0  0  0  0  0  0  0  0
   -4.6469   -1.2630    1.4913 C   0  0  0  0  0  0  0  0  0  0  0  0
   -4.9654   -1.5165    2.6713 O   0  0  0  0  0  0  0  0  0  0  0  0
   -3.5947   -1.9517    0.8973 N   0  0  0  0  0  0  0  0  0  0  0  0
   -2.6831   -2.9582    1.2765 C   0  0  1  0  0  0  0  0  0  0  0  0
   -3.0726   -4.3499    0.9989 C   0  0  0  0  0  0  0  0  0  0  0  0
   -3.3636   -4.7284   -0.4249 C   0  0  0  0  0  0  0  0  0  0  0  0
   -2.0369   -5.3683    1.4703 C   0  0  0  0  0  0  0  0  0  0  0  0
   -1.2974   -2.5773    0.8229 C   0  0  0  0  0  0  0  0  0  0  0  0
   -0.4323   -2.3045    1.6698 O   0  0  0  0  0  0  0  0  0  0  0  0
   -1.0064   -2.5065   -0.5369 N   0  0  0  0  0  0  0  0  0  0  0  0
    0.0499   -2.2015   -1.3904 C   0  0  1  0  0  0  0  0  0  0  0  0
   -0.3327   -1.2915   -2.5168 C   0  0  0  0  0  0  0  0  0  0  0  0
   -1.4288   -1.9418   -3.3793 C   0  0  0  0  0  0  0  0  0  0  0  0
   -0.9181    0.0128   -2.0091 C   0  0  0  0  0  0  0  0  0  0  0  0
    1.3912   -1.8988   -0.8654 C   0  0  0  0  0  0  0  0  0  0  0  0
    1.8504   -2.7162   -0.0188 O   0  0  0  0  0  0  0  0  0  0  0  0
    2.1531   -0.7893   -1.2628 N   0  0  0  0  0  0  0  0  0  0  0  0
    3.4310   -0.3041   -1.0426 C   0  0  1  0  0  0  0  0  0  0  0  0
    3.5373    1.2019   -1.2575 C   0  0  0  0  0  0  0  0  0  0  0  0
    4.2521   -0.5985    0.1458 C   0  0  0  0  0  0  0  0  0  0  0  0
    3.7861   -1.0685    1.1879 O   0  0  0  0  0  0  0  0  0  0  0  0
    5.6160   -0.3163    0.0103 N   0  0  0  0  0  0  0  0  0  0  0  0
    6.7821   -0.4312    0.8401 C   0  0  1  0  0  0  0  0  0  0  0  0
    7.4578   -1.7726    0.4824 C   0  0  0  0  0  0  0  0  0  0  0  0
    8.6771   -2.0062    1.2997 C   0  0  0  0  0  0  0  0  0  0  0  0
    7.8097   -1.8164   -0.9812 C   0  0  0  0  0  0  0  0  0  0  0  0
    7.6493    0.7135    0.5294 C   0  0  0  0  0  0  0  0  0  0  0  0
    7.0946    1.6055   -0.2718 O   0  0  0  0  0  0  0  0  0  0  0  0
    8.9488    1.0529    0.8977 N   0  0  0  0  0  0  0  0  0  0  0  0
    9.5208    2.2836    0.3603 C   0  0  1  0  0  0  0  0  0  0  0  0
   10.2390    3.0736    1.4033 C   0  0  0  0  0  0  0  0  0  0  0  0
   10.7762    4.3648    0.7742 C   0  0  0  0  0  0  0  0  0  0  0  0
   11.4516    2.2939    1.9338 C   0  0  0  0  0  0  0  0  0  0  0  0
   10.4599    1.9869   -0.7875 C   0  0  0  0  0  0  0  0  0  0  0  0
   11.0445    2.9762   -1.5328 O   0  0  0  0  0  0  0  0  0  0  0  0
   10.7063    0.7780   -1.0704 O   0  0  0  0  0  0  0  0  0  0  0  0
   -5.5903   -1.2319   -3.0792 H   0  0  0  0  0  0  0  0  0  0  0  0
   -7.2015   -1.9802   -3.0928 H   0  0  0  0  0  0  0  0  0  0  0  0
   -5.7330   -2.9948   -2.8455 H   0  0  0  0  0  0  0  0  0  0  0  0
   -5.9141   -2.7568   -0.6143 H   0  0  0  0  0  0  0  0  0  0  0  0
   -8.2131   -0.7469   -0.8828 H   0  0  0  0  0  0  0  0  0  0  0  0
   -8.2935   -2.4496   -1.4467 H   0  0  0  0  0  0  0  0  0  0  0  0
   -7.9587   -2.1844    0.2602 H   0  0  0  0  0  0  0  0  0  0  0  0
   -4.4991   -0.5598   -1.2276 H   0  0  0  0  0  0  0  0  0  0  0  0
   -6.0514    0.2589   -1.2391 H   0  0  0  0  0  0  0  0  0  0  0  0
   -4.7551    0.7092    0.6398 H   0  0  0  0  0  0  0  0  0  0  0  0
   -7.2844   -0.4654    1.7749 H   0  0  0  0  0  0  0  0  0  0  0  0
   -8.9204    1.2221    2.0159 H   0  0  0  0  0  0  0  0  0  0  0  0
   -7.4010    4.2312    0.2579 H   0  0  0  0  0  0  0  0  0  0  0  0
   -8.5972    6.3518   -0.0011 H   0  0  0  0  0  0  0  0  0  0  0  0
  -11.9503    4.7013    2.0381 H   0  0  0  0  0  0  0  0  0  0  0  0
   -3.4079   -1.6415   -0.1490 H   0  0  0  0  0  0  0  0  0  0  0  0
   -2.6442   -2.9045    2.4234 H   0  0  0  0  0  0  0  0  0  0  0  0
   -4.0068   -4.6505    1.5839 H   0  0  0  0  0  0  0  0  0  0  0  0
   -3.9392   -3.9679   -0.9910 H   0  0  0  0  0  0  0  0  0  0  0  0
   -4.0670   -5.6173   -0.3915 H   0  0  0  0  0  0  0  0  0  0  0  0
   -2.4653   -5.0659   -0.9994 H   0  0  0  0  0  0  0  0  0  0  0  0
   -2.0353   -5.5337    2.5441 H   0  0  0  0  0  0  0  0  0  0  0  0
   -1.0840   -5.1494    0.9962 H   0  0  0  0  0  0  0  0  0  0  0  0
   -2.3735   -6.3536    1.0136 H   0  0  0  0  0  0  0  0  0  0  0  0
   -1.9150   -2.7553   -1.1467 H   0  0  0  0  0  0  0  0  0  0  0  0
    0.3294   -3.2194   -1.9685 H   0  0  0  0  0  0  0  0  0  0  0  0
    0.4948   -1.0780   -3.1906 H   0  0  0  0  0  0  0  0  0  0  0  0
   -2.3805   -1.7399   -2.8285 H   0  0  0  0  0  0  0  0  0  0  0  0
   -1.2150   -3.0150   -3.4244 H   0  0  0  0  0  0  0  0  0  0  0  0
   -1.3820   -1.4436   -4.3573 H   0  0  0  0  0  0  0  0  0  0  0  0
   -0.6080    0.8882   -2.6182 H   0  0  0  0  0  0  0  0  0  0  0  0
   -0.6119    0.2114   -0.9596 H   0  0  0  0  0  0  0  0  0  0  0  0
   -2.0193   -0.0272   -2.0015 H   0  0  0  0  0  0  0  0  0  0  0  0
    1.5742   -0.1179   -1.9395 H   0  0  0  0  0  0  0  0  0  0  0  0
    4.1083   -0.7742   -1.8955 H   0  0  0  0  0  0  0  0  0  0  0  0
    4.0000    1.4642   -2.2178 H   0  0  0  0  0  0  0  0  0  0  0  0
    2.5047    1.6522   -1.2757 H   0  0  0  0  0  0  0  0  0  0  0  0
    4.1034    1.6990   -0.4447 H   0  0  0  0  0  0  0  0  0  0  0  0
    5.8733    0.0965   -0.9752 H   0  0  0  0  0  0  0  0  0  0  0  0
    6.5356   -0.5163    1.9044 H   0  0  0  0  0  0  0  0  0  0  0  0
    6.7116   -2.5757    0.6987 H   0  0  0  0  0  0  0  0  0  0  0  0
    8.5857   -1.5175    2.2714 H   0  0  0  0  0  0  0  0  0  0  0  0
    8.8204   -3.1327    1.4349 H   0  0  0  0  0  0  0  0  0  0  0  0
    9.5692   -1.6717    0.6920 H   0  0  0  0  0  0  0  0  0  0  0  0
    8.7298   -1.2721   -1.1989 H   0  0  0  0  0  0  0  0  0  0  0  0
    6.9498   -1.5060   -1.6127 H   0  0  0  0  0  0  0  0  0  0  0  0
    7.9858   -2.8792   -1.2326 H   0  0  0  0  0  0  0  0  0  0  0  0
    9.5182    0.4910    1.5358 H   0  0  0  0  0  0  0  0  0  0  0  0
    8.6919    2.8744   -0.0733 H   0  0  0  0  0  0  0  0  0  0  0  0
    9.5539    3.3601    2.2126 H   0  0  0  0  0  0  0  0  0  0  0  0
   10.7859    5.1545    1.5610 H   0  0  0  0  0  0  0  0  0  0  0  0
   10.1149    4.6802   -0.0321 H   0  0  0  0  0  0  0  0  0  0  0  0
   11.8213    4.2037    0.4509 H   0  0  0  0  0  0  0  0  0  0  0  0
   11.5500    2.4853    3.0118 H   0  0  0  0  0  0  0  0  0  0  0  0
   12.3588    2.7008    1.3929 H   0  0  0  0  0  0  0  0  0  0  0  0
   11.3606    1.2258    1.7013 H   0  0  0  0  0  0  0  0  0  0  0  0
   10.4848    3.5948   -2.1337 H   0  0  0  0  0  0  0  0  0  0  0  0
  1  2  1  0
  2  3  1  0
  2  4  1  0
  4  5  1  0
  5  6  1  0
  6  7  1  0
  7  8  2  0
  7  9  1  0
  9 10  1  0
 10 11  2  0
 11 12  1  0
 12 13  2  0
 13 14  1  0
 14 15  2  0
 15 16  1  0
 13 17  1  0
 17 18  1  0
 17 19  1  0
 17 20  1  0
  5 21  1  0
 21 22  2  0
 21 23  1  0
 23 24  1  0
 24 25  1  0
 25 26  1  0
 25 27  1  0
 24 28  1  0
 28 29  2  0
 28 30  1  0
 30 31  1  0
 31 32  1  0
 32 33  1  0
 32 34  1  0
 31 35  1  0
 35 36  2  0
 35 37  1  0
 37 38  1  0
 38 39  1  0
 38 40  1  0
 40 41  2  0
 40 42  1  0
 42 43  1  0
 43 44  1  0
 44 45  1  0
 44 46  1  0
 43 47  1  0
 47 48  2  0
 47 49  1  0
 49 50  1  0
 50 51  1  0
 51 52  1  0
 51 53  1  0
 50 54  1  0
 54 55  1  0
 54 56  2  0
 15 10  1  0
  1 57  1  0
  1 58  1  0
  1 59  1  0
  2 60  1  0
  3 61  1  0
  3 62  1  0
  3 63  1  0
  4 64  1  0
  4 65  1  0
  5 66  1  6
  6 67  1  0
  9 68  1  0
 11 69  1  0
 12 70  1  0
 14 71  1  0
 23 72  1  0
 24 73  1  1
 25 74  1  0
 26 75  1  0
 26 76  1  0
 26 77  1  0
 27 78  1  0
 27 79  1  0
 27 80  1  0
 30 81  1  0
 31 82  1  6
 32 83  1  0
 33 84  1  0
 33 85  1  0
 33 86  1  0
 34 87  1  0
 34 88  1  0
 34 89  1  0
 37 90  1  0
 38 91  1  6
 39 92  1  0
 39 93  1  0
 39 94  1  0
 42 95  1  0
 43 96  1  1
 44 97  1  0
 45 98  1  0
 45 99  1  0
 45100  1  0
 46101  1  0
 46102  1  0
 46103  1  0
 49104  1  0
 50105  1  6
 51106  1  0
 52107  1  0
 52108  1  0
 52109  1  0
 53110  1  0
 53111  1  0
 53112  1  0
 55113  1  0
M  END
$$$$
[H]ON([H])C(=O)[C@@]([H])(N([H])S(=O)(=O)c1c([H])c([H])c(C([H])(C([H])([H])[H])C([H])([H])[H])c([H])c1[H])C([H])(C([H])([H])[H])C([H])([H])[H]
     RDKit          3D

 43 43  0  0  0  0  0  0  0  0999 V2000
   -4.5247    0.1404   -0.1956 C   0  0  0  0  0  0  0  0  0  0  0  0
   -3.6642    1.0821   -0.9769 C   0  0  0  0  0  0  0  0  0  0  0  0
   -4.1253    0.9845   -2.4386 C   0  0  0  0  0  0  0  0  0  0  0  0
   -2.1956    0.6871   -0.9176 C   0  0  2  0  0  0  0  0  0  0  0  0
   -1.4362    1.6895   -1.7098 N   0  0  0  0  0  0  0  0  0  0  0  0
   -0.3676    2.4833   -0.6504 S   0  0  0  0  0  0  0  0  0  0  0  0
    0.3343    3.6428   -1.2930 O   0  0  0  0  0  0  0  0  0  0  0  0
   -1.2086    3.0803    0.4669 O   0  0  0  0  0  0  0  0  0  0  0  0
    0.8082    1.4202    0.0927 C   0  0  0  0  0  0  0  0  0  0  0  0
    0.6323    0.8127    1.3169 C   0  0  0  0  0  0  0  0  0  0  0  0
    1.5959   -0.0284    1.8551 C   0  0  0  0  0  0  0  0  0  0  0  0
    2.7757   -0.2981    1.1934 C   0  0  0  0  0  0  0  0  0  0  0  0
    2.9597    0.3094   -0.0377 C   0  0  0  0  0  0  0  0  0  0  0  0
    1.9987    1.1451   -0.5690 C   0  0  0  0  0  0  0  0  0  0  0  0
    3.7894   -1.1960    1.7770 C   0  0  0  0  0  0  0  0  0  0  0  0
    4.1260   -2.3579    0.8741 C   0  0  0  0  0  0  0  0  0  0  0  0
    5.0878   -0.4556    2.0691 C   0  0  0  0  0  0  0  0  0  0  0  0
   -1.9458   -0.6501   -1.4631 C   0  0  0  0  0  0  0  0  0  0  0  0
   -1.2904   -0.7480   -2.5559 O   0  0  0  0  0  0  0  0  0  0  0  0
   -2.3644   -1.8490   -0.8833 N   0  0  0  0  0  0  0  0  0  0  0  0
   -2.0934   -3.0669   -1.4640 O   0  0  0  0  0  0  0  0  0  0  0  0
   -5.5140    0.6796   -0.0625 H   0  0  0  0  0  0  0  0  0  0  0  0
   -4.1628   -0.0654    0.8180 H   0  0  0  0  0  0  0  0  0  0  0  0
   -4.7784   -0.7454   -0.8045 H   0  0  0  0  0  0  0  0  0  0  0  0
   -3.8313    2.0918   -0.5809 H   0  0  0  0  0  0  0  0  0  0  0  0
   -3.6350    0.1281   -2.9414 H   0  0  0  0  0  0  0  0  0  0  0  0
   -3.8292    1.9342   -2.9257 H   0  0  0  0  0  0  0  0  0  0  0  0
   -5.2232    0.8734   -2.4236 H   0  0  0  0  0  0  0  0  0  0  0  0
   -1.8643    0.7432    0.1178 H   0  0  0  0  0  0  0  0  0  0  0  0
   -1.0106    1.2721   -2.5424 H   0  0  0  0  0  0  0  0  0  0  0  0
   -0.2802    1.0034    1.8672 H   0  0  0  0  0  0  0  0  0  0  0  0
    1.4217   -0.4975    2.8357 H   0  0  0  0  0  0  0  0  0  0  0  0
    3.8889    0.0930   -0.5511 H   0  0  0  0  0  0  0  0  0  0  0  0
    2.1515    1.6126   -1.5272 H   0  0  0  0  0  0  0  0  0  0  0  0
    3.4133   -1.5722    2.7445 H   0  0  0  0  0  0  0  0  0  0  0  0
    4.3604   -2.0500   -0.1525 H   0  0  0  0  0  0  0  0  0  0  0  0
    3.2937   -3.1030    0.8529 H   0  0  0  0  0  0  0  0  0  0  0  0
    5.0146   -2.9022    1.2541 H   0  0  0  0  0  0  0  0  0  0  0  0
    5.4125   -0.5939    3.1240 H   0  0  0  0  0  0  0  0  0  0  0  0
    4.9087    0.6126    1.8317 H   0  0  0  0  0  0  0  0  0  0  0  0
    5.9112   -0.7823    1.4024 H   0  0  0  0  0  0  0  0  0  0  0  0
   -2.8804   -1.8798    0.0143 H   0  0  0  0  0  0  0  0  0  0  0  0
   -1.6590   -3.6797   -0.8135 H   0  0  0  0  0  0  0  0  0  0  0  0
  1  2  1  0
  2  3  1  0
  2  4  1  0
  4  5  1  0
  5  6  1  0
  6  7  2  0
  6  8  2  0
  6  9  1  0
  9 10  2  0
 10 11  1  0
 11 12  2  0
 12 13  1  0
 13 14  2  0
 12 15  1  0
 15 16  1  0
 15 17  1  0
  4 18  1  0
 18 19  2  0
 18 20  1  0
 20 21  1  0
 14  9  1  0
  1 22  1  0
  1 23  1  0
  1 24  1  0
  2 25  1  0
  3 26  1  0
  3 27  1  0
  3 28  1  0
  4 29  1  1
  5 30  1  0
 10 31  1  0
 11 32  1  0
 13 33  1  0
 14 34  1  0
 15 35  1  0
 16 36  1  0
 16 37  1  0
 16 38  1  0
 17 39  1  0
 17 40  1  0
 17 41  1  0
 20 42  1  0
 21 43  1  0
M  END
$$$$
[H]OC(=O)[C@@]([H])(N([H])C(=O)[C@@]([H])(N([H])C(=O)[C@@]([H])(N([H])[H])C([H])([H])c1c([H])c([H])c(O[H])c([H])c1[H])C([H])([H])C([H])(C([H])([H])[H])C([H])([H])[H])C([H])([H])c1c([H])c([H])c(-c2c([H])c([H])c([H])c([H])c2[H])c([H])c1[H]
     RDKit          3D

 73 75  0  0  0  0  0  0  0  0999 V2000
    0.2480   -2.7472    1.9754 C   0  0  0  0  0  0  0  0  0  0  0  0
   -0.6301   -2.8698    0.7336 C   0  0  0  0  0  0  0  0  0  0  0  0
   -2.0296   -3.1211    1.1301 C   0  0  0  0  0  0  0  0  0  0  0  0
   -0.2930   -1.9452   -0.3541 C   0  0  0  0  0  0  0  0  0  0  0  0
   -0.2810   -0.4829   -0.1898 C   0  0  2  0  0  0  0  0  0  0  0  0
   -1.5004    0.1272    0.2123 N   0  0  0  0  0  0  0  0  0  0  0  0
   -1.9170    1.4128    0.5112 C   0  0  0  0  0  0  0  0  0  0  0  0
   -1.2144    2.4570    0.4778 O   0  0  0  0  0  0  0  0  0  0  0  0
   -3.3574    1.6630    0.9350 C   0  0  1  0  0  0  0  0  0  0  0  0
   -3.7243    3.0535    0.8646 N   0  0  0  0  0  0  0  0  0  0  0  0
   -4.3152    0.7265    0.2778 C   0  0  0  0  0  0  0  0  0  0  0  0
   -5.7079    1.0243    0.7577 C   0  0  0  0  0  0  0  0  0  0  0  0
   -6.2143    0.4572    1.8918 C   0  0  0  0  0  0  0  0  0  0  0  0
   -7.5146    0.6993    2.3200 C   0  0  0  0  0  0  0  0  0  0  0  0
   -8.3563    1.5167    1.6265 C   0  0  0  0  0  0  0  0  0  0  0  0
   -9.6573    1.7676    2.0536 O   0  0  0  0  0  0  0  0  0  0  0  0
   -7.8598    2.0855    0.4706 C   0  0  0  0  0  0  0  0  0  0  0  0
   -6.5449    1.8346    0.0663 C   0  0  0  0  0  0  0  0  0  0  0  0
    0.3188    0.2126   -1.3662 C   0  0  0  0  0  0  0  0  0  0  0  0
    0.4477    1.4330   -1.3650 O   0  0  0  0  0  0  0  0  0  0  0  0
    0.7767   -0.4437   -2.5559 N   0  0  0  0  0  0  0  0  0  0  0  0
    1.4162    0.3221   -3.6041 C   0  0  1  0  0  0  0  0  0  0  0  0
    2.8226   -0.1370   -3.7884 C   0  0  0  0  0  0  0  0  0  0  0  0
    3.6672   -0.0287   -2.5682 C   0  0  0  0  0  0  0  0  0  0  0  0
    3.6982   -1.1470   -1.7798 C   0  0  0  0  0  0  0  0  0  0  0  0
    4.4322   -1.1494   -0.6168 C   0  0  0  0  0  0  0  0  0  0  0  0
    5.1439   -0.0251   -0.2322 C   0  0  0  0  0  0  0  0  0  0  0  0
    5.0914    1.0660   -1.0443 C   0  0  0  0  0  0  0  0  0  0  0  0
    4.3706    1.1069   -2.2203 C   0  0  0  0  0  0  0  0  0  0  0  0
    5.9167   -0.0113    1.0192 C   0  0  0  0  0  0  0  0  0  0  0  0
    7.0553    0.7144    1.1592 C   0  0  0  0  0  0  0  0  0  0  0  0
    7.8255    0.7480    2.3057 C   0  0  0  0  0  0  0  0  0  0  0  0
    7.4136   -0.0160    3.3882 C   0  0  0  0  0  0  0  0  0  0  0  0
    6.2586   -0.7628    3.2556 C   0  0  0  0  0  0  0  0  0  0  0  0
    5.5043   -0.7758    2.0989 C   0  0  0  0  0  0  0  0  0  0  0  0
    0.6771    0.2554   -4.8939 C   0  0  0  0  0  0  0  0  0  0  0  0
    1.1370    0.8828   -6.0390 O   0  0  0  0  0  0  0  0  0  0  0  0
   -0.4129   -0.3881   -4.9879 O   0  0  0  0  0  0  0  0  0  0  0  0
   -0.0195   -3.6326    2.6131 H   0  0  0  0  0  0  0  0  0  0  0  0
    1.2816   -2.8214    1.6427 H   0  0  0  0  0  0  0  0  0  0  0  0
    0.0040   -1.8244    2.5038 H   0  0  0  0  0  0  0  0  0  0  0  0
   -0.2802   -3.9099    0.3235 H   0  0  0  0  0  0  0  0  0  0  0  0
   -2.6998   -2.9496    0.2324 H   0  0  0  0  0  0  0  0  0  0  0  0
   -2.3849   -2.6092    2.0427 H   0  0  0  0  0  0  0  0  0  0  0  0
   -2.1681   -4.2059    1.3388 H   0  0  0  0  0  0  0  0  0  0  0  0
   -0.8769   -2.2160   -1.2983 H   0  0  0  0  0  0  0  0  0  0  0  0
    0.7783   -2.2314   -0.6665 H   0  0  0  0  0  0  0  0  0  0  0  0
    0.4551   -0.1661    0.6435 H   0  0  0  0  0  0  0  0  0  0  0  0
   -2.3118   -0.6456    0.3497 H   0  0  0  0  0  0  0  0  0  0  0  0
   -3.4266    1.3699    2.0599 H   0  0  0  0  0  0  0  0  0  0  0  0
   -3.7498    3.5078    1.8066 H   0  0  0  0  0  0  0  0  0  0  0  0
   -3.0706    3.6316    0.2446 H   0  0  0  0  0  0  0  0  0  0  0  0
   -4.1163   -0.3121    0.6439 H   0  0  0  0  0  0  0  0  0  0  0  0
   -4.2533    0.8058   -0.7938 H   0  0  0  0  0  0  0  0  0  0  0  0
   -5.5160   -0.1865    2.4246 H   0  0  0  0  0  0  0  0  0  0  0  0
   -7.8875    0.2460    3.2160 H   0  0  0  0  0  0  0  0  0  0  0  0
   -9.8159    2.5516    2.6841 H   0  0  0  0  0  0  0  0  0  0  0  0
   -8.5056    2.7272   -0.1061 H   0  0  0  0  0  0  0  0  0  0  0  0
   -6.1509    2.2774   -0.8267 H   0  0  0  0  0  0  0  0  0  0  0  0
    0.6450   -1.4642   -2.5863 H   0  0  0  0  0  0  0  0  0  0  0  0
    1.3875    1.3975   -3.3042 H   0  0  0  0  0  0  0  0  0  0  0  0
    2.8925   -1.1338   -4.1941 H   0  0  0  0  0  0  0  0  0  0  0  0
    3.3084    0.5735   -4.5379 H   0  0  0  0  0  0  0  0  0  0  0  0
    3.1323   -2.0462   -2.0550 H   0  0  0  0  0  0  0  0  0  0  0  0
    4.4929   -2.0272    0.0275 H   0  0  0  0  0  0  0  0  0  0  0  0
    5.6505    1.9668   -0.7568 H   0  0  0  0  0  0  0  0  0  0  0  0
    4.3433    1.9822   -2.8655 H   0  0  0  0  0  0  0  0  0  0  0  0
    7.3906    1.3288    0.3181 H   0  0  0  0  0  0  0  0  0  0  0  0
    8.7108    1.3367    2.3251 H   0  0  0  0  0  0  0  0  0  0  0  0
    8.0088    0.0118    4.2602 H   0  0  0  0  0  0  0  0  0  0  0  0
    5.9665   -1.3623    4.1199 H   0  0  0  0  0  0  0  0  0  0  0  0
    4.6086   -1.3305    1.9972 H   0  0  0  0  0  0  0  0  0  0  0  0
    1.4858    1.8452   -5.9716 H   0  0  0  0  0  0  0  0  0  0  0  0
  1  2  1  0
  2  3  1  0
  2  4  1  0
  4  5  1  0
  5  6  1  0
  6  7  1  0
  7  8  2  0
  7  9  1  0
  9 10  1  0
  9 11  1  0
 11 12  1  0
 12 13  2  0
 13 14  1  0
 14 15  2  0
 15 16  1  0
 15 17  1  0
 17 18  2  0
  5 19  1  0
 19 20  2  0
 19 21  1  0
 21 22  1  0
 22 23  1  0
 23 24  1  0
 24 25  2  0
 25 26  1  0
 26 27  2  0
 27 28  1  0
 28 29  2  0
 27 30  1  0
 30 31  2  0
 31 32  1  0
 32 33  2  0
 33 34  1  0
 34 35  2  0
 22 36  1  0
 36 37  1  0
 36 38  2  0
 18 12  1  0
 29 24  1  0
 35 30  1  0
  1 39  1  0
  1 40  1  0
  1 41  1  0
  2 42  1  0
  3 43  1  0
  3 44  1  0
  3 45  1  0
  4 46  1  0
  4 47  1  0
  5 48  1  1
  6 49  1  0
  9 50  1  1
 10 51  1  0
 10 52  1  0
 11 53  1  0
 11 54  1  0
 13 55  1  0
 14 56  1  0
 16 57  1  0
 17 58  1  0
 18 59  1  0
 21 60  1  0
 22 61  1  1
 23 62  1  0
 23 63  1  0
 25 64  1  0
 26 65  1  0
 28 66  1  0
 29 67  1  0
 31 68  1  0
 32 69  1  0
 33 70  1  0
 34 71  1  0
 35 72  1  0
 37 73  1  0
M  END
$$$$
[H]c1nc(N([H])c2c([H])c([H])c(-c3c([H])c([H])c([H])c([H])c3[H])c([H])c2OC([H])([H])[H])nc(N([H])c2c([H])c([H])c([H])c([H])c2S(=O)(=O)C([H])(C([H])([H])[H])C([H])([H])[H])c1Cl
     RDKit          3D

 60 63  0  0  0  0  0  0  0  0999 V2000
    2.4868   -3.8149    4.8983 C   0  0  0  0  0  0  0  0  0  0  0  0
    1.8442   -3.1673    3.7548 O   0  0  0  0  0  0  0  0  0  0  0  0
    2.3484   -2.3215    2.8882 C   0  0  0  0  0  0  0  0  0  0  0  0
    3.6429   -1.8900    2.7816 C   0  0  0  0  0  0  0  0  0  0  0  0
    4.1066   -1.0061    1.8335 C   0  0  0  0  0  0  0  0  0  0  0  0
    3.1481   -0.5441    0.9436 C   0  0  0  0  0  0  0  0  0  0  0  0
    1.8247   -0.9499    1.0102 C   0  0  0  0  0  0  0  0  0  0  0  0
    1.3817   -1.8159    1.9381 C   0  0  0  0  0  0  0  0  0  0  0  0
    0.0389   -2.2595    2.1093 N   0  0  0  0  0  0  0  0  0  0  0  0
   -1.1669   -1.7800    1.6584 C   0  0  0  0  0  0  0  0  0  0  0  0
   -2.2970   -2.3697    2.2290 N   0  0  0  0  0  0  0  0  0  0  0  0
   -3.5251   -2.0987    1.8851 C   0  0  0  0  0  0  0  0  0  0  0  0
   -3.7685   -1.1755    0.8986 C   0  0  0  0  0  0  0  0  0  0  0  0
   -5.4020   -0.7617    0.4626 Cl  0  0  0  0  0  0  0  0  0  0  0  0
   -2.6582   -0.5550    0.2823 C   0  0  0  0  0  0  0  0  0  0  0  0
   -2.9872    0.2684   -0.7907 N   0  0  0  0  0  0  0  0  0  0  0  0
   -2.1504    0.9682   -1.6700 C   0  0  0  0  0  0  0  0  0  0  0  0
   -0.8219    1.2333   -1.4277 C   0  0  0  0  0  0  0  0  0  0  0  0
   -0.0356    1.9159   -2.3760 C   0  0  0  0  0  0  0  0  0  0  0  0
   -0.5831    2.3183   -3.5388 C   0  0  0  0  0  0  0  0  0  0  0  0
   -1.9142    2.0607   -3.7904 C   0  0  0  0  0  0  0  0  0  0  0  0
   -2.7122    1.4002   -2.8886 C   0  0  0  0  0  0  0  0  0  0  0  0
   -4.4255    1.2063   -3.2323 S   0  0  0  0  0  0  0  0  0  0  0  0
   -4.6103    1.5078   -4.7335 O   0  0  0  0  0  0  0  0  0  0  0  0
   -4.9060   -0.1807   -3.0329 O   0  0  0  0  0  0  0  0  0  0  0  0
   -5.4362    2.3250   -2.2995 C   0  0  0  0  0  0  0  0  0  0  0  0
   -5.1341    3.7541   -2.7786 C   0  0  0  0  0  0  0  0  0  0  0  0
   -6.8769    1.9694   -2.6524 C   0  0  0  0  0  0  0  0  0  0  0  0
   -1.4107   -0.8898    0.7020 N   0  0  0  0  0  0  0  0  0  0  0  0
    5.5021   -0.6124    1.7134 C   0  0  0  0  0  0  0  0  0  0  0  0
    6.4198   -0.5189    2.7167 C   0  0  0  0  0  0  0  0  0  0  0  0
    7.7358   -0.1384    2.4994 C   0  0  0  0  0  0  0  0  0  0  0  0
    8.1274    0.1536    1.2022 C   0  0  0  0  0  0  0  0  0  0  0  0
    7.2326    0.0709    0.1722 C   0  0  0  0  0  0  0  0  0  0  0  0
    5.9445   -0.3037    0.4265 C   0  0  0  0  0  0  0  0  0  0  0  0
    1.9363   -3.4823    5.7983 H   0  0  0  0  0  0  0  0  0  0  0  0
    3.5561   -3.6189    4.9093 H   0  0  0  0  0  0  0  0  0  0  0  0
    2.3116   -4.8999    4.7881 H   0  0  0  0  0  0  0  0  0  0  0  0
    4.4116   -2.2544    3.4965 H   0  0  0  0  0  0  0  0  0  0  0  0
    3.4428    0.1632    0.1857 H   0  0  0  0  0  0  0  0  0  0  0  0
    1.1113   -0.5590    0.2764 H   0  0  0  0  0  0  0  0  0  0  0  0
   -0.0498   -3.1837    2.6948 H   0  0  0  0  0  0  0  0  0  0  0  0
   -4.4124   -2.5705    2.3354 H   0  0  0  0  0  0  0  0  0  0  0  0
   -4.0362    0.4180   -0.9677 H   0  0  0  0  0  0  0  0  0  0  0  0
   -0.3528    0.9538   -0.4940 H   0  0  0  0  0  0  0  0  0  0  0  0
    0.9972    2.0844   -2.1065 H   0  0  0  0  0  0  0  0  0  0  0  0
    0.0304    2.8592   -4.2753 H   0  0  0  0  0  0  0  0  0  0  0  0
   -2.3034    2.4222   -4.7406 H   0  0  0  0  0  0  0  0  0  0  0  0
   -5.3402    2.3094   -1.2305 H   0  0  0  0  0  0  0  0  0  0  0  0
   -5.8425    3.9722   -3.6217 H   0  0  0  0  0  0  0  0  0  0  0  0
   -5.2261    4.4548   -1.9668 H   0  0  0  0  0  0  0  0  0  0  0  0
   -4.0992    3.7206   -3.1799 H   0  0  0  0  0  0  0  0  0  0  0  0
   -7.1639    2.5834   -3.5438 H   0  0  0  0  0  0  0  0  0  0  0  0
   -7.5509    2.1577   -1.8086 H   0  0  0  0  0  0  0  0  0  0  0  0
   -6.9435    0.8991   -2.9166 H   0  0  0  0  0  0  0  0  0  0  0  0
    6.1025   -0.7528    3.7193 H   0  0  0  0  0  0  0  0  0  0  0  0
    8.4574   -0.0665    3.3015 H   0  0  0  0  0  0  0  0  0  0  0  0
    9.1648    0.4515    1.0794 H   0  0  0  0  0  0  0  0  0  0  0  0
    7.5776    0.3081   -0.8262 H   0  0  0  0  0  0  0  0  0  0  0  0
    5.2589   -0.3681   -0.4007 H   0  0  0  0  0  0  0  0  0  0  0  0
  1  2  1  0
  2  3  1  0
  3  4  2  0
  4  5  1  0
  5  6  2  0
  6  7  1  0
  7  8  2  0
  8  9  1  0
  9 10  1  0
 10 11  2  0
 11 12  1  0
 12 13  2  0
 13 14  1  0
 13 15  1  0
 15 16  1  0
 16 17  1  0
 17 18  2  0
 18 19  1  0
 19 20  2  0
 20 21  1  0
 21 22  2  0
 22 23  1  0
 23 24  2  0
 23 25  2  0
 23 26  1  0
 26 27  1  0
 26 28  1  0
 15 29  2  0
  5 30  1  0
 30 31  2  0
 31 32  1  0
 32 33  2  0
 33 34  1  0
 34 35  2  0
  8  3  1  0
 29 10  1  0
 35 30  1  0
 22 17  1  0
  1 36  1  0
  1 37  1  0
  1 38  1  0
  4 39  1  0
  6 40  1  0
  7 41  1  0
  9 42  1  0
 12 43  1  0
 16 44  1  0
 18 45  1  0
 19 46  1  0
 20 47  1  0
 21 48  1  0
 26 49  1  0
 27 50  1  0
 27 51  1  0
 27 52  1  0
 28 53  1  0
 28 54  1  0
 28 55  1  0
 31 56  1  0
 32 57  1  0
 33 58  1  0
 34 59  1  0
 35 60  1  0
M  END
$$$$
[H]c1c([H])c([H])c(C([H])([H])OC(=O)N([H])[C@]([H])(C(=O)N([H])[C@]([H])(C(=O)N([H])[C@]([H])(C(=O)N([H])[H])C([H])([H])c2c([H])c([H])c([H])c([H])c2[H])C([H])([H])c2c([H])n([H])c3c([H])c([H])c([H])c([H])c23)C([H])([H])C([H])(C([H])([H])[H])C([H])([H])[H])c([H])c1[H]
     RDKit          3D

 83 86  0  0  0  0  0  0  0  0999 V2000
    2.8414    0.0055   -5.0272 C   0  0  0  0  0  0  0  0  0  0  0  0
    2.8325   -0.2798   -3.5061 C   0  0  0  0  0  0  0  0  0  0  0  0
    1.5449   -1.0191   -3.2737 C   0  0  0  0  0  0  0  0  0  0  0  0
    2.9589    1.0402   -2.8674 C   0  0  0  0  0  0  0  0  0  0  0  0
    2.9914    1.1824   -1.4177 C   0  0  2  0  0  0  0  0  0  0  0  0
    4.0241    0.4991   -0.7078 N   0  0  0  0  0  0  0  0  0  0  0  0
    3.9249   -0.6801    0.0609 C   0  0  0  0  0  0  0  0  0  0  0  0
    2.8934   -1.3689    0.2555 O   0  0  0  0  0  0  0  0  0  0  0  0
    5.0688   -1.1999    0.7116 O   0  0  0  0  0  0  0  0  0  0  0  0
    4.9722   -2.3771    1.4870 C   0  0  0  0  0  0  0  0  0  0  0  0
    6.2772   -2.7149    2.0559 C   0  0  0  0  0  0  0  0  0  0  0  0
    6.3053   -3.3767    3.2660 C   0  0  0  0  0  0  0  0  0  0  0  0
    7.4734   -3.7493    3.8923 C   0  0  0  0  0  0  0  0  0  0  0  0
    8.6716   -3.4535    3.2947 C   0  0  0  0  0  0  0  0  0  0  0  0
    8.6594   -2.7846    2.0717 C   0  0  0  0  0  0  0  0  0  0  0  0
    7.4809   -2.4198    1.4596 C   0  0  0  0  0  0  0  0  0  0  0  0
    1.7363    1.3504   -0.6682 C   0  0  0  0  0  0  0  0  0  0  0  0
    1.7173    1.0294    0.5446 O   0  0  0  0  0  0  0  0  0  0  0  0
    0.5221    1.8487   -1.1709 N   0  0  0  0  0  0  0  0  0  0  0  0
   -0.6882    2.0101   -0.3332 C   0  0  1  0  0  0  0  0  0  0  0  0
   -1.0956    3.4188   -0.5354 C   0  0  0  0  0  0  0  0  0  0  0  0
   -2.2546    3.9315    0.1667 C   0  0  0  0  0  0  0  0  0  0  0  0
   -3.4974    4.2306   -0.3429 C   0  0  0  0  0  0  0  0  0  0  0  0
   -4.2838    4.7128    0.6539 N   0  0  0  0  0  0  0  0  0  0  0  0
   -3.6080    4.7440    1.8057 C   0  0  0  0  0  0  0  0  0  0  0  0
   -3.9709    5.1474    3.0773 C   0  0  0  0  0  0  0  0  0  0  0  0
   -3.0227    5.0541    4.0698 C   0  0  0  0  0  0  0  0  0  0  0  0
   -1.7463    4.5682    3.7871 C   0  0  0  0  0  0  0  0  0  0  0  0
   -1.4269    4.1826    2.5331 C   0  0  0  0  0  0  0  0  0  0  0  0
   -2.3445    4.2620    1.5235 C   0  0  0  0  0  0  0  0  0  0  0  0
   -1.6754    0.9743   -0.6777 C   0  0  0  0  0  0  0  0  0  0  0  0
   -1.3975    0.2041   -1.6424 O   0  0  0  0  0  0  0  0  0  0  0  0
   -2.9067    0.7395   -0.0363 N   0  0  0  0  0  0  0  0  0  0  0  0
   -3.7412   -0.3752   -0.5188 C   0  0  1  0  0  0  0  0  0  0  0  0
   -3.6659   -1.4888    0.5150 C   0  0  0  0  0  0  0  0  0  0  0  0
   -4.4057   -2.6910    0.2464 C   0  0  0  0  0  0  0  0  0  0  0  0
   -5.6700   -2.8939    0.7413 C   0  0  0  0  0  0  0  0  0  0  0  0
   -6.4029   -4.0328    0.5163 C   0  0  0  0  0  0  0  0  0  0  0  0
   -5.8070   -5.0311   -0.2656 C   0  0  0  0  0  0  0  0  0  0  0  0
   -4.5473   -4.8638   -0.7765 C   0  0  0  0  0  0  0  0  0  0  0  0
   -3.8619   -3.7079   -0.5204 C   0  0  0  0  0  0  0  0  0  0  0  0
   -5.0989    0.1094   -0.7886 C   0  0  0  0  0  0  0  0  0  0  0  0
   -6.1219   -0.6864   -1.4021 N   0  0  0  0  0  0  0  0  0  0  0  0
   -5.4915    1.2906   -0.5037 O   0  0  0  0  0  0  0  0  0  0  0  0
    3.6021    0.7978   -5.2419 H   0  0  0  0  0  0  0  0  0  0  0  0
    1.8427    0.2691   -5.3757 H   0  0  0  0  0  0  0  0  0  0  0  0
    3.1652   -0.8967   -5.5776 H   0  0  0  0  0  0  0  0  0  0  0  0
    3.7210   -0.9448   -3.3725 H   0  0  0  0  0  0  0  0  0  0  0  0
    1.2698   -1.1386   -2.2071 H   0  0  0  0  0  0  0  0  0  0  0  0
    1.6435   -2.0389   -3.7316 H   0  0  0  0  0  0  0  0  0  0  0  0
    0.7702   -0.5126   -3.8870 H   0  0  0  0  0  0  0  0  0  0  0  0
    2.1561    1.6931   -3.2777 H   0  0  0  0  0  0  0  0  0  0  0  0
    3.9030    1.5060   -3.2935 H   0  0  0  0  0  0  0  0  0  0  0  0
    3.3697    2.3208   -1.3013 H   0  0  0  0  0  0  0  0  0  0  0  0
    5.0257    0.8996   -0.7402 H   0  0  0  0  0  0  0  0  0  0  0  0
    4.6296   -3.2270    0.8264 H   0  0  0  0  0  0  0  0  0  0  0  0
    4.2449   -2.2220    2.3119 H   0  0  0  0  0  0  0  0  0  0  0  0
    5.3852   -3.6229    3.7612 H   0  0  0  0  0  0  0  0  0  0  0  0
    7.4299   -4.2730    4.8544 H   0  0  0  0  0  0  0  0  0  0  0  0
    9.5952   -3.7284    3.7518 H   0  0  0  0  0  0  0  0  0  0  0  0
    9.6028   -2.5402    1.5775 H   0  0  0  0  0  0  0  0  0  0  0  0
    7.4924   -1.8934    0.4935 H   0  0  0  0  0  0  0  0  0  0  0  0
    0.4362    2.1228   -2.1539 H   0  0  0  0  0  0  0  0  0  0  0  0
   -0.3374    1.7717    0.6988 H   0  0  0  0  0  0  0  0  0  0  0  0
   -0.1599    4.0384   -0.3397 H   0  0  0  0  0  0  0  0  0  0  0  0
   -1.2140    3.5559   -1.6596 H   0  0  0  0  0  0  0  0  0  0  0  0
   -3.8458    4.1197   -1.3660 H   0  0  0  0  0  0  0  0  0  0  0  0
   -5.2781    5.0170    0.5425 H   0  0  0  0  0  0  0  0  0  0  0  0
   -4.9416    5.5278    3.3372 H   0  0  0  0  0  0  0  0  0  0  0  0
   -3.2362    5.3534    5.0961 H   0  0  0  0  0  0  0  0  0  0  0  0
   -0.9768    4.4843    4.5562 H   0  0  0  0  0  0  0  0  0  0  0  0
   -0.4353    3.7909    2.2501 H   0  0  0  0  0  0  0  0  0  0  0  0
   -3.2649    1.2966    0.7527 H   0  0  0  0  0  0  0  0  0  0  0  0
   -3.2644   -0.7222   -1.4719 H   0  0  0  0  0  0  0  0  0  0  0  0
   -2.5708   -1.6828    0.6612 H   0  0  0  0  0  0  0  0  0  0  0  0
   -4.0078   -1.0145    1.4862 H   0  0  0  0  0  0  0  0  0  0  0  0
   -6.1735   -2.1331    1.3610 H   0  0  0  0  0  0  0  0  0  0  0  0
   -7.4081   -4.1829    0.9155 H   0  0  0  0  0  0  0  0  0  0  0  0
   -6.3999   -5.9235   -0.4322 H   0  0  0  0  0  0  0  0  0  0  0  0
   -4.1346   -5.6610   -1.3698 H   0  0  0  0  0  0  0  0  0  0  0  0
   -2.8703   -3.6246   -0.9472 H   0  0  0  0  0  0  0  0  0  0  0  0
   -7.0696   -0.6932   -0.9903 H   0  0  0  0  0  0  0  0  0  0  0  0
   -5.8600   -1.2299   -2.2512 H   0  0  0  0  0  0  0  0  0  0  0  0
  1  2  1  0
  2  3  1  0
  2  4  1  0
  4  5  1  0
  5  6  1  0
  6  7  1  0
  7  8  2  0
  7  9  1  0
  9 10  1  0
 10 11  1  0
 11 12  2  0
 12 13  1  0
 13 14  2  0
 14 15  1  0
 15 16  2  0
  5 17  1  0
 17 18  2  0
 17 19  1  0
 19 20  1  0
 20 21  1  0
 21 22  1  0
 22 23  2  0
 23 24  1  0
 24 25  1  0
 25 26  2  0
 26 27  1  0
 27 28  2  0
 28 29  1  0
 29 30  2  0
 20 31  1  0
 31 32  2  0
 31 33  1  0
 33 34  1  0
 34 35  1  0
 35 36  1  0
 36 37  2  0
 37 38  1  0
 38 39  2  0
 39 40  1  0
 40 41  2  0
 34 42  1  0
 42 43  1  0
 42 44  2  0
 16 11  1  0
 30 22  1  0
 41 36  1  0
 30 25  1  0
  1 45  1  0
  1 46  1  0
  1 47  1  0
  2 48  1  0
  3 49  1  0
  3 50  1  0
  3 51  1  0
  4 52  1  0
  4 53  1  0
  5 54  1  6
  6 55  1  0
 10 56  1  0
 10 57  1  0
 12 58  1  0
 13 59  1  0
 14 60  1  0
 15 61  1  0
 16 62  1  0
 19 63  1  0
 20 64  1  1
 21 65  1  0
 21 66  1  0
 23 67  1  0
 24 68  1  0
 26 69  1  0
 27 70  1  0
 28 71  1  0
 29 72  1  0
 33 73  1  0
 34 74  1  6
 35 75  1  0
 35 76  1  0
 37 77  1  0
 38 78  1  0
 39 79  1  0
 40 80  1  0
 41 81  1  0
 43 82  1  0
 43 83  1  0
M  END
$$$$
[H]c1c([H])c([H])c(-c2nnnn2[H])c(-c2c([H])c([H])c(N([H])C(=O)N([H])c3c([H])c([H])c(C(F)(F)F)c([H])c3[H])c([H])c2[H])c1[H]
     RDKit          3D

 46 49  0  0  0  0  0  0  0  0999 V2000
    9.4597    1.3066   -1.4876 F   0  0  0  0  0  0  0  0  0  0  0  0
    8.8607    0.8865   -0.3399 C   0  0  0  0  0  0  0  0  0  0  0  0
    9.5075   -0.2298    0.1234 F   0  0  0  0  0  0  0  0  0  0  0  0
    9.0295    1.9384    0.6212 F   0  0  0  0  0  0  0  0  0  0  0  0
    7.3833    0.6901   -0.5657 C   0  0  0  0  0  0  0  0  0  0  0  0
    6.5927    0.3860    0.5594 C   0  0  0  0  0  0  0  0  0  0  0  0
    5.2420    0.2486    0.4205 C   0  0  0  0  0  0  0  0  0  0  0  0
    4.5984    0.3859   -0.8140 C   0  0  0  0  0  0  0  0  0  0  0  0
    3.2019    0.2692   -0.8958 N   0  0  0  0  0  0  0  0  0  0  0  0
    2.4077   -0.6605   -0.0652 C   0  0  0  0  0  0  0  0  0  0  0  0
    3.1929   -1.4048    0.6686 O   0  0  0  0  0  0  0  0  0  0  0  0
    1.1026   -0.7028   -0.0500 N   0  0  0  0  0  0  0  0  0  0  0  0
   -0.3151   -0.7725   -0.0103 C   0  0  0  0  0  0  0  0  0  0  0  0
   -1.0936   -1.8916    0.1493 C   0  0  0  0  0  0  0  0  0  0  0  0
   -2.4417   -1.7892    0.3879 C   0  0  0  0  0  0  0  0  0  0  0  0
   -3.0738   -0.5817    0.4837 C   0  0  0  0  0  0  0  0  0  0  0  0
   -2.3187    0.5662    0.3158 C   0  0  0  0  0  0  0  0  0  0  0  0
   -0.9783    0.4710    0.0737 C   0  0  0  0  0  0  0  0  0  0  0  0
   -4.4300   -0.5013    1.0255 C   0  0  0  0  0  0  0  0  0  0  0  0
   -4.5690   -0.8640    2.4045 C   0  0  0  0  0  0  0  0  0  0  0  0
   -5.7664   -0.7093    3.0495 C   0  0  0  0  0  0  0  0  0  0  0  0
   -6.8702   -0.2040    2.3911 C   0  0  0  0  0  0  0  0  0  0  0  0
   -6.7192    0.1403    1.0569 C   0  0  0  0  0  0  0  0  0  0  0  0
   -5.4959   -0.0104    0.3661 C   0  0  0  0  0  0  0  0  0  0  0  0
   -5.4339    0.3678   -1.0282 C   0  0  0  0  0  0  0  0  0  0  0  0
   -4.4500    0.2520   -1.9265 N   0  0  0  0  0  0  0  0  0  0  0  0
   -4.9230    0.7116   -3.0843 N   0  0  0  0  0  0  0  0  0  0  0  0
   -6.1766    1.1169   -2.9497 N   0  0  0  0  0  0  0  0  0  0  0  0
   -6.4894    0.9087   -1.6981 N   0  0  0  0  0  0  0  0  0  0  0  0
    5.3963    0.6745   -1.8883 C   0  0  0  0  0  0  0  0  0  0  0  0
    6.7589    0.8277   -1.7683 C   0  0  0  0  0  0  0  0  0  0  0  0
    7.1137    0.2712    1.4949 H   0  0  0  0  0  0  0  0  0  0  0  0
    4.6798    0.0591    1.3209 H   0  0  0  0  0  0  0  0  0  0  0  0
    2.6248    0.8347   -1.5563 H   0  0  0  0  0  0  0  0  0  0  0  0
    1.1699   -1.6036    0.9920 H   0  0  0  0  0  0  0  0  0  0  0  0
   -0.5521   -2.8644    0.0793 H   0  0  0  0  0  0  0  0  0  0  0  0
   -3.0169   -2.7143    0.5018 H   0  0  0  0  0  0  0  0  0  0  0  0
   -2.8193    1.5378    0.3705 H   0  0  0  0  0  0  0  0  0  0  0  0
   -0.3394    1.3691   -0.0626 H   0  0  0  0  0  0  0  0  0  0  0  0
   -3.7118   -1.2541    2.8861 H   0  0  0  0  0  0  0  0  0  0  0  0
   -5.8812   -0.9881    4.0718 H   0  0  0  0  0  0  0  0  0  0  0  0
   -7.8319   -0.0578    2.8664 H   0  0  0  0  0  0  0  0  0  0  0  0
   -7.5636    0.5505    0.5243 H   0  0  0  0  0  0  0  0  0  0  0  0
   -7.4676    1.1278   -1.3297 H   0  0  0  0  0  0  0  0  0  0  0  0
    4.9984    0.8144   -2.8802 H   0  0  0  0  0  0  0  0  0  0  0  0
    7.4080    1.0918   -2.6355 H   0  0  0  0  0  0  0  0  0  0  0  0
  1  2  1  0
  2  3  1  0
  2  4  1  0
  2  5  1  0
  5  6  2  0
  6  7  1  0
  7  8  2  0
  8  9  1  0
  9 10  1  0
 10 11  2  0
 10 12  1  0
 12 13  1  0
 13 14  2  0
 14 15  1  0
 15 16  2  0
 16 17  1  0
 17 18  2  0
 16 19  1  0
 19 20  2  0
 20 21  1  0
 21 22  2  0
 22 23  1  0
 23 24  2  0
 24 25  1  0
 25 26  2  0
 26 27  1  0
 27 28  2  0
 28 29  1  0
  8 30  1  0
 30 31  2  0
 31  5  1  0
 18 13  1  0
 24 19  1  0
 29 25  1  0
  6 32  1  0
  7 33  1  0
  9 34  1  0
 12 35  1  0
 14 36  1  0
 15 37  1  0
 17 38  1  0
 18 39  1  0
 20 40  1  0
 21 41  1  0
 22 42  1  0
 23 43  1  0
 29 44  1  0
 30 45  1  0
 31 46  1  0
M  END
$$$$
[H]c1nc(C(C([H])([H])[H])(C([H])([H])[H])C([H])([H])[H])c([H])c(-c2c([H])c(C(=O)N3C([H])([H])C([H])([H])N(S(=O)(=O)C([H])([H])[H])C([H])([H])C3([H])[H])c([H])c(C(F)(F)F)c2[H])c1[H]
     RDKit          3D

 58 60  0  0  0  0  0  0  0  0999 V2000
    8.4260    1.2000    0.2461 C   0  0  0  0  0  0  0  0  0  0  0  0
    7.1374    0.0195    0.1484 S   0  0  0  0  0  0  0  0  0  0  0  0
    7.7611   -1.3618    0.0022 O   0  0  0  0  0  0  0  0  0  0  0  0
    6.3076   -0.0357    1.3762 O   0  0  0  0  0  0  0  0  0  0  0  0
    6.1459    0.2463   -1.2391 N   0  0  0  0  0  0  0  0  0  0  0  0
    5.4719    1.5192   -1.2744 C   0  0  0  0  0  0  0  0  0  0  0  0
    4.4560    1.6737   -0.2086 C   0  0  0  0  0  0  0  0  0  0  0  0
    3.5280    0.5171   -0.2790 N   0  0  0  0  0  0  0  0  0  0  0  0
    3.9823   -0.7653   -0.6398 C   0  0  0  0  0  0  0  0  0  0  0  0
    5.2457   -0.8476   -1.4699 C   0  0  0  0  0  0  0  0  0  0  0  0
    2.1795    0.8455   -0.0096 C   0  0  0  0  0  0  0  0  0  0  0  0
    1.9664    2.1218    0.2311 O   0  0  0  0  0  0  0  0  0  0  0  0
    0.9890    0.0369    0.0386 C   0  0  0  0  0  0  0  0  0  0  0  0
   -0.2587    0.6957   -0.0007 C   0  0  0  0  0  0  0  0  0  0  0  0
   -1.4664    0.0661   -0.0004 C   0  0  0  0  0  0  0  0  0  0  0  0
   -1.4426   -1.3295    0.0488 C   0  0  0  0  0  0  0  0  0  0  0  0
   -0.2390   -1.9967    0.0953 C   0  0  0  0  0  0  0  0  0  0  0  0
    0.9806   -1.3329    0.0917 C   0  0  0  0  0  0  0  0  0  0  0  0
   -0.1942   -3.4825    0.1655 C   0  0  0  0  0  0  0  0  0  0  0  0
   -0.8613   -3.9749   -0.9263 F   0  0  0  0  0  0  0  0  0  0  0  0
   -0.8894   -3.8738    1.2995 F   0  0  0  0  0  0  0  0  0  0  0  0
    1.0810   -3.9594    0.1911 F   0  0  0  0  0  0  0  0  0  0  0  0
   -2.7318    0.7878    0.0034 C   0  0  0  0  0  0  0  0  0  0  0  0
   -2.8309    2.0624   -0.5025 C   0  0  0  0  0  0  0  0  0  0  0  0
   -4.0526    2.7232   -0.5808 C   0  0  0  0  0  0  0  0  0  0  0  0
   -5.1828    2.1181   -0.1579 N   0  0  0  0  0  0  0  0  0  0  0  0
   -5.1239    0.8784    0.3355 C   0  0  0  0  0  0  0  0  0  0  0  0
   -3.8960    0.1966    0.4233 C   0  0  0  0  0  0  0  0  0  0  0  0
   -6.3884    0.2100    0.7109 C   0  0  0  0  0  0  0  0  0  0  0  0
   -6.6962   -0.9363   -0.2615 C   0  0  0  0  0  0  0  0  0  0  0  0
   -7.5813    1.1671    0.5822 C   0  0  0  0  0  0  0  0  0  0  0  0
   -6.3380   -0.3686    2.0927 C   0  0  0  0  0  0  0  0  0  0  0  0
    9.2567    0.7604    0.8657 H   0  0  0  0  0  0  0  0  0  0  0  0
    8.8861    1.3757   -0.7492 H   0  0  0  0  0  0  0  0  0  0  0  0
    8.0983    2.1158    0.7652 H   0  0  0  0  0  0  0  0  0  0  0  0
    6.2285    2.3030   -1.2226 H   0  0  0  0  0  0  0  0  0  0  0  0
    4.9926    1.5749   -2.2983 H   0  0  0  0  0  0  0  0  0  0  0  0
    4.8678    1.8191    0.7811 H   0  0  0  0  0  0  0  0  0  0  0  0
    3.8926    2.6227   -0.4528 H   0  0  0  0  0  0  0  0  0  0  0  0
    4.0568   -1.4110    0.2420 H   0  0  0  0  0  0  0  0  0  0  0  0
    3.1966   -1.2090   -1.3267 H   0  0  0  0  0  0  0  0  0  0  0  0
    5.0138   -0.8412   -2.5528 H   0  0  0  0  0  0  0  0  0  0  0  0
    5.7511   -1.7867   -1.2281 H   0  0  0  0  0  0  0  0  0  0  0  0
   -0.2789    1.7829   -0.0322 H   0  0  0  0  0  0  0  0  0  0  0  0
   -2.3814   -1.8433    0.0472 H   0  0  0  0  0  0  0  0  0  0  0  0
    1.8659   -1.9507    0.1857 H   0  0  0  0  0  0  0  0  0  0  0  0
   -1.9813    2.6074   -0.8546 H   0  0  0  0  0  0  0  0  0  0  0  0
   -4.1683    3.7370   -0.9714 H   0  0  0  0  0  0  0  0  0  0  0  0
   -3.9284   -0.7799    0.8289 H   0  0  0  0  0  0  0  0  0  0  0  0
   -7.7808   -1.0991   -0.2365 H   0  0  0  0  0  0  0  0  0  0  0  0
   -6.4461   -0.5329   -1.2908 H   0  0  0  0  0  0  0  0  0  0  0  0
   -6.1133   -1.8381   -0.0357 H   0  0  0  0  0  0  0  0  0  0  0  0
   -8.4559    0.6154    1.0325 H   0  0  0  0  0  0  0  0  0  0  0  0
   -7.7343    1.3598   -0.4960 H   0  0  0  0  0  0  0  0  0  0  0  0
   -7.3607    2.0746    1.1625 H   0  0  0  0  0  0  0  0  0  0  0  0
   -7.3710   -0.5941    2.4504 H   0  0  0  0  0  0  0  0  0  0  0  0
   -5.7685   -1.3255    2.0816 H   0  0  0  0  0  0  0  0  0  0  0  0
   -5.8232    0.3342    2.7730 H   0  0  0  0  0  0  0  0  0  0  0  0
  1  2  1  0
  2  3  2  0
  2  4  2  0
  2  5  1  0
  5  6  1  0
  6  7  1  0
  7  8  1  0
  8  9  1  0
  9 10  1  0
  8 11  1  0
 11 12  2  0
 11 13  1  0
 13 14  2  0
 14 15  1  0
 15 16  2  0
 16 17  1  0
 17 18  2  0
 17 19  1  0
 19 20  1  0
 19 21  1  0
 19 22  1  0
 15 23  1  0
 23 24  2  0
 24 25  1  0
 25 26  2  0
 26 27  1  0
 27 28  2  0
 27 29  1  0
 29 30  1  0
 29 31  1  0
 29 32  1  0
 10  5  1  0
 18 13  1  0
 28 23  1  0
  1 33  1  0
  1 34  1  0
  1 35  1  0
  6 36  1  0
  6 37  1  0
  7 38  1  0
  7 39  1  0
  9 40  1  0
  9 41  1  0
 10 42  1  0
 10 43  1  0
 14 44  1  0
 16 45  1  0
 18 46  1  0
 24 47  1  0
 25 48  1  0
 28 49  1  0
 30 50  1  0
 30 51  1  0
 30 52  1  0
 31 53  1  0
 31 54  1  0
 31 55  1  0
 32 56  1  0
 32 57  1  0
 32 58  1  0
M  END
$$$$
[H]c1nc2c([H])c(OC([H])([H])C([H])([H])C([H])([H])N3C([H])([H])C([H])([H])OC([H])([H])C3([H])[H])c(OC([H])([H])[H])c([H])c2c(Oc2c([H])c([H])c(N([H])C(=O)c3c([H])c([H])c([H])c(C(F)(F)F)c3[H])c([H])c2[H])c1[H]
     RDKit          3D

 72 76  0  0  0  0  0  0  0  0999 V2000
   -2.4329    0.1244    3.2246 C   0  0  0  0  0  0  0  0  0  0  0  0
   -3.1449   -0.5692    2.1222 O   0  0  0  0  0  0  0  0  0  0  0  0
   -2.5808   -0.4670    0.8812 C   0  0  0  0  0  0  0  0  0  0  0  0
   -1.3760    0.2142    0.6775 C   0  0  0  0  0  0  0  0  0  0  0  0
   -0.8731    0.3565   -0.5695 C   0  0  0  0  0  0  0  0  0  0  0  0
    0.2828    1.0305   -0.8657 C   0  0  0  0  0  0  0  0  0  0  0  0
    1.0899    1.5335    0.1792 O   0  0  0  0  0  0  0  0  0  0  0  0
    2.4069    0.8987   -0.0142 C   0  0  0  0  0  0  0  0  0  0  0  0
    3.5057    1.4603   -0.3299 C   0  0  0  0  0  0  0  0  0  0  0  0
    4.6453    0.5928   -0.5121 C   0  0  0  0  0  0  0  0  0  0  0  0
    4.6831   -0.6694   -0.3597 C   0  0  0  0  0  0  0  0  0  0  0  0
    5.8585   -1.5707   -0.1766 N   0  0  0  0  0  0  0  0  0  0  0  0
    6.9891   -0.7717   -0.0407 C   0  0  0  0  0  0  0  0  0  0  0  0
    6.7977    0.5389   -0.3195 O   0  0  0  0  0  0  0  0  0  0  0  0
    8.4209   -0.8854    0.3475 C   0  0  0  0  0  0  0  0  0  0  0  0
    9.1903   -1.9993    0.0328 C   0  0  0  0  0  0  0  0  0  0  0  0
   10.5225   -1.9091    0.1630 C   0  0  0  0  0  0  0  0  0  0  0  0
   11.1248   -0.7073    0.6202 C   0  0  0  0  0  0  0  0  0  0  0  0
   10.3771    0.3792    0.9542 C   0  0  0  0  0  0  0  0  0  0  0  0
    8.9608    0.2758    0.8106 C   0  0  0  0  0  0  0  0  0  0  0  0
   10.8546    1.7000    1.3793 C   0  0  0  0  0  0  0  0  0  0  0  0
   10.9001    2.5145    0.2683 F   0  0  0  0  0  0  0  0  0  0  0  0
   10.0276    2.2727    2.3094 F   0  0  0  0  0  0  0  0  0  0  0  0
   12.1251    1.5932    1.9103 F   0  0  0  0  0  0  0  0  0  0  0  0
    3.4241   -1.2743    0.0042 C   0  0  0  0  0  0  0  0  0  0  0  0
    2.2995   -0.5216    0.1797 C   0  0  0  0  0  0  0  0  0  0  0  0
    0.7574    1.2161   -2.1744 C   0  0  0  0  0  0  0  0  0  0  0  0
    0.0141    0.6775   -3.1684 C   0  0  0  0  0  0  0  0  0  0  0  0
   -1.0704    0.0048   -2.9404 N   0  0  0  0  0  0  0  0  0  0  0  0
   -1.5578   -0.1866   -1.6802 C   0  0  0  0  0  0  0  0  0  0  0  0
   -2.6932   -0.8659   -1.4650 C   0  0  0  0  0  0  0  0  0  0  0  0
   -3.2810   -1.0490   -0.1686 C   0  0  0  0  0  0  0  0  0  0  0  0
   -4.3060   -1.7108   -0.0871 O   0  0  0  0  0  0  0  0  0  0  0  0
   -5.4279   -2.4398   -0.0256 C   0  0  0  0  0  0  0  0  0  0  0  0
   -6.4452   -1.6866   -0.9107 C   0  0  0  0  0  0  0  0  0  0  0  0
   -6.5162   -0.2658   -0.4032 C   0  0  0  0  0  0  0  0  0  0  0  0
   -7.3903    0.4912   -1.2482 N   0  0  0  0  0  0  0  0  0  0  0  0
   -8.8039    0.0885   -1.0125 C   0  0  0  0  0  0  0  0  0  0  0  0
   -9.1235    0.2657    0.4279 C   0  0  0  0  0  0  0  0  0  0  0  0
   -8.6424    1.4108    0.9814 O   0  0  0  0  0  0  0  0  0  0  0  0
   -8.2890    2.3505    0.0836 C   0  0  0  0  0  0  0  0  0  0  0  0
   -7.2201    1.9063   -0.9061 C   0  0  0  0  0  0  0  0  0  0  0  0
   -2.1304    1.1124    2.8912 H   0  0  0  0  0  0  0  0  0  0  0  0
   -3.3029    0.3061    3.9627 H   0  0  0  0  0  0  0  0  0  0  0  0
   -1.7577   -0.5330    3.6920 H   0  0  0  0  0  0  0  0  0  0  0  0
   -0.8244    0.6443    1.4905 H   0  0  0  0  0  0  0  0  0  0  0  0
    3.6181    2.5177   -0.3982 H   0  0  0  0  0  0  0  0  0  0  0  0
    5.4687    1.2005   -0.9408 H   0  0  0  0  0  0  0  0  0  0  0  0
    5.7572   -2.5260   -0.2248 H   0  0  0  0  0  0  0  0  0  0  0  0
    8.7146   -2.9459   -0.3087 H   0  0  0  0  0  0  0  0  0  0  0  0
   11.2038   -2.7363   -0.0743 H   0  0  0  0  0  0  0  0  0  0  0  0
   12.1968   -0.6579    0.6630 H   0  0  0  0  0  0  0  0  0  0  0  0
    8.4036    1.1121    1.1775 H   0  0  0  0  0  0  0  0  0  0  0  0
    3.4639   -2.3479    0.0810 H   0  0  0  0  0  0  0  0  0  0  0  0
    1.3580   -0.9321    0.4533 H   0  0  0  0  0  0  0  0  0  0  0  0
    1.6526    1.7881   -2.2686 H   0  0  0  0  0  0  0  0  0  0  0  0
    0.3810    0.8959   -4.2126 H   0  0  0  0  0  0  0  0  0  0  0  0
   -3.1834   -1.3234   -2.2957 H   0  0  0  0  0  0  0  0  0  0  0  0
   -5.9295   -2.5801    0.9200 H   0  0  0  0  0  0  0  0  0  0  0  0
   -5.3083   -3.3893   -0.5441 H   0  0  0  0  0  0  0  0  0  0  0  0
   -6.1266   -1.7672   -1.9633 H   0  0  0  0  0  0  0  0  0  0  0  0
   -7.4003   -2.1176   -0.8220 H   0  0  0  0  0  0  0  0  0  0  0  0
   -5.5842    0.2558   -0.3858 H   0  0  0  0  0  0  0  0  0  0  0  0
   -6.8361   -0.3109    0.6708 H   0  0  0  0  0  0  0  0  0  0  0  0
   -9.4079    0.7973   -1.6372 H   0  0  0  0  0  0  0  0  0  0  0  0
   -8.9467   -0.9331   -1.3813 H   0  0  0  0  0  0  0  0  0  0  0  0
   -8.8127   -0.6570    0.9508 H   0  0  0  0  0  0  0  0  0  0  0  0
  -10.2575    0.2988    0.5114 H   0  0  0  0  0  0  0  0  0  0  0  0
   -9.1491    2.7160   -0.4798 H   0  0  0  0  0  0  0  0  0  0  0  0
   -7.8036    3.2165    0.6707 H   0  0  0  0  0  0  0  0  0  0  0  0
   -6.1981    1.9884   -0.5280 H   0  0  0  0  0  0  0  0  0  0  0  0
   -7.3425    2.5610   -1.7897 H   0  0  0  0  0  0  0  0  0  0  0  0
  1  2  1  0
  2  3  1  0
  3  4  2  0
  4  5  1  0
  5  6  2  0
  6  7  1  0
  7  8  1  0
  8  9  2  0
  9 10  1  0
 10 11  2  0
 11 12  1  0
 12 13  1  0
 13 14  2  0
 13 15  1  0
 15 16  2  0
 16 17  1  0
 17 18  2  0
 18 19  1  0
 19 20  2  0
 19 21  1  0
 21 22  1  0
 21 23  1  0
 21 24  1  0
 11 25  1  0
 25 26  2  0
  6 27  1  0
 27 28  2  0
 28 29  1  0
 29 30  2  0
 30 31  1  0
 31 32  2  0
 32 33  1  0
 33 34  1  0
 34 35  1  0
 35 36  1  0
 36 37  1  0
 37 38  1  0
 38 39  1  0
 39 40  1  0
 40 41  1  0
 41 42  1  0
 32  3  1  0
 42 37  1  0
 30  5  1  0
 26  8  1  0
 20 15  1  0
  1 43  1  0
  1 44  1  0
  1 45  1  0
  4 46  1  0
  9 47  1  0
 10 48  1  0
 12 49  1  0
 16 50  1  0
 17 51  1  0
 18 52  1  0
 20 53  1  0
 25 54  1  0
 26 55  1  0
 27 56  1  0
 28 57  1  0
 31 58  1  0
 34 59  1  0
 34 60  1  0
 35 61  1  0
 35 62  1  0
 36 63  1  0
 36 64  1  0
 38 65  1  0
 38 66  1  0
 39 67  1  0
 39 68  1  0
 41 69  1  0
 41 70  1  0
 42 71  1  0
 42 72  1  0
M  END
$$$$
[H]OC([H])([H])[C@@]1([H])O[C@@]([H])(n2c([H])nc3c(N([H])[H])nc([H])nc32)[C@]([H])(O[H])[C@@]([H])(O[H])[C@]1([H])O[H]
     RDKit          3D

 36 38  0  0  0  0  0  0  0  0999 V2000
   -2.8022   -1.8154    2.4114 O   0  0  0  0  0  0  0  0  0  0  0  0
   -3.1473   -1.4143    1.1400 C   0  0  0  0  0  0  0  0  0  0  0  0
   -2.4448   -0.0861    0.8256 C   0  0  1  0  0  0  0  0  0  0  0  0
   -1.0890   -0.3539    0.9269 O   0  0  0  0  0  0  0  0  0  0  0  0
   -0.2892    0.6251    0.3768 C   0  0  2  0  0  0  0  0  0  0  0  0
   -0.5425    0.6629   -1.1018 C   0  0  2  0  0  0  0  0  0  0  0  0
    0.2957    1.5689   -1.7593 O   0  0  0  0  0  0  0  0  0  0  0  0
   -1.9596    1.2315   -1.2609 C   0  0  1  0  0  0  0  0  0  0  0  0
   -2.3330    1.2064   -2.6161 O   0  0  0  0  0  0  0  0  0  0  0  0
   -2.8957    0.3466   -0.5188 C   0  0  2  0  0  0  0  0  0  0  0  0
   -4.1179    1.0440   -0.3788 O   0  0  0  0  0  0  0  0  0  0  0  0
    1.0792    0.3620    0.7380 N   0  0  0  0  0  0  0  0  0  0  0  0
    1.6331    0.7515    1.8784 C   0  0  0  0  0  0  0  0  0  0  0  0
    2.9146    0.3440    1.8947 N   0  0  0  0  0  0  0  0  0  0  0  0
    3.1851   -0.3083    0.7637 C   0  0  0  0  0  0  0  0  0  0  0  0
    4.3164   -0.9332    0.2468 C   0  0  0  0  0  0  0  0  0  0  0  0
    5.5074   -0.9444    0.9984 N   0  0  0  0  0  0  0  0  0  0  0  0
    4.2023   -1.5036   -0.9697 N   0  0  0  0  0  0  0  0  0  0  0  0
    3.0594   -1.4769   -1.6589 C   0  0  0  0  0  0  0  0  0  0  0  0
    1.9570   -0.8815   -1.1826 N   0  0  0  0  0  0  0  0  0  0  0  0
    2.0215   -0.2985    0.0271 C   0  0  0  0  0  0  0  0  0  0  0  0
   -2.7835   -1.0700    3.0616 H   0  0  0  0  0  0  0  0  0  0  0  0
   -2.7220   -2.1473    0.4159 H   0  0  0  0  0  0  0  0  0  0  0  0
   -4.2365   -1.3413    0.9747 H   0  0  0  0  0  0  0  0  0  0  0  0
   -2.8010    0.6369    1.5877 H   0  0  0  0  0  0  0  0  0  0  0  0
   -0.5448    1.6476    0.7657 H   0  0  0  0  0  0  0  0  0  0  0  0
   -0.5424   -0.3395   -1.5797 H   0  0  0  0  0  0  0  0  0  0  0  0
    0.3896    1.2606   -2.6959 H   0  0  0  0  0  0  0  0  0  0  0  0
   -1.9163    2.2747   -0.8871 H   0  0  0  0  0  0  0  0  0  0  0  0
   -2.2074    2.1043   -2.9976 H   0  0  0  0  0  0  0  0  0  0  0  0
   -3.1414   -0.5297   -1.1849 H   0  0  0  0  0  0  0  0  0  0  0  0
   -4.0979    1.9138   -0.8389 H   0  0  0  0  0  0  0  0  0  0  0  0
    1.1583    1.3141    2.6970 H   0  0  0  0  0  0  0  0  0  0  0  0
    6.2494   -0.2622    0.7939 H   0  0  0  0  0  0  0  0  0  0  0  0
    5.6317   -1.6355    1.7503 H   0  0  0  0  0  0  0  0  0  0  0  0
    3.0135   -1.9536   -2.6435 H   0  0  0  0  0  0  0  0  0  0  0  0
  1  2  1  0
  2  3  1  0
  3  4  1  0
  4  5  1  0
  5  6  1  0
  6  7  1  0
  6  8  1  0
  8  9  1  0
  8 10  1  0
 10 11  1  0
  5 12  1  0
 12 13  1  0
 13 14  2  0
 14 15  1  0
 15 16  2  0
 16 17  1  0
 16 18  1  0
 18 19  2  0
 19 20  1  0
 20 21  2  0
 10  3  1  0
 21 12  1  0
 21 15  1  0
  1 22  1  0
  2 23  1  0
  2 24  1  0
  3 25  1  1
  5 26  1  1
  6 27  1  6
  7 28  1  0
  8 29  1  1
  9 30  1  0
 10 31  1  6
 11 32  1  0
 13 33  1  0
 17 34  1  0
 17 35  1  0
 19 36  1  0
M  END
$$$$
[H]OC([H])([H])[C@@]1([H])O[C@]([H])(n2c([H])nc3c(N([H])C4([H])C([H])([H])C4([H])[H])nc(-c4c([H])c([H])c([H])c([H])c4[H])nc32)[C@]([H])(O[H])[C@]1([H])O[H]
     RDKit          3D

 49 53  0  0  0  0  0  0  0  0999 V2000
    6.3329    1.1626    0.9606 O   0  0  0  0  0  0  0  0  0  0  0  0
    5.8675    1.5445   -0.3097 C   0  0  0  0  0  0  0  0  0  0  0  0
    4.6244    0.6832   -0.5718 C   0  0  1  0  0  0  0  0  0  0  0  0
    3.6708    0.9065    0.3804 O   0  0  0  0  0  0  0  0  0  0  0  0
    2.4480    1.0545   -0.2130 C   0  0  1  0  0  0  0  0  0  0  0  0
    2.6784    1.5133   -1.6165 C   0  0  2  0  0  0  0  0  0  0  0  0
    1.7287    1.0893   -2.5110 O   0  0  0  0  0  0  0  0  0  0  0  0
    4.0578    0.9856   -1.9147 C   0  0  2  0  0  0  0  0  0  0  0  0
    3.9941   -0.1177   -2.7611 O   0  0  0  0  0  0  0  0  0  0  0  0
    1.6131   -0.1228   -0.1195 N   0  0  0  0  0  0  0  0  0  0  0  0
    2.0145   -1.3775   -0.3048 C   0  0  0  0  0  0  0  0  0  0  0  0
    0.9718   -2.1817   -0.1366 N   0  0  0  0  0  0  0  0  0  0  0  0
   -0.1150   -1.4564    0.1591 C   0  0  0  0  0  0  0  0  0  0  0  0
   -1.4265   -1.7919    0.4227 C   0  0  0  0  0  0  0  0  0  0  0  0
   -1.7856   -3.1587    0.3966 N   0  0  0  0  0  0  0  0  0  0  0  0
   -3.1444   -3.5528    0.6662 C   0  0  0  0  0  0  0  0  0  0  0  0
   -3.5266   -4.9992    0.6390 C   0  0  0  0  0  0  0  0  0  0  0  0
   -3.9928   -4.0961   -0.4558 C   0  0  0  0  0  0  0  0  0  0  0  0
   -2.2840   -0.8071    0.6878 N   0  0  0  0  0  0  0  0  0  0  0  0
   -1.9234    0.4856    0.7079 C   0  0  0  0  0  0  0  0  0  0  0  0
   -0.6299    0.7732    0.4446 N   0  0  0  0  0  0  0  0  0  0  0  0
    0.3052   -0.1525    0.1669 C   0  0  0  0  0  0  0  0  0  0  0  0
   -2.8732    1.5529    0.9998 C   0  0  0  0  0  0  0  0  0  0  0  0
   -4.1900    1.2896    1.2701 C   0  0  0  0  0  0  0  0  0  0  0  0
   -5.0760    2.3142    1.5446 C   0  0  0  0  0  0  0  0  0  0  0  0
   -4.6323    3.6165    1.5470 C   0  0  0  0  0  0  0  0  0  0  0  0
   -3.3047    3.9088    1.2766 C   0  0  0  0  0  0  0  0  0  0  0  0
   -2.4476    2.8607    1.0066 C   0  0  0  0  0  0  0  0  0  0  0  0
    6.0923    0.2269    1.1790 H   0  0  0  0  0  0  0  0  0  0  0  0
    6.6434    1.2348   -1.0506 H   0  0  0  0  0  0  0  0  0  0  0  0
    5.6434    2.6105   -0.3183 H   0  0  0  0  0  0  0  0  0  0  0  0
    5.0126   -0.3766   -0.5639 H   0  0  0  0  0  0  0  0  0  0  0  0
    1.9198    1.8936    0.3281 H   0  0  0  0  0  0  0  0  0  0  0  0
    2.7694    2.6390   -1.6229 H   0  0  0  0  0  0  0  0  0  0  0  0
    1.4395    1.8671   -3.0511 H   0  0  0  0  0  0  0  0  0  0  0  0
    4.6703    1.7512   -2.4499 H   0  0  0  0  0  0  0  0  0  0  0  0
    4.6195   -0.8366   -2.4898 H   0  0  0  0  0  0  0  0  0  0  0  0
    3.0301   -1.7365   -0.5566 H   0  0  0  0  0  0  0  0  0  0  0  0
   -1.0733   -3.8739    0.1842 H   0  0  0  0  0  0  0  0  0  0  0  0
   -3.7409   -2.9534    1.4039 H   0  0  0  0  0  0  0  0  0  0  0  0
   -4.2816   -5.3804    1.3866 H   0  0  0  0  0  0  0  0  0  0  0  0
   -2.7687   -5.7511    0.3613 H   0  0  0  0  0  0  0  0  0  0  0  0
   -5.0851   -3.8593   -0.4815 H   0  0  0  0  0  0  0  0  0  0  0  0
   -3.5590   -4.1805   -1.4678 H   0  0  0  0  0  0  0  0  0  0  0  0
   -4.5800    0.2799    1.2783 H   0  0  0  0  0  0  0  0  0  0  0  0
   -6.0960    2.0638    1.7504 H   0  0  0  0  0  0  0  0  0  0  0  0
   -5.2897    4.4514    1.7565 H   0  0  0  0  0  0  0  0  0  0  0  0
   -2.9069    4.9055    1.2656 H   0  0  0  0  0  0  0  0  0  0  0  0
   -1.4142    3.0982    0.7969 H   0  0  0  0  0  0  0  0  0  0  0  0
  1  2  1  0
  2  3  1  0
  3  4  1  0
  4  5  1  0
  5  6  1  0
  6  7  1  0
  6  8  1  0
  8  9  1  0
  5 10  1  0
 10 11  1  0
 11 12  2  0
 12 13  1  0
 13 14  2  0
 14 15  1  0
 15 16  1  0
 16 17  1  0
 17 18  1  0
 14 19  1  0
 19 20  2  0
 20 21  1  0
 21 22  2  0
 20 23  1  0
 23 24  2  0
 24 25  1  0
 25 26  2  0
 26 27  1  0
 27 28  2  0
  8  3  1  0
 22 10  1  0
 28 23  1  0
 22 13  1  0
 18 16  1  0
  1 29  1  0
  2 30  1  0
  2 31  1  0
  3 32  1  6
  5 33  1  1
  6 34  1  1
  7 35  1  0
  8 36  1  6
  9 37  1  0
 11 38  1  0
 15 39  1  0
 16 40  1  0
 17 41  1  0
 17 42  1  0
 18 43  1  0
 18 44  1  0
 24 45  1  0
 25 46  1  0
 26 47  1  0
 27 48  1  0
 28 49  1  0
M  END
$$$$
[H]OC([H])([H])[C@@]1([H])O[C@@]([H])(n2c([H])nc3c(N([H])C([H])([H])c4c([H])c([H])c([H])c(C(F)(F)F)c4[H])nc([H])nc32)[C@]([H])(O[H])[C@]1([H])O[H]
     RDKit          3D

 48 51  0  0  0  0  0  0  0  0999 V2000
   -7.4035    1.5192   -0.5307 O   0  0  0  0  0  0  0  0  0  0  0  0
   -6.6519    0.6939    0.2946 C   0  0  0  0  0  0  0  0  0  0  0  0
   -5.2663    0.5537   -0.2270 C   0  0  1  0  0  0  0  0  0  0  0  0
   -4.4640   -0.2640    0.6095 O   0  0  0  0  0  0  0  0  0  0  0  0
   -3.3210   -0.3176   -0.2666 C   0  0  2  0  0  0  0  0  0  0  0  0
   -3.9261   -1.0015   -1.4193 C   0  0  2  0  0  0  0  0  0  0  0  0
   -3.2108   -0.9800   -2.6054 O   0  0  0  0  0  0  0  0  0  0  0  0
   -5.2413   -0.1706   -1.5824 C   0  0  2  0  0  0  0  0  0  0  0  0
   -4.9899    0.7821   -2.5384 O   0  0  0  0  0  0  0  0  0  0  0  0
   -2.1889   -0.8119    0.4034 N   0  0  0  0  0  0  0  0  0  0  0  0
   -2.0514   -1.5041    1.5269 C   0  0  0  0  0  0  0  0  0  0  0  0
   -0.7705   -1.6993    1.8556 N   0  0  0  0  0  0  0  0  0  0  0  0
   -0.0063   -1.0947    0.8888 C   0  0  0  0  0  0  0  0  0  0  0  0
    1.3800   -0.9980    0.7126 C   0  0  0  0  0  0  0  0  0  0  0  0
    2.2344   -1.5051    1.7267 N   0  0  0  0  0  0  0  0  0  0  0  0
    3.6574   -1.5234    1.7079 C   0  0  0  0  0  0  0  0  0  0  0  0
    4.3434   -0.3263    1.2202 C   0  0  0  0  0  0  0  0  0  0  0  0
    3.8954    0.9434    1.4322 C   0  0  0  0  0  0  0  0  0  0  0  0
    4.5597    2.0719    0.9473 C   0  0  0  0  0  0  0  0  0  0  0  0
    5.7189    1.9200    0.2251 C   0  0  0  0  0  0  0  0  0  0  0  0
    6.2162    0.6605   -0.0161 C   0  0  0  0  0  0  0  0  0  0  0  0
    5.5330   -0.4491    0.4803 C   0  0  0  0  0  0  0  0  0  0  0  0
    7.4548    0.4684   -0.7881 C   0  0  0  0  0  0  0  0  0  0  0  0
    8.4466   -0.0849   -0.0064 F   0  0  0  0  0  0  0  0  0  0  0  0
    7.2110   -0.3999   -1.8615 F   0  0  0  0  0  0  0  0  0  0  0  0
    7.9254    1.6189   -1.3259 F   0  0  0  0  0  0  0  0  0  0  0  0
    1.7910   -0.3474   -0.3850 N   0  0  0  0  0  0  0  0  0  0  0  0
    0.9107    0.1862   -1.2664 C   0  0  0  0  0  0  0  0  0  0  0  0
   -0.4111    0.0846   -1.0776 N   0  0  0  0  0  0  0  0  0  0  0  0
   -0.9129   -0.5569   -0.0008 C   0  0  0  0  0  0  0  0  0  0  0  0
   -7.3481    2.4855   -0.3247 H   0  0  0  0  0  0  0  0  0  0  0  0
   -6.5938    1.0253    1.3530 H   0  0  0  0  0  0  0  0  0  0  0  0
   -7.1873   -0.3136    0.2545 H   0  0  0  0  0  0  0  0  0  0  0  0
   -4.7390    1.5253   -0.3002 H   0  0  0  0  0  0  0  0  0  0  0  0
   -3.2085    0.7788   -0.5422 H   0  0  0  0  0  0  0  0  0  0  0  0
   -4.2803   -2.0437   -1.2475 H   0  0  0  0  0  0  0  0  0  0  0  0
   -3.2647   -0.1091   -3.0790 H   0  0  0  0  0  0  0  0  0  0  0  0
   -6.1055   -0.8128   -1.7294 H   0  0  0  0  0  0  0  0  0  0  0  0
   -5.3096    1.6667   -2.2031 H   0  0  0  0  0  0  0  0  0  0  0  0
   -2.8739   -1.8719    2.1041 H   0  0  0  0  0  0  0  0  0  0  0  0
    1.7286   -1.9296    2.5924 H   0  0  0  0  0  0  0  0  0  0  0  0
    4.0475   -2.3921    1.1361 H   0  0  0  0  0  0  0  0  0  0  0  0
    4.0112   -1.7639    2.7800 H   0  0  0  0  0  0  0  0  0  0  0  0
    2.9749    1.1513    2.0043 H   0  0  0  0  0  0  0  0  0  0  0  0
    4.1883    3.0721    1.1147 H   0  0  0  0  0  0  0  0  0  0  0  0
    6.2658    2.7724   -0.1725 H   0  0  0  0  0  0  0  0  0  0  0  0
    5.9317   -1.4193    0.2892 H   0  0  0  0  0  0  0  0  0  0  0  0
    1.3009    0.7106   -2.1629 H   0  0  0  0  0  0  0  0  0  0  0  0
  1  2  1  0
  2  3  1  0
  3  4  1  0
  4  5  1  0
  5  6  1  0
  6  7  1  0
  6  8  1  0
  8  9  1  0
  5 10  1  0
 10 11  1  0
 11 12  2  0
 12 13  1  0
 13 14  2  0
 14 15  1  0
 15 16  1  0
 16 17  1  0
 17 18  2  0
 18 19  1  0
 19 20  2  0
 20 21  1  0
 21 22  2  0
 21 23  1  0
 23 24  1  0
 23 25  1  0
 23 26  1  0
 14 27  1  0
 27 28  2  0
 28 29  1  0
 29 30  2  0
  8  3  1  0
 30 10  1  0
 30 13  1  0
 22 17  1  0
  1 31  1  0
  2 32  1  0
  2 33  1  0
  3 34  1  6
  5 35  1  6
  6 36  1  1
  7 37  1  0
  8 38  1  6
  9 39  1  0
 11 40  1  0
 15 41  1  0
 16 42  1  0
 16 43  1  0
 18 44  1  0
 19 45  1  0
 20 46  1  0
 22 47  1  0
 28 48  1  0
M  END
$$$$
