[H]c1c(OC([H])([H])C([H])([H])C([H])([H])N2C([H])([H])C([H])([H])C([H])([H])C([H])([H])C2([H])[H])c(OC([H])([H])[H])c([H])c2c1C(=O)N2C1([H])C([H])([H])C([H])([H])N(C2([H])C([H])([H])C([H])([H])OC([H])([H])C2([H])[H])C([H])([H])C1([H])[H]
     RDKit          3D

 72 76  0  0  0  0  0  0  0  0999 V2000
    1.5144   -4.8953   -0.3772 C   0  0  0  0  0  0  0  0  0  0  0  0
    2.1225   -3.6127   -0.4032 O   0  0  0  0  0  0  0  0  0  0  0  0
    1.3125   -2.4733   -0.3168 C   0  0  0  0  0  0  0  0  0  0  0  0
   -0.0570   -2.5858   -0.2091 C   0  0  0  0  0  0  0  0  0  0  0  0
   -0.8493   -1.4629   -0.1244 C   0  0  0  0  0  0  0  0  0  0  0  0
   -2.2034   -0.9881   -0.0064 N   0  0  0  0  0  0  0  0  0  0  0  0
   -3.5428   -1.5231    0.0935 C   0  0  0  0  0  0  0  0  0  0  0  0
   -4.4482   -1.0918   -1.0397 C   0  0  0  0  0  0  0  0  0  0  0  0
   -5.8905   -1.1437   -0.6687 C   0  0  0  0  0  0  0  0  0  0  0  0
   -6.2774   -0.3936    0.4859 N   0  0  0  0  0  0  0  0  0  0  0  0
   -5.1784   -0.0862    1.3164 C   0  0  0  0  0  0  0  0  0  0  0  0
   -4.1825   -1.2071    1.4338 C   0  0  0  0  0  0  0  0  0  0  0  0
   -7.0090    0.7718    0.0416 C   0  0  0  0  0  0  0  0  0  0  0  0
   -8.2571    0.2893   -0.6689 C   0  0  0  0  0  0  0  0  0  0  0  0
   -9.4204    1.1777   -0.3068 C   0  0  0  0  0  0  0  0  0  0  0  0
   -9.7472    1.1236    1.0279 O   0  0  0  0  0  0  0  0  0  0  0  0
   -8.6252    0.9269    1.8438 C   0  0  0  0  0  0  0  0  0  0  0  0
   -7.4662    1.6325    1.1946 C   0  0  0  0  0  0  0  0  0  0  0  0
   -1.6498    0.3410   -0.0251 C   0  0  0  0  0  0  0  0  0  0  0  0
   -2.0643    1.5184    0.0308 O   0  0  0  0  0  0  0  0  0  0  0  0
   -0.3067   -0.2103   -0.1440 C   0  0  0  0  0  0  0  0  0  0  0  0
    1.0670   -0.1228   -0.2524 C   0  0  0  0  0  0  0  0  0  0  0  0
    1.8840   -1.2206   -0.3388 C   0  0  0  0  0  0  0  0  0  0  0  0
    3.2722   -1.1008   -0.4488 O   0  0  0  0  0  0  0  0  0  0  0  0
    3.8980    0.1676   -0.4821 C   0  0  0  0  0  0  0  0  0  0  0  0
    5.3941   -0.0126   -0.6022 C   0  0  0  0  0  0  0  0  0  0  0  0
    6.1127    1.3189   -0.6503 C   0  0  0  0  0  0  0  0  0  0  0  0
    7.5045    1.0870   -0.7621 N   0  0  0  0  0  0  0  0  0  0  0  0
    8.1903    0.5294    0.3224 C   0  0  0  0  0  0  0  0  0  0  0  0
    9.0989    1.4776    1.0670 C   0  0  0  0  0  0  0  0  0  0  0  0
    9.9794    2.2636    0.1431 C   0  0  0  0  0  0  0  0  0  0  0  0
    9.0808    2.9684   -0.8529 C   0  0  0  0  0  0  0  0  0  0  0  0
    8.2223    1.9818   -1.6044 C   0  0  0  0  0  0  0  0  0  0  0  0
    0.7774   -4.9765   -1.1998 H   0  0  0  0  0  0  0  0  0  0  0  0
    2.2810   -5.6792   -0.4536 H   0  0  0  0  0  0  0  0  0  0  0  0
    0.9511   -4.9874    0.5801 H   0  0  0  0  0  0  0  0  0  0  0  0
   -0.4968   -3.5937   -0.1927 H   0  0  0  0  0  0  0  0  0  0  0  0
   -3.4709   -2.6250    0.0532 H   0  0  0  0  0  0  0  0  0  0  0  0
   -4.1901   -0.0276   -1.2720 H   0  0  0  0  0  0  0  0  0  0  0  0
   -4.2612   -1.6607   -1.9667 H   0  0  0  0  0  0  0  0  0  0  0  0
   -6.1126   -2.2274   -0.4216 H   0  0  0  0  0  0  0  0  0  0  0  0
   -6.5662   -0.9255   -1.5260 H   0  0  0  0  0  0  0  0  0  0  0  0
   -4.7080    0.8671    1.0166 H   0  0  0  0  0  0  0  0  0  0  0  0
   -5.5809    0.0710    2.3618 H   0  0  0  0  0  0  0  0  0  0  0  0
   -3.3714   -0.8733    2.1087 H   0  0  0  0  0  0  0  0  0  0  0  0
   -4.6602   -2.0878    1.8956 H   0  0  0  0  0  0  0  0  0  0  0  0
   -6.3729    1.3988   -0.6184 H   0  0  0  0  0  0  0  0  0  0  0  0
   -8.0870    0.4118   -1.7520 H   0  0  0  0  0  0  0  0  0  0  0  0
   -8.4981   -0.7527   -0.4563 H   0  0  0  0  0  0  0  0  0  0  0  0
  -10.2908    0.8214   -0.8957 H   0  0  0  0  0  0  0  0  0  0  0  0
   -9.2296    2.2151   -0.6779 H   0  0  0  0  0  0  0  0  0  0  0  0
   -8.4328   -0.1707    1.8332 H   0  0  0  0  0  0  0  0  0  0  0  0
   -8.8060    1.3060    2.8528 H   0  0  0  0  0  0  0  0  0  0  0  0
   -7.8442    2.5824    0.7659 H   0  0  0  0  0  0  0  0  0  0  0  0
   -6.6614    1.8880    1.8895 H   0  0  0  0  0  0  0  0  0  0  0  0
    1.5343    0.8732   -0.2713 H   0  0  0  0  0  0  0  0  0  0  0  0
    3.7132    0.6804    0.4802 H   0  0  0  0  0  0  0  0  0  0  0  0
    3.5287    0.8110   -1.2842 H   0  0  0  0  0  0  0  0  0  0  0  0
    5.7721   -0.5785    0.2628 H   0  0  0  0  0  0  0  0  0  0  0  0
    5.6588   -0.5438   -1.5453 H   0  0  0  0  0  0  0  0  0  0  0  0
    5.8100    1.8619    0.2688 H   0  0  0  0  0  0  0  0  0  0  0  0
    5.7062    1.8974   -1.4993 H   0  0  0  0  0  0  0  0  0  0  0  0
    8.8288   -0.3143   -0.0177 H   0  0  0  0  0  0  0  0  0  0  0  0
    7.4879    0.1233    1.0780 H   0  0  0  0  0  0  0  0  0  0  0  0
    9.7693    0.8514    1.7058 H   0  0  0  0  0  0  0  0  0  0  0  0
    8.5393    2.1395    1.7721 H   0  0  0  0  0  0  0  0  0  0  0  0
   10.5124    3.0456    0.7130 H   0  0  0  0  0  0  0  0  0  0  0  0
   10.6659    1.5698   -0.3644 H   0  0  0  0  0  0  0  0  0  0  0  0
    8.4765    3.7275   -0.3558 H   0  0  0  0  0  0  0  0  0  0  0  0
    9.7542    3.4498   -1.6010 H   0  0  0  0  0  0  0  0  0  0  0  0
    7.5117    2.5704   -2.2261 H   0  0  0  0  0  0  0  0  0  0  0  0
    8.8841    1.4164   -2.2788 H   0  0  0  0  0  0  0  0  0  0  0  0
  1  2  1  0
  2  3  1  0
  3  4  2  0
  4  5  1  0
  5  6  1  0
  6  7  1  0
  7  8  1  0
  8  9  1  0
  9 10  1  0
 10 11  1  0
 11 12  1  0
 10 13  1  0
 13 14  1  0
 14 15  1  0
 15 16  1  0
 16 17  1  0
 17 18  1  0
  6 19  1  0
 19 20  2  0
 19 21  1  0
 21 22  1  0
 22 23  2  0
 23 24  1  0
 24 25  1  0
 25 26  1  0
 26 27  1  0
 27 28  1  0
 28 29  1  0
 29 30  1  0
 30 31  1  0
 31 32  1  0
 32 33  1  0
 23  3  1  0
 33 28  1  0
 21  5  2  0
 12  7  1  0
 18 13  1  0
  1 34  1  0
  1 35  1  0
  1 36  1  0
  4 37  1  0
  7 38  1  0
  8 39  1  0
  8 40  1  0
  9 41  1  0
  9 42  1  0
 11 43  1  0
 11 44  1  0
 12 45  1  0
 12 46  1  0
 13 47  1  0
 14 48  1  0
 14 49  1  0
 15 50  1  0
 15 51  1  0
 17 52  1  0
 17 53  1  0
 18 54  1  0
 18 55  1  0
 22 56  1  0
 25 57  1  0
 25 58  1  0
 26 59  1  0
 26 60  1  0
 27 61  1  0
 27 62  1  0
 29 63  1  0
 29 64  1  0
 30 65  1  0
 30 66  1  0
 31 67  1  0
 31 68  1  0
 32 69  1  0
 32 70  1  0
 33 71  1  0
 33 72  1  0
M  END
$$$$
[H]c1c([H])c([H])c2c(c1[H])c(=O)n([H])c(=O)n2C([H])([H])C([H])([H])C([H])(C([H])(C([H])([H])[H])C([H])([H])[H])C([H])(C([H])([H])[H])C([H])([H])[H]
     RDKit          3D

 45 46  0  0  0  0  0  0  0  0999 V2000
   -3.4098    0.8772   -1.5285 C   0  0  0  0  0  0  0  0  0  0  0  0
   -2.4973   -0.3463   -1.2758 C   0  0  0  0  0  0  0  0  0  0  0  0
   -2.1801   -0.9417   -2.5522 C   0  0  0  0  0  0  0  0  0  0  0  0
   -1.5646    0.0272   -0.2219 C   0  0  0  0  0  0  0  0  0  0  0  0
   -0.5196   -0.8456    0.2795 C   0  0  0  0  0  0  0  0  0  0  0  0
    0.6567   -1.2967   -0.4720 C   0  0  0  0  0  0  0  0  0  0  0  0
    1.6732   -0.3382   -0.7654 N   0  0  0  0  0  0  0  0  0  0  0  0
    2.6286   -0.1679    0.2137 C   0  0  0  0  0  0  0  0  0  0  0  0
    2.6009   -0.8653    1.3974 C   0  0  0  0  0  0  0  0  0  0  0  0
    3.5916   -0.6692    2.3705 C   0  0  0  0  0  0  0  0  0  0  0  0
    4.6189    0.2207    2.1774 C   0  0  0  0  0  0  0  0  0  0  0  0
    4.6640    0.9287    0.9972 C   0  0  0  0  0  0  0  0  0  0  0  0
    3.6823    0.7258    0.0479 C   0  0  0  0  0  0  0  0  0  0  0  0
    3.7941    1.4671   -1.1114 C   0  0  0  0  0  0  0  0  0  0  0  0
    4.7545    2.2827   -1.2630 O   0  0  0  0  0  0  0  0  0  0  0  0
    2.8550    1.2733   -2.0292 N   0  0  0  0  0  0  0  0  0  0  0  0
    1.8284    0.3933   -1.8519 C   0  0  0  0  0  0  0  0  0  0  0  0
    1.0192    0.3123   -2.8043 O   0  0  0  0  0  0  0  0  0  0  0  0
   -2.4513    0.4306    0.9918 C   0  0  0  0  0  0  0  0  0  0  0  0
   -1.6376    0.8517    2.1676 C   0  0  0  0  0  0  0  0  0  0  0  0
   -3.3466   -0.7185    1.3696 C   0  0  0  0  0  0  0  0  0  0  0  0
   -3.6820    0.9386   -2.6121 H   0  0  0  0  0  0  0  0  0  0  0  0
   -4.3216    0.8500   -0.9214 H   0  0  0  0  0  0  0  0  0  0  0  0
   -2.8747    1.8247   -1.3214 H   0  0  0  0  0  0  0  0  0  0  0  0
   -3.2849   -1.0816   -0.7986 H   0  0  0  0  0  0  0  0  0  0  0  0
   -1.7152   -1.9330   -2.6034 H   0  0  0  0  0  0  0  0  0  0  0  0
   -1.6974   -0.2220   -3.2768 H   0  0  0  0  0  0  0  0  0  0  0  0
   -3.1887   -1.1250   -3.0883 H   0  0  0  0  0  0  0  0  0  0  0  0
   -1.0649    1.0435   -0.4443 H   0  0  0  0  0  0  0  0  0  0  0  0
   -0.0756   -0.2852    1.1921 H   0  0  0  0  0  0  0  0  0  0  0  0
   -0.9444   -1.7599    0.8374 H   0  0  0  0  0  0  0  0  0  0  0  0
    1.0387   -2.2676   -0.0565 H   0  0  0  0  0  0  0  0  0  0  0  0
    0.2748   -1.6444   -1.4934 H   0  0  0  0  0  0  0  0  0  0  0  0
    1.8207   -1.5797    1.6013 H   0  0  0  0  0  0  0  0  0  0  0  0
    3.5069   -1.2531    3.2804 H   0  0  0  0  0  0  0  0  0  0  0  0
    5.3645    0.3464    2.9484 H   0  0  0  0  0  0  0  0  0  0  0  0
    5.4746    1.6510    0.8094 H   0  0  0  0  0  0  0  0  0  0  0  0
    2.8981    1.8113   -2.9220 H   0  0  0  0  0  0  0  0  0  0  0  0
   -3.0819    1.2633    0.6127 H   0  0  0  0  0  0  0  0  0  0  0  0
   -2.3193    1.4148    2.8645 H   0  0  0  0  0  0  0  0  0  0  0  0
   -0.7500    1.4732    1.9209 H   0  0  0  0  0  0  0  0  0  0  0  0
   -1.3434   -0.0444    2.7522 H   0  0  0  0  0  0  0  0  0  0  0  0
   -2.9479   -1.7058    1.1023 H   0  0  0  0  0  0  0  0  0  0  0  0
   -3.4617   -0.7267    2.4950 H   0  0  0  0  0  0  0  0  0  0  0  0
   -4.3851   -0.5896    0.9849 H   0  0  0  0  0  0  0  0  0  0  0  0
  1  2  1  0
  2  3  1  0
  2  4  1  0
  4  5  1  0
  5  6  1  0
  6  7  1  0
  7  8  1  0
  8  9  2  0
  9 10  1  0
 10 11  2  0
 11 12  1  0
 12 13  2  0
 13 14  1  0
 14 15  2  0
 14 16  1  0
 16 17  1  0
 17 18  2  0
  4 19  1  0
 19 20  1  0
 19 21  1  0
 17  7  1  0
 13  8  1  0
  1 22  1  0
  1 23  1  0
  1 24  1  0
  2 25  1  0
  3 26  1  0
  3 27  1  0
  3 28  1  0
  4 29  1  0
  5 30  1  0
  5 31  1  0
  6 32  1  0
  6 33  1  0
  9 34  1  0
 10 35  1  0
 11 36  1  0
 12 37  1  0
 16 38  1  0
 19 39  1  0
 20 40  1  0
 20 41  1  0
 20 42  1  0
 21 43  1  0
 21 44  1  0
 21 45  1  0
M  END
$$$$
[H]OC(=O)c1c([H])c([H])c(OC([H])([H])C([H])([H])C([H])([H])C([H])([H])[H])c([H])c1[H]
     RDKit          3D

 28 28  0  0  0  0  0  0  0  0999 V2000
   -3.9880    0.3856   -0.5777 C   0  0  0  0  0  0  0  0  0  0  0  0
   -2.7410    1.1503   -0.2205 C   0  0  0  0  0  0  0  0  0  0  0  0
   -2.1624    0.6123    1.0865 C   0  0  0  0  0  0  0  0  0  0  0  0
   -1.8079   -0.8345    0.9784 C   0  0  0  0  0  0  0  0  0  0  0  0
   -0.8930   -1.2013    0.0406 O   0  0  0  0  0  0  0  0  0  0  0  0
    0.4044   -0.8733   -0.0669 C   0  0  0  0  0  0  0  0  0  0  0  0
    1.0662   -0.0829    0.8239 C   0  0  0  0  0  0  0  0  0  0  0  0
    2.4267    0.2101    0.6267 C   0  0  0  0  0  0  0  0  0  0  0  0
    3.1453   -0.2693   -0.4419 C   0  0  0  0  0  0  0  0  0  0  0  0
    2.4584   -1.0672   -1.3309 C   0  0  0  0  0  0  0  0  0  0  0  0
    1.1253   -1.3727   -1.1662 C   0  0  0  0  0  0  0  0  0  0  0  0
    4.5561    0.0491   -0.6244 C   0  0  0  0  0  0  0  0  0  0  0  0
    5.2400    0.8539    0.2763 O   0  0  0  0  0  0  0  0  0  0  0  0
    5.2183   -0.3871   -1.6007 O   0  0  0  0  0  0  0  0  0  0  0  0
   -4.3819   -0.0691    0.3544 H   0  0  0  0  0  0  0  0  0  0  0  0
   -3.7536   -0.4270   -1.3134 H   0  0  0  0  0  0  0  0  0  0  0  0
   -4.7393    1.0877   -0.9566 H   0  0  0  0  0  0  0  0  0  0  0  0
   -1.9767    1.0864   -1.0363 H   0  0  0  0  0  0  0  0  0  0  0  0
   -3.0220    2.2020   -0.0121 H   0  0  0  0  0  0  0  0  0  0  0  0
   -1.4257    1.2885    1.4791 H   0  0  0  0  0  0  0  0  0  0  0  0
   -3.0451    0.6626    1.8026 H   0  0  0  0  0  0  0  0  0  0  0  0
   -2.7760   -1.3704    0.7763 H   0  0  0  0  0  0  0  0  0  0  0  0
   -1.5352   -1.1802    2.0280 H   0  0  0  0  0  0  0  0  0  0  0  0
    0.6111    0.3305    1.6998 H   0  0  0  0  0  0  0  0  0  0  0  0
    2.9432    0.8443    1.3472 H   0  0  0  0  0  0  0  0  0  0  0  0
    3.0093   -1.4532   -2.1775 H   0  0  0  0  0  0  0  0  0  0  0  0
    0.6590   -2.0028   -1.9041 H   0  0  0  0  0  0  0  0  0  0  0  0
    5.3844    1.8279   -0.0197 H   0  0  0  0  0  0  0  0  0  0  0  0
  1  2  1  0
  2  3  1  0
  3  4  1  0
  4  5  1  0
  5  6  1  0
  6  7  2  0
  7  8  1  0
  8  9  2  0
  9 10  1  0
 10 11  2  0
  9 12  1  0
 12 13  1  0
 12 14  2  0
 11  6  1  0
  1 15  1  0
  1 16  1  0
  1 17  1  0
  2 18  1  0
  2 19  1  0
  3 20  1  0
  3 21  1  0
  4 22  1  0
  4 23  1  0
  7 24  1  0
  8 25  1  0
 10 26  1  0
 11 27  1  0
 13 28  1  0
M  END
$$$$
[H]c1c(C([H])([H])N([H])C(=O)C([H])([H])[H])nc(S(=O)(=O)N([H])[H])c([H])c1-c1c([H])c([H])c([N+](=O)[O-])c([H])c1[H]
     RDKit          3D

 38 39  0  0  0  0  0  0  0  0999 V2000
   -2.5022    3.6162   -1.5308 N   0  0  0  0  0  0  0  0  0  0  0  0
   -1.2659    3.6843   -0.3021 S   0  0  0  0  0  0  0  0  0  0  0  0
   -1.8446    4.4541    0.8417 O   0  0  0  0  0  0  0  0  0  0  0  0
   -0.0927    4.3927   -0.8645 O   0  0  0  0  0  0  0  0  0  0  0  0
   -0.8663    2.0492    0.2075 C   0  0  0  0  0  0  0  0  0  0  0  0
    0.4506    1.6387    0.0109 C   0  0  0  0  0  0  0  0  0  0  0  0
    0.8036    0.3593    0.3872 C   0  0  0  0  0  0  0  0  0  0  0  0
   -0.1900   -0.4500    0.9464 C   0  0  0  0  0  0  0  0  0  0  0  0
   -1.4866    0.0100    1.1201 C   0  0  0  0  0  0  0  0  0  0  0  0
   -2.4588   -0.9483    1.7298 C   0  0  0  0  0  0  0  0  0  0  0  0
   -3.0992   -1.7549    0.7403 N   0  0  0  0  0  0  0  0  0  0  0  0
   -4.1410   -1.2544   -0.0863 C   0  0  0  0  0  0  0  0  0  0  0  0
   -4.7739   -2.1417   -1.1054 C   0  0  0  0  0  0  0  0  0  0  0  0
   -4.5202   -0.0733    0.0463 O   0  0  0  0  0  0  0  0  0  0  0  0
   -1.8078    1.2546    0.7479 N   0  0  0  0  0  0  0  0  0  0  0  0
    2.1437   -0.1499    0.2155 C   0  0  0  0  0  0  0  0  0  0  0  0
    3.2199    0.6804    0.3093 C   0  0  0  0  0  0  0  0  0  0  0  0
    4.5132    0.1956    0.1308 C   0  0  0  0  0  0  0  0  0  0  0  0
    4.7480   -1.1376   -0.1456 C   0  0  0  0  0  0  0  0  0  0  0  0
    3.6384   -1.9628   -0.2356 C   0  0  0  0  0  0  0  0  0  0  0  0
    2.3506   -1.4798   -0.0581 C   0  0  0  0  0  0  0  0  0  0  0  0
    6.0687   -1.6345   -0.3300 N   0  0  0  0  0  0  0  0  0  0  0  0
    7.1190   -0.7735   -0.2273 O   0  0  0  0  0  0  0  0  0  0  0  0
    6.2574   -2.8317   -0.5810 O   0  0  0  0  0  0  0  0  0  0  0  0
   -2.0070    3.2158   -2.3827 H   0  0  0  0  0  0  0  0  0  0  0  0
   -2.7616    4.5873   -1.7951 H   0  0  0  0  0  0  0  0  0  0  0  0
    1.1845    2.3028   -0.4254 H   0  0  0  0  0  0  0  0  0  0  0  0
    0.1105   -1.4410    1.2305 H   0  0  0  0  0  0  0  0  0  0  0  0
   -1.8979   -1.6100    2.4270 H   0  0  0  0  0  0  0  0  0  0  0  0
   -3.2056   -0.4067    2.3557 H   0  0  0  0  0  0  0  0  0  0  0  0
   -2.7880   -2.7624    0.6167 H   0  0  0  0  0  0  0  0  0  0  0  0
   -5.8280   -2.3053   -0.8531 H   0  0  0  0  0  0  0  0  0  0  0  0
   -4.6771   -1.6246   -2.0890 H   0  0  0  0  0  0  0  0  0  0  0  0
   -4.1944   -3.1058   -1.1876 H   0  0  0  0  0  0  0  0  0  0  0  0
    3.1107    1.7379    0.5244 H   0  0  0  0  0  0  0  0  0  0  0  0
    5.3676    0.8441    0.2024 H   0  0  0  0  0  0  0  0  0  0  0  0
    3.8265   -3.0102   -0.4530 H   0  0  0  0  0  0  0  0  0  0  0  0
    1.4957   -2.1644   -0.1378 H   0  0  0  0  0  0  0  0  0  0  0  0
  1  2  1  0
  2  3  2  0
  2  4  2  0
  2  5  1  0
  5  6  2  0
  6  7  1  0
  7  8  2  0
  8  9  1  0
  9 10  1  0
 10 11  1  0
 11 12  1  0
 12 13  1  0
 12 14  2  0
  9 15  2  0
  7 16  1  0
 16 17  2  0
 17 18  1  0
 18 19  2  0
 19 20  1  0
 20 21  2  0
 19 22  1  0
 22 23  1  0
 22 24  2  0
 15  5  1  0
 21 16  1  0
  1 25  1  0
  1 26  1  0
  6 27  1  0
  8 28  1  0
 10 29  1  0
 10 30  1  0
 11 31  1  0
 13 32  1  0
 13 33  1  0
 13 34  1  0
 17 35  1  0
 18 36  1  0
 20 37  1  0
 21 38  1  0
M  CHG  2  22   1  23  -1
M  END
$$$$
[H]c1nc(N([H])[H])c(N([H])C(=O)C([H])([H])[H])c([H])c1-c1c(C([H])([H])[H])nn(C([H])([H])[H])c1N([H])[H]
     RDKit          3D

 35 36  0  0  0  0  0  0  0  0999 V2000
   -1.4261    2.6588    0.1672 C   0  0  0  0  0  0  0  0  0  0  0  0
   -2.1721    1.3857   -0.1253 C   0  0  0  0  0  0  0  0  0  0  0  0
   -3.3642    1.2405   -0.7187 N   0  0  0  0  0  0  0  0  0  0  0  0
   -3.7105   -0.0251   -0.8326 N   0  0  0  0  0  0  0  0  0  0  0  0
   -4.9321   -0.5748   -1.4270 C   0  0  0  0  0  0  0  0  0  0  0  0
   -2.6994   -0.7448   -0.2881 C   0  0  0  0  0  0  0  0  0  0  0  0
   -2.7577   -2.1805   -0.2460 N   0  0  0  0  0  0  0  0  0  0  0  0
   -1.7370    0.0980    0.1569 C   0  0  0  0  0  0  0  0  0  0  0  0
   -0.4860   -0.2626    0.8178 C   0  0  0  0  0  0  0  0  0  0  0  0
   -0.4005   -0.7849    2.0826 C   0  0  0  0  0  0  0  0  0  0  0  0
    0.7902   -1.0562    2.6279 N   0  0  0  0  0  0  0  0  0  0  0  0
    1.9318   -0.8308    1.9701 C   0  0  0  0  0  0  0  0  0  0  0  0
    3.1893   -1.1306    2.5723 N   0  0  0  0  0  0  0  0  0  0  0  0
    1.9556   -0.2955    0.6678 C   0  0  0  0  0  0  0  0  0  0  0  0
    3.1852   -0.0618    0.0071 N   0  0  0  0  0  0  0  0  0  0  0  0
    3.4268    0.5683   -1.2077 C   0  0  0  0  0  0  0  0  0  0  0  0
    4.8192    0.7283   -1.7529 C   0  0  0  0  0  0  0  0  0  0  0  0
    2.5126    1.0356   -1.9073 O   0  0  0  0  0  0  0  0  0  0  0  0
    0.7280   -0.0311    0.1366 C   0  0  0  0  0  0  0  0  0  0  0  0
   -2.1155    3.5194    0.2894 H   0  0  0  0  0  0  0  0  0  0  0  0
   -0.7934    2.8556   -0.7436 H   0  0  0  0  0  0  0  0  0  0  0  0
   -0.8159    2.5760    1.0608 H   0  0  0  0  0  0  0  0  0  0  0  0
   -4.9600   -1.6518   -1.2595 H   0  0  0  0  0  0  0  0  0  0  0  0
   -4.9523   -0.3967   -2.5236 H   0  0  0  0  0  0  0  0  0  0  0  0
   -5.7761   -0.1281   -0.8815 H   0  0  0  0  0  0  0  0  0  0  0  0
   -2.0005   -2.7957   -0.6152 H   0  0  0  0  0  0  0  0  0  0  0  0
   -3.5747   -2.6933    0.1694 H   0  0  0  0  0  0  0  0  0  0  0  0
   -1.3404   -0.9723    2.6199 H   0  0  0  0  0  0  0  0  0  0  0  0
    3.6602   -2.0158    2.4048 H   0  0  0  0  0  0  0  0  0  0  0  0
    3.6192   -0.4171    3.1934 H   0  0  0  0  0  0  0  0  0  0  0  0
    4.0558   -0.4362    0.5361 H   0  0  0  0  0  0  0  0  0  0  0  0
    4.9248    1.7664   -2.1924 H   0  0  0  0  0  0  0  0  0  0  0  0
    4.9744    0.0337   -2.5781 H   0  0  0  0  0  0  0  0  0  0  0  0
    5.6089    0.6503   -1.0213 H   0  0  0  0  0  0  0  0  0  0  0  0
    0.6324    0.3689   -0.8607 H   0  0  0  0  0  0  0  0  0  0  0  0
  1  2  1  0
  2  3  2  0
  3  4  1  0
  4  5  1  0
  4  6  1  0
  6  7  1  0
  6  8  2  0
  8  9  1  0
  9 10  2  0
 10 11  1  0
 11 12  2  0
 12 13  1  0
 12 14  1  0
 14 15  1  0
 15 16  1  0
 16 17  1  0
 16 18  2  0
 14 19  2  0
  8  2  1  0
 19  9  1  0
  1 20  1  0
  1 21  1  0
  1 22  1  0
  5 23  1  0
  5 24  1  0
  5 25  1  0
  7 26  1  0
  7 27  1  0
 10 28  1  0
 13 29  1  0
 13 30  1  0
 15 31  1  0
 17 32  1  0
 17 33  1  0
 17 34  1  0
 19 35  1  0
M  END
$$$$
[H]/C(=C(/c1c([H])c([H])c(Cl)c(Cl)c1[H])c1nn(N2C([H])([H])C([H])([H])OC([H])([H])C2([H])[H])c2c([H])c([H])c(-c3nc([H])n([H])c3[H])c([H])c12)C([H])([H])N(C([H])([H])[H])C([H])([H])[H]
     RDKit          3D

 60 64  0  0  0  0  0  0  0  0999 V2000
    5.9256    0.2545   -0.1636 C   0  0  0  0  0  0  0  0  0  0  0  0
    4.5423   -0.0439    0.3118 N   0  0  0  0  0  0  0  0  0  0  0  0
    4.3564    1.0411    1.3423 C   0  0  0  0  0  0  0  0  0  0  0  0
    3.6834    0.2388   -0.7564 C   0  0  0  0  0  0  0  0  0  0  0  0
    2.2917   -0.0588   -0.8281 C   0  0  0  0  0  0  0  0  0  0  0  0
    1.4696   -0.7481   -0.1388 C   0  0  0  0  0  0  0  0  0  0  0  0
    1.8057   -1.5358    1.0330 C   0  0  0  0  0  0  0  0  0  0  0  0
    2.8698   -2.3638    1.1743 C   0  0  0  0  0  0  0  0  0  0  0  0
    3.1142   -2.9695    2.3853 C   0  0  0  0  0  0  0  0  0  0  0  0
    2.2878   -2.7525    3.4748 C   0  0  0  0  0  0  0  0  0  0  0  0
    2.5725   -3.5006    5.0434 Cl  0  0  0  0  0  0  0  0  0  0  0  0
    1.1920   -1.9194    3.3732 C   0  0  0  0  0  0  0  0  0  0  0  0
    0.1110   -1.6088    4.7411 Cl  0  0  0  0  0  0  0  0  0  0  0  0
    0.9838   -1.3338    2.1487 C   0  0  0  0  0  0  0  0  0  0  0  0
   -0.0102   -0.6742   -0.4344 C   0  0  0  0  0  0  0  0  0  0  0  0
   -0.8716   -1.6205   -0.1528 N   0  0  0  0  0  0  0  0  0  0  0  0
   -2.1088   -1.1897   -0.4330 N   0  0  0  0  0  0  0  0  0  0  0  0
   -2.0268    0.0483   -0.8946 C   0  0  0  0  0  0  0  0  0  0  0  0
   -2.9811    0.9691   -1.2892 C   0  0  0  0  0  0  0  0  0  0  0  0
   -2.6345    2.2474   -1.6974 C   0  0  0  0  0  0  0  0  0  0  0  0
   -1.3144    2.6258   -1.7160 C   0  0  0  0  0  0  0  0  0  0  0  0
   -0.3769    1.6863   -1.3162 C   0  0  0  0  0  0  0  0  0  0  0  0
   -0.6647    0.4104   -0.9059 C   0  0  0  0  0  0  0  0  0  0  0  0
   -0.9301    3.9659   -2.1361 C   0  0  0  0  0  0  0  0  0  0  0  0
    0.3212    4.4322   -2.1875 N   0  0  0  0  0  0  0  0  0  0  0  0
    0.2927    5.7290   -2.6218 C   0  0  0  0  0  0  0  0  0  0  0  0
   -0.9907    6.0433   -2.8328 N   0  0  0  0  0  0  0  0  0  0  0  0
   -1.7689    4.9584   -2.5361 C   0  0  0  0  0  0  0  0  0  0  0  0
   -3.1907   -2.0177   -0.2042 N   0  0  0  0  0  0  0  0  0  0  0  0
   -4.5570   -1.8523   -0.6092 C   0  0  0  0  0  0  0  0  0  0  0  0
   -5.3411   -1.4891    0.6425 C   0  0  0  0  0  0  0  0  0  0  0  0
   -4.9755   -2.3421    1.6767 O   0  0  0  0  0  0  0  0  0  0  0  0
   -4.3178   -3.4808    1.3019 C   0  0  0  0  0  0  0  0  0  0  0  0
   -2.9986   -3.2609    0.6097 C   0  0  0  0  0  0  0  0  0  0  0  0
    6.5288    0.4831    0.7381 H   0  0  0  0  0  0  0  0  0  0  0  0
    5.9223    1.0481   -0.9132 H   0  0  0  0  0  0  0  0  0  0  0  0
    6.3837   -0.6762   -0.5803 H   0  0  0  0  0  0  0  0  0  0  0  0
    3.2708    1.2112    1.4969 H   0  0  0  0  0  0  0  0  0  0  0  0
    4.8448    1.9650    1.0265 H   0  0  0  0  0  0  0  0  0  0  0  0
    4.8325    0.6925    2.2684 H   0  0  0  0  0  0  0  0  0  0  0  0
    3.7425    1.4054   -0.8614 H   0  0  0  0  0  0  0  0  0  0  0  0
    4.2147   -0.0104   -1.7671 H   0  0  0  0  0  0  0  0  0  0  0  0
    1.7808    0.3575   -1.7990 H   0  0  0  0  0  0  0  0  0  0  0  0
    3.5195   -2.6061    0.3305 H   0  0  0  0  0  0  0  0  0  0  0  0
    3.9768   -3.6408    2.5113 H   0  0  0  0  0  0  0  0  0  0  0  0
    0.1088   -0.6762    2.0879 H   0  0  0  0  0  0  0  0  0  0  0  0
   -4.0322    0.7260   -1.2704 H   0  0  0  0  0  0  0  0  0  0  0  0
   -3.3551    2.9896   -2.0126 H   0  0  0  0  0  0  0  0  0  0  0  0
    0.6435    2.0252   -1.3069 H   0  0  0  0  0  0  0  0  0  0  0  0
    1.1742    6.3695   -2.7626 H   0  0  0  0  0  0  0  0  0  0  0  0
   -1.3299    6.9703   -3.1689 H   0  0  0  0  0  0  0  0  0  0  0  0
   -2.8326    4.8780   -2.5949 H   0  0  0  0  0  0  0  0  0  0  0  0
   -4.7271   -1.2583   -1.4802 H   0  0  0  0  0  0  0  0  0  0  0  0
   -4.9543   -2.8904   -0.9057 H   0  0  0  0  0  0  0  0  0  0  0  0
   -5.0103   -0.4654    0.9841 H   0  0  0  0  0  0  0  0  0  0  0  0
   -6.4180   -1.4509    0.5025 H   0  0  0  0  0  0  0  0  0  0  0  0
   -4.1363   -4.0743    2.2338 H   0  0  0  0  0  0  0  0  0  0  0  0
   -4.9604   -4.1458    0.6785 H   0  0  0  0  0  0  0  0  0  0  0  0
   -2.1678   -3.0542    1.2911 H   0  0  0  0  0  0  0  0  0  0  0  0
   -2.7796   -4.0607   -0.1310 H   0  0  0  0  0  0  0  0  0  0  0  0
  1  2  1  0
  2  3  1  0
  2  4  1  0
  4  5  1  0
  5  6  2  0
  6  7  1  0
  7  8  2  0
  8  9  1  0
  9 10  2  0
 10 11  1  0
 10 12  1  0
 12 13  1  0
 12 14  2  0
  6 15  1  0
 15 16  2  0
 16 17  1  0
 17 18  1  0
 18 19  2  0
 19 20  1  0
 20 21  2  0
 21 22  1  0
 22 23  2  0
 21 24  1  0
 24 25  1  0
 25 26  2  0
 26 27  1  0
 27 28  1  0
 17 29  1  0
 29 30  1  0
 30 31  1  0
 31 32  1  0
 32 33  1  0
 33 34  1  0
 14  7  1  0
 23 15  1  0
 28 24  2  0
 34 29  1  0
 23 18  1  0
  1 35  1  0
  1 36  1  0
  1 37  1  0
  3 38  1  0
  3 39  1  0
  3 40  1  0
  4 41  1  0
  4 42  1  0
  5 43  1  0
  8 44  1  0
  9 45  1  0
 14 46  1  0
 19 47  1  0
 20 48  1  0
 22 49  1  0
 26 50  1  0
 27 51  1  0
 28 52  1  0
 30 53  1  0
 30 54  1  0
 31 55  1  0
 31 56  1  0
 33 57  1  0
 33 58  1  0
 34 59  1  0
 34 60  1  0
M  END
$$$$
[H]c1c([H])c(-c2nc3c([H])c(C([H])([H])c4c([H])c([H])c(C([H])([H])[H])c(OC([H])([H])[H])c4[H])c([H])c([H])c3n2C([H])([H])[H])c([H])c(OC([H])([H])[H])c1F
     RDKit          3D

 52 55  0  0  0  0  0  0  0  0999 V2000
   -4.9486    3.0074   -0.6861 C   0  0  0  0  0  0  0  0  0  0  0  0
   -5.5272    2.0695    0.1972 O   0  0  0  0  0  0  0  0  0  0  0  0
   -5.1684    0.7469    0.0928 C   0  0  0  0  0  0  0  0  0  0  0  0
   -4.2581    0.3286   -0.8558 C   0  0  0  0  0  0  0  0  0  0  0  0
   -3.8730   -0.9938   -0.9903 C   0  0  0  0  0  0  0  0  0  0  0  0
   -2.8872   -1.3879   -2.0313 C   0  0  0  0  0  0  0  0  0  0  0  0
   -1.4933   -1.3296   -1.5361 C   0  0  0  0  0  0  0  0  0  0  0  0
   -0.9475   -2.4780   -0.9454 C   0  0  0  0  0  0  0  0  0  0  0  0
    0.3471   -2.4927   -0.4621 C   0  0  0  0  0  0  0  0  0  0  0  0
    1.1233   -1.3523   -0.5616 C   0  0  0  0  0  0  0  0  0  0  0  0
    2.4095   -1.0890   -0.1755 N   0  0  0  0  0  0  0  0  0  0  0  0
    3.2661   -2.0560    0.4478 C   0  0  0  0  0  0  0  0  0  0  0  0
    2.7108    0.1683   -0.4888 C   0  0  0  0  0  0  0  0  0  0  0  0
    1.5830    0.6842   -1.0809 N   0  0  0  0  0  0  0  0  0  0  0  0
    0.6068   -0.2155   -1.1375 C   0  0  0  0  0  0  0  0  0  0  0  0
   -0.6952   -0.2169   -1.6181 C   0  0  0  0  0  0  0  0  0  0  0  0
    3.9158    0.9703   -0.3343 C   0  0  0  0  0  0  0  0  0  0  0  0
    3.9657    2.2461   -0.9148 C   0  0  0  0  0  0  0  0  0  0  0  0
    5.0624    3.0704   -0.7974 C   0  0  0  0  0  0  0  0  0  0  0  0
    6.1606    2.6448   -0.0878 C   0  0  0  0  0  0  0  0  0  0  0  0
    7.2641    3.4216    0.0550 F   0  0  0  0  0  0  0  0  0  0  0  0
    6.1673    1.4058    0.5019 C   0  0  0  0  0  0  0  0  0  0  0  0
    7.2631    0.9577    1.2211 O   0  0  0  0  0  0  0  0  0  0  0  0
    7.2058   -0.3273    1.8029 C   0  0  0  0  0  0  0  0  0  0  0  0
    5.0253    0.5929    0.3583 C   0  0  0  0  0  0  0  0  0  0  0  0
   -4.4449   -1.9012   -0.1219 C   0  0  0  0  0  0  0  0  0  0  0  0
   -5.3707   -1.5103    0.8509 C   0  0  0  0  0  0  0  0  0  0  0  0
   -5.7319   -0.1833    0.9569 C   0  0  0  0  0  0  0  0  0  0  0  0
   -6.7061    0.3141    1.9605 C   0  0  0  0  0  0  0  0  0  0  0  0
   -5.3063    2.8132   -1.7208 H   0  0  0  0  0  0  0  0  0  0  0  0
   -3.8339    2.9250   -0.7187 H   0  0  0  0  0  0  0  0  0  0  0  0
   -5.2307    4.0177   -0.3348 H   0  0  0  0  0  0  0  0  0  0  0  0
   -3.7954    1.0393   -1.5529 H   0  0  0  0  0  0  0  0  0  0  0  0
   -3.0481   -0.6694   -2.8853 H   0  0  0  0  0  0  0  0  0  0  0  0
   -3.1522   -2.3912   -2.4326 H   0  0  0  0  0  0  0  0  0  0  0  0
   -1.5669   -3.3504   -0.8788 H   0  0  0  0  0  0  0  0  0  0  0  0
    0.7612   -3.3888   -0.0056 H   0  0  0  0  0  0  0  0  0  0  0  0
    4.2075   -2.2353   -0.1231 H   0  0  0  0  0  0  0  0  0  0  0  0
    2.7498   -3.0648    0.4171 H   0  0  0  0  0  0  0  0  0  0  0  0
    3.4835   -1.8849    1.4983 H   0  0  0  0  0  0  0  0  0  0  0  0
   -1.0873    0.6725   -2.0640 H   0  0  0  0  0  0  0  0  0  0  0  0
    3.1072    2.5648   -1.4641 H   0  0  0  0  0  0  0  0  0  0  0  0
    5.0928    4.0516   -1.2487 H   0  0  0  0  0  0  0  0  0  0  0  0
    6.3189   -0.3419    2.4811 H   0  0  0  0  0  0  0  0  0  0  0  0
    6.9836   -1.0953    1.0053 H   0  0  0  0  0  0  0  0  0  0  0  0
    8.1337   -0.5858    2.3377 H   0  0  0  0  0  0  0  0  0  0  0  0
    5.0870   -0.3564    0.8512 H   0  0  0  0  0  0  0  0  0  0  0  0
   -4.1535   -2.9436   -0.2140 H   0  0  0  0  0  0  0  0  0  0  0  0
   -5.8154   -2.2354    1.5308 H   0  0  0  0  0  0  0  0  0  0  0  0
   -7.0377   -0.5110    2.6272 H   0  0  0  0  0  0  0  0  0  0  0  0
   -6.2817    1.1730    2.5078 H   0  0  0  0  0  0  0  0  0  0  0  0
   -7.6407    0.7025    1.4719 H   0  0  0  0  0  0  0  0  0  0  0  0
  1  2  1  0
  2  3  1  0
  3  4  2  0
  4  5  1  0
  5  6  1  0
  6  7  1  0
  7  8  2  0
  8  9  1  0
  9 10  2  0
 10 11  1  0
 11 12  1  0
 11 13  1  0
 13 14  2  0
 14 15  1  0
 15 16  2  0
 13 17  1  0
 17 18  2  0
 18 19  1  0
 19 20  2  0
 20 21  1  0
 20 22  1  0
 22 23  1  0
 23 24  1  0
 22 25  2  0
  5 26  2  0
 26 27  1  0
 27 28  2  0
 28 29  1  0
 28  3  1  0
 16  7  1  0
 25 17  1  0
 15 10  1  0
  1 30  1  0
  1 31  1  0
  1 32  1  0
  4 33  1  0
  6 34  1  0
  6 35  1  0
  8 36  1  0
  9 37  1  0
 12 38  1  0
 12 39  1  0
 12 40  1  0
 16 41  1  0
 18 42  1  0
 19 43  1  0
 24 44  1  0
 24 45  1  0
 24 46  1  0
 25 47  1  0
 26 48  1  0
 27 49  1  0
 29 50  1  0
 29 51  1  0
 29 52  1  0
M  END
$$$$
[H]c1nc(N([H])C(=O)N2C([H])([H])C([H])([H])OC([H])([H])C2([H])[H])c([H])c(-c2nc3c([H])c([H])c(-c4c([H])nn(-c5c([H])c([H])nc([H])c5[H])c4[H])c([H])n3n2)c1[H]
     RDKit          3D

 56 61  0  0  0  0  0  0  0  0999 V2000
   -5.4582    2.9105   -0.9852 O   0  0  0  0  0  0  0  0  0  0  0  0
   -5.4836    1.5477   -0.8017 C   0  0  0  0  0  0  0  0  0  0  0  0
   -4.2562    1.0315   -0.4842 N   0  0  0  0  0  0  0  0  0  0  0  0
   -3.7520   -0.2259   -0.1581 C   0  0  0  0  0  0  0  0  0  0  0  0
   -2.3471   -0.3643    0.0462 C   0  0  0  0  0  0  0  0  0  0  0  0
   -1.7882   -1.5683    0.3947 C   0  0  0  0  0  0  0  0  0  0  0  0
   -2.6103   -2.6592    0.5476 C   0  0  0  0  0  0  0  0  0  0  0  0
   -3.9914   -2.5343    0.3492 C   0  0  0  0  0  0  0  0  0  0  0  0
   -4.4575   -1.3352    0.0133 N   0  0  0  0  0  0  0  0  0  0  0  0
   -0.3476   -1.6940    0.5993 C   0  0  0  0  0  0  0  0  0  0  0  0
    0.5672   -0.7162    0.4811 N   0  0  0  0  0  0  0  0  0  0  0  0
    1.7792   -1.1959    0.7413 N   0  0  0  0  0  0  0  0  0  0  0  0
    2.9953   -0.6033    0.7501 C   0  0  0  0  0  0  0  0  0  0  0  0
    4.1466   -1.3012    1.0541 C   0  0  0  0  0  0  0  0  0  0  0  0
    4.0037   -2.6424    1.3517 C   0  0  0  0  0  0  0  0  0  0  0  0
    2.7761   -3.2709    1.3498 C   0  0  0  0  0  0  0  0  0  0  0  0
    1.6561   -2.5119    1.0353 C   0  0  0  0  0  0  0  0  0  0  0  0
    0.3329   -2.8004    0.9419 N   0  0  0  0  0  0  0  0  0  0  0  0
    5.4475   -0.6399    1.0568 C   0  0  0  0  0  0  0  0  0  0  0  0
    6.5311   -0.9530    1.8542 C   0  0  0  0  0  0  0  0  0  0  0  0
    7.5370   -0.1156    1.5556 N   0  0  0  0  0  0  0  0  0  0  0  0
    7.1652    0.7348    0.5979 N   0  0  0  0  0  0  0  0  0  0  0  0
    5.8821    0.4258    0.2796 C   0  0  0  0  0  0  0  0  0  0  0  0
    7.9816    1.7533    0.0440 C   0  0  0  0  0  0  0  0  0  0  0  0
    9.3305    1.6051   -0.1819 C   0  0  0  0  0  0  0  0  0  0  0  0
   10.1092    2.6122   -0.7232 C   0  0  0  0  0  0  0  0  0  0  0  0
    9.5292    3.8053   -1.0509 N   0  0  0  0  0  0  0  0  0  0  0  0
    8.2150    3.9836   -0.8436 C   0  0  0  0  0  0  0  0  0  0  0  0
    7.4362    2.9739   -0.3013 C   0  0  0  0  0  0  0  0  0  0  0  0
   -6.7510    1.0544   -0.9885 N   0  0  0  0  0  0  0  0  0  0  0  0
   -7.8663    2.0346   -1.2954 C   0  0  0  0  0  0  0  0  0  0  0  0
   -8.9425    1.7404   -0.2979 C   0  0  0  0  0  0  0  0  0  0  0  0
   -9.4543    0.4976   -0.5657 O   0  0  0  0  0  0  0  0  0  0  0  0
   -8.6985   -0.2761   -1.3931 C   0  0  0  0  0  0  0  0  0  0  0  0
   -7.2143   -0.2865   -0.9675 C   0  0  0  0  0  0  0  0  0  0  0  0
   -3.4471    1.8263   -0.4400 H   0  0  0  0  0  0  0  0  0  0  0  0
   -1.7547    0.5104   -0.0871 H   0  0  0  0  0  0  0  0  0  0  0  0
   -2.2013   -3.6206    0.8214 H   0  0  0  0  0  0  0  0  0  0  0  0
   -4.6237   -3.3811    0.4686 H   0  0  0  0  0  0  0  0  0  0  0  0
    3.0706    0.4488    0.5121 H   0  0  0  0  0  0  0  0  0  0  0  0
    4.9025   -3.1913    1.5900 H   0  0  0  0  0  0  0  0  0  0  0  0
    2.6504   -4.3197    1.5809 H   0  0  0  0  0  0  0  0  0  0  0  0
    6.5560   -1.7426    2.5929 H   0  0  0  0  0  0  0  0  0  0  0  0
    5.2944    0.9370   -0.4674 H   0  0  0  0  0  0  0  0  0  0  0  0
    9.8122    0.6744    0.0675 H   0  0  0  0  0  0  0  0  0  0  0  0
   11.1757    2.5029   -0.9046 H   0  0  0  0  0  0  0  0  0  0  0  0
    7.7756    4.9307   -1.1082 H   0  0  0  0  0  0  0  0  0  0  0  0
    6.3796    3.1261   -0.1380 H   0  0  0  0  0  0  0  0  0  0  0  0
   -7.4697    3.0528   -1.0913 H   0  0  0  0  0  0  0  0  0  0  0  0
   -8.1872    1.9149   -2.3373 H   0  0  0  0  0  0  0  0  0  0  0  0
   -8.4865    1.8038    0.7110 H   0  0  0  0  0  0  0  0  0  0  0  0
   -9.7754    2.4668   -0.3506 H   0  0  0  0  0  0  0  0  0  0  0  0
   -9.0221   -1.3559   -1.3397 H   0  0  0  0  0  0  0  0  0  0  0  0
   -8.7316    0.0067   -2.4490 H   0  0  0  0  0  0  0  0  0  0  0  0
   -6.6874   -0.9633   -1.6828 H   0  0  0  0  0  0  0  0  0  0  0  0
   -7.2328   -0.6824    0.0460 H   0  0  0  0  0  0  0  0  0  0  0  0
  1  2  2  0
  2  3  1  0
  3  4  1  0
  4  5  2  0
  5  6  1  0
  6  7  2  0
  7  8  1  0
  8  9  2  0
  6 10  1  0
 10 11  2  0
 11 12  1  0
 12 13  1  0
 13 14  2  0
 14 15  1  0
 15 16  2  0
 16 17  1  0
 17 18  2  0
 14 19  1  0
 19 20  1  0
 20 21  2  0
 21 22  1  0
 22 23  1  0
 22 24  1  0
 24 25  2  0
 25 26  1  0
 26 27  2  0
 27 28  1  0
 28 29  2  0
  2 30  1  0
 30 31  1  0
 31 32  1  0
 32 33  1  0
 33 34  1  0
 34 35  1  0
  9  4  1  0
 18 10  1  0
 23 19  2  0
 29 24  1  0
 35 30  1  0
 17 12  1  0
  3 36  1  0
  5 37  1  0
  7 38  1  0
  8 39  1  0
 13 40  1  0
 15 41  1  0
 16 42  1  0
 20 43  1  0
 23 44  1  0
 25 45  1  0
 26 46  1  0
 28 47  1  0
 29 48  1  0
 31 49  1  0
 31 50  1  0
 32 51  1  0
 32 52  1  0
 34 53  1  0
 34 54  1  0
 35 55  1  0
 35 56  1  0
M  END
$$$$
[H]C1=c2c([H])nc(-c3c([H])nn(C([H])(C([H])([H])[H])C([H])([H])[H])c3[H])c([H])c2=C1Oc1c([H])c([H])c(C(=O)N([H])c2c([H])c(C([H])([H])[H])c([H])c([H])c2Cl)c([H])c1F
     RDKit          3D

 57 61  0  0  0  0  0  0  0  0999 V2000
  -10.1985   -0.8696    0.5143 C   0  0  0  0  0  0  0  0  0  0  0  0
   -9.3568    0.2595    1.0561 C   0  0  0  0  0  0  0  0  0  0  0  0
   -9.6882    0.5035    2.5104 C   0  0  0  0  0  0  0  0  0  0  0  0
   -7.9535   -0.0656    0.8773 N   0  0  0  0  0  0  0  0  0  0  0  0
   -7.1213    0.2407   -0.1319 C   0  0  0  0  0  0  0  0  0  0  0  0
   -5.8633   -0.2731    0.1133 C   0  0  0  0  0  0  0  0  0  0  0  0
   -5.9766   -0.9107    1.3305 C   0  0  0  0  0  0  0  0  0  0  0  0
   -7.2473   -0.7662    1.7619 N   0  0  0  0  0  0  0  0  0  0  0  0
   -4.6879   -0.1588   -0.7430 C   0  0  0  0  0  0  0  0  0  0  0  0
   -3.4892   -0.7186   -0.3582 C   0  0  0  0  0  0  0  0  0  0  0  0
   -2.3512   -0.6312   -1.1423 C   0  0  0  0  0  0  0  0  0  0  0  0
   -1.0504   -0.9511   -1.2581 C   0  0  0  0  0  0  0  0  0  0  0  0
   -0.1275   -1.6333   -0.4941 O   0  0  0  0  0  0  0  0  0  0  0  0
    1.1847   -1.2687   -0.3039 C   0  0  0  0  0  0  0  0  0  0  0  0
    1.7325   -0.1504   -0.8744 C   0  0  0  0  0  0  0  0  0  0  0  0
    3.0698    0.1947   -0.6636 C   0  0  0  0  0  0  0  0  0  0  0  0
    3.8844   -0.5751    0.1234 C   0  0  0  0  0  0  0  0  0  0  0  0
    3.3004   -1.7064    0.6910 C   0  0  0  0  0  0  0  0  0  0  0  0
    1.9851   -2.0594    0.4929 C   0  0  0  0  0  0  0  0  0  0  0  0
    1.4575   -3.1791    1.0721 F   0  0  0  0  0  0  0  0  0  0  0  0
    5.2934   -0.2979    0.3885 C   0  0  0  0  0  0  0  0  0  0  0  0
    5.7964   -0.8267    1.3936 O   0  0  0  0  0  0  0  0  0  0  0  0
    6.0232    0.5288   -0.4671 N   0  0  0  0  0  0  0  0  0  0  0  0
    7.3678    0.9306   -0.4113 C   0  0  0  0  0  0  0  0  0  0  0  0
    8.2174    0.5493    0.5724 C   0  0  0  0  0  0  0  0  0  0  0  0
    9.5605    0.9557    0.6201 C   0  0  0  0  0  0  0  0  0  0  0  0
   10.4078    0.4800    1.7419 C   0  0  0  0  0  0  0  0  0  0  0  0
   10.0355    1.7769   -0.3749 C   0  0  0  0  0  0  0  0  0  0  0  0
    9.1729    2.1659   -1.3763 C   0  0  0  0  0  0  0  0  0  0  0  0
    7.8707    1.7584   -1.4022 C   0  0  0  0  0  0  0  0  0  0  0  0
    6.8246    2.2763   -2.6859 Cl  0  0  0  0  0  0  0  0  0  0  0  0
   -1.1490   -0.2406   -2.5257 C   0  0  0  0  0  0  0  0  0  0  0  0
   -2.4241    0.0341   -2.3386 C   0  0  0  0  0  0  0  0  0  0  0  0
   -3.6275    0.5915   -2.7158 C   0  0  0  0  0  0  0  0  0  0  0  0
   -4.7251    0.4856   -1.9192 N   0  0  0  0  0  0  0  0  0  0  0  0
  -10.2070   -1.7556    1.1903 H   0  0  0  0  0  0  0  0  0  0  0  0
  -11.2441   -0.5018    0.4132 H   0  0  0  0  0  0  0  0  0  0  0  0
   -9.8092   -1.1216   -0.4941 H   0  0  0  0  0  0  0  0  0  0  0  0
   -9.6227    1.1839    0.4997 H   0  0  0  0  0  0  0  0  0  0  0  0
   -9.6687   -0.4547    3.0711 H   0  0  0  0  0  0  0  0  0  0  0  0
   -9.0840    1.2957    2.9491 H   0  0  0  0  0  0  0  0  0  0  0  0
  -10.7545    0.8424    2.5332 H   0  0  0  0  0  0  0  0  0  0  0  0
   -7.4171    0.8103   -1.0009 H   0  0  0  0  0  0  0  0  0  0  0  0
   -5.1403   -1.4256    1.8037 H   0  0  0  0  0  0  0  0  0  0  0  0
   -3.4284   -1.2437    0.5856 H   0  0  0  0  0  0  0  0  0  0  0  0
    1.1706    0.5155   -1.5060 H   0  0  0  0  0  0  0  0  0  0  0  0
    3.4646    1.0881   -1.1266 H   0  0  0  0  0  0  0  0  0  0  0  0
    3.9441   -2.3308    1.3240 H   0  0  0  0  0  0  0  0  0  0  0  0
    5.4281    0.9023   -1.3047 H   0  0  0  0  0  0  0  0  0  0  0  0
    7.9262   -0.0904    1.3872 H   0  0  0  0  0  0  0  0  0  0  0  0
    9.9371   -0.3969    2.2139 H   0  0  0  0  0  0  0  0  0  0  0  0
   11.4251    0.2139    1.3814 H   0  0  0  0  0  0  0  0  0  0  0  0
   10.4377    1.3000    2.5008 H   0  0  0  0  0  0  0  0  0  0  0  0
   11.0684    2.0897   -0.3383 H   0  0  0  0  0  0  0  0  0  0  0  0
    9.5641    2.8195   -2.1634 H   0  0  0  0  0  0  0  0  0  0  0  0
   -0.4500   -0.0182   -3.3218 H   0  0  0  0  0  0  0  0  0  0  0  0
   -3.6873    1.1241   -3.6707 H   0  0  0  0  0  0  0  0  0  0  0  0
  1  2  1  0
  2  3  1  0
  2  4  1  0
  4  5  1  0
  5  6  2  0
  6  7  1  0
  7  8  2  0
  6  9  1  0
  9 10  2  0
 10 11  1  0
 11 12  2  0
 12 13  1  0
 13 14  1  0
 14 15  2  0
 15 16  1  0
 16 17  2  0
 17 18  1  0
 18 19  2  0
 19 20  1  0
 17 21  1  0
 21 22  2  0
 21 23  1  0
 23 24  1  0
 24 25  2  0
 25 26  1  0
 26 27  1  0
 26 28  2  0
 28 29  1  0
 29 30  2  0
 30 31  1  0
 12 32  1  0
 32 33  2  0
 33 34  1  0
 34 35  2  0
  8  4  1  0
 35  9  1  0
 33 11  1  0
 19 14  1  0
 30 24  1  0
  1 36  1  0
  1 37  1  0
  1 38  1  0
  2 39  1  0
  3 40  1  0
  3 41  1  0
  3 42  1  0
  5 43  1  0
  7 44  1  0
 10 45  1  0
 15 46  1  0
 16 47  1  0
 18 48  1  0
 23 49  1  0
 25 50  1  0
 27 51  1  0
 27 52  1  0
 27 53  1  0
 28 54  1  0
 29 55  1  0
 32 56  1  0
 34 57  1  0
M  END
$$$$
[H]c1c([H])c(S(=O)(=O)N2C([H])([H])C([H])([H])C([H])(N([H])C(=O)C3([H])C([H])([H])C([H])([H])C([H])([H])C([H])([H])C3([H])[H])C([H])([H])C2([H])[H])c([H])c([H])c1N([H])[H]
     RDKit          3D

 52 54  0  0  0  0  0  0  0  0999 V2000
   -7.8600    1.9580    0.8413 N   0  0  0  0  0  0  0  0  0  0  0  0
   -6.8242    1.0428    0.5081 C   0  0  0  0  0  0  0  0  0  0  0  0
   -6.5811   -0.0453    1.3209 C   0  0  0  0  0  0  0  0  0  0  0  0
   -5.5805   -0.9259    0.9957 C   0  0  0  0  0  0  0  0  0  0  0  0
   -4.7858   -0.7679   -0.1370 C   0  0  0  0  0  0  0  0  0  0  0  0
   -5.0511    0.3275   -0.9301 C   0  0  0  0  0  0  0  0  0  0  0  0
   -6.0487    1.2197   -0.6206 C   0  0  0  0  0  0  0  0  0  0  0  0
   -3.5137   -1.8973   -0.5426 S   0  0  0  0  0  0  0  0  0  0  0  0
   -3.4055   -1.9402   -2.0369 O   0  0  0  0  0  0  0  0  0  0  0  0
   -3.8889   -3.2573   -0.0363 O   0  0  0  0  0  0  0  0  0  0  0  0
   -2.0494   -1.4345    0.1784 N   0  0  0  0  0  0  0  0  0  0  0  0
   -1.5482   -0.1555   -0.2343 C   0  0  0  0  0  0  0  0  0  0  0  0
   -0.4294   -0.2459   -1.2391 C   0  0  0  0  0  0  0  0  0  0  0  0
    0.7085   -1.1011   -0.8159 C   0  0  0  0  0  0  0  0  0  0  0  0
    1.9106   -0.3782   -0.5066 N   0  0  0  0  0  0  0  0  0  0  0  0
    3.1447   -0.5593   -1.1695 C   0  0  0  0  0  0  0  0  0  0  0  0
    3.2011   -1.4040   -2.0879 O   0  0  0  0  0  0  0  0  0  0  0  0
    4.3737    0.1896   -0.8429 C   0  0  0  0  0  0  0  0  0  0  0  0
    4.1745    1.6928   -1.0240 C   0  0  0  0  0  0  0  0  0  0  0  0
    5.5560    2.3122   -1.0377 C   0  0  0  0  0  0  0  0  0  0  0  0
    6.5878    1.4110   -0.4419 C   0  0  0  0  0  0  0  0  0  0  0  0
    6.1301    0.6622    0.7703 C   0  0  0  0  0  0  0  0  0  0  0  0
    4.8059   -0.0136    0.5912 C   0  0  0  0  0  0  0  0  0  0  0  0
    0.3307   -1.9132    0.3764 C   0  0  0  0  0  0  0  0  0  0  0  0
   -1.0465   -2.4727    0.1667 C   0  0  0  0  0  0  0  0  0  0  0  0
   -8.2796    1.9715    1.7789 H   0  0  0  0  0  0  0  0  0  0  0  0
   -8.1970    2.6242    0.1218 H   0  0  0  0  0  0  0  0  0  0  0  0
   -7.2139   -0.1551    2.2069 H   0  0  0  0  0  0  0  0  0  0  0  0
   -5.3814   -1.7782    1.6219 H   0  0  0  0  0  0  0  0  0  0  0  0
   -4.4736    0.5287   -1.8425 H   0  0  0  0  0  0  0  0  0  0  0  0
   -6.2231    2.0723   -1.2773 H   0  0  0  0  0  0  0  0  0  0  0  0
   -1.2166    0.4141    0.6591 H   0  0  0  0  0  0  0  0  0  0  0  0
   -2.3809    0.4180   -0.6824 H   0  0  0  0  0  0  0  0  0  0  0  0
   -0.1135    0.8186   -1.4416 H   0  0  0  0  0  0  0  0  0  0  0  0
   -0.8823   -0.5887   -2.1932 H   0  0  0  0  0  0  0  0  0  0  0  0
    0.9204   -1.8242   -1.6580 H   0  0  0  0  0  0  0  0  0  0  0  0
    1.8719    0.3298    0.2596 H   0  0  0  0  0  0  0  0  0  0  0  0
    5.2238   -0.1122   -1.4857 H   0  0  0  0  0  0  0  0  0  0  0  0
    3.5965    1.9278   -1.9318 H   0  0  0  0  0  0  0  0  0  0  0  0
    3.6747    2.0409   -0.0886 H   0  0  0  0  0  0  0  0  0  0  0  0
    5.5556    3.3318   -0.5942 H   0  0  0  0  0  0  0  0  0  0  0  0
    5.8213    2.4492   -2.1277 H   0  0  0  0  0  0  0  0  0  0  0  0
    7.0604    0.7177   -1.1767 H   0  0  0  0  0  0  0  0  0  0  0  0
    7.4366    2.0753   -0.1035 H   0  0  0  0  0  0  0  0  0  0  0  0
    6.9003   -0.1359    0.9697 H   0  0  0  0  0  0  0  0  0  0  0  0
    6.1671    1.3432    1.6535 H   0  0  0  0  0  0  0  0  0  0  0  0
    4.8040   -1.0806    0.8699 H   0  0  0  0  0  0  0  0  0  0  0  0
    4.0642    0.5593    1.2200 H   0  0  0  0  0  0  0  0  0  0  0  0
    1.0399   -2.7438    0.4822 H   0  0  0  0  0  0  0  0  0  0  0  0
    0.2923   -1.2512    1.2607 H   0  0  0  0  0  0  0  0  0  0  0  0
   -1.1122   -3.1009   -0.7563 H   0  0  0  0  0  0  0  0  0  0  0  0
   -1.2655   -3.1553    1.0139 H   0  0  0  0  0  0  0  0  0  0  0  0
  1  2  1  0
  2  3  2  0
  3  4  1  0
  4  5  2  0
  5  6  1  0
  6  7  2  0
  5  8  1  0
  8  9  2  0
  8 10  2  0
  8 11  1  0
 11 12  1  0
 12 13  1  0
 13 14  1  0
 14 15  1  0
 15 16  1  0
 16 17  2  0
 16 18  1  0
 18 19  1  0
 19 20  1  0
 20 21  1  0
 21 22  1  0
 22 23  1  0
 14 24  1  0
 24 25  1  0
  7  2  1  0
 25 11  1  0
 23 18  1  0
  1 26  1  0
  1 27  1  0
  3 28  1  0
  4 29  1  0
  6 30  1  0
  7 31  1  0
 12 32  1  0
 12 33  1  0
 13 34  1  0
 13 35  1  0
 14 36  1  0
 15 37  1  0
 18 38  1  0
 19 39  1  0
 19 40  1  0
 20 41  1  0
 20 42  1  0
 21 43  1  0
 21 44  1  0
 22 45  1  0
 22 46  1  0
 23 47  1  0
 23 48  1  0
 24 49  1  0
 24 50  1  0
 25 51  1  0
 25 52  1  0
M  END
$$$$
[H]c1c([H])c(C([H])([H])C([H])([H])c2c([H])n([H])c3c([H])c([H])c([H])c([H])c23)c([H])c(-c2c([H])c([H])c(N([H])C(=O)C([H])([H])C([H])([H])N([H])[H])c([H])c2[H])c1F
     RDKit          3D

 54 57  0  0  0  0  0  0  0  0999 V2000
   -7.2902   -2.4553   -0.7262 N   0  0  0  0  0  0  0  0  0  0  0  0
   -7.6270   -1.6292    0.4008 C   0  0  0  0  0  0  0  0  0  0  0  0
   -6.4469   -1.4500    1.3187 C   0  0  0  0  0  0  0  0  0  0  0  0
   -5.3269   -0.7846    0.5558 C   0  0  0  0  0  0  0  0  0  0  0  0
   -5.5725   -0.4870   -0.6366 O   0  0  0  0  0  0  0  0  0  0  0  0
   -4.1311   -0.5608    1.2324 N   0  0  0  0  0  0  0  0  0  0  0  0
   -2.9982    0.0508    0.6781 C   0  0  0  0  0  0  0  0  0  0  0  0
   -1.7409   -0.1855    1.2747 C   0  0  0  0  0  0  0  0  0  0  0  0
   -0.6209    0.4096    0.7792 C   0  0  0  0  0  0  0  0  0  0  0  0
   -0.6907    1.2391   -0.2946 C   0  0  0  0  0  0  0  0  0  0  0  0
   -1.9061    1.4718   -0.8762 C   0  0  0  0  0  0  0  0  0  0  0  0
   -3.0556    0.8874   -0.4006 C   0  0  0  0  0  0  0  0  0  0  0  0
    0.4823    1.8947   -0.8656 C   0  0  0  0  0  0  0  0  0  0  0  0
    1.6579    1.2039   -1.1385 C   0  0  0  0  0  0  0  0  0  0  0  0
    2.7598    1.8311   -1.6826 C   0  0  0  0  0  0  0  0  0  0  0  0
    3.9783    1.0588   -1.9526 C   0  0  0  0  0  0  0  0  0  0  0  0
    4.9372    1.0280   -0.8067 C   0  0  0  0  0  0  0  0  0  0  0  0
    4.3785    0.4371    0.4164 C   0  0  0  0  0  0  0  0  0  0  0  0
    3.9416    1.0679    1.5661 C   0  0  0  0  0  0  0  0  0  0  0  0
    3.4985    0.1593    2.4578 N   0  0  0  0  0  0  0  0  0  0  0  0
    3.6426   -1.0434    1.9023 C   0  0  0  0  0  0  0  0  0  0  0  0
    3.3456   -2.2990    2.3846 C   0  0  0  0  0  0  0  0  0  0  0  0
    3.5874   -3.4324    1.6088 C   0  0  0  0  0  0  0  0  0  0  0  0
    4.1232   -3.2812    0.3630 C   0  0  0  0  0  0  0  0  0  0  0  0
    4.4172   -2.0251   -0.1123 C   0  0  0  0  0  0  0  0  0  0  0  0
    4.1775   -0.9061    0.6560 C   0  0  0  0  0  0  0  0  0  0  0  0
    2.7390    3.1750   -1.9788 C   0  0  0  0  0  0  0  0  0  0  0  0
    1.5820    3.8734   -1.7144 C   0  0  0  0  0  0  0  0  0  0  0  0
    0.4705    3.2386   -1.1651 C   0  0  0  0  0  0  0  0  0  0  0  0
   -0.6297    3.9982   -0.9301 F   0  0  0  0  0  0  0  0  0  0  0  0
   -7.3511   -1.8826   -1.5938 H   0  0  0  0  0  0  0  0  0  0  0  0
   -6.3213   -2.8263   -0.6533 H   0  0  0  0  0  0  0  0  0  0  0  0
   -8.0307   -0.6444    0.0542 H   0  0  0  0  0  0  0  0  0  0  0  0
   -8.4630   -2.0777    1.0016 H   0  0  0  0  0  0  0  0  0  0  0  0
   -6.6743   -0.7771    2.1699 H   0  0  0  0  0  0  0  0  0  0  0  0
   -6.1263   -2.4302    1.7031 H   0  0  0  0  0  0  0  0  0  0  0  0
   -4.0484   -0.8642    2.2473 H   0  0  0  0  0  0  0  0  0  0  0  0
   -1.7363   -0.8466    2.1168 H   0  0  0  0  0  0  0  0  0  0  0  0
    0.3647    0.2357    1.2324 H   0  0  0  0  0  0  0  0  0  0  0  0
   -2.0185    2.1255   -1.7415 H   0  0  0  0  0  0  0  0  0  0  0  0
   -4.0035    1.1347   -0.9125 H   0  0  0  0  0  0  0  0  0  0  0  0
    1.6560    0.1580   -0.9015 H   0  0  0  0  0  0  0  0  0  0  0  0
    3.7564    0.0115   -2.2562 H   0  0  0  0  0  0  0  0  0  0  0  0
    4.5141    1.5452   -2.8114 H   0  0  0  0  0  0  0  0  0  0  0  0
    5.3804    2.0462   -0.6244 H   0  0  0  0  0  0  0  0  0  0  0  0
    5.8133    0.4052   -1.1302 H   0  0  0  0  0  0  0  0  0  0  0  0
    3.9349    2.1289    1.7705 H   0  0  0  0  0  0  0  0  0  0  0  0
    3.1052    0.3507    3.4258 H   0  0  0  0  0  0  0  0  0  0  0  0
    2.9181   -2.4404    3.3748 H   0  0  0  0  0  0  0  0  0  0  0  0
    3.3673   -4.4327    1.9542 H   0  0  0  0  0  0  0  0  0  0  0  0
    4.3404   -4.1293   -0.3041 H   0  0  0  0  0  0  0  0  0  0  0  0
    4.8359   -1.9012   -1.0848 H   0  0  0  0  0  0  0  0  0  0  0  0
    3.6033    3.6779   -2.4079 H   0  0  0  0  0  0  0  0  0  0  0  0
    1.5009    4.9483   -1.9278 H   0  0  0  0  0  0  0  0  0  0  0  0
  1  2  1  0
  2  3  1  0
  3  4  1  0
  4  5  2  0
  4  6  1  0
  6  7  1  0
  7  8  2  0
  8  9  1  0
  9 10  2  0
 10 11  1  0
 11 12  2  0
 10 13  1  0
 13 14  2  0
 14 15  1  0
 15 16  1  0
 16 17  1  0
 17 18  1  0
 18 19  2  0
 19 20  1  0
 20 21  1  0
 21 22  2  0
 22 23  1  0
 23 24  2  0
 24 25  1  0
 25 26  2  0
 15 27  2  0
 27 28  1  0
 28 29  2  0
 29 30  1  0
 12  7  1  0
 29 13  1  0
 26 18  1  0
 26 21  1  0
  1 31  1  0
  1 32  1  0
  2 33  1  0
  2 34  1  0
  3 35  1  0
  3 36  1  0
  6 37  1  0
  8 38  1  0
  9 39  1  0
 11 40  1  0
 12 41  1  0
 14 42  1  0
 16 43  1  0
 16 44  1  0
 17 45  1  0
 17 46  1  0
 19 47  1  0
 20 48  1  0
 22 49  1  0
 23 50  1  0
 24 51  1  0
 25 52  1  0
 27 53  1  0
 28 54  1  0
M  END
$$$$
[H]c1c([H])c2c(c([H])c1F)C(=O)N([H])C1([H])C([H])([H])C([H])([H])N(C([H])([H])C1([H])[H])C([H])([H])[C@@]1([H])OC2([H])C([H])([H])c2c([H])c(C3([H])C([H])([H])C([H])([H])N(C([H])([H])[H])C([H])([H])C3([H])[H])c(Cl)c([H])c2C([H])([H])C1([H])[H]
     RDKit          3D

 74 79  0  0  0  0  0  0  0  0999 V2000
    7.3328    1.8999    0.4452 C   0  0  0  0  0  0  0  0  0  0  0  0
    6.1604    1.1259    0.8764 N   0  0  0  0  0  0  0  0  0  0  0  0
    5.0757    1.2546   -0.0788 C   0  0  0  0  0  0  0  0  0  0  0  0
    4.9908    0.0951   -1.0132 C   0  0  0  0  0  0  0  0  0  0  0  0
    4.7259   -1.2219   -0.3319 C   0  0  0  0  0  0  0  0  0  0  0  0
    5.2738   -1.1188    1.0887 C   0  0  0  0  0  0  0  0  0  0  0  0
    6.5325   -0.2639    1.0109 C   0  0  0  0  0  0  0  0  0  0  0  0
    3.2849   -1.5919   -0.3209 C   0  0  0  0  0  0  0  0  0  0  0  0
    2.3096   -0.6940   -0.6456 C   0  0  0  0  0  0  0  0  0  0  0  0
    0.9688   -1.0168   -0.6354 C   0  0  0  0  0  0  0  0  0  0  0  0
    0.2556    0.2416   -1.0606 C   0  0  0  0  0  0  0  0  0  0  0  0
   -1.0227    0.4244   -0.3287 C   0  0  0  0  0  0  0  0  0  0  0  0
   -2.0154   -0.1321   -1.0538 O   0  0  0  0  0  0  0  0  0  0  0  0
   -2.1134   -1.4751   -1.1500 C   0  0  2  0  0  0  0  0  0  0  0  0
   -3.5859   -1.7624   -1.5178 C   0  0  0  0  0  0  0  0  0  0  0  0
   -4.4254   -0.9387   -0.7113 N   0  0  0  0  0  0  0  0  0  0  0  0
   -5.3754   -1.5810    0.1187 C   0  0  0  0  0  0  0  0  0  0  0  0
   -5.8502   -0.5866    1.1539 C   0  0  0  0  0  0  0  0  0  0  0  0
   -5.0727    0.7135    1.1433 C   0  0  0  0  0  0  0  0  0  0  0  0
   -5.0927    1.2849   -0.2372 C   0  0  0  0  0  0  0  0  0  0  0  0
   -4.8723    0.2603   -1.3343 C   0  0  0  0  0  0  0  0  0  0  0  0
   -3.7768    0.5032    1.7211 N   0  0  0  0  0  0  0  0  0  0  0  0
   -2.7448    1.4681    1.9690 C   0  0  0  0  0  0  0  0  0  0  0  0
   -2.4009    1.5353    3.2260 O   0  0  0  0  0  0  0  0  0  0  0  0
   -2.0778    2.3344    1.0033 C   0  0  0  0  0  0  0  0  0  0  0  0
   -2.2047    3.7120    1.1204 C   0  0  0  0  0  0  0  0  0  0  0  0
   -1.6063    4.5763    0.2168 C   0  0  0  0  0  0  0  0  0  0  0  0
   -1.7650    5.9255    0.3806 F   0  0  0  0  0  0  0  0  0  0  0  0
   -0.8587    4.0965   -0.8370 C   0  0  0  0  0  0  0  0  0  0  0  0
   -0.7108    2.7331   -0.9824 C   0  0  0  0  0  0  0  0  0  0  0  0
   -1.3135    1.8842   -0.0716 C   0  0  0  0  0  0  0  0  0  0  0  0
   -1.8292   -2.2857    0.0649 C   0  0  0  0  0  0  0  0  0  0  0  0
   -0.5836   -3.1162   -0.1280 C   0  0  0  0  0  0  0  0  0  0  0  0
    0.6208   -2.3003   -0.2804 C   0  0  0  0  0  0  0  0  0  0  0  0
    1.6229   -3.2103    0.0501 C   0  0  0  0  0  0  0  0  0  0  0  0
    2.9442   -2.8825    0.0367 C   0  0  0  0  0  0  0  0  0  0  0  0
    4.1548   -4.0809    0.4496 Cl  0  0  0  0  0  0  0  0  0  0  0  0
    7.6590    2.6254    1.1947 H   0  0  0  0  0  0  0  0  0  0  0  0
    7.0749    2.4211   -0.5041 H   0  0  0  0  0  0  0  0  0  0  0  0
    8.1887    1.1986    0.2444 H   0  0  0  0  0  0  0  0  0  0  0  0
    4.1579    1.4959    0.4553 H   0  0  0  0  0  0  0  0  0  0  0  0
    5.3262    2.1509   -0.7051 H   0  0  0  0  0  0  0  0  0  0  0  0
    4.3190    0.3279   -1.8428 H   0  0  0  0  0  0  0  0  0  0  0  0
    6.0126    0.0066   -1.4954 H   0  0  0  0  0  0  0  0  0  0  0  0
    5.2756   -2.0368   -0.8330 H   0  0  0  0  0  0  0  0  0  0  0  0
    5.6061   -2.1092    1.4453 H   0  0  0  0  0  0  0  0  0  0  0  0
    4.5322   -0.6714    1.7727 H   0  0  0  0  0  0  0  0  0  0  0  0
    7.1325   -0.3885    1.9402 H   0  0  0  0  0  0  0  0  0  0  0  0
    7.1118   -0.5449    0.1089 H   0  0  0  0  0  0  0  0  0  0  0  0
    2.5398    0.3208   -0.9254 H   0  0  0  0  0  0  0  0  0  0  0  0
    0.1559    0.1757   -2.1641 H   0  0  0  0  0  0  0  0  0  0  0  0
    1.0005    1.0464   -0.8816 H   0  0  0  0  0  0  0  0  0  0  0  0
   -0.8650    0.0194    0.7008 H   0  0  0  0  0  0  0  0  0  0  0  0
   -1.5336   -1.9171   -2.0087 H   0  0  0  0  0  0  0  0  0  0  0  0
   -3.8377   -2.8184   -1.3518 H   0  0  0  0  0  0  0  0  0  0  0  0
   -3.7743   -1.5188   -2.5744 H   0  0  0  0  0  0  0  0  0  0  0  0
   -4.9298   -2.4808    0.5740 H   0  0  0  0  0  0  0  0  0  0  0  0
   -6.2656   -1.9131   -0.4646 H   0  0  0  0  0  0  0  0  0  0  0  0
   -6.9444   -0.4129    1.0924 H   0  0  0  0  0  0  0  0  0  0  0  0
   -5.6469   -1.0560    2.1615 H   0  0  0  0  0  0  0  0  0  0  0  0
   -5.7186    1.4022    1.7557 H   0  0  0  0  0  0  0  0  0  0  0  0
   -4.4268    2.1415   -0.4023 H   0  0  0  0  0  0  0  0  0  0  0  0
   -6.1323    1.7121   -0.3987 H   0  0  0  0  0  0  0  0  0  0  0  0
   -5.8379    0.0571   -1.8861 H   0  0  0  0  0  0  0  0  0  0  0  0
   -4.1224    0.6240   -2.0599 H   0  0  0  0  0  0  0  0  0  0  0  0
   -3.5109   -0.4895    2.0241 H   0  0  0  0  0  0  0  0  0  0  0  0
   -2.7720    4.2093    1.9293 H   0  0  0  0  0  0  0  0  0  0  0  0
   -0.3893    4.7885   -1.5479 H   0  0  0  0  0  0  0  0  0  0  0  0
   -0.1247    2.3851   -1.8234 H   0  0  0  0  0  0  0  0  0  0  0  0
   -2.6411   -3.0589    0.2587 H   0  0  0  0  0  0  0  0  0  0  0  0
   -1.7471   -1.7506    1.0109 H   0  0  0  0  0  0  0  0  0  0  0  0
   -0.7334   -3.6655   -1.1035 H   0  0  0  0  0  0  0  0  0  0  0  0
   -0.4583   -3.8649    0.6801 H   0  0  0  0  0  0  0  0  0  0  0  0
    1.3640   -4.2213    0.3309 H   0  0  0  0  0  0  0  0  0  0  0  0
  1  2  1  0
  2  3  1  0
  3  4  1  0
  4  5  1  0
  5  6  1  0
  6  7  1  0
  5  8  1  0
  8  9  2  0
  9 10  1  0
 10 11  1  0
 11 12  1  0
 12 13  1  0
 13 14  1  0
 14 15  1  0
 15 16  1  0
 16 17  1  0
 17 18  1  0
 18 19  1  0
 19 20  1  0
 20 21  1  0
 19 22  1  0
 22 23  1  0
 23 24  2  0
 23 25  1  0
 25 26  2  0
 26 27  1  0
 27 28  1  0
 27 29  2  0
 29 30  1  0
 30 31  2  0
 14 32  1  0
 32 33  1  0
 33 34  1  0
 34 35  1  0
 35 36  2  0
 36 37  1  0
  7  2  1  0
 36  8  1  0
 34 10  2  0
 31 12  1  0
 21 16  1  0
 31 25  1  0
  1 38  1  0
  1 39  1  0
  1 40  1  0
  3 41  1  0
  3 42  1  0
  4 43  1  0
  4 44  1  0
  5 45  1  0
  6 46  1  0
  6 47  1  0
  7 48  1  0
  7 49  1  0
  9 50  1  0
 11 51  1  0
 11 52  1  0
 12 53  1  0
 14 54  1  6
 15 55  1  0
 15 56  1  0
 17 57  1  0
 17 58  1  0
 18 59  1  0
 18 60  1  0
 19 61  1  0
 20 62  1  0
 20 63  1  0
 21 64  1  0
 21 65  1  0
 22 66  1  0
 26 67  1  0
 29 68  1  0
 30 69  1  0
 32 70  1  0
 32 71  1  0
 33 72  1  0
 33 73  1  0
 35 74  1  0
M  END
$$$$
[H]c1c([H])c([H])c(N2C([H])([H])C([H])([H])C([H])(c3c([H])c([H])c(C([H])(Oc4c([H])c([H])c5c(c4[H])c4c([H])c([H])c(C#N)nc4n5[H])C([H])([H])[H])c([H])c3[H])C([H])([H])C2([H])[H])c([H])c1[H]
     RDKit          3D

 64 69  0  0  0  0  0  0  0  0999 V2000
    1.3138    2.4675   -3.5264 C   0  0  0  0  0  0  0  0  0  0  0  0
    1.6529    1.1137   -2.9160 C   0  0  0  0  0  0  0  0  0  0  0  0
    2.4274    1.2301   -1.7691 O   0  0  0  0  0  0  0  0  0  0  0  0
    3.6334    0.5989   -1.5629 C   0  0  0  0  0  0  0  0  0  0  0  0
    4.2464   -0.2370   -2.4629 C   0  0  0  0  0  0  0  0  0  0  0  0
    5.4691   -0.8552   -2.2097 C   0  0  0  0  0  0  0  0  0  0  0  0
    6.1341   -0.6541   -1.0231 C   0  0  0  0  0  0  0  0  0  0  0  0
    7.3067   -1.1112   -0.5113 N   0  0  0  0  0  0  0  0  0  0  0  0
    7.4968   -0.5966    0.7232 C   0  0  0  0  0  0  0  0  0  0  0  0
    8.4949   -0.7405    1.6407 N   0  0  0  0  0  0  0  0  0  0  0  0
    8.4490   -0.1088    2.8236 C   0  0  0  0  0  0  0  0  0  0  0  0
    7.3682    0.6976    3.1053 C   0  0  0  0  0  0  0  0  0  0  0  0
    6.3529    0.8510    2.1855 C   0  0  0  0  0  0  0  0  0  0  0  0
    6.4080    0.2002    0.9764 C   0  0  0  0  0  0  0  0  0  0  0  0
    5.5276    0.1827   -0.1134 C   0  0  0  0  0  0  0  0  0  0  0  0
    4.3219    0.7985   -0.3511 C   0  0  0  0  0  0  0  0  0  0  0  0
    9.5155   -0.2645    3.8034 C   0  0  0  0  0  0  0  0  0  0  0  0
   10.3641   -0.3804    4.5812 N   0  0  0  0  0  0  0  0  0  0  0  0
    0.3773    0.4318   -2.4673 C   0  0  0  0  0  0  0  0  0  0  0  0
   -0.1842   -0.6111   -3.1699 C   0  0  0  0  0  0  0  0  0  0  0  0
   -1.3491   -1.2225   -2.7440 C   0  0  0  0  0  0  0  0  0  0  0  0
   -1.9949   -0.8117   -1.5981 C   0  0  0  0  0  0  0  0  0  0  0  0
   -1.4231    0.2368   -0.8988 C   0  0  0  0  0  0  0  0  0  0  0  0
   -0.2606    0.8503   -1.3197 C   0  0  0  0  0  0  0  0  0  0  0  0
   -3.2258   -1.4898   -1.1749 C   0  0  0  0  0  0  0  0  0  0  0  0
   -3.1906   -1.9894    0.2290 C   0  0  0  0  0  0  0  0  0  0  0  0
   -4.5536   -1.9200    0.9206 C   0  0  0  0  0  0  0  0  0  0  0  0
   -5.1195   -0.5974    0.8343 N   0  0  0  0  0  0  0  0  0  0  0  0
   -4.8841    0.2220   -0.3361 C   0  0  0  0  0  0  0  0  0  0  0  0
   -4.4205   -0.6226   -1.4808 C   0  0  0  0  0  0  0  0  0  0  0  0
   -5.9269   -0.0480    1.8801 C   0  0  0  0  0  0  0  0  0  0  0  0
   -6.3806    1.2447    1.8136 C   0  0  0  0  0  0  0  0  0  0  0  0
   -7.1635    1.8206    2.7931 C   0  0  0  0  0  0  0  0  0  0  0  0
   -7.5275    1.1032    3.8995 C   0  0  0  0  0  0  0  0  0  0  0  0
   -7.0881   -0.1957    3.9946 C   0  0  0  0  0  0  0  0  0  0  0  0
   -6.2947   -0.7727    2.9974 C   0  0  0  0  0  0  0  0  0  0  0  0
    2.0992    2.6847   -4.2981 H   0  0  0  0  0  0  0  0  0  0  0  0
    0.3152    2.5083   -3.9664 H   0  0  0  0  0  0  0  0  0  0  0  0
    1.4832    3.2188   -2.7159 H   0  0  0  0  0  0  0  0  0  0  0  0
    2.0489    0.4733   -3.7212 H   0  0  0  0  0  0  0  0  0  0  0  0
    3.7420   -0.4183   -3.4187 H   0  0  0  0  0  0  0  0  0  0  0  0
    5.8958   -1.5001   -2.9590 H   0  0  0  0  0  0  0  0  0  0  0  0
    7.9593   -1.7636   -1.0058 H   0  0  0  0  0  0  0  0  0  0  0  0
    7.3315    1.2080    4.0614 H   0  0  0  0  0  0  0  0  0  0  0  0
    5.4861    1.4729    2.3608 H   0  0  0  0  0  0  0  0  0  0  0  0
    3.8626    1.4525    0.3772 H   0  0  0  0  0  0  0  0  0  0  0  0
    0.2940   -0.9674   -4.0826 H   0  0  0  0  0  0  0  0  0  0  0  0
   -1.7887   -2.0570   -3.3160 H   0  0  0  0  0  0  0  0  0  0  0  0
   -1.9085    0.5883    0.0188 H   0  0  0  0  0  0  0  0  0  0  0  0
    0.1555    1.6767   -0.7338 H   0  0  0  0  0  0  0  0  0  0  0  0
   -3.3634   -2.4026   -1.8303 H   0  0  0  0  0  0  0  0  0  0  0  0
   -2.8595   -3.0464    0.3262 H   0  0  0  0  0  0  0  0  0  0  0  0
   -2.4580   -1.3802    0.7942 H   0  0  0  0  0  0  0  0  0  0  0  0
   -4.3362   -2.1923    1.9867 H   0  0  0  0  0  0  0  0  0  0  0  0
   -5.2210   -2.6634    0.4619 H   0  0  0  0  0  0  0  0  0  0  0  0
   -4.2320    1.0782   -0.1685 H   0  0  0  0  0  0  0  0  0  0  0  0
   -5.8931    0.6268   -0.6162 H   0  0  0  0  0  0  0  0  0  0  0  0
   -4.1126    0.0824   -2.3076 H   0  0  0  0  0  0  0  0  0  0  0  0
   -5.2650   -1.2075   -1.9434 H   0  0  0  0  0  0  0  0  0  0  0  0
   -6.1312    1.8874    0.9559 H   0  0  0  0  0  0  0  0  0  0  0  0
   -7.5027    2.8614    2.6940 H   0  0  0  0  0  0  0  0  0  0  0  0
   -8.1422    1.5257    4.6875 H   0  0  0  0  0  0  0  0  0  0  0  0
   -7.3620   -0.7841    4.8598 H   0  0  0  0  0  0  0  0  0  0  0  0
   -5.9699   -1.7827    3.0969 H   0  0  0  0  0  0  0  0  0  0  0  0
  1  2  1  0
  2  3  1  0
  3  4  1  0
  4  5  2  0
  5  6  1  0
  6  7  2  0
  7  8  1  0
  8  9  1  0
  9 10  2  0
 10 11  1  0
 11 12  2  0
 12 13  1  0
 13 14  2  0
 14 15  1  0
 15 16  2  0
 11 17  1  0
 17 18  3  0
  2 19  1  0
 19 20  2  0
 20 21  1  0
 21 22  2  0
 22 23  1  0
 23 24  2  0
 22 25  1  0
 25 26  1  0
 26 27  1  0
 27 28  1  0
 28 29  1  0
 29 30  1  0
 28 31  1  0
 31 32  2  0
 32 33  1  0
 33 34  2  0
 34 35  1  0
 35 36  2  0
 16  4  1  0
 24 19  1  0
 30 25  1  0
 36 31  1  0
 15  7  1  0
 14  9  1  0
  1 37  1  0
  1 38  1  0
  1 39  1  0
  2 40  1  0
  5 41  1  0
  6 42  1  0
  8 43  1  0
 12 44  1  0
 13 45  1  0
 16 46  1  0
 20 47  1  0
 21 48  1  0
 23 49  1  0
 24 50  1  0
 25 51  1  0
 26 52  1  0
 26 53  1  0
 27 54  1  0
 27 55  1  0
 29 56  1  0
 29 57  1  0
 30 58  1  0
 30 59  1  0
 32 60  1  0
 33 61  1  0
 34 62  1  0
 35 63  1  0
 36 64  1  0
M  END
$$$$
[H]c1c([H])c([H])c2c(c1OC([H])([H])[H])c(C(=O)N(C([H])([H])[H])C([H])([H])[H])c([H])n2C([H])([H])C1([H])C([H])([H])C1([H])[H]
     RDKit          3D

 40 42  0  0  0  0  0  0  0  0999 V2000
    3.5660    2.6663    1.2152 C   0  0  0  0  0  0  0  0  0  0  0  0
    2.4059    1.9666    0.7262 N   0  0  0  0  0  0  0  0  0  0  0  0
    1.9739    2.1678   -0.6322 C   0  0  0  0  0  0  0  0  0  0  0  0
    1.6980    1.0929    1.5657 C   0  0  0  0  0  0  0  0  0  0  0  0
    2.0886    0.9286    2.7492 O   0  0  0  0  0  0  0  0  0  0  0  0
    0.5046    0.3509    1.1192 C   0  0  0  0  0  0  0  0  0  0  0  0
   -0.8088    0.7626    1.1930 C   0  0  0  0  0  0  0  0  0  0  0  0
   -1.6241   -0.1742    0.6901 N   0  0  0  0  0  0  0  0  0  0  0  0
   -3.0695   -0.1053    0.5946 C   0  0  0  0  0  0  0  0  0  0  0  0
   -3.5211    0.4971   -0.6931 C   0  0  0  0  0  0  0  0  0  0  0  0
   -4.9923    0.6398   -0.9464 C   0  0  0  0  0  0  0  0  0  0  0  0
   -4.1964    1.8419   -0.5799 C   0  0  0  0  0  0  0  0  0  0  0  0
   -0.8659   -1.2076    0.2813 C   0  0  0  0  0  0  0  0  0  0  0  0
   -1.1552   -2.4237   -0.3038 C   0  0  0  0  0  0  0  0  0  0  0  0
   -0.1545   -3.3166   -0.6266 C   0  0  0  0  0  0  0  0  0  0  0  0
    1.1775   -2.9993   -0.3633 C   0  0  0  0  0  0  0  0  0  0  0  0
    1.4641   -1.7852    0.2206 C   0  0  0  0  0  0  0  0  0  0  0  0
    2.7971   -1.4911    0.4733 O   0  0  0  0  0  0  0  0  0  0  0  0
    3.8371   -2.3891    0.1516 C   0  0  0  0  0  0  0  0  0  0  0  0
    0.4568   -0.8998    0.5394 C   0  0  0  0  0  0  0  0  0  0  0  0
    3.6827    2.6144    2.3096 H   0  0  0  0  0  0  0  0  0  0  0  0
    3.5351    3.7349    0.8912 H   0  0  0  0  0  0  0  0  0  0  0  0
    4.4937    2.2147    0.7659 H   0  0  0  0  0  0  0  0  0  0  0  0
    2.3466    3.1144   -1.0704 H   0  0  0  0  0  0  0  0  0  0  0  0
    2.2612    1.3564   -1.3180 H   0  0  0  0  0  0  0  0  0  0  0  0
    0.8651    2.2334   -0.6555 H   0  0  0  0  0  0  0  0  0  0  0  0
   -1.1210    1.7007    1.5973 H   0  0  0  0  0  0  0  0  0  0  0  0
   -3.4907   -1.1465    0.6384 H   0  0  0  0  0  0  0  0  0  0  0  0
   -3.5224    0.4277    1.4340 H   0  0  0  0  0  0  0  0  0  0  0  0
   -2.8552    0.4227   -1.5807 H   0  0  0  0  0  0  0  0  0  0  0  0
   -5.7137    0.2685   -0.2012 H   0  0  0  0  0  0  0  0  0  0  0  0
   -5.3885    0.6208   -1.9795 H   0  0  0  0  0  0  0  0  0  0  0  0
   -4.0433    2.6131   -1.3431 H   0  0  0  0  0  0  0  0  0  0  0  0
   -4.3769    2.2656    0.4374 H   0  0  0  0  0  0  0  0  0  0  0  0
   -2.1686   -2.7256   -0.5319 H   0  0  0  0  0  0  0  0  0  0  0  0
   -0.4039   -4.2623   -1.0837 H   0  0  0  0  0  0  0  0  0  0  0  0
    1.9365   -3.7304   -0.6329 H   0  0  0  0  0  0  0  0  0  0  0  0
    3.7384   -3.3546    0.7076 H   0  0  0  0  0  0  0  0  0  0  0  0
    3.8482   -2.5767   -0.9536 H   0  0  0  0  0  0  0  0  0  0  0  0
    4.7946   -1.9138    0.4172 H   0  0  0  0  0  0  0  0  0  0  0  0
  1  2  1  0
  2  3  1  0
  2  4  1  0
  4  5  2  0
  4  6  1  0
  6  7  2  0
  7  8  1  0
  8  9  1  0
  9 10  1  0
 10 11  1  0
 11 12  1  0
  8 13  1  0
 13 14  2  0
 14 15  1  0
 15 16  2  0
 16 17  1  0
 17 18  1  0
 18 19  1  0
 17 20  2  0
 20  6  1  0
 12 10  1  0
 20 13  1  0
  1 21  1  0
  1 22  1  0
  1 23  1  0
  3 24  1  0
  3 25  1  0
  3 26  1  0
  7 27  1  0
  9 28  1  0
  9 29  1  0
 10 30  1  0
 11 31  1  0
 11 32  1  0
 12 33  1  0
 12 34  1  0
 14 35  1  0
 15 36  1  0
 16 37  1  0
 19 38  1  0
 19 39  1  0
 19 40  1  0
M  END
$$$$
[H]c1nc(N([H])c2c([H])c([H])c(N(C([H])([H])[H])C([H])([H])[H])c([H])c2[H])c2c([H])c(-c3sc(C(=O)N4C([H])([H])C([H])([H])N(C([H])([H])[H])C([H])([H])C4([H])[H])nc3C3(C([H])([H])[H])C([H])([H])OC3([H])[H])sc2n1
     RDKit          3D

 69 74  0  0  0  0  0  0  0  0999 V2000
   10.1235    1.5571   -0.9040 C   0  0  0  0  0  0  0  0  0  0  0  0
    8.9161    2.3577   -0.9305 N   0  0  0  0  0  0  0  0  0  0  0  0
    9.0187    3.7629   -1.1660 C   0  0  0  0  0  0  0  0  0  0  0  0
    7.6616    1.6905   -0.7160 C   0  0  0  0  0  0  0  0  0  0  0  0
    7.6055    0.3307   -0.4919 C   0  0  0  0  0  0  0  0  0  0  0  0
    6.4104   -0.3284   -0.2830 C   0  0  0  0  0  0  0  0  0  0  0  0
    5.2106    0.3402   -0.2873 C   0  0  0  0  0  0  0  0  0  0  0  0
    3.9504   -0.2035   -0.0658 N   0  0  0  0  0  0  0  0  0  0  0  0
    3.6000   -1.4506    0.4989 C   0  0  0  0  0  0  0  0  0  0  0  0
    4.5232   -2.3116    0.9477 N   0  0  0  0  0  0  0  0  0  0  0  0
    4.3125   -3.4825    1.4982 C   0  0  0  0  0  0  0  0  0  0  0  0
    3.0459   -3.8812    1.6369 N   0  0  0  0  0  0  0  0  0  0  0  0
    2.0537   -3.0555    1.2021 C   0  0  0  0  0  0  0  0  0  0  0  0
    0.3627   -3.2052    1.2043 S   0  0  0  0  0  0  0  0  0  0  0  0
   -0.0736   -1.7257    0.4798 C   0  0  0  0  0  0  0  0  0  0  0  0
    1.1570   -1.1498    0.2552 C   0  0  0  0  0  0  0  0  0  0  0  0
    2.2436   -1.8313    0.6253 C   0  0  0  0  0  0  0  0  0  0  0  0
   -1.3872   -1.1518    0.1860 C   0  0  0  0  0  0  0  0  0  0  0  0
   -1.6475    0.4211   -0.4145 S   0  0  0  0  0  0  0  0  0  0  0  0
   -3.3887    0.3968   -0.4813 C   0  0  0  0  0  0  0  0  0  0  0  0
   -3.6175   -0.8006   -0.0441 N   0  0  0  0  0  0  0  0  0  0  0  0
   -2.6523   -1.6263    0.3061 C   0  0  0  0  0  0  0  0  0  0  0  0
   -2.9980   -3.0362    0.7527 C   0  0  0  0  0  0  0  0  0  0  0  0
   -2.5022   -4.1340   -0.1209 C   0  0  0  0  0  0  0  0  0  0  0  0
   -2.8783   -3.2340    2.2352 C   0  0  0  0  0  0  0  0  0  0  0  0
   -4.2302   -3.1489    2.4437 O   0  0  0  0  0  0  0  0  0  0  0  0
   -4.4532   -3.2484    1.0946 C   0  0  0  0  0  0  0  0  0  0  0  0
   -4.2530    1.4837   -0.9204 C   0  0  0  0  0  0  0  0  0  0  0  0
   -3.6720    2.5553   -1.2845 O   0  0  0  0  0  0  0  0  0  0  0  0
   -5.6288    1.4292   -0.9656 N   0  0  0  0  0  0  0  0  0  0  0  0
   -6.3970    2.6261   -1.4295 C   0  0  0  0  0  0  0  0  0  0  0  0
   -7.6900    2.7231   -0.6745 C   0  0  0  0  0  0  0  0  0  0  0  0
   -7.6824    2.0889    0.6176 N   0  0  0  0  0  0  0  0  0  0  0  0
   -6.9656    2.8124    1.6164 C   0  0  0  0  0  0  0  0  0  0  0  0
   -7.3727    0.6795    0.5776 C   0  0  0  0  0  0  0  0  0  0  0  0
   -6.4988    0.3308   -0.6127 C   0  0  0  0  0  0  0  0  0  0  0  0
    5.3049    1.7208   -0.5185 C   0  0  0  0  0  0  0  0  0  0  0  0
    6.4719    2.3839   -0.7258 C   0  0  0  0  0  0  0  0  0  0  0  0
    9.9981    0.6970   -1.6013 H   0  0  0  0  0  0  0  0  0  0  0  0
   10.1659    1.1005    0.1193 H   0  0  0  0  0  0  0  0  0  0  0  0
   11.0190    2.1376   -1.1376 H   0  0  0  0  0  0  0  0  0  0  0  0
    8.3706    4.2770   -0.4005 H   0  0  0  0  0  0  0  0  0  0  0  0
   10.0504    4.1078   -0.9518 H   0  0  0  0  0  0  0  0  0  0  0  0
    8.6780    4.0324   -2.1937 H   0  0  0  0  0  0  0  0  0  0  0  0
    8.5511   -0.2115   -0.4856 H   0  0  0  0  0  0  0  0  0  0  0  0
    6.4847   -1.3862   -0.1304 H   0  0  0  0  0  0  0  0  0  0  0  0
    3.1224    0.3940   -0.3676 H   0  0  0  0  0  0  0  0  0  0  0  0
    5.1141   -4.1090    1.8301 H   0  0  0  0  0  0  0  0  0  0  0  0
    1.1811   -0.1468   -0.2239 H   0  0  0  0  0  0  0  0  0  0  0  0
   -2.0932   -5.0210    0.4166 H   0  0  0  0  0  0  0  0  0  0  0  0
   -3.3819   -4.5916   -0.6889 H   0  0  0  0  0  0  0  0  0  0  0  0
   -1.8479   -3.7964   -0.9685 H   0  0  0  0  0  0  0  0  0  0  0  0
   -2.3610   -2.3982    2.7812 H   0  0  0  0  0  0  0  0  0  0  0  0
   -2.4774   -4.1856    2.5850 H   0  0  0  0  0  0  0  0  0  0  0  0
   -5.0623   -2.4245    0.7275 H   0  0  0  0  0  0  0  0  0  0  0  0
   -4.8507   -4.2499    0.8362 H   0  0  0  0  0  0  0  0  0  0  0  0
   -5.7692    3.5295   -1.3855 H   0  0  0  0  0  0  0  0  0  0  0  0
   -6.6351    2.4370   -2.4952 H   0  0  0  0  0  0  0  0  0  0  0  0
   -7.9362    3.7878   -0.5142 H   0  0  0  0  0  0  0  0  0  0  0  0
   -8.5547    2.2953   -1.2605 H   0  0  0  0  0  0  0  0  0  0  0  0
   -6.1172    3.3922    1.1819 H   0  0  0  0  0  0  0  0  0  0  0  0
   -6.5377    2.1635    2.4079 H   0  0  0  0  0  0  0  0  0  0  0  0
   -7.6174    3.5601    2.1240 H   0  0  0  0  0  0  0  0  0  0  0  0
   -6.7931    0.4384    1.4920 H   0  0  0  0  0  0  0  0  0  0  0  0
   -8.3231    0.1230    0.5922 H   0  0  0  0  0  0  0  0  0  0  0  0
   -6.0280   -0.6320   -0.5397 H   0  0  0  0  0  0  0  0  0  0  0  0
   -7.2374    0.2394   -1.4749 H   0  0  0  0  0  0  0  0  0  0  0  0
    4.3847    2.3091   -0.5334 H   0  0  0  0  0  0  0  0  0  0  0  0
    6.5201    3.4458   -0.9015 H   0  0  0  0  0  0  0  0  0  0  0  0
  1  2  1  0
  2  3  1  0
  2  4  1  0
  4  5  2  0
  5  6  1  0
  6  7  2  0
  7  8  1  0
  8  9  1  0
  9 10  2  0
 10 11  1  0
 11 12  2  0
 12 13  1  0
 13 14  1  0
 14 15  1  0
 15 16  2  0
 16 17  1  0
 15 18  1  0
 18 19  1  0
 19 20  1  0
 20 21  2  0
 21 22  1  0
 22 23  1  0
 23 24  1  0
 23 25  1  0
 25 26  1  0
 26 27  1  0
 20 28  1  0
 28 29  2  0
 28 30  1  0
 30 31  1  0
 31 32  1  0
 32 33  1  0
 33 34  1  0
 33 35  1  0
 35 36  1  0
  7 37  1  0
 37 38  2  0
 38  4  1  0
 17  9  1  0
 22 18  2  0
 27 23  1  0
 36 30  1  0
 17 13  2  0
  1 39  1  0
  1 40  1  0
  1 41  1  0
  3 42  1  0
  3 43  1  0
  3 44  1  0
  5 45  1  0
  6 46  1  0
  8 47  1  0
 11 48  1  0
 16 49  1  0
 24 50  1  0
 24 51  1  0
 24 52  1  0
 25 53  1  0
 25 54  1  0
 27 55  1  0
 27 56  1  0
 31 57  1  0
 31 58  1  0
 32 59  1  0
 32 60  1  0
 34 61  1  0
 34 62  1  0
 34 63  1  0
 35 64  1  0
 35 65  1  0
 36 66  1  0
 36 67  1  0
 37 68  1  0
 38 69  1  0
M  END
$$$$
[H]OC1([H])C([H])([H])N(C2([H])C([H])([H])C([H])([H])N(S(=O)(=O)c3c([H])c([H])c(C([H])([H])[H])c(C([H])([H])[H])c3[H])C([H])([H])C2([H])[H])C1([H])[H]
     RDKit          3D

 46 48  0  0  0  0  0  0  0  0999 V2000
    5.0385   -0.0773    2.2480 C   0  0  0  0  0  0  0  0  0  0  0  0
    4.3383    0.1047    0.9659 C   0  0  0  0  0  0  0  0  0  0  0  0
    4.8535   -0.4890   -0.1657 C   0  0  0  0  0  0  0  0  0  0  0  0
    6.0874   -1.2980   -0.1038 C   0  0  0  0  0  0  0  0  0  0  0  0
    4.2058   -0.3199   -1.3531 C   0  0  0  0  0  0  0  0  0  0  0  0
    3.0436    0.4435   -1.4047 C   0  0  0  0  0  0  0  0  0  0  0  0
    2.5033    1.0505   -0.2890 C   0  0  0  0  0  0  0  0  0  0  0  0
    3.1793    0.8646    0.9080 C   0  0  0  0  0  0  0  0  0  0  0  0
    1.0364    1.9990   -0.4181 S   0  0  0  0  0  0  0  0  0  0  0  0
    1.1676    3.1297    0.5487 O   0  0  0  0  0  0  0  0  0  0  0  0
    1.0577    2.6041   -1.8152 O   0  0  0  0  0  0  0  0  0  0  0  0
   -0.2820    1.0073   -0.1638 N   0  0  0  0  0  0  0  0  0  0  0  0
   -0.4956   -0.0633   -1.0476 C   0  0  0  0  0  0  0  0  0  0  0  0
   -1.9234   -0.4925   -1.2139 C   0  0  0  0  0  0  0  0  0  0  0  0
   -2.8231   -0.0014   -0.1147 C   0  0  0  0  0  0  0  0  0  0  0  0
   -2.1367    0.1690    1.2028 C   0  0  0  0  0  0  0  0  0  0  0  0
   -0.8572    0.9540    1.1221 C   0  0  0  0  0  0  0  0  0  0  0  0
   -3.9210   -0.9367    0.0044 N   0  0  0  0  0  0  0  0  0  0  0  0
   -4.7401   -1.0041   -1.2136 C   0  0  0  0  0  0  0  0  0  0  0  0
   -5.6142    0.0839   -0.6246 C   0  0  0  0  0  0  0  0  0  0  0  0
   -6.9745   -0.0680   -0.8333 O   0  0  0  0  0  0  0  0  0  0  0  0
   -5.0952   -0.4588    0.6887 C   0  0  0  0  0  0  0  0  0  0  0  0
    5.9019    0.6392    2.3254 H   0  0  0  0  0  0  0  0  0  0  0  0
    4.3554    0.1968    3.0730 H   0  0  0  0  0  0  0  0  0  0  0  0
    5.3818   -1.1263    2.4081 H   0  0  0  0  0  0  0  0  0  0  0  0
    6.9778   -0.6991    0.1740 H   0  0  0  0  0  0  0  0  0  0  0  0
    5.9198   -2.1414    0.5980 H   0  0  0  0  0  0  0  0  0  0  0  0
    6.2887   -1.7129   -1.1104 H   0  0  0  0  0  0  0  0  0  0  0  0
    4.5632   -0.7635   -2.2852 H   0  0  0  0  0  0  0  0  0  0  0  0
    2.5162    0.5898   -2.3356 H   0  0  0  0  0  0  0  0  0  0  0  0
    2.7885    1.3225    1.8024 H   0  0  0  0  0  0  0  0  0  0  0  0
   -0.0409    0.2143   -2.0421 H   0  0  0  0  0  0  0  0  0  0  0  0
    0.0830   -0.9439   -0.6764 H   0  0  0  0  0  0  0  0  0  0  0  0
   -1.9499   -1.5948   -1.3360 H   0  0  0  0  0  0  0  0  0  0  0  0
   -2.2730   -0.0895   -2.1946 H   0  0  0  0  0  0  0  0  0  0  0  0
   -3.2501    0.9786   -0.4082 H   0  0  0  0  0  0  0  0  0  0  0  0
   -2.0102   -0.8371    1.6602 H   0  0  0  0  0  0  0  0  0  0  0  0
   -2.8239    0.7323    1.8684 H   0  0  0  0  0  0  0  0  0  0  0  0
   -0.1350    0.4798    1.8184 H   0  0  0  0  0  0  0  0  0  0  0  0
   -0.9976    1.9963    1.4939 H   0  0  0  0  0  0  0  0  0  0  0  0
   -5.2878   -1.9646   -1.2765 H   0  0  0  0  0  0  0  0  0  0  0  0
   -4.2191   -0.7047   -2.1303 H   0  0  0  0  0  0  0  0  0  0  0  0
   -5.2464    1.1148   -0.7734 H   0  0  0  0  0  0  0  0  0  0  0  0
   -7.5144    0.3261   -0.0895 H   0  0  0  0  0  0  0  0  0  0  0  0
   -5.7278   -1.3091    1.0232 H   0  0  0  0  0  0  0  0  0  0  0  0
   -4.9486    0.2641    1.4858 H   0  0  0  0  0  0  0  0  0  0  0  0
  1  2  1  0
  2  3  2  0
  3  4  1  0
  3  5  1  0
  5  6  2  0
  6  7  1  0
  7  8  2  0
  7  9  1  0
  9 10  2  0
  9 11  2  0
  9 12  1  0
 12 13  1  0
 13 14  1  0
 14 15  1  0
 15 16  1  0
 16 17  1  0
 15 18  1  0
 18 19  1  0
 19 20  1  0
 20 21  1  0
 20 22  1  0
  8  2  1  0
 17 12  1  0
 22 18  1  0
  1 23  1  0
  1 24  1  0
  1 25  1  0
  4 26  1  0
  4 27  1  0
  4 28  1  0
  5 29  1  0
  6 30  1  0
  8 31  1  0
 13 32  1  0
 13 33  1  0
 14 34  1  0
 14 35  1  0
 15 36  1  0
 16 37  1  0
 16 38  1  0
 17 39  1  0
 17 40  1  0
 19 41  1  0
 19 42  1  0
 20 43  1  0
 21 44  1  0
 22 45  1  0
 22 46  1  0
M  END
$$$$
[H]N(C(=O)[C@@]1([H])C([H])([H])[C@]2([H])ON(C([H])([H])[H])OC([H])([H])[C@@]21[H])C1([H])C([H])([H])C1([H])[H]
     RDKit          3D

 31 33  0  0  0  0  0  0  0  0999 V2000
   -5.0128    0.1936   -0.6742 C   0  0  0  0  0  0  0  0  0  0  0  0
   -3.6438   -0.0741   -0.2534 N   0  0  0  0  0  0  0  0  0  0  0  0
   -3.3253   -1.2991   -0.6672 O   0  0  0  0  0  0  0  0  0  0  0  0
   -2.0740   -1.7097   -0.2817 C   0  0  0  0  0  0  0  0  0  0  0  0
   -1.0661   -0.7053   -0.7326 C   0  0  2  0  0  0  0  0  0  0  0  0
   -0.0751   -0.4123    0.3688 C   0  0  2  0  0  0  0  0  0  0  0  0
   -0.9246    0.7737    0.7512 C   0  0  0  0  0  0  0  0  0  0  0  0
   -1.5351    0.7204   -0.6283 C   0  0  2  0  0  0  0  0  0  0  0  0
   -2.8754    0.8968   -0.7296 O   0  0  0  0  0  0  0  0  0  0  0  0
    1.2537   -0.1175   -0.1571 C   0  0  0  0  0  0  0  0  0  0  0  0
    1.4258   -0.1367   -1.4016 O   0  0  0  0  0  0  0  0  0  0  0  0
    2.3784    0.1951    0.6901 N   0  0  0  0  0  0  0  0  0  0  0  0
    3.6525    0.4740    0.1110 C   0  0  0  0  0  0  0  0  0  0  0  0
    4.7063    1.2189    0.8351 C   0  0  0  0  0  0  0  0  0  0  0  0
    4.8187   -0.2731    0.8065 C   0  0  0  0  0  0  0  0  0  0  0  0
   -5.1977   -0.1698   -1.7157 H   0  0  0  0  0  0  0  0  0  0  0  0
   -5.7627   -0.2172    0.0020 H   0  0  0  0  0  0  0  0  0  0  0  0
   -5.2045    1.3011   -0.7276 H   0  0  0  0  0  0  0  0  0  0  0  0
   -1.8686   -2.6801   -0.8114 H   0  0  0  0  0  0  0  0  0  0  0  0
   -2.0048   -1.9582    0.8048 H   0  0  0  0  0  0  0  0  0  0  0  0
   -0.6239   -0.9060   -1.7208 H   0  0  0  0  0  0  0  0  0  0  0  0
   -0.0187   -1.2153    1.1502 H   0  0  0  0  0  0  0  0  0  0  0  0
   -0.3933    1.6804    1.0237 H   0  0  0  0  0  0  0  0  0  0  0  0
   -1.6743    0.4389    1.5209 H   0  0  0  0  0  0  0  0  0  0  0  0
   -0.9764    1.3970   -1.3057 H   0  0  0  0  0  0  0  0  0  0  0  0
    2.2382    0.2112    1.7141 H   0  0  0  0  0  0  0  0  0  0  0  0
    3.7125    0.4341   -0.9972 H   0  0  0  0  0  0  0  0  0  0  0  0
    4.4635    1.7378    1.7752 H   0  0  0  0  0  0  0  0  0  0  0  0
    5.4549    1.7472    0.2172 H   0  0  0  0  0  0  0  0  0  0  0  0
    5.5463   -0.7766    0.1663 H   0  0  0  0  0  0  0  0  0  0  0  0
    4.6067   -0.7691    1.7606 H   0  0  0  0  0  0  0  0  0  0  0  0
  1  2  1  0
  2  3  1  0
  3  4  1  0
  4  5  1  0
  5  6  1  0
  6  7  1  0
  7  8  1  0
  8  9  1  0
  6 10  1  0
 10 11  2  0
 10 12  1  0
 12 13  1  0
 13 14  1  0
 14 15  1  0
  9  2  1  0
 15 13  1  0
  8  5  1  0
  1 16  1  0
  1 17  1  0
  1 18  1  0
  4 19  1  0
  4 20  1  0
  5 21  1  6
  6 22  1  1
  7 23  1  0
  7 24  1  0
  8 25  1  6
 12 26  1  0
 13 27  1  0
 14 28  1  0
 14 29  1  0
 15 30  1  0
 15 31  1  0
M  END
$$$$
[H]c1nc2c([H])c([H])c(-c3c([H])c([H])c(OC([H])([H])[H])c(OC([H])([H])[H])c3[H])nc2c(N([H])[H])c1C(=O)N([H])c1c([H])c([H])c(OC([H])([H])C2([H])C([H])([H])C([H])([H])C([H])([H])C2([H])[H])c([H])c1[H]
     RDKit          3D

 67 71  0  0  0  0  0  0  0  0999 V2000
   -9.7028   -3.5606    2.0677 C   0  0  0  0  0  0  0  0  0  0  0  0
   -9.9694   -2.2762    1.5535 O   0  0  0  0  0  0  0  0  0  0  0  0
   -8.9145   -1.4995    1.1143 C   0  0  0  0  0  0  0  0  0  0  0  0
   -7.6322   -1.9790    1.1819 C   0  0  0  0  0  0  0  0  0  0  0  0
   -6.5853   -1.2162    0.7495 C   0  0  0  0  0  0  0  0  0  0  0  0
   -6.7705    0.0734    0.2243 C   0  0  0  0  0  0  0  0  0  0  0  0
   -8.0439    0.5647    0.1508 C   0  0  0  0  0  0  0  0  0  0  0  0
   -9.0984   -0.2377    0.6007 C   0  0  0  0  0  0  0  0  0  0  0  0
  -10.3729    0.2518    0.5282 O   0  0  0  0  0  0  0  0  0  0  0  0
  -10.6484    1.5448    0.0110 C   0  0  0  0  0  0  0  0  0  0  0  0
   -5.6141    0.8424   -0.2227 C   0  0  0  0  0  0  0  0  0  0  0  0
   -5.7533    2.1012   -0.7393 C   0  0  0  0  0  0  0  0  0  0  0  0
   -4.6250    2.8218   -1.1629 C   0  0  0  0  0  0  0  0  0  0  0  0
   -3.3900    2.2431   -1.0494 C   0  0  0  0  0  0  0  0  0  0  0  0
   -2.2893    2.8957   -1.4414 N   0  0  0  0  0  0  0  0  0  0  0  0
   -1.0365    2.3544   -1.3455 C   0  0  0  0  0  0  0  0  0  0  0  0
   -0.8713    1.0964   -0.8319 C   0  0  0  0  0  0  0  0  0  0  0  0
    0.4193    0.4191   -0.6823 C   0  0  0  0  0  0  0  0  0  0  0  0
    0.4158   -0.7251   -0.1979 O   0  0  0  0  0  0  0  0  0  0  0  0
    1.5881    1.0608   -1.0776 N   0  0  0  0  0  0  0  0  0  0  0  0
    2.8844    0.5151   -0.9927 C   0  0  0  0  0  0  0  0  0  0  0  0
    3.1807   -0.8136   -0.8732 C   0  0  0  0  0  0  0  0  0  0  0  0
    4.5048   -1.2805   -0.7685 C   0  0  0  0  0  0  0  0  0  0  0  0
    5.5642   -0.4043   -0.7833 C   0  0  0  0  0  0  0  0  0  0  0  0
    6.8566   -0.8381   -0.6827 O   0  0  0  0  0  0  0  0  0  0  0  0
    7.9869   -0.0076   -0.6907 C   0  0  0  0  0  0  0  0  0  0  0  0
    9.2736   -0.7733   -0.5631 C   0  0  0  0  0  0  0  0  0  0  0  0
   10.4360    0.1740   -0.5789 C   0  0  0  0  0  0  0  0  0  0  0  0
   10.8430    0.3525    0.8747 C   0  0  0  0  0  0  0  0  0  0  0  0
   10.6747   -1.0762    1.3942 C   0  0  0  0  0  0  0  0  0  0  0  0
    9.3617   -1.4726    0.7730 C   0  0  0  0  0  0  0  0  0  0  0  0
    5.2701    0.9362   -0.9043 C   0  0  0  0  0  0  0  0  0  0  0  0
    3.9775    1.3966   -1.0066 C   0  0  0  0  0  0  0  0  0  0  0  0
   -1.9984    0.4302   -0.4314 C   0  0  0  0  0  0  0  0  0  0  0  0
   -1.9403   -0.8993    0.1234 N   0  0  0  0  0  0  0  0  0  0  0  0
   -3.2631    0.9696   -0.5252 C   0  0  0  0  0  0  0  0  0  0  0  0
   -4.3600    0.3018   -0.1272 N   0  0  0  0  0  0  0  0  0  0  0  0
   -9.2342   -4.2028    1.2812 H   0  0  0  0  0  0  0  0  0  0  0  0
   -8.9542   -3.4673    2.8801 H   0  0  0  0  0  0  0  0  0  0  0  0
  -10.5927   -4.0438    2.4990 H   0  0  0  0  0  0  0  0  0  0  0  0
   -7.4308   -2.9802    1.5837 H   0  0  0  0  0  0  0  0  0  0  0  0
   -5.5763   -1.6080    0.8089 H   0  0  0  0  0  0  0  0  0  0  0  0
   -8.2495    1.5490   -0.2433 H   0  0  0  0  0  0  0  0  0  0  0  0
  -10.2651    2.3404    0.6819 H   0  0  0  0  0  0  0  0  0  0  0  0
  -10.1442    1.7058   -0.9778 H   0  0  0  0  0  0  0  0  0  0  0  0
  -11.7353    1.6991   -0.1420 H   0  0  0  0  0  0  0  0  0  0  0  0
   -6.7005    2.5759   -0.8394 H   0  0  0  0  0  0  0  0  0  0  0  0
   -4.6934    3.8092   -1.5724 H   0  0  0  0  0  0  0  0  0  0  0  0
   -0.2013    2.9303   -1.6769 H   0  0  0  0  0  0  0  0  0  0  0  0
    1.5374    2.0496   -1.4897 H   0  0  0  0  0  0  0  0  0  0  0  0
    2.4065   -1.5690   -0.8694 H   0  0  0  0  0  0  0  0  0  0  0  0
    4.6731   -2.3503   -0.6754 H   0  0  0  0  0  0  0  0  0  0  0  0
    8.0494    0.6498   -1.5828 H   0  0  0  0  0  0  0  0  0  0  0  0
    7.9105    0.6551    0.2200 H   0  0  0  0  0  0  0  0  0  0  0  0
    9.3260   -1.4856   -1.4106 H   0  0  0  0  0  0  0  0  0  0  0  0
   11.2861   -0.3338   -1.0797 H   0  0  0  0  0  0  0  0  0  0  0  0
   10.2294    1.1454   -1.0265 H   0  0  0  0  0  0  0  0  0  0  0  0
   10.1526    1.0141    1.4284 H   0  0  0  0  0  0  0  0  0  0  0  0
   11.8878    0.6890    0.9492 H   0  0  0  0  0  0  0  0  0  0  0  0
   11.5094   -1.6605    0.9760 H   0  0  0  0  0  0  0  0  0  0  0  0
   10.6333   -1.1021    2.5056 H   0  0  0  0  0  0  0  0  0  0  0  0
    9.2285   -2.5717    0.6965 H   0  0  0  0  0  0  0  0  0  0  0  0
    8.5264   -1.0926    1.4021 H   0  0  0  0  0  0  0  0  0  0  0  0
    6.1198    1.6289   -0.9156 H   0  0  0  0  0  0  0  0  0  0  0  0
    3.7797    2.4476   -1.0986 H   0  0  0  0  0  0  0  0  0  0  0  0
   -1.8929   -0.9501    1.1635 H   0  0  0  0  0  0  0  0  0  0  0  0
   -1.9434   -1.7571   -0.4335 H   0  0  0  0  0  0  0  0  0  0  0  0
  1  2  1  0
  2  3  1  0
  3  4  2  0
  4  5  1  0
  5  6  2  0
  6  7  1  0
  7  8  2  0
  8  9  1  0
  9 10  1  0
  6 11  1  0
 11 12  2  0
 12 13  1  0
 13 14  2  0
 14 15  1  0
 15 16  2  0
 16 17  1  0
 17 18  1  0
 18 19  2  0
 18 20  1  0
 20 21  1  0
 21 22  2  0
 22 23  1  0
 23 24  2  0
 24 25  1  0
 25 26  1  0
 26 27  1  0
 27 28  1  0
 28 29  1  0
 29 30  1  0
 30 31  1  0
 24 32  1  0
 32 33  2  0
 17 34  2  0
 34 35  1  0
 34 36  1  0
 36 37  2  0
  8  3  1  0
 37 11  1  0
 36 14  1  0
 33 21  1  0
 31 27  1  0
  1 38  1  0
  1 39  1  0
  1 40  1  0
  4 41  1  0
  5 42  1  0
  7 43  1  0
 10 44  1  0
 10 45  1  0
 10 46  1  0
 12 47  1  0
 13 48  1  0
 16 49  1  0
 20 50  1  0
 22 51  1  0
 23 52  1  0
 26 53  1  0
 26 54  1  0
 27 55  1  0
 28 56  1  0
 28 57  1  0
 29 58  1  0
 29 59  1  0
 30 60  1  0
 30 61  1  0
 31 62  1  0
 31 63  1  0
 32 64  1  0
 33 65  1  0
 35 66  1  0
 35 67  1  0
M  END
$$$$
[H]OC(=O)c1sc(-c2noc(-c3oc(C(=O)N([H])C([H])([H])c4c([H])c([H])c(S(=O)(=O)N([H])[H])c([H])c4[H])c([H])c3[H])n2)c([H])c1[H]
     RDKit          3D

 46 49  0  0  0  0  0  0  0  0999 V2000
   -8.7756   -1.4120   -0.2214 N   0  0  0  0  0  0  0  0  0  0  0  0
   -7.2570   -1.8183   -0.8933 S   0  0  0  0  0  0  0  0  0  0  0  0
   -6.9257   -3.2258   -0.5069 O   0  0  0  0  0  0  0  0  0  0  0  0
   -7.2875   -1.7627   -2.3800 O   0  0  0  0  0  0  0  0  0  0  0  0
   -5.9639   -0.7805   -0.2840 C   0  0  0  0  0  0  0  0  0  0  0  0
   -5.6607    0.3989   -0.9205 C   0  0  0  0  0  0  0  0  0  0  0  0
   -4.6483    1.2259   -0.4435 C   0  0  0  0  0  0  0  0  0  0  0  0
   -3.9264    0.8872    0.6771 C   0  0  0  0  0  0  0  0  0  0  0  0
   -2.8235    1.7958    1.1926 C   0  0  0  0  0  0  0  0  0  0  0  0
   -2.0733    1.2439    2.1779 N   0  0  0  0  0  0  0  0  0  0  0  0
   -1.3112    0.6823    3.1821 C   0  0  0  0  0  0  0  0  0  0  0  0
   -1.5526    0.4575    4.3836 O   0  0  0  0  0  0  0  0  0  0  0  0
    0.0584    0.2607    2.7403 C   0  0  0  0  0  0  0  0  0  0  0  0
    0.8705   -0.5719    3.4535 C   0  0  0  0  0  0  0  0  0  0  0  0
    2.0176   -0.6939    2.7006 C   0  0  0  0  0  0  0  0  0  0  0  0
    1.8621    0.0670    1.5624 C   0  0  0  0  0  0  0  0  0  0  0  0
    0.6673    0.6126    1.6474 O   0  0  0  0  0  0  0  0  0  0  0  0
    2.7527    0.2966    0.4399 C   0  0  0  0  0  0  0  0  0  0  0  0
    3.9818   -0.2356    0.1895 N   0  0  0  0  0  0  0  0  0  0  0  0
    4.4461    0.2560   -0.9567 C   0  0  0  0  0  0  0  0  0  0  0  0
    3.5260    1.0819   -1.4231 N   0  0  0  0  0  0  0  0  0  0  0  0
    2.5343    1.1012   -0.5976 O   0  0  0  0  0  0  0  0  0  0  0  0
    5.7205   -0.0590   -1.6161 C   0  0  0  0  0  0  0  0  0  0  0  0
    6.2297    0.4658   -2.7767 C   0  0  0  0  0  0  0  0  0  0  0  0
    7.4195    0.0168   -3.1905 C   0  0  0  0  0  0  0  0  0  0  0  0
    8.0341   -0.9319   -2.4180 C   0  0  0  0  0  0  0  0  0  0  0  0
    6.9335   -1.1698   -1.1410 S   0  0  0  0  0  0  0  0  0  0  0  0
    9.3419   -1.5810   -2.6400 C   0  0  0  0  0  0  0  0  0  0  0  0
   10.0838   -1.2233   -3.7547 O   0  0  0  0  0  0  0  0  0  0  0  0
    9.7783   -2.4338   -1.8509 O   0  0  0  0  0  0  0  0  0  0  0  0
   -4.2409   -0.2991    1.3049 C   0  0  0  0  0  0  0  0  0  0  0  0
   -5.2469   -1.1283    0.8355 C   0  0  0  0  0  0  0  0  0  0  0  0
   -9.3003   -0.7281   -0.8013 H   0  0  0  0  0  0  0  0  0  0  0  0
   -8.6300   -0.9601    0.7100 H   0  0  0  0  0  0  0  0  0  0  0  0
   -6.2146    0.6960   -1.8156 H   0  0  0  0  0  0  0  0  0  0  0  0
   -4.3871    2.1674   -0.9310 H   0  0  0  0  0  0  0  0  0  0  0  0
   -3.2257    2.8145    1.4332 H   0  0  0  0  0  0  0  0  0  0  0  0
   -2.1768    1.9875    0.2545 H   0  0  0  0  0  0  0  0  0  0  0  0
   -3.1184    1.3436    3.0492 H   0  0  0  0  0  0  0  0  0  0  0  0
    0.6985   -1.0569    4.3949 H   0  0  0  0  0  0  0  0  0  0  0  0
    2.8828   -1.2803    2.9490 H   0  0  0  0  0  0  0  0  0  0  0  0
    5.6451    1.2379   -3.3193 H   0  0  0  0  0  0  0  0  0  0  0  0
    7.9265    0.3700   -4.1160 H   0  0  0  0  0  0  0  0  0  0  0  0
   10.5046   -0.2822   -3.7964 H   0  0  0  0  0  0  0  0  0  0  0  0
   -3.6606   -0.5627    2.2086 H   0  0  0  0  0  0  0  0  0  0  0  0
   -5.5084   -2.0636    1.3078 H   0  0  0  0  0  0  0  0  0  0  0  0
  1  2  1  0
  2  3  2  0
  2  4  2  0
  2  5  1  0
  5  6  2  0
  6  7  1  0
  7  8  2  0
  8  9  1  0
  9 10  1  0
 10 11  1  0
 11 12  2  0
 11 13  1  0
 13 14  2  0
 14 15  1  0
 15 16  2  0
 16 17  1  0
 16 18  1  0
 18 19  2  0
 19 20  1  0
 20 21  2  0
 21 22  1  0
 20 23  1  0
 23 24  2  0
 24 25  1  0
 25 26  2  0
 26 27  1  0
 26 28  1  0
 28 29  1  0
 28 30  2  0
  8 31  1  0
 31 32  2  0
 32  5  1  0
 17 13  1  0
 22 18  1  0
 27 23  1  0
  1 33  1  0
  1 34  1  0
  6 35  1  0
  7 36  1  0
  9 37  1  0
  9 38  1  0
 10 39  1  0
 14 40  1  0
 15 41  1  0
 24 42  1  0
 25 43  1  0
 29 44  1  0
 31 45  1  0
 32 46  1  0
M  END
$$$$
[H]c1nn(C([H])([H])[H])c(C([H])([H])[H])c1C(=O)N1C([H])([H])c2c([H])c([H])c([H])c([H])c2C([H])([H])[C@@]1([H])N([H])[H]
     RDKit          3D

 38 40  0  0  0  0  0  0  0  0999 V2000
    0.5814   -1.6793    0.7348 N   0  0  0  0  0  0  0  0  0  0  0  0
   -0.5649   -0.8466    0.8393 C   0  0  2  0  0  0  0  0  0  0  0  0
   -1.6950   -1.2816   -0.0739 C   0  0  0  0  0  0  0  0  0  0  0  0
   -2.8162   -0.3320    0.0846 C   0  0  0  0  0  0  0  0  0  0  0  0
   -4.0566   -0.7384   -0.3809 C   0  0  0  0  0  0  0  0  0  0  0  0
   -5.1501    0.0719   -0.2778 C   0  0  0  0  0  0  0  0  0  0  0  0
   -5.0318    1.3255    0.3003 C   0  0  0  0  0  0  0  0  0  0  0  0
   -3.7934    1.7234    0.7616 C   0  0  0  0  0  0  0  0  0  0  0  0
   -2.6888    0.9052    0.6577 C   0  0  0  0  0  0  0  0  0  0  0  0
   -1.4041    1.4258    1.1842 C   0  0  0  0  0  0  0  0  0  0  0  0
   -0.3485    0.5583    0.6278 N   0  0  0  0  0  0  0  0  0  0  0  0
    0.7195    1.1783   -0.0201 C   0  0  0  0  0  0  0  0  0  0  0  0
    0.7533    2.4514   -0.1391 O   0  0  0  0  0  0  0  0  0  0  0  0
    1.8498    0.4769   -0.6001 C   0  0  0  0  0  0  0  0  0  0  0  0
    1.8844   -0.0536   -1.8788 C   0  0  0  0  0  0  0  0  0  0  0  0
    3.0784   -0.6199   -2.0249 N   0  0  0  0  0  0  0  0  0  0  0  0
    3.7849   -0.4802   -0.9347 N   0  0  0  0  0  0  0  0  0  0  0  0
    5.1350   -0.9784   -0.7473 C   0  0  0  0  0  0  0  0  0  0  0  0
    3.0737    0.1915   -0.0198 C   0  0  0  0  0  0  0  0  0  0  0  0
    3.5232    0.5636    1.3434 C   0  0  0  0  0  0  0  0  0  0  0  0
    0.9633   -1.9511    1.6679 H   0  0  0  0  0  0  0  0  0  0  0  0
    0.4772   -2.4570    0.0743 H   0  0  0  0  0  0  0  0  0  0  0  0
   -0.9662   -0.9806    1.8853 H   0  0  0  0  0  0  0  0  0  0  0  0
   -1.3291   -1.2102   -1.1099 H   0  0  0  0  0  0  0  0  0  0  0  0
   -1.9831   -2.3276    0.1390 H   0  0  0  0  0  0  0  0  0  0  0  0
   -4.1787   -1.7183   -0.8397 H   0  0  0  0  0  0  0  0  0  0  0  0
   -6.1254   -0.2291   -0.6357 H   0  0  0  0  0  0  0  0  0  0  0  0
   -5.9150    1.9641    0.3766 H   0  0  0  0  0  0  0  0  0  0  0  0
   -3.7030    2.6951    1.2095 H   0  0  0  0  0  0  0  0  0  0  0  0
   -1.3829    1.2008    2.2894 H   0  0  0  0  0  0  0  0  0  0  0  0
   -1.2267    2.4807    0.9598 H   0  0  0  0  0  0  0  0  0  0  0  0
    1.0946   -0.0217   -2.6318 H   0  0  0  0  0  0  0  0  0  0  0  0
    5.2220   -1.4736    0.2368 H   0  0  0  0  0  0  0  0  0  0  0  0
    5.4124   -1.6626   -1.5634 H   0  0  0  0  0  0  0  0  0  0  0  0
    5.8622   -0.1390   -0.7490 H   0  0  0  0  0  0  0  0  0  0  0  0
    4.6492    0.5071    1.3852 H   0  0  0  0  0  0  0  0  0  0  0  0
    3.0545   -0.1265    2.0691 H   0  0  0  0  0  0  0  0  0  0  0  0
    3.2404    1.5877    1.5988 H   0  0  0  0  0  0  0  0  0  0  0  0
  1  2  1  0
  2  3  1  0
  3  4  1  0
  4  5  2  0
  5  6  1  0
  6  7  2  0
  7  8  1  0
  8  9  2  0
  9 10  1  0
 10 11  1  0
 11 12  1  0
 12 13  2  0
 12 14  1  0
 14 15  1  0
 15 16  2  0
 16 17  1  0
 17 18  1  0
 17 19  1  0
 19 20  1  0
 11  2  1  0
 19 14  2  0
  9  4  1  0
  1 21  1  0
  1 22  1  0
  2 23  1  1
  3 24  1  0
  3 25  1  0
  5 26  1  0
  6 27  1  0
  7 28  1  0
  8 29  1  0
 10 30  1  0
 10 31  1  0
 15 32  1  0
 18 33  1  0
 18 34  1  0
 18 35  1  0
 20 36  1  0
 20 37  1  0
 20 38  1  0
M  END
$$$$
[H]n1nc(C([H])([H])[H])c2c1C(=O)C([H])([H])C2([H])[H]
     RDKit          3D

 18 19  0  0  0  0  0  0  0  0999 V2000
    2.4739   -1.0970   -0.3216 C   0  0  0  0  0  0  0  0  0  0  0  0
    1.4949   -0.0054   -0.0911 C   0  0  0  0  0  0  0  0  0  0  0  0
    1.7910    1.2986    0.0275 N   0  0  0  0  0  0  0  0  0  0  0  0
    0.6930    2.0095    0.2269 N   0  0  0  0  0  0  0  0  0  0  0  0
   -0.3925    1.1918    0.2488 C   0  0  0  0  0  0  0  0  0  0  0  0
   -1.8438    1.1355    0.3976 C   0  0  0  0  0  0  0  0  0  0  0  0
   -2.5885    2.0379    0.8631 O   0  0  0  0  0  0  0  0  0  0  0  0
   -2.2276   -0.2074   -0.1180 C   0  0  0  0  0  0  0  0  0  0  0  0
   -0.9795   -1.0695    0.0510 C   0  0  0  0  0  0  0  0  0  0  0  0
    0.1219   -0.0764    0.0476 C   0  0  0  0  0  0  0  0  0  0  0  0
    3.3638   -1.0008    0.3617 H   0  0  0  0  0  0  0  0  0  0  0  0
    2.8866   -1.0643   -1.3561 H   0  0  0  0  0  0  0  0  0  0  0  0
    2.0553   -2.0861   -0.1597 H   0  0  0  0  0  0  0  0  0  0  0  0
    0.6206    3.0489    0.3544 H   0  0  0  0  0  0  0  0  0  0  0  0
   -3.0788   -0.6109    0.4736 H   0  0  0  0  0  0  0  0  0  0  0  0
   -2.4567   -0.1301   -1.2008 H   0  0  0  0  0  0  0  0  0  0  0  0
   -1.0248   -1.5956    1.0144 H   0  0  0  0  0  0  0  0  0  0  0  0
   -0.9086   -1.7785   -0.8193 H   0  0  0  0  0  0  0  0  0  0  0  0
  1  2  1  0
  2  3  2  0
  3  4  1  0
  4  5  1  0
  5  6  1  0
  6  7  2  0
  6  8  1  0
  8  9  1  0
  9 10  1  0
 10  2  1  0
 10  5  2  0
  1 11  1  0
  1 12  1  0
  1 13  1  0
  4 14  1  0
  8 15  1  0
  8 16  1  0
  9 17  1  0
  9 18  1  0
M  END
$$$$
[H]c1c([H])c([H])c(-c2c([H])c(=O)c3c([H])c([H])c(C(=O)N([H])C([H])([H])C([H])([H])c4c([H])c(C(=O)N([H])[H])c([H])c(C([H])([H])[H])c4[H])c([H])c3n2[H])c([H])c1[H]
     RDKit          3D

 55 58  0  0  0  0  0  0  0  0999 V2000
    3.2765    1.1750   -2.5633 C   0  0  0  0  0  0  0  0  0  0  0  0
    3.8753    0.5598   -1.3330 C   0  0  0  0  0  0  0  0  0  0  0  0
    3.5234   -0.7628   -1.0622 C   0  0  0  0  0  0  0  0  0  0  0  0
    4.0504   -1.3624    0.0555 C   0  0  0  0  0  0  0  0  0  0  0  0
    3.7166   -2.7566    0.4125 C   0  0  0  0  0  0  0  0  0  0  0  0
    2.5673   -2.9069    1.3485 C   0  0  0  0  0  0  0  0  0  0  0  0
    1.3084   -2.4072    0.8967 N   0  0  0  0  0  0  0  0  0  0  0  0
    0.6351   -2.8875   -0.2547 C   0  0  0  0  0  0  0  0  0  0  0  0
    1.2217   -3.8236   -0.8987 O   0  0  0  0  0  0  0  0  0  0  0  0
   -0.6471   -2.3714   -0.7074 C   0  0  0  0  0  0  0  0  0  0  0  0
   -1.2310   -2.9052   -1.8357 C   0  0  0  0  0  0  0  0  0  0  0  0
   -2.4564   -2.4409   -2.3036 C   0  0  0  0  0  0  0  0  0  0  0  0
   -3.0928   -1.4187   -1.6101 C   0  0  0  0  0  0  0  0  0  0  0  0
   -2.5405   -0.8620   -0.4810 C   0  0  0  0  0  0  0  0  0  0  0  0
   -1.3083   -1.3628   -0.0511 C   0  0  0  0  0  0  0  0  0  0  0  0
   -3.1394    0.1428    0.2229 N   0  0  0  0  0  0  0  0  0  0  0  0
   -4.3230    0.6497   -0.1590 C   0  0  0  0  0  0  0  0  0  0  0  0
   -4.8952    0.1088   -1.2859 C   0  0  0  0  0  0  0  0  0  0  0  0
   -4.3043   -0.9205   -2.0258 C   0  0  0  0  0  0  0  0  0  0  0  0
   -4.8546   -1.3897   -3.0485 O   0  0  0  0  0  0  0  0  0  0  0  0
   -4.9696    1.7384    0.6051 C   0  0  0  0  0  0  0  0  0  0  0  0
   -4.4047    2.2865    1.7320 C   0  0  0  0  0  0  0  0  0  0  0  0
   -5.0302    3.3202    2.4481 C   0  0  0  0  0  0  0  0  0  0  0  0
   -6.2429    3.8167    2.0316 C   0  0  0  0  0  0  0  0  0  0  0  0
   -6.8295    3.2858    0.9072 C   0  0  0  0  0  0  0  0  0  0  0  0
   -6.1844    2.2645    0.2223 C   0  0  0  0  0  0  0  0  0  0  0  0
    4.9160   -0.6163    0.8688 C   0  0  0  0  0  0  0  0  0  0  0  0
    5.2633    0.6869    0.6025 C   0  0  0  0  0  0  0  0  0  0  0  0
    4.7279    1.2783   -0.5219 C   0  0  0  0  0  0  0  0  0  0  0  0
    6.1750    1.4075    1.4970 C   0  0  0  0  0  0  0  0  0  0  0  0
    6.5341    2.7533    1.2235 N   0  0  0  0  0  0  0  0  0  0  0  0
    6.6324    0.8280    2.5003 O   0  0  0  0  0  0  0  0  0  0  0  0
    3.3376    0.3928   -3.3472 H   0  0  0  0  0  0  0  0  0  0  0  0
    2.2085    1.3581   -2.3307 H   0  0  0  0  0  0  0  0  0  0  0  0
    3.7939    2.0864   -2.8667 H   0  0  0  0  0  0  0  0  0  0  0  0
    2.8598   -1.3065   -1.7154 H   0  0  0  0  0  0  0  0  0  0  0  0
    3.6071   -3.3819   -0.5182 H   0  0  0  0  0  0  0  0  0  0  0  0
    4.6410   -3.1896    0.8971 H   0  0  0  0  0  0  0  0  0  0  0  0
    2.8681   -2.5000    2.3382 H   0  0  0  0  0  0  0  0  0  0  0  0
    2.4318   -4.0129    1.5377 H   0  0  0  0  0  0  0  0  0  0  0  0
    0.8752   -1.6339    1.4730 H   0  0  0  0  0  0  0  0  0  0  0  0
   -0.7058   -3.6941   -2.3424 H   0  0  0  0  0  0  0  0  0  0  0  0
   -2.9132   -2.8666   -3.1958 H   0  0  0  0  0  0  0  0  0  0  0  0
   -0.9011   -0.9157    0.8252 H   0  0  0  0  0  0  0  0  0  0  0  0
   -2.6531    0.5015    1.0595 H   0  0  0  0  0  0  0  0  0  0  0  0
   -5.8446    0.4751   -1.6407 H   0  0  0  0  0  0  0  0  0  0  0  0
   -3.4589    1.9207    2.0823 H   0  0  0  0  0  0  0  0  0  0  0  0
   -4.5516    3.7203    3.3260 H   0  0  0  0  0  0  0  0  0  0  0  0
   -6.7493    4.6135    2.5633 H   0  0  0  0  0  0  0  0  0  0  0  0
   -7.7944    3.6659    0.5579 H   0  0  0  0  0  0  0  0  0  0  0  0
   -6.6910    1.8868   -0.6519 H   0  0  0  0  0  0  0  0  0  0  0  0
    5.3365   -1.0862    1.7551 H   0  0  0  0  0  0  0  0  0  0  0  0
    4.9797    2.3051   -0.7630 H   0  0  0  0  0  0  0  0  0  0  0  0
    6.5136    3.1549    0.2747 H   0  0  0  0  0  0  0  0  0  0  0  0
    6.8407    3.3986    2.0047 H   0  0  0  0  0  0  0  0  0  0  0  0
  1  2  1  0
  2  3  2  0
  3  4  1  0
  4  5  1  0
  5  6  1  0
  6  7  1  0
  7  8  1  0
  8  9  2  0
  8 10  1  0
 10 11  2  0
 11 12  1  0
 12 13  2  0
 13 14  1  0
 14 15  2  0
 14 16  1  0
 16 17  1  0
 17 18  2  0
 18 19  1  0
 19 20  2  0
 17 21  1  0
 21 22  2  0
 22 23  1  0
 23 24  2  0
 24 25  1  0
 25 26  2  0
  4 27  2  0
 27 28  1  0
 28 29  2  0
 28 30  1  0
 30 31  1  0
 30 32  2  0
 29  2  1  0
 15 10  1  0
 26 21  1  0
 19 13  1  0
  1 33  1  0
  1 34  1  0
  1 35  1  0
  3 36  1  0
  5 37  1  0
  5 38  1  0
  6 39  1  0
  6 40  1  0
  7 41  1  0
 11 42  1  0
 12 43  1  0
 15 44  1  0
 16 45  1  0
 18 46  1  0
 22 47  1  0
 23 48  1  0
 24 49  1  0
 25 50  1  0
 26 51  1  0
 27 52  1  0
 29 53  1  0
 31 54  1  0
 31 55  1  0
M  END
$$$$
[H]c1c([H])c2c(c([H])c1F)N(S(=O)(=O)c1c([H])c([H])c(C([H])(C([H])([H])[H])C([H])([H])[H])c([H])c1[H])C([H])([H])C([H])([H])C2([H])[H]
     RDKit          3D

 43 45  0  0  0  0  0  0  0  0999 V2000
    4.9377    0.9231    1.4543 C   0  0  0  0  0  0  0  0  0  0  0  0
    4.8297   -0.3133    0.5944 C   0  0  0  0  0  0  0  0  0  0  0  0
    5.6969   -0.2067   -0.6526 C   0  0  0  0  0  0  0  0  0  0  0  0
    3.4340   -0.5026    0.1347 C   0  0  0  0  0  0  0  0  0  0  0  0
    2.7298   -1.6353    0.4438 C   0  0  0  0  0  0  0  0  0  0  0  0
    1.4443   -1.7794    0.0045 C   0  0  0  0  0  0  0  0  0  0  0  0
    0.7809   -0.8340   -0.7543 C   0  0  0  0  0  0  0  0  0  0  0  0
    1.5149    0.3007   -1.0525 C   0  0  0  0  0  0  0  0  0  0  0  0
    2.8127    0.4755   -0.6244 C   0  0  0  0  0  0  0  0  0  0  0  0
   -0.8441   -1.0909   -1.2706 S   0  0  0  0  0  0  0  0  0  0  0  0
   -1.0633   -2.6125   -1.2351 O   0  0  0  0  0  0  0  0  0  0  0  0
   -1.1356   -0.7284   -2.6731 O   0  0  0  0  0  0  0  0  0  0  0  0
   -2.0109   -0.5098   -0.1272 N   0  0  0  0  0  0  0  0  0  0  0  0
   -2.0823   -1.0610    1.2137 C   0  0  0  0  0  0  0  0  0  0  0  0
   -3.4355   -1.1096    1.8096 C   0  0  0  0  0  0  0  0  0  0  0  0
   -4.5548   -0.5547    1.0084 C   0  0  0  0  0  0  0  0  0  0  0  0
   -4.1795    0.5250    0.0702 C   0  0  0  0  0  0  0  0  0  0  0  0
   -5.0932    1.5044   -0.2394 C   0  0  0  0  0  0  0  0  0  0  0  0
   -4.6651    2.4917   -1.1349 C   0  0  0  0  0  0  0  0  0  0  0  0
   -3.3996    2.4930   -1.6830 C   0  0  0  0  0  0  0  0  0  0  0  0
   -3.0081    3.4646   -2.5513 F   0  0  0  0  0  0  0  0  0  0  0  0
   -2.4940    1.5041   -1.3630 C   0  0  0  0  0  0  0  0  0  0  0  0
   -2.9171    0.5231   -0.4744 C   0  0  0  0  0  0  0  0  0  0  0  0
    5.1074    1.8435    0.8477 H   0  0  0  0  0  0  0  0  0  0  0  0
    5.7607    0.8192    2.1846 H   0  0  0  0  0  0  0  0  0  0  0  0
    3.9551    1.0456    1.9953 H   0  0  0  0  0  0  0  0  0  0  0  0
    5.1575   -1.1822    1.1789 H   0  0  0  0  0  0  0  0  0  0  0  0
    6.7507   -0.4754   -0.4399 H   0  0  0  0  0  0  0  0  0  0  0  0
    5.6446    0.8231   -1.0798 H   0  0  0  0  0  0  0  0  0  0  0  0
    5.2632   -0.9436   -1.3798 H   0  0  0  0  0  0  0  0  0  0  0  0
    3.2458   -2.3943    1.0463 H   0  0  0  0  0  0  0  0  0  0  0  0
    0.9054   -2.7013    0.2698 H   0  0  0  0  0  0  0  0  0  0  0  0
    1.0410    1.0623   -1.6396 H   0  0  0  0  0  0  0  0  0  0  0  0
    3.3721    1.3757   -0.8702 H   0  0  0  0  0  0  0  0  0  0  0  0
   -1.4320   -0.4025    1.8520 H   0  0  0  0  0  0  0  0  0  0  0  0
   -1.5779   -2.0580    1.1636 H   0  0  0  0  0  0  0  0  0  0  0  0
   -3.4595   -0.5887    2.8127 H   0  0  0  0  0  0  0  0  0  0  0  0
   -3.6618   -2.1921    2.0390 H   0  0  0  0  0  0  0  0  0  0  0  0
   -5.0127   -1.3920    0.4210 H   0  0  0  0  0  0  0  0  0  0  0  0
   -5.3830   -0.1772    1.6775 H   0  0  0  0  0  0  0  0  0  0  0  0
   -6.0964    1.5510    0.1609 H   0  0  0  0  0  0  0  0  0  0  0  0
   -5.3888    3.2628   -1.3768 H   0  0  0  0  0  0  0  0  0  0  0  0
   -1.4895    1.4571   -1.7611 H   0  0  0  0  0  0  0  0  0  0  0  0
  1  2  1  0
  2  3  1  0
  2  4  1  0
  4  5  2  0
  5  6  1  0
  6  7  2  0
  7  8  1  0
  8  9  2  0
  7 10  1  0
 10 11  2  0
 10 12  2  0
 10 13  1  0
 13 14  1  0
 14 15  1  0
 15 16  1  0
 16 17  1  0
 17 18  2  0
 18 19  1  0
 19 20  2  0
 20 21  1  0
 20 22  1  0
 22 23  2  0
  9  4  1  0
 23 13  1  0
 23 17  1  0
  1 24  1  0
  1 25  1  0
  1 26  1  0
  2 27  1  0
  3 28  1  0
  3 29  1  0
  3 30  1  0
  5 31  1  0
  6 32  1  0
  8 33  1  0
  9 34  1  0
 14 35  1  0
 14 36  1  0
 15 37  1  0
 15 38  1  0
 16 39  1  0
 16 40  1  0
 18 41  1  0
 19 42  1  0
 22 43  1  0
M  END
$$$$
[H]c1c([H])c([H])c2c(c1[H])C([H])([H])N(C(=O)OC(C([H])([H])[H])(C([H])([H])[H])C([H])([H])[H])C(=O)[C@]([H])(N([H])C(=O)N([H])C([H])([H])C([H])([H])C([H])([H])C([H])([H])[H])C2([H])[H]
     RDKit          3D

 56 57  0  0  0  0  0  0  0  0999 V2000
    6.0043    2.8491    1.8238 C   0  0  0  0  0  0  0  0  0  0  0  0
    6.6721    1.8078    0.9523 C   0  0  0  0  0  0  0  0  0  0  0  0
    5.6665    1.3167   -0.0512 C   0  0  0  0  0  0  0  0  0  0  0  0
    4.4854    0.7066    0.6658 C   0  0  0  0  0  0  0  0  0  0  0  0
    3.5298    0.2406   -0.3350 N   0  0  0  0  0  0  0  0  0  0  0  0
    2.3369   -0.3714    0.1510 C   0  0  0  0  0  0  0  0  0  0  0  0
    2.1097   -0.5077    1.3805 O   0  0  0  0  0  0  0  0  0  0  0  0
    1.3966   -0.8307   -0.7974 N   0  0  0  0  0  0  0  0  0  0  0  0
    0.1766   -1.4556   -0.3510 C   0  0  2  0  0  0  0  0  0  0  0  0
    0.0965   -2.8885   -0.8376 C   0  0  0  0  0  0  0  0  0  0  0  0
   -1.0040   -3.5385   -0.0880 C   0  0  0  0  0  0  0  0  0  0  0  0
   -0.5268   -4.5277    0.7360 C   0  0  0  0  0  0  0  0  0  0  0  0
   -1.4071   -5.2475    1.5171 C   0  0  0  0  0  0  0  0  0  0  0  0
   -2.7472   -4.9336    1.4315 C   0  0  0  0  0  0  0  0  0  0  0  0
   -3.2180   -3.9369    0.5998 C   0  0  0  0  0  0  0  0  0  0  0  0
   -2.3476   -3.2180   -0.1791 C   0  0  0  0  0  0  0  0  0  0  0  0
   -2.9976   -2.1875   -1.0159 C   0  0  0  0  0  0  0  0  0  0  0  0
   -2.3608   -0.8954   -0.9520 N   0  0  0  0  0  0  0  0  0  0  0  0
   -0.9657   -0.6355   -0.8728 C   0  0  0  0  0  0  0  0  0  0  0  0
   -0.6630    0.5148   -1.3393 O   0  0  0  0  0  0  0  0  0  0  0  0
   -3.2159    0.2651   -0.9695 C   0  0  0  0  0  0  0  0  0  0  0  0
   -4.4612    0.1615   -1.0373 O   0  0  0  0  0  0  0  0  0  0  0  0
   -2.6655    1.5153   -0.9112 O   0  0  0  0  0  0  0  0  0  0  0  0
   -3.4063    2.7180   -0.9217 C   0  0  0  0  0  0  0  0  0  0  0  0
   -2.3937    3.8480   -0.8419 C   0  0  0  0  0  0  0  0  0  0  0  0
   -4.1600    2.9030   -2.2223 C   0  0  0  0  0  0  0  0  0  0  0  0
   -4.3004    2.8006    0.2742 C   0  0  0  0  0  0  0  0  0  0  0  0
    5.7428    2.4073    2.8076 H   0  0  0  0  0  0  0  0  0  0  0  0
    6.7080    3.7093    1.9624 H   0  0  0  0  0  0  0  0  0  0  0  0
    5.1058    3.2468    1.3235 H   0  0  0  0  0  0  0  0  0  0  0  0
    7.5611    2.2324    0.4670 H   0  0  0  0  0  0  0  0  0  0  0  0
    7.0056    0.9361    1.5782 H   0  0  0  0  0  0  0  0  0  0  0  0
    6.1284    0.6269   -0.7616 H   0  0  0  0  0  0  0  0  0  0  0  0
    5.3027    2.1998   -0.6304 H   0  0  0  0  0  0  0  0  0  0  0  0
    4.7956   -0.1527    1.2688 H   0  0  0  0  0  0  0  0  0  0  0  0
    3.9712    1.4730    1.2621 H   0  0  0  0  0  0  0  0  0  0  0  0
    3.7027    0.3458   -1.3547 H   0  0  0  0  0  0  0  0  0  0  0  0
    1.5378   -0.7416   -1.8193 H   0  0  0  0  0  0  0  0  0  0  0  0
    0.1690   -1.4777    0.7595 H   0  0  0  0  0  0  0  0  0  0  0  0
    1.0677   -3.3621   -0.5839 H   0  0  0  0  0  0  0  0  0  0  0  0
   -0.0940   -2.8646   -1.9096 H   0  0  0  0  0  0  0  0  0  0  0  0
    0.5267   -4.7412    0.7731 H   0  0  0  0  0  0  0  0  0  0  0  0
   -1.0473   -6.0385    2.1792 H   0  0  0  0  0  0  0  0  0  0  0  0
   -3.4215   -5.5032    2.0464 H   0  0  0  0  0  0  0  0  0  0  0  0
   -4.2717   -3.7395    0.5772 H   0  0  0  0  0  0  0  0  0  0  0  0
   -2.9327   -2.5473   -2.0796 H   0  0  0  0  0  0  0  0  0  0  0  0
   -4.0717   -2.1304   -0.7679 H   0  0  0  0  0  0  0  0  0  0  0  0
   -1.9585    3.8280    0.1849 H   0  0  0  0  0  0  0  0  0  0  0  0
   -2.8370    4.8240   -1.0932 H   0  0  0  0  0  0  0  0  0  0  0  0
   -1.5683    3.5741   -1.5412 H   0  0  0  0  0  0  0  0  0  0  0  0
   -3.7031    2.3580   -3.0644 H   0  0  0  0  0  0  0  0  0  0  0  0
   -4.2234    3.9820   -2.5146 H   0  0  0  0  0  0  0  0  0  0  0  0
   -5.2100    2.5682   -2.0773 H   0  0  0  0  0  0  0  0  0  0  0  0
   -4.1029    3.6973    0.9014 H   0  0  0  0  0  0  0  0  0  0  0  0
   -5.3419    2.9089   -0.0906 H   0  0  0  0  0  0  0  0  0  0  0  0
   -4.1747    1.9082    0.9351 H   0  0  0  0  0  0  0  0  0  0  0  0
  1  2  1  0
  2  3  1  0
  3  4  1  0
  4  5  1  0
  5  6  1  0
  6  7  2  0
  6  8  1  0
  8  9  1  0
  9 10  1  0
 10 11  1  0
 11 12  2  0
 12 13  1  0
 13 14  2  0
 14 15  1  0
 15 16  2  0
 16 17  1  0
 17 18  1  0
 18 19  1  0
 19 20  2  0
 18 21  1  0
 21 22  2  0
 21 23  1  0
 23 24  1  0
 24 25  1  0
 24 26  1  0
 24 27  1  0
 19  9  1  0
 16 11  1  0
  1 28  1  0
  1 29  1  0
  1 30  1  0
  2 31  1  0
  2 32  1  0
  3 33  1  0
  3 34  1  0
  4 35  1  0
  4 36  1  0
  5 37  1  0
  8 38  1  0
  9 39  1  1
 10 40  1  0
 10 41  1  0
 12 42  1  0
 13 43  1  0
 14 44  1  0
 15 45  1  0
 17 46  1  0
 17 47  1  0
 25 48  1  0
 25 49  1  0
 25 50  1  0
 26 51  1  0
 26 52  1  0
 26 53  1  0
 27 54  1  0
 27 55  1  0
 27 56  1  0
M  END
$$$$
[H]c1c([H])c2c(c([H])c1Cl)OC([H])([H])[C@]1([H])C([H])([H])[C@]2([H])[C@@]([H])(N([H])C(=O)N([H])c2c([H])c([H])c(C([H])([H])[H])c([H])c2[H])C1([H])[H]
     RDKit          3D

 46 49  0  0  0  0  0  0  0  0999 V2000
    7.4419    0.6371   -1.4407 C   0  0  0  0  0  0  0  0  0  0  0  0
    5.9971    0.5985   -1.0954 C   0  0  0  0  0  0  0  0  0  0  0  0
    5.4146   -0.5636   -0.6520 C   0  0  0  0  0  0  0  0  0  0  0  0
    4.0637   -0.6263   -0.3222 C   0  0  0  0  0  0  0  0  0  0  0  0
    3.2469    0.4734   -0.4249 C   0  0  0  0  0  0  0  0  0  0  0  0
    1.8840    0.5371   -0.1302 N   0  0  0  0  0  0  0  0  0  0  0  0
    1.0133   -0.4825    0.2898 C   0  0  0  0  0  0  0  0  0  0  0  0
    1.4430   -1.6483    0.4456 O   0  0  0  0  0  0  0  0  0  0  0  0
   -0.3851   -0.2146    0.5499 N   0  0  0  0  0  0  0  0  0  0  0  0
   -1.2079   -1.2828    0.9696 C   0  0  2  0  0  0  0  0  0  0  0  0
   -2.3939   -1.5678    0.1061 C   0  0  1  0  0  0  0  0  0  0  0  0
   -3.3803   -1.8516    1.2442 C   0  0  0  0  0  0  0  0  0  0  0  0
   -3.0278   -0.5583    2.0239 C   0  0  1  0  0  0  0  0  0  0  0  0
   -4.2691    0.0071    2.3106 C   0  0  0  0  0  0  0  0  0  0  0  0
   -4.8760    0.2278    0.9865 O   0  0  0  0  0  0  0  0  0  0  0  0
   -4.1804    0.3507   -0.2541 C   0  0  0  0  0  0  0  0  0  0  0  0
   -4.6741    1.3303   -1.0801 C   0  0  0  0  0  0  0  0  0  0  0  0
   -4.0980    1.5569   -2.3057 C   0  0  0  0  0  0  0  0  0  0  0  0
   -4.7423    2.8112   -3.3450 Cl  0  0  0  0  0  0  0  0  0  0  0  0
   -3.0026    0.7865   -2.7155 C   0  0  0  0  0  0  0  0  0  0  0  0
   -2.5460   -0.1806   -1.8545 C   0  0  0  0  0  0  0  0  0  0  0  0
   -3.0716   -0.4629   -0.6163 C   0  0  0  0  0  0  0  0  0  0  0  0
   -1.7616   -1.0180    2.4211 C   0  0  0  0  0  0  0  0  0  0  0  0
    3.8555    1.6603   -0.8809 C   0  0  0  0  0  0  0  0  0  0  0  0
    5.1914    1.7080   -1.2032 C   0  0  0  0  0  0  0  0  0  0  0  0
    7.6282    0.2093   -2.4605 H   0  0  0  0  0  0  0  0  0  0  0  0
    8.0727    0.0949   -0.7230 H   0  0  0  0  0  0  0  0  0  0  0  0
    7.7642    1.6961   -1.4722 H   0  0  0  0  0  0  0  0  0  0  0  0
    6.0521   -1.4530   -0.5636 H   0  0  0  0  0  0  0  0  0  0  0  0
    3.6833   -1.5515    0.0134 H   0  0  0  0  0  0  0  0  0  0  0  0
    1.4126    1.4906   -0.2305 H   0  0  0  0  0  0  0  0  0  0  0  0
   -0.6852    0.7737    0.4033 H   0  0  0  0  0  0  0  0  0  0  0  0
   -0.6299   -2.2063    1.0389 H   0  0  0  0  0  0  0  0  0  0  0  0
   -2.2650   -2.4627   -0.5340 H   0  0  0  0  0  0  0  0  0  0  0  0
   -3.0706   -2.7452    1.7688 H   0  0  0  0  0  0  0  0  0  0  0  0
   -4.3791   -1.8582    0.8305 H   0  0  0  0  0  0  0  0  0  0  0  0
   -2.6404    0.2947    1.3456 H   0  0  0  0  0  0  0  0  0  0  0  0
   -5.0390   -0.6299    2.8279 H   0  0  0  0  0  0  0  0  0  0  0  0
   -4.2660    0.9893    2.8433 H   0  0  0  0  0  0  0  0  0  0  0  0
   -5.5106    1.9252   -0.7775 H   0  0  0  0  0  0  0  0  0  0  0  0
   -2.5620    0.9801   -3.6848 H   0  0  0  0  0  0  0  0  0  0  0  0
   -1.7018   -0.7683   -2.1802 H   0  0  0  0  0  0  0  0  0  0  0  0
   -1.6993   -1.9441    3.0031 H   0  0  0  0  0  0  0  0  0  0  0  0
   -1.0678   -0.2702    2.8717 H   0  0  0  0  0  0  0  0  0  0  0  0
    3.3081    2.5815   -0.9986 H   0  0  0  0  0  0  0  0  0  0  0  0
    5.6608    2.6265   -1.5557 H   0  0  0  0  0  0  0  0  0  0  0  0
  1  2  1  0
  2  3  2  0
  3  4  1  0
  4  5  2  0
  5  6  1  0
  6  7  1  0
  7  8  2  0
  7  9  1  0
  9 10  1  0
 10 11  1  0
 11 12  1  0
 12 13  1  0
 13 14  1  0
 14 15  1  0
 15 16  1  0
 16 17  2  0
 17 18  1  0
 18 19  1  0
 18 20  2  0
 20 21  1  0
 21 22  2  0
 13 23  1  0
  5 24  1  0
 24 25  2  0
 25  2  1  0
 23 10  1  0
 22 11  1  0
 22 16  1  0
  1 26  1  0
  1 27  1  0
  1 28  1  0
  3 29  1  0
  4 30  1  0
  6 31  1  0
  9 32  1  0
 10 33  1  1
 11 34  1  6
 12 35  1  0
 12 36  1  0
 13 37  1  6
 14 38  1  0
 14 39  1  0
 17 40  1  0
 20 41  1  0
 21 42  1  0
 23 43  1  0
 23 44  1  0
 24 45  1  0
 25 46  1  0
M  END
$$$$
[H]N=C(N([H])[H])N([H])C([H])([H])C([H])([H])C([H])([H])[C@@]([H])(C([H])=O)N([H])C(=O)[C@@]([H])(N([H])C(=O)N(O[H])C([H])([H])[C@]1([H])C([H])([H])[C@]([H])(N([H])[H])[C@@]1([H])O[H])C([H])([H])C([H])([H])SC([H])([H])[H]
     RDKit          3D

 63 63  0  0  0  0  0  0  0  0999 V2000
    5.1527   -0.6825   -2.8106 O   0  0  0  0  0  0  0  0  0  0  0  0
    4.1765   -0.8010   -1.8432 N   0  0  0  0  0  0  0  0  0  0  0  0
    4.5637   -0.8338   -0.4752 C   0  0  0  0  0  0  0  0  0  0  0  0
    4.7347    0.4565    0.2186 C   0  0  2  0  0  0  0  0  0  0  0  0
    3.6109    1.4246    0.3393 C   0  0  0  0  0  0  0  0  0  0  0  0
    4.7047    2.5135    0.3441 C   0  0  2  0  0  0  0  0  0  0  0  0
    4.2923    3.7281   -0.2805 N   0  0  0  0  0  0  0  0  0  0  0  0
    5.4535    1.5485   -0.5917 C   0  0  1  0  0  0  0  0  0  0  0  0
    6.8168    1.5591   -0.4320 O   0  0  0  0  0  0  0  0  0  0  0  0
    2.8267   -0.8499   -2.2392 C   0  0  0  0  0  0  0  0  0  0  0  0
    2.5786   -0.7318   -3.4784 O   0  0  0  0  0  0  0  0  0  0  0  0
    1.7941   -1.0281   -1.2922 N   0  0  0  0  0  0  0  0  0  0  0  0
    0.4071   -1.0710   -1.8153 C   0  0  1  0  0  0  0  0  0  0  0  0
   -0.1088   -2.4813   -1.6432 C   0  0  0  0  0  0  0  0  0  0  0  0
   -1.4977   -2.7287   -2.0952 C   0  0  0  0  0  0  0  0  0  0  0  0
   -1.8249   -4.5221   -1.8375 S   0  0  0  0  0  0  0  0  0  0  0  0
   -1.8249   -4.9087   -0.0793 C   0  0  0  0  0  0  0  0  0  0  0  0
   -0.3551   -0.0545   -1.0623 C   0  0  0  0  0  0  0  0  0  0  0  0
    0.1270    0.5017   -0.0336 O   0  0  0  0  0  0  0  0  0  0  0  0
   -1.6383    0.3067   -1.4978 N   0  0  0  0  0  0  0  0  0  0  0  0
   -2.4668    1.2824   -0.8331 C   0  0  1  0  0  0  0  0  0  0  0  0
   -2.8438    0.8468    0.5536 C   0  0  0  0  0  0  0  0  0  0  0  0
   -3.7177    1.8914    1.1879 C   0  0  0  0  0  0  0  0  0  0  0  0
   -4.1537    1.4808    2.5871 C   0  0  0  0  0  0  0  0  0  0  0  0
   -4.9033    0.2464    2.4839 N   0  0  0  0  0  0  0  0  0  0  0  0
   -5.3911   -0.2961    3.7048 C   0  0  0  0  0  0  0  0  0  0  0  0
   -6.6772    0.0434    4.1930 N   0  0  0  0  0  0  0  0  0  0  0  0
   -4.6307   -1.1043    4.3529 N   0  0  0  0  0  0  0  0  0  0  0  0
   -1.8676    2.6192   -0.8238 C   0  0  0  0  0  0  0  0  0  0  0  0
   -0.7719    2.8321   -1.3333 O   0  0  0  0  0  0  0  0  0  0  0  0
    4.8377    0.0119   -3.4329 H   0  0  0  0  0  0  0  0  0  0  0  0
    3.8979   -1.4665    0.1713 H   0  0  0  0  0  0  0  0  0  0  0  0
    5.5602   -1.3746   -0.3932 H   0  0  0  0  0  0  0  0  0  0  0  0
    5.2182    0.3138    1.2138 H   0  0  0  0  0  0  0  0  0  0  0  0
    3.0464    1.3874    1.2918 H   0  0  0  0  0  0  0  0  0  0  0  0
    2.9846    1.6301   -0.5403 H   0  0  0  0  0  0  0  0  0  0  0  0
    5.1342    2.5704    1.3532 H   0  0  0  0  0  0  0  0  0  0  0  0
    4.5873    4.5593    0.2685 H   0  0  0  0  0  0  0  0  0  0  0  0
    4.4699    3.7962   -1.2889 H   0  0  0  0  0  0  0  0  0  0  0  0
    5.0427    1.6314   -1.5972 H   0  0  0  0  0  0  0  0  0  0  0  0
    7.1549    0.6442   -0.6517 H   0  0  0  0  0  0  0  0  0  0  0  0
    1.9600   -1.1321   -0.2798 H   0  0  0  0  0  0  0  0  0  0  0  0
    0.4718   -0.8938   -2.8934 H   0  0  0  0  0  0  0  0  0  0  0  0
    0.6151   -3.1377   -2.1969 H   0  0  0  0  0  0  0  0  0  0  0  0
    0.0211   -2.7209   -0.5608 H   0  0  0  0  0  0  0  0  0  0  0  0
   -2.2290   -2.1930   -1.4101 H   0  0  0  0  0  0  0  0  0  0  0  0
   -1.7368   -2.4582   -3.1236 H   0  0  0  0  0  0  0  0  0  0  0  0
   -0.9422   -4.4117    0.3666 H   0  0  0  0  0  0  0  0  0  0  0  0
   -2.7316   -4.5080    0.4259 H   0  0  0  0  0  0  0  0  0  0  0  0
   -1.7974   -6.0056    0.0233 H   0  0  0  0  0  0  0  0  0  0  0  0
   -2.0577   -0.1251   -2.3774 H   0  0  0  0  0  0  0  0  0  0  0  0
   -3.4319    1.3548   -1.4241 H   0  0  0  0  0  0  0  0  0  0  0  0
   -3.3521   -0.1505    0.5096 H   0  0  0  0  0  0  0  0  0  0  0  0
   -1.9064    0.6848    1.1525 H   0  0  0  0  0  0  0  0  0  0  0  0
   -3.1210    2.8375    1.2510 H   0  0  0  0  0  0  0  0  0  0  0  0
   -4.6146    2.0229    0.5637 H   0  0  0  0  0  0  0  0  0  0  0  0
   -4.8701    2.2689    2.9313 H   0  0  0  0  0  0  0  0  0  0  0  0
   -3.3084    1.4126    3.2738 H   0  0  0  0  0  0  0  0  0  0  0  0
   -5.0786   -0.2208    1.5639 H   0  0  0  0  0  0  0  0  0  0  0  0
   -7.4071    0.4552    3.5428 H   0  0  0  0  0  0  0  0  0  0  0  0
   -6.9649   -0.0860    5.1697 H   0  0  0  0  0  0  0  0  0  0  0  0
   -3.6850   -1.3673    4.0143 H   0  0  0  0  0  0  0  0  0  0  0  0
   -2.3331    3.4833   -0.3841 H   0  0  0  0  0  0  0  0  0  0  0  0
  1  2  1  0
  2  3  1  0
  3  4  1  0
  4  5  1  0
  5  6  1  0
  6  7  1  0
  6  8  1  0
  8  9  1  0
  2 10  1  0
 10 11  2  0
 10 12  1  0
 12 13  1  0
 13 14  1  0
 14 15  1  0
 15 16  1  0
 16 17  1  0
 13 18  1  0
 18 19  2  0
 18 20  1  0
 20 21  1  0
 21 22  1  0
 22 23  1  0
 23 24  1  0
 24 25  1  0
 25 26  1  0
 26 27  1  0
 26 28  2  3
 21 29  1  0
 29 30  2  0
  8  4  1  0
  1 31  1  0
  3 32  1  0
  3 33  1  0
  4 34  1  1
  5 35  1  0
  5 36  1  0
  6 37  1  1
  7 38  1  0
  7 39  1  0
  8 40  1  6
  9 41  1  0
 12 42  1  0
 13 43  1  6
 14 44  1  0
 14 45  1  0
 15 46  1  0
 15 47  1  0
 17 48  1  0
 17 49  1  0
 17 50  1  0
 20 51  1  0
 21 52  1  6
 22 53  1  0
 22 54  1  0
 23 55  1  0
 23 56  1  0
 24 57  1  0
 24 58  1  0
 25 59  1  0
 27 60  1  0
 27 61  1  0
 28 62  1  0
 29 63  1  0
M  END
$$$$
[H]c1c([H])c([H])c([C@]2([H])C([H])([H])C(=O)[C@]2([H])[C@@]2([H])C([H])([H])[C@@]3([H])C([H])([H])C([H])([H])[C@]2(N2C([H])([H])C([H])([H])C([H])(N4C(=O)c5c([H])c([H])c([H])c([H])c54)C([H])([H])C2([H])[H])C3([H])[H])c([H])c1[H]
     RDKit          3D

 65 71  0  0  0  0  0  0  0  0999 V2000
   -4.9439   -2.3426    0.9023 O   0  0  0  0  0  0  0  0  0  0  0  0
   -4.1166   -2.2130    0.0475 C   0  0  0  0  0  0  0  0  0  0  0  0
   -2.6939   -1.7600    0.0299 C   0  0  1  0  0  0  0  0  0  0  0  0
   -2.9635   -1.3732   -1.4359 C   0  0  1  0  0  0  0  0  0  0  0  0
   -4.0341   -2.4157   -1.4036 C   0  0  0  0  0  0  0  0  0  0  0  0
   -3.3912    0.0212   -1.6697 C   0  0  0  0  0  0  0  0  0  0  0  0
   -4.6414    0.4928   -1.3332 C   0  0  0  0  0  0  0  0  0  0  0  0
   -5.0402    1.8026   -1.5503 C   0  0  0  0  0  0  0  0  0  0  0  0
   -4.1555    2.6644   -2.1233 C   0  0  0  0  0  0  0  0  0  0  0  0
   -2.8900    2.2291   -2.4765 C   0  0  0  0  0  0  0  0  0  0  0  0
   -2.5148    0.9293   -2.2532 C   0  0  0  0  0  0  0  0  0  0  0  0
   -2.4001   -0.5525    0.8407 C   0  0  1  0  0  0  0  0  0  0  0  0
   -3.0359   -0.7031    2.2551 C   0  0  0  0  0  0  0  0  0  0  0  0
   -2.1264   -0.0107    3.1995 C   0  0  1  0  0  0  0  0  0  0  0  0
   -1.0964   -1.0457    3.6307 C   0  0  0  0  0  0  0  0  0  0  0  0
   -0.6028   -1.4906    2.2737 C   0  0  0  0  0  0  0  0  0  0  0  0
   -0.9694   -0.3669    1.2745 C   0  0  2  0  0  0  0  0  0  0  0  0
   -1.1974    0.7896    2.2683 C   0  0  0  0  0  0  0  0  0  0  0  0
    0.0333   -0.1260    0.3665 N   0  0  0  0  0  0  0  0  0  0  0  0
    0.4853   -1.0480   -0.5727 C   0  0  0  0  0  0  0  0  0  0  0  0
    2.0081   -1.1182   -0.6806 C   0  0  0  0  0  0  0  0  0  0  0  0
    2.6491    0.1417   -0.1653 C   0  0  0  0  0  0  0  0  0  0  0  0
    1.7533    1.2892   -0.6423 C   0  0  0  0  0  0  0  0  0  0  0  0
    0.5166    1.2150    0.2312 C   0  0  0  0  0  0  0  0  0  0  0  0
    3.9755    0.3345   -0.6512 N   0  0  0  0  0  0  0  0  0  0  0  0
    5.2233    0.5664    0.0162 C   0  0  0  0  0  0  0  0  0  0  0  0
    5.9384    0.7351    1.1964 C   0  0  0  0  0  0  0  0  0  0  0  0
    7.2982    0.9545    1.1974 C   0  0  0  0  0  0  0  0  0  0  0  0
    7.9803    1.0103    0.0066 C   0  0  0  0  0  0  0  0  0  0  0  0
    7.2664    0.8414   -1.1646 C   0  0  0  0  0  0  0  0  0  0  0  0
    5.9041    0.6229   -1.1641 C   0  0  0  0  0  0  0  0  0  0  0  0
    4.6524    0.3871   -1.8836 C   0  0  0  0  0  0  0  0  0  0  0  0
    4.3797    0.2872   -3.0991 O   0  0  0  0  0  0  0  0  0  0  0  0
   -2.0487   -2.6262    0.0881 H   0  0  0  0  0  0  0  0  0  0  0  0
   -2.1098   -1.6786   -2.0614 H   0  0  0  0  0  0  0  0  0  0  0  0
   -3.6185   -3.4280   -1.6725 H   0  0  0  0  0  0  0  0  0  0  0  0
   -4.9522   -2.2077   -1.9889 H   0  0  0  0  0  0  0  0  0  0  0  0
   -5.3921   -0.1404   -0.8825 H   0  0  0  0  0  0  0  0  0  0  0  0
   -6.0305    2.1505   -1.2787 H   0  0  0  0  0  0  0  0  0  0  0  0
   -4.4645    3.6851   -2.2919 H   0  0  0  0  0  0  0  0  0  0  0  0
   -2.2120    2.9553   -2.9335 H   0  0  0  0  0  0  0  0  0  0  0  0
   -1.5108    0.6137   -2.5465 H   0  0  0  0  0  0  0  0  0  0  0  0
   -2.7519    0.4021    0.4675 H   0  0  0  0  0  0  0  0  0  0  0  0
   -4.0647   -0.3140    2.2206 H   0  0  0  0  0  0  0  0  0  0  0  0
   -3.0655   -1.7733    2.4519 H   0  0  0  0  0  0  0  0  0  0  0  0
   -2.5461    0.5673    3.9949 H   0  0  0  0  0  0  0  0  0  0  0  0
   -1.5443   -1.8614    4.2161 H   0  0  0  0  0  0  0  0  0  0  0  0
   -0.2797   -0.5543    4.2253 H   0  0  0  0  0  0  0  0  0  0  0  0
   -1.1713   -2.3791    1.9801 H   0  0  0  0  0  0  0  0  0  0  0  0
    0.4909   -1.6186    2.2484 H   0  0  0  0  0  0  0  0  0  0  0  0
   -1.7105    1.6115    1.7752 H   0  0  0  0  0  0  0  0  0  0  0  0
   -0.2668    1.0505    2.8052 H   0  0  0  0  0  0  0  0  0  0  0  0
    0.1787   -2.0792   -0.3105 H   0  0  0  0  0  0  0  0  0  0  0  0
    0.0794   -0.8316   -1.5803 H   0  0  0  0  0  0  0  0  0  0  0  0
    2.2870   -1.2348   -1.7445 H   0  0  0  0  0  0  0  0  0  0  0  0
    2.4315   -1.9751   -0.1294 H   0  0  0  0  0  0  0  0  0  0  0  0
    2.5915    0.1834    0.9464 H   0  0  0  0  0  0  0  0  0  0  0  0
    1.4905    1.1744   -1.7211 H   0  0  0  0  0  0  0  0  0  0  0  0
    2.2288    2.2591   -0.4715 H   0  0  0  0  0  0  0  0  0  0  0  0
    0.7962    1.6079    1.2100 H   0  0  0  0  0  0  0  0  0  0  0  0
   -0.2725    1.8403   -0.2140 H   0  0  0  0  0  0  0  0  0  0  0  0
    5.4194    0.6963    2.1571 H   0  0  0  0  0  0  0  0  0  0  0  0
    7.8692    1.0854    2.1066 H   0  0  0  0  0  0  0  0  0  0  0  0
    9.0593    1.1812   -0.0273 H   0  0  0  0  0  0  0  0  0  0  0  0
    7.8390    0.8904   -2.0826 H   0  0  0  0  0  0  0  0  0  0  0  0
  1  2  2  0
  2  3  1  0
  3  4  1  0
  4  5  1  0
  4  6  1  0
  6  7  2  0
  7  8  1  0
  8  9  2  0
  9 10  1  0
 10 11  2  0
  3 12  1  0
 12 13  1  0
 13 14  1  0
 14 15  1  0
 15 16  1  0
 16 17  1  0
 17 18  1  0
 17 19  1  6
 19 20  1  0
 20 21  1  0
 21 22  1  0
 22 23  1  0
 23 24  1  0
 22 25  1  0
 25 26  1  0
 26 27  2  0
 27 28  1  0
 28 29  2  0
 29 30  1  0
 30 31  2  0
 31 32  1  0
 32 33  2  0
  5  2  1  0
 11  6  1  0
 17 12  1  0
 24 19  1  0
 32 25  1  0
 18 14  1  0
 31 26  1  0
  3 34  1  6
  4 35  1  6
  5 36  1  0
  5 37  1  0
  7 38  1  0
  8 39  1  0
  9 40  1  0
 10 41  1  0
 11 42  1  0
 12 43  1  6
 13 44  1  0
 13 45  1  0
 14 46  1  1
 15 47  1  0
 15 48  1  0
 16 49  1  0
 16 50  1  0
 18 51  1  0
 18 52  1  0
 20 53  1  0
 20 54  1  0
 21 55  1  0
 21 56  1  0
 22 57  1  0
 23 58  1  0
 23 59  1  0
 24 60  1  0
 24 61  1  0
 27 62  1  0
 28 63  1  0
 29 64  1  0
 30 65  1  0
M  END
$$$$
[H]c1c([H])c([H])c2c(c1[H])N(C(=O)N(C([H])([H])[H])C([H])([H])[H])c1c([H])c([H])c([H])c([H])c1C21C([H])([H])C1(C([H])([H])[H])[C@]([H])(c1c([H])c([H])c(F)c([H])c1[H])C([H])([H])[H]
     RDKit          3D

 58 62  0  0  0  0  0  0  0  0999 V2000
   -5.5128    0.0662   -2.5407 C   0  0  0  0  0  0  0  0  0  0  0  0
   -4.6060    0.6483   -1.4884 N   0  0  0  0  0  0  0  0  0  0  0  0
   -5.1585    1.8850   -0.9816 C   0  0  0  0  0  0  0  0  0  0  0  0
   -3.5302   -0.1014   -1.0735 C   0  0  0  0  0  0  0  0  0  0  0  0
   -3.6510   -1.3667   -1.5446 O   0  0  0  0  0  0  0  0  0  0  0  0
   -2.3863    0.0302   -0.3233 N   0  0  0  0  0  0  0  0  0  0  0  0
   -2.0008   -1.1140    0.5026 C   0  0  0  0  0  0  0  0  0  0  0  0
   -3.0058   -1.9919    0.9255 C   0  0  0  0  0  0  0  0  0  0  0  0
   -2.7970   -2.8964    1.9820 C   0  0  0  0  0  0  0  0  0  0  0  0
   -1.5754   -2.9022    2.6016 C   0  0  0  0  0  0  0  0  0  0  0  0
   -0.5727   -2.0238    2.1726 C   0  0  0  0  0  0  0  0  0  0  0  0
   -0.7922   -1.1447    1.1256 C   0  0  0  0  0  0  0  0  0  0  0  0
    0.3874   -0.3622    0.5912 C   0  0  0  0  0  0  0  0  0  0  0  0
    0.8543   -0.7758   -0.8745 C   0  0  0  0  0  0  0  0  0  0  0  0
    1.5413   -1.1573    0.3576 C   0  0  0  0  0  0  0  0  0  0  0  0
    1.3464   -2.7275    0.4231 C   0  0  0  0  0  0  0  0  0  0  0  0
    2.9744   -0.9304    0.6550 C   0  0  1  0  0  0  0  0  0  0  0  0
    3.8582   -2.1474    0.2231 C   0  0  0  0  0  0  0  0  0  0  0  0
    3.7069    0.1783    0.0616 C   0  0  0  0  0  0  0  0  0  0  0  0
    3.8962    0.4394   -1.2505 C   0  0  0  0  0  0  0  0  0  0  0  0
    4.6471    1.5316   -1.6947 C   0  0  0  0  0  0  0  0  0  0  0  0
    5.2387    2.4046   -0.8079 C   0  0  0  0  0  0  0  0  0  0  0  0
    5.9699    3.4682   -1.2280 F   0  0  0  0  0  0  0  0  0  0  0  0
    5.0543    2.1490    0.5275 C   0  0  0  0  0  0  0  0  0  0  0  0
    4.3211    1.0833    0.9469 C   0  0  0  0  0  0  0  0  0  0  0  0
   -0.1583    0.9667    0.3167 C   0  0  0  0  0  0  0  0  0  0  0  0
    0.6012    2.1004    0.4472 C   0  0  0  0  0  0  0  0  0  0  0  0
    0.1708    3.3118   -0.0912 C   0  0  0  0  0  0  0  0  0  0  0  0
   -1.0115    3.3982   -0.7585 C   0  0  0  0  0  0  0  0  0  0  0  0
   -1.7949    2.2689   -0.8964 C   0  0  0  0  0  0  0  0  0  0  0  0
   -1.3749    1.0526   -0.3518 C   0  0  0  0  0  0  0  0  0  0  0  0
   -5.0264   -0.8131   -2.9956 H   0  0  0  0  0  0  0  0  0  0  0  0
   -6.4092   -0.2990   -1.9986 H   0  0  0  0  0  0  0  0  0  0  0  0
   -5.8218    0.8426   -3.2388 H   0  0  0  0  0  0  0  0  0  0  0  0
   -5.0102    2.6697   -1.7266 H   0  0  0  0  0  0  0  0  0  0  0  0
   -6.2557    1.7302   -0.7933 H   0  0  0  0  0  0  0  0  0  0  0  0
   -4.7567    2.1663    0.0127 H   0  0  0  0  0  0  0  0  0  0  0  0
   -3.9520   -1.9645    0.4719 H   0  0  0  0  0  0  0  0  0  0  0  0
   -3.6189   -3.5431    2.2496 H   0  0  0  0  0  0  0  0  0  0  0  0
   -1.4208   -3.5959    3.4156 H   0  0  0  0  0  0  0  0  0  0  0  0
    0.3432   -2.0785    2.7513 H   0  0  0  0  0  0  0  0  0  0  0  0
    1.2815   -0.0062   -1.4989 H   0  0  0  0  0  0  0  0  0  0  0  0
    0.0416   -1.3424   -1.3672 H   0  0  0  0  0  0  0  0  0  0  0  0
    2.0435   -3.1466   -0.3869 H   0  0  0  0  0  0  0  0  0  0  0  0
    0.3657   -3.0252    0.0676 H   0  0  0  0  0  0  0  0  0  0  0  0
    1.7388   -3.1404    1.3356 H   0  0  0  0  0  0  0  0  0  0  0  0
    3.1439   -0.9532    1.7763 H   0  0  0  0  0  0  0  0  0  0  0  0
    3.8189   -2.2735   -0.8588 H   0  0  0  0  0  0  0  0  0  0  0  0
    4.9041   -1.8140    0.4946 H   0  0  0  0  0  0  0  0  0  0  0  0
    3.6662   -3.0196    0.8408 H   0  0  0  0  0  0  0  0  0  0  0  0
    3.4895   -0.2023   -1.9849 H   0  0  0  0  0  0  0  0  0  0  0  0
    4.7750    1.7076   -2.7417 H   0  0  0  0  0  0  0  0  0  0  0  0
    5.5290    2.8486    1.2190 H   0  0  0  0  0  0  0  0  0  0  0  0
    4.2206    0.9475    2.0279 H   0  0  0  0  0  0  0  0  0  0  0  0
    1.5148    2.1268    0.9698 H   0  0  0  0  0  0  0  0  0  0  0  0
    0.8042    4.1670    0.0406 H   0  0  0  0  0  0  0  0  0  0  0  0
   -1.3671    4.3412   -1.1945 H   0  0  0  0  0  0  0  0  0  0  0  0
   -2.6817    2.3294   -1.4832 H   0  0  0  0  0  0  0  0  0  0  0  0
  1  2  1  0
  2  3  1  0
  2  4  1  0
  4  5  2  0
  4  6  1  0
  6  7  1  0
  7  8  2  0
  8  9  1  0
  9 10  2  0
 10 11  1  0
 11 12  2  0
 12 13  1  0
 13 14  1  0
 14 15  1  0
 15 16  1  0
 15 17  1  0
 17 18  1  0
 17 19  1  0
 19 20  2  0
 20 21  1  0
 21 22  2  0
 22 23  1  0
 22 24  1  0
 24 25  2  0
 13 26  1  0
 26 27  2  0
 27 28  1  0
 28 29  2  0
 29 30  1  0
 30 31  2  0
 31  6  1  0
 12  7  1  0
 15 13  1  0
 25 19  1  0
 31 26  1  0
  1 32  1  0
  1 33  1  0
  1 34  1  0
  3 35  1  0
  3 36  1  0
  3 37  1  0
  8 38  1  0
  9 39  1  0
 10 40  1  0
 11 41  1  0
 14 42  1  0
 14 43  1  0
 16 44  1  0
 16 45  1  0
 16 46  1  0
 17 47  1  1
 18 48  1  0
 18 49  1  0
 18 50  1  0
 20 51  1  0
 21 52  1  0
 24 53  1  0
 25 54  1  0
 27 55  1  0
 28 56  1  0
 29 57  1  0
 30 58  1  0
M  END
$$$$
[H]OS(=O)(=O)C([H])([H])C([H])([H])N([H])C(=O)[C@@]1([H])OC([H])([H])C([H])([H])N(C(=O)[C@]2([H])C([H])([H])[C@]([H])(c3c([H])c([H])c([H])c(C([H])([H])OC([H])([H])C(F)(F)F)c3[H])[C@@]2([H])C([H])([H])[H])C(=O)C1([H])[H]
     RDKit          3D

 66 68  0  0  0  0  0  0  0  0999 V2000
    1.7727    1.7005   -1.6776 C   0  0  0  0  0  0  0  0  0  0  0  0
    1.9142    0.5534   -0.7247 C   0  0  2  0  0  0  0  0  0  0  0  0
    2.6298   -0.6483   -1.3260 C   0  0  2  0  0  0  0  0  0  0  0  0
    1.6710   -1.4879   -0.4703 C   0  0  0  0  0  0  0  0  0  0  0  0
    0.6708   -0.3685   -0.6752 C   0  0  1  0  0  0  0  0  0  0  0  0
   -0.2224   -0.0657    0.4440 C   0  0  0  0  0  0  0  0  0  0  0  0
    0.0551    0.8516    1.2906 O   0  0  0  0  0  0  0  0  0  0  0  0
   -1.4091   -0.7784    0.6149 N   0  0  0  0  0  0  0  0  0  0  0  0
   -1.7152   -1.8053   -0.3396 C   0  0  0  0  0  0  0  0  0  0  0  0
   -2.9098   -1.2860   -1.1323 C   0  0  0  0  0  0  0  0  0  0  0  0
   -3.7571   -0.5246   -0.3481 O   0  0  0  0  0  0  0  0  0  0  0  0
   -4.2845   -1.1766    0.7248 C   0  0  1  0  0  0  0  0  0  0  0  0
   -3.6169   -0.8147    2.0407 C   0  0  0  0  0  0  0  0  0  0  0  0
   -2.2061   -0.4115    1.7290 C   0  0  0  0  0  0  0  0  0  0  0  0
   -1.6179    0.3522    2.5385 O   0  0  0  0  0  0  0  0  0  0  0  0
   -5.7280   -1.0489    0.8919 C   0  0  0  0  0  0  0  0  0  0  0  0
   -6.2952   -1.6194    1.8564 O   0  0  0  0  0  0  0  0  0  0  0  0
   -6.5949   -0.2985    0.0166 N   0  0  0  0  0  0  0  0  0  0  0  0
   -7.9992   -0.2004    0.2166 C   0  0  0  0  0  0  0  0  0  0  0  0
   -8.6188    0.6604   -0.8462 C   0  0  0  0  0  0  0  0  0  0  0  0
   -8.0464    2.3202   -0.8635 S   0  0  0  0  0  0  0  0  0  0  0  0
   -6.4083    2.4896   -1.1251 O   0  0  0  0  0  0  0  0  0  0  0  0
   -8.7439    3.0494   -2.0047 O   0  0  0  0  0  0  0  0  0  0  0  0
   -8.4750    3.0672    0.3906 O   0  0  0  0  0  0  0  0  0  0  0  0
    4.0459   -0.7729   -0.9984 C   0  0  0  0  0  0  0  0  0  0  0  0
    4.9572   -0.9847   -2.0171 C   0  0  0  0  0  0  0  0  0  0  0  0
    6.3109   -1.1110   -1.7783 C   0  0  0  0  0  0  0  0  0  0  0  0
    6.8048   -1.0287   -0.4984 C   0  0  0  0  0  0  0  0  0  0  0  0
    5.9123   -0.8157    0.5507 C   0  0  0  0  0  0  0  0  0  0  0  0
    6.3849   -0.7181    1.9496 C   0  0  0  0  0  0  0  0  0  0  0  0
    6.4923    0.6141    2.3002 O   0  0  0  0  0  0  0  0  0  0  0  0
    7.3670    1.3504    1.5310 C   0  0  0  0  0  0  0  0  0  0  0  0
    7.3806    2.7806    2.0416 C   0  0  0  0  0  0  0  0  0  0  0  0
    8.2660    3.5219    1.2610 F   0  0  0  0  0  0  0  0  0  0  0  0
    7.7851    2.8107    3.3551 F   0  0  0  0  0  0  0  0  0  0  0  0
    6.1224    3.3292    1.9261 F   0  0  0  0  0  0  0  0  0  0  0  0
    4.5492   -0.6918    0.2801 C   0  0  0  0  0  0  0  0  0  0  0  0
    2.7326    1.7982   -2.2273 H   0  0  0  0  0  0  0  0  0  0  0  0
    1.5995    2.6508   -1.1533 H   0  0  0  0  0  0  0  0  0  0  0  0
    0.9729    1.4394   -2.3993 H   0  0  0  0  0  0  0  0  0  0  0  0
    2.1896    0.7892    0.3070 H   0  0  0  0  0  0  0  0  0  0  0  0
    2.3483   -0.7376   -2.3813 H   0  0  0  0  0  0  0  0  0  0  0  0
    1.9614   -1.4929    0.6209 H   0  0  0  0  0  0  0  0  0  0  0  0
    1.4311   -2.4612   -0.8884 H   0  0  0  0  0  0  0  0  0  0  0  0
    0.2092   -0.3934   -1.6855 H   0  0  0  0  0  0  0  0  0  0  0  0
   -0.8837   -1.9333   -1.0492 H   0  0  0  0  0  0  0  0  0  0  0  0
   -1.9627   -2.7784    0.1470 H   0  0  0  0  0  0  0  0  0  0  0  0
   -2.5204   -0.7689   -2.0032 H   0  0  0  0  0  0  0  0  0  0  0  0
   -3.4695   -2.1800   -1.4772 H   0  0  0  0  0  0  0  0  0  0  0  0
   -4.0657   -2.2768    0.5828 H   0  0  0  0  0  0  0  0  0  0  0  0
   -4.1344   -0.0035    2.5483 H   0  0  0  0  0  0  0  0  0  0  0  0
   -3.6207   -1.7048    2.7295 H   0  0  0  0  0  0  0  0  0  0  0  0
   -6.0845    0.1497   -0.7754 H   0  0  0  0  0  0  0  0  0  0  0  0
   -8.5245   -1.1806    0.1938 H   0  0  0  0  0  0  0  0  0  0  0  0
   -8.1460    0.2857    1.2254 H   0  0  0  0  0  0  0  0  0  0  0  0
   -9.7286    0.6165   -0.8373 H   0  0  0  0  0  0  0  0  0  0  0  0
   -8.2753    0.2059   -1.8255 H   0  0  0  0  0  0  0  0  0  0  0  0
   -6.1863    3.2143   -1.7732 H   0  0  0  0  0  0  0  0  0  0  0  0
    4.5814   -1.0531   -3.0449 H   0  0  0  0  0  0  0  0  0  0  0  0
    7.0291   -1.2779   -2.5767 H   0  0  0  0  0  0  0  0  0  0  0  0
    7.8537   -1.1197   -0.2546 H   0  0  0  0  0  0  0  0  0  0  0  0
    5.6252   -1.2118    2.5766 H   0  0  0  0  0  0  0  0  0  0  0  0
    7.3745   -1.2283    2.0230 H   0  0  0  0  0  0  0  0  0  0  0  0
    7.0272    1.4421    0.4569 H   0  0  0  0  0  0  0  0  0  0  0  0
    8.3843    0.9433    1.5951 H   0  0  0  0  0  0  0  0  0  0  0  0
    3.8389   -0.5266    1.0763 H   0  0  0  0  0  0  0  0  0  0  0  0
  1  2  1  0
  2  3  1  0
  3  4  1  0
  4  5  1  0
  5  6  1  0
  6  7  2  0
  6  8  1  0
  8  9  1  0
  9 10  1  0
 10 11  1  0
 11 12  1  0
 12 13  1  0
 13 14  1  0
 14 15  2  0
 12 16  1  0
 16 17  2  0
 16 18  1  0
 18 19  1  0
 19 20  1  0
 20 21  1  0
 21 22  1  0
 21 23  2  0
 21 24  2  0
  3 25  1  0
 25 26  2  0
 26 27  1  0
 27 28  2  0
 28 29  1  0
 29 30  1  0
 30 31  1  0
 31 32  1  0
 32 33  1  0
 33 34  1  0
 33 35  1  0
 33 36  1  0
 29 37  2  0
  5  2  1  0
 14  8  1  0
 37 25  1  0
  1 38  1  0
  1 39  1  0
  1 40  1  0
  2 41  1  1
  3 42  1  6
  4 43  1  0
  4 44  1  0
  5 45  1  6
  9 46  1  0
  9 47  1  0
 10 48  1  0
 10 49  1  0
 12 50  1  6
 13 51  1  0
 13 52  1  0
 18 53  1  0
 19 54  1  0
 19 55  1  0
 20 56  1  0
 20 57  1  0
 22 58  1  0
 26 59  1  0
 27 60  1  0
 28 61  1  0
 30 62  1  0
 30 63  1  0
 32 64  1  0
 32 65  1  0
 37 66  1  0
M  END
$$$$
[H]c1sc(-c2c([H])c([H])c(C(F)(F)F)c([H])c2[H])nc1C(=O)N([H])c1sc(C(=O)N([H])[H])c([H])c1F
     RDKit          3D

 36 38  0  0  0  0  0  0  0  0999 V2000
   -8.4659    0.8259   -0.3076 N   0  0  0  0  0  0  0  0  0  0  0  0
   -7.9406   -0.4777   -0.1338 C   0  0  0  0  0  0  0  0  0  0  0  0
   -8.6694   -1.4580   -0.0140 O   0  0  0  0  0  0  0  0  0  0  0  0
   -6.4795   -0.6103   -0.1029 C   0  0  0  0  0  0  0  0  0  0  0  0
   -5.6973   -1.7077   -0.0375 C   0  0  0  0  0  0  0  0  0  0  0  0
   -4.3605   -1.5689   -0.0024 C   0  0  0  0  0  0  0  0  0  0  0  0
   -3.5302   -2.6851    0.0547 F   0  0  0  0  0  0  0  0  0  0  0  0
   -3.8539   -0.3141   -0.0387 C   0  0  0  0  0  0  0  0  0  0  0  0
   -2.5689    0.2766   -0.0177 N   0  0  0  0  0  0  0  0  0  0  0  0
   -1.3168   -0.2881    0.1276 C   0  0  0  0  0  0  0  0  0  0  0  0
   -1.1730   -1.5220    0.2995 O   0  0  0  0  0  0  0  0  0  0  0  0
   -0.0817    0.5691    0.0815 C   0  0  0  0  0  0  0  0  0  0  0  0
   -0.1574    1.9148   -0.2024 C   0  0  0  0  0  0  0  0  0  0  0  0
    1.4935    2.3576   -0.1907 S   0  0  0  0  0  0  0  0  0  0  0  0
    2.1618    0.8385    0.1680 C   0  0  0  0  0  0  0  0  0  0  0  0
    1.0889    0.0602    0.2620 N   0  0  0  0  0  0  0  0  0  0  0  0
    3.5819    0.4394    0.2706 C   0  0  0  0  0  0  0  0  0  0  0  0
    4.0388   -0.7401    0.7184 C   0  0  0  0  0  0  0  0  0  0  0  0
    5.4076   -1.0421    0.6951 C   0  0  0  0  0  0  0  0  0  0  0  0
    6.3300   -0.1384    0.2144 C   0  0  0  0  0  0  0  0  0  0  0  0
    5.8647    1.0907   -0.2488 C   0  0  0  0  0  0  0  0  0  0  0  0
    4.5056    1.3681   -0.2173 C   0  0  0  0  0  0  0  0  0  0  0  0
    7.7642   -0.5029    0.1694 C   0  0  0  0  0  0  0  0  0  0  0  0
    7.9849   -1.7584    0.7061 F   0  0  0  0  0  0  0  0  0  0  0  0
    8.5634    0.4205    0.8075 F   0  0  0  0  0  0  0  0  0  0  0  0
    8.1423   -0.4749   -1.1872 F   0  0  0  0  0  0  0  0  0  0  0  0
   -5.2979    0.6598   -0.1216 S   0  0  0  0  0  0  0  0  0  0  0  0
   -8.9604    1.3142    0.4593 H   0  0  0  0  0  0  0  0  0  0  0  0
   -8.3399    1.2981   -1.2239 H   0  0  0  0  0  0  0  0  0  0  0  0
   -6.2111   -2.7174   -0.0178 H   0  0  0  0  0  0  0  0  0  0  0  0
   -2.5395    1.3647   -0.1417 H   0  0  0  0  0  0  0  0  0  0  0  0
   -1.0474    2.5478   -0.3875 H   0  0  0  0  0  0  0  0  0  0  0  0
    3.3182   -1.4546    1.1009 H   0  0  0  0  0  0  0  0  0  0  0  0
    5.7576   -1.9906    1.0588 H   0  0  0  0  0  0  0  0  0  0  0  0
    6.5794    1.7956   -0.6271 H   0  0  0  0  0  0  0  0  0  0  0  0
    4.1085    2.3097   -0.5735 H   0  0  0  0  0  0  0  0  0  0  0  0
  1  2  1  0
  2  3  2  0
  2  4  1  0
  4  5  2  0
  5  6  1  0
  6  7  1  0
  6  8  2  0
  8  9  1  0
  9 10  1  0
 10 11  2  0
 10 12  1  0
 12 13  2  0
 13 14  1  0
 14 15  1  0
 15 16  2  0
 15 17  1  0
 17 18  2  0
 18 19  1  0
 19 20  2  0
 20 21  1  0
 21 22  2  0
 20 23  1  0
 23 24  1  0
 23 25  1  0
 23 26  1  0
  8 27  1  0
 27  4  1  0
 16 12  1  0
 22 17  1  0
  1 28  1  0
  1 29  1  0
  5 30  1  0
  9 31  1  0
 13 32  1  0
 18 33  1  0
 19 34  1  0
 21 35  1  0
 22 36  1  0
M  END
$$$$
[H]c1c(OC([H])([H])[H])c(Cl)c([H])c(-c2nnc(N3C([H])([H])C([H])([H])N(C(=O)c4c([H])c([H])c(C(F)(F)F)c(C(F)(F)F)c4[H])C([H])([H])C3([H])[H])o2)c1OC(F)(F)F
     RDKit          3D

 57 60  0  0  0  0  0  0  0  0999 V2000
    8.1849    0.7413    4.3168 C   0  0  0  0  0  0  0  0  0  0  0  0
    6.8206    0.7741    4.1579 O   0  0  0  0  0  0  0  0  0  0  0  0
    6.0805    0.5181    3.0574 C   0  0  0  0  0  0  0  0  0  0  0  0
    6.5883    0.1448    1.8396 C   0  0  0  0  0  0  0  0  0  0  0  0
    5.7622   -0.1084    0.7295 C   0  0  0  0  0  0  0  0  0  0  0  0
    6.3402   -0.4866   -0.4684 O   0  0  0  0  0  0  0  0  0  0  0  0
    6.7124   -1.7796   -0.8239 C   0  0  0  0  0  0  0  0  0  0  0  0
    7.7416   -2.2487    0.0092 F   0  0  0  0  0  0  0  0  0  0  0  0
    7.1519   -1.8141   -2.1025 F   0  0  0  0  0  0  0  0  0  0  0  0
    5.6568   -2.6530   -0.6087 F   0  0  0  0  0  0  0  0  0  0  0  0
    4.4107    0.0228    0.8562 C   0  0  0  0  0  0  0  0  0  0  0  0
    3.8823    0.3935    2.0722 C   0  0  0  0  0  0  0  0  0  0  0  0
    4.7057    0.6329    3.1376 C   0  0  0  0  0  0  0  0  0  0  0  0
    4.0210    1.1010    4.6910 Cl  0  0  0  0  0  0  0  0  0  0  0  0
    3.4598   -0.0972   -0.2737 C   0  0  0  0  0  0  0  0  0  0  0  0
    3.6728   -0.1549   -1.5807 N   0  0  0  0  0  0  0  0  0  0  0  0
    2.5388   -0.2509   -2.2304 N   0  0  0  0  0  0  0  0  0  0  0  0
    1.5764   -0.2525   -1.2861 C   0  0  0  0  0  0  0  0  0  0  0  0
    2.1407   -0.1605   -0.1206 O   0  0  0  0  0  0  0  0  0  0  0  0
    0.1986   -0.3392   -1.5989 N   0  0  0  0  0  0  0  0  0  0  0  0
   -0.3653   -0.3141   -2.9206 C   0  0  0  0  0  0  0  0  0  0  0  0
   -1.1338    1.0181   -3.0133 C   0  0  0  0  0  0  0  0  0  0  0  0
   -2.2143    0.8474   -1.9914 N   0  0  0  0  0  0  0  0  0  0  0  0
   -1.6971    0.7442   -0.6560 C   0  0  0  0  0  0  0  0  0  0  0  0
   -0.7775   -0.4639   -0.4970 C   0  0  0  0  0  0  0  0  0  0  0  0
   -3.5483    0.9091   -2.3808 C   0  0  0  0  0  0  0  0  0  0  0  0
   -3.7287    1.2465   -3.6283 O   0  0  0  0  0  0  0  0  0  0  0  0
   -4.7459    0.6588   -1.6054 C   0  0  0  0  0  0  0  0  0  0  0  0
   -5.9708    1.2031   -2.0371 C   0  0  0  0  0  0  0  0  0  0  0  0
   -7.1300    0.9281   -1.3861 C   0  0  0  0  0  0  0  0  0  0  0  0
   -7.1793    0.0884   -0.2499 C   0  0  0  0  0  0  0  0  0  0  0  0
   -6.0099   -0.4508    0.1882 C   0  0  0  0  0  0  0  0  0  0  0  0
   -4.8255   -0.1438   -0.5141 C   0  0  0  0  0  0  0  0  0  0  0  0
   -5.9314   -1.3072    1.3620 C   0  0  0  0  0  0  0  0  0  0  0  0
   -4.5686   -1.7229    1.5159 F   0  0  0  0  0  0  0  0  0  0  0  0
   -6.5863   -2.5216    1.2742 F   0  0  0  0  0  0  0  0  0  0  0  0
   -6.1296   -0.6625    2.5805 F   0  0  0  0  0  0  0  0  0  0  0  0
   -8.4640   -0.1952    0.3677 C   0  0  0  0  0  0  0  0  0  0  0  0
   -9.4480    0.5889   -0.3081 F   0  0  0  0  0  0  0  0  0  0  0  0
   -8.9436   -1.4720    0.0894 F   0  0  0  0  0  0  0  0  0  0  0  0
   -8.6350    0.1925    1.6655 F   0  0  0  0  0  0  0  0  0  0  0  0
    8.4566    0.8089    5.4101 H   0  0  0  0  0  0  0  0  0  0  0  0
    8.7002    1.6343    3.8579 H   0  0  0  0  0  0  0  0  0  0  0  0
    8.6059   -0.1973    3.9071 H   0  0  0  0  0  0  0  0  0  0  0  0
    7.6478    0.0370    1.7089 H   0  0  0  0  0  0  0  0  0  0  0  0
    2.7965    0.5035    2.2060 H   0  0  0  0  0  0  0  0  0  0  0  0
   -1.1787   -1.1006   -2.9368 H   0  0  0  0  0  0  0  0  0  0  0  0
    0.3525   -0.4440   -3.7373 H   0  0  0  0  0  0  0  0  0  0  0  0
   -1.6001    1.1558   -3.9924 H   0  0  0  0  0  0  0  0  0  0  0  0
   -0.5234    1.8774   -2.7598 H   0  0  0  0  0  0  0  0  0  0  0  0
   -2.4058    0.8908    0.1282 H   0  0  0  0  0  0  0  0  0  0  0  0
   -0.9425    1.6263   -0.5598 H   0  0  0  0  0  0  0  0  0  0  0  0
   -1.3170   -1.4153   -0.5428 H   0  0  0  0  0  0  0  0  0  0  0  0
   -0.2805   -0.3695    0.4928 H   0  0  0  0  0  0  0  0  0  0  0  0
   -5.9458    1.8529   -2.9167 H   0  0  0  0  0  0  0  0  0  0  0  0
   -8.0720    1.3608   -1.7244 H   0  0  0  0  0  0  0  0  0  0  0  0
   -3.9072   -0.6367   -0.1694 H   0  0  0  0  0  0  0  0  0  0  0  0
  1  2  1  0
  2  3  1  0
  3  4  2  0
  4  5  1  0
  5  6  1  0
  6  7  1  0
  7  8  1  0
  7  9  1  0
  7 10  1  0
  5 11  2  0
 11 12  1  0
 12 13  2  0
 13 14  1  0
 11 15  1  0
 15 16  2  0
 16 17  1  0
 17 18  2  0
 18 19  1  0
 18 20  1  0
 20 21  1  0
 21 22  1  0
 22 23  1  0
 23 24  1  0
 24 25  1  0
 23 26  1  0
 26 27  2  0
 26 28  1  0
 28 29  2  0
 29 30  1  0
 30 31  2  0
 31 32  1  0
 32 33  2  0
 32 34  1  0
 34 35  1  0
 34 36  1  0
 34 37  1  0
 31 38  1  0
 38 39  1  0
 38 40  1  0
 38 41  1  0
 13  3  1  0
 19 15  1  0
 25 20  1  0
 33 28  1  0
  1 42  1  0
  1 43  1  0
  1 44  1  0
  4 45  1  0
 12 46  1  0
 21 47  1  0
 21 48  1  0
 22 49  1  0
 22 50  1  0
 24 51  1  0
 24 52  1  0
 25 53  1  0
 25 54  1  0
 29 55  1  0
 30 56  1  0
 33 57  1  0
M  END
$$$$
[H]c1nc(S(=O)(=O)N([H])C([H])([H])C([H])(C([H])([H])C([H])([H])C([H])([H])[H])C([H])([H])C([H])([H])C([H])([H])c2c([H])c([H])c([H])c([H])c2[H])c([H])s1
     RDKit          3D

 47 48  0  0  0  0  0  0  0  0999 V2000
    1.3913   -4.2556   -0.7956 C   0  0  0  0  0  0  0  0  0  0  0  0
    1.3699   -2.7828   -0.4483 C   0  0  0  0  0  0  0  0  0  0  0  0
   -0.0211   -2.3909   -0.0388 C   0  0  0  0  0  0  0  0  0  0  0  0
   -0.1378   -0.9321    0.3271 C   0  0  0  0  0  0  0  0  0  0  0  0
    0.2221   -0.0094   -0.7814 C   0  0  0  0  0  0  0  0  0  0  0  0
    0.0959    1.4149   -0.3874 C   0  0  0  0  0  0  0  0  0  0  0  0
    0.9957    1.8610    0.7276 C   0  0  0  0  0  0  0  0  0  0  0  0
    2.4183    1.7321    0.3880 C   0  0  0  0  0  0  0  0  0  0  0  0
    3.1733    0.6313    0.6828 C   0  0  0  0  0  0  0  0  0  0  0  0
    4.5177    0.5562    0.3307 C   0  0  0  0  0  0  0  0  0  0  0  0
    5.0987    1.5999   -0.3218 C   0  0  0  0  0  0  0  0  0  0  0  0
    4.3757    2.7183   -0.6336 C   0  0  0  0  0  0  0  0  0  0  0  0
    3.0540    2.7837   -0.2838 C   0  0  0  0  0  0  0  0  0  0  0  0
   -1.6189   -0.7134    0.6629 C   0  0  0  0  0  0  0  0  0  0  0  0
   -2.4555   -1.0139   -0.4181 N   0  0  0  0  0  0  0  0  0  0  0  0
   -4.1168   -0.8123   -0.1732 S   0  0  0  0  0  0  0  0  0  0  0  0
   -4.5923   -1.5843    1.0515 O   0  0  0  0  0  0  0  0  0  0  0  0
   -4.8514   -1.2592   -1.3921 O   0  0  0  0  0  0  0  0  0  0  0  0
   -4.5294    0.8821    0.2013 C   0  0  0  0  0  0  0  0  0  0  0  0
   -5.3768    1.6026   -0.6013 C   0  0  0  0  0  0  0  0  0  0  0  0
   -5.4140    3.1081    0.2028 S   0  0  0  0  0  0  0  0  0  0  0  0
   -4.3641    2.7365    1.4941 C   0  0  0  0  0  0  0  0  0  0  0  0
   -4.0389    1.4816    1.2449 N   0  0  0  0  0  0  0  0  0  0  0  0
    1.2127   -4.4459   -1.8715 H   0  0  0  0  0  0  0  0  0  0  0  0
    2.4028   -4.7038   -0.5842 H   0  0  0  0  0  0  0  0  0  0  0  0
    0.6718   -4.8494   -0.2043 H   0  0  0  0  0  0  0  0  0  0  0  0
    2.1219   -2.6204    0.3294 H   0  0  0  0  0  0  0  0  0  0  0  0
    1.6167   -2.2267   -1.3783 H   0  0  0  0  0  0  0  0  0  0  0  0
   -0.7115   -2.6483   -0.8662 H   0  0  0  0  0  0  0  0  0  0  0  0
   -0.3081   -2.9885    0.8448 H   0  0  0  0  0  0  0  0  0  0  0  0
    0.4112   -0.7175    1.2582 H   0  0  0  0  0  0  0  0  0  0  0  0
   -0.3924   -0.2330   -1.6799 H   0  0  0  0  0  0  0  0  0  0  0  0
    1.3006   -0.1404   -1.1057 H   0  0  0  0  0  0  0  0  0  0  0  0
   -0.9351    1.7177   -0.1068 H   0  0  0  0  0  0  0  0  0  0  0  0
    0.3011    2.0206   -1.3233 H   0  0  0  0  0  0  0  0  0  0  0  0
    0.7359    2.9085    1.0580 H   0  0  0  0  0  0  0  0  0  0  0  0
    0.7560    1.2363    1.6302 H   0  0  0  0  0  0  0  0  0  0  0  0
    2.7465   -0.2121    1.2054 H   0  0  0  0  0  0  0  0  0  0  0  0
    5.0419   -0.3473    0.5998 H   0  0  0  0  0  0  0  0  0  0  0  0
    6.1458    1.5160   -0.5842 H   0  0  0  0  0  0  0  0  0  0  0  0
    4.8333    3.5673   -1.1599 H   0  0  0  0  0  0  0  0  0  0  0  0
    2.4449    3.6462   -0.5094 H   0  0  0  0  0  0  0  0  0  0  0  0
   -1.7680    0.2662    1.1558 H   0  0  0  0  0  0  0  0  0  0  0  0
   -1.8204   -1.4681    1.4817 H   0  0  0  0  0  0  0  0  0  0  0  0
   -2.1093   -1.2392   -1.3289 H   0  0  0  0  0  0  0  0  0  0  0  0
   -5.8859    1.2653   -1.5221 H   0  0  0  0  0  0  0  0  0  0  0  0
   -4.0080    3.3420    2.3486 H   0  0  0  0  0  0  0  0  0  0  0  0
  1  2  1  0
  2  3  1  0
  3  4  1  0
  4  5  1  0
  5  6  1  0
  6  7  1  0
  7  8  1  0
  8  9  2  0
  9 10  1  0
 10 11  2  0
 11 12  1  0
 12 13  2  0
  4 14  1  0
 14 15  1  0
 15 16  1  0
 16 17  2  0
 16 18  2  0
 16 19  1  0
 19 20  2  0
 20 21  1  0
 21 22  1  0
 22 23  2  0
 13  8  1  0
 23 19  1  0
  1 24  1  0
  1 25  1  0
  1 26  1  0
  2 27  1  0
  2 28  1  0
  3 29  1  0
  3 30  1  0
  4 31  1  0
  5 32  1  0
  5 33  1  0
  6 34  1  0
  6 35  1  0
  7 36  1  0
  7 37  1  0
  9 38  1  0
 10 39  1  0
 11 40  1  0
 12 41  1  0
 13 42  1  0
 14 43  1  0
 14 44  1  0
 15 45  1  0
 20 46  1  0
 22 47  1  0
M  END
$$$$
[H]/C(C(=O)N([H])c1c([H])c([H])c(Cl)c(Cl)c1[H])=C(/[H])c1nc(OC([H])([H])C([H])([H])C([H])([H])Oc2c([H])c([H])c(Oc3c([H])c([H])c([H])c([H])c3[H])c([H])c2OC([H])([H])[H])c(C([H])([H])[H])n1C([H])([H])[H]
     RDKit          3D

 69 72  0  0  0  0  0  0  0  0999 V2000
   -4.1165   -1.7993    2.5536 C   0  0  0  0  0  0  0  0  0  0  0  0
   -3.7453   -0.4597    2.2400 O   0  0  0  0  0  0  0  0  0  0  0  0
   -4.3900    0.1987    1.2228 C   0  0  0  0  0  0  0  0  0  0  0  0
   -5.3979   -0.4166    0.4937 C   0  0  0  0  0  0  0  0  0  0  0  0
   -6.0642    0.2192   -0.5339 C   0  0  0  0  0  0  0  0  0  0  0  0
   -7.0672   -0.3830   -1.2661 O   0  0  0  0  0  0  0  0  0  0  0  0
   -7.4241   -1.6853   -0.9819 C   0  0  0  0  0  0  0  0  0  0  0  0
   -6.7630   -2.7241   -1.6402 C   0  0  0  0  0  0  0  0  0  0  0  0
   -7.0808   -4.0420   -1.3932 C   0  0  0  0  0  0  0  0  0  0  0  0
   -8.0530   -4.3649   -0.4958 C   0  0  0  0  0  0  0  0  0  0  0  0
   -8.7263   -3.3661    0.1723 C   0  0  0  0  0  0  0  0  0  0  0  0
   -8.3899   -2.0429   -0.0919 C   0  0  0  0  0  0  0  0  0  0  0  0
   -5.7243    1.5197   -0.8598 C   0  0  0  0  0  0  0  0  0  0  0  0
   -4.7267    2.1414   -0.1450 C   0  0  0  0  0  0  0  0  0  0  0  0
   -4.0665    1.4951    0.8816 C   0  0  0  0  0  0  0  0  0  0  0  0
   -3.0657    2.1530    1.5795 O   0  0  0  0  0  0  0  0  0  0  0  0
   -2.7358    3.4751    1.2276 C   0  0  0  0  0  0  0  0  0  0  0  0
   -1.6396    4.0743    2.0441 C   0  0  0  0  0  0  0  0  0  0  0  0
   -0.3414    3.2629    1.9163 C   0  0  0  0  0  0  0  0  0  0  0  0
   -0.0143    3.2742    0.5640 O   0  0  0  0  0  0  0  0  0  0  0  0
    1.0926    2.6548    0.0022 C   0  0  0  0  0  0  0  0  0  0  0  0
    1.9885    1.9691    0.6953 N   0  0  0  0  0  0  0  0  0  0  0  0
    2.9632    1.4780   -0.1361 C   0  0  0  0  0  0  0  0  0  0  0  0
    4.0836    0.6808    0.3356 C   0  0  0  0  0  0  0  0  0  0  0  0
    5.0589    0.1725   -0.3649 C   0  0  0  0  0  0  0  0  0  0  0  0
    6.1333   -0.6240    0.2749 C   0  0  0  0  0  0  0  0  0  0  0  0
    6.0658   -0.7844    1.4932 O   0  0  0  0  0  0  0  0  0  0  0  0
    7.1537   -1.1450   -0.5263 N   0  0  0  0  0  0  0  0  0  0  0  0
    8.2604   -1.9307   -0.1109 C   0  0  0  0  0  0  0  0  0  0  0  0
    9.2970   -2.1410   -1.0366 C   0  0  0  0  0  0  0  0  0  0  0  0
   10.3868   -2.8902   -0.7283 C   0  0  0  0  0  0  0  0  0  0  0  0
   10.5201   -3.4763    0.5090 C   0  0  0  0  0  0  0  0  0  0  0  0
   11.9225   -4.4423    0.9109 Cl  0  0  0  0  0  0  0  0  0  0  0  0
    9.5260   -3.2805    1.4101 C   0  0  0  0  0  0  0  0  0  0  0  0
    9.6732   -4.0150    2.9884 Cl  0  0  0  0  0  0  0  0  0  0  0  0
    8.4071   -2.5189    1.1113 C   0  0  0  0  0  0  0  0  0  0  0  0
    2.6253    1.8921   -1.3614 N   0  0  0  0  0  0  0  0  0  0  0  0
    3.3252    1.6436   -2.6096 C   0  0  0  0  0  0  0  0  0  0  0  0
    1.4920    2.6084   -1.2977 C   0  0  0  0  0  0  0  0  0  0  0  0
    0.7564    3.2635   -2.4333 C   0  0  0  0  0  0  0  0  0  0  0  0
   -3.4031   -2.2720    3.2569 H   0  0  0  0  0  0  0  0  0  0  0  0
   -4.0505   -2.4013    1.6146 H   0  0  0  0  0  0  0  0  0  0  0  0
   -5.1531   -1.8519    2.9279 H   0  0  0  0  0  0  0  0  0  0  0  0
   -5.6734   -1.4256    0.7346 H   0  0  0  0  0  0  0  0  0  0  0  0
   -5.9930   -2.4565   -2.3506 H   0  0  0  0  0  0  0  0  0  0  0  0
   -6.5626   -4.8366   -1.9076 H   0  0  0  0  0  0  0  0  0  0  0  0
   -8.3241   -5.3877   -0.2816 H   0  0  0  0  0  0  0  0  0  0  0  0
   -9.4944   -3.6430    0.8804 H   0  0  0  0  0  0  0  0  0  0  0  0
   -8.9206   -1.2781    0.4338 H   0  0  0  0  0  0  0  0  0  0  0  0
   -6.2373    2.0202   -1.6572 H   0  0  0  0  0  0  0  0  0  0  0  0
   -4.4505    3.1696   -0.3952 H   0  0  0  0  0  0  0  0  0  0  0  0
   -3.6183    4.1380    1.3073 H   0  0  0  0  0  0  0  0  0  0  0  0
   -2.4356    3.5261    0.1400 H   0  0  0  0  0  0  0  0  0  0  0  0
   -1.9580    4.1476    3.1073 H   0  0  0  0  0  0  0  0  0  0  0  0
   -1.4763    5.1076    1.6790 H   0  0  0  0  0  0  0  0  0  0  0  0
    0.4242    3.8336    2.5144 H   0  0  0  0  0  0  0  0  0  0  0  0
   -0.4359    2.2800    2.3679 H   0  0  0  0  0  0  0  0  0  0  0  0
    4.1112    0.4836    1.4129 H   0  0  0  0  0  0  0  0  0  0  0  0
    5.1166    0.3110   -1.4063 H   0  0  0  0  0  0  0  0  0  0  0  0
    7.1143   -0.9433   -1.5892 H   0  0  0  0  0  0  0  0  0  0  0  0
    9.2340   -1.6912   -2.0357 H   0  0  0  0  0  0  0  0  0  0  0  0
   11.2080   -3.0681   -1.4358 H   0  0  0  0  0  0  0  0  0  0  0  0
    7.6306   -2.3944    1.8604 H   0  0  0  0  0  0  0  0  0  0  0  0
    2.7060    2.0957   -3.4400 H   0  0  0  0  0  0  0  0  0  0  0  0
    3.3375    0.5564   -2.8879 H   0  0  0  0  0  0  0  0  0  0  0  0
    4.3050    2.1183   -2.6431 H   0  0  0  0  0  0  0  0  0  0  0  0
    1.4461    3.8369   -3.0777 H   0  0  0  0  0  0  0  0  0  0  0  0
    0.3555    2.4337   -3.0417 H   0  0  0  0  0  0  0  0  0  0  0  0
   -0.0014    3.9474   -2.0547 H   0  0  0  0  0  0  0  0  0  0  0  0
  1  2  1  0
  2  3  1  0
  3  4  2  0
  4  5  1  0
  5  6  1  0
  6  7  1  0
  7  8  2  0
  8  9  1  0
  9 10  2  0
 10 11  1  0
 11 12  2  0
  5 13  2  0
 13 14  1  0
 14 15  2  0
 15 16  1  0
 16 17  1  0
 17 18  1  0
 18 19  1  0
 19 20  1  0
 20 21  1  0
 21 22  1  0
 22 23  2  0
 23 24  1  0
 24 25  2  0
 25 26  1  0
 26 27  2  0
 26 28  1  0
 28 29  1  0
 29 30  2  0
 30 31  1  0
 31 32  2  0
 32 33  1  0
 32 34  1  0
 34 35  1  0
 34 36  2  0
 23 37  1  0
 37 38  1  0
 37 39  1  0
 39 40  1  0
 15  3  1  0
 39 21  2  0
 12  7  1  0
 36 29  1  0
  1 41  1  0
  1 42  1  0
  1 43  1  0
  4 44  1  0
  8 45  1  0
  9 46  1  0
 10 47  1  0
 11 48  1  0
 12 49  1  0
 13 50  1  0
 14 51  1  0
 17 52  1  0
 17 53  1  0
 18 54  1  0
 18 55  1  0
 19 56  1  0
 19 57  1  0
 24 58  1  0
 25 59  1  0
 28 60  1  0
 30 61  1  0
 31 62  1  0
 36 63  1  0
 38 64  1  0
 38 65  1  0
 38 66  1  0
 40 67  1  0
 40 68  1  0
 40 69  1  0
M  END
$$$$
[H]c1nc2c([H])c(OC([H])([H])C([H])([H])C([H])([H])N3C([H])([H])C([H])([H])OC([H])([H])C3([H])[H])c(F)c([H])c2c(N([H])c2nc(-c3c([H])c([H])c([H])c(OC4([H])C([H])([H])C4([H])[H])c3[H])nn2[H])c1[H]
     RDKit          3D

 66 71  0  0  0  0  0  0  0  0999 V2000
   -3.2255   -2.3648    0.4868 F   0  0  0  0  0  0  0  0  0  0  0  0
   -2.6671   -1.1619    0.6928 C   0  0  0  0  0  0  0  0  0  0  0  0
   -1.2992   -0.9917    0.5338 C   0  0  0  0  0  0  0  0  0  0  0  0
   -0.6710    0.2091    0.7299 C   0  0  0  0  0  0  0  0  0  0  0  0
    0.7145    0.3899    0.5749 C   0  0  0  0  0  0  0  0  0  0  0  0
    1.5065   -0.7170    0.1856 N   0  0  0  0  0  0  0  0  0  0  0  0
    2.9084   -0.7182    0.0552 C   0  0  0  0  0  0  0  0  0  0  0  0
    3.6378   -1.8267   -0.3151 N   0  0  0  0  0  0  0  0  0  0  0  0
    4.9214   -1.5434   -0.3459 N   0  0  0  0  0  0  0  0  0  0  0  0
    5.0808   -0.2380    0.0032 C   0  0  0  0  0  0  0  0  0  0  0  0
    3.8453    0.2130    0.2337 N   0  0  0  0  0  0  0  0  0  0  0  0
    6.3262    0.5053    0.1142 C   0  0  0  0  0  0  0  0  0  0  0  0
    6.3799    1.8243    0.4551 C   0  0  0  0  0  0  0  0  0  0  0  0
    7.5611    2.5057    0.5699 C   0  0  0  0  0  0  0  0  0  0  0  0
    8.7360    1.8390    0.3338 C   0  0  0  0  0  0  0  0  0  0  0  0
    8.7250    0.4815   -0.0196 C   0  0  0  0  0  0  0  0  0  0  0  0
    9.9231   -0.1271   -0.2388 O   0  0  0  0  0  0  0  0  0  0  0  0
   10.1180   -1.4464   -0.6074 C   0  0  0  0  0  0  0  0  0  0  0  0
   11.0954   -2.2360    0.2641 C   0  0  0  0  0  0  0  0  0  0  0  0
   11.4303   -1.9134   -1.1233 C   0  0  0  0  0  0  0  0  0  0  0  0
    7.5253   -0.1683   -0.1257 C   0  0  0  0  0  0  0  0  0  0  0  0
    1.2480    1.6334    0.7995 C   0  0  0  0  0  0  0  0  0  0  0  0
    0.3863    2.6725    1.1746 C   0  0  0  0  0  0  0  0  0  0  0  0
   -0.9290    2.4580    1.3116 N   0  0  0  0  0  0  0  0  0  0  0  0
   -1.4834    1.2554    1.1000 C   0  0  0  0  0  0  0  0  0  0  0  0
   -2.8609    1.0953    1.2637 C   0  0  0  0  0  0  0  0  0  0  0  0
   -3.5015   -0.0991    1.0697 C   0  0  0  0  0  0  0  0  0  0  0  0
   -4.8394   -0.3396    1.2122 O   0  0  0  0  0  0  0  0  0  0  0  0
   -5.8640    0.5280    1.5401 C   0  0  0  0  0  0  0  0  0  0  0  0
   -6.1124    1.5568    0.4950 C   0  0  0  0  0  0  0  0  0  0  0  0
   -6.5122    0.9017   -0.8032 C   0  0  0  0  0  0  0  0  0  0  0  0
   -7.6628    0.1598   -0.8765 N   0  0  0  0  0  0  0  0  0  0  0  0
   -7.9054   -1.0696   -0.2806 C   0  0  0  0  0  0  0  0  0  0  0  0
   -8.8815   -1.9400   -1.0957 C   0  0  0  0  0  0  0  0  0  0  0  0
  -10.0619   -1.2047   -1.1384 O   0  0  0  0  0  0  0  0  0  0  0  0
   -9.8430   -0.1059   -1.9630 C   0  0  0  0  0  0  0  0  0  0  0  0
   -8.7803    0.8346   -1.4310 C   0  0  0  0  0  0  0  0  0  0  0  0
   -0.7067   -1.8605    0.2419 H   0  0  0  0  0  0  0  0  0  0  0  0
    1.0309   -1.6510   -0.0433 H   0  0  0  0  0  0  0  0  0  0  0  0
    3.2776   -2.7680   -0.5459 H   0  0  0  0  0  0  0  0  0  0  0  0
    5.4738    2.3650    0.6446 H   0  0  0  0  0  0  0  0  0  0  0  0
    7.5838    3.5542    0.8416 H   0  0  0  0  0  0  0  0  0  0  0  0
    9.6703    2.3354    0.4140 H   0  0  0  0  0  0  0  0  0  0  0  0
    9.1805   -2.0121   -0.8938 H   0  0  0  0  0  0  0  0  0  0  0  0
   10.7841   -3.2467    0.5504 H   0  0  0  0  0  0  0  0  0  0  0  0
   11.6028   -1.6696    1.0803 H   0  0  0  0  0  0  0  0  0  0  0  0
   12.1742   -1.1042   -1.3328 H   0  0  0  0  0  0  0  0  0  0  0  0
   11.5305   -2.7716   -1.8136 H   0  0  0  0  0  0  0  0  0  0  0  0
    7.4580   -1.2179   -0.3950 H   0  0  0  0  0  0  0  0  0  0  0  0
    2.2812    1.8386    0.6961 H   0  0  0  0  0  0  0  0  0  0  0  0
    0.8539    3.6310    1.3396 H   0  0  0  0  0  0  0  0  0  0  0  0
   -3.4212    1.9668    1.5885 H   0  0  0  0  0  0  0  0  0  0  0  0
   -5.5260    1.1185    2.4753 H   0  0  0  0  0  0  0  0  0  0  0  0
   -6.7669    0.0136    1.9276 H   0  0  0  0  0  0  0  0  0  0  0  0
   -6.8856    2.3087    0.8140 H   0  0  0  0  0  0  0  0  0  0  0  0
   -5.2080    2.1575    0.3300 H   0  0  0  0  0  0  0  0  0  0  0  0
   -5.6141    0.3361   -1.2283 H   0  0  0  0  0  0  0  0  0  0  0  0
   -6.5937    1.7587   -1.5523 H   0  0  0  0  0  0  0  0  0  0  0  0
   -8.4927   -0.9026    0.6775 H   0  0  0  0  0  0  0  0  0  0  0  0
   -7.0402   -1.6665   -0.0136 H   0  0  0  0  0  0  0  0  0  0  0  0
   -8.5272   -2.0607   -2.1393 H   0  0  0  0  0  0  0  0  0  0  0  0
   -8.9730   -2.8869   -0.5633 H   0  0  0  0  0  0  0  0  0  0  0  0
   -9.5850   -0.4279   -2.9961 H   0  0  0  0  0  0  0  0  0  0  0  0
  -10.7898    0.4684   -1.9861 H   0  0  0  0  0  0  0  0  0  0  0  0
   -8.4784    1.4887   -2.2726 H   0  0  0  0  0  0  0  0  0  0  0  0
   -9.2617    1.5000   -0.6802 H   0  0  0  0  0  0  0  0  0  0  0  0
  1  2  1  0
  2  3  2  0
  3  4  1  0
  4  5  2  0
  5  6  1  0
  6  7  1  0
  7  8  1  0
  8  9  1  0
  9 10  2  0
 10 11  1  0
 10 12  1  0
 12 13  2  0
 13 14  1  0
 14 15  2  0
 15 16  1  0
 16 17  1  0
 17 18  1  0
 18 19  1  0
 19 20  1  0
 16 21  2  0
  5 22  1  0
 22 23  2  0
 23 24  1  0
 24 25  2  0
 25 26  1  0
 26 27  2  0
 27 28  1  0
 28 29  1  0
 29 30  1  0
 30 31  1  0
 31 32  1  0
 32 33  1  0
 33 34  1  0
 34 35  1  0
 35 36  1  0
 36 37  1  0
 27  2  1  0
 37 32  1  0
 25  4  1  0
 11  7  2  0
 21 12  1  0
 20 18  1  0
  3 38  1  0
  6 39  1  0
  8 40  1  0
 13 41  1  0
 14 42  1  0
 15 43  1  0
 18 44  1  0
 19 45  1  0
 19 46  1  0
 20 47  1  0
 20 48  1  0
 21 49  1  0
 22 50  1  0
 23 51  1  0
 26 52  1  0
 29 53  1  0
 29 54  1  0
 30 55  1  0
 30 56  1  0
 31 57  1  0
 31 58  1  0
 33 59  1  0
 33 60  1  0
 34 61  1  0
 34 62  1  0
 36 63  1  0
 36 64  1  0
 37 65  1  0
 37 66  1  0
M  END
$$$$
[H]c1c([H])c(OC([H])([H])c2c(C(=O)N([H])[H])c([H])c3nc([H])n(C([H])([H])C([H])([H])[H])c3c2[H])c([H])c(-c2c([H])c([H])c(C(F)(F)F)c([H])c2[H])c1[H]
     RDKit          3D

 52 55  0  0  0  0  0  0  0  0999 V2000
   -4.9946    3.9686   -0.1368 C   0  0  0  0  0  0  0  0  0  0  0  0
   -4.8629    2.9510   -1.2363 C   0  0  0  0  0  0  0  0  0  0  0  0
   -5.3458    1.6995   -0.6875 N   0  0  0  0  0  0  0  0  0  0  0  0
   -6.6643    1.4668   -0.4483 C   0  0  0  0  0  0  0  0  0  0  0  0
   -6.7619    0.2308    0.0151 N   0  0  0  0  0  0  0  0  0  0  0  0
   -5.5347   -0.3365    0.0774 C   0  0  0  0  0  0  0  0  0  0  0  0
   -5.0406   -1.5735    0.4339 C   0  0  0  0  0  0  0  0  0  0  0  0
   -3.7193   -1.8704    0.3657 C   0  0  0  0  0  0  0  0  0  0  0  0
   -3.1603   -3.1504    0.7588 C   0  0  0  0  0  0  0  0  0  0  0  0
   -3.1850   -4.2966   -0.0405 N   0  0  0  0  0  0  0  0  0  0  0  0
   -2.6119   -3.2546    1.9020 O   0  0  0  0  0  0  0  0  0  0  0  0
   -2.7744   -0.9170   -0.0758 C   0  0  0  0  0  0  0  0  0  0  0  0
   -1.3896   -1.3714   -0.2466 C   0  0  0  0  0  0  0  0  0  0  0  0
   -0.3893   -0.3670   -0.2233 O   0  0  0  0  0  0  0  0  0  0  0  0
    0.9007   -0.9269   -0.3971 C   0  0  0  0  0  0  0  0  0  0  0  0
    1.0543   -2.2541   -0.7399 C   0  0  0  0  0  0  0  0  0  0  0  0
    2.3439   -2.7841   -0.8898 C   0  0  0  0  0  0  0  0  0  0  0  0
    3.3948   -1.9548   -0.6777 C   0  0  0  0  0  0  0  0  0  0  0  0
    3.2475   -0.5895   -0.3130 C   0  0  0  0  0  0  0  0  0  0  0  0
    1.9882   -0.1112   -0.1886 C   0  0  0  0  0  0  0  0  0  0  0  0
    4.4875    0.1350   -0.0736 C   0  0  0  0  0  0  0  0  0  0  0  0
    4.7065    1.0348    0.9159 C   0  0  0  0  0  0  0  0  0  0  0  0
    5.9399    1.6960    1.0093 C   0  0  0  0  0  0  0  0  0  0  0  0
    6.9400    1.4433    0.0977 C   0  0  0  0  0  0  0  0  0  0  0  0
    6.6979    0.5206   -0.9134 C   0  0  0  0  0  0  0  0  0  0  0  0
    5.5008   -0.1125   -0.9882 C   0  0  0  0  0  0  0  0  0  0  0  0
    8.2917    2.0496    0.1237 C   0  0  0  0  0  0  0  0  0  0  0  0
    9.2157    1.0427   -0.2209 F   0  0  0  0  0  0  0  0  0  0  0  0
    8.5696    2.4484    1.3949 F   0  0  0  0  0  0  0  0  0  0  0  0
    8.3910    3.0075   -0.8314 F   0  0  0  0  0  0  0  0  0  0  0  0
   -3.2643    0.3058   -0.4326 C   0  0  0  0  0  0  0  0  0  0  0  0
   -4.6072    0.6029   -0.3694 C   0  0  0  0  0  0  0  0  0  0  0  0
   -5.9498    3.7077    0.4502 H   0  0  0  0  0  0  0  0  0  0  0  0
   -5.2014    4.9923   -0.5776 H   0  0  0  0  0  0  0  0  0  0  0  0
   -4.1846    3.9683    0.5885 H   0  0  0  0  0  0  0  0  0  0  0  0
   -5.2851    3.2379   -2.1956 H   0  0  0  0  0  0  0  0  0  0  0  0
   -3.7590    2.8390   -1.4211 H   0  0  0  0  0  0  0  0  0  0  0  0
   -7.4605    2.2278   -0.5879 H   0  0  0  0  0  0  0  0  0  0  0  0
   -5.7628   -2.3153    0.7912 H   0  0  0  0  0  0  0  0  0  0  0  0
   -4.0658   -4.6734   -0.4530 H   0  0  0  0  0  0  0  0  0  0  0  0
   -2.2989   -4.8321   -0.2475 H   0  0  0  0  0  0  0  0  0  0  0  0
   -1.1661   -2.2201    0.4014 H   0  0  0  0  0  0  0  0  0  0  0  0
   -1.3594   -1.7521   -1.3660 H   0  0  0  0  0  0  0  0  0  0  0  0
    0.2092   -2.8808   -0.8712 H   0  0  0  0  0  0  0  0  0  0  0  0
    2.4657   -3.7998   -1.1581 H   0  0  0  0  0  0  0  0  0  0  0  0
    4.4204   -2.2971   -0.7793 H   0  0  0  0  0  0  0  0  0  0  0  0
    1.8230    0.9459    0.0769 H   0  0  0  0  0  0  0  0  0  0  0  0
    3.9185    1.1998    1.6428 H   0  0  0  0  0  0  0  0  0  0  0  0
    6.1065    2.3828    1.8064 H   0  0  0  0  0  0  0  0  0  0  0  0
    7.4461    0.3099   -1.6661 H   0  0  0  0  0  0  0  0  0  0  0  0
    5.3130   -0.8351   -1.7913 H   0  0  0  0  0  0  0  0  0  0  0  0
   -2.5730    1.0615   -0.8017 H   0  0  0  0  0  0  0  0  0  0  0  0
  1  2  1  0
  2  3  1  0
  3  4  1  0
  4  5  2  0
  5  6  1  0
  6  7  2  0
  7  8  1  0
  8  9  1  0
  9 10  1  0
  9 11  2  0
  8 12  2  0
 12 13  1  0
 13 14  1  0
 14 15  1  0
 15 16  2  0
 16 17  1  0
 17 18  2  0
 18 19  1  0
 19 20  2  0
 19 21  1  0
 21 22  2  0
 22 23  1  0
 23 24  2  0
 24 25  1  0
 25 26  2  0
 24 27  1  0
 27 28  1  0
 27 29  1  0
 27 30  1  0
 12 31  1  0
 31 32  2  0
 32  3  1  0
 32  6  1  0
 20 15  1  0
 26 21  1  0
  1 33  1  0
  1 34  1  0
  1 35  1  0
  2 36  1  0
  2 37  1  0
  4 38  1  0
  7 39  1  0
 10 40  1  0
 10 41  1  0
 13 42  1  0
 13 43  1  0
 16 44  1  0
 17 45  1  0
 18 46  1  0
 20 47  1  0
 22 48  1  0
 23 49  1  0
 25 50  1  0
 26 51  1  0
 31 52  1  0
M  END
$$$$
[H]Oc1nc([H])c([H])c([H])c1C([H])([H])OC1=c2c([H])c(-c3c([H])c([H])c(S(=O)(=O)C([H])([H])[H])c([H])c3[H])oc2=C1Cl
     RDKit          3D

 41 44  0  0  0  0  0  0  0  0999 V2000
    7.6206   -0.0218   -1.5238 C   0  0  0  0  0  0  0  0  0  0  0  0
    6.9689   -0.6296    0.0164 S   0  0  0  0  0  0  0  0  0  0  0  0
    7.1172   -2.1228    0.1080 O   0  0  0  0  0  0  0  0  0  0  0  0
    7.7903    0.0125    1.1170 O   0  0  0  0  0  0  0  0  0  0  0  0
    5.2956   -0.1593    0.1576 C   0  0  0  0  0  0  0  0  0  0  0  0
    4.9630    1.0386    0.7524 C   0  0  0  0  0  0  0  0  0  0  0  0
    3.6139    1.3485    0.8306 C   0  0  0  0  0  0  0  0  0  0  0  0
    2.6322    0.5155    0.3444 C   0  0  0  0  0  0  0  0  0  0  0  0
    2.9975   -0.6627   -0.2383 C   0  0  0  0  0  0  0  0  0  0  0  0
    4.3335   -1.0237   -0.3436 C   0  0  0  0  0  0  0  0  0  0  0  0
    1.2129    0.9097    0.4618 C   0  0  0  0  0  0  0  0  0  0  0  0
    0.1108    0.2051    0.0342 C   0  0  0  0  0  0  0  0  0  0  0  0
   -1.0316    0.9173    0.3313 C   0  0  0  0  0  0  0  0  0  0  0  0
   -2.2891    1.3497    0.4780 C   0  0  0  0  0  0  0  0  0  0  0  0
   -3.5000    0.8129    0.1299 O   0  0  0  0  0  0  0  0  0  0  0  0
   -3.9146   -0.4971    0.3521 C   0  0  0  0  0  0  0  0  0  0  0  0
   -5.2880   -0.6881   -0.1694 C   0  0  0  0  0  0  0  0  0  0  0  0
   -5.9324    0.3703   -0.7620 C   0  0  0  0  0  0  0  0  0  0  0  0
   -7.2095    0.1778   -1.2425 C   0  0  0  0  0  0  0  0  0  0  0  0
   -7.8004   -1.0468   -1.1206 C   0  0  0  0  0  0  0  0  0  0  0  0
   -7.1634   -2.0613   -0.5443 N   0  0  0  0  0  0  0  0  0  0  0  0
   -5.9262   -1.9109   -0.0680 C   0  0  0  0  0  0  0  0  0  0  0  0
   -5.2906   -3.0087    0.5329 O   0  0  0  0  0  0  0  0  0  0  0  0
   -1.7773    2.5487    1.1240 C   0  0  0  0  0  0  0  0  0  0  0  0
   -2.4956    3.9792    1.8152 Cl  0  0  0  0  0  0  0  0  0  0  0  0
   -0.5568    2.0733    0.9531 C   0  0  0  0  0  0  0  0  0  0  0  0
    0.7562    2.0125    1.0005 O   0  0  0  0  0  0  0  0  0  0  0  0
    7.5549    1.0762   -1.5179 H   0  0  0  0  0  0  0  0  0  0  0  0
    7.0624   -0.4740   -2.3791 H   0  0  0  0  0  0  0  0  0  0  0  0
    8.6742   -0.3857   -1.5860 H   0  0  0  0  0  0  0  0  0  0  0  0
    5.7199    1.7062    1.1403 H   0  0  0  0  0  0  0  0  0  0  0  0
    3.3129    2.2892    1.2954 H   0  0  0  0  0  0  0  0  0  0  0  0
    2.2281   -1.3163   -0.6197 H   0  0  0  0  0  0  0  0  0  0  0  0
    4.6440   -1.9587   -0.8048 H   0  0  0  0  0  0  0  0  0  0  0  0
    0.1525   -0.7568   -0.4570 H   0  0  0  0  0  0  0  0  0  0  0  0
   -3.2091   -1.2546   -0.0553 H   0  0  0  0  0  0  0  0  0  0  0  0
   -3.9156   -0.6740    1.4642 H   0  0  0  0  0  0  0  0  0  0  0  0
   -5.5026    1.3549   -0.8792 H   0  0  0  0  0  0  0  0  0  0  0  0
   -7.7280    1.0237   -1.7176 H   0  0  0  0  0  0  0  0  0  0  0  0
   -8.8100   -1.1492   -1.5154 H   0  0  0  0  0  0  0  0  0  0  0  0
   -5.4210   -3.9196    0.0872 H   0  0  0  0  0  0  0  0  0  0  0  0
  1  2  1  0
  2  3  2  0
  2  4  2  0
  2  5  1  0
  5  6  2  0
  6  7  1  0
  7  8  2  0
  8  9  1  0
  9 10  2  0
  8 11  1  0
 11 12  2  0
 12 13  1  0
 13 14  2  0
 14 15  1  0
 15 16  1  0
 16 17  1  0
 17 18  2  0
 18 19  1  0
 19 20  2  0
 20 21  1  0
 21 22  2  0
 22 23  1  0
 14 24  1  0
 24 25  1  0
 24 26  2  0
 26 27  1  0
 10  5  1  0
 27 11  1  0
 26 13  1  0
 22 17  1  0
  1 28  1  0
  1 29  1  0
  1 30  1  0
  6 31  1  0
  7 32  1  0
  9 33  1  0
 10 34  1  0
 12 35  1  0
 16 36  1  0
 16 37  1  0
 18 38  1  0
 19 39  1  0
 20 40  1  0
 23 41  1  0
M  END
$$$$
[H]Oc1c([H])c(OC([H])([H])c2c([H])c([H])c([H])c([H])c2OC([H])([H])[H])c([H])c([H])c1N([H])C(=O)OC([H])([H])c1c([H])c([H])c([H])c(C([H])([H])[H])c1[H]
     RDKit          3D

 52 54  0  0  0  0  0  0  0  0999 V2000
   -6.3943   -2.1092   -0.9632 C   0  0  0  0  0  0  0  0  0  0  0  0
   -6.6972   -0.7989   -0.5714 O   0  0  0  0  0  0  0  0  0  0  0  0
   -6.9869    0.2853   -0.2484 C   0  0  0  0  0  0  0  0  0  0  0  0
   -8.1914    0.9346   -0.0706 C   0  0  0  0  0  0  0  0  0  0  0  0
   -8.4494    2.1883    0.3216 C   0  0  0  0  0  0  0  0  0  0  0  0
   -7.3472    2.9815    0.5945 C   0  0  0  0  0  0  0  0  0  0  0  0
   -6.0948    2.4848    0.4517 C   0  0  0  0  0  0  0  0  0  0  0  0
   -5.8442    1.2076    0.0476 C   0  0  0  0  0  0  0  0  0  0  0  0
   -4.5222    0.6465   -0.0799 C   0  0  0  0  0  0  0  0  0  0  0  0
   -3.4561    1.3744    0.3859 O   0  0  0  0  0  0  0  0  0  0  0  0
   -2.1246    0.9136    0.2555 C   0  0  0  0  0  0  0  0  0  0  0  0
   -1.6928   -0.1691   -0.4331 C   0  0  0  0  0  0  0  0  0  0  0  0
   -0.3605   -0.5806   -0.4103 C   0  0  0  0  0  0  0  0  0  0  0  0
    0.5194    0.1784    0.3551 C   0  0  0  0  0  0  0  0  0  0  0  0
    1.8625   -0.3610    0.4519 N   0  0  0  0  0  0  0  0  0  0  0  0
    2.6032   -0.7369   -0.6664 C   0  0  0  0  0  0  0  0  0  0  0  0
    1.6879   -0.4895   -1.7614 O   0  0  0  0  0  0  0  0  0  0  0  0
    3.6201   -1.1536   -1.1951 O   0  0  0  0  0  0  0  0  0  0  0  0
    4.6126   -1.5984   -1.9336 C   0  0  0  0  0  0  0  0  0  0  0  0
    5.8517   -1.5955   -1.0422 C   0  0  0  0  0  0  0  0  0  0  0  0
    6.2541   -2.6479   -0.3244 C   0  0  0  0  0  0  0  0  0  0  0  0
    7.3732   -2.5531    0.5126 C   0  0  0  0  0  0  0  0  0  0  0  0
    8.0840   -1.3492    0.6104 C   0  0  0  0  0  0  0  0  0  0  0  0
    7.6846   -0.2575   -0.1308 C   0  0  0  0  0  0  0  0  0  0  0  0
    8.3878    1.0488   -0.0091 C   0  0  0  0  0  0  0  0  0  0  0  0
    6.5804   -0.4087   -0.9510 C   0  0  0  0  0  0  0  0  0  0  0  0
    0.1352    1.2476    1.0245 C   0  0  0  0  0  0  0  0  0  0  0  0
    0.9613    2.0355    1.7961 O   0  0  0  0  0  0  0  0  0  0  0  0
   -1.2445    1.6952    1.0270 C   0  0  0  0  0  0  0  0  0  0  0  0
   -6.6509   -2.7536   -0.0185 H   0  0  0  0  0  0  0  0  0  0  0  0
   -5.3405   -2.2587   -1.1187 H   0  0  0  0  0  0  0  0  0  0  0  0
   -7.0278   -2.5445   -1.7438 H   0  0  0  0  0  0  0  0  0  0  0  0
   -9.0886    0.2923   -0.2285 H   0  0  0  0  0  0  0  0  0  0  0  0
   -9.4497    2.6113    0.4953 H   0  0  0  0  0  0  0  0  0  0  0  0
   -7.5087    4.0061    0.9649 H   0  0  0  0  0  0  0  0  0  0  0  0
   -5.2534    3.1762    0.7090 H   0  0  0  0  0  0  0  0  0  0  0  0
   -4.5469   -0.1821    0.8537 H   0  0  0  0  0  0  0  0  0  0  0  0
   -4.3210   -0.0656   -0.9228 H   0  0  0  0  0  0  0  0  0  0  0  0
   -2.4247   -0.7637   -1.0350 H   0  0  0  0  0  0  0  0  0  0  0  0
   -0.1293   -1.4368   -0.9448 H   0  0  0  0  0  0  0  0  0  0  0  0
    2.3018   -0.5500    1.4014 H   0  0  0  0  0  0  0  0  0  0  0  0
    4.8538   -0.9650   -2.8380 H   0  0  0  0  0  0  0  0  0  0  0  0
    4.5433   -2.6685   -2.3019 H   0  0  0  0  0  0  0  0  0  0  0  0
    5.6873   -3.6024   -0.3731 H   0  0  0  0  0  0  0  0  0  0  0  0
    7.7005   -3.3876    1.0922 H   0  0  0  0  0  0  0  0  0  0  0  0
    8.9412   -1.2509    1.3140 H   0  0  0  0  0  0  0  0  0  0  0  0
    9.4807    1.0188   -0.2017 H   0  0  0  0  0  0  0  0  0  0  0  0
    7.8806    1.6956   -0.7638 H   0  0  0  0  0  0  0  0  0  0  0  0
    8.1214    1.4582    0.9843 H   0  0  0  0  0  0  0  0  0  0  0  0
    6.2884    0.3804   -1.5580 H   0  0  0  0  0  0  0  0  0  0  0  0
    0.6594    2.8299    2.3495 H   0  0  0  0  0  0  0  0  0  0  0  0
   -1.5291    2.5477    1.5454 H   0  0  0  0  0  0  0  0  0  0  0  0
  1  2  1  0
  2  3  1  0
  3  4  2  0
  4  5  1  0
  5  6  2  0
  6  7  1  0
  7  8  2  0
  8  9  1  0
  9 10  1  0
 10 11  1  0
 11 12  2  0
 12 13  1  0
 13 14  2  0
 14 15  1  0
 15 16  1  0
 16 17  2  0
 16 18  1  0
 18 19  1  0
 19 20  1  0
 20 21  2  0
 21 22  1  0
 22 23  2  0
 23 24  1  0
 24 25  1  0
 24 26  2  0
 14 27  1  0
 27 28  1  0
 27 29  2  0
  8  3  1  0
 29 11  1  0
 26 20  1  0
  1 30  1  0
  1 31  1  0
  1 32  1  0
  4 33  1  0
  5 34  1  0
  6 35  1  0
  7 36  1  0
  9 37  1  0
  9 38  1  0
 12 39  1  0
 13 40  1  0
 15 41  1  0
 19 42  1  0
 19 43  1  0
 21 44  1  0
 22 45  1  0
 23 46  1  0
 25 47  1  0
 25 48  1  0
 25 49  1  0
 26 50  1  0
 28 51  1  0
 29 52  1  0
M  END
$$$$
[H]c1c(N([H])c2nc(N(C([H])([H])[H])C([H])([H])[H])sc2C(=O)N([H])C2([H])C([H])([H])C([H])([H])N(S(=O)(=O)C([H])([H])[H])C([H])([H])C2([H])[H])nc2sc(C([H])([H])[H])nc2c1[H]
     RDKit          3D

 57 60  0  0  0  0  0  0  0  0999 V2000
   -2.2723   -4.5245    1.6244 C   0  0  0  0  0  0  0  0  0  0  0  0
   -1.9332   -4.0362    0.3113 N   0  0  0  0  0  0  0  0  0  0  0  0
   -2.0840   -4.8280   -0.8796 C   0  0  0  0  0  0  0  0  0  0  0  0
   -1.4210   -2.6808    0.2353 C   0  0  0  0  0  0  0  0  0  0  0  0
   -2.0678   -1.5657    0.0792 N   0  0  0  0  0  0  0  0  0  0  0  0
   -1.4781   -0.4069    0.0276 C   0  0  0  0  0  0  0  0  0  0  0  0
   -2.2388    0.8160   -0.1480 N   0  0  0  0  0  0  0  0  0  0  0  0
   -3.6223    0.9430   -0.2807 C   0  0  0  0  0  0  0  0  0  0  0  0
   -4.5985    0.0009   -0.2827 C   0  0  0  0  0  0  0  0  0  0  0  0
   -5.9414    0.2531   -0.4229 C   0  0  0  0  0  0  0  0  0  0  0  0
   -6.3745    1.5839   -0.5791 C   0  0  0  0  0  0  0  0  0  0  0  0
   -7.6024    1.9908   -0.7229 N   0  0  0  0  0  0  0  0  0  0  0  0
   -7.8602    3.2777   -0.8598 C   0  0  0  0  0  0  0  0  0  0  0  0
   -9.1917    3.9559   -1.0369 C   0  0  0  0  0  0  0  0  0  0  0  0
   -6.3038    3.9722   -0.7850 S   0  0  0  0  0  0  0  0  0  0  0  0
   -5.3840    2.5275   -0.5760 C   0  0  0  0  0  0  0  0  0  0  0  0
   -4.0728    2.2324   -0.4347 N   0  0  0  0  0  0  0  0  0  0  0  0
   -0.1075   -0.4264    0.1495 C   0  0  0  0  0  0  0  0  0  0  0  0
    0.1894   -2.1331    0.3276 S   0  0  0  0  0  0  0  0  0  0  0  0
    0.8893    0.6319    0.1424 C   0  0  0  0  0  0  0  0  0  0  0  0
    0.6279    1.8285    0.0127 O   0  0  0  0  0  0  0  0  0  0  0  0
    2.2574    0.2671    0.2950 N   0  0  0  0  0  0  0  0  0  0  0  0
    3.2950    1.2563    0.2977 C   0  0  0  0  0  0  0  0  0  0  0  0
    4.2278    1.0063   -0.8638 C   0  0  0  0  0  0  0  0  0  0  0  0
    5.0451   -0.2222   -0.6029 C   0  0  0  0  0  0  0  0  0  0  0  0
    5.7979   -0.1653    0.6215 N   0  0  0  0  0  0  0  0  0  0  0  0
    4.9867    0.1303    1.7744 C   0  0  0  0  0  0  0  0  0  0  0  0
    4.0784    1.3030    1.5761 C   0  0  0  0  0  0  0  0  0  0  0  0
    7.1911    0.8299    0.5118 S   0  0  0  0  0  0  0  0  0  0  0  0
    8.2542    0.1335   -0.7332 C   0  0  0  0  0  0  0  0  0  0  0  0
    7.9330    0.6931    1.8328 O   0  0  0  0  0  0  0  0  0  0  0  0
    6.8795    2.2574    0.2576 O   0  0  0  0  0  0  0  0  0  0  0  0
   -1.4346   -5.0683    2.0966 H   0  0  0  0  0  0  0  0  0  0  0  0
   -2.5657   -3.7156    2.3275 H   0  0  0  0  0  0  0  0  0  0  0  0
   -3.1606   -5.2118    1.5653 H   0  0  0  0  0  0  0  0  0  0  0  0
   -1.1913   -4.7134   -1.5539 H   0  0  0  0  0  0  0  0  0  0  0  0
   -2.1181   -5.9025   -0.6226 H   0  0  0  0  0  0  0  0  0  0  0  0
   -3.0285   -4.5948   -1.4307 H   0  0  0  0  0  0  0  0  0  0  0  0
   -1.6358    1.6998   -0.1738 H   0  0  0  0  0  0  0  0  0  0  0  0
   -4.3201   -1.0388   -0.1659 H   0  0  0  0  0  0  0  0  0  0  0  0
   -6.6367   -0.5679   -0.4110 H   0  0  0  0  0  0  0  0  0  0  0  0
   -9.5209    4.3556   -0.0542 H   0  0  0  0  0  0  0  0  0  0  0  0
   -9.0893    4.8048   -1.7197 H   0  0  0  0  0  0  0  0  0  0  0  0
   -9.9230    3.1949   -1.3517 H   0  0  0  0  0  0  0  0  0  0  0  0
    2.5328   -0.7297    0.4082 H   0  0  0  0  0  0  0  0  0  0  0  0
    2.8404    2.2796    0.1662 H   0  0  0  0  0  0  0  0  0  0  0  0
    3.5902    0.8017   -1.7495 H   0  0  0  0  0  0  0  0  0  0  0  0
    4.8665    1.8631   -1.1095 H   0  0  0  0  0  0  0  0  0  0  0  0
    5.7737   -0.3537   -1.4325 H   0  0  0  0  0  0  0  0  0  0  0  0
    4.4197   -1.1276   -0.5693 H   0  0  0  0  0  0  0  0  0  0  0  0
    5.6857    0.3934    2.6109 H   0  0  0  0  0  0  0  0  0  0  0  0
    4.4377   -0.7699    2.0524 H   0  0  0  0  0  0  0  0  0  0  0  0
    4.6212    2.2714    1.6466 H   0  0  0  0  0  0  0  0  0  0  0  0
    3.3419    1.3080    2.4132 H   0  0  0  0  0  0  0  0  0  0  0  0
    8.1008   -0.9583   -0.8348 H   0  0  0  0  0  0  0  0  0  0  0  0
    9.3112    0.3004   -0.5231 H   0  0  0  0  0  0  0  0  0  0  0  0
    8.0044    0.5781   -1.7150 H   0  0  0  0  0  0  0  0  0  0  0  0
  1  2  1  0
  2  3  1  0
  2  4  1  0
  4  5  2  0
  5  6  1  0
  6  7  1  0
  7  8  1  0
  8  9  2  0
  9 10  1  0
 10 11  2  0
 11 12  1  0
 12 13  2  0
 13 14  1  0
 13 15  1  0
 15 16  1  0
 16 17  2  0
  6 18  2  0
 18 19  1  0
 18 20  1  0
 20 21  2  0
 20 22  1  0
 22 23  1  0
 23 24  1  0
 24 25  1  0
 25 26  1  0
 26 27  1  0
 27 28  1  0
 26 29  1  0
 29 30  1  0
 29 31  2  0
 29 32  2  0
 19  4  1  0
 28 23  1  0
 17  8  1  0
 16 11  1  0
  1 33  1  0
  1 34  1  0
  1 35  1  0
  3 36  1  0
  3 37  1  0
  3 38  1  0
  7 39  1  0
  9 40  1  0
 10 41  1  0
 14 42  1  0
 14 43  1  0
 14 44  1  0
 22 45  1  0
 23 46  1  0
 24 47  1  0
 24 48  1  0
 25 49  1  0
 25 50  1  0
 27 51  1  0
 27 52  1  0
 28 53  1  0
 28 54  1  0
 30 55  1  0
 30 56  1  0
 30 57  1  0
M  END
$$$$
[H]c1nc(-c2c([H])c([H])c(Cl)c(C([H])([H])[H])c2[H])c(C([H])([H])[H])c([H])c1O[C@@]1([H])OC([H])([H])C([H])([H])C1([H])[H]
     RDKit          3D

 39 41  0  0  0  0  0  0  0  0999 V2000
    5.7107    0.9675   -1.2004 C   0  0  0  0  0  0  0  0  0  0  0  0
    4.7762    0.8350   -0.0402 C   0  0  0  0  0  0  0  0  0  0  0  0
    3.4083    0.6630   -0.2618 C   0  0  0  0  0  0  0  0  0  0  0  0
    2.5069    0.5360    0.7684 C   0  0  0  0  0  0  0  0  0  0  0  0
    3.0499    0.5907    2.0582 C   0  0  0  0  0  0  0  0  0  0  0  0
    4.3924    0.7595    2.2887 C   0  0  0  0  0  0  0  0  0  0  0  0
    5.2677    0.8833    1.2255 C   0  0  0  0  0  0  0  0  0  0  0  0
    6.9936    1.1007    1.4751 Cl  0  0  0  0  0  0  0  0  0  0  0  0
    1.0734    0.3491    0.5928 C   0  0  0  0  0  0  0  0  0  0  0  0
    0.1812    1.0957    1.3082 N   0  0  0  0  0  0  0  0  0  0  0  0
   -1.1401    0.9752    1.2052 C   0  0  0  0  0  0  0  0  0  0  0  0
   -1.7228    0.0431    0.3265 C   0  0  0  0  0  0  0  0  0  0  0  0
   -3.0969   -0.0487    0.2509 O   0  0  0  0  0  0  0  0  0  0  0  0
   -3.8129   -0.9137   -0.5630 C   0  0  2  0  0  0  0  0  0  0  0  0
   -4.7977   -0.1164   -1.4115 C   0  0  0  0  0  0  0  0  0  0  0  0
   -5.9254    0.1125   -0.4377 C   0  0  0  0  0  0  0  0  0  0  0  0
   -5.6809   -0.9123    0.6470 C   0  0  0  0  0  0  0  0  0  0  0  0
   -4.6729   -1.7421    0.1786 O   0  0  0  0  0  0  0  0  0  0  0  0
   -0.8712   -0.7225   -0.4062 C   0  0  0  0  0  0  0  0  0  0  0  0
    0.5116   -0.5610   -0.2646 C   0  0  0  0  0  0  0  0  0  0  0  0
    1.3934   -1.4364   -1.0857 C   0  0  0  0  0  0  0  0  0  0  0  0
    5.9381    2.0154   -1.4297 H   0  0  0  0  0  0  0  0  0  0  0  0
    5.2590    0.4325   -2.0586 H   0  0  0  0  0  0  0  0  0  0  0  0
    6.6926    0.4712   -0.9699 H   0  0  0  0  0  0  0  0  0  0  0  0
    3.0521    0.6338   -1.2809 H   0  0  0  0  0  0  0  0  0  0  0  0
    2.4062    0.4990    2.9058 H   0  0  0  0  0  0  0  0  0  0  0  0
    4.8310    0.8043    3.2761 H   0  0  0  0  0  0  0  0  0  0  0  0
   -1.8467    1.5692    1.7743 H   0  0  0  0  0  0  0  0  0  0  0  0
   -3.1992   -1.5766   -1.1962 H   0  0  0  0  0  0  0  0  0  0  0  0
   -4.2848    0.8496   -1.6811 H   0  0  0  0  0  0  0  0  0  0  0  0
   -5.1029   -0.6688   -2.3045 H   0  0  0  0  0  0  0  0  0  0  0  0
   -6.9134   -0.0609   -0.9463 H   0  0  0  0  0  0  0  0  0  0  0  0
   -5.8802    1.1333   -0.0325 H   0  0  0  0  0  0  0  0  0  0  0  0
   -5.3332   -0.4456    1.5836 H   0  0  0  0  0  0  0  0  0  0  0  0
   -6.6026   -1.5233    0.7830 H   0  0  0  0  0  0  0  0  0  0  0  0
   -1.2439   -1.4665   -1.1083 H   0  0  0  0  0  0  0  0  0  0  0  0
    1.5411   -1.0180   -2.1005 H   0  0  0  0  0  0  0  0  0  0  0  0
    0.8222   -2.3968   -1.2762 H   0  0  0  0  0  0  0  0  0  0  0  0
    2.3200   -1.7358   -0.5920 H   0  0  0  0  0  0  0  0  0  0  0  0
  1  2  1  0
  2  3  2  0
  3  4  1  0
  4  5  2  0
  5  6  1  0
  6  7  2  0
  7  8  1  0
  4  9  1  0
  9 10  2  0
 10 11  1  0
 11 12  2  0
 12 13  1  0
 13 14  1  0
 14 15  1  0
 15 16  1  0
 16 17  1  0
 17 18  1  0
 12 19  1  0
 19 20  2  0
 20 21  1  0
  7  2  1  0
 20  9  1  0
 18 14  1  0
  1 22  1  0
  1 23  1  0
  1 24  1  0
  3 25  1  0
  5 26  1  0
  6 27  1  0
 11 28  1  0
 14 29  1  6
 15 30  1  0
 15 31  1  0
 16 32  1  0
 16 33  1  0
 17 34  1  0
 17 35  1  0
 19 36  1  0
 21 37  1  0
 21 38  1  0
 21 39  1  0
M  END
$$$$
[H]c1nn(C([H])([H])[H])c(C(=O)N2C([H])([H])C([H])([H])C([H])([H])C2([H])[H])c1-c1c([H])c([H])c(OC2([H])C([H])([H])N(C(=O)OC3([H])C([H])([H])C3([H])[H])C2([H])[H])c([H])c1[H]
     RDKit          3D

 56 60  0  0  0  0  0  0  0  0999 V2000
   -6.8091   -0.3732   -2.7384 C   0  0  0  0  0  0  0  0  0  0  0  0
   -5.3682   -0.4198   -2.7090 N   0  0  0  0  0  0  0  0  0  0  0  0
   -4.6614   -0.8796   -3.7076 N   0  0  0  0  0  0  0  0  0  0  0  0
   -3.3898   -0.8268   -3.4353 C   0  0  0  0  0  0  0  0  0  0  0  0
   -3.2663   -0.2748   -2.1296 C   0  0  0  0  0  0  0  0  0  0  0  0
   -4.5141   -0.0226   -1.6705 C   0  0  0  0  0  0  0  0  0  0  0  0
   -5.0679    0.5876   -0.5000 C   0  0  0  0  0  0  0  0  0  0  0  0
   -6.2902    1.0865   -0.6409 O   0  0  0  0  0  0  0  0  0  0  0  0
   -4.5963    0.7703    0.7992 N   0  0  0  0  0  0  0  0  0  0  0  0
   -3.4419    0.3608    1.5040 C   0  0  0  0  0  0  0  0  0  0  0  0
   -3.9138    0.1467    2.9479 C   0  0  0  0  0  0  0  0  0  0  0  0
   -5.3493    0.6447    2.9731 C   0  0  0  0  0  0  0  0  0  0  0  0
   -5.3290    1.6144    1.8181 C   0  0  0  0  0  0  0  0  0  0  0  0
   -1.9685    0.0577   -1.5644 C   0  0  0  0  0  0  0  0  0  0  0  0
   -1.0529   -0.9166   -1.2251 C   0  0  0  0  0  0  0  0  0  0  0  0
    0.2145   -0.6186   -0.7695 C   0  0  0  0  0  0  0  0  0  0  0  0
    0.6525    0.6768   -0.6225 C   0  0  0  0  0  0  0  0  0  0  0  0
    1.9097    1.0432   -0.1713 O   0  0  0  0  0  0  0  0  0  0  0  0
    2.9042    0.1528    0.1963 C   0  0  0  0  0  0  0  0  0  0  0  0
    4.3037    0.4971   -0.3095 C   0  0  0  0  0  0  0  0  0  0  0  0
    4.7912    0.1420    1.0033 N   0  0  0  0  0  0  0  0  0  0  0  0
    3.5206    0.5610    1.5435 C   0  0  0  0  0  0  0  0  0  0  0  0
    5.9926   -0.3871    1.5275 C   0  0  0  0  0  0  0  0  0  0  0  0
    6.0864   -0.5815    2.7747 O   0  0  0  0  0  0  0  0  0  0  0  0
    7.0851   -0.7065    0.7283 O   0  0  0  0  0  0  0  0  0  0  0  0
    8.2382   -1.2296    1.3503 C   0  0  0  0  0  0  0  0  0  0  0  0
    8.9937   -2.2685    0.5567 C   0  0  0  0  0  0  0  0  0  0  0  0
    9.5928   -0.9158    0.8032 C   0  0  0  0  0  0  0  0  0  0  0  0
   -0.2620    1.6804   -0.9617 C   0  0  0  0  0  0  0  0  0  0  0  0
   -1.5234    1.3796   -1.4150 C   0  0  0  0  0  0  0  0  0  0  0  0
   -7.2883   -0.7712   -1.8128 H   0  0  0  0  0  0  0  0  0  0  0  0
   -7.1758   -0.9429   -3.6286 H   0  0  0  0  0  0  0  0  0  0  0  0
   -7.1559    0.6748   -2.8696 H   0  0  0  0  0  0  0  0  0  0  0  0
   -2.5015   -1.1073   -3.9854 H   0  0  0  0  0  0  0  0  0  0  0  0
   -2.6021    1.0825    1.4908 H   0  0  0  0  0  0  0  0  0  0  0  0
   -3.0178   -0.6158    1.1425 H   0  0  0  0  0  0  0  0  0  0  0  0
   -3.9487   -0.9275    3.1212 H   0  0  0  0  0  0  0  0  0  0  0  0
   -3.2467    0.7077    3.6043 H   0  0  0  0  0  0  0  0  0  0  0  0
   -6.0688   -0.1719    2.7510 H   0  0  0  0  0  0  0  0  0  0  0  0
   -5.6047    1.1433    3.9152 H   0  0  0  0  0  0  0  0  0  0  0  0
   -6.3155    1.8856    1.4479 H   0  0  0  0  0  0  0  0  0  0  0  0
   -4.6525    2.4499    2.0439 H   0  0  0  0  0  0  0  0  0  0  0  0
   -1.3896   -1.9547   -1.3378 H   0  0  0  0  0  0  0  0  0  0  0  0
    0.8887   -1.4231   -0.5190 H   0  0  0  0  0  0  0  0  0  0  0  0
    2.7159   -0.9169    0.1387 H   0  0  0  0  0  0  0  0  0  0  0  0
    4.4311    1.6049   -0.4467 H   0  0  0  0  0  0  0  0  0  0  0  0
    4.6593   -0.0946   -1.1512 H   0  0  0  0  0  0  0  0  0  0  0  0
    3.5126    1.6595    1.6656 H   0  0  0  0  0  0  0  0  0  0  0  0
    3.1450   -0.0037    2.3973 H   0  0  0  0  0  0  0  0  0  0  0  0
    8.2120   -1.3594    2.4628 H   0  0  0  0  0  0  0  0  0  0  0  0
    9.3193   -3.1515    1.1257 H   0  0  0  0  0  0  0  0  0  0  0  0
    8.6025   -2.5048   -0.4643 H   0  0  0  0  0  0  0  0  0  0  0  0
    9.6869   -0.2420   -0.0583 H   0  0  0  0  0  0  0  0  0  0  0  0
   10.4576   -0.8765    1.4942 H   0  0  0  0  0  0  0  0  0  0  0  0
    0.0839    2.7153   -0.8457 H   0  0  0  0  0  0  0  0  0  0  0  0
   -2.2279    2.1595   -1.6764 H   0  0  0  0  0  0  0  0  0  0  0  0
  1  2  1  0
  2  3  1  0
  3  4  2  0
  4  5  1  0
  5  6  2  0
  6  7  1  0
  7  8  2  0
  7  9  1  0
  9 10  1  0
 10 11  1  0
 11 12  1  0
 12 13  1  0
  5 14  1  0
 14 15  2  0
 15 16  1  0
 16 17  2  0
 17 18  1  0
 18 19  1  0
 19 20  1  0
 20 21  1  0
 21 22  1  0
 21 23  1  0
 23 24  2  0
 23 25  1  0
 25 26  1  0
 26 27  1  0
 27 28  1  0
 17 29  1  0
 29 30  2  0
  6  2  1  0
 13  9  1  0
 30 14  1  0
 22 19  1  0
 28 26  1  0
  1 31  1  0
  1 32  1  0
  1 33  1  0
  4 34  1  0
 10 35  1  0
 10 36  1  0
 11 37  1  0
 11 38  1  0
 12 39  1  0
 12 40  1  0
 13 41  1  0
 13 42  1  0
 15 43  1  0
 16 44  1  0
 19 45  1  0
 20 46  1  0
 20 47  1  0
 22 48  1  0
 22 49  1  0
 26 50  1  0
 27 51  1  0
 27 52  1  0
 28 53  1  0
 28 54  1  0
 29 55  1  0
 30 56  1  0
M  END
$$$$
[H]Oc1c([H])c([H])c(C([H])([H])[C@]([H])(C(=O)N2C([H])([H])C([H])([H])C([H])([H])[C@@]2([H])C(=O)N([H])C([H])(C([H])([H])[H])C([H])([H])[H])N([H])C(=O)c2c([H])c(C(F)(F)F)c([H])c([H])c2N([H])C(=O)C([H])([H])[H])c([H])c1[H]
     RDKit          3D

 70 72  0  0  0  0  0  0  0  0999 V2000
    6.3021   -2.7684   -1.1519 C   0  0  0  0  0  0  0  0  0  0  0  0
    5.4368   -2.3128    0.0168 C   0  0  0  0  0  0  0  0  0  0  0  0
    6.4913   -1.8370    1.0557 C   0  0  0  0  0  0  0  0  0  0  0  0
    4.7932   -1.0897   -0.4120 N   0  0  0  0  0  0  0  0  0  0  0  0
    3.4482   -0.7047   -0.1387 C   0  0  0  0  0  0  0  0  0  0  0  0
    2.7100   -1.4420    0.5182 O   0  0  0  0  0  0  0  0  0  0  0  0
    2.9199    0.5952   -0.6452 C   0  0  2  0  0  0  0  0  0  0  0  0
    3.8039    1.7245   -0.1087 C   0  0  0  0  0  0  0  0  0  0  0  0
    3.4193    1.6032    1.3728 C   0  0  0  0  0  0  0  0  0  0  0  0
    1.8832    1.6957    1.1835 C   0  0  0  0  0  0  0  0  0  0  0  0
    1.6449    0.9512   -0.0274 N   0  0  0  0  0  0  0  0  0  0  0  0
    0.3729    0.5912   -0.5535 C   0  0  0  0  0  0  0  0  0  0  0  0
    0.2666   -0.0938   -1.6298 O   0  0  0  0  0  0  0  0  0  0  0  0
   -0.9116    0.9647    0.1003 C   0  0  1  0  0  0  0  0  0  0  0  0
   -1.4758    2.2864   -0.3158 C   0  0  0  0  0  0  0  0  0  0  0  0
   -0.7967    3.5433   -0.2193 C   0  0  0  0  0  0  0  0  0  0  0  0
   -0.0271    4.0010   -1.3315 C   0  0  0  0  0  0  0  0  0  0  0  0
    0.5943    5.2249   -1.2866 C   0  0  0  0  0  0  0  0  0  0  0  0
    0.5071    6.0370   -0.2116 C   0  0  0  0  0  0  0  0  0  0  0  0
    1.1749    7.2858   -0.2544 O   0  0  0  0  0  0  0  0  0  0  0  0
   -0.2332    5.6459    0.9068 C   0  0  0  0  0  0  0  0  0  0  0  0
   -0.8474    4.4044    0.8302 C   0  0  0  0  0  0  0  0  0  0  0  0
   -1.9701   -0.0073   -0.2917 N   0  0  0  0  0  0  0  0  0  0  0  0
   -2.5280   -1.0695    0.3432 C   0  0  0  0  0  0  0  0  0  0  0  0
   -2.0761   -1.3734    1.5057 O   0  0  0  0  0  0  0  0  0  0  0  0
   -3.6069   -1.7914   -0.3024 C   0  0  0  0  0  0  0  0  0  0  0  0
   -3.9982   -1.4707   -1.5760 C   0  0  0  0  0  0  0  0  0  0  0  0
   -5.0047   -2.0741   -2.2642 C   0  0  0  0  0  0  0  0  0  0  0  0
   -5.6903   -3.1078   -1.6244 C   0  0  0  0  0  0  0  0  0  0  0  0
   -5.3173   -3.4496   -0.3479 C   0  0  0  0  0  0  0  0  0  0  0  0
   -4.3266   -2.8532    0.3564 C   0  0  0  0  0  0  0  0  0  0  0  0
   -3.9694   -3.2261    1.6635 N   0  0  0  0  0  0  0  0  0  0  0  0
   -4.7601   -4.0860    2.4787 C   0  0  0  0  0  0  0  0  0  0  0  0
   -4.2556   -4.4163    3.8757 C   0  0  0  0  0  0  0  0  0  0  0  0
   -5.8237   -4.5977    2.1795 O   0  0  0  0  0  0  0  0  0  0  0  0
   -5.3436   -1.6306   -3.6224 C   0  0  0  0  0  0  0  0  0  0  0  0
   -6.1134   -0.4614   -3.5911 F   0  0  0  0  0  0  0  0  0  0  0  0
   -6.0775   -2.5434   -4.3483 F   0  0  0  0  0  0  0  0  0  0  0  0
   -4.1799   -1.3149   -4.3101 F   0  0  0  0  0  0  0  0  0  0  0  0
    7.1750   -3.3653   -0.8166 H   0  0  0  0  0  0  0  0  0  0  0  0
    6.7597   -1.8376   -1.6017 H   0  0  0  0  0  0  0  0  0  0  0  0
    5.7311   -3.2293   -1.9782 H   0  0  0  0  0  0  0  0  0  0  0  0
    4.7846   -3.0654    0.4386 H   0  0  0  0  0  0  0  0  0  0  0  0
    7.1595   -1.1650    0.4649 H   0  0  0  0  0  0  0  0  0  0  0  0
    5.9426   -1.2026    1.7704 H   0  0  0  0  0  0  0  0  0  0  0  0
    7.0420   -2.6802    1.4741 H   0  0  0  0  0  0  0  0  0  0  0  0
    5.4323   -0.4457   -0.9700 H   0  0  0  0  0  0  0  0  0  0  0  0
    2.9001    0.5928   -1.7393 H   0  0  0  0  0  0  0  0  0  0  0  0
    3.3743    2.6693   -0.4843 H   0  0  0  0  0  0  0  0  0  0  0  0
    4.8577    1.6154   -0.3158 H   0  0  0  0  0  0  0  0  0  0  0  0
    3.7767    2.4644    1.9648 H   0  0  0  0  0  0  0  0  0  0  0  0
    3.6219    0.6372    1.8104 H   0  0  0  0  0  0  0  0  0  0  0  0
    1.3394    1.3615    2.0564 H   0  0  0  0  0  0  0  0  0  0  0  0
    1.7636    2.7856    0.9665 H   0  0  0  0  0  0  0  0  0  0  0  0
   -0.7917    0.9043    1.1734 H   0  0  0  0  0  0  0  0  0  0  0  0
   -1.8285    2.1588   -1.3899 H   0  0  0  0  0  0  0  0  0  0  0  0
   -2.4632    2.4287    0.2663 H   0  0  0  0  0  0  0  0  0  0  0  0
    0.0470    3.3779   -2.1797 H   0  0  0  0  0  0  0  0  0  0  0  0
    1.1597    5.5438   -2.1554 H   0  0  0  0  0  0  0  0  0  0  0  0
    1.0969    7.8714    0.5667 H   0  0  0  0  0  0  0  0  0  0  0  0
   -0.2849    6.3351    1.7187 H   0  0  0  0  0  0  0  0  0  0  0  0
   -1.4060    4.1210    1.7297 H   0  0  0  0  0  0  0  0  0  0  0  0
   -2.2966    0.2896   -1.2757 H   0  0  0  0  0  0  0  0  0  0  0  0
   -3.4663   -0.6470   -2.1103 H   0  0  0  0  0  0  0  0  0  0  0  0
   -6.4833   -3.6066   -2.1257 H   0  0  0  0  0  0  0  0  0  0  0  0
   -5.8491   -4.2984    0.1210 H   0  0  0  0  0  0  0  0  0  0  0  0
   -3.0856   -2.9247    2.1370 H   0  0  0  0  0  0  0  0  0  0  0  0
   -5.1227   -4.5414    4.5352 H   0  0  0  0  0  0  0  0  0  0  0  0
   -3.6236   -3.6245    4.3006 H   0  0  0  0  0  0  0  0  0  0  0  0
   -3.6982   -5.3561    3.8258 H   0  0  0  0  0  0  0  0  0  0  0  0
  1  2  1  0
  2  3  1  0
  2  4  1  0
  4  5  1  0
  5  6  2  0
  5  7  1  0
  7  8  1  0
  8  9  1  0
  9 10  1  0
 10 11  1  0
 11 12  1  0
 12 13  2  0
 12 14  1  0
 14 15  1  0
 15 16  1  0
 16 17  2  0
 17 18  1  0
 18 19  2  0
 19 20  1  0
 19 21  1  0
 21 22  2  0
 14 23  1  0
 23 24  1  0
 24 25  2  0
 24 26  1  0
 26 27  2  0
 27 28  1  0
 28 29  2  0
 29 30  1  0
 30 31  2  0
 31 32  1  0
 32 33  1  0
 33 34  1  0
 33 35  2  0
 28 36  1  0
 36 37  1  0
 36 38  1  0
 36 39  1  0
 11  7  1  0
 22 16  1  0
 31 26  1  0
  1 40  1  0
  1 41  1  0
  1 42  1  0
  2 43  1  0
  3 44  1  0
  3 45  1  0
  3 46  1  0
  4 47  1  0
  7 48  1  6
  8 49  1  0
  8 50  1  0
  9 51  1  0
  9 52  1  0
 10 53  1  0
 10 54  1  0
 14 55  1  1
 15 56  1  0
 15 57  1  0
 17 58  1  0
 18 59  1  0
 20 60  1  0
 21 61  1  0
 22 62  1  0
 23 63  1  0
 27 64  1  0
 29 65  1  0
 30 66  1  0
 32 67  1  0
 34 68  1  0
 34 69  1  0
 34 70  1  0
M  END
$$$$
[H]c1c([H])c([H])c(N(C(=O)C([H])([H])[H])c2nc(C([H])([H])[H])c(-c3c([H])c([H])c(S(=O)(=O)c4c([H])c([H])c([H])c([H])c4[H])c([H])c3C([H])([H])[H])s2)c([H])c1[H]
     RDKit          3D

 54 57  0  0  0  0  0  0  0  0999 V2000
   -5.5333   -2.3070    0.4925 C   0  0  0  0  0  0  0  0  0  0  0  0
   -5.6944   -0.8614    0.2158 C   0  0  0  0  0  0  0  0  0  0  0  0
   -6.8916   -0.4058    0.2378 O   0  0  0  0  0  0  0  0  0  0  0  0
   -4.5992   -0.0073   -0.0607 N   0  0  0  0  0  0  0  0  0  0  0  0
   -4.7915    1.3727   -0.3185 C   0  0  0  0  0  0  0  0  0  0  0  0
   -4.3827    1.9592   -1.5000 C   0  0  0  0  0  0  0  0  0  0  0  0
   -4.6168    3.3093   -1.6537 C   0  0  0  0  0  0  0  0  0  0  0  0
   -5.2331    4.0897   -0.6918 C   0  0  0  0  0  0  0  0  0  0  0  0
   -5.6435    3.5025    0.4937 C   0  0  0  0  0  0  0  0  0  0  0  0
   -5.4132    2.1525    0.6553 C   0  0  0  0  0  0  0  0  0  0  0  0
   -3.2722   -0.5877   -0.0728 C   0  0  0  0  0  0  0  0  0  0  0  0
   -2.9079   -1.7994   -0.3910 N   0  0  0  0  0  0  0  0  0  0  0  0
   -1.6521   -2.1671   -0.3498 C   0  0  0  0  0  0  0  0  0  0  0  0
   -1.3260   -3.6368   -0.6247 C   0  0  0  0  0  0  0  0  0  0  0  0
   -0.7396   -1.2536    0.0284 C   0  0  0  0  0  0  0  0  0  0  0  0
   -1.7844    0.1327    0.3207 S   0  0  0  0  0  0  0  0  0  0  0  0
    0.7073   -1.2436    0.3111 C   0  0  0  0  0  0  0  0  0  0  0  0
    1.1004   -0.5425    1.4804 C   0  0  0  0  0  0  0  0  0  0  0  0
    2.4079   -0.3904    1.8288 C   0  0  0  0  0  0  0  0  0  0  0  0
    3.4249   -0.9124    1.0598 C   0  0  0  0  0  0  0  0  0  0  0  0
    3.0495   -1.5872   -0.0697 C   0  0  0  0  0  0  0  0  0  0  0  0
    1.7002   -1.7531   -0.4479 C   0  0  0  0  0  0  0  0  0  0  0  0
    1.4835   -2.4014   -1.7630 C   0  0  0  0  0  0  0  0  0  0  0  0
    5.1090   -0.7170    1.5138 S   0  0  0  0  0  0  0  0  0  0  0  0
    5.1859   -0.5545    3.0241 O   0  0  0  0  0  0  0  0  0  0  0  0
    5.9208   -1.9314    1.1541 O   0  0  0  0  0  0  0  0  0  0  0  0
    5.7053    0.7330    0.7721 C   0  0  0  0  0  0  0  0  0  0  0  0
    5.6318    1.9344    1.4153 C   0  0  0  0  0  0  0  0  0  0  0  0
    6.1136    3.0656    0.7989 C   0  0  0  0  0  0  0  0  0  0  0  0
    6.6658    2.9753   -0.4623 C   0  0  0  0  0  0  0  0  0  0  0  0
    6.7406    1.7549   -1.1161 C   0  0  0  0  0  0  0  0  0  0  0  0
    6.2526    0.6432   -0.4783 C   0  0  0  0  0  0  0  0  0  0  0  0
   -4.7614   -2.5346    1.2455 H   0  0  0  0  0  0  0  0  0  0  0  0
   -5.2776   -2.8274   -0.4680 H   0  0  0  0  0  0  0  0  0  0  0  0
   -6.4949   -2.7484    0.8799 H   0  0  0  0  0  0  0  0  0  0  0  0
   -3.8928    1.3735   -2.2822 H   0  0  0  0  0  0  0  0  0  0  0  0
   -4.3003    3.7830   -2.5779 H   0  0  0  0  0  0  0  0  0  0  0  0
   -5.3822    5.1503   -0.8884 H   0  0  0  0  0  0  0  0  0  0  0  0
   -6.1223    4.1268    1.2321 H   0  0  0  0  0  0  0  0  0  0  0  0
   -5.7358    1.7003    1.5826 H   0  0  0  0  0  0  0  0  0  0  0  0
   -1.2110   -3.8453   -1.6823 H   0  0  0  0  0  0  0  0  0  0  0  0
   -0.4717   -3.9583   -0.0138 H   0  0  0  0  0  0  0  0  0  0  0  0
   -2.1776   -4.2832   -0.2834 H   0  0  0  0  0  0  0  0  0  0  0  0
    0.2920   -0.1377    2.0756 H   0  0  0  0  0  0  0  0  0  0  0  0
    2.7041    0.1470    2.7245 H   0  0  0  0  0  0  0  0  0  0  0  0
    3.8315   -2.0068   -0.6903 H   0  0  0  0  0  0  0  0  0  0  0  0
    0.6007   -2.0374   -2.2775 H   0  0  0  0  0  0  0  0  0  0  0  0
    1.5361   -3.4902   -1.6241 H   0  0  0  0  0  0  0  0  0  0  0  0
    2.3782   -2.1856   -2.4414 H   0  0  0  0  0  0  0  0  0  0  0  0
    5.1935    2.0301    2.4265 H   0  0  0  0  0  0  0  0  0  0  0  0
    6.0421    4.0107    1.3353 H   0  0  0  0  0  0  0  0  0  0  0  0
    7.0465    3.8520   -0.9557 H   0  0  0  0  0  0  0  0  0  0  0  0
    7.1692    1.6444   -2.1114 H   0  0  0  0  0  0  0  0  0  0  0  0
    6.3164   -0.3284   -1.0081 H   0  0  0  0  0  0  0  0  0  0  0  0
  1  2  1  0
  2  3  2  0
  2  4  1  0
  4  5  1  0
  5  6  2  0
  6  7  1  0
  7  8  2  0
  8  9  1  0
  9 10  2  0
  4 11  1  0
 11 12  2  0
 12 13  1  0
 13 14  1  0
 13 15  2  0
 15 16  1  0
 15 17  1  0
 17 18  2  0
 18 19  1  0
 19 20  2  0
 20 21  1  0
 21 22  2  0
 22 23  1  0
 20 24  1  0
 24 25  2  0
 24 26  2  0
 24 27  1  0
 27 28  2  0
 28 29  1  0
 29 30  2  0
 30 31  1  0
 31 32  2  0
 10  5  1  0
 16 11  1  0
 22 17  1  0
 32 27  1  0
  1 33  1  0
  1 34  1  0
  1 35  1  0
  6 36  1  0
  7 37  1  0
  8 38  1  0
  9 39  1  0
 10 40  1  0
 14 41  1  0
 14 42  1  0
 14 43  1  0
 18 44  1  0
 19 45  1  0
 21 46  1  0
 23 47  1  0
 23 48  1  0
 23 49  1  0
 28 50  1  0
 29 51  1  0
 30 52  1  0
 31 53  1  0
 32 54  1  0
M  END
$$$$
[H]OC(=O)c1c([H])c([H])c(C([H])([H])C([H])([H])C(=O)N([H])c2c([H])c(N([H])C([H])([H])c3nc([H])c([H])c([H])c3[H])c([H])c([H])c2Br)c([H])c1[H]
     RDKit          3D

 49 51  0  0  0  0  0  0  0  0999 V2000
    6.5829    0.9531   -1.9657 O   0  0  0  0  0  0  0  0  0  0  0  0
    5.2861    0.9974   -2.4306 C   0  0  0  0  0  0  0  0  0  0  0  0
    4.9524    1.9500   -3.1844 O   0  0  0  0  0  0  0  0  0  0  0  0
    4.2753   -0.0015   -2.0943 C   0  0  0  0  0  0  0  0  0  0  0  0
    4.5691   -1.0761   -1.2777 C   0  0  0  0  0  0  0  0  0  0  0  0
    3.6210   -2.0186   -0.9581 C   0  0  0  0  0  0  0  0  0  0  0  0
    2.3007   -1.9497   -1.4388 C   0  0  0  0  0  0  0  0  0  0  0  0
    1.3576   -3.0328   -1.1004 C   0  0  0  0  0  0  0  0  0  0  0  0
    0.8261   -3.0913    0.2634 C   0  0  0  0  0  0  0  0  0  0  0  0
    0.0437   -1.8682    0.6655 C   0  0  0  0  0  0  0  0  0  0  0  0
   -0.0889   -0.9388   -0.1496 O   0  0  0  0  0  0  0  0  0  0  0  0
   -0.5190   -1.7994    1.9484 N   0  0  0  0  0  0  0  0  0  0  0  0
   -1.2555   -0.7544    2.5058 C   0  0  0  0  0  0  0  0  0  0  0  0
   -1.3815    0.4687    1.9051 C   0  0  0  0  0  0  0  0  0  0  0  0
   -2.0918    1.5414    2.4659 C   0  0  0  0  0  0  0  0  0  0  0  0
   -2.1833    2.7920    1.7937 N   0  0  0  0  0  0  0  0  0  0  0  0
   -1.6888    3.0233    0.4551 C   0  0  0  0  0  0  0  0  0  0  0  0
   -2.4815    2.2645   -0.5308 C   0  0  0  0  0  0  0  0  0  0  0  0
   -1.9286    1.9334   -1.7320 C   0  0  0  0  0  0  0  0  0  0  0  0
   -2.7087    1.2328   -2.6288 C   0  0  0  0  0  0  0  0  0  0  0  0
   -4.0226    0.8647   -2.3373 C   0  0  0  0  0  0  0  0  0  0  0  0
   -4.5221    1.2338   -1.0959 C   0  0  0  0  0  0  0  0  0  0  0  0
   -3.7513    1.9112   -0.2434 N   0  0  0  0  0  0  0  0  0  0  0  0
   -2.6823    1.3235    3.6859 C   0  0  0  0  0  0  0  0  0  0  0  0
   -2.5666    0.0977    4.3095 C   0  0  0  0  0  0  0  0  0  0  0  0
   -1.8763   -0.9366    3.7584 C   0  0  0  0  0  0  0  0  0  0  0  0
   -1.7102   -2.6296    4.5990 Br  0  0  0  0  0  0  0  0  0  0  0  0
    2.0336   -0.8759   -2.2471 C   0  0  0  0  0  0  0  0  0  0  0  0
    2.9858    0.0858   -2.5778 C   0  0  0  0  0  0  0  0  0  0  0  0
    7.2756    1.6009   -2.2591 H   0  0  0  0  0  0  0  0  0  0  0  0
    5.5785   -1.1384   -0.9008 H   0  0  0  0  0  0  0  0  0  0  0  0
    3.8653   -2.8602   -0.3146 H   0  0  0  0  0  0  0  0  0  0  0  0
    0.5294   -3.0798   -1.8876 H   0  0  0  0  0  0  0  0  0  0  0  0
    1.8706   -4.0373   -1.2879 H   0  0  0  0  0  0  0  0  0  0  0  0
    0.0908   -3.9338    0.4179 H   0  0  0  0  0  0  0  0  0  0  0  0
    1.6086   -3.2744    1.0459 H   0  0  0  0  0  0  0  0  0  0  0  0
   -0.3557   -2.6549    2.5658 H   0  0  0  0  0  0  0  0  0  0  0  0
   -0.9309    0.7131    0.9562 H   0  0  0  0  0  0  0  0  0  0  0  0
   -2.6323    3.5752    2.3041 H   0  0  0  0  0  0  0  0  0  0  0  0
   -1.6644    4.0941    0.2386 H   0  0  0  0  0  0  0  0  0  0  0  0
   -0.6163    2.6877    0.4552 H   0  0  0  0  0  0  0  0  0  0  0  0
   -0.9313    2.1833   -2.0099 H   0  0  0  0  0  0  0  0  0  0  0  0
   -2.3324    0.9434   -3.5957 H   0  0  0  0  0  0  0  0  0  0  0  0
   -4.6516    0.3194   -3.0139 H   0  0  0  0  0  0  0  0  0  0  0  0
   -5.5316    0.9810   -0.8083 H   0  0  0  0  0  0  0  0  0  0  0  0
   -3.2398    2.1420    4.1390 H   0  0  0  0  0  0  0  0  0  0  0  0
   -3.0368   -0.0694    5.2785 H   0  0  0  0  0  0  0  0  0  0  0  0
    1.0190   -0.7963   -2.6679 H   0  0  0  0  0  0  0  0  0  0  0  0
    2.7102    0.9044   -3.2168 H   0  0  0  0  0  0  0  0  0  0  0  0
  1  2  1  0
  2  3  2  0
  2  4  1  0
  4  5  2  0
  5  6  1  0
  6  7  2  0
  7  8  1  0
  8  9  1  0
  9 10  1  0
 10 11  2  0
 10 12  1  0
 12 13  1  0
 13 14  2  0
 14 15  1  0
 15 16  1  0
 16 17  1  0
 17 18  1  0
 18 19  2  0
 19 20  1  0
 20 21  2  0
 21 22  1  0
 22 23  2  0
 15 24  2  0
 24 25  1  0
 25 26  2  0
 26 27  1  0
  7 28  1  0
 28 29  2  0
 29  4  1  0
 26 13  1  0
 23 18  1  0
  1 30  1  0
  5 31  1  0
  6 32  1  0
  8 33  1  0
  8 34  1  0
  9 35  1  0
  9 36  1  0
 12 37  1  0
 14 38  1  0
 16 39  1  0
 17 40  1  0
 17 41  1  0
 19 42  1  0
 20 43  1  0
 21 44  1  0
 22 45  1  0
 24 46  1  0
 25 47  1  0
 28 48  1  0
 29 49  1  0
M  END
$$$$
[H]c1sc(N([H])c2c([H])c([H])c([H])c([H])c2-n2c(C([H])([H])C([H])([H])[H])nn([H])c2=O)nc1N([H])c1c([H])c([H])c2c([H])c([H])c([H])c([H])c2c1[H]
     RDKit          3D

 51 55  0  0  0  0  0  0  0  0999 V2000
    6.4001    1.7308    1.0201 C   0  0  0  0  0  0  0  0  0  0  0  0
    4.9159    1.8429    0.8410 C   0  0  0  0  0  0  0  0  0  0  0  0
    4.1783    2.0035    2.1186 C   0  0  0  0  0  0  0  0  0  0  0  0
    3.8845    3.1747    2.6975 N   0  0  0  0  0  0  0  0  0  0  0  0
    3.2221    2.9551    3.8151 N   0  0  0  0  0  0  0  0  0  0  0  0
    3.1053    1.6256    3.9276 C   0  0  0  0  0  0  0  0  0  0  0  0
    2.5353    1.0144    4.8618 O   0  0  0  0  0  0  0  0  0  0  0  0
    3.6932    1.0124    2.8832 N   0  0  0  0  0  0  0  0  0  0  0  0
    3.8200   -0.3714    2.5972 C   0  0  0  0  0  0  0  0  0  0  0  0
    4.8848   -1.1121    3.0608 C   0  0  0  0  0  0  0  0  0  0  0  0
    5.0442   -2.4567    2.8128 C   0  0  0  0  0  0  0  0  0  0  0  0
    4.0792   -3.0737    2.0609 C   0  0  0  0  0  0  0  0  0  0  0  0
    2.9877   -2.3402    1.5786 C   0  0  0  0  0  0  0  0  0  0  0  0
    2.8246   -0.9877    1.8265 C   0  0  0  0  0  0  0  0  0  0  0  0
    1.7890   -0.1844    1.3688 N   0  0  0  0  0  0  0  0  0  0  0  0
    0.6556   -0.6181    0.6394 C   0  0  0  0  0  0  0  0  0  0  0  0
   -0.2872    0.1988    0.1933 N   0  0  0  0  0  0  0  0  0  0  0  0
   -1.3077   -0.2501   -0.4581 C   0  0  0  0  0  0  0  0  0  0  0  0
   -2.3611    0.6313   -0.9229 N   0  0  0  0  0  0  0  0  0  0  0  0
   -3.4191    0.2278   -1.7437 C   0  0  0  0  0  0  0  0  0  0  0  0
   -3.2746   -0.6161   -2.8140 C   0  0  0  0  0  0  0  0  0  0  0  0
   -4.3589   -1.0210   -3.5916 C   0  0  0  0  0  0  0  0  0  0  0  0
   -5.6257   -0.5925   -3.3237 C   0  0  0  0  0  0  0  0  0  0  0  0
   -6.7412   -0.9514   -4.0452 C   0  0  0  0  0  0  0  0  0  0  0  0
   -8.0112   -0.4971   -3.7425 C   0  0  0  0  0  0  0  0  0  0  0  0
   -8.1904    0.3497   -2.6799 C   0  0  0  0  0  0  0  0  0  0  0  0
   -7.0674    0.7116   -1.9516 C   0  0  0  0  0  0  0  0  0  0  0  0
   -5.8046    0.2699   -2.2394 C   0  0  0  0  0  0  0  0  0  0  0  0
   -4.7318    0.6530   -1.4919 C   0  0  0  0  0  0  0  0  0  0  0  0
   -1.3757   -1.6070   -0.6672 C   0  0  0  0  0  0  0  0  0  0  0  0
    0.0694   -2.1208    0.1087 S   0  0  0  0  0  0  0  0  0  0  0  0
    6.7743    2.0654    1.9901 H   0  0  0  0  0  0  0  0  0  0  0  0
    6.6629    0.6612    0.8873 H   0  0  0  0  0  0  0  0  0  0  0  0
    6.9279    2.3175    0.2281 H   0  0  0  0  0  0  0  0  0  0  0  0
    4.5142    0.9453    0.3008 H   0  0  0  0  0  0  0  0  0  0  0  0
    4.6937    2.7437    0.2239 H   0  0  0  0  0  0  0  0  0  0  0  0
    2.8579    3.6522    4.4828 H   0  0  0  0  0  0  0  0  0  0  0  0
    5.6455   -0.6025    3.6604 H   0  0  0  0  0  0  0  0  0  0  0  0
    5.9079   -2.9805    3.2093 H   0  0  0  0  0  0  0  0  0  0  0  0
    4.1106   -4.1187    1.8105 H   0  0  0  0  0  0  0  0  0  0  0  0
    2.2520   -2.8621    0.9894 H   0  0  0  0  0  0  0  0  0  0  0  0
    1.8252    0.8591    1.5676 H   0  0  0  0  0  0  0  0  0  0  0  0
   -2.3065    1.6290   -0.6122 H   0  0  0  0  0  0  0  0  0  0  0  0
   -2.2771   -0.9699   -3.0844 H   0  0  0  0  0  0  0  0  0  0  0  0
   -4.2169   -1.6974   -4.4419 H   0  0  0  0  0  0  0  0  0  0  0  0
   -6.6238   -1.6262   -4.8950 H   0  0  0  0  0  0  0  0  0  0  0  0
   -8.8506   -0.8151   -4.3433 H   0  0  0  0  0  0  0  0  0  0  0  0
   -9.1711    0.7142   -2.4285 H   0  0  0  0  0  0  0  0  0  0  0  0
   -7.2521    1.3886   -1.1110 H   0  0  0  0  0  0  0  0  0  0  0  0
   -4.8693    1.3233   -0.6468 H   0  0  0  0  0  0  0  0  0  0  0  0
   -2.1371   -2.2281   -1.1671 H   0  0  0  0  0  0  0  0  0  0  0  0
  1  2  1  0
  2  3  1  0
  3  4  2  0
  4  5  1  0
  5  6  1  0
  6  7  2  0
  6  8  1  0
  8  9  1  0
  9 10  2  0
 10 11  1  0
 11 12  2  0
 12 13  1  0
 13 14  2  0
 14 15  1  0
 15 16  1  0
 16 17  2  0
 17 18  1  0
 18 19  1  0
 19 20  1  0
 20 21  2  0
 21 22  1  0
 22 23  2  0
 23 24  1  0
 24 25  2  0
 25 26  1  0
 26 27  2  0
 27 28  1  0
 28 29  2  0
 18 30  2  0
 30 31  1  0
  8  3  1  0
 14  9  1  0
 31 16  1  0
 29 20  1  0
 28 23  1  0
  1 32  1  0
  1 33  1  0
  1 34  1  0
  2 35  1  0
  2 36  1  0
  5 37  1  0
 10 38  1  0
 11 39  1  0
 12 40  1  0
 13 41  1  0
 15 42  1  0
 19 43  1  0
 21 44  1  0
 22 45  1  0
 24 46  1  0
 25 47  1  0
 26 48  1  0
 27 49  1  0
 29 50  1  0
 30 51  1  0
M  END
$$$$
[H]c1c(Cl)c([H])c(C([H])([H])[H])c([H])c1-c1nc(C(=O)N([H])C2([H])C([H])([H])C([H])([H])C([H])([H])C2([H])[H])no1
     RDKit          3D

 37 39  0  0  0  0  0  0  0  0999 V2000
    6.8767    0.8080    0.7444 C   0  0  0  0  0  0  0  0  0  0  0  0
    5.7944   -0.0229    0.1556 C   0  0  0  0  0  0  0  0  0  0  0  0
    6.0976   -1.1530   -0.5847 C   0  0  0  0  0  0  0  0  0  0  0  0
    5.0857   -1.9223   -1.1302 C   0  0  0  0  0  0  0  0  0  0  0  0
    5.4691   -3.3630   -2.0740 Cl  0  0  0  0  0  0  0  0  0  0  0  0
    3.7957   -1.5329   -0.9156 C   0  0  0  0  0  0  0  0  0  0  0  0
    3.4714   -0.4210   -0.1882 C   0  0  0  0  0  0  0  0  0  0  0  0
    4.4797    0.3321    0.3464 C   0  0  0  0  0  0  0  0  0  0  0  0
    2.0653   -0.0842   -0.0125 C   0  0  0  0  0  0  0  0  0  0  0  0
    0.9764   -0.7236   -0.4741 N   0  0  0  0  0  0  0  0  0  0  0  0
   -0.1495   -0.0918   -0.0929 C   0  0  0  0  0  0  0  0  0  0  0  0
    0.3015    0.9717    0.6286 N   0  0  0  0  0  0  0  0  0  0  0  0
    1.5877    0.9536    0.6604 O   0  0  0  0  0  0  0  0  0  0  0  0
   -1.5370   -0.4455   -0.3751 C   0  0  0  0  0  0  0  0  0  0  0  0
   -1.7363   -1.4770   -1.0672 O   0  0  0  0  0  0  0  0  0  0  0  0
   -2.5749    0.3602    0.1251 N   0  0  0  0  0  0  0  0  0  0  0  0
   -3.9405   -0.0076   -0.1657 C   0  0  0  0  0  0  0  0  0  0  0  0
   -4.6413   -0.3050    1.1407 C   0  0  0  0  0  0  0  0  0  0  0  0
   -6.0000    0.3107    1.0475 C   0  0  0  0  0  0  0  0  0  0  0  0
   -6.1031    0.9986   -0.2744 C   0  0  0  0  0  0  0  0  0  0  0  0
   -4.7086    1.1205   -0.8104 C   0  0  0  0  0  0  0  0  0  0  0  0
    6.4620    1.4579    1.5417 H   0  0  0  0  0  0  0  0  0  0  0  0
    7.2446    1.4780   -0.0502 H   0  0  0  0  0  0  0  0  0  0  0  0
    7.6542    0.1769    1.1943 H   0  0  0  0  0  0  0  0  0  0  0  0
    7.1252   -1.4685   -0.7591 H   0  0  0  0  0  0  0  0  0  0  0  0
    3.0184   -2.1534   -1.3543 H   0  0  0  0  0  0  0  0  0  0  0  0
    4.2461    1.2195    0.9278 H   0  0  0  0  0  0  0  0  0  0  0  0
   -2.3442    1.1965    0.6886 H   0  0  0  0  0  0  0  0  0  0  0  0
   -3.9914   -0.9220   -0.7750 H   0  0  0  0  0  0  0  0  0  0  0  0
   -4.7078   -1.4055    1.3317 H   0  0  0  0  0  0  0  0  0  0  0  0
   -4.0555    0.1233    1.9929 H   0  0  0  0  0  0  0  0  0  0  0  0
   -6.8086   -0.4740    1.0742 H   0  0  0  0  0  0  0  0  0  0  0  0
   -6.2121    1.0029    1.8895 H   0  0  0  0  0  0  0  0  0  0  0  0
   -6.5677    1.9937   -0.1046 H   0  0  0  0  0  0  0  0  0  0  0  0
   -6.7192    0.4224   -1.0002 H   0  0  0  0  0  0  0  0  0  0  0  0
   -4.2615    2.1085   -0.6460 H   0  0  0  0  0  0  0  0  0  0  0  0
   -4.6927    0.9382   -1.9054 H   0  0  0  0  0  0  0  0  0  0  0  0
  1  2  1  0
  2  3  2  0
  3  4  1  0
  4  5  1  0
  4  6  2  0
  6  7  1  0
  7  8  2  0
  7  9  1  0
  9 10  2  0
 10 11  1  0
 11 12  2  0
 12 13  1  0
 11 14  1  0
 14 15  2  0
 14 16  1  0
 16 17  1  0
 17 18  1  0
 18 19  1  0
 19 20  1  0
 20 21  1  0
  8  2  1  0
 13  9  1  0
 21 17  1  0
  1 22  1  0
  1 23  1  0
  1 24  1  0
  3 25  1  0
  6 26  1  0
  8 27  1  0
 16 28  1  0
 17 29  1  0
 18 30  1  0
 18 31  1  0
 19 32  1  0
 19 33  1  0
 20 34  1  0
 20 35  1  0
 21 36  1  0
 21 37  1  0
M  END
$$$$
[H]c1c([H])c(C([H])([H])N2C([H])([H])C([H])([H])C([H])([H])C2([H])[H])c([H])c([H])c1Sc1nnc(C([H])([H])[H])s1
     RDKit          3D

 36 38  0  0  0  0  0  0  0  0999 V2000
    5.7683    2.6137    0.9937 C   0  0  0  0  0  0  0  0  0  0  0  0
    5.3975    1.3353    0.2975 C   0  0  0  0  0  0  0  0  0  0  0  0
    6.1778    0.4826   -0.3602 N   0  0  0  0  0  0  0  0  0  0  0  0
    5.6790   -0.5499   -0.8850 N   0  0  0  0  0  0  0  0  0  0  0  0
    4.3756   -0.7877   -0.7823 C   0  0  0  0  0  0  0  0  0  0  0  0
    3.4214   -2.1687   -1.4302 S   0  0  0  0  0  0  0  0  0  0  0  0
    1.7056   -1.8989   -0.9458 C   0  0  0  0  0  0  0  0  0  0  0  0
    1.2222   -2.3954    0.2491 C   0  0  0  0  0  0  0  0  0  0  0  0
   -0.1109   -2.1833    0.6210 C   0  0  0  0  0  0  0  0  0  0  0  0
   -0.9705   -1.4769   -0.1924 C   0  0  0  0  0  0  0  0  0  0  0  0
   -2.3741   -1.2742    0.2254 C   0  0  0  0  0  0  0  0  0  0  0  0
   -3.0815   -0.2800   -0.5217 N   0  0  0  0  0  0  0  0  0  0  0  0
   -4.4353   -0.2271   -0.0117 C   0  0  0  0  0  0  0  0  0  0  0  0
   -4.4862    0.8445    1.0242 C   0  0  0  0  0  0  0  0  0  0  0  0
   -3.4166    1.8078    0.5946 C   0  0  0  0  0  0  0  0  0  0  0  0
   -2.4973    1.0206   -0.2728 C   0  0  0  0  0  0  0  0  0  0  0  0
   -0.4804   -0.9874   -1.3786 C   0  0  0  0  0  0  0  0  0  0  0  0
    0.8405   -1.1953   -1.7511 C   0  0  0  0  0  0  0  0  0  0  0  0
    3.8738    0.5798    0.1314 S   0  0  0  0  0  0  0  0  0  0  0  0
    5.9098    2.4781    2.0644 H   0  0  0  0  0  0  0  0  0  0  0  0
    6.6376    3.0301    0.4534 H   0  0  0  0  0  0  0  0  0  0  0  0
    4.9412    3.3615    0.8521 H   0  0  0  0  0  0  0  0  0  0  0  0
    1.8800   -2.9552    0.9072 H   0  0  0  0  0  0  0  0  0  0  0  0
   -0.4827   -2.5788    1.5655 H   0  0  0  0  0  0  0  0  0  0  0  0
   -2.3817   -0.9720    1.2929 H   0  0  0  0  0  0  0  0  0  0  0  0
   -2.9283   -2.2394    0.1653 H   0  0  0  0  0  0  0  0  0  0  0  0
   -5.1572   -0.0236   -0.8458 H   0  0  0  0  0  0  0  0  0  0  0  0
   -4.7489   -1.1901    0.4422 H   0  0  0  0  0  0  0  0  0  0  0  0
   -5.5096    1.2996    0.9846 H   0  0  0  0  0  0  0  0  0  0  0  0
   -4.3245    0.4531    2.0404 H   0  0  0  0  0  0  0  0  0  0  0  0
   -3.8642    2.6919    0.1105 H   0  0  0  0  0  0  0  0  0  0  0  0
   -2.8484    2.1617    1.4975 H   0  0  0  0  0  0  0  0  0  0  0  0
   -2.3329    1.5528   -1.2368 H   0  0  0  0  0  0  0  0  0  0  0  0
   -1.4807    0.9184    0.2065 H   0  0  0  0  0  0  0  0  0  0  0  0
   -1.1333   -0.4387   -2.0248 H   0  0  0  0  0  0  0  0  0  0  0  0
    1.2147   -0.8086   -2.6806 H   0  0  0  0  0  0  0  0  0  0  0  0
  1  2  1  0
  2  3  2  0
  3  4  1  0
  4  5  2  0
  5  6  1  0
  6  7  1  0
  7  8  2  0
  8  9  1  0
  9 10  2  0
 10 11  1  0
 11 12  1  0
 12 13  1  0
 13 14  1  0
 14 15  1  0
 15 16  1  0
 10 17  1  0
 17 18  2  0
  5 19  1  0
 19  2  1  0
 18  7  1  0
 16 12  1  0
  1 20  1  0
  1 21  1  0
  1 22  1  0
  8 23  1  0
  9 24  1  0
 11 25  1  0
 11 26  1  0
 13 27  1  0
 13 28  1  0
 14 29  1  0
 14 30  1  0
 15 31  1  0
 15 32  1  0
 16 33  1  0
 16 34  1  0
 17 35  1  0
 18 36  1  0
M  END
$$$$
[H]c1nc([H])n([H])c1C([H])([H])[C@]([H])(C(=O)N([H])[C@]([H])(C(=O)N([H])C(C([H])([H])[H])(C([H])([H])[H])C([H])([H])[H])C([H])([H])c1c([H])c([H])c(Cl)c([H])c1[H])N([H])[H]
     RDKit          3D

 53 54  0  0  0  0  0  0  0  0999 V2000
    2.5494   -0.4220    1.7334 N   0  0  0  0  0  0  0  0  0  0  0  0
    2.4838   -0.9578    0.4127 C   0  0  2  0  0  0  0  0  0  0  0  0
    3.4793   -0.3344   -0.5343 C   0  0  0  0  0  0  0  0  0  0  0  0
    4.8678   -0.5360   -0.0712 C   0  0  0  0  0  0  0  0  0  0  0  0
    5.7176   -1.5773   -0.3604 C   0  0  0  0  0  0  0  0  0  0  0  0
    6.9058   -1.3741    0.2702 N   0  0  0  0  0  0  0  0  0  0  0  0
    6.7843   -0.2316    0.9313 C   0  0  0  0  0  0  0  0  0  0  0  0
    5.5476    0.2943    0.7349 N   0  0  0  0  0  0  0  0  0  0  0  0
    1.1324   -0.7161   -0.1434 C   0  0  0  0  0  0  0  0  0  0  0  0
    0.8550   -1.1192   -1.3276 O   0  0  0  0  0  0  0  0  0  0  0  0
    0.1681   -0.0420    0.6451 N   0  0  0  0  0  0  0  0  0  0  0  0
   -1.1632    0.2494    0.2278 C   0  0  1  0  0  0  0  0  0  0  0  0
   -1.2794    1.1601   -0.9705 C   0  0  0  0  0  0  0  0  0  0  0  0
   -0.6734    2.4985   -0.7497 C   0  0  0  0  0  0  0  0  0  0  0  0
   -1.4279    3.5244   -0.1705 C   0  0  0  0  0  0  0  0  0  0  0  0
   -0.9364    4.7871    0.0531 C   0  0  0  0  0  0  0  0  0  0  0  0
    0.3646    5.0549   -0.3119 C   0  0  0  0  0  0  0  0  0  0  0  0
    1.0099    6.6734   -0.0304 Cl  0  0  0  0  0  0  0  0  0  0  0  0
    1.1354    4.0765   -0.8821 C   0  0  0  0  0  0  0  0  0  0  0  0
    0.6201    2.7978   -1.1026 C   0  0  0  0  0  0  0  0  0  0  0  0
   -1.9023   -1.0175    0.0387 C   0  0  0  0  0  0  0  0  0  0  0  0
   -1.3261   -2.1180    0.2508 O   0  0  0  0  0  0  0  0  0  0  0  0
   -3.2652   -0.9894   -0.3829 N   0  0  0  0  0  0  0  0  0  0  0  0
   -4.0330   -2.2012   -0.5830 C   0  0  0  0  0  0  0  0  0  0  0  0
   -4.1530   -3.0389    0.6486 C   0  0  0  0  0  0  0  0  0  0  0  0
   -5.4212   -1.8134   -1.0402 C   0  0  0  0  0  0  0  0  0  0  0  0
   -3.3280   -3.0078   -1.6780 C   0  0  0  0  0  0  0  0  0  0  0  0
    3.1149   -0.9982    2.3952 H   0  0  0  0  0  0  0  0  0  0  0  0
    2.7509    0.5846    1.7832 H   0  0  0  0  0  0  0  0  0  0  0  0
    2.6363   -2.0651    0.4394 H   0  0  0  0  0  0  0  0  0  0  0  0
    3.2888   -0.7646   -1.5403 H   0  0  0  0  0  0  0  0  0  0  0  0
    3.2690    0.7520   -0.5931 H   0  0  0  0  0  0  0  0  0  0  0  0
    5.5156   -2.4324   -0.9794 H   0  0  0  0  0  0  0  0  0  0  0  0
    7.5304    0.2581    1.5532 H   0  0  0  0  0  0  0  0  0  0  0  0
    5.1659    1.1726    1.1209 H   0  0  0  0  0  0  0  0  0  0  0  0
    0.4614    0.2614    1.6041 H   0  0  0  0  0  0  0  0  0  0  0  0
   -1.6541    0.8449    1.0649 H   0  0  0  0  0  0  0  0  0  0  0  0
   -0.8056    0.7361   -1.8746 H   0  0  0  0  0  0  0  0  0  0  0  0
   -2.3574    1.3417   -1.1522 H   0  0  0  0  0  0  0  0  0  0  0  0
   -2.4597    3.3427    0.1286 H   0  0  0  0  0  0  0  0  0  0  0  0
   -1.5094    5.5856    0.4991 H   0  0  0  0  0  0  0  0  0  0  0  0
    2.1526    4.2598   -1.1757 H   0  0  0  0  0  0  0  0  0  0  0  0
    1.2433    2.0318   -1.5640 H   0  0  0  0  0  0  0  0  0  0  0  0
   -3.6950   -0.0560   -0.5431 H   0  0  0  0  0  0  0  0  0  0  0  0
   -5.1487   -2.8418    1.1377 H   0  0  0  0  0  0  0  0  0  0  0  0
   -4.1449   -4.1365    0.3880 H   0  0  0  0  0  0  0  0  0  0  0  0
   -3.3753   -2.8609    1.4042 H   0  0  0  0  0  0  0  0  0  0  0  0
   -5.3285   -0.9518   -1.7311 H   0  0  0  0  0  0  0  0  0  0  0  0
   -5.9716   -2.6674   -1.4964 H   0  0  0  0  0  0  0  0  0  0  0  0
   -5.9550   -1.4318   -0.1298 H   0  0  0  0  0  0  0  0  0  0  0  0
   -2.8250   -3.8978   -1.2469 H   0  0  0  0  0  0  0  0  0  0  0  0
   -2.5523   -2.3962   -2.1790 H   0  0  0  0  0  0  0  0  0  0  0  0
   -4.0586   -3.2904   -2.4503 H   0  0  0  0  0  0  0  0  0  0  0  0
  1  2  1  0
  2  3  1  0
  3  4  1  0
  4  5  2  0
  5  6  1  0
  6  7  2  0
  7  8  1  0
  2  9  1  0
  9 10  2  0
  9 11  1  0
 11 12  1  0
 12 13  1  0
 13 14  1  0
 14 15  2  0
 15 16  1  0
 16 17  2  0
 17 18  1  0
 17 19  1  0
 19 20  2  0
 12 21  1  0
 21 22  2  0
 21 23  1  0
 23 24  1  0
 24 25  1  0
 24 26  1  0
 24 27  1  0
  8  4  1  0
 20 14  1  0
  1 28  1  0
  1 29  1  0
  2 30  1  1
  3 31  1  0
  3 32  1  0
  5 33  1  0
  7 34  1  0
  8 35  1  0
 11 36  1  0
 12 37  1  1
 13 38  1  0
 13 39  1  0
 15 40  1  0
 16 41  1  0
 19 42  1  0
 20 43  1  0
 23 44  1  0
 25 45  1  0
 25 46  1  0
 25 47  1  0
 26 48  1  0
 26 49  1  0
 26 50  1  0
 27 51  1  0
 27 52  1  0
 27 53  1  0
M  END
$$$$
[H]C1=C(c2oc(C(C([H])([H])[H])(C([H])([H])[H])C([H])([H])[H])c([H])c2[H])N(C([H])([H])C([H])([H])C([H])([H])N([H])C(=O)c2c([H])c([H])c(I)c([H])c2[H])c2c([H])c([H])c([H])c([H])c2N1[C@@]1([H])N([H])C([H])([H])C([H])([H])C([H])([H])C1([H])[H]
     RDKit          3D

 75 79  0  0  0  0  0  0  0  0999 V2000
   -1.3226   -5.5070   -0.3676 C   0  0  0  0  0  0  0  0  0  0  0  0
   -2.1524   -4.2836   -0.7754 C   0  0  0  0  0  0  0  0  0  0  0  0
   -2.6629   -4.5511   -2.1631 C   0  0  0  0  0  0  0  0  0  0  0  0
   -3.3501   -4.2736    0.1447 C   0  0  0  0  0  0  0  0  0  0  0  0
   -1.3154   -3.0551   -0.6736 C   0  0  0  0  0  0  0  0  0  0  0  0
   -0.0183   -2.9565   -1.0821 C   0  0  0  0  0  0  0  0  0  0  0  0
    0.3916   -1.6365   -0.8010 C   0  0  0  0  0  0  0  0  0  0  0  0
   -0.6718   -1.0059   -0.2408 C   0  0  0  0  0  0  0  0  0  0  0  0
   -1.6826   -1.8989   -0.1848 O   0  0  0  0  0  0  0  0  0  0  0  0
   -0.9025    0.3366    0.2912 C   0  0  0  0  0  0  0  0  0  0  0  0
   -2.1237    0.8838    0.0704 C   0  0  0  0  0  0  0  0  0  0  0  0
   -2.5440    2.1368    0.5014 N   0  0  0  0  0  0  0  0  0  0  0  0
   -3.7958    2.7563    0.1403 C   0  0  2  0  0  0  0  0  0  0  0  0
   -4.7337    1.8561   -0.6395 C   0  0  0  0  0  0  0  0  0  0  0  0
   -4.4572    1.9658   -2.1300 C   0  0  0  0  0  0  0  0  0  0  0  0
   -4.8111    3.3617   -2.6631 C   0  0  0  0  0  0  0  0  0  0  0  0
   -4.5830    4.3283   -1.5434 C   0  0  0  0  0  0  0  0  0  0  0  0
   -3.4644    3.8420   -0.7826 N   0  0  0  0  0  0  0  0  0  0  0  0
   -1.6030    2.9156    1.2673 C   0  0  0  0  0  0  0  0  0  0  0  0
   -2.0056    4.1419    1.7208 C   0  0  0  0  0  0  0  0  0  0  0  0
   -1.1355    4.9063    2.4693 C   0  0  0  0  0  0  0  0  0  0  0  0
    0.1116    4.4209    2.7462 C   0  0  0  0  0  0  0  0  0  0  0  0
    0.5136    3.1852    2.2880 C   0  0  0  0  0  0  0  0  0  0  0  0
   -0.3468    2.4112    1.5349 C   0  0  0  0  0  0  0  0  0  0  0  0
    0.0361    1.0887    1.0391 N   0  0  0  0  0  0  0  0  0  0  0  0
    1.3685    0.6714    1.3279 C   0  0  0  0  0  0  0  0  0  0  0  0
    1.5962   -0.4905    2.2169 C   0  0  0  0  0  0  0  0  0  0  0  0
    3.0896   -0.6936    2.4632 C   0  0  0  0  0  0  0  0  0  0  0  0
    3.8949   -0.7593    1.2814 N   0  0  0  0  0  0  0  0  0  0  0  0
    5.2734   -0.9048    1.4134 C   0  0  0  0  0  0  0  0  0  0  0  0
    5.7592   -1.0317    2.5937 O   0  0  0  0  0  0  0  0  0  0  0  0
    6.2662   -0.9167    0.3401 C   0  0  0  0  0  0  0  0  0  0  0  0
    7.5312   -0.3792    0.6697 C   0  0  0  0  0  0  0  0  0  0  0  0
    8.5144   -0.2725   -0.2725 C   0  0  0  0  0  0  0  0  0  0  0  0
    8.3462   -0.6730   -1.5753 C   0  0  0  0  0  0  0  0  0  0  0  0
    9.8845   -0.4450   -3.0219 I   0  0  0  0  0  0  0  0  0  0  0  0
    7.0945   -1.2062   -1.8980 C   0  0  0  0  0  0  0  0  0  0  0  0
    6.0729   -1.3250   -0.9477 C   0  0  0  0  0  0  0  0  0  0  0  0
   -0.9877   -5.3146    0.6429 H   0  0  0  0  0  0  0  0  0  0  0  0
   -2.0565   -6.3751   -0.3963 H   0  0  0  0  0  0  0  0  0  0  0  0
   -0.5850   -5.6698   -1.1447 H   0  0  0  0  0  0  0  0  0  0  0  0
   -3.5267   -3.9461   -2.4527 H   0  0  0  0  0  0  0  0  0  0  0  0
   -1.8547   -4.6100   -2.9305 H   0  0  0  0  0  0  0  0  0  0  0  0
   -3.0623   -5.6220   -2.1152 H   0  0  0  0  0  0  0  0  0  0  0  0
   -3.6104   -5.3626    0.2970 H   0  0  0  0  0  0  0  0  0  0  0  0
   -3.1068   -3.9105    1.1617 H   0  0  0  0  0  0  0  0  0  0  0  0
   -4.2484   -3.7870   -0.2954 H   0  0  0  0  0  0  0  0  0  0  0  0
    0.5646   -3.7477   -1.5331 H   0  0  0  0  0  0  0  0  0  0  0  0
    1.3753   -1.2815   -1.0363 H   0  0  0  0  0  0  0  0  0  0  0  0
   -2.7943    0.2557   -0.4835 H   0  0  0  0  0  0  0  0  0  0  0  0
   -4.3130    3.1292    1.0140 H   0  0  0  0  0  0  0  0  0  0  0  0
   -4.7558    0.8188   -0.3541 H   0  0  0  0  0  0  0  0  0  0  0  0
   -5.7743    2.2783   -0.4899 H   0  0  0  0  0  0  0  0  0  0  0  0
   -3.4108    1.7199   -2.3721 H   0  0  0  0  0  0  0  0  0  0  0  0
   -5.1021    1.2222   -2.6452 H   0  0  0  0  0  0  0  0  0  0  0  0
   -4.0408    3.5827   -3.4522 H   0  0  0  0  0  0  0  0  0  0  0  0
   -5.8404    3.3842   -3.0540 H   0  0  0  0  0  0  0  0  0  0  0  0
   -4.2072    5.3059   -1.9974 H   0  0  0  0  0  0  0  0  0  0  0  0
   -5.4629    4.5810   -0.9631 H   0  0  0  0  0  0  0  0  0  0  0  0
   -2.7527    3.4757   -1.4495 H   0  0  0  0  0  0  0  0  0  0  0  0
   -3.0215    4.5127    1.5111 H   0  0  0  0  0  0  0  0  0  0  0  0
   -1.4920    5.8681    2.7987 H   0  0  0  0  0  0  0  0  0  0  0  0
    0.8324    4.9984    3.3425 H   0  0  0  0  0  0  0  0  0  0  0  0
    1.4918    2.8107    2.5254 H   0  0  0  0  0  0  0  0  0  0  0  0
    2.0768    1.5171    1.5363 H   0  0  0  0  0  0  0  0  0  0  0  0
    1.7849    0.3479    0.3002 H   0  0  0  0  0  0  0  0  0  0  0  0
    1.1640   -1.4484    1.9776 H   0  0  0  0  0  0  0  0  0  0  0  0
    1.2043   -0.2706    3.2670 H   0  0  0  0  0  0  0  0  0  0  0  0
    3.4832    0.1131    3.1167 H   0  0  0  0  0  0  0  0  0  0  0  0
    3.1896   -1.6396    3.0383 H   0  0  0  0  0  0  0  0  0  0  0  0
    3.4924   -0.6977    0.3114 H   0  0  0  0  0  0  0  0  0  0  0  0
    7.7271   -0.0462    1.7007 H   0  0  0  0  0  0  0  0  0  0  0  0
    9.5000    0.1422   -0.0022 H   0  0  0  0  0  0  0  0  0  0  0  0
    6.9479   -1.5196   -2.8990 H   0  0  0  0  0  0  0  0  0  0  0  0
    5.1100   -1.7583   -1.2329 H   0  0  0  0  0  0  0  0  0  0  0  0
  1  2  1  0
  2  3  1  0
  2  4  1  0
  2  5  1  0
  5  6  2  0
  6  7  1  0
  7  8  2  0
  8  9  1  0
  8 10  1  0
 10 11  2  0
 11 12  1  0
 12 13  1  0
 13 14  1  0
 14 15  1  0
 15 16  1  0
 16 17  1  0
 17 18  1  0
 12 19  1  0
 19 20  2  0
 20 21  1  0
 21 22  2  0
 22 23  1  0
 23 24  2  0
 24 25  1  0
 25 26  1  0
 26 27  1  0
 27 28  1  0
 28 29  1  0
 29 30  1  0
 30 31  2  0
 30 32  1  0
 32 33  2  0
 33 34  1  0
 34 35  2  0
 35 36  1  0
 35 37  1  0
 37 38  2  0
  9  5  1  0
 25 10  1  0
 38 32  1  0
 18 13  1  0
 24 19  1  0
  1 39  1  0
  1 40  1  0
  1 41  1  0
  3 42  1  0
  3 43  1  0
  3 44  1  0
  4 45  1  0
  4 46  1  0
  4 47  1  0
  6 48  1  0
  7 49  1  0
 11 50  1  0
 13 51  1  1
 14 52  1  0
 14 53  1  0
 15 54  1  0
 15 55  1  0
 16 56  1  0
 16 57  1  0
 17 58  1  0
 17 59  1  0
 18 60  1  0
 20 61  1  0
 21 62  1  0
 22 63  1  0
 23 64  1  0
 26 65  1  0
 26 66  1  0
 27 67  1  0
 27 68  1  0
 28 69  1  0
 28 70  1  0
 29 71  1  0
 33 72  1  0
 34 73  1  0
 37 74  1  0
 38 75  1  0
M  END
$$$$
[H]c1nc(N([H])[H])c2c([H])c(-c3c([H])nc(N([H])[H])c(S(=O)(=O)C([H])([H])n4c([H])nc([H])c4N([H])C([H])([H])C([H])([H])[H])c3[H])c([H])c([H])c2n1
     RDKit          3D

 50 53  0  0  0  0  0  0  0  0999 V2000
   -7.5549    0.2085    0.3188 C   0  0  0  0  0  0  0  0  0  0  0  0
   -6.3883    1.0164    0.7937 C   0  0  0  0  0  0  0  0  0  0  0  0
   -5.1102    0.4956    0.3490 N   0  0  0  0  0  0  0  0  0  0  0  0
   -4.6785   -0.7890    0.7072 C   0  0  0  0  0  0  0  0  0  0  0  0
   -5.3543   -1.6842    1.4815 C   0  0  0  0  0  0  0  0  0  0  0  0
   -4.6152   -2.8161    1.6059 N   0  0  0  0  0  0  0  0  0  0  0  0
   -3.4968   -2.5921    0.9029 C   0  0  0  0  0  0  0  0  0  0  0  0
   -3.5012   -1.3721    0.3440 N   0  0  0  0  0  0  0  0  0  0  0  0
   -2.4513   -0.7838   -0.4910 C   0  0  0  0  0  0  0  0  0  0  0  0
   -1.3246    0.0756    0.5664 S   0  0  0  0  0  0  0  0  0  0  0  0
   -0.7276   -0.9590    1.5074 O   0  0  0  0  0  0  0  0  0  0  0  0
   -2.1103    1.0235    1.4140 O   0  0  0  0  0  0  0  0  0  0  0  0
   -0.0241    0.8239   -0.2849 C   0  0  0  0  0  0  0  0  0  0  0  0
    1.3121    0.5495   -0.0838 C   0  0  0  0  0  0  0  0  0  0  0  0
    2.3065    1.1825   -0.7943 C   0  0  0  0  0  0  0  0  0  0  0  0
    1.9501    2.1299   -1.7463 C   0  0  0  0  0  0  0  0  0  0  0  0
    0.6658    2.3993   -1.9455 N   0  0  0  0  0  0  0  0  0  0  0  0
   -0.3034    1.7735   -1.2438 C   0  0  0  0  0  0  0  0  0  0  0  0
   -1.6386    2.1241   -1.5238 N   0  0  0  0  0  0  0  0  0  0  0  0
    3.7304    0.8972   -0.5845 C   0  0  0  0  0  0  0  0  0  0  0  0
    4.7064    1.8561   -0.7631 C   0  0  0  0  0  0  0  0  0  0  0  0
    6.0422    1.6395   -0.5794 C   0  0  0  0  0  0  0  0  0  0  0  0
    6.4746    0.3818   -0.1873 C   0  0  0  0  0  0  0  0  0  0  0  0
    7.7862    0.1501   -0.0012 N   0  0  0  0  0  0  0  0  0  0  0  0
    8.1811   -1.0756    0.3788 C   0  0  0  0  0  0  0  0  0  0  0  0
    7.2631   -2.0409    0.5646 N   0  0  0  0  0  0  0  0  0  0  0  0
    5.9540   -1.8518    0.3908 C   0  0  0  0  0  0  0  0  0  0  0  0
    4.9677   -2.8544    0.5808 N   0  0  0  0  0  0  0  0  0  0  0  0
    5.5178   -0.6000   -0.0004 C   0  0  0  0  0  0  0  0  0  0  0  0
    4.1751   -0.3595   -0.1915 C   0  0  0  0  0  0  0  0  0  0  0  0
   -8.1892   -0.0877    1.1566 H   0  0  0  0  0  0  0  0  0  0  0  0
   -8.1924    0.8794   -0.3224 H   0  0  0  0  0  0  0  0  0  0  0  0
   -7.2591   -0.6644   -0.3059 H   0  0  0  0  0  0  0  0  0  0  0  0
   -6.5004    2.0978    0.5145 H   0  0  0  0  0  0  0  0  0  0  0  0
   -6.4203    1.0389    1.9214 H   0  0  0  0  0  0  0  0  0  0  0  0
   -4.5072    1.0994   -0.2500 H   0  0  0  0  0  0  0  0  0  0  0  0
   -6.3328   -1.5298    1.9359 H   0  0  0  0  0  0  0  0  0  0  0  0
   -2.6983   -3.3111    0.8053 H   0  0  0  0  0  0  0  0  0  0  0  0
   -1.9207   -1.6251   -0.9895 H   0  0  0  0  0  0  0  0  0  0  0  0
   -2.8983   -0.1562   -1.2621 H   0  0  0  0  0  0  0  0  0  0  0  0
    1.6014   -0.1826    0.6511 H   0  0  0  0  0  0  0  0  0  0  0  0
    2.6932    2.6556   -2.3314 H   0  0  0  0  0  0  0  0  0  0  0  0
   -2.3374    2.4369   -0.8388 H   0  0  0  0  0  0  0  0  0  0  0  0
   -1.9433    2.0568   -2.5345 H   0  0  0  0  0  0  0  0  0  0  0  0
    4.3850    2.8413   -1.0686 H   0  0  0  0  0  0  0  0  0  0  0  0
    6.7999    2.3932   -0.7208 H   0  0  0  0  0  0  0  0  0  0  0  0
    9.2517   -1.2790    0.5348 H   0  0  0  0  0  0  0  0  0  0  0  0
    4.2691   -2.7839    1.3517 H   0  0  0  0  0  0  0  0  0  0  0  0
    4.9658   -3.6732   -0.0845 H   0  0  0  0  0  0  0  0  0  0  0  0
    3.4792   -1.1549   -0.0327 H   0  0  0  0  0  0  0  0  0  0  0  0
  1  2  1  0
  2  3  1  0
  3  4  1  0
  4  5  2  0
  5  6  1  0
  6  7  2  0
  7  8  1  0
  8  9  1  0
  9 10  1  0
 10 11  2  0
 10 12  2  0
 10 13  1  0
 13 14  2  0
 14 15  1  0
 15 16  2  0
 16 17  1  0
 17 18  2  0
 18 19  1  0
 15 20  1  0
 20 21  2  0
 21 22  1  0
 22 23  2  0
 23 24  1  0
 24 25  2  0
 25 26  1  0
 26 27  2  0
 27 28  1  0
 27 29  1  0
 29 30  2  0
  8  4  1  0
 18 13  1  0
 30 20  1  0
 29 23  1  0
  1 31  1  0
  1 32  1  0
  1 33  1  0
  2 34  1  0
  2 35  1  0
  3 36  1  0
  5 37  1  0
  7 38  1  0
  9 39  1  0
  9 40  1  0
 14 41  1  0
 16 42  1  0
 19 43  1  0
 19 44  1  0
 21 45  1  0
 22 46  1  0
 25 47  1  0
 28 48  1  0
 28 49  1  0
 30 50  1  0
M  END
$$$$
[H]C1=NC(C([H])([H])[H])(C([H])([H])[H])C([H])([H])C(C([H])([H])[H])(C([H])([H])[H])C([H])([H])C1([H])C([H])([H])C(=O)N(C([H])([H])[H])C1([H])C([H])=C(c2c([H])c3c([H])c(C([H])([H])[H])nc([H])c3n2C([H])([H])[H])C1([H])[H]
     RDKit          3D

 67 70  0  0  0  0  0  0  0  0999 V2000
   10.4640   -0.9993   -0.6566 C   0  0  0  0  0  0  0  0  0  0  0  0
    9.1216   -0.5808   -0.1791 C   0  0  0  0  0  0  0  0  0  0  0  0
    7.9420   -1.0788   -0.6840 C   0  0  0  0  0  0  0  0  0  0  0  0
    6.7071   -0.6714   -0.2210 C   0  0  0  0  0  0  0  0  0  0  0  0
    5.3869   -0.9711   -0.5107 C   0  0  0  0  0  0  0  0  0  0  0  0
    4.5447   -0.2413    0.2880 C   0  0  0  0  0  0  0  0  0  0  0  0
    3.0597   -0.2751    0.2865 C   0  0  0  0  0  0  0  0  0  0  0  0
    2.1956   -0.9334   -0.3963 C   0  0  0  0  0  0  0  0  0  0  0  0
    1.0646   -0.3275    0.2779 C   0  0  0  0  0  0  0  0  0  0  0  0
    2.0427    0.4261    1.0553 C   0  0  0  0  0  0  0  0  0  0  0  0
    0.2702    0.4325   -0.6836 N   0  0  0  0  0  0  0  0  0  0  0  0
    0.9665    1.3481   -1.5399 C   0  0  0  0  0  0  0  0  0  0  0  0
   -1.1330    0.2164   -0.7088 C   0  0  0  0  0  0  0  0  0  0  0  0
   -1.7669    0.8966   -1.5504 O   0  0  0  0  0  0  0  0  0  0  0  0
   -1.7529   -0.7537    0.2137 C   0  0  0  0  0  0  0  0  0  0  0  0
   -3.2498   -0.8098    0.1275 C   0  0  0  0  0  0  0  0  0  0  0  0
   -3.8086    0.5494    0.4832 C   0  0  0  0  0  0  0  0  0  0  0  0
   -5.2185    0.4334    1.0161 C   0  0  0  0  0  0  0  0  0  0  0  0
   -5.1099   -0.1208    2.4267 C   0  0  0  0  0  0  0  0  0  0  0  0
   -5.7889    1.8250    1.1274 C   0  0  0  0  0  0  0  0  0  0  0  0
   -6.0881   -0.4768    0.2334 C   0  0  0  0  0  0  0  0  0  0  0  0
   -5.9460   -0.5180   -1.2329 C   0  0  0  0  0  0  0  0  0  0  0  0
   -7.0710   -1.4800   -1.6962 C   0  0  0  0  0  0  0  0  0  0  0  0
   -6.2748    0.7910   -1.9216 C   0  0  0  0  0  0  0  0  0  0  0  0
   -4.7744   -1.0967   -1.7630 N   0  0  0  0  0  0  0  0  0  0  0  0
   -3.6330   -1.2370   -1.2289 C   0  0  0  0  0  0  0  0  0  0  0  0
    5.3376    0.5123    1.0744 N   0  0  0  0  0  0  0  0  0  0  0  0
    4.8651    1.4482    2.0838 C   0  0  0  0  0  0  0  0  0  0  0  0
    6.6391    0.2702    0.7861 C   0  0  0  0  0  0  0  0  0  0  0  0
    7.8346    0.7579    1.2796 C   0  0  0  0  0  0  0  0  0  0  0  0
    9.0248    0.3436    0.8102 N   0  0  0  0  0  0  0  0  0  0  0  0
   11.2267   -0.9545    0.1422 H   0  0  0  0  0  0  0  0  0  0  0  0
   10.7893   -0.3880   -1.5286 H   0  0  0  0  0  0  0  0  0  0  0  0
   10.4011   -2.0472   -1.0307 H   0  0  0  0  0  0  0  0  0  0  0  0
    7.9951   -1.8143   -1.4708 H   0  0  0  0  0  0  0  0  0  0  0  0
    5.1136   -1.6893   -1.2713 H   0  0  0  0  0  0  0  0  0  0  0  0
    2.3428   -1.6840   -1.2018 H   0  0  0  0  0  0  0  0  0  0  0  0
    0.4327   -1.0153    0.8969 H   0  0  0  0  0  0  0  0  0  0  0  0
    2.0676    0.2568    2.1626 H   0  0  0  0  0  0  0  0  0  0  0  0
    2.0916    1.5237    0.8100 H   0  0  0  0  0  0  0  0  0  0  0  0
    1.7063    0.7630   -2.1265 H   0  0  0  0  0  0  0  0  0  0  0  0
    0.2028    1.7630   -2.2592 H   0  0  0  0  0  0  0  0  0  0  0  0
    1.4159    2.2020   -1.0066 H   0  0  0  0  0  0  0  0  0  0  0  0
   -1.4865   -0.4471    1.2691 H   0  0  0  0  0  0  0  0  0  0  0  0
   -1.2924   -1.7668    0.1115 H   0  0  0  0  0  0  0  0  0  0  0  0
   -3.6091   -1.5412    0.8988 H   0  0  0  0  0  0  0  0  0  0  0  0
   -3.7894    1.2570   -0.3373 H   0  0  0  0  0  0  0  0  0  0  0  0
   -3.1805    0.9462    1.3024 H   0  0  0  0  0  0  0  0  0  0  0  0
   -6.0368    0.1182    3.0032 H   0  0  0  0  0  0  0  0  0  0  0  0
   -4.1955    0.2177    2.9402 H   0  0  0  0  0  0  0  0  0  0  0  0
   -5.0637   -1.2333    2.3599 H   0  0  0  0  0  0  0  0  0  0  0  0
   -6.8652    1.7821    1.4695 H   0  0  0  0  0  0  0  0  0  0  0  0
   -5.7854    2.3901    0.1904 H   0  0  0  0  0  0  0  0  0  0  0  0
   -5.2036    2.4107    1.8731 H   0  0  0  0  0  0  0  0  0  0  0  0
   -7.1576   -0.1875    0.4551 H   0  0  0  0  0  0  0  0  0  0  0  0
   -6.0067   -1.5215    0.6228 H   0  0  0  0  0  0  0  0  0  0  0  0
   -8.0362   -1.1502   -1.2902 H   0  0  0  0  0  0  0  0  0  0  0  0
   -6.8584   -2.4956   -1.2782 H   0  0  0  0  0  0  0  0  0  0  0  0
   -7.0735   -1.5816   -2.7900 H   0  0  0  0  0  0  0  0  0  0  0  0
   -6.6272    0.5147   -2.9572 H   0  0  0  0  0  0  0  0  0  0  0  0
   -7.1429    1.2633   -1.4352 H   0  0  0  0  0  0  0  0  0  0  0  0
   -5.4193    1.4450   -2.0793 H   0  0  0  0  0  0  0  0  0  0  0  0
   -2.8363   -1.7135   -1.7924 H   0  0  0  0  0  0  0  0  0  0  0  0
    4.2803    2.2731    1.5866 H   0  0  0  0  0  0  0  0  0  0  0  0
    5.7380    1.9617    2.5546 H   0  0  0  0  0  0  0  0  0  0  0  0
    4.2517    0.9614    2.8643 H   0  0  0  0  0  0  0  0  0  0  0  0
    7.7595    1.5020    2.0764 H   0  0  0  0  0  0  0  0  0  0  0  0
  1  2  1  0
  2  3  2  0
  3  4  1  0
  4  5  1  0
  5  6  2  0
  6  7  1  0
  7  8  2  0
  8  9  1  0
  9 10  1  0
  9 11  1  0
 11 12  1  0
 11 13  1  0
 13 14  2  0
 13 15  1  0
 15 16  1  0
 16 17  1  0
 17 18  1  0
 18 19  1  0
 18 20  1  0
 18 21  1  0
 21 22  1  0
 22 23  1  0
 22 24  1  0
 22 25  1  0
 25 26  2  0
  6 27  1  0
 27 28  1  0
 27 29  1  0
 29 30  1  0
 30 31  2  0
 31  2  1  0
 29  4  2  0
 10  7  1  0
 26 16  1  0
  1 32  1  0
  1 33  1  0
  1 34  1  0
  3 35  1  0
  5 36  1  0
  8 37  1  0
  9 38  1  0
 10 39  1  0
 10 40  1  0
 12 41  1  0
 12 42  1  0
 12 43  1  0
 15 44  1  0
 15 45  1  0
 16 46  1  0
 17 47  1  0
 17 48  1  0
 19 49  1  0
 19 50  1  0
 19 51  1  0
 20 52  1  0
 20 53  1  0
 20 54  1  0
 21 55  1  0
 21 56  1  0
 23 57  1  0
 23 58  1  0
 23 59  1  0
 24 60  1  0
 24 61  1  0
 24 62  1  0
 26 63  1  0
 28 64  1  0
 28 65  1  0
 28 66  1  0
 30 67  1  0
M  END
$$$$
[H]Oc1c(OC([H])([H])[H])c([H])c(C(=O)N2C([H])([H])C([H])([H])C([H])(OC(=O)N([H])c3nc(C([H])([H])c4c(C([H])([H])[H])c([H])c([H])c([H])c4C([H])([H])[H])c([H])c([H])c3[H])C([H])([H])C2([H])[H])c([H])c1OC([H])([H])[H]
     RDKit          3D

 71 74  0  0  0  0  0  0  0  0999 V2000
    9.4579   -3.0564    1.2241 C   0  0  0  0  0  0  0  0  0  0  0  0
    9.5483   -1.6586    1.1287 O   0  0  0  0  0  0  0  0  0  0  0  0
    8.4690   -0.8475    0.7821 C   0  0  0  0  0  0  0  0  0  0  0  0
    7.2418   -1.3625    0.5085 C   0  0  0  0  0  0  0  0  0  0  0  0
    6.1276   -0.5658    0.1544 C   0  0  0  0  0  0  0  0  0  0  0  0
    4.8861   -1.2056   -0.1346 C   0  0  0  0  0  0  0  0  0  0  0  0
    4.9567   -2.5233   -0.1185 O   0  0  0  0  0  0  0  0  0  0  0  0
    3.6393   -0.6909   -0.4239 N   0  0  0  0  0  0  0  0  0  0  0  0
    2.5919   -1.7220   -0.6908 C   0  0  0  0  0  0  0  0  0  0  0  0
    1.7196   -1.2794   -1.8062 C   0  0  0  0  0  0  0  0  0  0  0  0
    1.0851    0.0734   -1.6017 C   0  0  0  0  0  0  0  0  0  0  0  0
    1.7592    0.9012   -0.5618 C   0  0  0  0  0  0  0  0  0  0  0  0
    3.2604    0.6730   -0.4682 C   0  0  0  0  0  0  0  0  0  0  0  0
   -0.3074    0.0087   -1.4871 O   0  0  0  0  0  0  0  0  0  0  0  0
   -1.2517    0.4435   -2.3328 C   0  0  0  0  0  0  0  0  0  0  0  0
   -0.7600    0.9873   -3.3819 O   0  0  0  0  0  0  0  0  0  0  0  0
   -2.6336    0.3824   -2.2231 N   0  0  0  0  0  0  0  0  0  0  0  0
   -3.3545   -0.1796   -1.1264 C   0  0  0  0  0  0  0  0  0  0  0  0
   -2.7756   -0.7305   -0.0271 C   0  0  0  0  0  0  0  0  0  0  0  0
   -3.5621   -1.2539    0.9925 C   0  0  0  0  0  0  0  0  0  0  0  0
   -4.9289   -1.2166    0.8940 C   0  0  0  0  0  0  0  0  0  0  0  0
   -5.5205   -0.6598   -0.2173 C   0  0  0  0  0  0  0  0  0  0  0  0
   -7.0161   -0.6283   -0.4045 C   0  0  0  0  0  0  0  0  0  0  0  0
   -7.6988    0.1524    0.6564 C   0  0  0  0  0  0  0  0  0  0  0  0
   -7.5899    1.5188    0.6967 C   0  0  0  0  0  0  0  0  0  0  0  0
   -6.8130    2.2983   -0.3027 C   0  0  0  0  0  0  0  0  0  0  0  0
   -8.2542    2.2201    1.7118 C   0  0  0  0  0  0  0  0  0  0  0  0
   -9.0070    1.5629    2.6579 C   0  0  0  0  0  0  0  0  0  0  0  0
   -9.1081    0.1888    2.6023 C   0  0  0  0  0  0  0  0  0  0  0  0
   -8.4699   -0.5357    1.6192 C   0  0  0  0  0  0  0  0  0  0  0  0
   -8.6226   -2.0070    1.5289 C   0  0  0  0  0  0  0  0  0  0  0  0
   -4.7164   -0.1723   -1.1657 N   0  0  0  0  0  0  0  0  0  0  0  0
    6.4190    0.7778    0.1172 C   0  0  0  0  0  0  0  0  0  0  0  0
    7.6654    1.3319    0.3928 C   0  0  0  0  0  0  0  0  0  0  0  0
    7.9151    2.6823    0.3448 O   0  0  0  0  0  0  0  0  0  0  0  0
    7.0265    3.7086    0.0311 C   0  0  0  0  0  0  0  0  0  0  0  0
    8.7025    0.5034    0.7296 C   0  0  0  0  0  0  0  0  0  0  0  0
    9.9710    1.0136    1.0143 O   0  0  0  0  0  0  0  0  0  0  0  0
    8.4852   -3.4155    1.6189 H   0  0  0  0  0  0  0  0  0  0  0  0
    9.6196   -3.5247    0.2311 H   0  0  0  0  0  0  0  0  0  0  0  0
   10.2375   -3.3715    1.9713 H   0  0  0  0  0  0  0  0  0  0  0  0
    7.0508   -2.4412    0.5514 H   0  0  0  0  0  0  0  0  0  0  0  0
    3.1455   -2.6131   -1.0288 H   0  0  0  0  0  0  0  0  0  0  0  0
    2.0553   -1.9920    0.2306 H   0  0  0  0  0  0  0  0  0  0  0  0
    0.8813   -2.0117   -1.8954 H   0  0  0  0  0  0  0  0  0  0  0  0
    2.2899   -1.3526   -2.7526 H   0  0  0  0  0  0  0  0  0  0  0  0
    1.2397    0.5914   -2.5764 H   0  0  0  0  0  0  0  0  0  0  0  0
    1.6514    1.9941   -0.7231 H   0  0  0  0  0  0  0  0  0  0  0  0
    1.2635    0.7095    0.4116 H   0  0  0  0  0  0  0  0  0  0  0  0
    3.5536    1.1801    0.4673 H   0  0  0  0  0  0  0  0  0  0  0  0
    3.7796    1.1633   -1.3091 H   0  0  0  0  0  0  0  0  0  0  0  0
   -3.2503    0.7842   -3.0060 H   0  0  0  0  0  0  0  0  0  0  0  0
   -1.7073   -0.7772    0.0866 H   0  0  0  0  0  0  0  0  0  0  0  0
   -3.1046   -1.6934    1.8688 H   0  0  0  0  0  0  0  0  0  0  0  0
   -5.5281   -1.6175    1.6892 H   0  0  0  0  0  0  0  0  0  0  0  0
   -7.3909   -1.6727   -0.4610 H   0  0  0  0  0  0  0  0  0  0  0  0
   -7.2310   -0.1448   -1.3717 H   0  0  0  0  0  0  0  0  0  0  0  0
   -5.7673    2.3286    0.0416 H   0  0  0  0  0  0  0  0  0  0  0  0
   -7.2023    3.3524   -0.3013 H   0  0  0  0  0  0  0  0  0  0  0  0
   -6.9014    1.8488   -1.3042 H   0  0  0  0  0  0  0  0  0  0  0  0
   -8.1686    3.2944    1.7441 H   0  0  0  0  0  0  0  0  0  0  0  0
   -9.5027    2.1328    3.4230 H   0  0  0  0  0  0  0  0  0  0  0  0
   -9.7012   -0.3423    3.3451 H   0  0  0  0  0  0  0  0  0  0  0  0
   -9.3784   -2.3073    2.3102 H   0  0  0  0  0  0  0  0  0  0  0  0
   -7.6633   -2.5131    1.6848 H   0  0  0  0  0  0  0  0  0  0  0  0
   -9.0579   -2.2282    0.5229 H   0  0  0  0  0  0  0  0  0  0  0  0
    5.6611    1.4746   -0.1481 H   0  0  0  0  0  0  0  0  0  0  0  0
    6.2047    3.3569   -0.6007 H   0  0  0  0  0  0  0  0  0  0  0  0
    6.6852    4.2416    0.9596 H   0  0  0  0  0  0  0  0  0  0  0  0
    7.6001    4.4351   -0.6173 H   0  0  0  0  0  0  0  0  0  0  0  0
   10.0991    1.9986    0.9646 H   0  0  0  0  0  0  0  0  0  0  0  0
  1  2  1  0
  2  3  1  0
  3  4  2  0
  4  5  1  0
  5  6  1  0
  6  7  2  0
  6  8  1  0
  8  9  1  0
  9 10  1  0
 10 11  1  0
 11 12  1  0
 12 13  1  0
 11 14  1  0
 14 15  1  0
 15 16  2  0
 15 17  1  0
 17 18  1  0
 18 19  2  0
 19 20  1  0
 20 21  2  0
 21 22  1  0
 22 23  1  0
 23 24  1  0
 24 25  2  0
 25 26  1  0
 25 27  1  0
 27 28  2  0
 28 29  1  0
 29 30  2  0
 30 31  1  0
 22 32  2  0
  5 33  2  0
 33 34  1  0
 34 35  1  0
 35 36  1  0
 34 37  2  0
 37 38  1  0
 37  3  1  0
 13  8  1  0
 32 18  1  0
 30 24  1  0
  1 39  1  0
  1 40  1  0
  1 41  1  0
  4 42  1  0
  9 43  1  0
  9 44  1  0
 10 45  1  0
 10 46  1  0
 11 47  1  0
 12 48  1  0
 12 49  1  0
 13 50  1  0
 13 51  1  0
 17 52  1  0
 19 53  1  0
 20 54  1  0
 21 55  1  0
 23 56  1  0
 23 57  1  0
 26 58  1  0
 26 59  1  0
 26 60  1  0
 27 61  1  0
 28 62  1  0
 29 63  1  0
 31 64  1  0
 31 65  1  0
 31 66  1  0
 33 67  1  0
 36 68  1  0
 36 69  1  0
 36 70  1  0
 38 71  1  0
M  END
$$$$
[H]Oc1c([H])c([H])c2c([H])c(-c3c([H])c([H])c(N4C([H])([H])C([H])([H])N(C([H])([H])[H])C([H])([H])C4([H])[H])c([H])c3[H])n([H])c2c1[H]
     RDKit          3D

 44 47  0  0  0  0  0  0  0  0999 V2000
    6.7888    1.0393   -0.2214 C   0  0  0  0  0  0  0  0  0  0  0  0
    5.6086    0.3132    0.2354 N   0  0  0  0  0  0  0  0  0  0  0  0
    4.7380    1.1840    0.9996 C   0  0  0  0  0  0  0  0  0  0  0  0
    3.6556    0.2920    1.6181 C   0  0  0  0  0  0  0  0  0  0  0  0
    2.9553   -0.4121    0.5639 N   0  0  0  0  0  0  0  0  0  0  0  0
    3.8247   -1.1657   -0.3429 C   0  0  0  0  0  0  0  0  0  0  0  0
    4.8221   -0.1719   -0.8892 C   0  0  0  0  0  0  0  0  0  0  0  0
    1.5493   -0.3838    0.4333 C   0  0  0  0  0  0  0  0  0  0  0  0
    0.7410   -0.0260    1.4883 C   0  0  0  0  0  0  0  0  0  0  0  0
   -0.6305   -0.0000    1.3027 C   0  0  0  0  0  0  0  0  0  0  0  0
   -1.2443   -0.3135    0.1156 C   0  0  0  0  0  0  0  0  0  0  0  0
   -2.6883   -0.2835   -0.0702 C   0  0  0  0  0  0  0  0  0  0  0  0
   -3.4192   -0.5738   -1.2021 C   0  0  0  0  0  0  0  0  0  0  0  0
   -4.7681   -0.4210   -0.9522 C   0  0  0  0  0  0  0  0  0  0  0  0
   -5.9255   -0.5752   -1.7066 C   0  0  0  0  0  0  0  0  0  0  0  0
   -7.1783   -0.3453   -1.1757 C   0  0  0  0  0  0  0  0  0  0  0  0
   -7.2350    0.0474    0.1470 C   0  0  0  0  0  0  0  0  0  0  0  0
   -8.4898    0.2947    0.7370 O   0  0  0  0  0  0  0  0  0  0  0  0
   -6.0992    0.2070    0.9156 C   0  0  0  0  0  0  0  0  0  0  0  0
   -4.8456   -0.0273    0.3696 C   0  0  0  0  0  0  0  0  0  0  0  0
   -3.5919    0.0465    0.8704 N   0  0  0  0  0  0  0  0  0  0  0  0
   -0.4427   -0.6721   -0.9428 C   0  0  0  0  0  0  0  0  0  0  0  0
    0.9346   -0.7058   -0.7831 C   0  0  0  0  0  0  0  0  0  0  0  0
    7.7042    0.4009   -0.1731 H   0  0  0  0  0  0  0  0  0  0  0  0
    6.6394    1.5012   -1.2120 H   0  0  0  0  0  0  0  0  0  0  0  0
    6.9843    1.8902    0.4881 H   0  0  0  0  0  0  0  0  0  0  0  0
    4.2777    1.9490    0.3358 H   0  0  0  0  0  0  0  0  0  0  0  0
    5.2744    1.6402    1.8624 H   0  0  0  0  0  0  0  0  0  0  0  0
    3.0335    0.8395    2.3148 H   0  0  0  0  0  0  0  0  0  0  0  0
    4.2285   -0.4701    2.2225 H   0  0  0  0  0  0  0  0  0  0  0  0
    4.4190   -1.8293    0.3558 H   0  0  0  0  0  0  0  0  0  0  0  0
    3.3042   -1.7502   -1.0889 H   0  0  0  0  0  0  0  0  0  0  0  0
    5.4309   -0.6745   -1.6478 H   0  0  0  0  0  0  0  0  0  0  0  0
    4.3220    0.7282   -1.3273 H   0  0  0  0  0  0  0  0  0  0  0  0
    1.1797    0.2263    2.4548 H   0  0  0  0  0  0  0  0  0  0  0  0
   -1.2404    0.2842    2.1464 H   0  0  0  0  0  0  0  0  0  0  0  0
   -2.9878   -0.8746   -2.1381 H   0  0  0  0  0  0  0  0  0  0  0  0
   -5.8299   -0.8790   -2.7196 H   0  0  0  0  0  0  0  0  0  0  0  0
   -8.0902   -0.4609   -1.7499 H   0  0  0  0  0  0  0  0  0  0  0  0
   -8.9151    1.2094    0.7179 H   0  0  0  0  0  0  0  0  0  0  0  0
   -6.1560    0.5136    1.9459 H   0  0  0  0  0  0  0  0  0  0  0  0
   -3.3195    0.3179    1.8467 H   0  0  0  0  0  0  0  0  0  0  0  0
   -0.8650   -0.9265   -1.8907 H   0  0  0  0  0  0  0  0  0  0  0  0
    1.5467   -0.9827   -1.6167 H   0  0  0  0  0  0  0  0  0  0  0  0
  1  2  1  0
  2  3  1  0
  3  4  1  0
  4  5  1  0
  5  6  1  0
  6  7  1  0
  5  8  1  0
  8  9  2  0
  9 10  1  0
 10 11  2  0
 11 12  1  0
 12 13  2  0
 13 14  1  0
 14 15  2  0
 15 16  1  0
 16 17  2  0
 17 18  1  0
 17 19  1  0
 19 20  2  0
 20 21  1  0
 11 22  1  0
 22 23  2  0
  7  2  1  0
 23  8  1  0
 21 12  1  0
 20 14  1  0
  1 24  1  0
  1 25  1  0
  1 26  1  0
  3 27  1  0
  3 28  1  0
  4 29  1  0
  4 30  1  0
  6 31  1  0
  6 32  1  0
  7 33  1  0
  7 34  1  0
  9 35  1  0
 10 36  1  0
 13 37  1  0
 15 38  1  0
 16 39  1  0
 18 40  1  0
 19 41  1  0
 21 42  1  0
 22 43  1  0
 23 44  1  0
M  END
$$$$
[H]/C(=C(/c1nc([H])c([H])c([H])c1C1([H])C([H])([H])C1([H])[H])C([H])([H])[H])c1nc(C(=O)N([H])c2nc(C(F)(F)F)c([H])c([H])c2[H])c(N([H])[H])nc1[H]
     RDKit          3D

 51 54  0  0  0  0  0  0  0  0999 V2000
   -2.8039   -2.4012   -1.3598 C   0  0  0  0  0  0  0  0  0  0  0  0
   -2.4032   -1.1162   -0.6051 C   0  0  0  0  0  0  0  0  0  0  0  0
   -1.2414   -1.1039   -0.0186 C   0  0  0  0  0  0  0  0  0  0  0  0
   -0.6694   -0.0273    0.7378 C   0  0  0  0  0  0  0  0  0  0  0  0
   -1.2563    0.8345    1.5818 C   0  0  0  0  0  0  0  0  0  0  0  0
   -0.5692    1.8341    2.1924 N   0  0  0  0  0  0  0  0  0  0  0  0
    0.7483    2.0216    1.9938 C   0  0  0  0  0  0  0  0  0  0  0  0
    1.4828    3.1027    2.5711 N   0  0  0  0  0  0  0  0  0  0  0  0
    1.3554    1.1360    1.1404 C   0  0  0  0  0  0  0  0  0  0  0  0
    0.6790    0.1475    0.5275 N   0  0  0  0  0  0  0  0  0  0  0  0
    2.8388    1.1326    0.9521 C   0  0  0  0  0  0  0  0  0  0  0  0
    3.4185    2.0400    1.6185 O   0  0  0  0  0  0  0  0  0  0  0  0
    3.4835    0.2294    0.1514 N   0  0  0  0  0  0  0  0  0  0  0  0
    4.8323    0.0090   -0.1317 C   0  0  0  0  0  0  0  0  0  0  0  0
    5.8288    0.7731    0.4025 C   0  0  0  0  0  0  0  0  0  0  0  0
    7.1886    0.4898    0.1354 C   0  0  0  0  0  0  0  0  0  0  0  0
    7.4916   -0.5722   -0.6702 C   0  0  0  0  0  0  0  0  0  0  0  0
    6.4898   -1.3564   -1.2129 C   0  0  0  0  0  0  0  0  0  0  0  0
    5.2184   -1.0363   -0.9250 N   0  0  0  0  0  0  0  0  0  0  0  0
    6.8118   -2.5348   -2.0771 C   0  0  0  0  0  0  0  0  0  0  0  0
    6.1711   -3.6677   -1.5784 F   0  0  0  0  0  0  0  0  0  0  0  0
    8.1819   -2.7313   -2.0699 F   0  0  0  0  0  0  0  0  0  0  0  0
    6.3203   -2.2718   -3.3312 F   0  0  0  0  0  0  0  0  0  0  0  0
   -3.2044    0.0799   -0.6730 C   0  0  0  0  0  0  0  0  0  0  0  0
   -2.7104    1.2540   -1.1552 N   0  0  0  0  0  0  0  0  0  0  0  0
   -3.3679    2.4180   -1.0493 C   0  0  0  0  0  0  0  0  0  0  0  0
   -4.6193    2.4894   -0.4219 C   0  0  0  0  0  0  0  0  0  0  0  0
   -5.1229    1.2997    0.0693 C   0  0  0  0  0  0  0  0  0  0  0  0
   -4.4532    0.0999   -0.0390 C   0  0  0  0  0  0  0  0  0  0  0  0
   -5.1204   -1.1070    0.4950 C   0  0  0  0  0  0  0  0  0  0  0  0
   -6.0433   -1.1318    1.6377 C   0  0  0  0  0  0  0  0  0  0  0  0
   -6.6551   -1.0394    0.2889 C   0  0  0  0  0  0  0  0  0  0  0  0
   -2.8620   -3.1734   -0.5956 H   0  0  0  0  0  0  0  0  0  0  0  0
   -3.6666   -2.1905   -1.9690 H   0  0  0  0  0  0  0  0  0  0  0  0
   -1.9331   -2.6329   -2.0610 H   0  0  0  0  0  0  0  0  0  0  0  0
   -0.6213   -2.0362   -0.0941 H   0  0  0  0  0  0  0  0  0  0  0  0
   -2.3134    0.7018    1.8046 H   0  0  0  0  0  0  0  0  0  0  0  0
    1.6511    3.1778    3.5739 H   0  0  0  0  0  0  0  0  0  0  0  0
    1.8954    3.8836    1.9776 H   0  0  0  0  0  0  0  0  0  0  0  0
    2.8077   -0.4808   -0.3584 H   0  0  0  0  0  0  0  0  0  0  0  0
    5.6469    1.6275    1.0501 H   0  0  0  0  0  0  0  0  0  0  0  0
    8.0110    1.0437    0.5276 H   0  0  0  0  0  0  0  0  0  0  0  0
    8.5529   -0.8228   -0.8869 H   0  0  0  0  0  0  0  0  0  0  0  0
   -2.9755    3.3376   -1.4464 H   0  0  0  0  0  0  0  0  0  0  0  0
   -5.1501    3.4203   -0.3313 H   0  0  0  0  0  0  0  0  0  0  0  0
   -6.1091    1.3838    0.5830 H   0  0  0  0  0  0  0  0  0  0  0  0
   -4.7483   -2.1089    0.1344 H   0  0  0  0  0  0  0  0  0  0  0  0
   -6.1449   -0.2542    2.3042 H   0  0  0  0  0  0  0  0  0  0  0  0
   -6.0761   -2.1166    2.1877 H   0  0  0  0  0  0  0  0  0  0  0  0
   -7.1616   -1.9394   -0.1494 H   0  0  0  0  0  0  0  0  0  0  0  0
   -7.1035   -0.1143   -0.0682 H   0  0  0  0  0  0  0  0  0  0  0  0
  1  2  1  0
  2  3  2  0
  3  4  1  0
  4  5  2  0
  5  6  1  0
  6  7  2  0
  7  8  1  0
  7  9  1  0
  9 10  2  0
  9 11  1  0
 11 12  2  0
 11 13  1  0
 13 14  1  0
 14 15  2  0
 15 16  1  0
 16 17  2  0
 17 18  1  0
 18 19  2  0
 18 20  1  0
 20 21  1  0
 20 22  1  0
 20 23  1  0
  2 24  1  0
 24 25  2  0
 25 26  1  0
 26 27  2  0
 27 28  1  0
 28 29  2  0
 29 30  1  0
 30 31  1  0
 31 32  1  0
 10  4  1  0
 19 14  1  0
 29 24  1  0
 32 30  1  0
  1 33  1  0
  1 34  1  0
  1 35  1  0
  3 36  1  0
  5 37  1  0
  8 38  1  0
  8 39  1  0
 13 40  1  0
 15 41  1  0
 16 42  1  0
 17 43  1  0
 26 44  1  0
 27 45  1  0
 28 46  1  0
 30 47  1  0
 31 48  1  0
 31 49  1  0
 32 50  1  0
 32 51  1  0
M  END
$$$$
[H]O[C@@]([H])(C([H])([H])N([H])C([H])([H])[H])[C@@]([H])(N(C(=O)c1sc([H])c([H])c1[H])C([H])([H])C([H])([H])C([H])([H])c1c([H])c([H])c(F)c([H])c1[H])C([H])([H])c1c([H])c([H])c2c(c1[H])OC([H])([H])O2
     RDKit          3D

 63 66  0  0  0  0  0  0  0  0999 V2000
   -2.4385   -0.8854   -3.1760 C   0  0  0  0  0  0  0  0  0  0  0  0
   -1.5464    0.2472   -3.0766 N   0  0  0  0  0  0  0  0  0  0  0  0
   -2.1397    1.3538   -2.3713 C   0  0  0  0  0  0  0  0  0  0  0  0
   -2.3624    1.0918   -0.8971 C   0  0  2  0  0  0  0  0  0  0  0  0
   -2.9785    2.1332   -0.2698 O   0  0  0  0  0  0  0  0  0  0  0  0
   -1.2022    0.5796   -0.1418 C   0  0  2  0  0  0  0  0  0  0  0  0
   -1.5886   -0.1997    1.0526 C   0  0  0  0  0  0  0  0  0  0  0  0
   -2.3978   -1.4152    0.8209 C   0  0  0  0  0  0  0  0  0  0  0  0
   -1.7694   -2.6343    0.5342 C   0  0  0  0  0  0  0  0  0  0  0  0
   -2.4952   -3.7872    0.3397 C   0  0  0  0  0  0  0  0  0  0  0  0
   -3.8701   -3.8001    0.4167 C   0  0  0  0  0  0  0  0  0  0  0  0
   -4.8331   -4.8142    0.2643 O   0  0  0  0  0  0  0  0  0  0  0  0
   -6.0636   -4.3057    0.7500 C   0  0  0  0  0  0  0  0  0  0  0  0
   -5.8667   -2.9008    0.7170 O   0  0  0  0  0  0  0  0  0  0  0  0
   -4.5024   -2.6056    0.6986 C   0  0  0  0  0  0  0  0  0  0  0  0
   -3.7698   -1.4545    0.8925 C   0  0  0  0  0  0  0  0  0  0  0  0
   -0.1245    1.5572    0.1174 N   0  0  0  0  0  0  0  0  0  0  0  0
    1.1226    1.3347   -0.6105 C   0  0  0  0  0  0  0  0  0  0  0  0
    2.0933    0.4636    0.1595 C   0  0  0  0  0  0  0  0  0  0  0  0
    3.3318    0.3349   -0.7371 C   0  0  0  0  0  0  0  0  0  0  0  0
    4.3750   -0.5007   -0.1128 C   0  0  0  0  0  0  0  0  0  0  0  0
    4.4367   -1.8639   -0.3079 C   0  0  0  0  0  0  0  0  0  0  0  0
    5.4039   -2.6401    0.2722 C   0  0  0  0  0  0  0  0  0  0  0  0
    6.3589   -2.0803    1.0794 C   0  0  0  0  0  0  0  0  0  0  0  0
    7.2910   -2.8907    1.6278 F   0  0  0  0  0  0  0  0  0  0  0  0
    6.3204   -0.7186    1.2914 C   0  0  0  0  0  0  0  0  0  0  0  0
    5.3417    0.0530    0.7020 C   0  0  0  0  0  0  0  0  0  0  0  0
   -0.2637    2.6166    1.0048 C   0  0  0  0  0  0  0  0  0  0  0  0
   -1.3951    2.7386    1.6616 O   0  0  0  0  0  0  0  0  0  0  0  0
    0.6501    3.6974    1.3855 C   0  0  0  0  0  0  0  0  0  0  0  0
    1.9181    4.0433    1.0531 C   0  0  0  0  0  0  0  0  0  0  0  0
    2.4576    5.1455    1.6057 C   0  0  0  0  0  0  0  0  0  0  0  0
    1.7033    5.8623    2.4748 C   0  0  0  0  0  0  0  0  0  0  0  0
    0.2536    4.9915    2.5099 S   0  0  0  0  0  0  0  0  0  0  0  0
   -2.5423   -1.2735   -4.1936 H   0  0  0  0  0  0  0  0  0  0  0  0
   -3.4546   -0.6332   -2.8031 H   0  0  0  0  0  0  0  0  0  0  0  0
   -1.9672   -1.7050   -2.5650 H   0  0  0  0  0  0  0  0  0  0  0  0
   -1.2359    0.5201   -4.0314 H   0  0  0  0  0  0  0  0  0  0  0  0
   -3.1656    1.5273   -2.8039 H   0  0  0  0  0  0  0  0  0  0  0  0
   -1.5618    2.2498   -2.5757 H   0  0  0  0  0  0  0  0  0  0  0  0
   -3.1367    0.2559   -0.9130 H   0  0  0  0  0  0  0  0  0  0  0  0
   -3.4848    2.7339   -0.8698 H   0  0  0  0  0  0  0  0  0  0  0  0
   -0.7181   -0.1826   -0.8519 H   0  0  0  0  0  0  0  0  0  0  0  0
   -0.6410   -0.5352    1.5516 H   0  0  0  0  0  0  0  0  0  0  0  0
   -2.0693    0.4475    1.8480 H   0  0  0  0  0  0  0  0  0  0  0  0
   -0.6841   -2.5985    0.4791 H   0  0  0  0  0  0  0  0  0  0  0  0
   -1.9983   -4.7194    0.1197 H   0  0  0  0  0  0  0  0  0  0  0  0
   -6.1949   -4.5963    1.8202 H   0  0  0  0  0  0  0  0  0  0  0  0
   -6.9260   -4.6225    0.1184 H   0  0  0  0  0  0  0  0  0  0  0  0
   -4.3099   -0.5522    1.1094 H   0  0  0  0  0  0  0  0  0  0  0  0
    0.8686    0.6600   -1.5160 H   0  0  0  0  0  0  0  0  0  0  0  0
    1.5371    2.2097   -1.1031 H   0  0  0  0  0  0  0  0  0  0  0  0
    2.3397    0.9041    1.1228 H   0  0  0  0  0  0  0  0  0  0  0  0
    1.6772   -0.5597    0.2366 H   0  0  0  0  0  0  0  0  0  0  0  0
    3.0459   -0.1493   -1.6911 H   0  0  0  0  0  0  0  0  0  0  0  0
    3.7042    1.3707   -0.8873 H   0  0  0  0  0  0  0  0  0  0  0  0
    3.6748   -2.3071   -0.9520 H   0  0  0  0  0  0  0  0  0  0  0  0
    5.4215   -3.7142    0.0959 H   0  0  0  0  0  0  0  0  0  0  0  0
    7.0740   -0.2979    1.9249 H   0  0  0  0  0  0  0  0  0  0  0  0
    5.3072    1.1186    0.8649 H   0  0  0  0  0  0  0  0  0  0  0  0
    2.5266    3.4367    0.3409 H   0  0  0  0  0  0  0  0  0  0  0  0
    3.4944    5.4897    1.3782 H   0  0  0  0  0  0  0  0  0  0  0  0
    1.9687    6.7749    3.0155 H   0  0  0  0  0  0  0  0  0  0  0  0
  1  2  1  0
  2  3  1  0
  3  4  1  0
  4  5  1  0
  4  6  1  0
  6  7  1  0
  7  8  1  0
  8  9  2  0
  9 10  1  0
 10 11  2  0
 11 12  1  0
 12 13  1  0
 13 14  1  0
 14 15  1  0
 15 16  2  0
  6 17  1  0
 17 18  1  0
 18 19  1  0
 19 20  1  0
 20 21  1  0
 21 22  2  0
 22 23  1  0
 23 24  2  0
 24 25  1  0
 24 26  1  0
 26 27  2  0
 17 28  1  0
 28 29  2  0
 28 30  1  0
 30 31  2  0
 31 32  1  0
 32 33  2  0
 33 34  1  0
 16  8  1  0
 27 21  1  0
 34 30  1  0
 15 11  1  0
  1 35  1  0
  1 36  1  0
  1 37  1  0
  2 38  1  0
  3 39  1  0
  3 40  1  0
  4 41  1  6
  5 42  1  0
  6 43  1  6
  7 44  1  0
  7 45  1  0
  9 46  1  0
 10 47  1  0
 13 48  1  0
 13 49  1  0
 16 50  1  0
 18 51  1  0
 18 52  1  0
 19 53  1  0
 19 54  1  0
 20 55  1  0
 20 56  1  0
 22 57  1  0
 23 58  1  0
 26 59  1  0
 27 60  1  0
 31 61  1  0
 32 62  1  0
 33 63  1  0
M  END
$$$$
[H]c1nn(C([H])([H])C([H])([H])N(c2nc([H])c(C3([H])C([H])([H])C([H])([H])C([H])([H])C3([H])[H])c([H])c2[H])C([H])(C([H])([H])[H])C([H])([H])[H])c([H])c1-c1c([H])c([H])c2c(c([H])nn2[H])c1[H]
     RDKit          3D

 61 65  0  0  0  0  0  0  0  0999 V2000
    0.5655    0.1956   -1.5744 C   0  0  0  0  0  0  0  0  0  0  0  0
    0.1202    1.4798   -0.9603 C   0  0  0  0  0  0  0  0  0  0  0  0
    1.2274    2.5229   -0.9803 C   0  0  0  0  0  0  0  0  0  0  0  0
   -0.5183    1.3972    0.3263 N   0  0  0  0  0  0  0  0  0  0  0  0
   -0.0852    1.6027    1.6170 C   0  0  0  0  0  0  0  0  0  0  0  0
    0.8183    0.8534    2.4492 C   0  0  0  0  0  0  0  0  0  0  0  0
    2.1712    0.7552    2.0073 N   0  0  0  0  0  0  0  0  0  0  0  0
    2.8140   -0.1779    1.2890 C   0  0  0  0  0  0  0  0  0  0  0  0
    4.1357    0.1590    1.0984 C   0  0  0  0  0  0  0  0  0  0  0  0
    4.2674    1.3688    1.7507 C   0  0  0  0  0  0  0  0  0  0  0  0
    3.0807    1.6815    2.2724 N   0  0  0  0  0  0  0  0  0  0  0  0
    5.1980   -0.5543    0.3820 C   0  0  0  0  0  0  0  0  0  0  0  0
    4.9000   -1.3173   -0.7079 C   0  0  0  0  0  0  0  0  0  0  0  0
    5.8969   -2.0008   -1.4020 C   0  0  0  0  0  0  0  0  0  0  0  0
    7.2240   -1.9257   -1.0049 C   0  0  0  0  0  0  0  0  0  0  0  0
    8.3716   -2.4487   -1.4503 N   0  0  0  0  0  0  0  0  0  0  0  0
    9.3511   -2.0285   -0.6680 N   0  0  0  0  0  0  0  0  0  0  0  0
    8.8960   -1.2355    0.2942 C   0  0  0  0  0  0  0  0  0  0  0  0
    7.5323   -1.1440    0.1122 C   0  0  0  0  0  0  0  0  0  0  0  0
    6.5189   -0.4845    0.7705 C   0  0  0  0  0  0  0  0  0  0  0  0
   -1.9282    0.9917    0.2022 C   0  0  0  0  0  0  0  0  0  0  0  0
   -2.9290    1.9121    0.0057 C   0  0  0  0  0  0  0  0  0  0  0  0
   -4.2565    1.5563   -0.1138 C   0  0  0  0  0  0  0  0  0  0  0  0
   -4.5974    0.2055   -0.0315 C   0  0  0  0  0  0  0  0  0  0  0  0
   -3.5865   -0.6769    0.1630 C   0  0  0  0  0  0  0  0  0  0  0  0
   -2.2895   -0.2994    0.2769 N   0  0  0  0  0  0  0  0  0  0  0  0
   -6.0169   -0.1310   -0.1653 C   0  0  0  0  0  0  0  0  0  0  0  0
   -6.3327   -1.1603   -1.2076 C   0  0  0  0  0  0  0  0  0  0  0  0
   -7.8090   -1.4456   -0.8991 C   0  0  0  0  0  0  0  0  0  0  0  0
   -7.9228   -1.3131    0.6158 C   0  0  0  0  0  0  0  0  0  0  0  0
   -6.5826   -0.7868    1.0927 C   0  0  0  0  0  0  0  0  0  0  0  0
   -0.1034   -0.1630   -2.4064 H   0  0  0  0  0  0  0  0  0  0  0  0
    1.5812    0.2843   -2.0595 H   0  0  0  0  0  0  0  0  0  0  0  0
    0.5383   -0.6378   -0.8348 H   0  0  0  0  0  0  0  0  0  0  0  0
   -0.6165    1.8999   -1.7259 H   0  0  0  0  0  0  0  0  0  0  0  0
    1.2902    3.0609   -1.9575 H   0  0  0  0  0  0  0  0  0  0  0  0
    0.9623    3.2893   -0.2296 H   0  0  0  0  0  0  0  0  0  0  0  0
    2.2292    2.0788   -0.8247 H   0  0  0  0  0  0  0  0  0  0  0  0
    0.2950    2.7232    1.6216 H   0  0  0  0  0  0  0  0  0  0  0  0
   -1.0296    1.7932    2.2723 H   0  0  0  0  0  0  0  0  0  0  0  0
    0.8800    1.3632    3.4783 H   0  0  0  0  0  0  0  0  0  0  0  0
    0.4263   -0.1601    2.7804 H   0  0  0  0  0  0  0  0  0  0  0  0
    2.3718   -1.1065    0.8876 H   0  0  0  0  0  0  0  0  0  0  0  0
    5.1900    1.9376    1.8081 H   0  0  0  0  0  0  0  0  0  0  0  0
    3.8758   -1.4030   -1.0509 H   0  0  0  0  0  0  0  0  0  0  0  0
    5.6751   -2.6099   -2.2685 H   0  0  0  0  0  0  0  0  0  0  0  0
    8.4247   -3.0752   -2.2788 H   0  0  0  0  0  0  0  0  0  0  0  0
    9.4182   -0.7302    1.0883 H   0  0  0  0  0  0  0  0  0  0  0  0
    6.7867    0.1112    1.6298 H   0  0  0  0  0  0  0  0  0  0  0  0
   -2.6825    2.9601   -0.0604 H   0  0  0  0  0  0  0  0  0  0  0  0
   -4.9921    2.3320   -0.2675 H   0  0  0  0  0  0  0  0  0  0  0  0
   -3.7987   -1.7249    0.2325 H   0  0  0  0  0  0  0  0  0  0  0  0
   -6.6546    0.7463   -0.3478 H   0  0  0  0  0  0  0  0  0  0  0  0
   -5.7799   -2.1062   -1.0543 H   0  0  0  0  0  0  0  0  0  0  0  0
   -6.2950   -0.7712   -2.2350 H   0  0  0  0  0  0  0  0  0  0  0  0
   -8.4600   -0.6548   -1.3476 H   0  0  0  0  0  0  0  0  0  0  0  0
   -8.1153   -2.4379   -1.2602 H   0  0  0  0  0  0  0  0  0  0  0  0
   -8.2103   -2.2674    1.0948 H   0  0  0  0  0  0  0  0  0  0  0  0
   -8.7314   -0.5786    0.8880 H   0  0  0  0  0  0  0  0  0  0  0  0
   -5.9583   -1.6398    1.4013 H   0  0  0  0  0  0  0  0  0  0  0  0
   -6.7520   -0.0653    1.8983 H   0  0  0  0  0  0  0  0  0  0  0  0
  1  2  1  0
  2  3  1  0
  2  4  1  0
  4  5  1  0
  5  6  1  0
  6  7  1  0
  7  8  1  0
  8  9  2  0
  9 10  1  0
 10 11  2  0
  9 12  1  0
 12 13  2  0
 13 14  1  0
 14 15  2  0
 15 16  1  0
 16 17  1  0
 17 18  2  0
 18 19  1  0
 19 20  2  0
  4 21  1  0
 21 22  2  0
 22 23  1  0
 23 24  2  0
 24 25  1  0
 25 26  2  0
 24 27  1  0
 27 28  1  0
 28 29  1  0
 29 30  1  0
 30 31  1  0
 11  7  1  0
 20 12  1  0
 26 21  1  0
 31 27  1  0
 19 15  1  0
  1 32  1  0
  1 33  1  0
  1 34  1  0
  2 35  1  0
  3 36  1  0
  3 37  1  0
  3 38  1  0
  5 39  1  0
  5 40  1  0
  6 41  1  0
  6 42  1  0
  8 43  1  0
 10 44  1  0
 13 45  1  0
 14 46  1  0
 16 47  1  0
 18 48  1  0
 20 49  1  0
 22 50  1  0
 23 51  1  0
 25 52  1  0
 27 53  1  0
 28 54  1  0
 28 55  1  0
 29 56  1  0
 29 57  1  0
 30 58  1  0
 30 59  1  0
 31 60  1  0
 31 61  1  0
M  END
$$$$
[H]c1c([H])c([H])c(C([H])([H])[C@@]([H])(C(=O)N([H])C([H])([H])C2([H])C([H])([H])C([H])([H])C([H])([H])C([H])([H])C2([H])[H])N([H])C(=O)[C@]([H])(C([H])([H])N([H])S(=O)(=O)c2c([H])c([H])c(OC([H])([H])C([H])([H])C([H])([H])C([H])([H])[H])c(F)c2[H])C2([H])C([H])([H])C([H])([H])C([H])([H])C([H])([H])C2([H])[H])c([H])c1[H]
     RDKit          3D

 95 98  0  0  0  0  0  0  0  0999 V2000
    9.1982   -2.4011    3.1956 C   0  0  0  0  0  0  0  0  0  0  0  0
   10.1995   -1.2949    3.0508 C   0  0  0  0  0  0  0  0  0  0  0  0
    9.5264   -0.1445    2.3111 C   0  0  0  0  0  0  0  0  0  0  0  0
    9.0833   -0.6323    0.9736 C   0  0  0  0  0  0  0  0  0  0  0  0
    8.4427    0.2685    0.1578 O   0  0  0  0  0  0  0  0  0  0  0  0
    7.2510    0.9035    0.3266 C   0  0  0  0  0  0  0  0  0  0  0  0
    6.3840    0.7524    1.3828 C   0  0  0  0  0  0  0  0  0  0  0  0
    5.1702    1.4449    1.4798 C   0  0  0  0  0  0  0  0  0  0  0  0
    4.8036    2.3207    0.4883 C   0  0  0  0  0  0  0  0  0  0  0  0
    5.6564    2.4843   -0.5755 C   0  0  0  0  0  0  0  0  0  0  0  0
    6.8219    1.8148   -0.6608 C   0  0  0  0  0  0  0  0  0  0  0  0
    7.6324    2.0072   -1.7278 F   0  0  0  0  0  0  0  0  0  0  0  0
    3.3125    3.2232    0.5285 S   0  0  0  0  0  0  0  0  0  0  0  0
    3.5160    4.5342   -0.1437 O   0  0  0  0  0  0  0  0  0  0  0  0
    2.9503    3.4566    1.9739 O   0  0  0  0  0  0  0  0  0  0  0  0
    2.0577    2.3120   -0.2680 N   0  0  0  0  0  0  0  0  0  0  0  0
    1.8220    1.0778    0.3935 C   0  0  0  0  0  0  0  0  0  0  0  0
    0.7788    0.1841   -0.1712 C   0  0  2  0  0  0  0  0  0  0  0  0
    0.9859   -0.2924   -1.5618 C   0  0  0  0  0  0  0  0  0  0  0  0
    1.0707    0.7322   -2.6344 C   0  0  0  0  0  0  0  0  0  0  0  0
    2.4740    0.6931   -3.2608 C   0  0  0  0  0  0  0  0  0  0  0  0
    2.5070   -0.6425   -4.0176 C   0  0  0  0  0  0  0  0  0  0  0  0
    2.2802   -1.7432   -3.0302 C   0  0  0  0  0  0  0  0  0  0  0  0
    2.1652   -1.2545   -1.5976 C   0  0  0  0  0  0  0  0  0  0  0  0
   -0.5977    0.7155    0.0517 C   0  0  0  0  0  0  0  0  0  0  0  0
   -0.7285    1.8359    0.6121 O   0  0  0  0  0  0  0  0  0  0  0  0
   -1.7445    0.0123   -0.3403 N   0  0  0  0  0  0  0  0  0  0  0  0
   -3.0957    0.4927   -0.1456 C   0  0  1  0  0  0  0  0  0  0  0  0
   -3.7585    0.7768   -1.4778 C   0  0  0  0  0  0  0  0  0  0  0  0
   -3.8334   -0.4290   -2.3542 C   0  0  0  0  0  0  0  0  0  0  0  0
   -4.9265   -1.2614   -2.3348 C   0  0  0  0  0  0  0  0  0  0  0  0
   -4.9425   -2.3680   -3.1632 C   0  0  0  0  0  0  0  0  0  0  0  0
   -3.8825   -2.6365   -3.9967 C   0  0  0  0  0  0  0  0  0  0  0  0
   -2.7676   -1.8213   -4.0422 C   0  0  0  0  0  0  0  0  0  0  0  0
   -2.7640   -0.7231   -3.2128 C   0  0  0  0  0  0  0  0  0  0  0  0
   -3.8961   -0.3549    0.7509 C   0  0  0  0  0  0  0  0  0  0  0  0
   -3.3689   -1.3971    1.2243 O   0  0  0  0  0  0  0  0  0  0  0  0
   -5.2217   -0.0799    1.1213 N   0  0  0  0  0  0  0  0  0  0  0  0
   -6.0373   -0.8719    1.9869 C   0  0  0  0  0  0  0  0  0  0  0  0
   -7.4203   -0.2842    2.1724 C   0  0  0  0  0  0  0  0  0  0  0  0
   -8.2697   -1.1193    3.0772 C   0  0  0  0  0  0  0  0  0  0  0  0
   -9.5551   -0.4883    3.4852 C   0  0  0  0  0  0  0  0  0  0  0  0
   -9.6904    0.9134    2.8749 C   0  0  0  0  0  0  0  0  0  0  0  0
   -8.4686    1.6629    3.3673 C   0  0  0  0  0  0  0  0  0  0  0  0
   -7.2937    1.1484    2.5860 C   0  0  0  0  0  0  0  0  0  0  0  0
    9.4227   -2.9496    4.1497 H   0  0  0  0  0  0  0  0  0  0  0  0
    9.3141   -3.1745    2.3939 H   0  0  0  0  0  0  0  0  0  0  0  0
    8.1447   -2.0399    3.2291 H   0  0  0  0  0  0  0  0  0  0  0  0
   11.0933   -1.6393    2.4909 H   0  0  0  0  0  0  0  0  0  0  0  0
   10.5840   -0.9296    4.0348 H   0  0  0  0  0  0  0  0  0  0  0  0
    8.7329    0.3067    2.8992 H   0  0  0  0  0  0  0  0  0  0  0  0
   10.3048    0.6568    2.1749 H   0  0  0  0  0  0  0  0  0  0  0  0
    8.3999   -1.5243    1.0912 H   0  0  0  0  0  0  0  0  0  0  0  0
    9.9868   -1.0761    0.4704 H   0  0  0  0  0  0  0  0  0  0  0  0
    6.6158    0.0602    2.1761 H   0  0  0  0  0  0  0  0  0  0  0  0
    4.5137    1.3023    2.3240 H   0  0  0  0  0  0  0  0  0  0  0  0
    5.3876    3.1689   -1.3683 H   0  0  0  0  0  0  0  0  0  0  0  0
    1.2300    2.9169   -0.3682 H   0  0  0  0  0  0  0  0  0  0  0  0
    2.7390    0.4778    0.5668 H   0  0  0  0  0  0  0  0  0  0  0  0
    1.4759    1.3397    1.4386 H   0  0  0  0  0  0  0  0  0  0  0  0
    0.8039   -0.7513    0.4778 H   0  0  0  0  0  0  0  0  0  0  0  0
    0.0999   -0.9489   -1.8130 H   0  0  0  0  0  0  0  0  0  0  0  0
    0.4064    0.4631   -3.5243 H   0  0  0  0  0  0  0  0  0  0  0  0
    0.7541    1.7466   -2.3804 H   0  0  0  0  0  0  0  0  0  0  0  0
    3.2754    0.7163   -2.5276 H   0  0  0  0  0  0  0  0  0  0  0  0
    2.5892    1.5465   -3.9615 H   0  0  0  0  0  0  0  0  0  0  0  0
    3.4731   -0.7449   -4.5721 H   0  0  0  0  0  0  0  0  0  0  0  0
    1.7163   -0.5732   -4.7936 H   0  0  0  0  0  0  0  0  0  0  0  0
    1.3046   -2.2296   -3.2748 H   0  0  0  0  0  0  0  0  0  0  0  0
    3.0588   -2.5313   -3.1199 H   0  0  0  0  0  0  0  0  0  0  0  0
    1.8869   -2.1242   -0.9818 H   0  0  0  0  0  0  0  0  0  0  0  0
    3.0896   -0.8277   -1.2143 H   0  0  0  0  0  0  0  0  0  0  0  0
   -1.6350   -0.9150   -0.7981 H   0  0  0  0  0  0  0  0  0  0  0  0
   -2.9789    1.5131    0.3323 H   0  0  0  0  0  0  0  0  0  0  0  0
   -3.1968    1.5448   -2.0460 H   0  0  0  0  0  0  0  0  0  0  0  0
   -4.7820    1.1864   -1.3413 H   0  0  0  0  0  0  0  0  0  0  0  0
   -5.7799   -1.0459   -1.6717 H   0  0  0  0  0  0  0  0  0  0  0  0
   -5.8216   -3.0073   -3.1243 H   0  0  0  0  0  0  0  0  0  0  0  0
   -3.9382   -3.5216   -4.6336 H   0  0  0  0  0  0  0  0  0  0  0  0
   -1.9573   -2.0716   -4.7132 H   0  0  0  0  0  0  0  0  0  0  0  0
   -1.9099   -0.0661   -3.2245 H   0  0  0  0  0  0  0  0  0  0  0  0
   -5.6523    0.8015    0.7160 H   0  0  0  0  0  0  0  0  0  0  0  0
   -6.1599   -1.8742    1.4817 H   0  0  0  0  0  0  0  0  0  0  0  0
   -5.5376   -1.1106    2.9468 H   0  0  0  0  0  0  0  0  0  0  0  0
   -7.9058   -0.2911    1.1726 H   0  0  0  0  0  0  0  0  0  0  0  0
   -8.4832   -2.1130    2.6377 H   0  0  0  0  0  0  0  0  0  0  0  0
   -7.6807   -1.3099    4.0085 H   0  0  0  0  0  0  0  0  0  0  0  0
  -10.4171   -1.0585    3.0798 H   0  0  0  0  0  0  0  0  0  0  0  0
   -9.6816   -0.3600    4.5764 H   0  0  0  0  0  0  0  0  0  0  0  0
   -9.5595    0.8387    1.7556 H   0  0  0  0  0  0  0  0  0  0  0  0
  -10.6290    1.3860    3.1550 H   0  0  0  0  0  0  0  0  0  0  0  0
   -8.6195    2.7240    3.1275 H   0  0  0  0  0  0  0  0  0  0  0  0
   -8.3625    1.5144    4.4604 H   0  0  0  0  0  0  0  0  0  0  0  0
   -6.3903    1.2676    3.2207 H   0  0  0  0  0  0  0  0  0  0  0  0
   -7.1519    1.8036    1.7036 H   0  0  0  0  0  0  0  0  0  0  0  0
  1  2  1  0
  2  3  1  0
  3  4  1  0
  4  5  1  0
  5  6  1  0
  6  7  2  0
  7  8  1  0
  8  9  2  0
  9 10  1  0
 10 11  2  0
 11 12  1  0
  9 13  1  0
 13 14  2  0
 13 15  2  0
 13 16  1  0
 16 17  1  0
 17 18  1  0
 18 19  1  0
 19 20  1  0
 20 21  1  0
 21 22  1  0
 22 23  1  0
 23 24  1  0
 18 25  1  0
 25 26  2  0
 25 27  1  0
 27 28  1  0
 28 29  1  0
 29 30  1  0
 30 31  2  0
 31 32  1  0
 32 33  2  0
 33 34  1  0
 34 35  2  0
 28 36  1  0
 36 37  2  0
 36 38  1  0
 38 39  1  0
 39 40  1  0
 40 41  1  0
 41 42  1  0
 42 43  1  0
 43 44  1  0
 44 45  1  0
 11  6  1  0
 24 19  1  0
 35 30  1  0
 45 40  1  0
  1 46  1  0
  1 47  1  0
  1 48  1  0
  2 49  1  0
  2 50  1  0
  3 51  1  0
  3 52  1  0
  4 53  1  0
  4 54  1  0
  7 55  1  0
  8 56  1  0
 10 57  1  0
 16 58  1  0
 17 59  1  0
 17 60  1  0
 18 61  1  1
 19 62  1  0
 20 63  1  0
 20 64  1  0
 21 65  1  0
 21 66  1  0
 22 67  1  0
 22 68  1  0
 23 69  1  0
 23 70  1  0
 24 71  1  0
 24 72  1  0
 27 73  1  0
 28 74  1  1
 29 75  1  0
 29 76  1  0
 31 77  1  0
 32 78  1  0
 33 79  1  0
 34 80  1  0
 35 81  1  0
 38 82  1  0
 39 83  1  0
 39 84  1  0
 40 85  1  0
 41 86  1  0
 41 87  1  0
 42 88  1  0
 42 89  1  0
 43 90  1  0
 43 91  1  0
 44 92  1  0
 44 93  1  0
 45 94  1  0
 45 95  1  0
M  END
$$$$
[H]OC(=O)C([H])([H])N1N=C(C([H])([H])C([H])([H])c2c([H])c([H])c(S(=O)(=O)N([H])[H])c([H])c2[H])N=C(C([H])([H])C([H])([H])C(=O)N2C([H])([H])C([H])([H])OC([H])([H])C2([H])[H])N=C1C([H])([H])c1nc2nc([H])c([H])c([H])c2o1
     RDKit          3D

 73 77  0  0  0  0  0  0  0  0999 V2000
   -0.1165    5.3365   -1.5106 O   0  0  0  0  0  0  0  0  0  0  0  0
   -0.1885    3.9472   -1.4035 C   0  0  0  0  0  0  0  0  0  0  0  0
   -0.4793    3.3088   -2.4218 O   0  0  0  0  0  0  0  0  0  0  0  0
    0.0844    3.2789   -0.0772 C   0  0  0  0  0  0  0  0  0  0  0  0
   -0.1375    1.8874   -0.1189 N   0  0  0  0  0  0  0  0  0  0  0  0
    1.0614    1.0972   -0.1349 N   0  0  0  0  0  0  0  0  0  0  0  0
    1.2471   -0.0363   -0.7610 C   0  0  0  0  0  0  0  0  0  0  0  0
    2.6180   -0.6264   -0.5855 C   0  0  0  0  0  0  0  0  0  0  0  0
    3.4474    0.2909    0.3101 C   0  0  0  0  0  0  0  0  0  0  0  0
    4.7997   -0.2832    0.4863 C   0  0  0  0  0  0  0  0  0  0  0  0
    5.7995    0.0559   -0.4001 C   0  0  0  0  0  0  0  0  0  0  0  0
    7.0675   -0.4574   -0.2653 C   0  0  0  0  0  0  0  0  0  0  0  0
    7.3719   -1.3184    0.7515 C   0  0  0  0  0  0  0  0  0  0  0  0
    6.3985   -1.6734    1.6477 C   0  0  0  0  0  0  0  0  0  0  0  0
    5.1290   -1.1580    1.5105 C   0  0  0  0  0  0  0  0  0  0  0  0
    9.0142   -1.9597    0.8956 S   0  0  0  0  0  0  0  0  0  0  0  0
    9.9612   -0.9084    1.8837 N   0  0  0  0  0  0  0  0  0  0  0  0
    8.9856   -3.3049    1.5552 O   0  0  0  0  0  0  0  0  0  0  0  0
    9.6205   -2.0576   -0.4748 O   0  0  0  0  0  0  0  0  0  0  0  0
    0.3237   -0.7298   -1.5570 N   0  0  0  0  0  0  0  0  0  0  0  0
   -0.9665   -0.6007   -1.5988 C   0  0  0  0  0  0  0  0  0  0  0  0
   -1.6342   -1.5001   -2.5631 C   0  0  0  0  0  0  0  0  0  0  0  0
   -2.6982   -2.3450   -1.9273 C   0  0  0  0  0  0  0  0  0  0  0  0
   -2.1730   -3.2229   -0.8560 C   0  0  0  0  0  0  0  0  0  0  0  0
   -0.9390   -3.2922   -0.6352 O   0  0  0  0  0  0  0  0  0  0  0  0
   -3.1125   -3.9949   -0.0751 N   0  0  0  0  0  0  0  0  0  0  0  0
   -2.5612   -4.8583    0.9656 C   0  0  0  0  0  0  0  0  0  0  0  0
   -3.7191   -5.5867    1.6359 C   0  0  0  0  0  0  0  0  0  0  0  0
   -4.5003   -6.0879    0.5692 O   0  0  0  0  0  0  0  0  0  0  0  0
   -5.3373   -5.0380    0.2040 C   0  0  0  0  0  0  0  0  0  0  0  0
   -4.5330   -3.8862   -0.3360 C   0  0  0  0  0  0  0  0  0  0  0  0
   -1.7707    0.2925   -0.8323 N   0  0  0  0  0  0  0  0  0  0  0  0
   -1.4508    1.3891   -0.1689 C   0  0  0  0  0  0  0  0  0  0  0  0
   -2.4686    2.0759    0.5770 C   0  0  0  0  0  0  0  0  0  0  0  0
   -3.1739    3.2255   -0.0373 C   0  0  0  0  0  0  0  0  0  0  0  0
   -3.9835    3.1594   -1.1251 N   0  0  0  0  0  0  0  0  0  0  0  0
   -4.4562    4.3789   -1.4016 C   0  0  0  0  0  0  0  0  0  0  0  0
   -5.2755    4.9111   -2.3316 N   0  0  0  0  0  0  0  0  0  0  0  0
   -5.5986    6.2155   -2.3861 C   0  0  0  0  0  0  0  0  0  0  0  0
   -5.0675    7.0920   -1.4350 C   0  0  0  0  0  0  0  0  0  0  0  0
   -4.2362    6.5793   -0.4838 C   0  0  0  0  0  0  0  0  0  0  0  0
   -3.9282    5.2332   -0.4609 C   0  0  0  0  0  0  0  0  0  0  0  0
   -3.1785    4.4856    0.3159 O   0  0  0  0  0  0  0  0  0  0  0  0
    0.2844    5.8019   -2.3093 H   0  0  0  0  0  0  0  0  0  0  0  0
    1.1622    3.4767    0.1035 H   0  0  0  0  0  0  0  0  0  0  0  0
   -0.4376    3.8253    0.7276 H   0  0  0  0  0  0  0  0  0  0  0  0
    2.5630   -1.6281   -0.1182 H   0  0  0  0  0  0  0  0  0  0  0  0
    3.0653   -0.6725   -1.5950 H   0  0  0  0  0  0  0  0  0  0  0  0
    3.5004    1.2888   -0.1856 H   0  0  0  0  0  0  0  0  0  0  0  0
    2.9887    0.3687    1.3051 H   0  0  0  0  0  0  0  0  0  0  0  0
    5.5910    0.7471   -1.2325 H   0  0  0  0  0  0  0  0  0  0  0  0
    7.8511   -0.1732   -0.9834 H   0  0  0  0  0  0  0  0  0  0  0  0
    6.6623   -2.3555    2.4438 H   0  0  0  0  0  0  0  0  0  0  0  0
    4.3388   -1.4153    2.1969 H   0  0  0  0  0  0  0  0  0  0  0  0
   10.9680   -1.0870    1.6378 H   0  0  0  0  0  0  0  0  0  0  0  0
    9.8514   -1.2224    2.8732 H   0  0  0  0  0  0  0  0  0  0  0  0
   -0.9022   -2.1690   -3.0543 H   0  0  0  0  0  0  0  0  0  0  0  0
   -2.0606   -0.8449   -3.3677 H   0  0  0  0  0  0  0  0  0  0  0  0
   -3.1085   -3.0189   -2.7153 H   0  0  0  0  0  0  0  0  0  0  0  0
   -3.5207   -1.7294   -1.4939 H   0  0  0  0  0  0  0  0  0  0  0  0
   -1.9733   -4.2862    1.6975 H   0  0  0  0  0  0  0  0  0  0  0  0
   -1.9447   -5.6681    0.4961 H   0  0  0  0  0  0  0  0  0  0  0  0
   -4.3479   -4.8873    2.2230 H   0  0  0  0  0  0  0  0  0  0  0  0
   -3.3702   -6.4634    2.2053 H   0  0  0  0  0  0  0  0  0  0  0  0
   -6.0933   -5.4010   -0.5232 H   0  0  0  0  0  0  0  0  0  0  0  0
   -5.8755   -4.7451    1.1466 H   0  0  0  0  0  0  0  0  0  0  0  0
   -4.7095   -3.7404   -1.4255 H   0  0  0  0  0  0  0  0  0  0  0  0
   -4.8602   -2.9361    0.1793 H   0  0  0  0  0  0  0  0  0  0  0  0
   -2.1670    2.3207    1.6356 H   0  0  0  0  0  0  0  0  0  0  0  0
   -3.3003    1.3218    0.7556 H   0  0  0  0  0  0  0  0  0  0  0  0
   -6.2585    6.6055   -3.1461 H   0  0  0  0  0  0  0  0  0  0  0  0
   -5.3343    8.1591   -1.4832 H   0  0  0  0  0  0  0  0  0  0  0  0
   -3.8081    7.2138    0.2624 H   0  0  0  0  0  0  0  0  0  0  0  0
  1  2  1  0
  2  3  2  0
  2  4  1  0
  4  5  1  0
  5  6  1  0
  6  7  2  0
  7  8  1  0
  8  9  1  0
  9 10  1  0
 10 11  2  0
 11 12  1  0
 12 13  2  0
 13 14  1  0
 14 15  2  0
 13 16  1  0
 16 17  1  0
 16 18  2  0
 16 19  2  0
  7 20  1  0
 20 21  2  0
 21 22  1  0
 22 23  1  0
 23 24  1  0
 24 25  2  0
 24 26  1  0
 26 27  1  0
 27 28  1  0
 28 29  1  0
 29 30  1  0
 30 31  1  0
 21 32  1  0
 32 33  2  0
 33 34  1  0
 34 35  1  0
 35 36  2  0
 36 37  1  0
 37 38  2  0
 38 39  1  0
 39 40  2  0
 40 41  1  0
 41 42  2  0
 42 43  1  0
 33  5  1  0
 43 35  1  0
 15 10  1  0
 31 26  1  0
 42 37  1  0
  1 44  1  0
  4 45  1  0
  4 46  1  0
  8 47  1  0
  8 48  1  0
  9 49  1  0
  9 50  1  0
 11 51  1  0
 12 52  1  0
 14 53  1  0
 15 54  1  0
 17 55  1  0
 17 56  1  0
 22 57  1  0
 22 58  1  0
 23 59  1  0
 23 60  1  0
 27 61  1  0
 27 62  1  0
 28 63  1  0
 28 64  1  0
 30 65  1  0
 30 66  1  0
 31 67  1  0
 31 68  1  0
 34 69  1  0
 34 70  1  0
 39 71  1  0
 40 72  1  0
 41 73  1  0
M  END
$$$$
[H]OC(=O)c1c([H])c([H])c(C([H])([H])OC([H])([H])C2(c3c([H])c([H])c(C#N)c([H])c3[H])C([H])([H])C([H])(O[H])C2([H])[H])c([H])c1C([H])([H])[H]
     RDKit          3D

 47 49  0  0  0  0  0  0  0  0999 V2000
    5.2466    0.5734    0.7253 C   0  0  0  0  0  0  0  0  0  0  0  0
    4.0695    0.0414   -0.0487 C   0  0  0  0  0  0  0  0  0  0  0  0
    3.1459    0.9398   -0.5755 C   0  0  0  0  0  0  0  0  0  0  0  0
    2.0427    0.5195   -1.3012 C   0  0  0  0  0  0  0  0  0  0  0  0
    1.0743    1.4921   -1.8547 C   0  0  0  0  0  0  0  0  0  0  0  0
   -0.0123    1.7672   -1.0831 O   0  0  0  0  0  0  0  0  0  0  0  0
   -0.7952    0.6796   -0.8257 C   0  0  0  0  0  0  0  0  0  0  0  0
   -2.0314    0.9905    0.0069 C   0  0  0  0  0  0  0  0  0  0  0  0
   -2.9567    2.0001   -0.6457 C   0  0  0  0  0  0  0  0  0  0  0  0
   -2.3335    3.0589    0.2599 C   0  0  0  0  0  0  0  0  0  0  0  0
   -3.2595    3.8345    0.9372 O   0  0  0  0  0  0  0  0  0  0  0  0
   -1.8414    1.9241    1.1505 C   0  0  0  0  0  0  0  0  0  0  0  0
   -2.7278   -0.2867    0.2772 C   0  0  0  0  0  0  0  0  0  0  0  0
   -2.9063   -0.7814    1.5386 C   0  0  0  0  0  0  0  0  0  0  0  0
   -3.5644   -1.9994    1.7201 C   0  0  0  0  0  0  0  0  0  0  0  0
   -4.0515   -2.7365    0.6514 C   0  0  0  0  0  0  0  0  0  0  0  0
   -3.8566   -2.2107   -0.6149 C   0  0  0  0  0  0  0  0  0  0  0  0
   -3.2063   -1.0090   -0.7881 C   0  0  0  0  0  0  0  0  0  0  0  0
   -4.7291   -3.9978    0.8450 C   0  0  0  0  0  0  0  0  0  0  0  0
   -5.2606   -5.0300    1.0118 N   0  0  0  0  0  0  0  0  0  0  0  0
    1.9269   -0.8447   -1.4623 C   0  0  0  0  0  0  0  0  0  0  0  0
    2.8293   -1.7376   -0.9482 C   0  0  0  0  0  0  0  0  0  0  0  0
    3.9503   -1.3154   -0.2107 C   0  0  0  0  0  0  0  0  0  0  0  0
    4.8724   -2.3091    0.3107 C   0  0  0  0  0  0  0  0  0  0  0  0
    6.0027   -1.9718    1.0289 O   0  0  0  0  0  0  0  0  0  0  0  0
    4.6604   -3.5166    0.1180 O   0  0  0  0  0  0  0  0  0  0  0  0
    6.2029    0.3096    0.2677 H   0  0  0  0  0  0  0  0  0  0  0  0
    5.2070    0.1950    1.7623 H   0  0  0  0  0  0  0  0  0  0  0  0
    5.2110    1.6953    0.7206 H   0  0  0  0  0  0  0  0  0  0  0  0
    3.2641    2.0126   -0.4330 H   0  0  0  0  0  0  0  0  0  0  0  0
    1.5875    2.4855   -2.0401 H   0  0  0  0  0  0  0  0  0  0  0  0
    0.7856    1.1128   -2.8731 H   0  0  0  0  0  0  0  0  0  0  0  0
   -1.0961    0.1517   -1.7449 H   0  0  0  0  0  0  0  0  0  0  0  0
   -0.2145   -0.0430   -0.2005 H   0  0  0  0  0  0  0  0  0  0  0  0
   -2.7294    2.1741   -1.7268 H   0  0  0  0  0  0  0  0  0  0  0  0
   -4.0210    1.8102   -0.3992 H   0  0  0  0  0  0  0  0  0  0  0  0
   -1.4877    3.5981   -0.1696 H   0  0  0  0  0  0  0  0  0  0  0  0
   -2.7750    4.6681    1.2037 H   0  0  0  0  0  0  0  0  0  0  0  0
   -2.5506    1.7391    2.0049 H   0  0  0  0  0  0  0  0  0  0  0  0
   -0.7867    2.0903    1.4891 H   0  0  0  0  0  0  0  0  0  0  0  0
   -2.5437   -0.2459    2.4305 H   0  0  0  0  0  0  0  0  0  0  0  0
   -3.7189   -2.4116    2.7022 H   0  0  0  0  0  0  0  0  0  0  0  0
   -4.2391   -2.7893   -1.4643 H   0  0  0  0  0  0  0  0  0  0  0  0
   -3.0902   -0.6627   -1.8088 H   0  0  0  0  0  0  0  0  0  0  0  0
    1.0550   -1.1950   -2.0374 H   0  0  0  0  0  0  0  0  0  0  0  0
    2.7246   -2.8131   -1.0818 H   0  0  0  0  0  0  0  0  0  0  0  0
    6.9270   -1.9559    0.5893 H   0  0  0  0  0  0  0  0  0  0  0  0
  1  2  1  0
  2  3  2  0
  3  4  1  0
  4  5  1  0
  5  6  1  0
  6  7  1  0
  7  8  1  0
  8  9  1  0
  9 10  1  0
 10 11  1  0
 10 12  1  0
  8 13  1  0
 13 14  2  0
 14 15  1  0
 15 16  2  0
 16 17  1  0
 17 18  2  0
 16 19  1  0
 19 20  3  0
  4 21  2  0
 21 22  1  0
 22 23  2  0
 23 24  1  0
 24 25  1  0
 24 26  2  0
 23  2  1  0
 12  8  1  0
 18 13  1  0
  1 27  1  0
  1 28  1  0
  1 29  1  0
  3 30  1  0
  5 31  1  0
  5 32  1  0
  7 33  1  0
  7 34  1  0
  9 35  1  0
  9 36  1  0
 10 37  1  0
 11 38  1  0
 12 39  1  0
 12 40  1  0
 14 41  1  0
 15 42  1  0
 17 43  1  0
 18 44  1  0
 21 45  1  0
 22 46  1  0
 25 47  1  0
M  END
$$$$
[H]c1nc(-c2c([H])c([H])c(N([H])C(=O)C([H])([H])c3c([H])n(C([H])([H])[H])c4c([H])c(Oc5c([H])c([H])c(F)c([H])c5Cl)c([H])c([H])c34)c([H])c2[H])nc(C2([H])C([H])([H])C2([H])[H])c1C(C([H])([H])[H])(C([H])([H])[H])C([H])([H])[H]
     RDKit          3D

 74 79  0  0  0  0  0  0  0  0999 V2000
    6.8203    2.2335   -1.4213 C   0  0  0  0  0  0  0  0  0  0  0  0
    5.8062    1.2708   -1.7953 N   0  0  0  0  0  0  0  0  0  0  0  0
    4.7793    1.4141   -2.6331 C   0  0  0  0  0  0  0  0  0  0  0  0
    4.0349    0.2181   -2.7042 C   0  0  0  0  0  0  0  0  0  0  0  0
    2.8803    0.0333   -3.5634 C   0  0  0  0  0  0  0  0  0  0  0  0
    1.5519   -0.0146   -2.9978 C   0  0  0  0  0  0  0  0  0  0  0  0
    0.6919   -0.7053   -3.6770 O   0  0  0  0  0  0  0  0  0  0  0  0
    1.1033    0.5933   -1.8262 N   0  0  0  0  0  0  0  0  0  0  0  0
   -0.1921    0.5721   -1.2427 C   0  0  0  0  0  0  0  0  0  0  0  0
   -1.1518   -0.3303   -1.5667 C   0  0  0  0  0  0  0  0  0  0  0  0
   -2.4044   -0.2368   -0.9765 C   0  0  0  0  0  0  0  0  0  0  0  0
   -2.7225    0.7363   -0.0647 C   0  0  0  0  0  0  0  0  0  0  0  0
   -1.7351    1.6346    0.2488 C   0  0  0  0  0  0  0  0  0  0  0  0
   -0.4778    1.5868   -0.3105 C   0  0  0  0  0  0  0  0  0  0  0  0
   -4.0814    0.7377    0.4505 C   0  0  0  0  0  0  0  0  0  0  0  0
   -4.4194    1.6273    1.3916 N   0  0  0  0  0  0  0  0  0  0  0  0
   -5.6724    1.6253    1.8363 C   0  0  0  0  0  0  0  0  0  0  0  0
   -6.6578    0.7426    1.3707 C   0  0  0  0  0  0  0  0  0  0  0  0
   -8.0323    0.7874    1.9023 C   0  0  0  0  0  0  0  0  0  0  0  0
   -9.0838    1.0823    0.8515 C   0  0  0  0  0  0  0  0  0  0  0  0
   -8.4005   -0.4254    2.7402 C   0  0  0  0  0  0  0  0  0  0  0  0
   -8.0894    1.9679    2.8886 C   0  0  0  0  0  0  0  0  0  0  0  0
   -6.2984   -0.1491    0.4198 C   0  0  0  0  0  0  0  0  0  0  0  0
   -5.0034   -0.1246   -0.0182 N   0  0  0  0  0  0  0  0  0  0  0  0
   -7.2281   -1.1449   -0.1789 C   0  0  0  0  0  0  0  0  0  0  0  0
   -6.6791   -2.1206   -1.1668 C   0  0  0  0  0  0  0  0  0  0  0  0
   -7.3621   -0.9635   -1.7234 C   0  0  0  0  0  0  0  0  0  0  0  0
    4.6892   -0.6468   -1.8497 C   0  0  0  0  0  0  0  0  0  0  0  0
    4.4361   -1.9612   -1.5026 C   0  0  0  0  0  0  0  0  0  0  0  0
    5.2495   -2.6058   -0.6267 C   0  0  0  0  0  0  0  0  0  0  0  0
    6.3545   -1.9898   -0.0472 C   0  0  0  0  0  0  0  0  0  0  0  0
    7.1722   -2.6471    0.8272 O   0  0  0  0  0  0  0  0  0  0  0  0
    8.1967   -1.9972    1.4756 C   0  0  0  0  0  0  0  0  0  0  0  0
    9.5222   -2.3727    1.1785 C   0  0  0  0  0  0  0  0  0  0  0  0
   10.5989   -1.7715    1.7807 C   0  0  0  0  0  0  0  0  0  0  0  0
   10.3893   -0.7676    2.7094 C   0  0  0  0  0  0  0  0  0  0  0  0
   11.5043   -0.2221    3.2586 F   0  0  0  0  0  0  0  0  0  0  0  0
    9.1210   -0.3849    3.0187 C   0  0  0  0  0  0  0  0  0  0  0  0
    8.0374   -1.0013    2.4016 C   0  0  0  0  0  0  0  0  0  0  0  0
    6.4063   -0.5024    2.8758 Cl  0  0  0  0  0  0  0  0  0  0  0  0
    6.5755   -0.6795   -0.4148 C   0  0  0  0  0  0  0  0  0  0  0  0
    5.7787    0.0065   -1.2949 C   0  0  0  0  0  0  0  0  0  0  0  0
    7.4981    1.8259   -0.6638 H   0  0  0  0  0  0  0  0  0  0  0  0
    6.2749    3.1307   -1.0377 H   0  0  0  0  0  0  0  0  0  0  0  0
    7.4531    2.5226   -2.2911 H   0  0  0  0  0  0  0  0  0  0  0  0
    4.5526    2.3154   -3.1775 H   0  0  0  0  0  0  0  0  0  0  0  0
    2.8723    0.8878   -4.3176 H   0  0  0  0  0  0  0  0  0  0  0  0
    3.0711   -0.8541   -4.2636 H   0  0  0  0  0  0  0  0  0  0  0  0
    1.8581    1.1517   -1.2885 H   0  0  0  0  0  0  0  0  0  0  0  0
   -0.9654   -1.1517   -2.2728 H   0  0  0  0  0  0  0  0  0  0  0  0
   -3.1275   -1.0059   -1.2950 H   0  0  0  0  0  0  0  0  0  0  0  0
   -1.9862    2.4063    0.9727 H   0  0  0  0  0  0  0  0  0  0  0  0
    0.2914    2.3119   -0.0464 H   0  0  0  0  0  0  0  0  0  0  0  0
   -5.9341    2.3406    2.5952 H   0  0  0  0  0  0  0  0  0  0  0  0
   -9.7220    1.9684    1.1519 H   0  0  0  0  0  0  0  0  0  0  0  0
   -9.7995    0.2789    0.6798 H   0  0  0  0  0  0  0  0  0  0  0  0
   -8.5496    1.4326   -0.0597 H   0  0  0  0  0  0  0  0  0  0  0  0
   -9.4378   -0.7917    2.4744 H   0  0  0  0  0  0  0  0  0  0  0  0
   -7.6380   -1.2338    2.6334 H   0  0  0  0  0  0  0  0  0  0  0  0
   -8.4311   -0.2171    3.8272 H   0  0  0  0  0  0  0  0  0  0  0  0
   -7.4616    1.7470    3.7807 H   0  0  0  0  0  0  0  0  0  0  0  0
   -7.8775    2.9185    2.3948 H   0  0  0  0  0  0  0  0  0  0  0  0
   -9.1428    1.9281    3.3023 H   0  0  0  0  0  0  0  0  0  0  0  0
   -8.1885   -1.3771    0.3048 H   0  0  0  0  0  0  0  0  0  0  0  0
   -5.5613   -2.2343   -1.1924 H   0  0  0  0  0  0  0  0  0  0  0  0
   -7.1960   -3.0963   -1.2174 H   0  0  0  0  0  0  0  0  0  0  0  0
   -6.7428   -0.1725   -2.1960 H   0  0  0  0  0  0  0  0  0  0  0  0
   -8.3697   -1.0290   -2.1632 H   0  0  0  0  0  0  0  0  0  0  0  0
    3.5691   -2.4083   -1.9725 H   0  0  0  0  0  0  0  0  0  0  0  0
    5.0401   -3.6464   -0.3612 H   0  0  0  0  0  0  0  0  0  0  0  0
    9.6382   -3.1681    0.4400 H   0  0  0  0  0  0  0  0  0  0  0  0
   11.5936   -2.1071    1.5066 H   0  0  0  0  0  0  0  0  0  0  0  0
    8.9815    0.4083    3.7510 H   0  0  0  0  0  0  0  0  0  0  0  0
    7.4294   -0.1230   -0.0223 H   0  0  0  0  0  0  0  0  0  0  0  0
  1  2  1  0
  2  3  1  0
  3  4  2  0
  4  5  1  0
  5  6  1  0
  6  7  2  0
  6  8  1  0
  8  9  1  0
  9 10  2  0
 10 11  1  0
 11 12  2  0
 12 13  1  0
 13 14  2  0
 12 15  1  0
 15 16  2  0
 16 17  1  0
 17 18  2  0
 18 19  1  0
 19 20  1  0
 19 21  1  0
 19 22  1  0
 18 23  1  0
 23 24  2  0
 23 25  1  0
 25 26  1  0
 26 27  1  0
  4 28  1  0
 28 29  2  0
 29 30  1  0
 30 31  2  0
 31 32  1  0
 32 33  1  0
 33 34  2  0
 34 35  1  0
 35 36  2  0
 36 37  1  0
 36 38  1  0
 38 39  2  0
 39 40  1  0
 31 41  1  0
 41 42  2  0
 42  2  1  0
 14  9  1  0
 24 15  1  0
 27 25  1  0
 42 28  1  0
 39 33  1  0
  1 43  1  0
  1 44  1  0
  1 45  1  0
  3 46  1  0
  5 47  1  0
  5 48  1  0
  8 49  1  0
 10 50  1  0
 11 51  1  0
 13 52  1  0
 14 53  1  0
 17 54  1  0
 20 55  1  0
 20 56  1  0
 20 57  1  0
 21 58  1  0
 21 59  1  0
 21 60  1  0
 22 61  1  0
 22 62  1  0
 22 63  1  0
 25 64  1  0
 26 65  1  0
 26 66  1  0
 27 67  1  0
 27 68  1  0
 29 69  1  0
 30 70  1  0
 34 71  1  0
 35 72  1  0
 38 73  1  0
 41 74  1  0
M  END
$$$$
[H]c1nc2c([H])c([H])c(C(=O)N([H])[H])c(N([H])C([H])(c3c([H])c([H])c(OC(C([H])([H])[H])(C([H])([H])[H])C([H])([H])[H])c([H])c3[H])C([H])([H])[H])c2s1
     RDKit          3D

 49 51  0  0  0  0  0  0  0  0999 V2000
   -0.9259    0.7202   -3.6236 C   0  0  0  0  0  0  0  0  0  0  0  0
   -1.2510    0.8232   -2.1268 C   0  0  0  0  0  0  0  0  0  0  0  0
   -2.5493    0.3278   -1.8361 N   0  0  0  0  0  0  0  0  0  0  0  0
   -3.1498    0.0771   -0.5885 C   0  0  0  0  0  0  0  0  0  0  0  0
   -3.8667    1.0006    0.1292 C   0  0  0  0  0  0  0  0  0  0  0  0
   -4.3596    0.5592    1.3502 C   0  0  0  0  0  0  0  0  0  0  0  0
   -4.1829   -0.6832    1.8539 C   0  0  0  0  0  0  0  0  0  0  0  0
   -3.4495   -1.6416    1.1214 C   0  0  0  0  0  0  0  0  0  0  0  0
   -3.2211   -2.8719    1.4796 N   0  0  0  0  0  0  0  0  0  0  0  0
   -2.5349   -3.6767    0.6944 C   0  0  0  0  0  0  0  0  0  0  0  0
   -2.1768   -2.6682   -0.6340 S   0  0  0  0  0  0  0  0  0  0  0  0
   -2.9545   -1.2249   -0.0839 C   0  0  0  0  0  0  0  0  0  0  0  0
   -4.1508    2.3308   -0.3742 C   0  0  0  0  0  0  0  0  0  0  0  0
   -4.8860    3.2447    0.4776 N   0  0  0  0  0  0  0  0  0  0  0  0
   -3.8266    2.7803   -1.4759 O   0  0  0  0  0  0  0  0  0  0  0  0
   -0.1218    0.2671   -1.3817 C   0  0  0  0  0  0  0  0  0  0  0  0
    0.9143   -0.4004   -1.9878 C   0  0  0  0  0  0  0  0  0  0  0  0
    2.0103   -0.8953   -1.3134 C   0  0  0  0  0  0  0  0  0  0  0  0
    2.0878   -0.7196    0.0471 C   0  0  0  0  0  0  0  0  0  0  0  0
    3.1783   -1.2064    0.7534 O   0  0  0  0  0  0  0  0  0  0  0  0
    4.3520   -0.4967    1.0018 C   0  0  0  0  0  0  0  0  0  0  0  0
    5.0455   -0.0869   -0.3022 C   0  0  0  0  0  0  0  0  0  0  0  0
    4.1471    0.7662    1.7961 C   0  0  0  0  0  0  0  0  0  0  0  0
    5.3012   -1.3944    1.7680 C   0  0  0  0  0  0  0  0  0  0  0  0
    1.0717   -0.0575    0.6880 C   0  0  0  0  0  0  0  0  0  0  0  0
   -0.0313    0.4359   -0.0205 C   0  0  0  0  0  0  0  0  0  0  0  0
   -0.9646   -0.3291   -3.9154 H   0  0  0  0  0  0  0  0  0  0  0  0
   -1.6681    1.2902   -4.2205 H   0  0  0  0  0  0  0  0  0  0  0  0
    0.0661    1.1861   -3.7631 H   0  0  0  0  0  0  0  0  0  0  0  0
   -1.2452    1.9308   -1.8567 H   0  0  0  0  0  0  0  0  0  0  0  0
   -3.1804    0.1066   -2.6863 H   0  0  0  0  0  0  0  0  0  0  0  0
   -4.9294    1.3182    1.9086 H   0  0  0  0  0  0  0  0  0  0  0  0
   -4.6148   -0.9104    2.8178 H   0  0  0  0  0  0  0  0  0  0  0  0
   -2.3078   -4.7223    0.9359 H   0  0  0  0  0  0  0  0  0  0  0  0
   -4.5989    3.3684    1.4716 H   0  0  0  0  0  0  0  0  0  0  0  0
   -5.6927    3.7839    0.1325 H   0  0  0  0  0  0  0  0  0  0  0  0
    0.8697   -0.5475   -3.0562 H   0  0  0  0  0  0  0  0  0  0  0  0
    2.8116   -1.4233   -1.8564 H   0  0  0  0  0  0  0  0  0  0  0  0
    6.0230    0.3259   -0.0123 H   0  0  0  0  0  0  0  0  0  0  0  0
    5.1670   -0.9246   -0.9904 H   0  0  0  0  0  0  0  0  0  0  0  0
    4.4546    0.7503   -0.7354 H   0  0  0  0  0  0  0  0  0  0  0  0
    5.0549    1.3997    1.6364 H   0  0  0  0  0  0  0  0  0  0  0  0
    3.9967    0.5928    2.8650 H   0  0  0  0  0  0  0  0  0  0  0  0
    3.2918    1.3601    1.3897 H   0  0  0  0  0  0  0  0  0  0  0  0
    6.0693   -1.8165    1.0893 H   0  0  0  0  0  0  0  0  0  0  0  0
    4.7498   -2.2611    2.1872 H   0  0  0  0  0  0  0  0  0  0  0  0
    5.8245   -0.8154    2.5692 H   0  0  0  0  0  0  0  0  0  0  0  0
    1.1250    0.0865    1.7679 H   0  0  0  0  0  0  0  0  0  0  0  0
   -0.7721    0.9417    0.5675 H   0  0  0  0  0  0  0  0  0  0  0  0
  1  2  1  0
  2  3  1  0
  3  4  1  0
  4  5  2  0
  5  6  1  0
  6  7  2  0
  7  8  1  0
  8  9  1  0
  9 10  2  0
 10 11  1  0
 11 12  1  0
  5 13  1  0
 13 14  1  0
 13 15  2  0
  2 16  1  0
 16 17  2  0
 17 18  1  0
 18 19  2  0
 19 20  1  0
 20 21  1  0
 21 22  1  0
 21 23  1  0
 21 24  1  0
 19 25  1  0
 25 26  2  0
 12  4  1  0
 26 16  1  0
 12  8  2  0
  1 27  1  0
  1 28  1  0
  1 29  1  0
  2 30  1  0
  3 31  1  0
  6 32  1  0
  7 33  1  0
 10 34  1  0
 14 35  1  0
 14 36  1  0
 17 37  1  0
 18 38  1  0
 22 39  1  0
 22 40  1  0
 22 41  1  0
 23 42  1  0
 23 43  1  0
 23 44  1  0
 24 45  1  0
 24 46  1  0
 24 47  1  0
 25 48  1  0
 26 49  1  0
M  END
$$$$
[H]c1c([H])c(C(=O)N([H])[H])c([H])c(C2=NN(C3([H])C([H])([H])C([H])([H])C([H])([H])C([H])([H])C3([H])[H])C(=O)C2([H])[H])c1[H]
     RDKit          3D

 40 42  0  0  0  0  0  0  0  0999 V2000
    6.1686    2.3229    1.3136 N   0  0  0  0  0  0  0  0  0  0  0  0
    4.7798    2.0942    1.2053 C   0  0  0  0  0  0  0  0  0  0  0  0
    3.9836    2.9413    1.6588 O   0  0  0  0  0  0  0  0  0  0  0  0
    4.2839    0.8892    0.5747 C   0  0  0  0  0  0  0  0  0  0  0  0
    5.1321   -0.0705    0.0612 C   0  0  0  0  0  0  0  0  0  0  0  0
    4.7017   -1.2212   -0.5415 C   0  0  0  0  0  0  0  0  0  0  0  0
    3.3546   -1.4611   -0.6559 C   0  0  0  0  0  0  0  0  0  0  0  0
    2.4719   -0.5337   -0.1591 C   0  0  0  0  0  0  0  0  0  0  0  0
    2.9281    0.6387    0.4548 C   0  0  0  0  0  0  0  0  0  0  0  0
    1.0351   -0.7760   -0.2740 C   0  0  0  0  0  0  0  0  0  0  0  0
    0.0935    0.0286    0.1587 N   0  0  0  0  0  0  0  0  0  0  0  0
   -1.1710   -0.4966   -0.1069 N   0  0  0  0  0  0  0  0  0  0  0  0
   -2.4142    0.1359    0.2377 C   0  0  0  0  0  0  0  0  0  0  0  0
   -3.1537    0.4374   -1.0376 C   0  0  0  0  0  0  0  0  0  0  0  0
   -4.6404    0.5817   -0.8172 C   0  0  0  0  0  0  0  0  0  0  0  0
   -4.8347    1.1032    0.5914 C   0  0  0  0  0  0  0  0  0  0  0  0
   -4.5161   -0.0441    1.5307 C   0  0  0  0  0  0  0  0  0  0  0  0
   -3.2248   -0.7120    1.1880 C   0  0  0  0  0  0  0  0  0  0  0  0
   -1.0075   -1.7490   -0.7687 C   0  0  0  0  0  0  0  0  0  0  0  0
   -1.9720   -2.4574   -1.1335 O   0  0  0  0  0  0  0  0  0  0  0  0
    0.4486   -1.9812   -0.9041 C   0  0  0  0  0  0  0  0  0  0  0  0
    6.6649    1.9372    2.1437 H   0  0  0  0  0  0  0  0  0  0  0  0
    6.7314    2.8521    0.6183 H   0  0  0  0  0  0  0  0  0  0  0  0
    6.2152    0.0987    0.1407 H   0  0  0  0  0  0  0  0  0  0  0  0
    5.3915   -1.9775   -0.9464 H   0  0  0  0  0  0  0  0  0  0  0  0
    2.9916   -2.3797   -1.1369 H   0  0  0  0  0  0  0  0  0  0  0  0
    2.1865    1.3468    0.8348 H   0  0  0  0  0  0  0  0  0  0  0  0
   -2.2290    1.1009    0.7449 H   0  0  0  0  0  0  0  0  0  0  0  0
   -2.8077    1.4327   -1.4423 H   0  0  0  0  0  0  0  0  0  0  0  0
   -2.9227   -0.2870   -1.8555 H   0  0  0  0  0  0  0  0  0  0  0  0
   -5.1066   -0.4370   -0.8895 H   0  0  0  0  0  0  0  0  0  0  0  0
   -5.0855    1.2605   -1.5738 H   0  0  0  0  0  0  0  0  0  0  0  0
   -5.8795    1.4220    0.7532 H   0  0  0  0  0  0  0  0  0  0  0  0
   -4.1023    1.9087    0.8026 H   0  0  0  0  0  0  0  0  0  0  0  0
   -4.6031    0.2465    2.5991 H   0  0  0  0  0  0  0  0  0  0  0  0
   -5.3390   -0.8005    1.3657 H   0  0  0  0  0  0  0  0  0  0  0  0
   -3.3675   -1.7131    0.7572 H   0  0  0  0  0  0  0  0  0  0  0  0
   -2.6221   -0.7592    2.1426 H   0  0  0  0  0  0  0  0  0  0  0  0
    0.6631   -2.0044   -2.0035 H   0  0  0  0  0  0  0  0  0  0  0  0
    0.7736   -2.9178   -0.4089 H   0  0  0  0  0  0  0  0  0  0  0  0
  1  2  1  0
  2  3  2  0
  2  4  1  0
  4  5  2  0
  5  6  1  0
  6  7  2  0
  7  8  1  0
  8  9  2  0
  8 10  1  0
 10 11  2  0
 11 12  1  0
 12 13  1  0
 13 14  1  0
 14 15  1  0
 15 16  1  0
 16 17  1  0
 17 18  1  0
 12 19  1  0
 19 20  2  0
 19 21  1  0
  9  4  1  0
 21 10  1  0
 18 13  1  0
  1 22  1  0
  1 23  1  0
  5 24  1  0
  6 25  1  0
  7 26  1  0
  9 27  1  0
 13 28  1  0
 14 29  1  0
 14 30  1  0
 15 31  1  0
 15 32  1  0
 16 33  1  0
 16 34  1  0
 17 35  1  0
 17 36  1  0
 18 37  1  0
 18 38  1  0
 21 39  1  0
 21 40  1  0
M  END
$$$$
[H]c1nc(C2([H])SC([H])([H])N2[H])oc1-c1c([H])nc(OC([H])([H])[H])c([H])c1[H]
     RDKit          3D

 28 30  0  0  0  0  0  0  0  0999 V2000
    5.2663    0.1215   -1.8939 C   0  0  0  0  0  0  0  0  0  0  0  0
    4.9466   -0.1539   -0.5509 O   0  0  0  0  0  0  0  0  0  0  0  0
    3.6392   -0.1008   -0.1302 C   0  0  0  0  0  0  0  0  0  0  0  0
    3.2639   -0.3631    1.1841 C   0  0  0  0  0  0  0  0  0  0  0  0
    1.9425   -0.3010    1.5728 C   0  0  0  0  0  0  0  0  0  0  0  0
    1.0048    0.0214    0.6521 C   0  0  0  0  0  0  0  0  0  0  0  0
    1.4097    0.2752   -0.6405 C   0  0  0  0  0  0  0  0  0  0  0  0
    2.6898    0.2142   -1.0137 N   0  0  0  0  0  0  0  0  0  0  0  0
   -0.4351    0.1098    0.9864 C   0  0  0  0  0  0  0  0  0  0  0  0
   -1.0312   -0.1047    2.2042 C   0  0  0  0  0  0  0  0  0  0  0  0
   -2.3513    0.0846    2.0456 N   0  0  0  0  0  0  0  0  0  0  0  0
   -2.5663    0.4088    0.7591 C   0  0  0  0  0  0  0  0  0  0  0  0
   -1.4076    0.4141    0.1611 O   0  0  0  0  0  0  0  0  0  0  0  0
   -3.9070    0.6965    0.1878 C   0  0  0  0  0  0  0  0  0  0  0  0
   -5.2510   -0.3134    0.8595 S   0  0  0  0  0  0  0  0  0  0  0  0
   -5.5070   -0.4945   -0.9360 C   0  0  0  0  0  0  0  0  0  0  0  0
   -4.1485    0.0406   -1.1073 N   0  0  0  0  0  0  0  0  0  0  0  0
    5.2736    1.2287   -2.0722 H   0  0  0  0  0  0  0  0  0  0  0  0
    6.2669   -0.3187   -2.0869 H   0  0  0  0  0  0  0  0  0  0  0  0
    4.5322   -0.3740   -2.5917 H   0  0  0  0  0  0  0  0  0  0  0  0
    4.0535   -0.6196    1.8951 H   0  0  0  0  0  0  0  0  0  0  0  0
    1.6357   -0.5031    2.5943 H   0  0  0  0  0  0  0  0  0  0  0  0
    0.6645    0.5332   -1.3802 H   0  0  0  0  0  0  0  0  0  0  0  0
   -0.4753   -0.3761    3.0946 H   0  0  0  0  0  0  0  0  0  0  0  0
   -4.1743    1.7657    0.1133 H   0  0  0  0  0  0  0  0  0  0  0  0
   -6.2473    0.2179   -1.3655 H   0  0  0  0  0  0  0  0  0  0  0  0
   -5.6172   -1.5163   -1.2924 H   0  0  0  0  0  0  0  0  0  0  0  0
   -3.4704   -0.7217   -1.2485 H   0  0  0  0  0  0  0  0  0  0  0  0
  1  2  1  0
  2  3  1  0
  3  4  2  0
  4  5  1  0
  5  6  2  0
  6  7  1  0
  7  8  2  0
  6  9  1  0
  9 10  2  0
 10 11  1  0
 11 12  2  0
 12 13  1  0
 12 14  1  0
 14 15  1  0
 15 16  1  0
 16 17  1  0
  8  3  1  0
 13  9  1  0
 17 14  1  0
  1 18  1  0
  1 19  1  0
  1 20  1  0
  4 21  1  0
  5 22  1  0
  7 23  1  0
 10 24  1  0
 14 25  1  0
 16 26  1  0
 16 27  1  0
 17 28  1  0
M  END
$$$$
[H]OC(=O)C(N([H])C(=O)c1c([H])c([H])c(OC([H])([H])[H])c([H])c1[H])(C([H])([H])[H])C([H])([H])[H]
     RDKit          3D

 32 32  0  0  0  0  0  0  0  0999 V2000
    5.7261   -0.5286   -0.1903 C   0  0  0  0  0  0  0  0  0  0  0  0
    4.9801    0.6746    0.0262 O   0  0  0  0  0  0  0  0  0  0  0  0
    3.5853    0.6409    0.0474 C   0  0  0  0  0  0  0  0  0  0  0  0
    2.9324    1.8341    0.2604 C   0  0  0  0  0  0  0  0  0  0  0  0
    1.5605    1.8307    0.2863 C   0  0  0  0  0  0  0  0  0  0  0  0
    0.8428    0.6664    0.1045 C   0  0  0  0  0  0  0  0  0  0  0  0
    1.5079   -0.5184   -0.1072 C   0  0  0  0  0  0  0  0  0  0  0  0
    2.9072   -0.5415   -0.1381 C   0  0  0  0  0  0  0  0  0  0  0  0
   -0.6053    0.6593    0.1314 C   0  0  0  0  0  0  0  0  0  0  0  0
   -1.1803    1.7826    0.3357 O   0  0  0  0  0  0  0  0  0  0  0  0
   -1.4167   -0.4835   -0.0494 N   0  0  0  0  0  0  0  0  0  0  0  0
   -2.8508   -0.4172   -0.0105 C   0  0  0  0  0  0  0  0  0  0  0  0
   -3.3676    0.0986    1.3188 C   0  0  0  0  0  0  0  0  0  0  0  0
   -3.2993    0.5695   -1.0663 C   0  0  0  0  0  0  0  0  0  0  0  0
   -3.4389   -1.7519   -0.2078 C   0  0  0  0  0  0  0  0  0  0  0  0
   -4.7908   -2.0137   -0.2220 O   0  0  0  0  0  0  0  0  0  0  0  0
   -2.6615   -2.7246   -0.3756 O   0  0  0  0  0  0  0  0  0  0  0  0
    5.4154   -0.9852   -1.1530 H   0  0  0  0  0  0  0  0  0  0  0  0
    5.5146   -1.1748    0.6822 H   0  0  0  0  0  0  0  0  0  0  0  0
    6.7912   -0.2212   -0.2356 H   0  0  0  0  0  0  0  0  0  0  0  0
    3.4469    2.7820    0.4097 H   0  0  0  0  0  0  0  0  0  0  0  0
    0.9801    2.7486    0.4516 H   0  0  0  0  0  0  0  0  0  0  0  0
    1.0259   -1.4732   -0.2583 H   0  0  0  0  0  0  0  0  0  0  0  0
    3.4707   -1.4383   -0.2996 H   0  0  0  0  0  0  0  0  0  0  0  0
   -0.9614   -1.3940   -0.2145 H   0  0  0  0  0  0  0  0  0  0  0  0
   -3.4225    1.2157    1.2899 H   0  0  0  0  0  0  0  0  0  0  0  0
   -4.4230   -0.2430    1.3941 H   0  0  0  0  0  0  0  0  0  0  0  0
   -2.8068   -0.2890    2.1764 H   0  0  0  0  0  0  0  0  0  0  0  0
   -4.2279    0.2023   -1.5651 H   0  0  0  0  0  0  0  0  0  0  0  0
   -2.5263    0.5670   -1.8606 H   0  0  0  0  0  0  0  0  0  0  0  0
   -3.4032    1.5982   -0.6963 H   0  0  0  0  0  0  0  0  0  0  0  0
   -5.3047   -1.6723   -1.0482 H   0  0  0  0  0  0  0  0  0  0  0  0
  1  2  1  0
  2  3  1  0
  3  4  2  0
  4  5  1  0
  5  6  2  0
  6  7  1  0
  7  8  2  0
  6  9  1  0
  9 10  2  0
  9 11  1  0
 11 12  1  0
 12 13  1  0
 12 14  1  0
 12 15  1  0
 15 16  1  0
 15 17  2  0
  8  3  1  0
  1 18  1  0
  1 19  1  0
  1 20  1  0
  4 21  1  0
  5 22  1  0
  7 23  1  0
  8 24  1  0
 11 25  1  0
 13 26  1  0
 13 27  1  0
 13 28  1  0
 14 29  1  0
 14 30  1  0
 14 31  1  0
 16 32  1  0
M  END
$$$$
[H]c1c([H])c([H])c(S(=O)(=O)c2c([H])c([H])c(N3C([H])([H])C([H])([H])N(C([H])([H])[H])C([H])([H])C3([H])[H])c(F)c2[H])c(C(=O)N([H])S(=O)(=O)c2sc3c([H])c([H])c([H])c([H])c3c2N([H])[H])c1[H]
     RDKit          3D

 64 68  0  0  0  0  0  0  0  0999 V2000
   -8.9567    2.0825   -0.1681 C   0  0  0  0  0  0  0  0  0  0  0  0
   -7.8282    1.3403   -0.7111 N   0  0  0  0  0  0  0  0  0  0  0  0
   -6.6923    1.7184    0.1468 C   0  0  0  0  0  0  0  0  0  0  0  0
   -6.1605    0.4724    0.8348 C   0  0  0  0  0  0  0  0  0  0  0  0
   -5.8602   -0.5389   -0.1856 N   0  0  0  0  0  0  0  0  0  0  0  0
   -6.9727   -0.9768   -0.9855 C   0  0  0  0  0  0  0  0  0  0  0  0
   -8.1382   -0.0650   -0.5921 C   0  0  0  0  0  0  0  0  0  0  0  0
   -4.5606   -1.0126   -0.3157 C   0  0  0  0  0  0  0  0  0  0  0  0
   -3.6745   -0.3432   -1.1157 C   0  0  0  0  0  0  0  0  0  0  0  0
   -2.3332   -0.6362   -1.2164 C   0  0  0  0  0  0  0  0  0  0  0  0
   -1.8173   -1.6879   -0.4522 C   0  0  0  0  0  0  0  0  0  0  0  0
   -2.7196   -2.3637    0.3464 C   0  0  0  0  0  0  0  0  0  0  0  0
   -4.0476   -2.0669    0.4311 C   0  0  0  0  0  0  0  0  0  0  0  0
   -4.8691   -2.7805    1.1915 F   0  0  0  0  0  0  0  0  0  0  0  0
   -0.0701   -1.9592   -0.4349 S   0  0  0  0  0  0  0  0  0  0  0  0
    0.2013   -3.4456   -0.4629 O   0  0  0  0  0  0  0  0  0  0  0  0
    0.5393   -1.2794   -1.5803 O   0  0  0  0  0  0  0  0  0  0  0  0
    0.5050   -1.3070    1.1294 C   0  0  0  0  0  0  0  0  0  0  0  0
   -0.3866   -0.9192    2.0998 C   0  0  0  0  0  0  0  0  0  0  0  0
    0.0648   -0.5167    3.3705 C   0  0  0  0  0  0  0  0  0  0  0  0
    1.3888   -0.5118    3.6364 C   0  0  0  0  0  0  0  0  0  0  0  0
    2.2768   -0.8921    2.6742 C   0  0  0  0  0  0  0  0  0  0  0  0
    1.8118   -1.2922    1.3997 C   0  0  0  0  0  0  0  0  0  0  0  0
    2.9048   -1.5740    0.3821 C   0  0  0  0  0  0  0  0  0  0  0  0
    3.1988   -2.7903    0.3690 O   0  0  0  0  0  0  0  0  0  0  0  0
    3.3436   -0.4716   -0.2771 N   0  0  0  0  0  0  0  0  0  0  0  0
    3.8746    0.8540   -1.0731 S   0  0  0  0  0  0  0  0  0  0  0  0
    3.6470    0.8133   -2.5700 O   0  0  0  0  0  0  0  0  0  0  0  0
    3.1089    2.1332   -0.6517 O   0  0  0  0  0  0  0  0  0  0  0  0
    5.5892    1.1773   -0.7558 C   0  0  0  0  0  0  0  0  0  0  0  0
    6.2068    2.1866    0.4347 S   0  0  0  0  0  0  0  0  0  0  0  0
    7.8947    1.9275    0.1871 C   0  0  0  0  0  0  0  0  0  0  0  0
    9.0606    2.4128    0.8077 C   0  0  0  0  0  0  0  0  0  0  0  0
   10.3129    1.9861    0.3763 C   0  0  0  0  0  0  0  0  0  0  0  0
   10.2840    1.0908   -0.6617 C   0  0  0  0  0  0  0  0  0  0  0  0
    9.1763    0.6066   -1.2828 C   0  0  0  0  0  0  0  0  0  0  0  0
    7.9029    1.0420   -0.8439 C   0  0  0  0  0  0  0  0  0  0  0  0
    6.6920    0.6514   -1.3351 C   0  0  0  0  0  0  0  0  0  0  0  0
    6.4952   -0.2884   -2.4271 N   0  0  0  0  0  0  0  0  0  0  0  0
   -8.9772    3.1003   -0.6194 H   0  0  0  0  0  0  0  0  0  0  0  0
   -9.8699    1.5036   -0.4069 H   0  0  0  0  0  0  0  0  0  0  0  0
   -8.9052    2.1457    0.9171 H   0  0  0  0  0  0  0  0  0  0  0  0
   -5.9260    2.1255   -0.5352 H   0  0  0  0  0  0  0  0  0  0  0  0
   -6.9360    2.4708    0.9018 H   0  0  0  0  0  0  0  0  0  0  0  0
   -6.8020    0.0785    1.6171 H   0  0  0  0  0  0  0  0  0  0  0  0
   -5.1785    0.7642    1.2991 H   0  0  0  0  0  0  0  0  0  0  0  0
   -6.7640   -0.9660   -2.0371 H   0  0  0  0  0  0  0  0  0  0  0  0
   -7.2889   -2.0003   -0.6248 H   0  0  0  0  0  0  0  0  0  0  0  0
   -8.9593   -0.2734   -1.3442 H   0  0  0  0  0  0  0  0  0  0  0  0
   -8.5192   -0.3024    0.4042 H   0  0  0  0  0  0  0  0  0  0  0  0
   -4.0728    0.4908   -1.7353 H   0  0  0  0  0  0  0  0  0  0  0  0
   -1.6600   -0.0613   -1.8360 H   0  0  0  0  0  0  0  0  0  0  0  0
   -2.2645   -3.1852    0.9257 H   0  0  0  0  0  0  0  0  0  0  0  0
   -1.4478   -0.8887    1.9099 H   0  0  0  0  0  0  0  0  0  0  0  0
   -0.7002   -0.2075    4.1234 H   0  0  0  0  0  0  0  0  0  0  0  0
    1.7550   -0.2204    4.6267 H   0  0  0  0  0  0  0  0  0  0  0  0
    3.3617   -0.8891    2.8309 H   0  0  0  0  0  0  0  0  0  0  0  0
    4.2090   -1.2886   -1.0084 H   0  0  0  0  0  0  0  0  0  0  0  0
    8.9571    3.1029    1.6111 H   0  0  0  0  0  0  0  0  0  0  0  0
   11.1840    2.3435    0.8816 H   0  0  0  0  0  0  0  0  0  0  0  0
   11.2522    0.7165   -1.0141 H   0  0  0  0  0  0  0  0  0  0  0  0
    9.2876   -0.0850   -2.1005 H   0  0  0  0  0  0  0  0  0  0  0  0
    6.5054    0.0435   -3.3931 H   0  0  0  0  0  0  0  0  0  0  0  0
    6.3670   -1.2941   -2.1590 H   0  0  0  0  0  0  0  0  0  0  0  0
  1  2  1  0
  2  3  1  0
  3  4  1  0
  4  5  1  0
  5  6  1  0
  6  7  1  0
  5  8  1  0
  8  9  2  0
  9 10  1  0
 10 11  2  0
 11 12  1  0
 12 13  2  0
 13 14  1  0
 11 15  1  0
 15 16  2  0
 15 17  2  0
 15 18  1  0
 18 19  2  0
 19 20  1  0
 20 21  2  0
 21 22  1  0
 22 23  2  0
 23 24  1  0
 24 25  2  0
 24 26  1  0
 26 27  1  0
 27 28  2  0
 27 29  2  0
 27 30  1  0
 30 31  1  0
 31 32  1  0
 32 33  2  0
 33 34  1  0
 34 35  2  0
 35 36  1  0
 36 37  2  0
 37 38  1  0
 38 39  1  0
  7  2  1  0
 13  8  1  0
 23 18  1  0
 38 30  2  0
 37 32  1  0
  1 40  1  0
  1 41  1  0
  1 42  1  0
  3 43  1  0
  3 44  1  0
  4 45  1  0
  4 46  1  0
  6 47  1  0
  6 48  1  0
  7 49  1  0
  7 50  1  0
  9 51  1  0
 10 52  1  0
 12 53  1  0
 19 54  1  0
 20 55  1  0
 21 56  1  0
 22 57  1  0
 26 58  1  0
 33 59  1  0
 34 60  1  0
 35 61  1  0
 36 62  1  0
 39 63  1  0
 39 64  1  0
M  END
$$$$
[H]OC([H])([H])C([H])(O[H])C([H])(C(=O)c1nc(F)c([H])c([H])c1N([H])c1c([H])c([H])c(Cl)c([H])c1[H])N([H])[H]
     RDKit          3D

 38 39  0  0  0  0  0  0  0  0999 V2000
   -4.4056   -1.4613   -1.3415 O   0  0  0  0  0  0  0  0  0  0  0  0
   -3.5758   -0.3990   -1.0240 C   0  0  0  0  0  0  0  0  0  0  0  0
   -3.6081   -0.1663    0.4506 C   0  0  0  0  0  0  0  0  0  0  0  0
   -4.9302    0.1323    0.8561 O   0  0  0  0  0  0  0  0  0  0  0  0
   -2.8019    1.0798    0.8433 C   0  0  0  0  0  0  0  0  0  0  0  0
   -3.4049    2.1778    0.1130 N   0  0  0  0  0  0  0  0  0  0  0  0
   -1.3769    0.9622    0.3859 C   0  0  0  0  0  0  0  0  0  0  0  0
   -1.0864    1.7028   -0.5734 O   0  0  0  0  0  0  0  0  0  0  0  0
   -0.4692    0.0357    1.0606 C   0  0  0  0  0  0  0  0  0  0  0  0
   -0.9996   -0.7318    2.0654 N   0  0  0  0  0  0  0  0  0  0  0  0
   -0.2927   -1.6421    2.7447 C   0  0  0  0  0  0  0  0  0  0  0  0
   -0.8660   -2.3837    3.7382 F   0  0  0  0  0  0  0  0  0  0  0  0
    1.0388   -1.8796    2.4826 C   0  0  0  0  0  0  0  0  0  0  0  0
    1.6062   -1.1255    1.4795 C   0  0  0  0  0  0  0  0  0  0  0  0
    0.8509   -0.1720    0.7733 C   0  0  0  0  0  0  0  0  0  0  0  0
    1.5010    0.6171   -0.1753 N   0  0  0  0  0  0  0  0  0  0  0  0
    2.7372    0.3607   -0.8288 C   0  0  0  0  0  0  0  0  0  0  0  0
    3.5838    1.4038   -1.2047 C   0  0  0  0  0  0  0  0  0  0  0  0
    4.7531    1.2288   -1.8709 C   0  0  0  0  0  0  0  0  0  0  0  0
    5.1693   -0.0363   -2.2176 C   0  0  0  0  0  0  0  0  0  0  0  0
    6.6741   -0.2854   -3.0768 Cl  0  0  0  0  0  0  0  0  0  0  0  0
    4.3646   -1.1033   -1.8676 C   0  0  0  0  0  0  0  0  0  0  0  0
    3.1670   -0.8955   -1.1829 C   0  0  0  0  0  0  0  0  0  0  0  0
   -5.2421   -1.4393   -0.8330 H   0  0  0  0  0  0  0  0  0  0  0  0
   -2.5382   -0.6701   -1.3184 H   0  0  0  0  0  0  0  0  0  0  0  0
   -3.8827    0.4599   -1.6187 H   0  0  0  0  0  0  0  0  0  0  0  0
   -3.3150   -1.0408    1.0346 H   0  0  0  0  0  0  0  0  0  0  0  0
   -4.9278    0.5403    1.7639 H   0  0  0  0  0  0  0  0  0  0  0  0
   -2.8991    1.1726    1.9225 H   0  0  0  0  0  0  0  0  0  0  0  0
   -3.0237    2.2338   -0.8576 H   0  0  0  0  0  0  0  0  0  0  0  0
   -3.0662    3.0707    0.5834 H   0  0  0  0  0  0  0  0  0  0  0  0
    1.6162   -2.6152    3.0282 H   0  0  0  0  0  0  0  0  0  0  0  0
    2.6536   -1.3023    1.2990 H   0  0  0  0  0  0  0  0  0  0  0  0
    1.0795    1.5476   -0.4631 H   0  0  0  0  0  0  0  0  0  0  0  0
    3.2482    2.4153   -0.9259 H   0  0  0  0  0  0  0  0  0  0  0  0
    5.3612    2.0858   -2.1311 H   0  0  0  0  0  0  0  0  0  0  0  0
    4.7024   -2.0838   -2.1447 H   0  0  0  0  0  0  0  0  0  0  0  0
    2.6050   -1.7936   -0.9687 H   0  0  0  0  0  0  0  0  0  0  0  0
  1  2  1  0
  2  3  1  0
  3  4  1  0
  3  5  1  0
  5  6  1  0
  5  7  1  0
  7  8  2  0
  7  9  1  0
  9 10  2  0
 10 11  1  0
 11 12  1  0
 11 13  2  0
 13 14  1  0
 14 15  2  0
 15 16  1  0
 16 17  1  0
 17 18  2  0
 18 19  1  0
 19 20  2  0
 20 21  1  0
 20 22  1  0
 22 23  2  0
 15  9  1  0
 23 17  1  0
  1 24  1  0
  2 25  1  0
  2 26  1  0
  3 27  1  0
  4 28  1  0
  5 29  1  0
  6 30  1  0
  6 31  1  0
 13 32  1  0
 14 33  1  0
 16 34  1  0
 18 35  1  0
 19 36  1  0
 22 37  1  0
 23 38  1  0
M  END
$$$$
[H]c1c([H])c([H])c(-c2nc(C(C([H])([H])[H])(C([H])([H])[H])C([H])([H])c3c([H])n([H])c4c([H])c([H])c([H])c([H])c34)c3c([H])c([H])c([H])c([H])c3n2)c([H])c1[H]
     RDKit          3D

 52 56  0  0  0  0  0  0  0  0999 V2000
   -1.8386   -2.6392   -0.0476 C   0  0  0  0  0  0  0  0  0  0  0  0
   -0.9278   -1.9114    0.8832 C   0  0  0  0  0  0  0  0  0  0  0  0
   -0.8565   -2.6133    2.2545 C   0  0  0  0  0  0  0  0  0  0  0  0
   -1.6590   -0.6297    1.2080 C   0  0  0  0  0  0  0  0  0  0  0  0
   -1.9919    0.2294    0.0915 C   0  0  0  0  0  0  0  0  0  0  0  0
   -1.8556    0.1556   -1.2718 C   0  0  0  0  0  0  0  0  0  0  0  0
   -2.3494    1.2387   -1.8866 N   0  0  0  0  0  0  0  0  0  0  0  0
   -2.8179    2.0401   -0.9274 C   0  0  0  0  0  0  0  0  0  0  0  0
   -3.4342    3.2935   -1.0305 C   0  0  0  0  0  0  0  0  0  0  0  0
   -3.8485    3.9588    0.1046 C   0  0  0  0  0  0  0  0  0  0  0  0
   -3.6577    3.3944    1.3374 C   0  0  0  0  0  0  0  0  0  0  0  0
   -3.0461    2.1556    1.4074 C   0  0  0  0  0  0  0  0  0  0  0  0
   -2.6211    1.4635    0.3073 C   0  0  0  0  0  0  0  0  0  0  0  0
    0.4020   -1.5507    0.4054 C   0  0  0  0  0  0  0  0  0  0  0  0
    0.8276   -0.2640    0.3225 N   0  0  0  0  0  0  0  0  0  0  0  0
    2.0082    0.1408   -0.1046 C   0  0  0  0  0  0  0  0  0  0  0  0
    2.8857   -0.7985   -0.4994 N   0  0  0  0  0  0  0  0  0  0  0  0
    2.5927   -2.1154   -0.4685 C   0  0  0  0  0  0  0  0  0  0  0  0
    3.5073   -3.0767   -0.8687 C   0  0  0  0  0  0  0  0  0  0  0  0
    3.2304   -4.4256   -0.8353 C   0  0  0  0  0  0  0  0  0  0  0  0
    1.9840   -4.7941   -0.3791 C   0  0  0  0  0  0  0  0  0  0  0  0
    1.0655   -3.8205    0.0231 C   0  0  0  0  0  0  0  0  0  0  0  0
    1.3459   -2.4927   -0.0140 C   0  0  0  0  0  0  0  0  0  0  0  0
    2.3877    1.5653   -0.1610 C   0  0  0  0  0  0  0  0  0  0  0  0
    3.6472    1.9096   -0.6230 C   0  0  0  0  0  0  0  0  0  0  0  0
    4.0960    3.2002   -0.7148 C   0  0  0  0  0  0  0  0  0  0  0  0
    3.2466    4.2014   -0.3262 C   0  0  0  0  0  0  0  0  0  0  0  0
    1.9741    3.8826    0.1424 C   0  0  0  0  0  0  0  0  0  0  0  0
    1.5411    2.5690    0.2266 C   0  0  0  0  0  0  0  0  0  0  0  0
   -2.7918   -2.1329   -0.2891 H   0  0  0  0  0  0  0  0  0  0  0  0
   -2.1652   -3.5874    0.4764 H   0  0  0  0  0  0  0  0  0  0  0  0
   -1.3944   -2.9517   -0.9949 H   0  0  0  0  0  0  0  0  0  0  0  0
   -1.4336   -3.5638    2.1511 H   0  0  0  0  0  0  0  0  0  0  0  0
   -1.1669   -2.0049    3.0888 H   0  0  0  0  0  0  0  0  0  0  0  0
    0.2146   -2.8668    2.4049 H   0  0  0  0  0  0  0  0  0  0  0  0
   -2.6082   -0.9342    1.7411 H   0  0  0  0  0  0  0  0  0  0  0  0
   -1.1122   -0.0365    1.9758 H   0  0  0  0  0  0  0  0  0  0  0  0
   -1.4064   -0.6710   -1.7778 H   0  0  0  0  0  0  0  0  0  0  0  0
   -2.3819    1.4547   -2.9092 H   0  0  0  0  0  0  0  0  0  0  0  0
   -3.5931    3.7527   -1.9807 H   0  0  0  0  0  0  0  0  0  0  0  0
   -4.3233    4.9214    0.0389 H   0  0  0  0  0  0  0  0  0  0  0  0
   -3.9688    3.8853    2.2446 H   0  0  0  0  0  0  0  0  0  0  0  0
   -2.8976    1.7130    2.3825 H   0  0  0  0  0  0  0  0  0  0  0  0
    4.4689   -2.7558   -1.2179 H   0  0  0  0  0  0  0  0  0  0  0  0
    3.9444   -5.1798   -1.1481 H   0  0  0  0  0  0  0  0  0  0  0  0
    1.7543   -5.8498   -0.3470 H   0  0  0  0  0  0  0  0  0  0  0  0
    0.1407   -4.1867    0.3687 H   0  0  0  0  0  0  0  0  0  0  0  0
    4.2957    1.0975   -0.9230 H   0  0  0  0  0  0  0  0  0  0  0  0
    5.1045    3.3773   -1.0906 H   0  0  0  0  0  0  0  0  0  0  0  0
    3.5832    5.2309   -0.3913 H   0  0  0  0  0  0  0  0  0  0  0  0
    1.3433    4.7059    0.4357 H   0  0  0  0  0  0  0  0  0  0  0  0
    0.5561    2.3158    0.5890 H   0  0  0  0  0  0  0  0  0  0  0  0
  1  2  1  0
  2  3  1  0
  2  4  1  0
  4  5  1  0
  5  6  2  0
  6  7  1  0
  7  8  1  0
  8  9  2  0
  9 10  1  0
 10 11  2  0
 11 12  1  0
 12 13  2  0
  2 14  1  0
 14 15  2  0
 15 16  1  0
 16 17  2  0
 17 18  1  0
 18 19  2  0
 19 20  1  0
 20 21  2  0
 21 22  1  0
 22 23  2  0
 16 24  1  0
 24 25  2  0
 25 26  1  0
 26 27  2  0
 27 28  1  0
 28 29  2  0
 13  5  1  0
 23 14  1  0
 29 24  1  0
 13  8  1  0
 23 18  1  0
  1 30  1  0
  1 31  1  0
  1 32  1  0
  3 33  1  0
  3 34  1  0
  3 35  1  0
  4 36  1  0
  4 37  1  0
  6 38  1  0
  7 39  1  0
  9 40  1  0
 10 41  1  0
 11 42  1  0
 12 43  1  0
 19 44  1  0
 20 45  1  0
 21 46  1  0
 22 47  1  0
 25 48  1  0
 26 49  1  0
 27 50  1  0
 28 51  1  0
 29 52  1  0
M  END
$$$$
[H]S[C@@]([H])(C(=O)N([H])[C@]1([H])C([H])([H])N(C(=O)c2c([H])c([H])c([H])c([H])c2OC([H])([H])[H])C([H])([H])C1([H])[H])C([H])([H])c1nc(-c2oc([H])c([H])c2[H])oc1[H]
     RDKit          3D

 54 57  0  0  0  0  0  0  0  0999 V2000
   -7.3521   -0.6524   -1.5463 C   0  0  0  0  0  0  0  0  0  0  0  0
   -6.2054    0.0525   -1.1269 O   0  0  0  0  0  0  0  0  0  0  0  0
   -5.9403    0.3080    0.2126 C   0  0  0  0  0  0  0  0  0  0  0  0
   -6.8282   -0.1422    1.1724 C   0  0  0  0  0  0  0  0  0  0  0  0
   -6.6030    0.0902    2.5164 C   0  0  0  0  0  0  0  0  0  0  0  0
   -5.4788    0.7769    2.8685 C   0  0  0  0  0  0  0  0  0  0  0  0
   -4.6013    1.2208    1.9057 C   0  0  0  0  0  0  0  0  0  0  0  0
   -4.8014    1.0031    0.5606 C   0  0  0  0  0  0  0  0  0  0  0  0
   -3.8280    1.5039   -0.3928 C   0  0  0  0  0  0  0  0  0  0  0  0
   -4.0032    2.6635   -0.8450 O   0  0  0  0  0  0  0  0  0  0  0  0
   -2.7382    0.6990   -0.7786 N   0  0  0  0  0  0  0  0  0  0  0  0
   -2.4709   -0.6364   -0.3051 C   0  0  0  0  0  0  0  0  0  0  0  0
   -1.9929   -1.3133   -1.5719 C   0  0  0  0  0  0  0  0  0  0  0  0
   -1.0417   -0.2698   -2.1169 C   0  0  1  0  0  0  0  0  0  0  0  0
   -1.6870    1.0364   -1.7067 C   0  0  0  0  0  0  0  0  0  0  0  0
    0.2142   -0.4271   -1.3654 N   0  0  0  0  0  0  0  0  0  0  0  0
    1.4232   -0.6671   -2.0570 C   0  0  0  0  0  0  0  0  0  0  0  0
    1.4306   -0.7476   -3.3255 O   0  0  0  0  0  0  0  0  0  0  0  0
    2.6859   -0.8262   -1.3158 C   0  0  2  0  0  0  0  0  0  0  0  0
    2.5809   -2.2450   -0.1607 S   0  0  0  0  0  0  0  0  0  0  0  0
    2.9643    0.4320   -0.5168 C   0  0  0  0  0  0  0  0  0  0  0  0
    4.2498    0.2450    0.2254 C   0  0  0  0  0  0  0  0  0  0  0  0
    4.3372   -0.2834    1.4860 C   0  0  0  0  0  0  0  0  0  0  0  0
    5.6026   -0.2942    1.8102 O   0  0  0  0  0  0  0  0  0  0  0  0
    6.3034    0.1982    0.8199 C   0  0  0  0  0  0  0  0  0  0  0  0
    5.4830    0.5382   -0.1716 N   0  0  0  0  0  0  0  0  0  0  0  0
    7.7761    0.3346    0.8475 C   0  0  0  0  0  0  0  0  0  0  0  0
    8.6247   -0.0168    1.8734 C   0  0  0  0  0  0  0  0  0  0  0  0
    9.9280    0.2843    1.4740 C   0  0  0  0  0  0  0  0  0  0  0  0
    9.7867    0.8092    0.2077 C   0  0  0  0  0  0  0  0  0  0  0  0
    8.5183    0.8194   -0.1159 O   0  0  0  0  0  0  0  0  0  0  0  0
   -7.1755   -1.0310   -2.5950 H   0  0  0  0  0  0  0  0  0  0  0  0
   -8.2597   -0.0409   -1.5221 H   0  0  0  0  0  0  0  0  0  0  0  0
   -7.5268   -1.5617   -0.9235 H   0  0  0  0  0  0  0  0  0  0  0  0
   -7.7252   -0.6885    0.9129 H   0  0  0  0  0  0  0  0  0  0  0  0
   -7.2990   -0.2632    3.2608 H   0  0  0  0  0  0  0  0  0  0  0  0
   -5.2788    0.9716    3.9051 H   0  0  0  0  0  0  0  0  0  0  0  0
   -3.7020    1.7716    2.2074 H   0  0  0  0  0  0  0  0  0  0  0  0
   -3.3712   -1.1289    0.1139 H   0  0  0  0  0  0  0  0  0  0  0  0
   -1.6414   -0.5893    0.4440 H   0  0  0  0  0  0  0  0  0  0  0  0
   -1.4962   -2.2814   -1.3834 H   0  0  0  0  0  0  0  0  0  0  0  0
   -2.8551   -1.3990   -2.2637 H   0  0  0  0  0  0  0  0  0  0  0  0
   -0.8767   -0.3612   -3.1898 H   0  0  0  0  0  0  0  0  0  0  0  0
   -0.9444    1.6578   -1.1385 H   0  0  0  0  0  0  0  0  0  0  0  0
   -2.0644    1.5793   -2.5957 H   0  0  0  0  0  0  0  0  0  0  0  0
    0.2267   -0.3645   -0.3344 H   0  0  0  0  0  0  0  0  0  0  0  0
    3.5094   -1.0182   -2.0073 H   0  0  0  0  0  0  0  0  0  0  0  0
    1.5988   -1.8715    0.8039 H   0  0  0  0  0  0  0  0  0  0  0  0
    2.1652    0.6529    0.1952 H   0  0  0  0  0  0  0  0  0  0  0  0
    3.0919    1.2785   -1.2181 H   0  0  0  0  0  0  0  0  0  0  0  0
    3.5124   -0.6338    2.1138 H   0  0  0  0  0  0  0  0  0  0  0  0
    8.3250   -0.4500    2.8200 H   0  0  0  0  0  0  0  0  0  0  0  0
   10.8339    0.1311    2.0480 H   0  0  0  0  0  0  0  0  0  0  0  0
   10.6164    1.1467   -0.3889 H   0  0  0  0  0  0  0  0  0  0  0  0
  1  2  1  0
  2  3  1  0
  3  4  2  0
  4  5  1  0
  5  6  2  0
  6  7  1  0
  7  8  2  0
  8  9  1  0
  9 10  2  0
  9 11  1  0
 11 12  1  0
 12 13  1  0
 13 14  1  0
 14 15  1  0
 14 16  1  0
 16 17  1  0
 17 18  2  0
 17 19  1  0
 19 20  1  0
 19 21  1  0
 21 22  1  0
 22 23  2  0
 23 24  1  0
 24 25  1  0
 25 26  2  0
 25 27  1  0
 27 28  2  0
 28 29  1  0
 29 30  2  0
 30 31  1  0
  8  3  1  0
 15 11  1  0
 26 22  1  0
 31 27  1  0
  1 32  1  0
  1 33  1  0
  1 34  1  0
  4 35  1  0
  5 36  1  0
  6 37  1  0
  7 38  1  0
 12 39  1  0
 12 40  1  0
 13 41  1  0
 13 42  1  0
 14 43  1  6
 15 44  1  0
 15 45  1  0
 16 46  1  0
 19 47  1  6
 20 48  1  0
 21 49  1  0
 21 50  1  0
 23 51  1  0
 28 52  1  0
 29 53  1  0
 30 54  1  0
M  END
$$$$
[H]c1c([H])c([H])c(C([H])([H])N2c3c([H])c([H])c([H])c([H])c3[C@]([H])(N([H])C(=O)[C@@]([H])(N([H])[H])C([H])([H])c3c([H])c([H])c([H])c([H])c3[H])C([H])([H])C2([H])[H])c([H])c1[H]
     RDKit          3D

 56 59  0  0  0  0  0  0  0  0999 V2000
   -3.2078    1.4417   -2.9164 N   0  0  0  0  0  0  0  0  0  0  0  0
   -3.1572    1.6005   -1.4585 C   0  0  1  0  0  0  0  0  0  0  0  0
   -4.3051    0.8772   -0.8186 C   0  0  0  0  0  0  0  0  0  0  0  0
   -4.3552    0.9713    0.6415 C   0  0  0  0  0  0  0  0  0  0  0  0
   -3.8131    0.0499    1.5108 C   0  0  0  0  0  0  0  0  0  0  0  0
   -3.8710    0.1574    2.8766 C   0  0  0  0  0  0  0  0  0  0  0  0
   -4.5111    1.2549    3.4200 C   0  0  0  0  0  0  0  0  0  0  0  0
   -5.0758    2.2150    2.6059 C   0  0  0  0  0  0  0  0  0  0  0  0
   -4.9909    2.0616    1.2396 C   0  0  0  0  0  0  0  0  0  0  0  0
   -1.8211    1.1371   -1.0355 C   0  0  0  0  0  0  0  0  0  0  0  0
   -1.4583    1.3328    0.1496 O   0  0  0  0  0  0  0  0  0  0  0  0
   -0.9437    0.4807   -1.9292 N   0  0  0  0  0  0  0  0  0  0  0  0
    0.3394    0.0429   -1.4982 C   0  0  2  0  0  0  0  0  0  0  0  0
    1.4797    0.6697   -2.2810 C   0  0  0  0  0  0  0  0  0  0  0  0
    2.7512    0.4613   -1.4869 C   0  0  0  0  0  0  0  0  0  0  0  0
    2.8555   -0.9107   -1.0382 N   0  0  0  0  0  0  0  0  0  0  0  0
    3.9727   -1.3243   -0.2667 C   0  0  0  0  0  0  0  0  0  0  0  0
    4.1280   -0.5006    0.9840 C   0  0  0  0  0  0  0  0  0  0  0  0
    4.9290    0.6107    0.8967 C   0  0  0  0  0  0  0  0  0  0  0  0
    5.1548    1.4520    1.9714 C   0  0  0  0  0  0  0  0  0  0  0  0
    4.5276    1.1232    3.1669 C   0  0  0  0  0  0  0  0  0  0  0  0
    3.7316    0.0123    3.2398 C   0  0  0  0  0  0  0  0  0  0  0  0
    3.5183   -0.8119    2.1635 C   0  0  0  0  0  0  0  0  0  0  0  0
    1.8337   -1.8603   -1.3718 C   0  0  0  0  0  0  0  0  0  0  0  0
    2.0727   -3.2103   -1.4695 C   0  0  0  0  0  0  0  0  0  0  0  0
    1.0545   -4.0843   -1.7913 C   0  0  0  0  0  0  0  0  0  0  0  0
   -0.2277   -3.5946   -2.0197 C   0  0  0  0  0  0  0  0  0  0  0  0
   -0.5105   -2.2464   -1.9322 C   0  0  0  0  0  0  0  0  0  0  0  0
    0.5330   -1.4228   -1.6104 C   0  0  0  0  0  0  0  0  0  0  0  0
   -4.1727    1.5410   -3.2855 H   0  0  0  0  0  0  0  0  0  0  0  0
   -2.5524    2.1049   -3.3790 H   0  0  0  0  0  0  0  0  0  0  0  0
   -3.2977    2.6885   -1.2742 H   0  0  0  0  0  0  0  0  0  0  0  0
   -5.2436    1.2994   -1.2628 H   0  0  0  0  0  0  0  0  0  0  0  0
   -4.2549   -0.2083   -1.0974 H   0  0  0  0  0  0  0  0  0  0  0  0
   -3.3147   -0.8043    1.0753 H   0  0  0  0  0  0  0  0  0  0  0  0
   -3.4226   -0.6047    3.4908 H   0  0  0  0  0  0  0  0  0  0  0  0
   -4.5782    1.3765    4.5035 H   0  0  0  0  0  0  0  0  0  0  0  0
   -5.5697    3.0620    3.0587 H   0  0  0  0  0  0  0  0  0  0  0  0
   -5.4394    2.8242    0.6213 H   0  0  0  0  0  0  0  0  0  0  0  0
   -1.2126    0.3001   -2.9254 H   0  0  0  0  0  0  0  0  0  0  0  0
    0.4785    0.3116   -0.4145 H   0  0  0  0  0  0  0  0  0  0  0  0
    1.5910    0.0405   -3.2117 H   0  0  0  0  0  0  0  0  0  0  0  0
    1.3261    1.7193   -2.5162 H   0  0  0  0  0  0  0  0  0  0  0  0
    2.8252    1.1891   -0.6460 H   0  0  0  0  0  0  0  0  0  0  0  0
    3.5921    0.7132   -2.1752 H   0  0  0  0  0  0  0  0  0  0  0  0
    3.8410   -2.3789    0.0769 H   0  0  0  0  0  0  0  0  0  0  0  0
    4.9350   -1.2927   -0.7875 H   0  0  0  0  0  0  0  0  0  0  0  0
    5.4215    0.8648   -0.0503 H   0  0  0  0  0  0  0  0  0  0  0  0
    5.7723    2.3182    1.9239 H   0  0  0  0  0  0  0  0  0  0  0  0
    4.6849    1.7607    4.0221 H   0  0  0  0  0  0  0  0  0  0  0  0
    3.2526   -0.2189    4.1941 H   0  0  0  0  0  0  0  0  0  0  0  0
    2.8979   -1.6840    2.2080 H   0  0  0  0  0  0  0  0  0  0  0  0
    3.0813   -3.5592   -1.2913 H   0  0  0  0  0  0  0  0  0  0  0  0
    1.2778   -5.1359   -1.8590 H   0  0  0  0  0  0  0  0  0  0  0  0
   -1.0358   -4.2859   -2.2747 H   0  0  0  0  0  0  0  0  0  0  0  0
   -1.5161   -1.9276   -2.1188 H   0  0  0  0  0  0  0  0  0  0  0  0
  1  2  1  0
  2  3  1  0
  3  4  1  0
  4  5  2  0
  5  6  1  0
  6  7  2  0
  7  8  1  0
  8  9  2  0
  2 10  1  0
 10 11  2  0
 10 12  1  0
 12 13  1  0
 13 14  1  0
 14 15  1  0
 15 16  1  0
 16 17  1  0
 17 18  1  0
 18 19  2  0
 19 20  1  0
 20 21  2  0
 21 22  1  0
 22 23  2  0
 16 24  1  0
 24 25  2  0
 25 26  1  0
 26 27  2  0
 27 28  1  0
 28 29  2  0
  9  4  1  0
 29 13  1  0
 23 18  1  0
 29 24  1  0
  1 30  1  0
  1 31  1  0
  2 32  1  6
  3 33  1  0
  3 34  1  0
  5 35  1  0
  6 36  1  0
  7 37  1  0
  8 38  1  0
  9 39  1  0
 12 40  1  0
 13 41  1  1
 14 42  1  0
 14 43  1  0
 15 44  1  0
 15 45  1  0
 17 46  1  0
 17 47  1  0
 19 48  1  0
 20 49  1  0
 21 50  1  0
 22 51  1  0
 23 52  1  0
 25 53  1  0
 26 54  1  0
 27 55  1  0
 28 56  1  0
M  END
$$$$
