[H]/C(C(=O)N([H])c1c(OC([H])([H])C([H])([H])[H])c([H])c2nc([H])c(C#N)c(N([H])c3c([H])c([H])c(OC([H])([H])c4c([H])c([H])c([H])c([H])c4[H])c(Cl)c3[H])c2c1[H])=C(/[H])C([H])([H])N(C([H])([H])[H])C([H])([H])[H]
     RDKit          3D

 70 73  0  0  0  0  0  0  0  0999 V2000
   -3.4377   -5.3668   -0.9909 C   0  0  0  0  0  0  0  0  0  0  0  0
   -4.3601   -4.4163   -0.2632 C   0  0  0  0  0  0  0  0  0  0  0  0
   -3.8381   -3.1740    0.0187 O   0  0  0  0  0  0  0  0  0  0  0  0
   -2.7519   -2.9469    0.8116 C   0  0  0  0  0  0  0  0  0  0  0  0
   -2.0558   -3.9647    1.4361 C   0  0  0  0  0  0  0  0  0  0  0  0
   -0.9602   -3.7216    2.2363 C   0  0  0  0  0  0  0  0  0  0  0  0
   -0.2828   -4.7234    2.8459 N   0  0  0  0  0  0  0  0  0  0  0  0
    0.7942   -4.4683    3.6325 C   0  0  0  0  0  0  0  0  0  0  0  0
    1.2428   -3.1721    3.8424 C   0  0  0  0  0  0  0  0  0  0  0  0
    2.3842   -2.8946    4.6753 C   0  0  0  0  0  0  0  0  0  0  0  0
    3.2942   -2.6529    5.3494 N   0  0  0  0  0  0  0  0  0  0  0  0
    0.5339   -2.1716    3.2089 C   0  0  0  0  0  0  0  0  0  0  0  0
    0.9167   -0.8169    3.3646 N   0  0  0  0  0  0  0  0  0  0  0  0
    1.8483   -0.2555    2.4585 C   0  0  0  0  0  0  0  0  0  0  0  0
    2.4218   -0.9818    1.4570 C   0  0  0  0  0  0  0  0  0  0  0  0
    3.3373   -0.4187    0.5652 C   0  0  0  0  0  0  0  0  0  0  0  0
    3.6712    0.9048    0.6993 C   0  0  0  0  0  0  0  0  0  0  0  0
    4.5700    1.5247   -0.1495 O   0  0  0  0  0  0  0  0  0  0  0  0
    5.1702    0.7817   -1.1870 C   0  0  0  0  0  0  0  0  0  0  0  0
    6.0874    1.6279   -1.9767 C   0  0  0  0  0  0  0  0  0  0  0  0
    6.8727    1.0696   -2.9338 C   0  0  0  0  0  0  0  0  0  0  0  0
    7.7248    1.8769   -3.6663 C   0  0  0  0  0  0  0  0  0  0  0  0
    7.7567    3.2453   -3.4041 C   0  0  0  0  0  0  0  0  0  0  0  0
    6.9747    3.8275   -2.4455 C   0  0  0  0  0  0  0  0  0  0  0  0
    6.1318    2.9768   -1.7321 C   0  0  0  0  0  0  0  0  0  0  0  0
    3.0835    1.6337    1.7196 C   0  0  0  0  0  0  0  0  0  0  0  0
    3.4896    3.3347    1.9212 Cl  0  0  0  0  0  0  0  0  0  0  0  0
    2.1873    1.0767    2.5900 C   0  0  0  0  0  0  0  0  0  0  0  0
   -0.5599   -2.4240    2.4095 C   0  0  0  0  0  0  0  0  0  0  0  0
   -1.2603   -1.3990    1.7813 C   0  0  0  0  0  0  0  0  0  0  0  0
   -2.3504   -1.5990    0.9807 C   0  0  0  0  0  0  0  0  0  0  0  0
   -3.1008   -0.6036    0.3125 N   0  0  0  0  0  0  0  0  0  0  0  0
   -2.9091    0.7738    0.3455 C   0  0  0  0  0  0  0  0  0  0  0  0
   -1.9926    1.2925    1.0177 O   0  0  0  0  0  0  0  0  0  0  0  0
   -3.7543    1.7058   -0.3945 C   0  0  0  0  0  0  0  0  0  0  0  0
   -4.7669    1.3799   -1.1626 C   0  0  0  0  0  0  0  0  0  0  0  0
   -5.6186    2.3148   -1.9088 C   0  0  0  0  0  0  0  0  0  0  0  0
   -5.3396    3.6863   -1.8274 N   0  0  0  0  0  0  0  0  0  0  0  0
   -4.1516    4.1320   -2.4553 C   0  0  0  0  0  0  0  0  0  0  0  0
   -5.8190    4.4240   -0.7213 C   0  0  0  0  0  0  0  0  0  0  0  0
   -3.3670   -6.3649   -0.5059 H   0  0  0  0  0  0  0  0  0  0  0  0
   -2.4549   -4.9019   -1.1426 H   0  0  0  0  0  0  0  0  0  0  0  0
   -3.8486   -5.5779   -2.0209 H   0  0  0  0  0  0  0  0  0  0  0  0
   -5.3145   -4.3436   -0.8383 H   0  0  0  0  0  0  0  0  0  0  0  0
   -4.6572   -4.9499    0.6854 H   0  0  0  0  0  0  0  0  0  0  0  0
   -2.3454   -5.0025    1.3318 H   0  0  0  0  0  0  0  0  0  0  0  0
    1.3015   -5.3053    4.0983 H   0  0  0  0  0  0  0  0  0  0  0  0
    0.5086   -0.2737    4.1325 H   0  0  0  0  0  0  0  0  0  0  0  0
    2.1860   -2.0160    1.3213 H   0  0  0  0  0  0  0  0  0  0  0  0
    3.7872   -0.9964   -0.2232 H   0  0  0  0  0  0  0  0  0  0  0  0
    4.3881    0.3328   -1.8600 H   0  0  0  0  0  0  0  0  0  0  0  0
    5.7917   -0.0544   -0.7554 H   0  0  0  0  0  0  0  0  0  0  0  0
    6.8678    0.0125   -3.1572 H   0  0  0  0  0  0  0  0  0  0  0  0
    8.3790    1.5053   -4.4422 H   0  0  0  0  0  0  0  0  0  0  0  0
    8.4237    3.8617   -3.9813 H   0  0  0  0  0  0  0  0  0  0  0  0
    7.0104    4.8790   -2.2567 H   0  0  0  0  0  0  0  0  0  0  0  0
    5.5153    3.4262   -0.9783 H   0  0  0  0  0  0  0  0  0  0  0  0
    1.7374    1.6423    3.3744 H   0  0  0  0  0  0  0  0  0  0  0  0
   -0.8992   -0.4157    1.9553 H   0  0  0  0  0  0  0  0  0  0  0  0
   -3.9251   -0.9211   -0.3032 H   0  0  0  0  0  0  0  0  0  0  0  0
   -3.5710    2.7938   -0.3301 H   0  0  0  0  0  0  0  0  0  0  0  0
   -5.0308    0.3159   -1.2820 H   0  0  0  0  0  0  0  0  0  0  0  0
   -5.5583    2.0009   -3.0037 H   0  0  0  0  0  0  0  0  0  0  0  0
   -6.7114    2.0990   -1.6781 H   0  0  0  0  0  0  0  0  0  0  0  0
   -3.5805    4.7503   -1.7143 H   0  0  0  0  0  0  0  0  0  0  0  0
   -3.5565    3.2526   -2.7921 H   0  0  0  0  0  0  0  0  0  0  0  0
   -4.3178    4.7691   -3.3507 H   0  0  0  0  0  0  0  0  0  0  0  0
   -6.9371    4.3150   -0.6403 H   0  0  0  0  0  0  0  0  0  0  0  0
   -5.6308    5.5150   -0.9266 H   0  0  0  0  0  0  0  0  0  0  0  0
   -5.3739    4.2342    0.2537 H   0  0  0  0  0  0  0  0  0  0  0  0
  1  2  1  0
  2  3  1  0
  3  4  1  0
  4  5  2  0
  5  6  1  0
  6  7  2  0
  7  8  1  0
  8  9  2  0
  9 10  1  0
 10 11  3  0
  9 12  1  0
 12 13  1  0
 13 14  1  0
 14 15  2  0
 15 16  1  0
 16 17  2  0
 17 18  1  0
 18 19  1  0
 19 20  1  0
 20 21  2  0
 21 22  1  0
 22 23  2  0
 23 24  1  0
 24 25  2  0
 17 26  1  0
 26 27  1  0
 26 28  2  0
 12 29  2  0
 29 30  1  0
 30 31  2  0
 31 32  1  0
 32 33  1  0
 33 34  2  0
 33 35  1  0
 35 36  2  0
 36 37  1  0
 37 38  1  0
 38 39  1  0
 38 40  1  0
 31  4  1  0
 29  6  1  0
 28 14  1  0
 25 20  1  0
  1 41  1  0
  1 42  1  0
  1 43  1  0
  2 44  1  0
  2 45  1  0
  5 46  1  0
  8 47  1  0
 13 48  1  0
 15 49  1  0
 16 50  1  0
 19 51  1  0
 19 52  1  0
 21 53  1  0
 22 54  1  0
 23 55  1  0
 24 56  1  0
 25 57  1  0
 28 58  1  0
 30 59  1  0
 32 60  1  0
 35 61  1  0
 36 62  1  0
 37 63  1  0
 37 64  1  0
 39 65  1  0
 39 66  1  0
 39 67  1  0
 40 68  1  0
 40 69  1  0
 40 70  1  0
M  END
$$$$
[H]/C(C(=O)N([H])c1c(OC([H])([H])C([H])([H])[H])c([H])c2nc([H])c(C#N)c(N([H])c3c([H])c([H])c(OC([H])([H])c4nc([H])c([H])c([H])c4[H])c(Cl)c3[H])c2c1[H])=C(/[H])C([H])([H])N(C([H])([H])[H])C([H])([H])[H]
     RDKit          3D

 69 72  0  0  0  0  0  0  0  0999 V2000
    4.4878   -5.2221    2.5772 C   0  0  0  0  0  0  0  0  0  0  0  0
    4.0775   -3.8534    3.0359 C   0  0  0  0  0  0  0  0  0  0  0  0
    3.6124   -3.0045    2.0364 O   0  0  0  0  0  0  0  0  0  0  0  0
    2.5206   -3.1570    1.2132 C   0  0  0  0  0  0  0  0  0  0  0  0
    1.7346   -4.2667    1.3465 C   0  0  0  0  0  0  0  0  0  0  0  0
    0.6366   -4.3995    0.5049 C   0  0  0  0  0  0  0  0  0  0  0  0
   -0.1541   -5.4800    0.6125 N   0  0  0  0  0  0  0  0  0  0  0  0
   -1.2174   -5.6104   -0.2012 C   0  0  0  0  0  0  0  0  0  0  0  0
   -1.5576   -4.6834   -1.1635 C   0  0  0  0  0  0  0  0  0  0  0  0
   -2.7156   -4.8713   -2.0165 C   0  0  0  0  0  0  0  0  0  0  0  0
   -3.6362   -5.0405   -2.7009 N   0  0  0  0  0  0  0  0  0  0  0  0
   -0.7528   -3.5629   -1.2882 C   0  0  0  0  0  0  0  0  0  0  0  0
   -1.0885   -2.6098   -2.2656 N   0  0  0  0  0  0  0  0  0  0  0  0
   -1.9616   -1.5458   -1.9068 C   0  0  0  0  0  0  0  0  0  0  0  0
   -2.4823   -1.4313   -0.6280 C   0  0  0  0  0  0  0  0  0  0  0  0
   -3.3338   -0.3929   -0.2799 C   0  0  0  0  0  0  0  0  0  0  0  0
   -3.6805    0.5508   -1.2052 C   0  0  0  0  0  0  0  0  0  0  0  0
   -4.5271    1.6002   -0.8940 O   0  0  0  0  0  0  0  0  0  0  0  0
   -5.0444    1.6891    0.4278 C   0  0  0  0  0  0  0  0  0  0  0  0
   -5.9231    2.8635    0.5762 C   0  0  0  0  0  0  0  0  0  0  0  0
   -7.2903    2.8130    0.3354 C   0  0  0  0  0  0  0  0  0  0  0  0
   -8.0984    3.9192    0.4785 C   0  0  0  0  0  0  0  0  0  0  0  0
   -7.5000    5.0994    0.8747 C   0  0  0  0  0  0  0  0  0  0  0  0
   -6.1473    5.1527    1.1138 C   0  0  0  0  0  0  0  0  0  0  0  0
   -5.4098    4.0380    0.9569 N   0  0  0  0  0  0  0  0  0  0  0  0
   -3.1783    0.4613   -2.4816 C   0  0  0  0  0  0  0  0  0  0  0  0
   -3.6388    1.6828   -3.6453 Cl  0  0  0  0  0  0  0  0  0  0  0  0
   -2.3425   -0.5608   -2.8175 C   0  0  0  0  0  0  0  0  0  0  0  0
    0.3269   -3.4575   -0.4423 C   0  0  0  0  0  0  0  0  0  0  0  0
    1.1554   -2.3512   -0.5364 C   0  0  0  0  0  0  0  0  0  0  0  0
    2.2619   -2.1391    0.2548 C   0  0  0  0  0  0  0  0  0  0  0  0
    3.1237   -1.0355    0.1911 N   0  0  0  0  0  0  0  0  0  0  0  0
    3.0582    0.0581   -0.6576 C   0  0  0  0  0  0  0  0  0  0  0  0
    2.1816    0.2168   -1.5215 O   0  0  0  0  0  0  0  0  0  0  0  0
    4.0760    1.1430   -0.5743 C   0  0  0  0  0  0  0  0  0  0  0  0
    4.0468    2.1991   -1.3648 C   0  0  0  0  0  0  0  0  0  0  0  0
    5.0576    3.2763   -1.2819 C   0  0  0  0  0  0  0  0  0  0  0  0
    4.4561    4.5619   -0.9757 N   0  0  0  0  0  0  0  0  0  0  0  0
    5.4926    5.5581   -0.9110 C   0  0  0  0  0  0  0  0  0  0  0  0
    3.7715    4.5228    0.3022 C   0  0  0  0  0  0  0  0  0  0  0  0
    3.9437   -6.0064    3.1337 H   0  0  0  0  0  0  0  0  0  0  0  0
    5.5675   -5.3786    2.8065 H   0  0  0  0  0  0  0  0  0  0  0  0
    4.3329   -5.3012    1.4721 H   0  0  0  0  0  0  0  0  0  0  0  0
    3.2607   -3.9768    3.7986 H   0  0  0  0  0  0  0  0  0  0  0  0
    4.9367   -3.3384    3.5293 H   0  0  0  0  0  0  0  0  0  0  0  0
    1.9404   -5.0457    2.0982 H   0  0  0  0  0  0  0  0  0  0  0  0
   -1.8804   -6.4840   -0.1343 H   0  0  0  0  0  0  0  0  0  0  0  0
   -0.7287   -2.6461   -3.2378 H   0  0  0  0  0  0  0  0  0  0  0  0
   -2.2240   -2.1608    0.1156 H   0  0  0  0  0  0  0  0  0  0  0  0
   -3.7004   -0.3658    0.7303 H   0  0  0  0  0  0  0  0  0  0  0  0
   -5.5664    0.7311    0.6381 H   0  0  0  0  0  0  0  0  0  0  0  0
   -4.2093    1.7497    1.1529 H   0  0  0  0  0  0  0  0  0  0  0  0
   -7.7021    1.8724    0.0305 H   0  0  0  0  0  0  0  0  0  0  0  0
   -9.1660    3.8960    0.2945 H   0  0  0  0  0  0  0  0  0  0  0  0
   -8.0911    6.0124    1.0054 H   0  0  0  0  0  0  0  0  0  0  0  0
   -5.7034    6.1072    1.4277 H   0  0  0  0  0  0  0  0  0  0  0  0
   -1.9474   -0.6350   -3.8141 H   0  0  0  0  0  0  0  0  0  0  0  0
    0.8869   -1.6228   -1.2935 H   0  0  0  0  0  0  0  0  0  0  0  0
    3.9378   -1.0377    0.8883 H   0  0  0  0  0  0  0  0  0  0  0  0
    4.8795    1.0873    0.1525 H   0  0  0  0  0  0  0  0  0  0  0  0
    3.2469    2.2587   -2.0913 H   0  0  0  0  0  0  0  0  0  0  0  0
    5.5825    3.4133   -2.2652 H   0  0  0  0  0  0  0  0  0  0  0  0
    5.8503    3.0014   -0.5593 H   0  0  0  0  0  0  0  0  0  0  0  0
    6.1284    5.4636   -1.8294 H   0  0  0  0  0  0  0  0  0  0  0  0
    5.0576    6.5675   -0.9018 H   0  0  0  0  0  0  0  0  0  0  0  0
    6.1548    5.4280   -0.0245 H   0  0  0  0  0  0  0  0  0  0  0  0
    2.7020    4.2982    0.1954 H   0  0  0  0  0  0  0  0  0  0  0  0
    3.8402    5.5540    0.7429 H   0  0  0  0  0  0  0  0  0  0  0  0
    4.2732    3.8279    1.0138 H   0  0  0  0  0  0  0  0  0  0  0  0
  1  2  1  0
  2  3  1  0
  3  4  1  0
  4  5  2  0
  5  6  1  0
  6  7  2  0
  7  8  1  0
  8  9  2  0
  9 10  1  0
 10 11  3  0
  9 12  1  0
 12 13  1  0
 13 14  1  0
 14 15  2  0
 15 16  1  0
 16 17  2  0
 17 18  1  0
 18 19  1  0
 19 20  1  0
 20 21  2  0
 21 22  1  0
 22 23  2  0
 23 24  1  0
 24 25  2  0
 17 26  1  0
 26 27  1  0
 26 28  2  0
 12 29  2  0
 29 30  1  0
 30 31  2  0
 31 32  1  0
 32 33  1  0
 33 34  2  0
 33 35  1  0
 35 36  2  0
 36 37  1  0
 37 38  1  0
 38 39  1  0
 38 40  1  0
 31  4  1  0
 29  6  1  0
 28 14  1  0
 25 20  1  0
  1 41  1  0
  1 42  1  0
  1 43  1  0
  2 44  1  0
  2 45  1  0
  5 46  1  0
  8 47  1  0
 13 48  1  0
 15 49  1  0
 16 50  1  0
 19 51  1  0
 19 52  1  0
 21 53  1  0
 22 54  1  0
 23 55  1  0
 24 56  1  0
 28 57  1  0
 30 58  1  0
 32 59  1  0
 35 60  1  0
 36 61  1  0
 37 62  1  0
 37 63  1  0
 39 64  1  0
 39 65  1  0
 39 66  1  0
 40 67  1  0
 40 68  1  0
 40 69  1  0
M  END
$$$$
[H]c1nc(N([H])c2c([H])c([H])c(OC([H])([H])c3c([H])c([H])c([H])c(F)c3[H])c(Cl)c2[H])c2c([H])c(-c3oc(C([H])([H])N([H])C([H])([H])C([H])([H])S(=O)(=O)C([H])([H])[H])c([H])c3[H])c([H])c([H])c2n1
     RDKit          3D

 66 70  0  0  0  0  0  0  0  0999 V2000
  -10.9120    0.8479   -0.2841 C   0  0  0  0  0  0  0  0  0  0  0  0
  -10.1733   -0.7401   -0.2927 S   0  0  0  0  0  0  0  0  0  0  0  0
  -11.0856   -1.8806   -0.4942 O   0  0  0  0  0  0  0  0  0  0  0  0
   -9.1107   -0.7368   -1.3861 O   0  0  0  0  0  0  0  0  0  0  0  0
   -9.2298   -1.0230    1.2375 C   0  0  0  0  0  0  0  0  0  0  0  0
   -8.2208    0.0653    1.2856 C   0  0  0  0  0  0  0  0  0  0  0  0
   -7.2178    0.0463    2.3240 N   0  0  0  0  0  0  0  0  0  0  0  0
   -6.3829   -1.1449    2.1160 C   0  0  0  0  0  0  0  0  0  0  0  0
   -4.9405   -0.8460    2.1683 C   0  0  0  0  0  0  0  0  0  0  0  0
   -3.9962   -1.0545    3.1064 C   0  0  0  0  0  0  0  0  0  0  0  0
   -2.8087   -0.5531    2.5308 C   0  0  0  0  0  0  0  0  0  0  0  0
   -3.0981   -0.0798    1.3069 C   0  0  0  0  0  0  0  0  0  0  0  0
   -4.3769   -0.2745    1.1382 O   0  0  0  0  0  0  0  0  0  0  0  0
   -2.2626    0.5529    0.2573 C   0  0  0  0  0  0  0  0  0  0  0  0
   -2.9159    1.2428   -0.7690 C   0  0  0  0  0  0  0  0  0  0  0  0
   -2.2397    1.7530   -1.8441 C   0  0  0  0  0  0  0  0  0  0  0  0
   -0.8824    1.5983   -1.9432 C   0  0  0  0  0  0  0  0  0  0  0  0
   -0.1823    2.0411   -3.0037 N   0  0  0  0  0  0  0  0  0  0  0  0
    1.1368    1.8409   -3.1108 C   0  0  0  0  0  0  0  0  0  0  0  0
    1.7801    1.1832   -2.1383 N   0  0  0  0  0  0  0  0  0  0  0  0
    1.1560    0.7006   -1.0310 C   0  0  0  0  0  0  0  0  0  0  0  0
    1.8969    0.0059   -0.0315 N   0  0  0  0  0  0  0  0  0  0  0  0
    3.2864   -0.1599   -0.3726 C   0  0  0  0  0  0  0  0  0  0  0  0
    4.2732    0.7634   -0.1494 C   0  0  0  0  0  0  0  0  0  0  0  0
    5.5719    0.5446   -0.5949 C   0  0  0  0  0  0  0  0  0  0  0  0
    5.9239   -0.5931   -1.2744 C   0  0  0  0  0  0  0  0  0  0  0  0
    7.1246   -0.8891   -1.7599 O   0  0  0  0  0  0  0  0  0  0  0  0
    8.3834   -0.5252   -1.8794 C   0  0  0  0  0  0  0  0  0  0  0  0
    9.2962   -0.3338   -0.7474 C   0  0  0  0  0  0  0  0  0  0  0  0
   10.6651   -0.1244   -1.0653 C   0  0  0  0  0  0  0  0  0  0  0  0
   11.5659    0.0710   -0.0528 C   0  0  0  0  0  0  0  0  0  0  0  0
   11.1922    0.0741    1.2996 C   0  0  0  0  0  0  0  0  0  0  0  0
    9.8682   -0.1273    1.6172 C   0  0  0  0  0  0  0  0  0  0  0  0
    9.3767   -0.1354    2.8873 F   0  0  0  0  0  0  0  0  0  0  0  0
    8.9537   -0.3282    0.5689 C   0  0  0  0  0  0  0  0  0  0  0  0
    4.8800   -1.5264   -1.4809 C   0  0  0  0  0  0  0  0  0  0  0  0
    5.2620   -3.0305   -2.3289 Cl  0  0  0  0  0  0  0  0  0  0  0  0
    3.6060   -1.3162   -1.0441 C   0  0  0  0  0  0  0  0  0  0  0  0
   -0.1800    0.9108   -0.9322 C   0  0  0  0  0  0  0  0  0  0  0  0
   -0.9092    0.4065    0.1487 C   0  0  0  0  0  0  0  0  0  0  0  0
  -10.1351    1.6306   -0.5653 H   0  0  0  0  0  0  0  0  0  0  0  0
  -11.6823    0.9639   -1.0866 H   0  0  0  0  0  0  0  0  0  0  0  0
  -11.2980    1.1246    0.6963 H   0  0  0  0  0  0  0  0  0  0  0  0
   -8.6915   -1.9883    1.0959 H   0  0  0  0  0  0  0  0  0  0  0  0
   -9.9572   -1.0221    2.0441 H   0  0  0  0  0  0  0  0  0  0  0  0
   -7.7183    0.1939    0.2706 H   0  0  0  0  0  0  0  0  0  0  0  0
   -8.8020    1.0291    1.3927 H   0  0  0  0  0  0  0  0  0  0  0  0
   -6.6524    0.9000    2.2736 H   0  0  0  0  0  0  0  0  0  0  0  0
   -6.6491   -1.6610    1.1870 H   0  0  0  0  0  0  0  0  0  0  0  0
   -6.6487   -1.8315    2.9648 H   0  0  0  0  0  0  0  0  0  0  0  0
   -4.0265   -1.4903    4.0785 H   0  0  0  0  0  0  0  0  0  0  0  0
   -1.8139   -0.5513    2.9916 H   0  0  0  0  0  0  0  0  0  0  0  0
   -4.0152    1.3510   -0.6756 H   0  0  0  0  0  0  0  0  0  0  0  0
   -2.7459    2.2925   -2.6309 H   0  0  0  0  0  0  0  0  0  0  0  0
    1.6727    2.2038   -3.9522 H   0  0  0  0  0  0  0  0  0  0  0  0
    1.5564   -0.3587    0.8617 H   0  0  0  0  0  0  0  0  0  0  0  0
    3.9907    1.6725    0.3839 H   0  0  0  0  0  0  0  0  0  0  0  0
    6.3146    1.2931   -0.4064 H   0  0  0  0  0  0  0  0  0  0  0  0
    8.8915   -1.3249   -2.5793 H   0  0  0  0  0  0  0  0  0  0  0  0
    8.5319    0.3916   -2.5868 H   0  0  0  0  0  0  0  0  0  0  0  0
   10.9212   -0.1340   -2.1029 H   0  0  0  0  0  0  0  0  0  0  0  0
   12.5957    0.2285   -0.2957 H   0  0  0  0  0  0  0  0  0  0  0  0
   11.9030    0.2273    2.0930 H   0  0  0  0  0  0  0  0  0  0  0  0
    7.9321   -0.5033    0.8574 H   0  0  0  0  0  0  0  0  0  0  0  0
    2.8310   -2.0850   -1.2350 H   0  0  0  0  0  0  0  0  0  0  0  0
   -0.3785   -0.1164    0.9436 H   0  0  0  0  0  0  0  0  0  0  0  0
  1  2  1  0
  2  3  2  0
  2  4  2  0
  2  5  1  0
  5  6  1  0
  6  7  1  0
  7  8  1  0
  8  9  1  0
  9 10  2  0
 10 11  1  0
 11 12  2  0
 12 13  1  0
 12 14  1  0
 14 15  2  0
 15 16  1  0
 16 17  2  0
 17 18  1  0
 18 19  2  0
 19 20  1  0
 20 21  2  0
 21 22  1  0
 22 23  1  0
 23 24  2  0
 24 25  1  0
 25 26  2  0
 26 27  1  0
 27 28  1  0
 28 29  1  0
 29 30  2  0
 30 31  1  0
 31 32  2  0
 32 33  1  0
 33 34  1  0
 33 35  2  0
 26 36  1  0
 36 37  1  0
 36 38  2  0
 21 39  1  0
 39 40  2  0
 13  9  1  0
 40 14  1  0
 39 17  1  0
 38 23  1  0
 35 29  1  0
  1 41  1  0
  1 42  1  0
  1 43  1  0
  5 44  1  0
  5 45  1  0
  6 46  1  0
  6 47  1  0
  7 48  1  0
  8 49  1  0
  8 50  1  0
 10 51  1  0
 11 52  1  0
 15 53  1  0
 16 54  1  0
 19 55  1  0
 22 56  1  0
 24 57  1  0
 25 58  1  0
 28 59  1  0
 28 60  1  0
 30 61  1  0
 31 62  1  0
 32 63  1  0
 35 64  1  0
 38 65  1  0
 40 66  1  0
M  END
$$$$
[H]/C(C(=O)N([H])c1nc([H])c2nc([H])nc(N([H])c3c([H])c([H])c(F)c(Cl)c3[H])c2c1[H])=C(/[H])C([H])([H])N(C([H])([H])[H])C([H])([H])[H]
     RDKit          3D

 46 48  0  0  0  0  0  0  0  0999 V2000
    4.9009    2.3508    0.1236 C   0  0  0  0  0  0  0  0  0  0  0  0
    5.7340    1.2317    0.4586 N   0  0  0  0  0  0  0  0  0  0  0  0
    7.1369    1.6141    0.3172 C   0  0  0  0  0  0  0  0  0  0  0  0
    5.4727    0.1073   -0.4443 C   0  0  0  0  0  0  0  0  0  0  0  0
    4.1103   -0.4564   -0.2193 C   0  0  0  0  0  0  0  0  0  0  0  0
    3.9052   -1.7036    0.1410 C   0  0  0  0  0  0  0  0  0  0  0  0
    2.6114   -2.3089    0.3740 C   0  0  0  0  0  0  0  0  0  0  0  0
    2.4995   -3.5217    0.7202 O   0  0  0  0  0  0  0  0  0  0  0  0
    1.4271   -1.5728    0.2253 N   0  0  0  0  0  0  0  0  0  0  0  0
    0.1333   -2.1571    0.4464 C   0  0  0  0  0  0  0  0  0  0  0  0
   -0.9700   -1.3284    0.2679 C   0  0  0  0  0  0  0  0  0  0  0  0
   -2.2128   -1.8350    0.4605 C   0  0  0  0  0  0  0  0  0  0  0  0
   -3.3538   -1.0434    0.2897 C   0  0  0  0  0  0  0  0  0  0  0  0
   -3.2634    0.3080   -0.0890 N   0  0  0  0  0  0  0  0  0  0  0  0
   -4.3046    1.2298   -0.2972 C   0  0  0  0  0  0  0  0  0  0  0  0
   -5.6304    1.0566   -0.0338 C   0  0  0  0  0  0  0  0  0  0  0  0
   -6.6204    2.0103   -0.2754 C   0  0  0  0  0  0  0  0  0  0  0  0
   -6.2138    3.2024   -0.8163 C   0  0  0  0  0  0  0  0  0  0  0  0
   -7.1323    4.1767   -1.0764 F   0  0  0  0  0  0  0  0  0  0  0  0
   -4.9135    3.4578   -1.1087 C   0  0  0  0  0  0  0  0  0  0  0  0
   -4.4170    5.0061   -1.8023 Cl  0  0  0  0  0  0  0  0  0  0  0  0
   -3.9755    2.4824   -0.8510 C   0  0  0  0  0  0  0  0  0  0  0  0
   -4.5087   -1.6833    0.5115 N   0  0  0  0  0  0  0  0  0  0  0  0
   -4.6454   -2.9631    0.8676 C   0  0  0  0  0  0  0  0  0  0  0  0
   -3.5319   -3.6972    1.0236 N   0  0  0  0  0  0  0  0  0  0  0  0
   -2.3048   -3.1629    0.8279 C   0  0  0  0  0  0  0  0  0  0  0  0
   -1.2067   -3.9815    1.0044 C   0  0  0  0  0  0  0  0  0  0  0  0
    0.0032   -3.4419    0.8041 N   0  0  0  0  0  0  0  0  0  0  0  0
    4.2141    2.5732    0.9671 H   0  0  0  0  0  0  0  0  0  0  0  0
    4.3332    2.1418   -0.8167 H   0  0  0  0  0  0  0  0  0  0  0  0
    5.5224    3.2305   -0.0519 H   0  0  0  0  0  0  0  0  0  0  0  0
    7.2073    2.3727   -0.4902 H   0  0  0  0  0  0  0  0  0  0  0  0
    7.5517    1.9408    1.2711 H   0  0  0  0  0  0  0  0  0  0  0  0
    7.6787    0.6896    0.0175 H   0  0  0  0  0  0  0  0  0  0  0  0
    6.2466   -0.6825   -0.2560 H   0  0  0  0  0  0  0  0  0  0  0  0
    5.5858    0.4219   -1.5027 H   0  0  0  0  0  0  0  0  0  0  0  0
    3.2767    0.2018   -0.3624 H   0  0  0  0  0  0  0  0  0  0  0  0
    4.8058   -2.3080    0.2665 H   0  0  0  0  0  0  0  0  0  0  0  0
    1.4839   -0.5769   -0.0569 H   0  0  0  0  0  0  0  0  0  0  0  0
   -0.8323   -0.3046   -0.0176 H   0  0  0  0  0  0  0  0  0  0  0  0
   -2.2765    0.7039   -0.2373 H   0  0  0  0  0  0  0  0  0  0  0  0
   -5.9795    0.1448    0.3965 H   0  0  0  0  0  0  0  0  0  0  0  0
   -7.6574    1.8091   -0.0440 H   0  0  0  0  0  0  0  0  0  0  0  0
   -2.9533    2.7020   -1.0883 H   0  0  0  0  0  0  0  0  0  0  0  0
   -5.6275   -3.4200    1.0309 H   0  0  0  0  0  0  0  0  0  0  0  0
   -1.3093   -5.0168    1.2940 H   0  0  0  0  0  0  0  0  0  0  0  0
  1  2  1  0
  2  3  1  0
  2  4  1  0
  4  5  1  0
  5  6  2  0
  6  7  1  0
  7  8  2  0
  7  9  1  0
  9 10  1  0
 10 11  2  0
 11 12  1  0
 12 13  2  0
 13 14  1  0
 14 15  1  0
 15 16  2  0
 16 17  1  0
 17 18  2  0
 18 19  1  0
 18 20  1  0
 20 21  1  0
 20 22  2  0
 13 23  1  0
 23 24  2  0
 24 25  1  0
 25 26  2  0
 26 27  1  0
 27 28  2  0
 28 10  1  0
 26 12  1  0
 22 15  1  0
  1 29  1  0
  1 30  1  0
  1 31  1  0
  3 32  1  0
  3 33  1  0
  3 34  1  0
  4 35  1  0
  4 36  1  0
  5 37  1  0
  6 38  1  0
  9 39  1  0
 11 40  1  0
 14 41  1  0
 16 42  1  0
 17 43  1  0
 22 44  1  0
 24 45  1  0
 27 46  1  0
M  END
$$$$
[H]c1nc(N([H])c2c([H])c([H])c3c(c([H])nn3C([H])([H])c3c([H])c([H])c([H])c(F)c3[H])c2[H])c2c(O[C@@]([H])(C(=O)N(C([H])([H])[H])C([H])([H])[H])C([H])([H])[H])c([H])c([H])c([H])c2n1
     RDKit          3D

 61 65  0  0  0  0  0  0  0  0999 V2000
   -4.9508    0.7809    1.4765 C   0  0  0  0  0  0  0  0  0  0  0  0
   -4.1598    0.8203    0.1970 C   0  0  1  0  0  0  0  0  0  0  0  0
   -3.0897   -0.0824    0.2584 O   0  0  0  0  0  0  0  0  0  0  0  0
   -3.1083   -1.4267    0.4120 C   0  0  0  0  0  0  0  0  0  0  0  0
   -4.3270   -2.1094    0.5088 C   0  0  0  0  0  0  0  0  0  0  0  0
   -4.4032   -3.4807    0.6715 C   0  0  0  0  0  0  0  0  0  0  0  0
   -3.2468   -4.2181    0.7431 C   0  0  0  0  0  0  0  0  0  0  0  0
   -2.0364   -3.5731    0.6505 C   0  0  0  0  0  0  0  0  0  0  0  0
   -0.9150   -4.3037    0.7364 N   0  0  0  0  0  0  0  0  0  0  0  0
    0.3082   -3.7369    0.6672 C   0  0  0  0  0  0  0  0  0  0  0  0
    0.3557   -2.4424    0.5114 N   0  0  0  0  0  0  0  0  0  0  0  0
   -0.7097   -1.5898    0.4099 C   0  0  0  0  0  0  0  0  0  0  0  0
   -0.4823   -0.2282    0.1574 N   0  0  0  0  0  0  0  0  0  0  0  0
    0.8431    0.2899    0.2012 C   0  0  0  0  0  0  0  0  0  0  0  0
    1.8227   -0.1138    1.0620 C   0  0  0  0  0  0  0  0  0  0  0  0
    3.1047    0.4026    1.0400 C   0  0  0  0  0  0  0  0  0  0  0  0
    3.4197    1.3663    0.1162 C   0  0  0  0  0  0  0  0  0  0  0  0
    4.5723    2.0246   -0.1130 N   0  0  0  0  0  0  0  0  0  0  0  0
    5.7873    1.8146    0.6235 C   0  0  0  0  0  0  0  0  0  0  0  0
    6.6894    0.8083    0.0711 C   0  0  0  0  0  0  0  0  0  0  0  0
    7.6098    1.1741   -0.8859 C   0  0  0  0  0  0  0  0  0  0  0  0
    8.4843    0.2397   -1.4279 C   0  0  0  0  0  0  0  0  0  0  0  0
    8.4585   -1.0691   -1.0290 C   0  0  0  0  0  0  0  0  0  0  0  0
    7.5444   -1.4485   -0.0738 C   0  0  0  0  0  0  0  0  0  0  0  0
    7.5291   -2.7477    0.3127 F   0  0  0  0  0  0  0  0  0  0  0  0
    6.6661   -0.5069    0.4697 C   0  0  0  0  0  0  0  0  0  0  0  0
    4.3445    2.8609   -1.1246 N   0  0  0  0  0  0  0  0  0  0  0  0
    3.0756    2.7594   -1.5543 C   0  0  0  0  0  0  0  0  0  0  0  0
    2.4674    1.8047   -0.7692 C   0  0  0  0  0  0  0  0  0  0  0  0
    1.2013    1.2748   -0.7265 C   0  0  0  0  0  0  0  0  0  0  0  0
   -1.9660   -2.1964    0.4863 C   0  0  0  0  0  0  0  0  0  0  0  0
   -4.9533    0.7444   -1.0233 C   0  0  0  0  0  0  0  0  0  0  0  0
   -4.6407   -0.0863   -1.9129 O   0  0  0  0  0  0  0  0  0  0  0  0
   -6.0778    1.5746   -1.2598 N   0  0  0  0  0  0  0  0  0  0  0  0
   -6.8471    1.4555   -2.5050 C   0  0  0  0  0  0  0  0  0  0  0  0
   -6.5530    2.5804   -0.3338 C   0  0  0  0  0  0  0  0  0  0  0  0
   -4.8993    1.7182    2.0718 H   0  0  0  0  0  0  0  0  0  0  0  0
   -4.5135    0.0016    2.1292 H   0  0  0  0  0  0  0  0  0  0  0  0
   -6.0177    0.5171    1.3241 H   0  0  0  0  0  0  0  0  0  0  0  0
   -3.6615    1.8476    0.2128 H   0  0  0  0  0  0  0  0  0  0  0  0
   -5.2744   -1.5871    0.4552 H   0  0  0  0  0  0  0  0  0  0  0  0
   -5.3422   -4.0069    0.7460 H   0  0  0  0  0  0  0  0  0  0  0  0
   -3.2465   -5.3000    0.8710 H   0  0  0  0  0  0  0  0  0  0  0  0
    1.1919   -4.3551    0.7409 H   0  0  0  0  0  0  0  0  0  0  0  0
   -1.1878    0.4506   -0.0828 H   0  0  0  0  0  0  0  0  0  0  0  0
    1.6202   -0.8526    1.8254 H   0  0  0  0  0  0  0  0  0  0  0  0
    3.8356    0.0440    1.7477 H   0  0  0  0  0  0  0  0  0  0  0  0
    6.3331    2.7753    0.7412 H   0  0  0  0  0  0  0  0  0  0  0  0
    5.5057    1.5185    1.6731 H   0  0  0  0  0  0  0  0  0  0  0  0
    7.6608    2.2047   -1.2285 H   0  0  0  0  0  0  0  0  0  0  0  0
    9.2000    0.5259   -2.1726 H   0  0  0  0  0  0  0  0  0  0  0  0
    9.1323   -1.8201   -1.4376 H   0  0  0  0  0  0  0  0  0  0  0  0
    5.9723   -0.8654    1.2183 H   0  0  0  0  0  0  0  0  0  0  0  0
    2.6403    3.3379   -2.3725 H   0  0  0  0  0  0  0  0  0  0  0  0
    0.4632    1.6448   -1.4460 H   0  0  0  0  0  0  0  0  0  0  0  0
   -7.3927    2.3686   -2.7364 H   0  0  0  0  0  0  0  0  0  0  0  0
   -6.1212    1.1693   -3.2930 H   0  0  0  0  0  0  0  0  0  0  0  0
   -7.5548    0.6097   -2.3353 H   0  0  0  0  0  0  0  0  0  0  0  0
   -7.0165    3.4344   -0.9118 H   0  0  0  0  0  0  0  0  0  0  0  0
   -5.7543    3.0367    0.2687 H   0  0  0  0  0  0  0  0  0  0  0  0
   -7.3902    2.1661    0.2601 H   0  0  0  0  0  0  0  0  0  0  0  0
  1  2  1  0
  2  3  1  0
  3  4  1  0
  4  5  2  0
  5  6  1  0
  6  7  2  0
  7  8  1  0
  8  9  2  0
  9 10  1  0
 10 11  2  0
 11 12  1  0
 12 13  1  0
 13 14  1  0
 14 15  2  0
 15 16  1  0
 16 17  2  0
 17 18  1  0
 18 19  1  0
 19 20  1  0
 20 21  2  0
 21 22  1  0
 22 23  2  0
 23 24  1  0
 24 25  1  0
 24 26  2  0
 18 27  1  0
 27 28  2  0
 28 29  1  0
 29 30  2  0
 12 31  2  0
  2 32  1  0
 32 33  2  0
 32 34  1  0
 34 35  1  0
 34 36  1  0
 31  4  1  0
 31  8  1  0
 30 14  1  0
 29 17  1  0
 26 20  1  0
  1 37  1  0
  1 38  1  0
  1 39  1  0
  2 40  1  6
  5 41  1  0
  6 42  1  0
  7 43  1  0
 10 44  1  0
 13 45  1  0
 15 46  1  0
 16 47  1  0
 19 48  1  0
 19 49  1  0
 21 50  1  0
 22 51  1  0
 23 52  1  0
 26 53  1  0
 28 54  1  0
 30 55  1  0
 35 56  1  0
 35 57  1  0
 35 58  1  0
 36 59  1  0
 36 60  1  0
 36 61  1  0
M  END
$$$$
[H]c1nc(N([H])c2c([H])c([H])c3c(c([H])nn3C([H])([H])c3c([H])c([H])c([H])c(F)c3[H])c2[H])c2c(O[C@]([H])(C(=O)N(C([H])([H])[H])C([H])([H])[H])C([H])([H])[H])c([H])c([H])c([H])c2n1
     RDKit          3D

 61 65  0  0  0  0  0  0  0  0999 V2000
   -4.1388    1.7758    1.0930 C   0  0  0  0  0  0  0  0  0  0  0  0
   -4.3984    0.4741    0.3202 C   0  0  2  0  0  0  0  0  0  0  0  0
   -3.2764   -0.3497    0.5267 O   0  0  0  0  0  0  0  0  0  0  0  0
   -3.2504   -1.6363    0.9892 C   0  0  0  0  0  0  0  0  0  0  0  0
   -4.4377   -2.2916    1.2984 C   0  0  0  0  0  0  0  0  0  0  0  0
   -4.4092   -3.5844    1.7665 C   0  0  0  0  0  0  0  0  0  0  0  0
   -3.2016   -4.2139    1.9232 C   0  0  0  0  0  0  0  0  0  0  0  0
   -2.0018   -3.5822    1.6216 C   0  0  0  0  0  0  0  0  0  0  0  0
   -0.8479   -4.2762    1.8171 N   0  0  0  0  0  0  0  0  0  0  0  0
    0.2872   -3.6333    1.5270 C   0  0  0  0  0  0  0  0  0  0  0  0
    0.3086   -2.3884    1.0722 N   0  0  0  0  0  0  0  0  0  0  0  0
   -0.8143   -1.6448    0.8565 C   0  0  0  0  0  0  0  0  0  0  0  0
   -0.7112   -0.3676    0.3099 N   0  0  0  0  0  0  0  0  0  0  0  0
    0.5924    0.2070    0.1328 C   0  0  0  0  0  0  0  0  0  0  0  0
    1.5650    0.0379    1.0570 C   0  0  0  0  0  0  0  0  0  0  0  0
    2.8554    0.5639    0.8863 C   0  0  0  0  0  0  0  0  0  0  0  0
    3.1057    1.2685   -0.2659 C   0  0  0  0  0  0  0  0  0  0  0  0
    4.2404    1.8683   -0.6666 N   0  0  0  0  0  0  0  0  0  0  0  0
    5.4953    1.8848    0.0742 C   0  0  0  0  0  0  0  0  0  0  0  0
    6.3859    0.7538   -0.2779 C   0  0  0  0  0  0  0  0  0  0  0  0
    7.2563    0.8779   -1.3484 C   0  0  0  0  0  0  0  0  0  0  0  0
    8.1053   -0.1468   -1.7096 C   0  0  0  0  0  0  0  0  0  0  0  0
    8.1252   -1.3408   -1.0206 C   0  0  0  0  0  0  0  0  0  0  0  0
    7.2631   -1.4748    0.0465 C   0  0  0  0  0  0  0  0  0  0  0  0
    7.2880   -2.6509    0.7192 F   0  0  0  0  0  0  0  0  0  0  0  0
    6.3996   -0.4345    0.4152 C   0  0  0  0  0  0  0  0  0  0  0  0
    3.9891    2.4202   -1.8447 N   0  0  0  0  0  0  0  0  0  0  0  0
    2.7231    2.1995   -2.2283 C   0  0  0  0  0  0  0  0  0  0  0  0
    2.1399    1.4623   -1.2291 C   0  0  0  0  0  0  0  0  0  0  0  0
    0.8846    0.9256   -1.0177 C   0  0  0  0  0  0  0  0  0  0  0  0
   -2.0220   -2.2822    1.1497 C   0  0  0  0  0  0  0  0  0  0  0  0
   -4.4974    0.8971   -1.1159 C   0  0  0  0  0  0  0  0  0  0  0  0
   -3.6183    0.4919   -1.9020 O   0  0  0  0  0  0  0  0  0  0  0  0
   -5.5407    1.7230   -1.5781 N   0  0  0  0  0  0  0  0  0  0  0  0
   -5.5906    2.1065   -2.9779 C   0  0  0  0  0  0  0  0  0  0  0  0
   -6.5881    2.2161   -0.7051 C   0  0  0  0  0  0  0  0  0  0  0  0
   -3.5400    1.4843    2.0062 H   0  0  0  0  0  0  0  0  0  0  0  0
   -5.0452    2.2382    1.4756 H   0  0  0  0  0  0  0  0  0  0  0  0
   -3.5005    2.3981    0.4554 H   0  0  0  0  0  0  0  0  0  0  0  0
   -5.3571    0.0346    0.6314 H   0  0  0  0  0  0  0  0  0  0  0  0
   -5.3858   -1.7827    1.1683 H   0  0  0  0  0  0  0  0  0  0  0  0
   -5.2980   -4.1214    2.0148 H   0  0  0  0  0  0  0  0  0  0  0  0
   -3.1296   -5.2422    2.2927 H   0  0  0  0  0  0  0  0  0  0  0  0
    1.2708   -4.1132    1.6535 H   0  0  0  0  0  0  0  0  0  0  0  0
   -1.4573    0.2270   -0.0088 H   0  0  0  0  0  0  0  0  0  0  0  0
    1.4463   -0.4802    2.0049 H   0  0  0  0  0  0  0  0  0  0  0  0
    3.6233    0.4227    1.6321 H   0  0  0  0  0  0  0  0  0  0  0  0
    6.0142    2.8747   -0.0221 H   0  0  0  0  0  0  0  0  0  0  0  0
    5.2302    1.8202    1.1677 H   0  0  0  0  0  0  0  0  0  0  0  0
    7.2377    1.8239   -1.8911 H   0  0  0  0  0  0  0  0  0  0  0  0
    8.7793   -0.0413   -2.5443 H   0  0  0  0  0  0  0  0  0  0  0  0
    8.7840   -2.1598   -1.2866 H   0  0  0  0  0  0  0  0  0  0  0  0
    5.7512   -0.5893    1.2539 H   0  0  0  0  0  0  0  0  0  0  0  0
    2.2207    2.5230   -3.1412 H   0  0  0  0  0  0  0  0  0  0  0  0
    0.1072    1.0654   -1.7631 H   0  0  0  0  0  0  0  0  0  0  0  0
   -6.5700    2.4931   -3.2841 H   0  0  0  0  0  0  0  0  0  0  0  0
   -4.8611    2.9428   -3.1010 H   0  0  0  0  0  0  0  0  0  0  0  0
   -5.2244    1.2787   -3.6255 H   0  0  0  0  0  0  0  0  0  0  0  0
   -7.5278    2.3477   -1.3098 H   0  0  0  0  0  0  0  0  0  0  0  0
   -6.3741    3.2003   -0.2732 H   0  0  0  0  0  0  0  0  0  0  0  0
   -6.8595    1.4995    0.0925 H   0  0  0  0  0  0  0  0  0  0  0  0
  1  2  1  0
  2  3  1  0
  3  4  1  0
  4  5  2  0
  5  6  1  0
  6  7  2  0
  7  8  1  0
  8  9  2  0
  9 10  1  0
 10 11  2  0
 11 12  1  0
 12 13  1  0
 13 14  1  0
 14 15  2  0
 15 16  1  0
 16 17  2  0
 17 18  1  0
 18 19  1  0
 19 20  1  0
 20 21  2  0
 21 22  1  0
 22 23  2  0
 23 24  1  0
 24 25  1  0
 24 26  2  0
 18 27  1  0
 27 28  2  0
 28 29  1  0
 29 30  2  0
 12 31  2  0
  2 32  1  0
 32 33  2  0
 32 34  1  0
 34 35  1  0
 34 36  1  0
 31  4  1  0
 31  8  1  0
 30 14  1  0
 29 17  1  0
 26 20  1  0
  1 37  1  0
  1 38  1  0
  1 39  1  0
  2 40  1  1
  5 41  1  0
  6 42  1  0
  7 43  1  0
 10 44  1  0
 13 45  1  0
 15 46  1  0
 16 47  1  0
 19 48  1  0
 19 49  1  0
 21 50  1  0
 22 51  1  0
 23 52  1  0
 26 53  1  0
 28 54  1  0
 30 55  1  0
 35 56  1  0
 35 57  1  0
 35 58  1  0
 36 59  1  0
 36 60  1  0
 36 61  1  0
M  END
$$$$
[H]/C(C(=O)N([H])c1c(OC([H])([H])C([H])([H])[H])c([H])c2nc([H])c(C#N)c(N([H])c3c([H])c([H])c(OC([H])([H])c4c([H])c([H])c([H])c([H])c4[H])c(Cl)c3[H])c2c1[H])=C(/[H])C([H])([H])N1C([H])([H])C([H])([H])OC([H])([H])C1([H])[H]
     RDKit          3D

 75 79  0  0  0  0  0  0  0  0999 V2000
   -3.9955   -5.5221   -2.4468 C   0  0  0  0  0  0  0  0  0  0  0  0
   -3.8080   -4.7251   -1.2000 C   0  0  0  0  0  0  0  0  0  0  0  0
   -3.1365   -3.5212   -1.3378 O   0  0  0  0  0  0  0  0  0  0  0  0
   -1.8596   -3.3021   -1.7881 C   0  0  0  0  0  0  0  0  0  0  0  0
   -1.0074   -4.2992   -2.1912 C   0  0  0  0  0  0  0  0  0  0  0  0
    0.2674   -4.0989   -2.6417 C   0  0  0  0  0  0  0  0  0  0  0  0
    1.0920   -5.1040   -3.0375 N   0  0  0  0  0  0  0  0  0  0  0  0
    2.3443   -4.8504   -3.4771 C   0  0  0  0  0  0  0  0  0  0  0  0
    2.8509   -3.5670   -3.5480 C   0  0  0  0  0  0  0  0  0  0  0  0
    4.1770   -3.2680   -4.0110 C   0  0  0  0  0  0  0  0  0  0  0  0
    5.2379   -3.0165   -4.3962 N   0  0  0  0  0  0  0  0  0  0  0  0
    1.9958   -2.5464   -3.1399 C   0  0  0  0  0  0  0  0  0  0  0  0
    2.4316   -1.2179   -3.1953 N   0  0  0  0  0  0  0  0  0  0  0  0
    3.1075   -0.6239   -2.0937 C   0  0  0  0  0  0  0  0  0  0  0  0
    3.4888    0.7209   -2.1354 C   0  0  0  0  0  0  0  0  0  0  0  0
    4.1498    1.3288   -1.0948 C   0  0  0  0  0  0  0  0  0  0  0  0
    4.4646    0.6122    0.0502 C   0  0  0  0  0  0  0  0  0  0  0  0
    5.1345    1.2396    1.0967 O   0  0  0  0  0  0  0  0  0  0  0  0
    5.4687    2.5948    0.9569 C   0  0  0  0  0  0  0  0  0  0  0  0
    6.1743    3.1784    2.1000 C   0  0  0  0  0  0  0  0  0  0  0  0
    5.4930    3.6374    3.2068 C   0  0  0  0  0  0  0  0  0  0  0  0
    6.1308    4.1917    4.2848 C   0  0  0  0  0  0  0  0  0  0  0  0
    7.4984    4.2980    4.2694 C   0  0  0  0  0  0  0  0  0  0  0  0
    8.2048    3.8477    3.1751 C   0  0  0  0  0  0  0  0  0  0  0  0
    7.5480    3.2914    2.0982 C   0  0  0  0  0  0  0  0  0  0  0  0
    4.0943   -0.7145    0.1048 C   0  0  0  0  0  0  0  0  0  0  0  0
    4.4897   -1.6197    1.5466 Cl  0  0  0  0  0  0  0  0  0  0  0  0
    3.4263   -1.3204   -0.9527 C   0  0  0  0  0  0  0  0  0  0  0  0
    0.7112   -2.7955   -2.6875 C   0  0  0  0  0  0  0  0  0  0  0  0
   -0.1234   -1.7420   -2.2858 C   0  0  0  0  0  0  0  0  0  0  0  0
   -1.3978   -1.9752   -1.8381 C   0  0  0  0  0  0  0  0  0  0  0  0
   -2.3214   -0.9808   -1.4370 N   0  0  0  0  0  0  0  0  0  0  0  0
   -1.9948    0.3823   -1.2820 C   0  0  0  0  0  0  0  0  0  0  0  0
   -0.8516    0.8768   -1.4701 O   0  0  0  0  0  0  0  0  0  0  0  0
   -3.0085    1.3590   -0.8749 C   0  0  0  0  0  0  0  0  0  0  0  0
   -4.2738    1.0890   -0.6357 C   0  0  0  0  0  0  0  0  0  0  0  0
   -5.2175    2.1906   -0.2209 C   0  0  0  0  0  0  0  0  0  0  0  0
   -5.7592    1.8486    1.0537 N   0  0  0  0  0  0  0  0  0  0  0  0
   -4.8722    1.8506    2.1500 C   0  0  0  0  0  0  0  0  0  0  0  0
   -5.1988    2.7293    3.3020 C   0  0  0  0  0  0  0  0  0  0  0  0
   -6.4350    3.3583    3.1852 O   0  0  0  0  0  0  0  0  0  0  0  0
   -7.4052    2.4875    2.6944 C   0  0  0  0  0  0  0  0  0  0  0  0
   -7.1139    2.1913    1.2643 C   0  0  0  0  0  0  0  0  0  0  0  0
   -3.4437   -5.1442   -3.3212 H   0  0  0  0  0  0  0  0  0  0  0  0
   -3.7410   -6.5866   -2.2045 H   0  0  0  0  0  0  0  0  0  0  0  0
   -5.0807   -5.5678   -2.7624 H   0  0  0  0  0  0  0  0  0  0  0  0
   -3.3473   -5.3184   -0.3745 H   0  0  0  0  0  0  0  0  0  0  0  0
   -4.8392   -4.4765   -0.8048 H   0  0  0  0  0  0  0  0  0  0  0  0
   -1.3575   -5.3220   -2.1548 H   0  0  0  0  0  0  0  0  0  0  0  0
    2.9703   -5.6828   -3.7837 H   0  0  0  0  0  0  0  0  0  0  0  0
    2.2402   -0.6785   -4.0781 H   0  0  0  0  0  0  0  0  0  0  0  0
    3.2474    1.2736   -3.0143 H   0  0  0  0  0  0  0  0  0  0  0  0
    4.4147    2.3718   -1.1935 H   0  0  0  0  0  0  0  0  0  0  0  0
    4.4877    3.1432    0.8568 H   0  0  0  0  0  0  0  0  0  0  0  0
    6.0351    2.8132    0.0288 H   0  0  0  0  0  0  0  0  0  0  0  0
    4.4047    3.5721    3.2649 H   0  0  0  0  0  0  0  0  0  0  0  0
    5.6028    4.5508    5.1475 H   0  0  0  0  0  0  0  0  0  0  0  0
    8.0377    4.7400    5.1233 H   0  0  0  0  0  0  0  0  0  0  0  0
    9.3027    3.9384    3.1745 H   0  0  0  0  0  0  0  0  0  0  0  0
    8.1449    2.9408    1.2412 H   0  0  0  0  0  0  0  0  0  0  0  0
    3.1641   -2.3567   -0.8496 H   0  0  0  0  0  0  0  0  0  0  0  0
    0.3085   -0.7697   -2.3670 H   0  0  0  0  0  0  0  0  0  0  0  0
   -3.3307   -1.2468   -1.2383 H   0  0  0  0  0  0  0  0  0  0  0  0
   -2.7136    2.3870   -0.7559 H   0  0  0  0  0  0  0  0  0  0  0  0
   -4.6557    0.0887   -0.7315 H   0  0  0  0  0  0  0  0  0  0  0  0
   -6.0479    2.3222   -0.9377 H   0  0  0  0  0  0  0  0  0  0  0  0
   -4.6184    3.1201   -0.0818 H   0  0  0  0  0  0  0  0  0  0  0  0
   -3.8620    2.1958    1.7683 H   0  0  0  0  0  0  0  0  0  0  0  0
   -4.6814    0.7994    2.4578 H   0  0  0  0  0  0  0  0  0  0  0  0
   -4.4475    3.4783    3.5422 H   0  0  0  0  0  0  0  0  0  0  0  0
   -5.3055    2.0582    4.2068 H   0  0  0  0  0  0  0  0  0  0  0  0
   -8.3822    3.0410    2.7411 H   0  0  0  0  0  0  0  0  0  0  0  0
   -7.4951    1.5560    3.2623 H   0  0  0  0  0  0  0  0  0  0  0  0
   -7.7239    1.2753    0.9973 H   0  0  0  0  0  0  0  0  0  0  0  0
   -7.4894    2.9907    0.5859 H   0  0  0  0  0  0  0  0  0  0  0  0
  1  2  1  0
  2  3  1  0
  3  4  1  0
  4  5  2  0
  5  6  1  0
  6  7  2  0
  7  8  1  0
  8  9  2  0
  9 10  1  0
 10 11  3  0
  9 12  1  0
 12 13  1  0
 13 14  1  0
 14 15  2  0
 15 16  1  0
 16 17  2  0
 17 18  1  0
 18 19  1  0
 19 20  1  0
 20 21  2  0
 21 22  1  0
 22 23  2  0
 23 24  1  0
 24 25  2  0
 17 26  1  0
 26 27  1  0
 26 28  2  0
 12 29  2  0
 29 30  1  0
 30 31  2  0
 31 32  1  0
 32 33  1  0
 33 34  2  0
 33 35  1  0
 35 36  2  0
 36 37  1  0
 37 38  1  0
 38 39  1  0
 39 40  1  0
 40 41  1  0
 41 42  1  0
 42 43  1  0
 31  4  1  0
 43 38  1  0
 29  6  1  0
 28 14  1  0
 25 20  1  0
  1 44  1  0
  1 45  1  0
  1 46  1  0
  2 47  1  0
  2 48  1  0
  5 49  1  0
  8 50  1  0
 13 51  1  0
 15 52  1  0
 16 53  1  0
 19 54  1  0
 19 55  1  0
 21 56  1  0
 22 57  1  0
 23 58  1  0
 24 59  1  0
 25 60  1  0
 28 61  1  0
 30 62  1  0
 32 63  1  0
 35 64  1  0
 36 65  1  0
 37 66  1  0
 37 67  1  0
 39 68  1  0
 39 69  1  0
 40 70  1  0
 40 71  1  0
 42 72  1  0
 42 73  1  0
 43 74  1  0
 43 75  1  0
M  END
$$$$
[H]/C(C(=O)N([H])c1c(OC([H])([H])[H])c([H])c2nc([H])nc(N([H])c3c([H])c([H])c(F)c(Cl)c3[H])c2c1[H])=C(/[H])C([H])([H])N(C([H])([H])[H])C([H])([H])[H]
     RDKit          3D

 51 53  0  0  0  0  0  0  0  0999 V2000
    0.5573    4.3984    2.8991 C   0  0  0  0  0  0  0  0  0  0  0  0
    0.8309    3.2029    2.2184 O   0  0  0  0  0  0  0  0  0  0  0  0
   -0.1921    2.4945    1.6333 C   0  0  0  0  0  0  0  0  0  0  0  0
   -1.4835    2.9644    1.7197 C   0  0  0  0  0  0  0  0  0  0  0  0
   -2.5382    2.2849    1.1476 C   0  0  0  0  0  0  0  0  0  0  0  0
   -3.8003    2.7177    1.2132 N   0  0  0  0  0  0  0  0  0  0  0  0
   -4.7987    2.0225    0.6378 C   0  0  0  0  0  0  0  0  0  0  0  0
   -4.6052    0.8864   -0.0188 N   0  0  0  0  0  0  0  0  0  0  0  0
   -3.3238    0.4051   -0.1103 C   0  0  0  0  0  0  0  0  0  0  0  0
   -3.0778   -0.8251   -0.7616 N   0  0  0  0  0  0  0  0  0  0  0  0
   -4.1712   -1.5095   -1.4087 C   0  0  0  0  0  0  0  0  0  0  0  0
   -4.2589   -2.8951   -1.3072 C   0  0  0  0  0  0  0  0  0  0  0  0
   -5.2809   -3.5354   -1.9602 C   0  0  0  0  0  0  0  0  0  0  0  0
   -6.2062   -2.8407   -2.7023 C   0  0  0  0  0  0  0  0  0  0  0  0
   -7.2100   -3.5261   -3.3362 F   0  0  0  0  0  0  0  0  0  0  0  0
   -6.1310   -1.4903   -2.8091 C   0  0  0  0  0  0  0  0  0  0  0  0
   -7.3119   -0.6001   -3.7573 Cl  0  0  0  0  0  0  0  0  0  0  0  0
   -5.0872   -0.8175   -2.1449 C   0  0  0  0  0  0  0  0  0  0  0  0
   -2.2861    1.0992    0.4700 C   0  0  0  0  0  0  0  0  0  0  0  0
   -0.9588    0.6521    0.4026 C   0  0  0  0  0  0  0  0  0  0  0  0
    0.0958    1.3208    0.9681 C   0  0  0  0  0  0  0  0  0  0  0  0
    1.4312    0.8854    0.9069 N   0  0  0  0  0  0  0  0  0  0  0  0
    1.9020   -0.2743    0.2768 C   0  0  0  0  0  0  0  0  0  0  0  0
    1.1644   -1.0865   -0.3254 O   0  0  0  0  0  0  0  0  0  0  0  0
    3.3343   -0.5831    0.3060 C   0  0  0  0  0  0  0  0  0  0  0  0
    4.2446    0.1431    0.8833 C   0  0  0  0  0  0  0  0  0  0  0  0
    5.7027   -0.1766    0.9069 C   0  0  0  0  0  0  0  0  0  0  0  0
    6.0152   -1.3265    0.1881 N   0  0  0  0  0  0  0  0  0  0  0  0
    5.9367   -1.3317   -1.2195 C   0  0  0  0  0  0  0  0  0  0  0  0
    6.1761   -2.5600    0.8594 C   0  0  0  0  0  0  0  0  0  0  0  0
    1.4634    4.7833    3.4296 H   0  0  0  0  0  0  0  0  0  0  0  0
   -0.2045    4.2605    3.7128 H   0  0  0  0  0  0  0  0  0  0  0  0
    0.2093    5.1787    2.1719 H   0  0  0  0  0  0  0  0  0  0  0  0
   -1.7161    3.8771    2.2362 H   0  0  0  0  0  0  0  0  0  0  0  0
   -5.7992    2.4307    0.7282 H   0  0  0  0  0  0  0  0  0  0  0  0
   -2.1606   -1.3135   -0.8260 H   0  0  0  0  0  0  0  0  0  0  0  0
   -3.5202   -3.3949   -0.7214 H   0  0  0  0  0  0  0  0  0  0  0  0
   -5.3689   -4.6159   -1.8956 H   0  0  0  0  0  0  0  0  0  0  0  0
   -5.0811    0.2695   -2.3019 H   0  0  0  0  0  0  0  0  0  0  0  0
   -0.8380   -0.2591   -0.1328 H   0  0  0  0  0  0  0  0  0  0  0  0
    2.1299    1.5308    1.4027 H   0  0  0  0  0  0  0  0  0  0  0  0
    3.6230   -1.5178   -0.1970 H   0  0  0  0  0  0  0  0  0  0  0  0
    3.9346    1.0641    1.3971 H   0  0  0  0  0  0  0  0  0  0  0  0
    6.2020    0.7653    0.5318 H   0  0  0  0  0  0  0  0  0  0  0  0
    5.9771   -0.2898    1.9904 H   0  0  0  0  0  0  0  0  0  0  0  0
    6.9189   -1.2621   -1.7421 H   0  0  0  0  0  0  0  0  0  0  0  0
    5.2683   -0.5540   -1.6498 H   0  0  0  0  0  0  0  0  0  0  0  0
    5.5195   -2.3314   -1.5381 H   0  0  0  0  0  0  0  0  0  0  0  0
    6.3395   -2.4469    1.9342 H   0  0  0  0  0  0  0  0  0  0  0  0
    7.1071   -3.0470    0.4521 H   0  0  0  0  0  0  0  0  0  0  0  0
    5.3266   -3.2267    0.6023 H   0  0  0  0  0  0  0  0  0  0  0  0
  1  2  1  0
  2  3  1  0
  3  4  2  0
  4  5  1  0
  5  6  2  0
  6  7  1  0
  7  8  2  0
  8  9  1  0
  9 10  1  0
 10 11  1  0
 11 12  2  0
 12 13  1  0
 13 14  2  0
 14 15  1  0
 14 16  1  0
 16 17  1  0
 16 18  2  0
  9 19  2  0
 19 20  1  0
 20 21  2  0
 21 22  1  0
 22 23  1  0
 23 24  2  0
 23 25  1  0
 25 26  2  0
 26 27  1  0
 27 28  1  0
 28 29  1  0
 28 30  1  0
 21  3  1  0
 19  5  1  0
 18 11  1  0
  1 31  1  0
  1 32  1  0
  1 33  1  0
  4 34  1  0
  7 35  1  0
 10 36  1  0
 12 37  1  0
 13 38  1  0
 18 39  1  0
 20 40  1  0
 22 41  1  0
 25 42  1  0
 26 43  1  0
 27 44  1  0
 27 45  1  0
 29 46  1  0
 29 47  1  0
 29 48  1  0
 30 49  1  0
 30 50  1  0
 30 51  1  0
M  END
$$$$
[H]/C(C(=O)N([H])c1c(OC([H])([H])[H])c([H])c2nc([H])nc(N([H])c3c([H])c([H])c(F)c(Cl)c3[H])c2c1[H])=C(/[H])C([H])([H])N1C([H])([H])C([H])([H])C([H])([H])C1([H])[H]
     RDKit          3D

 55 58  0  0  0  0  0  0  0  0999 V2000
   -0.2230    4.3570    3.4188 C   0  0  0  0  0  0  0  0  0  0  0  0
    0.1301    3.1944    2.7017 O   0  0  0  0  0  0  0  0  0  0  0  0
   -0.9093    2.5322    2.0136 C   0  0  0  0  0  0  0  0  0  0  0  0
   -2.1882    3.0165    2.0571 C   0  0  0  0  0  0  0  0  0  0  0  0
   -3.1966    2.3637    1.3823 C   0  0  0  0  0  0  0  0  0  0  0  0
   -4.4660    2.8170    1.4090 N   0  0  0  0  0  0  0  0  0  0  0  0
   -5.4654    2.2010    0.7634 C   0  0  0  0  0  0  0  0  0  0  0  0
   -5.1773    1.0982    0.0724 N   0  0  0  0  0  0  0  0  0  0  0  0
   -3.9645    0.5367   -0.0412 C   0  0  0  0  0  0  0  0  0  0  0  0
   -3.7491   -0.6102   -0.8248 N   0  0  0  0  0  0  0  0  0  0  0  0
   -4.8098   -1.3016   -1.4820 C   0  0  0  0  0  0  0  0  0  0  0  0
   -4.5201   -1.9436   -2.7036 C   0  0  0  0  0  0  0  0  0  0  0  0
   -5.4313   -2.6654   -3.4211 C   0  0  0  0  0  0  0  0  0  0  0  0
   -6.7065   -2.7633   -2.9080 C   0  0  0  0  0  0  0  0  0  0  0  0
   -7.6695   -3.4746   -3.5816 F   0  0  0  0  0  0  0  0  0  0  0  0
   -7.0449   -2.1606   -1.7252 C   0  0  0  0  0  0  0  0  0  0  0  0
   -8.6447   -2.2525   -1.0306 Cl  0  0  0  0  0  0  0  0  0  0  0  0
   -6.0889   -1.4294   -1.0146 C   0  0  0  0  0  0  0  0  0  0  0  0
   -2.9494    1.2118    0.6486 C   0  0  0  0  0  0  0  0  0  0  0  0
   -1.6678    0.7254    0.6044 C   0  0  0  0  0  0  0  0  0  0  0  0
   -0.6425    1.3641    1.2733 C   0  0  0  0  0  0  0  0  0  0  0  0
    0.6811    0.9117    1.2636 N   0  0  0  0  0  0  0  0  0  0  0  0
    1.2109   -0.2157    0.5995 C   0  0  0  0  0  0  0  0  0  0  0  0
    0.5504   -0.9942   -0.0971 O   0  0  0  0  0  0  0  0  0  0  0  0
    2.6596   -0.5293    0.7167 C   0  0  0  0  0  0  0  0  0  0  0  0
    3.2159   -1.5501    0.1328 C   0  0  0  0  0  0  0  0  0  0  0  0
    4.6406   -1.8547    0.2509 C   0  0  0  0  0  0  0  0  0  0  0  0
    5.3366   -1.8624   -1.0121 N   0  0  0  0  0  0  0  0  0  0  0  0
    6.7413   -2.1760   -0.8592 C   0  0  0  0  0  0  0  0  0  0  0  0
    7.5121   -0.8996   -0.8963 C   0  0  0  0  0  0  0  0  0  0  0  0
    6.5199    0.1837   -1.1492 C   0  0  0  0  0  0  0  0  0  0  0  0
    5.2767   -0.5293   -1.5730 C   0  0  0  0  0  0  0  0  0  0  0  0
    0.5968    4.7750    4.0026 H   0  0  0  0  0  0  0  0  0  0  0  0
   -0.7323    5.1172    2.7720 H   0  0  0  0  0  0  0  0  0  0  0  0
   -1.0107    4.0343    4.1578 H   0  0  0  0  0  0  0  0  0  0  0  0
   -2.4143    3.9130    2.6204 H   0  0  0  0  0  0  0  0  0  0  0  0
   -6.4859    2.5373    0.7656 H   0  0  0  0  0  0  0  0  0  0  0  0
   -2.7889   -1.0326   -0.9784 H   0  0  0  0  0  0  0  0  0  0  0  0
   -3.5061   -1.8583   -3.0991 H   0  0  0  0  0  0  0  0  0  0  0  0
   -5.1980   -3.1573   -4.3627 H   0  0  0  0  0  0  0  0  0  0  0  0
   -6.3654   -0.9746   -0.0633 H   0  0  0  0  0  0  0  0  0  0  0  0
   -1.4937   -0.1704    0.0332 H   0  0  0  0  0  0  0  0  0  0  0  0
    1.3874    1.5088    1.8439 H   0  0  0  0  0  0  0  0  0  0  0  0
    3.2719    0.1246    1.3156 H   0  0  0  0  0  0  0  0  0  0  0  0
    2.6012   -2.2040   -0.4670 H   0  0  0  0  0  0  0  0  0  0  0  0
    5.1720   -1.0910    0.8913 H   0  0  0  0  0  0  0  0  0  0  0  0
    4.8125   -2.8521    0.7274 H   0  0  0  0  0  0  0  0  0  0  0  0
    6.9540   -2.7946    0.0309 H   0  0  0  0  0  0  0  0  0  0  0  0
    7.0741   -2.7899   -1.7443 H   0  0  0  0  0  0  0  0  0  0  0  0
    8.2901   -0.8587   -1.6868 H   0  0  0  0  0  0  0  0  0  0  0  0
    8.0321   -0.7346    0.0802 H   0  0  0  0  0  0  0  0  0  0  0  0
    6.8472    0.8865   -1.9541 H   0  0  0  0  0  0  0  0  0  0  0  0
    6.3611    0.8099   -0.2417 H   0  0  0  0  0  0  0  0  0  0  0  0
    5.2331   -0.5391   -2.6802 H   0  0  0  0  0  0  0  0  0  0  0  0
    4.4013    0.0496   -1.2192 H   0  0  0  0  0  0  0  0  0  0  0  0
  1  2  1  0
  2  3  1  0
  3  4  2  0
  4  5  1  0
  5  6  2  0
  6  7  1  0
  7  8  2  0
  8  9  1  0
  9 10  1  0
 10 11  1  0
 11 12  2  0
 12 13  1  0
 13 14  2  0
 14 15  1  0
 14 16  1  0
 16 17  1  0
 16 18  2  0
  9 19  2  0
 19 20  1  0
 20 21  2  0
 21 22  1  0
 22 23  1  0
 23 24  2  0
 23 25  1  0
 25 26  2  0
 26 27  1  0
 27 28  1  0
 28 29  1  0
 29 30  1  0
 30 31  1  0
 31 32  1  0
 21  3  1  0
 32 28  1  0
 19  5  1  0
 18 11  1  0
  1 33  1  0
  1 34  1  0
  1 35  1  0
  4 36  1  0
  7 37  1  0
 10 38  1  0
 12 39  1  0
 13 40  1  0
 18 41  1  0
 20 42  1  0
 22 43  1  0
 25 44  1  0
 26 45  1  0
 27 46  1  0
 27 47  1  0
 29 48  1  0
 29 49  1  0
 30 50  1  0
 30 51  1  0
 31 52  1  0
 31 53  1  0
 32 54  1  0
 32 55  1  0
M  END
$$$$
[H]/C(C(=O)N([H])c1c(OC([H])([H])C([H])([H])[H])c([H])c2nc([H])c(C#N)c(N([H])c3c([H])c([H])c(OC([H])([H])c4nc([H])c([H])c([H])c4[H])c(Cl)c3[H])c2c1[H])=C(/[H])C([H])([H])N1C([H])([H])C([H])([H])OC([H])([H])C1([H])[H]
     RDKit          3D

 74 78  0  0  0  0  0  0  0  0999 V2000
   -2.8603   -1.8528   -4.2024 C   0  0  0  0  0  0  0  0  0  0  0  0
   -1.8017   -2.4206   -3.2694 C   0  0  0  0  0  0  0  0  0  0  0  0
   -1.6878   -1.6629   -2.0788 O   0  0  0  0  0  0  0  0  0  0  0  0
   -0.9007   -2.0810   -1.0348 C   0  0  0  0  0  0  0  0  0  0  0  0
   -0.2481   -3.2932   -1.0174 C   0  0  0  0  0  0  0  0  0  0  0  0
    0.4977   -3.7031    0.0214 C   0  0  0  0  0  0  0  0  0  0  0  0
    1.0807   -4.9470    0.0339 N   0  0  0  0  0  0  0  0  0  0  0  0
    1.7882   -5.4073    1.0348 C   0  0  0  0  0  0  0  0  0  0  0  0
    2.0333   -4.6663    2.2238 C   0  0  0  0  0  0  0  0  0  0  0  0
    2.8230   -5.2395    3.2729 C   0  0  0  0  0  0  0  0  0  0  0  0
    3.4810   -5.6788    4.1148 N   0  0  0  0  0  0  0  0  0  0  0  0
    1.4588   -3.4090    2.2404 C   0  0  0  0  0  0  0  0  0  0  0  0
    1.8326   -2.5305    3.3408 N   0  0  0  0  0  0  0  0  0  0  0  0
    3.0304   -1.7515    3.1428 C   0  0  0  0  0  0  0  0  0  0  0  0
    3.6047   -1.7193    1.9239 C   0  0  0  0  0  0  0  0  0  0  0  0
    4.7628   -0.9715    1.7811 C   0  0  0  0  0  0  0  0  0  0  0  0
    5.3859   -0.2736    2.7340 C   0  0  0  0  0  0  0  0  0  0  0  0
    6.5136    0.4645    2.6595 O   0  0  0  0  0  0  0  0  0  0  0  0
    7.3920    0.7505    1.6607 C   0  0  0  0  0  0  0  0  0  0  0  0
    6.8849    1.4160    0.4436 C   0  0  0  0  0  0  0  0  0  0  0  0
    6.1903    2.5984    0.4338 C   0  0  0  0  0  0  0  0  0  0  0  0
    5.7547    3.2304   -0.7149 C   0  0  0  0  0  0  0  0  0  0  0  0
    6.0477    2.6095   -1.9373 C   0  0  0  0  0  0  0  0  0  0  0  0
    6.7289    1.4526   -1.8980 C   0  0  0  0  0  0  0  0  0  0  0  0
    7.1607    0.8197   -0.7602 N   0  0  0  0  0  0  0  0  0  0  0  0
    4.7551   -0.3267    4.0364 C   0  0  0  0  0  0  0  0  0  0  0  0
    5.5126    0.5470    5.3260 Cl  0  0  0  0  0  0  0  0  0  0  0  0
    3.6020   -1.0529    4.2201 C   0  0  0  0  0  0  0  0  0  0  0  0
    0.7174   -2.9664    1.1858 C   0  0  0  0  0  0  0  0  0  0  0  0
    0.0631   -1.7434    1.1702 C   0  0  0  0  0  0  0  0  0  0  0  0
   -0.7101   -1.2795    0.1608 C   0  0  0  0  0  0  0  0  0  0  0  0
   -1.4493   -0.1153    0.0594 N   0  0  0  0  0  0  0  0  0  0  0  0
   -2.1511    1.0135   -0.0120 C   0  0  0  0  0  0  0  0  0  0  0  0
   -2.1405    1.9804    0.8647 O   0  0  0  0  0  0  0  0  0  0  0  0
   -3.0953    1.3111   -1.1787 C   0  0  0  0  0  0  0  0  0  0  0  0
   -3.7493    2.4230   -1.1264 C   0  0  0  0  0  0  0  0  0  0  0  0
   -4.7206    2.8480   -2.1968 C   0  0  0  0  0  0  0  0  0  0  0  0
   -5.9667    2.9969   -1.5705 N   0  0  0  0  0  0  0  0  0  0  0  0
   -6.1444    4.0107   -0.5928 C   0  0  0  0  0  0  0  0  0  0  0  0
   -6.8260    3.3426    0.6309 C   0  0  0  0  0  0  0  0  0  0  0  0
   -7.4505    2.1807    0.2075 O   0  0  0  0  0  0  0  0  0  0  0  0
   -8.1293    2.2108   -0.9659 C   0  0  0  0  0  0  0  0  0  0  0  0
   -7.1327    2.5087   -2.1099 C   0  0  0  0  0  0  0  0  0  0  0  0
   -3.6435   -2.7080   -4.1973 H   0  0  0  0  0  0  0  0  0  0  0  0
   -2.4084   -1.7025   -5.2055 H   0  0  0  0  0  0  0  0  0  0  0  0
   -3.3574   -0.9733   -3.7667 H   0  0  0  0  0  0  0  0  0  0  0  0
   -0.7856   -2.1263   -3.8051 H   0  0  0  0  0  0  0  0  0  0  0  0
   -1.7508   -3.4884   -3.2097 H   0  0  0  0  0  0  0  0  0  0  0  0
   -0.3422   -3.9261   -1.9209 H   0  0  0  0  0  0  0  0  0  0  0  0
    2.2481   -6.3893    1.0429 H   0  0  0  0  0  0  0  0  0  0  0  0
    1.2391   -2.5264    4.1666 H   0  0  0  0  0  0  0  0  0  0  0  0
    3.2184   -2.2314    1.0563 H   0  0  0  0  0  0  0  0  0  0  0  0
    5.1519   -0.9624    0.7448 H   0  0  0  0  0  0  0  0  0  0  0  0
    8.1827    1.4501    2.1096 H   0  0  0  0  0  0  0  0  0  0  0  0
    8.0421   -0.1086    1.2945 H   0  0  0  0  0  0  0  0  0  0  0  0
    5.9798    3.0325    1.3865 H   0  0  0  0  0  0  0  0  0  0  0  0
    5.2111    4.1528   -0.6685 H   0  0  0  0  0  0  0  0  0  0  0  0
    5.6822    3.1273   -2.8120 H   0  0  0  0  0  0  0  0  0  0  0  0
    6.9601    0.9834   -2.8802 H   0  0  0  0  0  0  0  0  0  0  0  0
    3.1437   -1.0769    5.2003 H   0  0  0  0  0  0  0  0  0  0  0  0
    0.2197   -1.1436    2.0856 H   0  0  0  0  0  0  0  0  0  0  0  0
   -1.2274    0.1013    1.4028 H   0  0  0  0  0  0  0  0  0  0  0  0
   -3.1371    0.6125   -1.9632 H   0  0  0  0  0  0  0  0  0  0  0  0
   -3.6067    3.1051   -0.2585 H   0  0  0  0  0  0  0  0  0  0  0  0
   -4.8122    1.9707   -2.9161 H   0  0  0  0  0  0  0  0  0  0  0  0
   -4.3020    3.6916   -2.7603 H   0  0  0  0  0  0  0  0  0  0  0  0
   -6.8398    4.8012   -0.9297 H   0  0  0  0  0  0  0  0  0  0  0  0
   -5.1855    4.4237   -0.2090 H   0  0  0  0  0  0  0  0  0  0  0  0
   -6.1002    3.1030    1.4156 H   0  0  0  0  0  0  0  0  0  0  0  0
   -7.5470    4.0692    1.0200 H   0  0  0  0  0  0  0  0  0  0  0  0
   -8.5974    1.2362   -1.1885 H   0  0  0  0  0  0  0  0  0  0  0  0
   -8.9477    2.9850   -0.9846 H   0  0  0  0  0  0  0  0  0  0  0  0
   -7.6265    3.2918   -2.7941 H   0  0  0  0  0  0  0  0  0  0  0  0
   -6.9998    1.6029   -2.7136 H   0  0  0  0  0  0  0  0  0  0  0  0
  1  2  1  0
  2  3  1  0
  3  4  1  0
  4  5  2  0
  5  6  1  0
  6  7  2  0
  7  8  1  0
  8  9  2  0
  9 10  1  0
 10 11  3  0
  9 12  1  0
 12 13  1  0
 13 14  1  0
 14 15  2  0
 15 16  1  0
 16 17  2  0
 17 18  1  0
 18 19  1  0
 19 20  1  0
 20 21  2  0
 21 22  1  0
 22 23  2  0
 23 24  1  0
 24 25  2  0
 17 26  1  0
 26 27  1  0
 26 28  2  0
 12 29  2  0
 29 30  1  0
 30 31  2  0
 31 32  1  0
 32 33  1  0
 33 34  2  0
 33 35  1  0
 35 36  2  0
 36 37  1  0
 37 38  1  0
 38 39  1  0
 39 40  1  0
 40 41  1  0
 41 42  1  0
 42 43  1  0
 31  4  1  0
 43 38  1  0
 29  6  1  0
 28 14  1  0
 25 20  1  0
  1 44  1  0
  1 45  1  0
  1 46  1  0
  2 47  1  0
  2 48  1  0
  5 49  1  0
  8 50  1  0
 13 51  1  0
 15 52  1  0
 16 53  1  0
 19 54  1  0
 19 55  1  0
 21 56  1  0
 22 57  1  0
 23 58  1  0
 24 59  1  0
 28 60  1  0
 30 61  1  0
 32 62  1  0
 35 63  1  0
 36 64  1  0
 37 65  1  0
 37 66  1  0
 39 67  1  0
 39 68  1  0
 40 69  1  0
 40 70  1  0
 42 71  1  0
 42 72  1  0
 43 73  1  0
 43 74  1  0
M  END
$$$$
[H]c1nc(N([H])c2c([H])c([H])c3c(c([H])nn3C([H])([H])c3c([H])c([H])c([H])c([H])c3[H])c2[H])c2c(O[C@@]([H])(C(=O)N(C([H])([H])[H])C([H])([H])[H])C([H])([H])[H])c([H])c([H])c([H])c2n1
     RDKit          3D

 61 65  0  0  0  0  0  0  0  0999 V2000
    4.2186   -0.1591    1.7869 C   0  0  0  0  0  0  0  0  0  0  0  0
    4.1199    0.1421    0.2830 C   0  0  1  0  0  0  0  0  0  0  0  0
    3.1615   -0.6735   -0.3118 O   0  0  0  0  0  0  0  0  0  0  0  0
    3.3850   -1.5876   -1.2923 C   0  0  0  0  0  0  0  0  0  0  0  0
    4.6662   -1.7907   -1.7953 C   0  0  0  0  0  0  0  0  0  0  0  0
    4.8765   -2.7115   -2.7856 C   0  0  0  0  0  0  0  0  0  0  0  0
    3.8275   -3.4347   -3.2839 C   0  0  0  0  0  0  0  0  0  0  0  0
    2.5496   -3.2609   -2.8114 C   0  0  0  0  0  0  0  0  0  0  0  0
    1.5368   -3.9904   -3.3447 N   0  0  0  0  0  0  0  0  0  0  0  0
    0.2938   -3.7962   -2.8781 C   0  0  0  0  0  0  0  0  0  0  0  0
    0.0586   -2.9150   -1.9197 N   0  0  0  0  0  0  0  0  0  0  0  0
    1.0362   -2.1407   -1.3314 C   0  0  0  0  0  0  0  0  0  0  0  0
    0.6814   -1.3055   -0.2681 N   0  0  0  0  0  0  0  0  0  0  0  0
   -0.7149   -1.1236    0.0608 C   0  0  0  0  0  0  0  0  0  0  0  0
   -1.6951   -1.0384   -0.8796 C   0  0  0  0  0  0  0  0  0  0  0  0
   -3.0449   -0.8983   -0.5214 C   0  0  0  0  0  0  0  0  0  0  0  0
   -3.4181   -0.8414    0.8079 C   0  0  0  0  0  0  0  0  0  0  0  0
   -4.6039   -0.7155    1.4303 N   0  0  0  0  0  0  0  0  0  0  0  0
   -5.9218   -0.5886    0.7889 C   0  0  0  0  0  0  0  0  0  0  0  0
   -6.1771    0.8528    0.6081 C   0  0  0  0  0  0  0  0  0  0  0  0
   -5.8625    1.4664   -0.5782 C   0  0  0  0  0  0  0  0  0  0  0  0
   -6.1150    2.8395   -0.7140 C   0  0  0  0  0  0  0  0  0  0  0  0
   -6.6681    3.5655    0.3188 C   0  0  0  0  0  0  0  0  0  0  0  0
   -6.9814    2.9450    1.5054 C   0  0  0  0  0  0  0  0  0  0  0  0
   -6.7324    1.5959    1.6364 C   0  0  0  0  0  0  0  0  0  0  0  0
   -4.3595   -0.7222    2.7244 N   0  0  0  0  0  0  0  0  0  0  0  0
   -3.0564   -0.8476    2.9746 C   0  0  0  0  0  0  0  0  0  0  0  0
   -2.4161   -0.9276    1.7471 C   0  0  0  0  0  0  0  0  0  0  0  0
   -1.0922   -1.0655    1.4001 C   0  0  0  0  0  0  0  0  0  0  0  0
    2.3146   -2.3326   -1.8062 C   0  0  0  0  0  0  0  0  0  0  0  0
    3.7288    1.5921    0.1355 C   0  0  0  0  0  0  0  0  0  0  0  0
    2.6515    1.8319   -0.4441 O   0  0  0  0  0  0  0  0  0  0  0  0
    4.5535    2.6280    0.6350 N   0  0  0  0  0  0  0  0  0  0  0  0
    5.7988    2.3239    1.2971 C   0  0  0  0  0  0  0  0  0  0  0  0
    4.1351    3.9939    0.4750 C   0  0  0  0  0  0  0  0  0  0  0  0
    5.2634   -0.2398    2.0692 H   0  0  0  0  0  0  0  0  0  0  0  0
    3.7140   -1.1448    1.9808 H   0  0  0  0  0  0  0  0  0  0  0  0
    3.7131    0.6635    2.3114 H   0  0  0  0  0  0  0  0  0  0  0  0
    5.1094   -0.0068   -0.1210 H   0  0  0  0  0  0  0  0  0  0  0  0
    5.5131   -1.2321   -1.4179 H   0  0  0  0  0  0  0  0  0  0  0  0
    5.8944   -2.8483   -3.1598 H   0  0  0  0  0  0  0  0  0  0  0  0
    4.0066   -4.1645   -4.0723 H   0  0  0  0  0  0  0  0  0  0  0  0
   -0.5043   -4.3969   -3.3261 H   0  0  0  0  0  0  0  0  0  0  0  0
    1.2952   -0.8046    0.3453 H   0  0  0  0  0  0  0  0  0  0  0  0
   -1.4691   -1.0499   -1.9325 H   0  0  0  0  0  0  0  0  0  0  0  0
   -3.8158   -0.8337   -1.2712 H   0  0  0  0  0  0  0  0  0  0  0  0
   -6.6663   -1.0647    1.4723 H   0  0  0  0  0  0  0  0  0  0  0  0
   -5.8685   -1.1367   -0.1612 H   0  0  0  0  0  0  0  0  0  0  0  0
   -5.4288    0.9253   -1.4143 H   0  0  0  0  0  0  0  0  0  0  0  0
   -5.8523    3.2957   -1.6713 H   0  0  0  0  0  0  0  0  0  0  0  0
   -6.8466    4.6214    0.1733 H   0  0  0  0  0  0  0  0  0  0  0  0
   -7.4111    3.5365    2.2914 H   0  0  0  0  0  0  0  0  0  0  0  0
   -6.9644    1.0719    2.5526 H   0  0  0  0  0  0  0  0  0  0  0  0
   -2.5553   -0.8840    3.9392 H   0  0  0  0  0  0  0  0  0  0  0  0
   -0.3001   -1.1337    2.1327 H   0  0  0  0  0  0  0  0  0  0  0  0
    6.4868    3.2175    1.2191 H   0  0  0  0  0  0  0  0  0  0  0  0
    5.6273    2.1051    2.3677 H   0  0  0  0  0  0  0  0  0  0  0  0
    6.2597    1.4798    0.7424 H   0  0  0  0  0  0  0  0  0  0  0  0
    4.4620    4.5691    1.3704 H   0  0  0  0  0  0  0  0  0  0  0  0
    4.5819    4.4612   -0.4479 H   0  0  0  0  0  0  0  0  0  0  0  0
    3.0214    4.0834    0.3779 H   0  0  0  0  0  0  0  0  0  0  0  0
  1  2  1  0
  2  3  1  0
  3  4  1  0
  4  5  2  0
  5  6  1  0
  6  7  2  0
  7  8  1  0
  8  9  2  0
  9 10  1  0
 10 11  2  0
 11 12  1  0
 12 13  1  0
 13 14  1  0
 14 15  2  0
 15 16  1  0
 16 17  2  0
 17 18  1  0
 18 19  1  0
 19 20  1  0
 20 21  2  0
 21 22  1  0
 22 23  2  0
 23 24  1  0
 24 25  2  0
 18 26  1  0
 26 27  2  0
 27 28  1  0
 28 29  2  0
 12 30  2  0
  2 31  1  0
 31 32  2  0
 31 33  1  0
 33 34  1  0
 33 35  1  0
 30  4  1  0
 30  8  1  0
 29 14  1  0
 28 17  1  0
 25 20  1  0
  1 36  1  0
  1 37  1  0
  1 38  1  0
  2 39  1  6
  5 40  1  0
  6 41  1  0
  7 42  1  0
 10 43  1  0
 13 44  1  0
 15 45  1  0
 16 46  1  0
 19 47  1  0
 19 48  1  0
 21 49  1  0
 22 50  1  0
 23 51  1  0
 24 52  1  0
 25 53  1  0
 27 54  1  0
 29 55  1  0
 34 56  1  0
 34 57  1  0
 34 58  1  0
 35 59  1  0
 35 60  1  0
 35 61  1  0
M  END
$$$$
[H]/C(C(=O)N([H])c1c(OC([H])([H])[H])c([H])c2nc([H])nc(N([H])c3c([H])c([H])c(F)c(Cl)c3[H])c2c1[H])=C(/[H])C([H])([H])N1C([H])([H])C([H])([H])OC([H])([H])C1([H])[H]
     RDKit          3D

 56 59  0  0  0  0  0  0  0  0999 V2000
    0.5694   -0.7907   -4.8376 C   0  0  0  0  0  0  0  0  0  0  0  0
   -0.1368   -0.8084   -3.5994 O   0  0  0  0  0  0  0  0  0  0  0  0
   -1.0244   -0.1401   -3.0119 C   0  0  0  0  0  0  0  0  0  0  0  0
   -1.9083    0.8128   -3.4478 C   0  0  0  0  0  0  0  0  0  0  0  0
   -2.8971    1.3729   -2.5585 C   0  0  0  0  0  0  0  0  0  0  0  0
   -3.8369    2.0980   -3.0760 N   0  0  0  0  0  0  0  0  0  0  0  0
   -4.9674    2.5081   -2.3584 C   0  0  0  0  0  0  0  0  0  0  0  0
   -4.9701    2.0767   -1.0727 N   0  0  0  0  0  0  0  0  0  0  0  0
   -4.0645    1.3331   -0.4278 C   0  0  0  0  0  0  0  0  0  0  0  0
   -4.1739    0.9765    0.9245 N   0  0  0  0  0  0  0  0  0  0  0  0
   -5.3557    1.0371    1.6784 C   0  0  0  0  0  0  0  0  0  0  0  0
   -5.8669   -0.2811    2.0652 C   0  0  0  0  0  0  0  0  0  0  0  0
   -6.9426   -0.3514    2.7604 C   0  0  0  0  0  0  0  0  0  0  0  0
   -7.6829    0.7555    3.1914 C   0  0  0  0  0  0  0  0  0  0  0  0
   -8.8522    0.5843    3.8949 F   0  0  0  0  0  0  0  0  0  0  0  0
   -7.2729    1.9668    2.8734 C   0  0  0  0  0  0  0  0  0  0  0  0
   -8.1563    3.4233    3.3278 Cl  0  0  0  0  0  0  0  0  0  0  0  0
   -6.0310    2.1375    2.0597 C   0  0  0  0  0  0  0  0  0  0  0  0
   -2.9700    0.9728   -1.2399 C   0  0  0  0  0  0  0  0  0  0  0  0
   -2.0466   -0.0019   -0.7388 C   0  0  0  0  0  0  0  0  0  0  0  0
   -1.2153   -0.4416   -1.5958 C   0  0  0  0  0  0  0  0  0  0  0  0
    0.0905   -1.0463   -1.2068 N   0  0  0  0  0  0  0  0  0  0  0  0
    0.8264   -0.4196   -0.1829 C   0  0  0  0  0  0  0  0  0  0  0  0
    0.2447    0.5344    0.4577 O   0  0  0  0  0  0  0  0  0  0  0  0
    2.1521   -0.7218    0.1638 C   0  0  0  0  0  0  0  0  0  0  0  0
    3.0241   -1.6461   -0.1957 C   0  0  0  0  0  0  0  0  0  0  0  0
    4.3698   -1.6218    0.3687 C   0  0  0  0  0  0  0  0  0  0  0  0
    5.5670   -1.6035    0.8727 N   0  0  0  0  0  0  0  0  0  0  0  0
    5.6858   -1.3571    2.2712 C   0  0  0  0  0  0  0  0  0  0  0  0
    7.0593   -1.6057    2.8101 C   0  0  0  0  0  0  0  0  0  0  0  0
    8.0790   -1.1179    1.9736 O   0  0  0  0  0  0  0  0  0  0  0  0
    7.5387   -0.1495    1.1128 C   0  0  0  0  0  0  0  0  0  0  0  0
    6.5705   -0.7842    0.1656 C   0  0  0  0  0  0  0  0  0  0  0  0
   -0.2051   -1.2134   -5.6118 H   0  0  0  0  0  0  0  0  0  0  0  0
    0.8476    0.1605   -5.2269 H   0  0  0  0  0  0  0  0  0  0  0  0
    1.3334   -1.6007   -4.8665 H   0  0  0  0  0  0  0  0  0  0  0  0
   -1.9256    1.2027   -4.4619 H   0  0  0  0  0  0  0  0  0  0  0  0
   -5.7066    3.1380   -2.8068 H   0  0  0  0  0  0  0  0  0  0  0  0
   -3.3062    0.6539    1.4303 H   0  0  0  0  0  0  0  0  0  0  0  0
   -5.2448   -1.1250    1.6964 H   0  0  0  0  0  0  0  0  0  0  0  0
   -7.4047   -1.3364    3.0746 H   0  0  0  0  0  0  0  0  0  0  0  0
   -5.7422    3.1385    1.8670 H   0  0  0  0  0  0  0  0  0  0  0  0
   -2.1784   -0.2948    0.2860 H   0  0  0  0  0  0  0  0  0  0  0  0
    0.3756   -1.8811   -1.6720 H   0  0  0  0  0  0  0  0  0  0  0  0
    2.6286   -0.0497    0.9636 H   0  0  0  0  0  0  0  0  0  0  0  0
    2.6409   -2.3895   -0.8503 H   0  0  0  0  0  0  0  0  0  0  0  0
    4.2719   -2.9748    0.5068 H   0  0  0  0  0  0  0  0  0  0  0  0
    4.8600   -1.9985   -0.8829 H   0  0  0  0  0  0  0  0  0  0  0  0
    4.9898   -2.0237    2.8435 H   0  0  0  0  0  0  0  0  0  0  0  0
    5.3838   -0.2889    2.4469 H   0  0  0  0  0  0  0  0  0  0  0  0
    7.2150   -2.7091    2.9192 H   0  0  0  0  0  0  0  0  0  0  0  0
    7.1296   -1.1837    3.8144 H   0  0  0  0  0  0  0  0  0  0  0  0
    8.4134    0.2092    0.4840 H   0  0  0  0  0  0  0  0  0  0  0  0
    7.1205    0.7306    1.6237 H   0  0  0  0  0  0  0  0  0  0  0  0
    7.0717   -1.3517   -0.6159 H   0  0  0  0  0  0  0  0  0  0  0  0
    6.0263    0.0330   -0.3828 H   0  0  0  0  0  0  0  0  0  0  0  0
  1  2  1  0
  2  3  1  0
  3  4  2  0
  4  5  1  0
  5  6  2  0
  6  7  1  0
  7  8  2  0
  8  9  1  0
  9 10  1  0
 10 11  1  0
 11 12  2  0
 12 13  1  0
 13 14  2  0
 14 15  1  0
 14 16  1  0
 16 17  1  0
 16 18  2  0
  9 19  2  0
 19 20  1  0
 20 21  2  0
 21 22  1  0
 22 23  1  0
 23 24  2  0
 23 25  1  0
 25 26  2  0
 26 27  1  0
 27 28  1  0
 28 29  1  0
 29 30  1  0
 30 31  1  0
 31 32  1  0
 32 33  1  0
 21  3  1  0
 33 28  1  0
 19  5  1  0
 18 11  1  0
  1 34  1  0
  1 35  1  0
  1 36  1  0
  4 37  1  0
  7 38  1  0
 10 39  1  0
 12 40  1  0
 13 41  1  0
 18 42  1  0
 20 43  1  0
 22 44  1  0
 25 45  1  0
 26 46  1  0
 27 47  1  0
 27 48  1  0
 29 49  1  0
 29 50  1  0
 30 51  1  0
 30 52  1  0
 32 53  1  0
 32 54  1  0
 33 55  1  0
 33 56  1  0
M  END
$$$$
[H]c1nc(N([H])c2c([H])c([H])c(OC([H])([H])c3nc([H])c([H])c([H])c3[H])c(Cl)c2[H])c2c(O[C@]([H])(C(=O)N(C([H])([H])[H])C([H])([H])[H])C([H])([H])[H])c([H])c([H])c([H])c2n1
     RDKit          3D

 58 61  0  0  0  0  0  0  0  0999 V2000
   -3.5300   -1.0694    2.3661 C   0  0  0  0  0  0  0  0  0  0  0  0
   -3.9787   -0.6354    0.9708 C   0  0  2  0  0  0  0  0  0  0  0  0
   -3.0842   -1.0345   -0.0041 O   0  0  0  0  0  0  0  0  0  0  0  0
   -3.3130   -1.8332   -1.0779 C   0  0  0  0  0  0  0  0  0  0  0  0
   -4.5945   -2.3469   -1.3214 C   0  0  0  0  0  0  0  0  0  0  0  0
   -4.8110   -3.1581   -2.4093 C   0  0  0  0  0  0  0  0  0  0  0  0
   -3.8025   -3.4838   -3.2722 C   0  0  0  0  0  0  0  0  0  0  0  0
   -2.5141   -2.9959   -3.0688 C   0  0  0  0  0  0  0  0  0  0  0  0
   -1.5520   -3.3567   -3.9414 N   0  0  0  0  0  0  0  0  0  0  0  0
   -0.3183   -2.8930   -3.7300 C   0  0  0  0  0  0  0  0  0  0  0  0
   -0.0656   -2.1115   -2.7021 N   0  0  0  0  0  0  0  0  0  0  0  0
   -1.0298   -1.7205   -1.7868 C   0  0  0  0  0  0  0  0  0  0  0  0
   -0.6491   -0.8221   -0.7912 N   0  0  0  0  0  0  0  0  0  0  0  0
    0.7683   -0.4944   -0.6632 C   0  0  0  0  0  0  0  0  0  0  0  0
    1.1253    0.8155   -0.4048 C   0  0  0  0  0  0  0  0  0  0  0  0
    2.4236    1.2019   -0.2361 C   0  0  0  0  0  0  0  0  0  0  0  0
    3.4222    0.2586   -0.3249 C   0  0  0  0  0  0  0  0  0  0  0  0
    4.7603    0.6485   -0.1530 O   0  0  0  0  0  0  0  0  0  0  0  0
    5.0578    2.0091    0.1071 C   0  0  0  0  0  0  0  0  0  0  0  0
    6.5233    2.1628    0.2458 C   0  0  0  0  0  0  0  0  0  0  0  0
    7.3852    1.0856    0.1939 C   0  0  0  0  0  0  0  0  0  0  0  0
    8.7476    1.2464    0.3226 C   0  0  0  0  0  0  0  0  0  0  0  0
    9.2447    2.5318    0.5085 C   0  0  0  0  0  0  0  0  0  0  0  0
    8.3875    3.5956    0.5593 C   0  0  0  0  0  0  0  0  0  0  0  0
    7.0545    3.3818    0.4270 N   0  0  0  0  0  0  0  0  0  0  0  0
    3.1036   -1.0527   -0.5801 C   0  0  0  0  0  0  0  0  0  0  0  0
    4.3607   -2.2865   -0.7021 Cl  0  0  0  0  0  0  0  0  0  0  0  0
    1.7624   -1.4309   -0.7498 C   0  0  0  0  0  0  0  0  0  0  0  0
   -2.2961   -2.1730   -1.9663 C   0  0  0  0  0  0  0  0  0  0  0  0
   -4.1193    0.8683    1.0191 C   0  0  0  0  0  0  0  0  0  0  0  0
   -3.4091    1.5268    0.2154 O   0  0  0  0  0  0  0  0  0  0  0  0
   -4.9922    1.5200    1.9072 N   0  0  0  0  0  0  0  0  0  0  0  0
   -5.8426    0.8236    2.8497 C   0  0  0  0  0  0  0  0  0  0  0  0
   -5.0497    2.9863    1.8856 C   0  0  0  0  0  0  0  0  0  0  0  0
   -4.2232   -1.7601    2.8509 H   0  0  0  0  0  0  0  0  0  0  0  0
   -3.3186   -0.1636    2.9492 H   0  0  0  0  0  0  0  0  0  0  0  0
   -2.5389   -1.5824    2.2439 H   0  0  0  0  0  0  0  0  0  0  0  0
   -4.9614   -1.0653    0.8326 H   0  0  0  0  0  0  0  0  0  0  0  0
   -5.3878   -2.0896   -0.6445 H   0  0  0  0  0  0  0  0  0  0  0  0
   -5.8112   -3.5386   -2.5691 H   0  0  0  0  0  0  0  0  0  0  0  0
   -4.0202   -4.1245   -4.1131 H   0  0  0  0  0  0  0  0  0  0  0  0
    0.5048   -3.1698   -4.4295 H   0  0  0  0  0  0  0  0  0  0  0  0
   -1.2259   -0.3346   -0.1383 H   0  0  0  0  0  0  0  0  0  0  0  0
    0.3449    1.5505   -0.3352 H   0  0  0  0  0  0  0  0  0  0  0  0
    2.6992    2.2494   -0.0292 H   0  0  0  0  0  0  0  0  0  0  0  0
    4.6877    2.6304   -0.7381 H   0  0  0  0  0  0  0  0  0  0  0  0
    4.5542    2.3403    1.0624 H   0  0  0  0  0  0  0  0  0  0  0  0
    6.9589    0.0990    0.0476 H   0  0  0  0  0  0  0  0  0  0  0  0
    9.4107    0.3915    0.2797 H   0  0  0  0  0  0  0  0  0  0  0  0
   10.3106    2.7203    0.6155 H   0  0  0  0  0  0  0  0  0  0  0  0
    8.7315    4.6190    0.7026 H   0  0  0  0  0  0  0  0  0  0  0  0
    1.5369   -2.4712   -0.9249 H   0  0  0  0  0  0  0  0  0  0  0  0
   -5.3566    0.6963    3.8341 H   0  0  0  0  0  0  0  0  0  0  0  0
   -6.8195    1.3505    2.9360 H   0  0  0  0  0  0  0  0  0  0  0  0
   -6.0525   -0.1829    2.4395 H   0  0  0  0  0  0  0  0  0  0  0  0
   -6.0886    3.2853    2.0998 H   0  0  0  0  0  0  0  0  0  0  0  0
   -4.3414    3.4070    2.6438 H   0  0  0  0  0  0  0  0  0  0  0  0
   -4.7687    3.3790    0.9049 H   0  0  0  0  0  0  0  0  0  0  0  0
  1  2  1  0
  2  3  1  0
  3  4  1  0
  4  5  2  0
  5  6  1  0
  6  7  2  0
  7  8  1  0
  8  9  2  0
  9 10  1  0
 10 11  2  0
 11 12  1  0
 12 13  1  0
 13 14  1  0
 14 15  2  0
 15 16  1  0
 16 17  2  0
 17 18  1  0
 18 19  1  0
 19 20  1  0
 20 21  2  0
 21 22  1  0
 22 23  2  0
 23 24  1  0
 24 25  2  0
 17 26  1  0
 26 27  1  0
 26 28  2  0
 12 29  2  0
  2 30  1  0
 30 31  2  0
 30 32  1  0
 32 33  1  0
 32 34  1  0
 29  4  1  0
 29  8  1  0
 28 14  1  0
 25 20  1  0
  1 35  1  0
  1 36  1  0
  1 37  1  0
  2 38  1  6
  5 39  1  0
  6 40  1  0
  7 41  1  0
 10 42  1  0
 13 43  1  0
 15 44  1  0
 16 45  1  0
 19 46  1  0
 19 47  1  0
 21 48  1  0
 22 49  1  0
 23 50  1  0
 24 51  1  0
 28 52  1  0
 33 53  1  0
 33 54  1  0
 33 55  1  0
 34 56  1  0
 34 57  1  0
 34 58  1  0
M  END
$$$$
[H]/C(C(=O)N([H])c1c(OC([H])([H])C([H])([H])[H])c([H])c2nc([H])c(C#N)c(N([H])c3c([H])c([H])c(OC([H])([H])c4c([H])c([H])c([H])c([H])c4[H])c(Cl)c3[H])c2c1[H])=C(/[H])C([H])([H])N1C([H])([H])C([H])([H])C([H])([H])C1([H])[H]
     RDKit          3D

 74 78  0  0  0  0  0  0  0  0999 V2000
    3.5456   -4.3946    4.9797 C   0  0  0  0  0  0  0  0  0  0  0  0
    2.3949   -4.6447    4.0119 C   0  0  0  0  0  0  0  0  0  0  0  0
    2.4053   -3.6875    2.9752 O   0  0  0  0  0  0  0  0  0  0  0  0
    1.4203   -3.7596    2.0013 C   0  0  0  0  0  0  0  0  0  0  0  0
    0.4518   -4.7119    2.0061 C   0  0  0  0  0  0  0  0  0  0  0  0
   -0.5270   -4.7935    1.0503 C   0  0  0  0  0  0  0  0  0  0  0  0
   -1.4645   -5.7574    1.0988 N   0  0  0  0  0  0  0  0  0  0  0  0
   -2.4247   -5.8180    0.1380 C   0  0  0  0  0  0  0  0  0  0  0  0
   -2.4525   -4.9020   -0.8901 C   0  0  0  0  0  0  0  0  0  0  0  0
   -3.4433   -4.9293   -1.9286 C   0  0  0  0  0  0  0  0  0  0  0  0
   -4.2401   -4.9685   -2.7827 N   0  0  0  0  0  0  0  0  0  0  0  0
   -1.5035   -3.9120   -0.9538 C   0  0  0  0  0  0  0  0  0  0  0  0
   -1.5280   -2.9548   -2.0020 N   0  0  0  0  0  0  0  0  0  0  0  0
   -2.2650   -1.7387   -1.8982 C   0  0  0  0  0  0  0  0  0  0  0  0
   -2.9696   -1.4654   -0.7527 C   0  0  0  0  0  0  0  0  0  0  0  0
   -3.6795   -0.3063   -0.6505 C   0  0  0  0  0  0  0  0  0  0  0  0
   -3.7370    0.6500   -1.6685 C   0  0  0  0  0  0  0  0  0  0  0  0
   -4.4728    1.8266   -1.5330 O   0  0  0  0  0  0  0  0  0  0  0  0
   -5.1674    2.0045   -0.3018 C   0  0  0  0  0  0  0  0  0  0  0  0
   -5.9103    3.2671   -0.2306 C   0  0  0  0  0  0  0  0  0  0  0  0
   -5.3489    4.4208    0.2477 C   0  0  0  0  0  0  0  0  0  0  0  0
   -6.0866    5.5591    0.2902 C   0  0  0  0  0  0  0  0  0  0  0  0
   -7.4141    5.5716   -0.1476 C   0  0  0  0  0  0  0  0  0  0  0  0
   -7.9979    4.4234   -0.6318 C   0  0  0  0  0  0  0  0  0  0  0  0
   -7.2341    3.2723   -0.6690 C   0  0  0  0  0  0  0  0  0  0  0  0
   -3.0204    0.3499   -2.8066 C   0  0  0  0  0  0  0  0  0  0  0  0
   -3.0655    1.5222   -4.1112 Cl  0  0  0  0  0  0  0  0  0  0  0  0
   -2.2877   -0.8305   -2.9313 C   0  0  0  0  0  0  0  0  0  0  0  0
   -0.5332   -3.8648    0.0312 C   0  0  0  0  0  0  0  0  0  0  0  0
    0.4544   -2.8730    0.0034 C   0  0  0  0  0  0  0  0  0  0  0  0
    1.4300   -2.8035    0.9686 C   0  0  0  0  0  0  0  0  0  0  0  0
    2.4478   -1.8175    0.9673 N   0  0  0  0  0  0  0  0  0  0  0  0
    2.6349   -0.7505    0.0787 C   0  0  0  0  0  0  0  0  0  0  0  0
    1.9048   -0.5042   -0.8736 O   0  0  0  0  0  0  0  0  0  0  0  0
    3.7875    0.1395    0.3009 C   0  0  0  0  0  0  0  0  0  0  0  0
    4.0733    1.1710   -0.4554 C   0  0  0  0  0  0  0  0  0  0  0  0
    5.2437    2.0552   -0.2096 C   0  0  0  0  0  0  0  0  0  0  0  0
    4.8835    3.4279    0.0268 N   0  0  0  0  0  0  0  0  0  0  0  0
    6.0986    4.1734    0.2969 C   0  0  0  0  0  0  0  0  0  0  0  0
    6.9330    4.0636   -0.9598 C   0  0  0  0  0  0  0  0  0  0  0  0
    5.8525    4.1012   -2.0299 C   0  0  0  0  0  0  0  0  0  0  0  0
    4.5333    3.9910   -1.2863 C   0  0  0  0  0  0  0  0  0  0  0  0
    4.4927   -4.5563    4.4584 H   0  0  0  0  0  0  0  0  0  0  0  0
    3.5296   -3.3161    5.2722 H   0  0  0  0  0  0  0  0  0  0  0  0
    3.4441   -5.0607    5.8509 H   0  0  0  0  0  0  0  0  0  0  0  0
    1.4274   -4.6235    4.5379 H   0  0  0  0  0  0  0  0  0  0  0  0
    2.5521   -5.6696    3.6170 H   0  0  0  0  0  0  0  0  0  0  0  0
    0.4728   -5.4410    2.8240 H   0  0  0  0  0  0  0  0  0  0  0  0
   -3.1686   -6.5761    0.1707 H   0  0  0  0  0  0  0  0  0  0  0  0
   -0.9878   -3.1616   -2.8640 H   0  0  0  0  0  0  0  0  0  0  0  0
   -2.9551   -2.1706    0.0559 H   0  0  0  0  0  0  0  0  0  0  0  0
   -4.2441   -0.0726    0.2507 H   0  0  0  0  0  0  0  0  0  0  0  0
   -5.8550    1.1230   -0.1320 H   0  0  0  0  0  0  0  0  0  0  0  0
   -4.4727    1.9696    0.5600 H   0  0  0  0  0  0  0  0  0  0  0  0
   -4.3331    4.4206    0.5850 H   0  0  0  0  0  0  0  0  0  0  0  0
   -5.7013    6.5044    0.6573 H   0  0  0  0  0  0  0  0  0  0  0  0
   -8.0101    6.4740   -0.1168 H   0  0  0  0  0  0  0  0  0  0  0  0
   -9.0231    4.4110   -0.9756 H   0  0  0  0  0  0  0  0  0  0  0  0
   -7.7202    2.3876   -1.0543 H   0  0  0  0  0  0  0  0  0  0  0  0
   -1.7338   -1.0183   -3.8633 H   0  0  0  0  0  0  0  0  0  0  0  0
    0.3941   -2.1777   -0.8264 H   0  0  0  0  0  0  0  0  0  0  0  0
    3.1663   -1.9367    1.7782 H   0  0  0  0  0  0  0  0  0  0  0  0
    4.4630   -0.0398    1.1312 H   0  0  0  0  0  0  0  0  0  0  0  0
    3.4229    1.3700   -1.2836 H   0  0  0  0  0  0  0  0  0  0  0  0
    5.8879    1.6810    0.6042 H   0  0  0  0  0  0  0  0  0  0  0  0
    5.8559    1.9871   -1.1521 H   0  0  0  0  0  0  0  0  0  0  0  0
    6.6138    3.7125    1.1819 H   0  0  0  0  0  0  0  0  0  0  0  0
    5.8940    5.2514    0.4617 H   0  0  0  0  0  0  0  0  0  0  0  0
    7.5740    4.9757   -1.0133 H   0  0  0  0  0  0  0  0  0  0  0  0
    7.5147    3.1416   -0.9445 H   0  0  0  0  0  0  0  0  0  0  0  0
    5.9248    5.0667   -2.5736 H   0  0  0  0  0  0  0  0  0  0  0  0
    5.9549    3.2826   -2.7695 H   0  0  0  0  0  0  0  0  0  0  0  0
    3.8523    3.2780   -1.7842 H   0  0  0  0  0  0  0  0  0  0  0  0
    4.0458    4.9817   -1.1663 H   0  0  0  0  0  0  0  0  0  0  0  0
  1  2  1  0
  2  3  1  0
  3  4  1  0
  4  5  2  0
  5  6  1  0
  6  7  2  0
  7  8  1  0
  8  9  2  0
  9 10  1  0
 10 11  3  0
  9 12  1  0
 12 13  1  0
 13 14  1  0
 14 15  2  0
 15 16  1  0
 16 17  2  0
 17 18  1  0
 18 19  1  0
 19 20  1  0
 20 21  2  0
 21 22  1  0
 22 23  2  0
 23 24  1  0
 24 25  2  0
 17 26  1  0
 26 27  1  0
 26 28  2  0
 12 29  2  0
 29 30  1  0
 30 31  2  0
 31 32  1  0
 32 33  1  0
 33 34  2  0
 33 35  1  0
 35 36  2  0
 36 37  1  0
 37 38  1  0
 38 39  1  0
 39 40  1  0
 40 41  1  0
 41 42  1  0
 31  4  1  0
 42 38  1  0
 29  6  1  0
 28 14  1  0
 25 20  1  0
  1 43  1  0
  1 44  1  0
  1 45  1  0
  2 46  1  0
  2 47  1  0
  5 48  1  0
  8 49  1  0
 13 50  1  0
 15 51  1  0
 16 52  1  0
 19 53  1  0
 19 54  1  0
 21 55  1  0
 22 56  1  0
 23 57  1  0
 24 58  1  0
 25 59  1  0
 28 60  1  0
 30 61  1  0
 32 62  1  0
 35 63  1  0
 36 64  1  0
 37 65  1  0
 37 66  1  0
 39 67  1  0
 39 68  1  0
 40 69  1  0
 40 70  1  0
 41 71  1  0
 41 72  1  0
 42 73  1  0
 42 74  1  0
M  END
$$$$
[H]/C(C(=O)N([H])c1c(OC([H])([H])C([H])([H])[H])c([H])c2nc([H])c(C#N)c(N([H])c3c([H])c([H])c(OC([H])([H])c4nc([H])c([H])c([H])c4[H])c(Cl)c3[H])c2c1[H])=C(/[H])C([H])([H])N1C([H])([H])C([H])([H])C([H])([H])C1([H])[H]
     RDKit          3D

 73 77  0  0  0  0  0  0  0  0999 V2000
   -3.3097   -4.9126   -4.0128 C   0  0  0  0  0  0  0  0  0  0  0  0
   -3.0506   -3.4415   -4.1081 C   0  0  0  0  0  0  0  0  0  0  0  0
   -2.7142   -2.8175   -2.8991 O   0  0  0  0  0  0  0  0  0  0  0  0
   -1.6222   -3.0956   -2.1061 C   0  0  0  0  0  0  0  0  0  0  0  0
   -0.6831   -4.0474   -2.4078 C   0  0  0  0  0  0  0  0  0  0  0  0
    0.4192   -4.3223   -1.6002 C   0  0  0  0  0  0  0  0  0  0  0  0
    1.3289   -5.2605   -1.9128 N   0  0  0  0  0  0  0  0  0  0  0  0
    2.3956   -5.5153   -1.1145 C   0  0  0  0  0  0  0  0  0  0  0  0
    2.5954   -4.8197    0.0593 C   0  0  0  0  0  0  0  0  0  0  0  0
    3.7004   -5.0426    0.9427 C   0  0  0  0  0  0  0  0  0  0  0  0
    4.6037   -5.2250    1.6393 N   0  0  0  0  0  0  0  0  0  0  0  0
    1.6660   -3.8459    0.3997 C   0  0  0  0  0  0  0  0  0  0  0  0
    1.8279   -3.1117    1.5859 N   0  0  0  0  0  0  0  0  0  0  0  0
    2.5771   -1.8953    1.5751 C   0  0  0  0  0  0  0  0  0  0  0  0
    3.1625   -1.4614    0.3954 C   0  0  0  0  0  0  0  0  0  0  0  0
    3.8936   -0.2991    0.3216 C   0  0  0  0  0  0  0  0  0  0  0  0
    4.0503    0.4611    1.4585 C   0  0  0  0  0  0  0  0  0  0  0  0
    4.7914    1.6302    1.3627 O   0  0  0  0  0  0  0  0  0  0  0  0
    5.3808    2.0571    0.1564 C   0  0  0  0  0  0  0  0  0  0  0  0
    6.1151    3.3251    0.3029 C   0  0  0  0  0  0  0  0  0  0  0  0
    7.4573    3.3285    0.6636 C   0  0  0  0  0  0  0  0  0  0  0  0
    8.1276    4.5284    0.7947 C   0  0  0  0  0  0  0  0  0  0  0  0
    7.4023    5.6900    0.5522 C   0  0  0  0  0  0  0  0  0  0  0  0
    6.0687    5.6692    0.1946 C   0  0  0  0  0  0  0  0  0  0  0  0
    5.4449    4.4800    0.0755 N   0  0  0  0  0  0  0  0  0  0  0  0
    3.4773    0.0542    2.6527 C   0  0  0  0  0  0  0  0  0  0  0  0
    3.6576    0.9908    4.0995 Cl  0  0  0  0  0  0  0  0  0  0  0  0
    2.7536   -1.1133    2.6879 C   0  0  0  0  0  0  0  0  0  0  0  0
    0.5946   -3.6151   -0.4367 C   0  0  0  0  0  0  0  0  0  0  0  0
   -0.3527   -2.6405   -0.1129 C   0  0  0  0  0  0  0  0  0  0  0  0
   -1.4423   -2.3685   -0.9105 C   0  0  0  0  0  0  0  0  0  0  0  0
   -2.4013   -1.3978   -0.6073 N   0  0  0  0  0  0  0  0  0  0  0  0
   -2.4842   -0.5477    0.4988 C   0  0  0  0  0  0  0  0  0  0  0  0
   -1.6103   -0.5951    1.4037 O   0  0  0  0  0  0  0  0  0  0  0  0
   -3.5713    0.4391    0.6806 C   0  0  0  0  0  0  0  0  0  0  0  0
   -4.5488    0.6338   -0.1338 C   0  0  0  0  0  0  0  0  0  0  0  0
   -5.6605    1.5997   -0.0109 C   0  0  0  0  0  0  0  0  0  0  0  0
   -5.6444    2.4383    1.1359 N   0  0  0  0  0  0  0  0  0  0  0  0
   -6.8668    3.2317    1.1027 C   0  0  0  0  0  0  0  0  0  0  0  0
   -6.4966    4.6551    1.3550 C   0  0  0  0  0  0  0  0  0  0  0  0
   -5.1019    4.7501    0.8070 C   0  0  0  0  0  0  0  0  0  0  0  0
   -4.5535    3.3904    1.0395 C   0  0  0  0  0  0  0  0  0  0  0  0
   -2.6084   -5.5163   -4.6243 H   0  0  0  0  0  0  0  0  0  0  0  0
   -3.1963   -5.2842   -2.9664 H   0  0  0  0  0  0  0  0  0  0  0  0
   -4.3327   -5.1802   -4.3949 H   0  0  0  0  0  0  0  0  0  0  0  0
   -2.1389   -3.3233   -4.7678 H   0  0  0  0  0  0  0  0  0  0  0  0
   -3.8549   -2.9027   -4.6518 H   0  0  0  0  0  0  0  0  0  0  0  0
   -0.7971   -4.6187   -3.3298 H   0  0  0  0  0  0  0  0  0  0  0  0
    3.1281   -6.2787   -1.3770 H   0  0  0  0  0  0  0  0  0  0  0  0
    1.3865   -3.4893    2.4485 H   0  0  0  0  0  0  0  0  0  0  0  0
    3.0478   -2.0527   -0.5163 H   0  0  0  0  0  0  0  0  0  0  0  0
    4.3480    0.0394   -0.5893 H   0  0  0  0  0  0  0  0  0  0  0  0
    4.5779    2.1706   -0.6115 H   0  0  0  0  0  0  0  0  0  0  0  0
    6.0702    1.2823   -0.2672 H   0  0  0  0  0  0  0  0  0  0  0  0
    7.9991    2.4042    0.8469 H   0  0  0  0  0  0  0  0  0  0  0  0
    9.1707    4.5986    1.0722 H   0  0  0  0  0  0  0  0  0  0  0  0
    7.9483    6.6400    0.6601 H   0  0  0  0  0  0  0  0  0  0  0  0
    5.5298    6.5979    0.0118 H   0  0  0  0  0  0  0  0  0  0  0  0
    2.3174   -1.4097    3.6268 H   0  0  0  0  0  0  0  0  0  0  0  0
   -0.1467   -2.1327    0.8064 H   0  0  0  0  0  0  0  0  0  0  0  0
   -3.2067   -1.2662   -1.3170 H   0  0  0  0  0  0  0  0  0  0  0  0
   -3.5544    1.0538    1.5862 H   0  0  0  0  0  0  0  0  0  0  0  0
   -4.6018    0.0267   -1.0485 H   0  0  0  0  0  0  0  0  0  0  0  0
   -5.7018    2.1850   -0.9590 H   0  0  0  0  0  0  0  0  0  0  0  0
   -6.6067    0.9868   -0.0111 H   0  0  0  0  0  0  0  0  0  0  0  0
   -7.3586    3.1858    0.1045 H   0  0  0  0  0  0  0  0  0  0  0  0
   -7.5753    2.9112    1.9110 H   0  0  0  0  0  0  0  0  0  0  0  0
   -7.1311    5.3519    0.7319 H   0  0  0  0  0  0  0  0  0  0  0  0
   -6.6096    4.9852    2.3884 H   0  0  0  0  0  0  0  0  0  0  0  0
   -4.5257    5.5598    1.3004 H   0  0  0  0  0  0  0  0  0  0  0  0
   -5.1306    4.9797   -0.2892 H   0  0  0  0  0  0  0  0  0  0  0  0
   -3.8631    3.1401    0.1874 H   0  0  0  0  0  0  0  0  0  0  0  0
   -3.9608    3.3942    1.9857 H   0  0  0  0  0  0  0  0  0  0  0  0
  1  2  1  0
  2  3  1  0
  3  4  1  0
  4  5  2  0
  5  6  1  0
  6  7  2  0
  7  8  1  0
  8  9  2  0
  9 10  1  0
 10 11  3  0
  9 12  1  0
 12 13  1  0
 13 14  1  0
 14 15  2  0
 15 16  1  0
 16 17  2  0
 17 18  1  0
 18 19  1  0
 19 20  1  0
 20 21  2  0
 21 22  1  0
 22 23  2  0
 23 24  1  0
 24 25  2  0
 17 26  1  0
 26 27  1  0
 26 28  2  0
 12 29  2  0
 29 30  1  0
 30 31  2  0
 31 32  1  0
 32 33  1  0
 33 34  2  0
 33 35  1  0
 35 36  2  0
 36 37  1  0
 37 38  1  0
 38 39  1  0
 39 40  1  0
 40 41  1  0
 41 42  1  0
 31  4  1  0
 42 38  1  0
 29  6  1  0
 28 14  1  0
 25 20  1  0
  1 43  1  0
  1 44  1  0
  1 45  1  0
  2 46  1  0
  2 47  1  0
  5 48  1  0
  8 49  1  0
 13 50  1  0
 15 51  1  0
 16 52  1  0
 19 53  1  0
 19 54  1  0
 21 55  1  0
 22 56  1  0
 23 57  1  0
 24 58  1  0
 28 59  1  0
 30 60  1  0
 32 61  1  0
 35 62  1  0
 36 63  1  0
 37 64  1  0
 37 65  1  0
 39 66  1  0
 39 67  1  0
 40 68  1  0
 40 69  1  0
 41 70  1  0
 41 71  1  0
 42 72  1  0
 42 73  1  0
M  END
$$$$
[H]/C(C(=O)N([H])c1c(OC([H])([H])[H])c([H])c2nc([H])nc(N([H])c3c([H])c([H])c(F)c(Cl)c3[H])c2c1[H])=C(/[H])C([H])([H])N1C([H])([H])C([H])([H])C([H])([H])C([H])([H])C1([H])[H]
     RDKit          3D

 58 61  0  0  0  0  0  0  0  0999 V2000
    0.3340    1.7228   -4.3122 C   0  0  0  0  0  0  0  0  0  0  0  0
    0.3052    1.3862   -2.9598 O   0  0  0  0  0  0  0  0  0  0  0  0
   -0.8827    0.9672   -2.3835 C   0  0  0  0  0  0  0  0  0  0  0  0
   -2.0240    0.8834   -3.1338 C   0  0  0  0  0  0  0  0  0  0  0  0
   -3.1924    0.4657   -2.5446 C   0  0  0  0  0  0  0  0  0  0  0  0
   -4.3053    0.3936   -3.3026 N   0  0  0  0  0  0  0  0  0  0  0  0
   -5.4382   -0.0133   -2.7130 C   0  0  0  0  0  0  0  0  0  0  0  0
   -5.4888   -0.3371   -1.4387 N   0  0  0  0  0  0  0  0  0  0  0  0
   -4.4169   -0.2934   -0.6038 C   0  0  0  0  0  0  0  0  0  0  0  0
   -4.5065   -0.6757    0.7428 N   0  0  0  0  0  0  0  0  0  0  0  0
   -5.6323   -1.0880    1.4642 C   0  0  0  0  0  0  0  0  0  0  0  0
   -5.4741   -1.8363    2.6412 C   0  0  0  0  0  0  0  0  0  0  0  0
   -6.5220   -2.2580    3.4133 C   0  0  0  0  0  0  0  0  0  0  0  0
   -7.8068   -1.9524    3.0497 C   0  0  0  0  0  0  0  0  0  0  0  0
   -8.8723   -2.3443    3.7754 F   0  0  0  0  0  0  0  0  0  0  0  0
   -8.0038   -1.2220    1.9055 C   0  0  0  0  0  0  0  0  0  0  0  0
   -9.6483   -0.8310    1.4420 Cl  0  0  0  0  0  0  0  0  0  0  0  0
   -6.9191   -0.7941    1.1206 C   0  0  0  0  0  0  0  0  0  0  0  0
   -3.2433    0.1255   -1.2024 C   0  0  0  0  0  0  0  0  0  0  0  0
   -2.0625    0.2315   -0.5037 C   0  0  0  0  0  0  0  0  0  0  0  0
   -0.8549    0.6395   -1.0149 C   0  0  0  0  0  0  0  0  0  0  0  0
    0.3592    0.7507   -0.2885 N   0  0  0  0  0  0  0  0  0  0  0  0
    0.5967    0.4795    1.0577 C   0  0  0  0  0  0  0  0  0  0  0  0
   -0.2892    0.0679    1.8800 O   0  0  0  0  0  0  0  0  0  0  0  0
    1.9161    0.6467    1.6653 C   0  0  0  0  0  0  0  0  0  0  0  0
    2.9334    1.0572    0.9778 C   0  0  0  0  0  0  0  0  0  0  0  0
    4.2973    1.2292    1.6089 C   0  0  0  0  0  0  0  0  0  0  0  0
    5.1894    0.3656    0.9104 N   0  0  0  0  0  0  0  0  0  0  0  0
    4.9685   -1.0313    1.1009 C   0  0  0  0  0  0  0  0  0  0  0  0
    5.6748   -1.8096    0.0193 C   0  0  0  0  0  0  0  0  0  0  0  0
    7.1315   -1.4478   -0.0369 C   0  0  0  0  0  0  0  0  0  0  0  0
    7.2765    0.0308   -0.2241 C   0  0  0  0  0  0  0  0  0  0  0  0
    6.5607    0.7614    0.8900 C   0  0  0  0  0  0  0  0  0  0  0  0
    0.1246    0.8361   -4.9617 H   0  0  0  0  0  0  0  0  0  0  0  0
    1.3283    2.1216   -4.6165 H   0  0  0  0  0  0  0  0  0  0  0  0
   -0.4095    2.4991   -4.5754 H   0  0  0  0  0  0  0  0  0  0  0  0
   -1.9908    1.1484   -4.1892 H   0  0  0  0  0  0  0  0  0  0  0  0
   -6.3812   -0.0932   -3.2780 H   0  0  0  0  0  0  0  0  0  0  0  0
   -3.6075   -0.6538    1.3038 H   0  0  0  0  0  0  0  0  0  0  0  0
   -4.4485   -2.0776    2.9270 H   0  0  0  0  0  0  0  0  0  0  0  0
   -6.3699   -2.8368    4.3197 H   0  0  0  0  0  0  0  0  0  0  0  0
   -7.1970   -0.2194    0.2593 H   0  0  0  0  0  0  0  0  0  0  0  0
   -2.0941   -0.0240    0.5213 H   0  0  0  0  0  0  0  0  0  0  0  0
    1.1969    1.0912   -0.8731 H   0  0  0  0  0  0  0  0  0  0  0  0
    2.0743    0.4235    2.7362 H   0  0  0  0  0  0  0  0  0  0  0  0
    2.9039    1.3024   -0.0579 H   0  0  0  0  0  0  0  0  0  0  0  0
    4.5928    2.2742    1.3973 H   0  0  0  0  0  0  0  0  0  0  0  0
    4.2545    1.0651    2.6985 H   0  0  0  0  0  0  0  0  0  0  0  0
    5.2681   -1.4054    2.1023 H   0  0  0  0  0  0  0  0  0  0  0  0
    3.8803   -1.2291    0.9840 H   0  0  0  0  0  0  0  0  0  0  0  0
    5.5691   -2.8840    0.1865 H   0  0  0  0  0  0  0  0  0  0  0  0
    5.2325   -1.5344   -0.9634 H   0  0  0  0  0  0  0  0  0  0  0  0
    7.6297   -1.7949    0.8983 H   0  0  0  0  0  0  0  0  0  0  0  0
    7.5808   -1.9495   -0.9194 H   0  0  0  0  0  0  0  0  0  0  0  0
    6.8406    0.2987   -1.2100 H   0  0  0  0  0  0  0  0  0  0  0  0
    8.3639    0.2748   -0.1917 H   0  0  0  0  0  0  0  0  0  0  0  0
    6.6032    1.8425    0.6605 H   0  0  0  0  0  0  0  0  0  0  0  0
    7.0952    0.6132    1.8396 H   0  0  0  0  0  0  0  0  0  0  0  0
  1  2  1  0
  2  3  1  0
  3  4  2  0
  4  5  1  0
  5  6  2  0
  6  7  1  0
  7  8  2  0
  8  9  1  0
  9 10  1  0
 10 11  1  0
 11 12  2  0
 12 13  1  0
 13 14  2  0
 14 15  1  0
 14 16  1  0
 16 17  1  0
 16 18  2  0
  9 19  2  0
 19 20  1  0
 20 21  2  0
 21 22  1  0
 22 23  1  0
 23 24  2  0
 23 25  1  0
 25 26  2  0
 26 27  1  0
 27 28  1  0
 28 29  1  0
 29 30  1  0
 30 31  1  0
 31 32  1  0
 32 33  1  0
 21  3  1  0
 33 28  1  0
 19  5  1  0
 18 11  1  0
  1 34  1  0
  1 35  1  0
  1 36  1  0
  4 37  1  0
  7 38  1  0
 10 39  1  0
 12 40  1  0
 13 41  1  0
 18 42  1  0
 20 43  1  0
 22 44  1  0
 25 45  1  0
 26 46  1  0
 27 47  1  0
 27 48  1  0
 29 49  1  0
 29 50  1  0
 30 51  1  0
 30 52  1  0
 31 53  1  0
 31 54  1  0
 32 55  1  0
 32 56  1  0
 33 57  1  0
 33 58  1  0
M  END
$$$$
[H]/C(C(=O)N([H])c1c(OC([H])([H])C([H])([H])[H])c([H])c2nc([H])c(C#N)c(N([H])c3c([H])c([H])c(OC([H])([H])c4c([H])c([H])c([H])c([H])c4[H])c(Cl)c3[H])c2c1[H])=C(/[H])C([H])([H])N1C([H])([H])C([H])([H])C([H])([H])C([H])([H])C1([H])[H]
     RDKit          3D

 77 81  0  0  0  0  0  0  0  0999 V2000
   -4.2602   -5.4986   -0.9256 C   0  0  0  0  0  0  0  0  0  0  0  0
   -4.0063   -4.1428   -1.4988 C   0  0  0  0  0  0  0  0  0  0  0  0
   -3.2370   -3.2821   -0.7526 O   0  0  0  0  0  0  0  0  0  0  0  0
   -1.9467   -3.4388   -0.3686 C   0  0  0  0  0  0  0  0  0  0  0  0
   -1.2275   -4.5404   -0.7178 C   0  0  0  0  0  0  0  0  0  0  0  0
    0.1043   -4.7026   -0.3236 C   0  0  0  0  0  0  0  0  0  0  0  0
    0.7928   -5.8009   -0.6810 N   0  0  0  0  0  0  0  0  0  0  0  0
    2.0926   -5.9654   -0.2993 C   0  0  0  0  0  0  0  0  0  0  0  0
    2.7563   -5.0304    0.4595 C   0  0  0  0  0  0  0  0  0  0  0  0
    4.1113   -5.1660    0.8776 C   0  0  0  0  0  0  0  0  0  0  0  0
    5.2212   -5.2586    1.2208 N   0  0  0  0  0  0  0  0  0  0  0  0
    2.0315   -3.8963    0.8235 C   0  0  0  0  0  0  0  0  0  0  0  0
    2.6666   -2.9015    1.6034 N   0  0  0  0  0  0  0  0  0  0  0  0
    3.3767   -1.8081    1.1072 C   0  0  0  0  0  0  0  0  0  0  0  0
    3.9737   -0.9268    1.9535 C   0  0  0  0  0  0  0  0  0  0  0  0
    4.6729    0.1440    1.4639 C   0  0  0  0  0  0  0  0  0  0  0  0
    4.8073    0.3829    0.1067 C   0  0  0  0  0  0  0  0  0  0  0  0
    5.5230    1.4777   -0.3719 O   0  0  0  0  0  0  0  0  0  0  0  0
    6.1148    2.3448    0.5805 C   0  0  0  0  0  0  0  0  0  0  0  0
    6.8400    3.4497   -0.0849 C   0  0  0  0  0  0  0  0  0  0  0  0
    8.1573    3.2560   -0.4256 C   0  0  0  0  0  0  0  0  0  0  0  0
    8.8819    4.2442   -1.0442 C   0  0  0  0  0  0  0  0  0  0  0  0
    8.2797    5.4346   -1.3223 C   0  0  0  0  0  0  0  0  0  0  0  0
    6.9451    5.6819   -0.9971 C   0  0  0  0  0  0  0  0  0  0  0  0
    6.2493    4.6548   -0.3724 C   0  0  0  0  0  0  0  0  0  0  0  0
    4.1867   -0.5338   -0.7175 C   0  0  0  0  0  0  0  0  0  0  0  0
    4.3334   -0.2618   -2.4592 Cl  0  0  0  0  0  0  0  0  0  0  0  0
    3.4833   -1.6106   -0.2419 C   0  0  0  0  0  0  0  0  0  0  0  0
    0.7222   -3.7366    0.4360 C   0  0  0  0  0  0  0  0  0  0  0  0
   -0.0469   -2.6170    0.7766 C   0  0  0  0  0  0  0  0  0  0  0  0
   -1.3462   -2.4300    0.4083 C   0  0  0  0  0  0  0  0  0  0  0  0
   -2.1305   -1.3098    0.7532 N   0  0  0  0  0  0  0  0  0  0  0  0
   -1.7663   -0.1868    1.4715 C   0  0  0  0  0  0  0  0  0  0  0  0
   -0.6081   -0.0293    1.9270 O   0  0  0  0  0  0  0  0  0  0  0  0
   -2.6994    0.9002    1.7554 C   0  0  0  0  0  0  0  0  0  0  0  0
   -3.9377    0.9252    1.3776 C   0  0  0  0  0  0  0  0  0  0  0  0
   -4.8668    2.0621    1.6889 C   0  0  0  0  0  0  0  0  0  0  0  0
   -5.3518    2.6372    0.4623 N   0  0  0  0  0  0  0  0  0  0  0  0
   -6.2324    1.8039   -0.2914 C   0  0  0  0  0  0  0  0  0  0  0  0
   -6.1757    2.2614   -1.7495 C   0  0  0  0  0  0  0  0  0  0  0  0
   -6.0367    3.7803   -1.8070 C   0  0  0  0  0  0  0  0  0  0  0  0
   -6.6723    4.3731   -0.5699 C   0  0  0  0  0  0  0  0  0  0  0  0
   -6.0168    3.9149    0.6884 C   0  0  0  0  0  0  0  0  0  0  0  0
   -5.3406   -5.6964   -0.8454 H   0  0  0  0  0  0  0  0  0  0  0  0
   -3.8430   -5.5352    0.1057 H   0  0  0  0  0  0  0  0  0  0  0  0
   -3.8595   -6.3246   -1.5612 H   0  0  0  0  0  0  0  0  0  0  0  0
   -3.5903   -4.1949   -2.5349 H   0  0  0  0  0  0  0  0  0  0  0  0
   -5.0146   -3.6433   -1.6357 H   0  0  0  0  0  0  0  0  0  0  0  0
   -1.7076   -5.3042   -1.3272 H   0  0  0  0  0  0  0  0  0  0  0  0
    2.6573   -6.8576   -0.5892 H   0  0  0  0  0  0  0  0  0  0  0  0
    2.5971   -2.9954    2.6364 H   0  0  0  0  0  0  0  0  0  0  0  0
    3.9135   -1.0447    3.0253 H   0  0  0  0  0  0  0  0  0  0  0  0
    5.1543    0.8553    2.1290 H   0  0  0  0  0  0  0  0  0  0  0  0
    5.3511    2.7564    1.2970 H   0  0  0  0  0  0  0  0  0  0  0  0
    6.8199    1.7716    1.2544 H   0  0  0  0  0  0  0  0  0  0  0  0
    8.6097    2.3064   -0.1948 H   0  0  0  0  0  0  0  0  0  0  0  0
    9.9102    4.0877   -1.3086 H   0  0  0  0  0  0  0  0  0  0  0  0
    8.8262    6.2285   -1.8063 H   0  0  0  0  0  0  0  0  0  0  0  0
    6.5090    6.6286   -1.2312 H   0  0  0  0  0  0  0  0  0  0  0  0
    5.2148    4.8395   -0.1184 H   0  0  0  0  0  0  0  0  0  0  0  0
    3.0242   -2.2849   -0.9781 H   0  0  0  0  0  0  0  0  0  0  0  0
    0.4654   -1.8888    1.3663 H   0  0  0  0  0  0  0  0  0  0  0  0
   -3.1526   -1.3253    0.4151 H   0  0  0  0  0  0  0  0  0  0  0  0
   -2.3539    1.7813    2.3336 H   0  0  0  0  0  0  0  0  0  0  0  0
   -4.3584    0.1129    0.8178 H   0  0  0  0  0  0  0  0  0  0  0  0
   -4.2940    2.8446    2.2276 H   0  0  0  0  0  0  0  0  0  0  0  0
   -5.6670    1.6447    2.3349 H   0  0  0  0  0  0  0  0  0  0  0  0
   -5.9594    0.7540   -0.2133 H   0  0  0  0  0  0  0  0  0  0  0  0
   -7.2834    1.8869    0.1034 H   0  0  0  0  0  0  0  0  0  0  0  0
   -5.2753    1.8163   -2.1994 H   0  0  0  0  0  0  0  0  0  0  0  0
   -7.0973    1.9466   -2.2877 H   0  0  0  0  0  0  0  0  0  0  0  0
   -4.9666    4.0455   -1.8264 H   0  0  0  0  0  0  0  0  0  0  0  0
   -6.6069    4.1360   -2.6919 H   0  0  0  0  0  0  0  0  0  0  0  0
   -6.5927    5.4858   -0.6306 H   0  0  0  0  0  0  0  0  0  0  0  0
   -7.7627    4.1115   -0.5962 H   0  0  0  0  0  0  0  0  0  0  0  0
   -6.7836    3.7455    1.4920 H   0  0  0  0  0  0  0  0  0  0  0  0
   -5.3020    4.6557    1.1104 H   0  0  0  0  0  0  0  0  0  0  0  0
  1  2  1  0
  2  3  1  0
  3  4  1  0
  4  5  2  0
  5  6  1  0
  6  7  2  0
  7  8  1  0
  8  9  2  0
  9 10  1  0
 10 11  3  0
  9 12  1  0
 12 13  1  0
 13 14  1  0
 14 15  2  0
 15 16  1  0
 16 17  2  0
 17 18  1  0
 18 19  1  0
 19 20  1  0
 20 21  2  0
 21 22  1  0
 22 23  2  0
 23 24  1  0
 24 25  2  0
 17 26  1  0
 26 27  1  0
 26 28  2  0
 12 29  2  0
 29 30  1  0
 30 31  2  0
 31 32  1  0
 32 33  1  0
 33 34  2  0
 33 35  1  0
 35 36  2  0
 36 37  1  0
 37 38  1  0
 38 39  1  0
 39 40  1  0
 40 41  1  0
 41 42  1  0
 42 43  1  0
 31  4  1  0
 43 38  1  0
 29  6  1  0
 28 14  1  0
 25 20  1  0
  1 44  1  0
  1 45  1  0
  1 46  1  0
  2 47  1  0
  2 48  1  0
  5 49  1  0
  8 50  1  0
 13 51  1  0
 15 52  1  0
 16 53  1  0
 19 54  1  0
 19 55  1  0
 21 56  1  0
 22 57  1  0
 23 58  1  0
 24 59  1  0
 25 60  1  0
 28 61  1  0
 30 62  1  0
 32 63  1  0
 35 64  1  0
 36 65  1  0
 37 66  1  0
 37 67  1  0
 39 68  1  0
 39 69  1  0
 40 70  1  0
 40 71  1  0
 41 72  1  0
 41 73  1  0
 42 74  1  0
 42 75  1  0
 43 76  1  0
 43 77  1  0
M  END
$$$$
[H]/C(C(=O)N([H])c1c(OC([H])([H])C([H])([H])[H])c([H])c2nc([H])c(C#N)c(N([H])c3c([H])c([H])c(OC([H])([H])c4nc([H])c([H])c([H])c4[H])c(Cl)c3[H])c2c1[H])=C(/[H])C([H])([H])N1C([H])([H])C([H])([H])C([H])([H])C([H])([H])C1([H])[H]
     RDKit          3D

 76 80  0  0  0  0  0  0  0  0999 V2000
   -3.7745   -2.7204   -2.1899 C   0  0  0  0  0  0  0  0  0  0  0  0
   -2.8109   -1.7655   -2.8906 C   0  0  0  0  0  0  0  0  0  0  0  0
   -1.9911   -1.1914   -1.9455 O   0  0  0  0  0  0  0  0  0  0  0  0
   -1.0890   -1.7488   -1.0892 C   0  0  0  0  0  0  0  0  0  0  0  0
   -0.8528   -3.0979   -1.0901 C   0  0  0  0  0  0  0  0  0  0  0  0
    0.0592   -3.6940   -0.2391 C   0  0  0  0  0  0  0  0  0  0  0  0
    0.2415   -5.0282   -0.2446 N   0  0  0  0  0  0  0  0  0  0  0  0
    1.0895   -5.6566    0.5831 C   0  0  0  0  0  0  0  0  0  0  0  0
    1.8137   -4.8892    1.4890 C   0  0  0  0  0  0  0  0  0  0  0  0
    2.6977   -5.5351    2.4068 C   0  0  0  0  0  0  0  0  0  0  0  0
    3.4172   -6.0355    3.1484 N   0  0  0  0  0  0  0  0  0  0  0  0
    1.6899   -3.5332    1.5574 C   0  0  0  0  0  0  0  0  0  0  0  0
    2.3073   -2.6460    2.4389 N   0  0  0  0  0  0  0  0  0  0  0  0
    3.5507   -2.0168    2.3885 C   0  0  0  0  0  0  0  0  0  0  0  0
    3.7038   -0.7541    2.9898 C   0  0  0  0  0  0  0  0  0  0  0  0
    4.9007   -0.0819    3.0301 C   0  0  0  0  0  0  0  0  0  0  0  0
    6.0218   -0.6738    2.4504 C   0  0  0  0  0  0  0  0  0  0  0  0
    7.2604   -0.0696    2.4580 O   0  0  0  0  0  0  0  0  0  0  0  0
    7.5587    1.1881    2.9632 C   0  0  0  0  0  0  0  0  0  0  0  0
    6.8217    2.2851    2.2545 C   0  0  0  0  0  0  0  0  0  0  0  0
    6.2857    2.1135    1.0049 C   0  0  0  0  0  0  0  0  0  0  0  0
    5.5951    3.1183    0.3360 C   0  0  0  0  0  0  0  0  0  0  0  0
    5.4516    4.3309    0.9664 C   0  0  0  0  0  0  0  0  0  0  0  0
    5.9972    4.4941    2.2287 C   0  0  0  0  0  0  0  0  0  0  0  0
    6.6616    3.5015    2.8520 N   0  0  0  0  0  0  0  0  0  0  0  0
    5.9105   -1.9122    1.8513 C   0  0  0  0  0  0  0  0  0  0  0  0
    7.3352   -2.6373    1.1242 Cl  0  0  0  0  0  0  0  0  0  0  0  0
    4.6712   -2.5627    1.8301 C   0  0  0  0  0  0  0  0  0  0  0  0
    0.7783   -2.9553    0.6521 C   0  0  0  0  0  0  0  0  0  0  0  0
    0.5513   -1.6089    0.6596 C   0  0  0  0  0  0  0  0  0  0  0  0
   -0.3739   -0.9288   -0.1852 C   0  0  0  0  0  0  0  0  0  0  0  0
   -0.6754    0.3322   -0.0301 N   0  0  0  0  0  0  0  0  0  0  0  0
   -0.9763    1.6879    0.1402 C   0  0  0  0  0  0  0  0  0  0  0  0
   -0.0783    2.5886    0.3817 O   0  0  0  0  0  0  0  0  0  0  0  0
   -2.3441    2.2510    0.0815 C   0  0  0  0  0  0  0  0  0  0  0  0
   -3.3717    1.4967   -0.0904 C   0  0  0  0  0  0  0  0  0  0  0  0
   -4.7713    2.0763   -0.1510 C   0  0  0  0  0  0  0  0  0  0  0  0
   -5.2959    1.7399   -1.4192 N   0  0  0  0  0  0  0  0  0  0  0  0
   -4.7313    2.3676   -2.5570 C   0  0  0  0  0  0  0  0  0  0  0  0
   -5.7794    3.3810   -3.0596 C   0  0  0  0  0  0  0  0  0  0  0  0
   -7.0078    2.6522   -3.5515 C   0  0  0  0  0  0  0  0  0  0  0  0
   -7.0640    1.2414   -2.9486 C   0  0  0  0  0  0  0  0  0  0  0  0
   -6.6173    1.2652   -1.5046 C   0  0  0  0  0  0  0  0  0  0  0  0
   -3.6921   -3.6885   -2.6857 H   0  0  0  0  0  0  0  0  0  0  0  0
   -4.8175   -2.3423   -2.2727 H   0  0  0  0  0  0  0  0  0  0  0  0
   -3.4992   -2.8295   -1.1288 H   0  0  0  0  0  0  0  0  0  0  0  0
   -3.4403   -0.9527   -3.3654 H   0  0  0  0  0  0  0  0  0  0  0  0
   -2.2775   -2.2944   -3.7114 H   0  0  0  0  0  0  0  0  0  0  0  0
   -1.3970   -3.7393   -1.7985 H   0  0  0  0  0  0  0  0  0  0  0  0
    1.2088   -6.7394    0.5471 H   0  0  0  0  0  0  0  0  0  0  0  0
    1.7207   -2.3976    3.3264 H   0  0  0  0  0  0  0  0  0  0  0  0
    2.7988   -0.3252    3.4308 H   0  0  0  0  0  0  0  0  0  0  0  0
    4.9497    0.8830    3.5153 H   0  0  0  0  0  0  0  0  0  0  0  0
    8.6402    1.3907    2.7718 H   0  0  0  0  0  0  0  0  0  0  0  0
    7.2989    1.2946    4.0500 H   0  0  0  0  0  0  0  0  0  0  0  0
    6.3763    1.1624    0.4695 H   0  0  0  0  0  0  0  0  0  0  0  0
    5.1897    2.9308   -0.6458 H   0  0  0  0  0  0  0  0  0  0  0  0
    4.9184    5.1366    0.4749 H   0  0  0  0  0  0  0  0  0  0  0  0
    5.8724    5.4745    2.7170 H   0  0  0  0  0  0  0  0  0  0  0  0
    4.6851   -3.5250    1.3258 H   0  0  0  0  0  0  0  0  0  0  0  0
    1.0950   -0.9817    1.3581 H   0  0  0  0  0  0  0  0  0  0  0  0
    0.6474    0.6797   -0.0471 H   0  0  0  0  0  0  0  0  0  0  0  0
   -2.5074    3.3355    0.1852 H   0  0  0  0  0  0  0  0  0  0  0  0
   -3.3571    0.4223   -0.1860 H   0  0  0  0  0  0  0  0  0  0  0  0
   -4.7900    3.1430    0.1206 H   0  0  0  0  0  0  0  0  0  0  0  0
   -5.3307    1.5259    0.6348 H   0  0  0  0  0  0  0  0  0  0  0  0
   -3.8407    2.9757   -2.2905 H   0  0  0  0  0  0  0  0  0  0  0  0
   -4.4705    1.6359   -3.3252 H   0  0  0  0  0  0  0  0  0  0  0  0
   -6.0874    4.0336   -2.2056 H   0  0  0  0  0  0  0  0  0  0  0  0
   -5.3507    3.9355   -3.9058 H   0  0  0  0  0  0  0  0  0  0  0  0
   -6.9321    2.5116   -4.6353 H   0  0  0  0  0  0  0  0  0  0  0  0
   -7.8986    3.2072   -3.2192 H   0  0  0  0  0  0  0  0  0  0  0  0
   -6.3356    0.6355   -3.5115 H   0  0  0  0  0  0  0  0  0  0  0  0
   -8.1187    0.9057   -3.0528 H   0  0  0  0  0  0  0  0  0  0  0  0
   -7.3361    1.9664   -0.9846 H   0  0  0  0  0  0  0  0  0  0  0  0
   -6.6885    0.2612   -1.0362 H   0  0  0  0  0  0  0  0  0  0  0  0
  1  2  1  0
  2  3  1  0
  3  4  1  0
  4  5  2  0
  5  6  1  0
  6  7  2  0
  7  8  1  0
  8  9  2  0
  9 10  1  0
 10 11  3  0
  9 12  1  0
 12 13  1  0
 13 14  1  0
 14 15  2  0
 15 16  1  0
 16 17  2  0
 17 18  1  0
 18 19  1  0
 19 20  1  0
 20 21  2  0
 21 22  1  0
 22 23  2  0
 23 24  1  0
 24 25  2  0
 17 26  1  0
 26 27  1  0
 26 28  2  0
 12 29  2  0
 29 30  1  0
 30 31  2  0
 31 32  1  0
 32 33  1  0
 33 34  2  0
 33 35  1  0
 35 36  2  0
 36 37  1  0
 37 38  1  0
 38 39  1  0
 39 40  1  0
 40 41  1  0
 41 42  1  0
 42 43  1  0
 31  4  1  0
 43 38  1  0
 29  6  1  0
 28 14  1  0
 25 20  1  0
  1 44  1  0
  1 45  1  0
  1 46  1  0
  2 47  1  0
  2 48  1  0
  5 49  1  0
  8 50  1  0
 13 51  1  0
 15 52  1  0
 16 53  1  0
 19 54  1  0
 19 55  1  0
 21 56  1  0
 22 57  1  0
 23 58  1  0
 24 59  1  0
 28 60  1  0
 30 61  1  0
 32 62  1  0
 35 63  1  0
 36 64  1  0
 37 65  1  0
 37 66  1  0
 39 67  1  0
 39 68  1  0
 40 69  1  0
 40 70  1  0
 41 71  1  0
 41 72  1  0
 42 73  1  0
 42 74  1  0
 43 75  1  0
 43 76  1  0
M  END
$$$$
[H]c1nc(N([H])c2c([H])c([H])c(OC([H])([H])c3c([H])c([H])c([H])c(F)c3[H])c(Cl)c2[H])c2c(n1)c([H])c([H])n2[H]
     RDKit          3D

 40 43  0  0  0  0  0  0  0  0999 V2000
    6.3502   -2.0474   -3.0473 F   0  0  0  0  0  0  0  0  0  0  0  0
    6.2739   -1.1734   -2.0175 C   0  0  0  0  0  0  0  0  0  0  0  0
    7.4175   -0.5712   -1.4953 C   0  0  0  0  0  0  0  0  0  0  0  0
    7.3177    0.3159   -0.4466 C   0  0  0  0  0  0  0  0  0  0  0  0
    6.0819    0.6089    0.0883 C   0  0  0  0  0  0  0  0  0  0  0  0
    4.9312    0.0304   -0.4051 C   0  0  0  0  0  0  0  0  0  0  0  0
    3.6140    0.3605    0.1856 C   0  0  0  0  0  0  0  0  0  0  0  0
    2.6261   -0.3611   -0.5007 O   0  0  0  0  0  0  0  0  0  0  0  0
    1.2726   -0.2778   -0.1918 C   0  0  0  0  0  0  0  0  0  0  0  0
    0.8633    0.5447    0.8305 C   0  0  0  0  0  0  0  0  0  0  0  0
   -0.4682    0.6377    1.1465 C   0  0  0  0  0  0  0  0  0  0  0  0
   -1.4745   -0.0718    0.4768 C   0  0  0  0  0  0  0  0  0  0  0  0
   -2.8031    0.0696    0.8731 N   0  0  0  0  0  0  0  0  0  0  0  0
   -3.9795   -0.2941    0.2225 C   0  0  0  0  0  0  0  0  0  0  0  0
   -4.0588   -0.8570   -0.9898 N   0  0  0  0  0  0  0  0  0  0  0  0
   -5.2122   -1.1842   -1.5967 C   0  0  0  0  0  0  0  0  0  0  0  0
   -6.4023   -0.9584   -1.0021 N   0  0  0  0  0  0  0  0  0  0  0  0
   -6.4164   -0.3930    0.2240 C   0  0  0  0  0  0  0  0  0  0  0  0
   -7.4723   -0.0471    1.0669 C   0  0  0  0  0  0  0  0  0  0  0  0
   -6.8755    0.4935    2.1855 C   0  0  0  0  0  0  0  0  0  0  0  0
   -5.5220    0.4712    2.0172 N   0  0  0  0  0  0  0  0  0  0  0  0
   -5.2238   -0.0656    0.8276 C   0  0  0  0  0  0  0  0  0  0  0  0
   -1.0442   -0.8867   -0.5392 C   0  0  0  0  0  0  0  0  0  0  0  0
    0.3184   -0.9903   -0.8729 C   0  0  0  0  0  0  0  0  0  0  0  0
    0.8261   -2.0382   -2.1732 Cl  0  0  0  0  0  0  0  0  0  0  0  0
    5.0509   -0.8499   -1.4491 C   0  0  0  0  0  0  0  0  0  0  0  0
    8.3660   -0.8420   -1.9593 H   0  0  0  0  0  0  0  0  0  0  0  0
    8.2062    0.7752   -0.0509 H   0  0  0  0  0  0  0  0  0  0  0  0
    5.9711    1.3112    0.9235 H   0  0  0  0  0  0  0  0  0  0  0  0
    3.5917    0.1268    1.2873 H   0  0  0  0  0  0  0  0  0  0  0  0
    3.4551    1.4603    0.1023 H   0  0  0  0  0  0  0  0  0  0  0  0
    1.5666    1.1356    1.4093 H   0  0  0  0  0  0  0  0  0  0  0  0
   -0.8026    1.2896    1.9557 H   0  0  0  0  0  0  0  0  0  0  0  0
   -2.9489    0.5299    1.8415 H   0  0  0  0  0  0  0  0  0  0  0  0
   -5.1319   -1.6349   -2.5802 H   0  0  0  0  0  0  0  0  0  0  0  0
   -8.5153   -0.1826    0.8659 H   0  0  0  0  0  0  0  0  0  0  0  0
   -7.3760    0.8775    3.0620 H   0  0  0  0  0  0  0  0  0  0  0  0
   -4.7983    0.8118    2.6911 H   0  0  0  0  0  0  0  0  0  0  0  0
   -1.7371   -1.4859   -1.1129 H   0  0  0  0  0  0  0  0  0  0  0  0
    4.1623   -1.3158   -1.8525 H   0  0  0  0  0  0  0  0  0  0  0  0
  1  2  1  0
  2  3  2  0
  3  4  1  0
  4  5  2  0
  5  6  1  0
  6  7  1  0
  7  8  1  0
  8  9  1  0
  9 10  2  0
 10 11  1  0
 11 12  2  0
 12 13  1  0
 13 14  1  0
 14 15  2  0
 15 16  1  0
 16 17  2  0
 17 18  1  0
 18 19  1  0
 19 20  2  0
 20 21  1  0
 21 22  1  0
 12 23  1  0
 23 24  2  0
 24 25  1  0
  6 26  2  0
 26  2  1  0
 24  9  1  0
 22 14  1  0
 22 18  2  0
  3 27  1  0
  4 28  1  0
  5 29  1  0
  7 30  1  0
  7 31  1  0
 10 32  1  0
 11 33  1  0
 13 34  1  0
 16 35  1  0
 19 36  1  0
 20 37  1  0
 21 38  1  0
 23 39  1  0
 26 40  1  0
M  END
$$$$
[H]c1nc(N([H])c2c([H])c([H])c(F)c(Cl)c2[H])c2c([H])c(OC([H])([H])[H])c(OC([H])([H])[H])c([H])c2n1
     RDKit          3D

 36 38  0  0  0  0  0  0  0  0999 V2000
   -5.5222   -1.6438    0.4343 C   0  0  0  0  0  0  0  0  0  0  0  0
   -4.7198   -0.4817    0.4610 O   0  0  0  0  0  0  0  0  0  0  0  0
   -3.3526   -0.4907    0.3183 C   0  0  0  0  0  0  0  0  0  0  0  0
   -2.7212   -1.6837    0.1396 C   0  0  0  0  0  0  0  0  0  0  0  0
   -1.3706   -1.7424   -0.0061 C   0  0  0  0  0  0  0  0  0  0  0  0
   -0.7128   -2.9102   -0.1838 N   0  0  0  0  0  0  0  0  0  0  0  0
    0.6194   -2.9997   -0.3292 C   0  0  0  0  0  0  0  0  0  0  0  0
    1.3062   -1.8541   -0.2921 N   0  0  0  0  0  0  0  0  0  0  0  0
    0.7785   -0.6307   -0.1227 C   0  0  0  0  0  0  0  0  0  0  0  0
    1.5362    0.5517   -0.1219 N   0  0  0  0  0  0  0  0  0  0  0  0
    2.9503    0.5683   -0.2318 C   0  0  0  0  0  0  0  0  0  0  0  0
    3.5665    1.6780   -0.8182 C   0  0  0  0  0  0  0  0  0  0  0  0
    4.9223    1.7543   -0.9191 C   0  0  0  0  0  0  0  0  0  0  0  0
    5.7566    0.7758   -0.4655 C   0  0  0  0  0  0  0  0  0  0  0  0
    7.1094    0.8571   -0.5692 F   0  0  0  0  0  0  0  0  0  0  0  0
    5.1731   -0.3256    0.1157 C   0  0  0  0  0  0  0  0  0  0  0  0
    6.1784   -1.6191    0.7197 Cl  0  0  0  0  0  0  0  0  0  0  0  0
    3.7788   -0.4115    0.2237 C   0  0  0  0  0  0  0  0  0  0  0  0
   -0.6037   -0.5793    0.0245 C   0  0  0  0  0  0  0  0  0  0  0  0
   -1.2694    0.6139    0.2069 C   0  0  0  0  0  0  0  0  0  0  0  0
   -2.6534    0.6780    0.3566 C   0  0  0  0  0  0  0  0  0  0  0  0
   -3.2978    1.8786    0.5374 O   0  0  0  0  0  0  0  0  0  0  0  0
   -2.6705    3.1254    0.5909 C   0  0  0  0  0  0  0  0  0  0  0  0
   -6.5173   -1.4793    0.8872 H   0  0  0  0  0  0  0  0  0  0  0  0
   -5.0139   -2.3832    1.1211 H   0  0  0  0  0  0  0  0  0  0  0  0
   -5.6566   -2.0459   -0.5775 H   0  0  0  0  0  0  0  0  0  0  0  0
   -3.2659   -2.6428    0.1051 H   0  0  0  0  0  0  0  0  0  0  0  0
    1.1216   -3.9471   -0.4700 H   0  0  0  0  0  0  0  0  0  0  0  0
    1.1024    1.5078   -0.0377 H   0  0  0  0  0  0  0  0  0  0  0  0
    2.8960    2.4660   -1.1841 H   0  0  0  0  0  0  0  0  0  0  0  0
    5.3551    2.6376   -1.3832 H   0  0  0  0  0  0  0  0  0  0  0  0
    3.4172   -1.3178    0.7205 H   0  0  0  0  0  0  0  0  0  0  0  0
   -0.7451    1.5561    0.2431 H   0  0  0  0  0  0  0  0  0  0  0  0
   -1.7051    3.0911    1.1747 H   0  0  0  0  0  0  0  0  0  0  0  0
   -2.4870    3.5617   -0.4152 H   0  0  0  0  0  0  0  0  0  0  0  0
   -3.2829    3.8870    1.1466 H   0  0  0  0  0  0  0  0  0  0  0  0
  1  2  1  0
  2  3  1  0
  3  4  2  0
  4  5  1  0
  5  6  2  0
  6  7  1  0
  7  8  2  0
  8  9  1  0
  9 10  1  0
 10 11  1  0
 11 12  2  0
 12 13  1  0
 13 14  2  0
 14 15  1  0
 14 16  1  0
 16 17  1  0
 16 18  2  0
  9 19  2  0
 19 20  1  0
 20 21  2  0
 21 22  1  0
 22 23  1  0
 21  3  1  0
 19  5  1  0
 18 11  1  0
  1 24  1  0
  1 25  1  0
  1 26  1  0
  4 27  1  0
  7 28  1  0
 10 29  1  0
 12 30  1  0
 13 31  1  0
 18 32  1  0
 20 33  1  0
 23 34  1  0
 23 35  1  0
 23 36  1  0
M  END
$$$$
