[H]c1nc(N([H])c2c([H])c(OC([H])([H])[H])c([H])c(C(F)(F)F)c2[H])c([H])c(C(=O)N2C([H])([H])C([H])([H])C([H])([H])[C@]([H])(N3C([H])([H])C([H])([H])C([H])([H])[C@@]3([H])C([H])([H])[H])C2([H])[H])c1[H]
     RDKit          3D

 62 65  0  0  0  0  0  0  0  0999 V2000
    7.9893    2.9028   -0.7594 C   0  0  0  0  0  0  0  0  0  0  0  0
    8.2369    1.5691   -0.4026 O   0  0  0  0  0  0  0  0  0  0  0  0
    7.3561    0.5353   -0.4266 C   0  0  0  0  0  0  0  0  0  0  0  0
    6.0355    0.6768   -0.8262 C   0  0  0  0  0  0  0  0  0  0  0  0
    5.2190   -0.4140   -0.8238 C   0  0  0  0  0  0  0  0  0  0  0  0
    3.8484   -0.3593   -1.1582 N   0  0  0  0  0  0  0  0  0  0  0  0
    2.8581    0.1763   -0.2833 C   0  0  0  0  0  0  0  0  0  0  0  0
    1.5271    0.0052   -0.5362 C   0  0  0  0  0  0  0  0  0  0  0  0
    0.5144    0.4594    0.3508 C   0  0  0  0  0  0  0  0  0  0  0  0
    0.9967    1.0809    1.4523 C   0  0  0  0  0  0  0  0  0  0  0  0
    2.3642    1.2671    1.7223 C   0  0  0  0  0  0  0  0  0  0  0  0
    3.2488    0.7949    0.8257 N   0  0  0  0  0  0  0  0  0  0  0  0
   -0.8455    0.2125   -0.0247 C   0  0  0  0  0  0  0  0  0  0  0  0
   -1.0868    0.2267   -1.3101 O   0  0  0  0  0  0  0  0  0  0  0  0
   -1.9881   -0.0713    0.7511 N   0  0  0  0  0  0  0  0  0  0  0  0
   -2.0034   -0.2027    2.1695 C   0  0  0  0  0  0  0  0  0  0  0  0
   -3.3194   -0.2141    2.8653 C   0  0  0  0  0  0  0  0  0  0  0  0
   -4.4444   -0.7806    2.0049 C   0  0  0  0  0  0  0  0  0  0  0  0
   -4.4053    0.1094    0.7623 C   0  0  1  0  0  0  0  0  0  0  0  0
   -3.2195   -0.3404   -0.0019 C   0  0  0  0  0  0  0  0  0  0  0  0
   -5.6229    0.0276   -0.0159 N   0  0  0  0  0  0  0  0  0  0  0  0
   -5.9078   -1.2228   -0.6218 C   0  0  0  0  0  0  0  0  0  0  0  0
   -6.4384   -0.8820   -2.0190 C   0  0  0  0  0  0  0  0  0  0  0  0
   -5.7837    0.4315   -2.3321 C   0  0  0  0  0  0  0  0  0  0  0  0
   -5.7539    1.0861   -0.9761 C   0  0  1  0  0  0  0  0  0  0  0  0
   -7.1077    1.7712   -0.7760 C   0  0  0  0  0  0  0  0  0  0  0  0
    5.6726   -1.6825   -0.4252 C   0  0  0  0  0  0  0  0  0  0  0  0
    6.9768   -1.8335   -0.0273 C   0  0  0  0  0  0  0  0  0  0  0  0
    7.7960   -0.7342   -0.0352 C   0  0  0  0  0  0  0  0  0  0  0  0
    7.4455   -3.1855    0.4038 C   0  0  0  0  0  0  0  0  0  0  0  0
    7.6093   -3.9683   -0.7433 F   0  0  0  0  0  0  0  0  0  0  0  0
    6.3354   -3.7620    1.0522 F   0  0  0  0  0  0  0  0  0  0  0  0
    8.5144   -3.1632    1.2283 F   0  0  0  0  0  0  0  0  0  0  0  0
    7.8329    3.5857    0.1199 H   0  0  0  0  0  0  0  0  0  0  0  0
    7.0839    3.0009   -1.4161 H   0  0  0  0  0  0  0  0  0  0  0  0
    8.8104    3.3153   -1.3914 H   0  0  0  0  0  0  0  0  0  0  0  0
    5.6597    1.6389   -1.1444 H   0  0  0  0  0  0  0  0  0  0  0  0
    3.6047   -0.7468   -2.0916 H   0  0  0  0  0  0  0  0  0  0  0  0
    1.2219   -0.4699   -1.4322 H   0  0  0  0  0  0  0  0  0  0  0  0
    0.3382    1.5159    2.1673 H   0  0  0  0  0  0  0  0  0  0  0  0
    2.6579    1.8015    2.6350 H   0  0  0  0  0  0  0  0  0  0  0  0
   -1.3443    0.4639    2.7512 H   0  0  0  0  0  0  0  0  0  0  0  0
   -1.5954   -1.2792    2.3598 H   0  0  0  0  0  0  0  0  0  0  0  0
   -3.6265    0.8012    3.2393 H   0  0  0  0  0  0  0  0  0  0  0  0
   -3.2662   -0.8775    3.7468 H   0  0  0  0  0  0  0  0  0  0  0  0
   -4.1932   -1.8103    1.7540 H   0  0  0  0  0  0  0  0  0  0  0  0
   -5.4007   -0.6264    2.5025 H   0  0  0  0  0  0  0  0  0  0  0  0
   -4.2790    1.1378    1.1177 H   0  0  0  0  0  0  0  0  0  0  0  0
   -3.1774   -1.4599   -0.1502 H   0  0  0  0  0  0  0  0  0  0  0  0
   -3.1482    0.1504   -1.0045 H   0  0  0  0  0  0  0  0  0  0  0  0
   -5.0146   -1.8664   -0.7963 H   0  0  0  0  0  0  0  0  0  0  0  0
   -6.6088   -1.8781   -0.0532 H   0  0  0  0  0  0  0  0  0  0  0  0
   -7.5467   -0.8046   -2.0163 H   0  0  0  0  0  0  0  0  0  0  0  0
   -6.0682   -1.6195   -2.7436 H   0  0  0  0  0  0  0  0  0  0  0  0
   -6.3977    1.0234   -3.0501 H   0  0  0  0  0  0  0  0  0  0  0  0
   -4.7772    0.2915   -2.7540 H   0  0  0  0  0  0  0  0  0  0  0  0
   -4.9315    1.8431   -0.9512 H   0  0  0  0  0  0  0  0  0  0  0  0
   -7.1860    2.2302    0.2468 H   0  0  0  0  0  0  0  0  0  0  0  0
   -7.8498    0.9535   -0.9168 H   0  0  0  0  0  0  0  0  0  0  0  0
   -7.2132    2.5003   -1.5996 H   0  0  0  0  0  0  0  0  0  0  0  0
    4.9549   -2.5006   -0.4444 H   0  0  0  0  0  0  0  0  0  0  0  0
    8.8427   -0.8305    0.2522 H   0  0  0  0  0  0  0  0  0  0  0  0
  1  2  1  0
  2  3  1  0
  3  4  2  0
  4  5  1  0
  5  6  1  0
  6  7  1  0
  7  8  2  0
  8  9  1  0
  9 10  2  0
 10 11  1  0
 11 12  2  0
  9 13  1  0
 13 14  2  0
 13 15  1  0
 15 16  1  0
 16 17  1  0
 17 18  1  0
 18 19  1  0
 19 20  1  0
 19 21  1  0
 21 22  1  0
 22 23  1  0
 23 24  1  0
 24 25  1  0
 25 26  1  0
  5 27  2  0
 27 28  1  0
 28 29  2  0
 28 30  1  0
 30 31  1  0
 30 32  1  0
 30 33  1  0
 29  3  1  0
 12  7  1  0
 20 15  1  0
 25 21  1  0
  1 34  1  0
  1 35  1  0
  1 36  1  0
  4 37  1  0
  6 38  1  0
  8 39  1  0
 10 40  1  0
 11 41  1  0
 16 42  1  0
 16 43  1  0
 17 44  1  0
 17 45  1  0
 18 46  1  0
 18 47  1  0
 19 48  1  1
 20 49  1  0
 20 50  1  0
 22 51  1  0
 22 52  1  0
 23 53  1  0
 23 54  1  0
 24 55  1  0
 24 56  1  0
 25 57  1  6
 26 58  1  0
 26 59  1  0
 26 60  1  0
 27 61  1  0
 29 62  1  0
M  END
$$$$
[H]c1nc(N([H])c2c([H])nc(C(=O)N3C([H])([H])C([H])([H])C([H])(N([H])[H])C([H])([H])C3([H])[H])c([H])c2[H])nc(-c2c([H])c([H])c3c(c2[H])OC([H])([H])O3)c1[H]
     RDKit          3D

 53 57  0  0  0  0  0  0  0  0999 V2000
   -8.7139   -1.6605    0.8357 N   0  0  0  0  0  0  0  0  0  0  0  0
   -7.7487   -0.7706    0.2081 C   0  0  0  0  0  0  0  0  0  0  0  0
   -6.5051   -1.5072   -0.1671 C   0  0  0  0  0  0  0  0  0  0  0  0
   -5.2693   -0.7087   -0.1548 C   0  0  0  0  0  0  0  0  0  0  0  0
   -5.3331    0.6988    0.0017 N   0  0  0  0  0  0  0  0  0  0  0  0
   -6.6370    1.3584    0.1882 C   0  0  0  0  0  0  0  0  0  0  0  0
   -7.3905    0.3834    1.1143 C   0  0  0  0  0  0  0  0  0  0  0  0
   -4.2057    1.5355    0.0050 C   0  0  0  0  0  0  0  0  0  0  0  0
   -4.4180    2.7880    0.1471 O   0  0  0  0  0  0  0  0  0  0  0  0
   -2.8241    1.1342   -0.1345 C   0  0  0  0  0  0  0  0  0  0  0  0
   -1.8212    2.0863   -0.1090 C   0  0  0  0  0  0  0  0  0  0  0  0
   -0.4829    1.7168   -0.2388 C   0  0  0  0  0  0  0  0  0  0  0  0
   -0.1695    0.3973   -0.3918 C   0  0  0  0  0  0  0  0  0  0  0  0
    1.1250   -0.0863   -0.4986 N   0  0  0  0  0  0  0  0  0  0  0  0
    2.2890    0.5328   -0.0236 C   0  0  0  0  0  0  0  0  0  0  0  0
    2.3528    1.6957    0.6299 N   0  0  0  0  0  0  0  0  0  0  0  0
    3.4737    2.2669    1.0763 C   0  0  0  0  0  0  0  0  0  0  0  0
    4.6636    1.5785    0.8307 C   0  0  0  0  0  0  0  0  0  0  0  0
    4.6623    0.3741    0.1613 C   0  0  0  0  0  0  0  0  0  0  0  0
    3.4754   -0.1167   -0.2481 N   0  0  0  0  0  0  0  0  0  0  0  0
    5.9022   -0.3466   -0.0981 C   0  0  0  0  0  0  0  0  0  0  0  0
    5.8685   -1.5450   -0.7793 C   0  0  0  0  0  0  0  0  0  0  0  0
    7.0426   -2.2364   -1.0288 C   0  0  0  0  0  0  0  0  0  0  0  0
    8.2566   -1.7481   -0.6068 C   0  0  0  0  0  0  0  0  0  0  0  0
    9.5816   -2.1951   -0.7001 O   0  0  0  0  0  0  0  0  0  0  0  0
   10.4614   -1.1336   -0.3624 C   0  0  0  0  0  0  0  0  0  0  0  0
    9.6243   -0.2549    0.4017 O   0  0  0  0  0  0  0  0  0  0  0  0
    8.3017   -0.5639    0.0678 C   0  0  0  0  0  0  0  0  0  0  0  0
    7.1196    0.1180    0.3110 C   0  0  0  0  0  0  0  0  0  0  0  0
   -1.2106   -0.5364   -0.4134 C   0  0  0  0  0  0  0  0  0  0  0  0
   -2.4774   -0.1496   -0.2871 N   0  0  0  0  0  0  0  0  0  0  0  0
   -9.0950   -1.1838    1.6772 H   0  0  0  0  0  0  0  0  0  0  0  0
   -9.4409   -1.9041    0.1268 H   0  0  0  0  0  0  0  0  0  0  0  0
   -8.1809   -0.3691   -0.7527 H   0  0  0  0  0  0  0  0  0  0  0  0
   -6.4580   -2.3859    0.5653 H   0  0  0  0  0  0  0  0  0  0  0  0
   -6.6507   -1.9545   -1.1902 H   0  0  0  0  0  0  0  0  0  0  0  0
   -4.6094   -1.1507    0.6650 H   0  0  0  0  0  0  0  0  0  0  0  0
   -4.6918   -0.9866   -1.0893 H   0  0  0  0  0  0  0  0  0  0  0  0
   -7.1803    1.3880   -0.7699 H   0  0  0  0  0  0  0  0  0  0  0  0
   -6.5387    2.3264    0.6758 H   0  0  0  0  0  0  0  0  0  0  0  0
   -8.2633    0.8676    1.5639 H   0  0  0  0  0  0  0  0  0  0  0  0
   -6.6591    0.0734    1.8856 H   0  0  0  0  0  0  0  0  0  0  0  0
   -2.0502    3.1229    0.0103 H   0  0  0  0  0  0  0  0  0  0  0  0
    0.2606    2.4856   -0.2309 H   0  0  0  0  0  0  0  0  0  0  0  0
    1.2444   -1.0243   -0.9989 H   0  0  0  0  0  0  0  0  0  0  0  0
    3.4754    3.2284    1.6109 H   0  0  0  0  0  0  0  0  0  0  0  0
    5.5656    2.0599    1.2020 H   0  0  0  0  0  0  0  0  0  0  0  0
    4.9227   -1.9448   -1.1189 H   0  0  0  0  0  0  0  0  0  0  0  0
    7.0159   -3.1736   -1.5619 H   0  0  0  0  0  0  0  0  0  0  0  0
   10.7964   -0.5920   -1.2563 H   0  0  0  0  0  0  0  0  0  0  0  0
   11.2993   -1.4451    0.2661 H   0  0  0  0  0  0  0  0  0  0  0  0
    7.2159    1.0402    0.8437 H   0  0  0  0  0  0  0  0  0  0  0  0
   -0.9709   -1.5827   -0.5342 H   0  0  0  0  0  0  0  0  0  0  0  0
  1  2  1  0
  2  3  1  0
  3  4  1  0
  4  5  1  0
  5  6  1  0
  6  7  1  0
  5  8  1  0
  8  9  2  0
  8 10  1  0
 10 11  2  0
 11 12  1  0
 12 13  2  0
 13 14  1  0
 14 15  1  0
 15 16  2  0
 16 17  1  0
 17 18  2  0
 18 19  1  0
 19 20  2  0
 19 21  1  0
 21 22  2  0
 22 23  1  0
 23 24  2  0
 24 25  1  0
 25 26  1  0
 26 27  1  0
 27 28  1  0
 28 29  2  0
 13 30  1  0
 30 31  2  0
  7  2  1  0
 31 10  1  0
 20 15  1  0
 29 21  1  0
 28 24  1  0
  1 32  1  0
  1 33  1  0
  2 34  1  0
  3 35  1  0
  3 36  1  0
  4 37  1  0
  4 38  1  0
  6 39  1  0
  6 40  1  0
  7 41  1  0
  7 42  1  0
 11 43  1  0
 12 44  1  0
 14 45  1  0
 17 46  1  0
 18 47  1  0
 22 48  1  0
 23 49  1  0
 26 50  1  0
 26 51  1  0
 29 52  1  0
 30 53  1  0
M  END
$$$$
[H]c1nn2c(C([H])([H])[H])c([H])c(C([H])([H])[H])c(N([H])c3c([H])c([H])c(C4([H])C([H])([H])C([H])([H])N([H])C([H])([H])C4([H])[H])c([H])c3[H])c2c1N1C([H])([H])C([H])([H])C2([H])N([H])C1([H])C([H])([H])C2([H])[H]
     RDKit          3D

 66 71  0  0  0  0  0  0  0  0999 V2000
    0.1658   -3.9353   -0.7136 C   0  0  0  0  0  0  0  0  0  0  0  0
   -1.1416   -3.5159   -0.1551 C   0  0  0  0  0  0  0  0  0  0  0  0
   -1.9526   -4.4162    0.5318 C   0  0  0  0  0  0  0  0  0  0  0  0
   -3.1513   -3.9826    1.0282 C   0  0  0  0  0  0  0  0  0  0  0  0
   -4.0261   -4.9176    1.7596 C   0  0  0  0  0  0  0  0  0  0  0  0
   -3.5322   -2.7016    0.8487 N   0  0  0  0  0  0  0  0  0  0  0  0
   -4.6563   -2.0857    1.2179 N   0  0  0  0  0  0  0  0  0  0  0  0
   -4.6432   -0.8311    0.8177 C   0  0  0  0  0  0  0  0  0  0  0  0
   -3.4094   -0.6100    0.1321 C   0  0  0  0  0  0  0  0  0  0  0  0
   -3.0775    0.6339   -0.4125 N   0  0  0  0  0  0  0  0  0  0  0  0
   -2.2466    1.6021    0.2269 C   0  0  0  0  0  0  0  0  0  0  0  0
   -1.3955    2.3537   -0.7644 C   0  0  0  0  0  0  0  0  0  0  0  0
   -2.2142    3.5610   -1.1260 C   0  0  0  0  0  0  0  0  0  0  0  0
   -3.5930    3.2613   -0.5217 C   0  0  0  0  0  0  0  0  0  0  0  0
   -3.2156    2.6335    0.7043 N   0  0  0  0  0  0  0  0  0  0  0  0
   -4.3109    2.4078   -1.5142 C   0  0  0  0  0  0  0  0  0  0  0  0
   -3.6574    1.0344   -1.6902 C   0  0  0  0  0  0  0  0  0  0  0  0
   -2.7417   -1.8077    0.1748 C   0  0  0  0  0  0  0  0  0  0  0  0
   -1.5312   -2.2039   -0.3374 C   0  0  0  0  0  0  0  0  0  0  0  0
   -0.6657   -1.3834   -1.0591 N   0  0  0  0  0  0  0  0  0  0  0  0
    0.5573   -0.8694   -0.5386 C   0  0  0  0  0  0  0  0  0  0  0  0
    1.3987   -0.2049   -1.3942 C   0  0  0  0  0  0  0  0  0  0  0  0
    2.6188    0.3341   -0.9748 C   0  0  0  0  0  0  0  0  0  0  0  0
    3.0002    0.2003    0.3385 C   0  0  0  0  0  0  0  0  0  0  0  0
    2.1524   -0.4663    1.1892 C   0  0  0  0  0  0  0  0  0  0  0  0
    0.9487   -0.9976    0.7739 C   0  0  0  0  0  0  0  0  0  0  0  0
    4.2894    0.7675    0.7907 C   0  0  0  0  0  0  0  0  0  0  0  0
    4.3061    2.2855    0.5773 C   0  0  0  0  0  0  0  0  0  0  0  0
    5.4647    2.8670    1.3297 C   0  0  0  0  0  0  0  0  0  0  0  0
    6.5084    1.8952    1.4792 N   0  0  0  0  0  0  0  0  0  0  0  0
    6.6764    1.0549    0.3121 C   0  0  0  0  0  0  0  0  0  0  0  0
    5.4681    0.2190    0.0070 C   0  0  0  0  0  0  0  0  0  0  0  0
    0.9454   -4.0679    0.0749 H   0  0  0  0  0  0  0  0  0  0  0  0
    0.4865   -3.3398   -1.5653 H   0  0  0  0  0  0  0  0  0  0  0  0
    0.0005   -4.9804   -1.1117 H   0  0  0  0  0  0  0  0  0  0  0  0
   -1.5942   -5.4452    0.6478 H   0  0  0  0  0  0  0  0  0  0  0  0
   -3.5596   -5.9052    1.8535 H   0  0  0  0  0  0  0  0  0  0  0  0
   -5.0059   -5.0571    1.2721 H   0  0  0  0  0  0  0  0  0  0  0  0
   -4.1823   -4.5144    2.7806 H   0  0  0  0  0  0  0  0  0  0  0  0
   -5.3953   -0.0788    0.9572 H   0  0  0  0  0  0  0  0  0  0  0  0
   -1.7055    1.2493    1.1058 H   0  0  0  0  0  0  0  0  0  0  0  0
   -0.4389    2.6718   -0.2877 H   0  0  0  0  0  0  0  0  0  0  0  0
   -1.1495    1.7374   -1.6385 H   0  0  0  0  0  0  0  0  0  0  0  0
   -1.7978    4.4957   -0.6951 H   0  0  0  0  0  0  0  0  0  0  0  0
   -2.3680    3.6694   -2.2173 H   0  0  0  0  0  0  0  0  0  0  0  0
   -4.1705    4.1861   -0.3804 H   0  0  0  0  0  0  0  0  0  0  0  0
   -2.7300    3.3195    1.2882 H   0  0  0  0  0  0  0  0  0  0  0  0
   -5.3635    2.3058   -1.2167 H   0  0  0  0  0  0  0  0  0  0  0  0
   -4.2954    2.9378   -2.4883 H   0  0  0  0  0  0  0  0  0  0  0  0
   -2.8766    1.0937   -2.4526 H   0  0  0  0  0  0  0  0  0  0  0  0
   -4.4647    0.3519   -2.0165 H   0  0  0  0  0  0  0  0  0  0  0  0
   -0.9199   -1.1257   -2.0348 H   0  0  0  0  0  0  0  0  0  0  0  0
    1.1454   -0.0722   -2.4378 H   0  0  0  0  0  0  0  0  0  0  0  0
    3.2558    0.8457   -1.6562 H   0  0  0  0  0  0  0  0  0  0  0  0
    2.4873   -0.5545    2.2278 H   0  0  0  0  0  0  0  0  0  0  0  0
    0.3064   -1.5139    1.4625 H   0  0  0  0  0  0  0  0  0  0  0  0
    4.4914    0.6048    1.8479 H   0  0  0  0  0  0  0  0  0  0  0  0
    3.3246    2.6428    0.9625 H   0  0  0  0  0  0  0  0  0  0  0  0
    4.3575    2.4349   -0.5145 H   0  0  0  0  0  0  0  0  0  0  0  0
    5.0929    3.1828    2.3334 H   0  0  0  0  0  0  0  0  0  0  0  0
    5.8036    3.7886    0.7826 H   0  0  0  0  0  0  0  0  0  0  0  0
    6.4834    1.3699    2.3646 H   0  0  0  0  0  0  0  0  0  0  0  0
    6.9757    1.7097   -0.5394 H   0  0  0  0  0  0  0  0  0  0  0  0
    7.5829    0.4191    0.5203 H   0  0  0  0  0  0  0  0  0  0  0  0
    5.6340   -0.8651    0.2618 H   0  0  0  0  0  0  0  0  0  0  0  0
    5.2513    0.3216   -1.0814 H   0  0  0  0  0  0  0  0  0  0  0  0
  1  2  1  0
  2  3  1  0
  3  4  2  0
  4  5  1  0
  4  6  1  0
  6  7  1  0
  7  8  2  0
  8  9  1  0
  9 10  1  0
 10 11  1  0
 11 12  1  0
 12 13  1  0
 13 14  1  0
 14 15  1  0
 14 16  1  0
 16 17  1  0
  9 18  2  0
 18 19  1  0
 19 20  1  0
 20 21  1  0
 21 22  2  0
 22 23  1  0
 23 24  2  0
 24 25  1  0
 25 26  2  0
 24 27  1  0
 27 28  1  0
 28 29  1  0
 29 30  1  0
 30 31  1  0
 31 32  1  0
 19  2  2  0
 26 21  1  0
 32 27  1  0
 18  6  1  0
 17 10  1  0
 15 11  1  0
  1 33  1  0
  1 34  1  0
  1 35  1  0
  3 36  1  0
  5 37  1  0
  5 38  1  0
  5 39  1  0
  8 40  1  0
 11 41  1  0
 12 42  1  0
 12 43  1  0
 13 44  1  0
 13 45  1  0
 14 46  1  0
 15 47  1  0
 16 48  1  0
 16 49  1  0
 17 50  1  0
 17 51  1  0
 20 52  1  0
 22 53  1  0
 23 54  1  0
 25 55  1  0
 26 56  1  0
 27 57  1  0
 28 58  1  0
 28 59  1  0
 29 60  1  0
 29 61  1  0
 30 62  1  0
 31 63  1  0
 31 64  1  0
 32 65  1  0
 32 66  1  0
M  END
$$$$
[H]c1nc(N([H])c2c([H])c([H])c3nc([H])c(C([H])([H])C(=O)N4C([H])([H])C([H])([H])[C@@]([H])(C(F)(F)F)C4([H])[H])c(C#N)c3c2[H])nc(-c2c([H])c([H])c(=O)n(C([H])([H])[H])c2[H])c1C([H])([H])[H]
     RDKit          3D

 64 68  0  0  0  0  0  0  0  0999 V2000
   -6.3514    3.2880    0.3549 C   0  0  0  0  0  0  0  0  0  0  0  0
   -5.3067    2.2277    0.2728 C   0  0  0  0  0  0  0  0  0  0  0  0
   -3.9958    2.4859    0.6431 C   0  0  0  0  0  0  0  0  0  0  0  0
   -3.0442    1.5497    0.5939 N   0  0  0  0  0  0  0  0  0  0  0  0
   -3.2941    0.2969    0.1815 C   0  0  0  0  0  0  0  0  0  0  0  0
   -2.3111   -0.7292    0.1413 N   0  0  0  0  0  0  0  0  0  0  0  0
   -0.9772   -0.5757    0.5775 C   0  0  0  0  0  0  0  0  0  0  0  0
   -0.6362    0.1755    1.6851 C   0  0  0  0  0  0  0  0  0  0  0  0
    0.6720    0.3438    2.0967 C   0  0  0  0  0  0  0  0  0  0  0  0
    1.7199   -0.2468    1.4004 C   0  0  0  0  0  0  0  0  0  0  0  0
    2.9936   -0.0779    1.7973 N   0  0  0  0  0  0  0  0  0  0  0  0
    4.0361   -0.6217    1.1514 C   0  0  0  0  0  0  0  0  0  0  0  0
    3.7750   -1.3831    0.0365 C   0  0  0  0  0  0  0  0  0  0  0  0
    4.9041   -1.9715   -0.7316 C   0  0  0  0  0  0  0  0  0  0  0  0
    6.1294   -1.8421    0.0787 C   0  0  0  0  0  0  0  0  0  0  0  0
    6.2236   -2.5217    1.1435 O   0  0  0  0  0  0  0  0  0  0  0  0
    7.2079   -0.9942   -0.2727 N   0  0  0  0  0  0  0  0  0  0  0  0
    7.2492   -0.1637   -1.4619 C   0  0  0  0  0  0  0  0  0  0  0  0
    8.3816    0.7929   -1.2409 C   0  0  0  0  0  0  0  0  0  0  0  0
    8.9067    0.5212    0.1479 C   0  0  2  0  0  0  0  0  0  0  0  0
    8.4100   -0.8315    0.4967 C   0  0  0  0  0  0  0  0  0  0  0  0
    8.4060    1.5694    1.1012 C   0  0  0  0  0  0  0  0  0  0  0  0
    7.0373    1.5846    1.1457 F   0  0  0  0  0  0  0  0  0  0  0  0
    8.8636    2.8025    0.6460 F   0  0  0  0  0  0  0  0  0  0  0  0
    8.9006    1.3378    2.3718 F   0  0  0  0  0  0  0  0  0  0  0  0
    2.4650   -1.5783   -0.4000 C   0  0  0  0  0  0  0  0  0  0  0  0
    1.4003   -0.9992    0.2941 C   0  0  0  0  0  0  0  0  0  0  0  0
    0.0896   -1.1617   -0.1089 C   0  0  0  0  0  0  0  0  0  0  0  0
    2.1440   -2.3572   -1.5459 C   0  0  0  0  0  0  0  0  0  0  0  0
    1.8772   -2.9949   -2.4636 N   0  0  0  0  0  0  0  0  0  0  0  0
   -4.5763    0.0482   -0.1802 N   0  0  0  0  0  0  0  0  0  0  0  0
   -5.5709    0.9424   -0.1513 C   0  0  0  0  0  0  0  0  0  0  0  0
   -6.9408    0.5619   -0.5167 C   0  0  0  0  0  0  0  0  0  0  0  0
   -7.6584    1.2653   -1.4344 C   0  0  0  0  0  0  0  0  0  0  0  0
   -8.9609    0.8874   -1.7135 C   0  0  0  0  0  0  0  0  0  0  0  0
   -9.4813   -0.1998   -1.0400 C   0  0  0  0  0  0  0  0  0  0  0  0
  -10.6706   -0.5379   -1.3002 O   0  0  0  0  0  0  0  0  0  0  0  0
   -8.7867   -0.9060   -0.1301 N   0  0  0  0  0  0  0  0  0  0  0  0
   -9.4260   -2.0284    0.5294 C   0  0  0  0  0  0  0  0  0  0  0  0
   -7.5321   -0.5144    0.1148 C   0  0  0  0  0  0  0  0  0  0  0  0
   -6.0529    3.9454    1.2175 H   0  0  0  0  0  0  0  0  0  0  0  0
   -6.4857    3.8631   -0.5647 H   0  0  0  0  0  0  0  0  0  0  0  0
   -7.3045    2.8060    0.6809 H   0  0  0  0  0  0  0  0  0  0  0  0
   -3.7669    3.4762    0.9725 H   0  0  0  0  0  0  0  0  0  0  0  0
   -2.6013   -1.6529   -0.2362 H   0  0  0  0  0  0  0  0  0  0  0  0
   -1.4395    0.6337    2.2546 H   0  0  0  0  0  0  0  0  0  0  0  0
    0.9173    0.9309    2.9611 H   0  0  0  0  0  0  0  0  0  0  0  0
    5.0573   -0.4557    1.5148 H   0  0  0  0  0  0  0  0  0  0  0  0
    4.6777   -3.0477   -0.8529 H   0  0  0  0  0  0  0  0  0  0  0  0
    4.9970   -1.5346   -1.7338 H   0  0  0  0  0  0  0  0  0  0  0  0
    6.2812    0.3804   -1.5515 H   0  0  0  0  0  0  0  0  0  0  0  0
    7.4056   -0.7621   -2.3847 H   0  0  0  0  0  0  0  0  0  0  0  0
    9.2335    0.6059   -1.9367 H   0  0  0  0  0  0  0  0  0  0  0  0
    7.9952    1.8276   -1.3000 H   0  0  0  0  0  0  0  0  0  0  0  0
   10.0222    0.5274    0.1726 H   0  0  0  0  0  0  0  0  0  0  0  0
    9.1476   -1.6426    0.2205 H   0  0  0  0  0  0  0  0  0  0  0  0
    8.1636   -0.9616    1.5679 H   0  0  0  0  0  0  0  0  0  0  0  0
   -0.1228   -1.7719   -1.0002 H   0  0  0  0  0  0  0  0  0  0  0  0
   -7.2416    2.1071   -1.9592 H   0  0  0  0  0  0  0  0  0  0  0  0
   -9.5883    1.4023   -2.4302 H   0  0  0  0  0  0  0  0  0  0  0  0
   -8.6101   -2.7690    0.7837 H   0  0  0  0  0  0  0  0  0  0  0  0
   -9.8500   -1.7361    1.5154 H   0  0  0  0  0  0  0  0  0  0  0  0
  -10.1545   -2.5596   -0.1042 H   0  0  0  0  0  0  0  0  0  0  0  0
   -6.9523   -1.0564    0.8356 H   0  0  0  0  0  0  0  0  0  0  0  0
  1  2  1  0
  2  3  2  0
  3  4  1  0
  4  5  2  0
  5  6  1  0
  6  7  1  0
  7  8  2  0
  8  9  1  0
  9 10  2  0
 10 11  1  0
 11 12  2  0
 12 13  1  0
 13 14  1  0
 14 15  1  0
 15 16  2  0
 15 17  1  0
 17 18  1  0
 18 19  1  0
 19 20  1  0
 20 21  1  0
 20 22  1  0
 22 23  1  0
 22 24  1  0
 22 25  1  0
 13 26  2  0
 26 27  1  0
 27 28  2  0
 26 29  1  0
 29 30  3  0
  5 31  1  0
 31 32  2  0
 32 33  1  0
 33 34  1  0
 34 35  2  0
 35 36  1  0
 36 37  2  0
 36 38  1  0
 38 39  1  0
 38 40  1  0
 32  2  1  0
 40 33  2  0
 28  7  1  0
 27 10  1  0
 21 17  1  0
  1 41  1  0
  1 42  1  0
  1 43  1  0
  3 44  1  0
  6 45  1  0
  8 46  1  0
  9 47  1  0
 12 48  1  0
 14 49  1  0
 14 50  1  0
 18 51  1  0
 18 52  1  0
 19 53  1  0
 19 54  1  0
 20 55  1  6
 21 56  1  0
 21 57  1  0
 28 58  1  0
 34 59  1  0
 35 60  1  0
 39 61  1  0
 39 62  1  0
 39 63  1  0
 40 64  1  0
M  END
$$$$
[H]c1nc2c(c([H])c1C(=O)N([H])c1c([H])c(C(=O)N([H])C([H])([H])c3sc(C([H])([H])N4C([H])([H])C([H])([H])OC([H])([H])C4([H])[H])c([H])c3[H])c([H])c([H])c1OC([H])([H])[H])c(-c1c([H])c([H])c([H])c(C(F)(F)F)c1[H])c([H])n2[H]
     RDKit          3D

 76 81  0  0  0  0  0  0  0  0999 V2000
   -1.4181   -5.0487   -3.1551 C   0  0  0  0  0  0  0  0  0  0  0  0
   -1.7749   -4.1114   -2.1680 O   0  0  0  0  0  0  0  0  0  0  0  0
   -0.8633   -3.2255   -1.6285 C   0  0  0  0  0  0  0  0  0  0  0  0
    0.4464   -3.2060   -2.0282 C   0  0  0  0  0  0  0  0  0  0  0  0
    1.3612   -2.3122   -1.4766 C   0  0  0  0  0  0  0  0  0  0  0  0
    0.9298   -1.4289   -0.5069 C   0  0  0  0  0  0  0  0  0  0  0  0
   -0.3746   -1.4481   -0.1125 C   0  0  0  0  0  0  0  0  0  0  0  0
   -1.3116   -2.3263   -0.6400 C   0  0  0  0  0  0  0  0  0  0  0  0
   -2.6505   -2.4186   -0.2334 N   0  0  0  0  0  0  0  0  0  0  0  0
   -3.3829   -1.6002    0.6202 C   0  0  0  0  0  0  0  0  0  0  0  0
   -2.8815   -0.5864    1.1574 O   0  0  0  0  0  0  0  0  0  0  0  0
   -4.7976   -1.8741    0.9476 C   0  0  0  0  0  0  0  0  0  0  0  0
   -5.1888   -3.1126    1.4127 C   0  0  0  0  0  0  0  0  0  0  0  0
   -6.4615   -3.3956    1.7141 N   0  0  0  0  0  0  0  0  0  0  0  0
   -7.4075   -2.4500    1.5641 C   0  0  0  0  0  0  0  0  0  0  0  0
   -8.7453   -2.4345    1.7776 N   0  0  0  0  0  0  0  0  0  0  0  0
   -9.2490   -1.2353    1.4695 C   0  0  0  0  0  0  0  0  0  0  0  0
   -8.2034   -0.4069    1.0288 C   0  0  0  0  0  0  0  0  0  0  0  0
   -8.3324    0.9661    0.5752 C   0  0  0  0  0  0  0  0  0  0  0  0
   -9.4182    1.2326   -0.2809 C   0  0  0  0  0  0  0  0  0  0  0  0
   -9.6822    2.4628   -0.7886 C   0  0  0  0  0  0  0  0  0  0  0  0
   -8.8598    3.4993   -0.4587 C   0  0  0  0  0  0  0  0  0  0  0  0
   -7.7747    3.2535    0.3908 C   0  0  0  0  0  0  0  0  0  0  0  0
   -7.5122    1.9934    0.9060 C   0  0  0  0  0  0  0  0  0  0  0  0
   -6.9339    4.4336    0.6893 C   0  0  0  0  0  0  0  0  0  0  0  0
   -7.7094    5.3691    1.3667 F   0  0  0  0  0  0  0  0  0  0  0  0
   -5.8051    4.1210    1.3847 F   0  0  0  0  0  0  0  0  0  0  0  0
   -6.5959    5.0151   -0.5440 F   0  0  0  0  0  0  0  0  0  0  0  0
   -7.0802   -1.1754    1.0968 C   0  0  0  0  0  0  0  0  0  0  0  0
   -5.7376   -0.9001    0.7867 C   0  0  0  0  0  0  0  0  0  0  0  0
    1.9002   -0.5221    0.1389 C   0  0  0  0  0  0  0  0  0  0  0  0
    1.6987    0.7042    0.0201 O   0  0  0  0  0  0  0  0  0  0  0  0
    2.9999   -1.0064    0.8615 N   0  0  0  0  0  0  0  0  0  0  0  0
    4.0195   -0.3231    1.5486 C   0  0  0  0  0  0  0  0  0  0  0  0
    4.9317    0.5310    0.7453 C   0  0  0  0  0  0  0  0  0  0  0  0
    4.9107    1.8851    0.5295 C   0  0  0  0  0  0  0  0  0  0  0  0
    5.8880    2.4203   -0.2112 C   0  0  0  0  0  0  0  0  0  0  0  0
    6.8437    1.5698   -0.7041 C   0  0  0  0  0  0  0  0  0  0  0  0
    8.0221    1.9661   -1.5284 C   0  0  0  0  0  0  0  0  0  0  0  0
    9.2725    1.8997   -0.8497 N   0  0  0  0  0  0  0  0  0  0  0  0
    9.6638    0.5716   -0.4128 C   0  0  0  0  0  0  0  0  0  0  0  0
   11.0160    0.7808    0.2927 C   0  0  0  0  0  0  0  0  0  0  0  0
   10.7307    1.3283    1.5428 O   0  0  0  0  0  0  0  0  0  0  0  0
    9.6158    2.1274    1.5643 C   0  0  0  0  0  0  0  0  0  0  0  0
    9.3740    2.8485    0.2491 C   0  0  0  0  0  0  0  0  0  0  0  0
    6.3493    0.0541   -0.1222 S   0  0  0  0  0  0  0  0  0  0  0  0
   -2.1516   -5.8800   -3.2421 H   0  0  0  0  0  0  0  0  0  0  0  0
   -1.2675   -4.5110   -4.0970 H   0  0  0  0  0  0  0  0  0  0  0  0
   -0.4307   -5.4919   -2.8585 H   0  0  0  0  0  0  0  0  0  0  0  0
    0.7982   -3.9023   -2.8011 H   0  0  0  0  0  0  0  0  0  0  0  0
    2.3908   -2.3059   -1.7974 H   0  0  0  0  0  0  0  0  0  0  0  0
   -0.6567   -0.7367    0.6494 H   0  0  0  0  0  0  0  0  0  0  0  0
   -3.2090   -3.2455   -0.6286 H   0  0  0  0  0  0  0  0  0  0  0  0
   -4.4059   -3.8444    1.5161 H   0  0  0  0  0  0  0  0  0  0  0  0
   -9.2543   -3.2699    2.1347 H   0  0  0  0  0  0  0  0  0  0  0  0
  -10.2672   -0.8861    1.5230 H   0  0  0  0  0  0  0  0  0  0  0  0
  -10.0730    0.4149   -0.5477 H   0  0  0  0  0  0  0  0  0  0  0  0
  -10.5484    2.6072   -1.4570 H   0  0  0  0  0  0  0  0  0  0  0  0
   -9.0822    4.4702   -0.8723 H   0  0  0  0  0  0  0  0  0  0  0  0
   -6.6788    1.8250    1.5597 H   0  0  0  0  0  0  0  0  0  0  0  0
   -5.4984    0.0881    0.4274 H   0  0  0  0  0  0  0  0  0  0  0  0
    3.0797   -2.0821    0.8882 H   0  0  0  0  0  0  0  0  0  0  0  0
    3.5569    0.3868    2.3016 H   0  0  0  0  0  0  0  0  0  0  0  0
    4.6603   -0.9840    2.1840 H   0  0  0  0  0  0  0  0  0  0  0  0
    4.0772    2.4749    0.9832 H   0  0  0  0  0  0  0  0  0  0  0  0
    5.9246    3.5195   -0.4175 H   0  0  0  0  0  0  0  0  0  0  0  0
    8.1036    1.2898   -2.4314 H   0  0  0  0  0  0  0  0  0  0  0  0
    7.8856    2.9842   -1.9575 H   0  0  0  0  0  0  0  0  0  0  0  0
    9.8799   -0.0994   -1.2678 H   0  0  0  0  0  0  0  0  0  0  0  0
    8.9693    0.0796    0.2630 H   0  0  0  0  0  0  0  0  0  0  0  0
   11.6380    1.4300   -0.3260 H   0  0  0  0  0  0  0  0  0  0  0  0
   11.4605   -0.2147    0.4223 H   0  0  0  0  0  0  0  0  0  0  0  0
    9.7683    2.9032    2.3382 H   0  0  0  0  0  0  0  0  0  0  0  0
    8.7262    1.5392    1.8528 H   0  0  0  0  0  0  0  0  0  0  0  0
    8.5057    3.4934    0.3703 H   0  0  0  0  0  0  0  0  0  0  0  0
   10.2770    3.4629    0.0571 H   0  0  0  0  0  0  0  0  0  0  0  0
  1  2  1  0
  2  3  1  0
  3  4  2  0
  4  5  1  0
  5  6  2  0
  6  7  1  0
  7  8  2  0
  8  9  1  0
  9 10  1  0
 10 11  2  0
 10 12  1  0
 12 13  2  0
 13 14  1  0
 14 15  2  0
 15 16  1  0
 16 17  1  0
 17 18  2  0
 18 19  1  0
 19 20  2  0
 20 21  1  0
 21 22  2  0
 22 23  1  0
 23 24  2  0
 23 25  1  0
 25 26  1  0
 25 27  1  0
 25 28  1  0
 18 29  1  0
 29 30  2  0
  6 31  1  0
 31 32  2  0
 31 33  1  0
 33 34  1  0
 34 35  1  0
 35 36  2  0
 36 37  1  0
 37 38  2  0
 38 39  1  0
 39 40  1  0
 40 41  1  0
 41 42  1  0
 42 43  1  0
 43 44  1  0
 44 45  1  0
 38 46  1  0
  8  3  1  0
 30 12  1  0
 46 35  1  0
 29 15  1  0
 45 40  1  0
 24 19  1  0
  1 47  1  0
  1 48  1  0
  1 49  1  0
  4 50  1  0
  5 51  1  0
  7 52  1  0
  9 53  1  0
 13 54  1  0
 16 55  1  0
 17 56  1  0
 20 57  1  0
 21 58  1  0
 22 59  1  0
 24 60  1  0
 30 61  1  0
 33 62  1  0
 34 63  1  0
 34 64  1  0
 36 65  1  0
 37 66  1  0
 39 67  1  0
 39 68  1  0
 41 69  1  0
 41 70  1  0
 42 71  1  0
 42 72  1  0
 44 73  1  0
 44 74  1  0
 45 75  1  0
 45 76  1  0
M  END
$$$$
[H]OC([H])([H])c1c([H])c(-c2c(OC([H])([H])C3([H])C([H])([H])C([H])([H])N(C(=O)C([H])([H])[H])C([H])([H])C3([H])[H])c([H])c([H])c3nc([H])c([H])nc23)c([H])n(C([H])([H])[H])c1=O
     RDKit          3D

 57 60  0  0  0  0  0  0  0  0999 V2000
    7.2634   -0.5164    0.6615 C   0  0  0  0  0  0  0  0  0  0  0  0
    6.5555    0.4667   -0.1933 C   0  0  0  0  0  0  0  0  0  0  0  0
    7.2732    1.3628   -0.7578 O   0  0  0  0  0  0  0  0  0  0  0  0
    5.1580    0.4531   -0.3981 N   0  0  0  0  0  0  0  0  0  0  0  0
    4.3573   -0.5619    0.2553 C   0  0  0  0  0  0  0  0  0  0  0  0
    3.1508    0.0785    0.8347 C   0  0  0  0  0  0  0  0  0  0  0  0
    2.4091    0.9891   -0.0067 C   0  0  0  0  0  0  0  0  0  0  0  0
    1.2859    0.5227   -0.8888 C   0  0  0  0  0  0  0  0  0  0  0  0
    0.2039   -0.0745   -0.4591 O   0  0  0  0  0  0  0  0  0  0  0  0
   -0.4389   -1.0930    0.0757 C   0  0  0  0  0  0  0  0  0  0  0  0
    0.2301   -2.3001    0.4067 C   0  0  0  0  0  0  0  0  0  0  0  0
   -0.3767   -3.3855    0.9543 C   0  0  0  0  0  0  0  0  0  0  0  0
   -1.7213   -3.3324    1.2076 C   0  0  0  0  0  0  0  0  0  0  0  0
   -2.3630   -4.4091    1.7304 N   0  0  0  0  0  0  0  0  0  0  0  0
   -3.7101   -4.3526    1.9580 C   0  0  0  0  0  0  0  0  0  0  0  0
   -4.3882   -3.2065    1.6489 C   0  0  0  0  0  0  0  0  0  0  0  0
   -3.7200   -2.1608    1.1300 N   0  0  0  0  0  0  0  0  0  0  0  0
   -2.4109   -2.1885    0.9030 C   0  0  0  0  0  0  0  0  0  0  0  0
   -1.7872   -1.0505    0.3323 C   0  0  0  0  0  0  0  0  0  0  0  0
   -2.6377    0.0887    0.0024 C   0  0  0  0  0  0  0  0  0  0  0  0
   -3.7573   -0.1149   -0.8025 C   0  0  0  0  0  0  0  0  0  0  0  0
   -4.6286    0.8730   -1.1977 C   0  0  0  0  0  0  0  0  0  0  0  0
   -5.7977    0.6343   -2.0841 C   0  0  0  0  0  0  0  0  0  0  0  0
   -6.9554    1.1264   -1.4657 O   0  0  0  0  0  0  0  0  0  0  0  0
   -4.3125    2.1582   -0.7296 C   0  0  0  0  0  0  0  0  0  0  0  0
   -5.1327    3.0743   -1.1089 O   0  0  0  0  0  0  0  0  0  0  0  0
   -3.2598    2.4019    0.0357 N   0  0  0  0  0  0  0  0  0  0  0  0
   -3.0167    3.7404    0.4820 C   0  0  0  0  0  0  0  0  0  0  0  0
   -2.4184    1.3915    0.4104 C   0  0  0  0  0  0  0  0  0  0  0  0
    3.2769    1.9785   -0.7924 C   0  0  0  0  0  0  0  0  0  0  0  0
    4.5713    1.4448   -1.2622 C   0  0  0  0  0  0  0  0  0  0  0  0
    6.8812   -0.5422    1.7167 H   0  0  0  0  0  0  0  0  0  0  0  0
    7.2652   -1.5463    0.2536 H   0  0  0  0  0  0  0  0  0  0  0  0
    8.3567   -0.2274    0.7530 H   0  0  0  0  0  0  0  0  0  0  0  0
    4.9364   -0.9930    1.1384 H   0  0  0  0  0  0  0  0  0  0  0  0
    4.2131   -1.3969   -0.4160 H   0  0  0  0  0  0  0  0  0  0  0  0
    2.4871   -0.6722    1.3068 H   0  0  0  0  0  0  0  0  0  0  0  0
    3.5928    0.7167    1.7094 H   0  0  0  0  0  0  0  0  0  0  0  0
    1.8568    1.7056    0.7277 H   0  0  0  0  0  0  0  0  0  0  0  0
    0.9800    1.4860   -1.4547 H   0  0  0  0  0  0  0  0  0  0  0  0
    1.7317   -0.0517   -1.7834 H   0  0  0  0  0  0  0  0  0  0  0  0
    1.2797   -2.3402    0.1895 H   0  0  0  0  0  0  0  0  0  0  0  0
    0.2374   -4.2875    1.1672 H   0  0  0  0  0  0  0  0  0  0  0  0
   -4.2402   -5.2368    2.3883 H   0  0  0  0  0  0  0  0  0  0  0  0
   -5.4719   -3.1937    1.8235 H   0  0  0  0  0  0  0  0  0  0  0  0
   -3.9481   -1.1230   -1.1585 H   0  0  0  0  0  0  0  0  0  0  0  0
   -5.9710   -0.5286   -2.0276 H   0  0  0  0  0  0  0  0  0  0  0  0
   -5.6654    0.8337   -3.1288 H   0  0  0  0  0  0  0  0  0  0  0  0
   -6.8249    1.1149   -0.4887 H   0  0  0  0  0  0  0  0  0  0  0  0
   -2.4189    4.2754   -0.2832 H   0  0  0  0  0  0  0  0  0  0  0  0
   -3.9997    4.2695    0.5517 H   0  0  0  0  0  0  0  0  0  0  0  0
   -2.5318    3.6982    1.4594 H   0  0  0  0  0  0  0  0  0  0  0  0
   -1.5699    1.5894    1.0339 H   0  0  0  0  0  0  0  0  0  0  0  0
    3.4866    2.8742   -0.1871 H   0  0  0  0  0  0  0  0  0  0  0  0
    2.6496    2.3207   -1.6408 H   0  0  0  0  0  0  0  0  0  0  0  0
    4.4512    0.9636   -2.2598 H   0  0  0  0  0  0  0  0  0  0  0  0
    5.3342    2.2532   -1.4059 H   0  0  0  0  0  0  0  0  0  0  0  0
  1  2  1  0
  2  3  2  0
  2  4  1  0
  4  5  1  0
  5  6  1  0
  6  7  1  0
  7  8  1  0
  8  9  1  0
  9 10  1  0
 10 11  2  0
 11 12  1  0
 12 13  2  0
 13 14  1  0
 14 15  2  0
 15 16  1  0
 16 17  2  0
 17 18  1  0
 18 19  2  0
 19 20  1  0
 20 21  1  0
 21 22  2  0
 22 23  1  0
 23 24  1  0
 22 25  1  0
 25 26  2  0
 25 27  1  0
 27 28  1  0
 27 29  1  0
  7 30  1  0
 30 31  1  0
 31  4  1  0
 19 10  1  0
 29 20  2  0
 18 13  1  0
  1 32  1  0
  1 33  1  0
  1 34  1  0
  5 35  1  0
  5 36  1  0
  6 37  1  0
  6 38  1  0
  7 39  1  0
  8 40  1  0
  8 41  1  0
 11 42  1  0
 12 43  1  0
 15 44  1  0
 16 45  1  0
 21 46  1  0
 23 47  1  0
 23 48  1  0
 24 49  1  0
 28 50  1  0
 28 51  1  0
 28 52  1  0
 29 53  1  0
 30 54  1  0
 30 55  1  0
 31 56  1  0
 31 57  1  0
M  END
$$$$
[H]c1nc(N([H])c2c([H])c([H])c(C3([H])C([H])([H])C([H])([H])N(C(=O)C4([H])C([H])([H])C4([H])[H])C([H])([H])C3([H])[H])c([H])c2OC([H])([H])[H])nc(N([H])c2c([H])c([H])c([H])c([H])c2N2C([H])([H])C([H])([H])C([H])([H])[C@@]([H])(N3C([H])([H])C([H])([H])OC([H])([H])C3([H])[H])C2([H])[H])c1Cl
     RDKit          3D

 90 96  0  0  0  0  0  0  0  0999 V2000
    3.7828   -0.6456   -3.5746 C   0  0  0  0  0  0  0  0  0  0  0  0
    2.9306   -0.6221   -2.4548 O   0  0  0  0  0  0  0  0  0  0  0  0
    3.4619   -0.5295   -1.1866 C   0  0  0  0  0  0  0  0  0  0  0  0
    4.8239   -0.4608   -1.0405 C   0  0  0  0  0  0  0  0  0  0  0  0
    5.3774   -0.3680    0.2138 C   0  0  0  0  0  0  0  0  0  0  0  0
    4.5409   -0.3468    1.3013 C   0  0  0  0  0  0  0  0  0  0  0  0
    3.1516   -0.4172    1.1435 C   0  0  0  0  0  0  0  0  0  0  0  0
    2.5945   -0.5082   -0.0856 C   0  0  0  0  0  0  0  0  0  0  0  0
    1.2297   -0.5734   -0.3518 N   0  0  0  0  0  0  0  0  0  0  0  0
    0.2023   -0.5542    0.6139 C   0  0  0  0  0  0  0  0  0  0  0  0
    0.3141   -0.4803    1.9307 N   0  0  0  0  0  0  0  0  0  0  0  0
   -0.7542   -0.4559    2.7323 C   0  0  0  0  0  0  0  0  0  0  0  0
   -2.0313   -0.5060    2.2335 C   0  0  0  0  0  0  0  0  0  0  0  0
   -3.4478   -0.4744    3.2302 Cl  0  0  0  0  0  0  0  0  0  0  0  0
   -2.1795   -0.5855    0.8271 C   0  0  0  0  0  0  0  0  0  0  0  0
   -3.4829   -0.6393    0.2787 N   0  0  0  0  0  0  0  0  0  0  0  0
   -3.8206   -0.7083   -1.0624 C   0  0  0  0  0  0  0  0  0  0  0  0
   -2.8942   -0.5970   -2.0766 C   0  0  0  0  0  0  0  0  0  0  0  0
   -3.3272   -0.6307   -3.4134 C   0  0  0  0  0  0  0  0  0  0  0  0
   -4.6585   -0.7726   -3.7193 C   0  0  0  0  0  0  0  0  0  0  0  0
   -5.5763   -0.8833   -2.6964 C   0  0  0  0  0  0  0  0  0  0  0  0
   -5.1801   -0.8542   -1.3799 C   0  0  0  0  0  0  0  0  0  0  0  0
   -6.1202   -1.0046   -0.3325 N   0  0  0  0  0  0  0  0  0  0  0  0
   -6.2747   -2.2327    0.4153 C   0  0  0  0  0  0  0  0  0  0  0  0
   -6.9375   -2.0856    1.7420 C   0  0  0  0  0  0  0  0  0  0  0  0
   -8.0102   -1.0279    1.8084 C   0  0  0  0  0  0  0  0  0  0  0  0
   -8.2374   -0.3025    0.5238 C   0  0  2  0  0  0  0  0  0  0  0  0
   -6.9368    0.1648   -0.0350 C   0  0  0  0  0  0  0  0  0  0  0  0
   -9.1789    0.7657    0.7536 N   0  0  0  0  0  0  0  0  0  0  0  0
   -8.7553    1.7587    1.6604 C   0  0  0  0  0  0  0  0  0  0  0  0
   -8.8921    3.1822    1.2148 C   0  0  0  0  0  0  0  0  0  0  0  0
   -8.7896    3.2707   -0.1917 O   0  0  0  0  0  0  0  0  0  0  0  0
   -9.9624    2.6326   -0.6554 C   0  0  0  0  0  0  0  0  0  0  0  0
   -9.9003    1.1716   -0.3903 C   0  0  0  0  0  0  0  0  0  0  0  0
   -1.0674   -0.6030    0.1447 N   0  0  0  0  0  0  0  0  0  0  0  0
    6.8548   -0.2790    0.3897 C   0  0  0  0  0  0  0  0  0  0  0  0
    7.4295    0.9625   -0.1766 C   0  0  0  0  0  0  0  0  0  0  0  0
    8.7230    0.6687   -0.9029 C   0  0  0  0  0  0  0  0  0  0  0  0
    9.4749   -0.2403   -0.0952 N   0  0  0  0  0  0  0  0  0  0  0  0
    8.9447   -1.5919   -0.0180 C   0  0  0  0  0  0  0  0  0  0  0  0
    7.4286   -1.5470   -0.1954 C   0  0  0  0  0  0  0  0  0  0  0  0
   10.6305    0.1205    0.5870 C   0  0  0  0  0  0  0  0  0  0  0  0
   11.2815   -0.7370    1.2962 O   0  0  0  0  0  0  0  0  0  0  0  0
   11.2230    1.4817    0.5776 C   0  0  0  0  0  0  0  0  0  0  0  0
   12.7301    1.6026    0.5109 C   0  0  0  0  0  0  0  0  0  0  0  0
   12.0271    1.9405    1.7492 C   0  0  0  0  0  0  0  0  0  0  0  0
    3.2468   -0.6387   -4.5290 H   0  0  0  0  0  0  0  0  0  0  0  0
    4.4384    0.2734   -3.5787 H   0  0  0  0  0  0  0  0  0  0  0  0
    4.4913   -1.5086   -3.5495 H   0  0  0  0  0  0  0  0  0  0  0  0
    5.4760   -0.4779   -1.8914 H   0  0  0  0  0  0  0  0  0  0  0  0
    4.9444   -0.2754    2.2968 H   0  0  0  0  0  0  0  0  0  0  0  0
    2.5991   -0.3928    2.0604 H   0  0  0  0  0  0  0  0  0  0  0  0
    0.8974   -0.6472   -1.3781 H   0  0  0  0  0  0  0  0  0  0  0  0
   -0.6306   -0.3948    3.8163 H   0  0  0  0  0  0  0  0  0  0  0  0
   -4.2847   -0.6074    0.9918 H   0  0  0  0  0  0  0  0  0  0  0  0
   -1.8345   -0.4763   -1.9517 H   0  0  0  0  0  0  0  0  0  0  0  0
   -2.6096   -0.5444   -4.2014 H   0  0  0  0  0  0  0  0  0  0  0  0
   -4.9941   -0.7986   -4.7334 H   0  0  0  0  0  0  0  0  0  0  0  0
   -6.6361   -0.9966   -2.8970 H   0  0  0  0  0  0  0  0  0  0  0  0
   -5.2884   -2.7157    0.5525 H   0  0  0  0  0  0  0  0  0  0  0  0
   -6.8908   -2.9295   -0.2335 H   0  0  0  0  0  0  0  0  0  0  0  0
   -6.1564   -1.9481    2.5492 H   0  0  0  0  0  0  0  0  0  0  0  0
   -7.3921   -3.0923    2.0046 H   0  0  0  0  0  0  0  0  0  0  0  0
   -7.6958   -0.3170    2.6146 H   0  0  0  0  0  0  0  0  0  0  0  0
   -8.9755   -1.4812    2.1787 H   0  0  0  0  0  0  0  0  0  0  0  0
   -8.6981   -0.9951   -0.1898 H   0  0  0  0  0  0  0  0  0  0  0  0
   -7.0413    0.7636   -0.9595 H   0  0  0  0  0  0  0  0  0  0  0  0
   -6.3326    0.7794    0.6758 H   0  0  0  0  0  0  0  0  0  0  0  0
   -9.3209    1.6336    2.6287 H   0  0  0  0  0  0  0  0  0  0  0  0
   -7.6784    1.6024    1.9636 H   0  0  0  0  0  0  0  0  0  0  0  0
   -9.9144    3.5306    1.4621 H   0  0  0  0  0  0  0  0  0  0  0  0
   -8.1797    3.8639    1.7019 H   0  0  0  0  0  0  0  0  0  0  0  0
  -10.8133    3.0906   -0.0849 H   0  0  0  0  0  0  0  0  0  0  0  0
  -10.1215    2.8927   -1.7155 H   0  0  0  0  0  0  0  0  0  0  0  0
   -9.4823    0.6543   -1.2924 H   0  0  0  0  0  0  0  0  0  0  0  0
  -10.9609    0.7981   -0.3146 H   0  0  0  0  0  0  0  0  0  0  0  0
    7.0406   -0.2865    1.5014 H   0  0  0  0  0  0  0  0  0  0  0  0
    7.7031    1.6601    0.6690 H   0  0  0  0  0  0  0  0  0  0  0  0
    6.7255    1.5458   -0.8051 H   0  0  0  0  0  0  0  0  0  0  0  0
    8.4566    0.1643   -1.8898 H   0  0  0  0  0  0  0  0  0  0  0  0
    9.2532    1.5942   -1.1993 H   0  0  0  0  0  0  0  0  0  0  0  0
    9.2531   -2.1337    0.8744 H   0  0  0  0  0  0  0  0  0  0  0  0
    9.3391   -2.1281   -0.9055 H   0  0  0  0  0  0  0  0  0  0  0  0
    7.0225   -2.3970    0.3857 H   0  0  0  0  0  0  0  0  0  0  0  0
    7.1408   -1.6868   -1.2442 H   0  0  0  0  0  0  0  0  0  0  0  0
   10.6988    2.2508   -0.0144 H   0  0  0  0  0  0  0  0  0  0  0  0
   13.2513    0.6233    0.4770 H   0  0  0  0  0  0  0  0  0  0  0  0
   13.1781    2.3885   -0.1328 H   0  0  0  0  0  0  0  0  0  0  0  0
   11.9367    3.0133    2.0138 H   0  0  0  0  0  0  0  0  0  0  0  0
   12.0971    1.2888    2.6435 H   0  0  0  0  0  0  0  0  0  0  0  0
  1  2  1  0
  2  3  1  0
  3  4  2  0
  4  5  1  0
  5  6  2  0
  6  7  1  0
  7  8  2  0
  8  9  1  0
  9 10  1  0
 10 11  2  0
 11 12  1  0
 12 13  2  0
 13 14  1  0
 13 15  1  0
 15 16  1  0
 16 17  1  0
 17 18  2  0
 18 19  1  0
 19 20  2  0
 20 21  1  0
 21 22  2  0
 22 23  1  0
 23 24  1  0
 24 25  1  0
 25 26  1  0
 26 27  1  0
 27 28  1  0
 27 29  1  0
 29 30  1  0
 30 31  1  0
 31 32  1  0
 32 33  1  0
 33 34  1  0
 15 35  2  0
  5 36  1  0
 36 37  1  0
 37 38  1  0
 38 39  1  0
 39 40  1  0
 40 41  1  0
 39 42  1  0
 42 43  2  0
 42 44  1  0
 44 45  1  0
 45 46  1  0
  8  3  1  0
 35 10  1  0
 41 36  1  0
 46 44  1  0
 22 17  1  0
 28 23  1  0
 34 29  1  0
  1 47  1  0
  1 48  1  0
  1 49  1  0
  4 50  1  0
  6 51  1  0
  7 52  1  0
  9 53  1  0
 12 54  1  0
 16 55  1  0
 18 56  1  0
 19 57  1  0
 20 58  1  0
 21 59  1  0
 24 60  1  0
 24 61  1  0
 25 62  1  0
 25 63  1  0
 26 64  1  0
 26 65  1  0
 27 66  1  6
 28 67  1  0
 28 68  1  0
 30 69  1  0
 30 70  1  0
 31 71  1  0
 31 72  1  0
 33 73  1  0
 33 74  1  0
 34 75  1  0
 34 76  1  0
 36 77  1  0
 37 78  1  0
 37 79  1  0
 38 80  1  0
 38 81  1  0
 40 82  1  0
 40 83  1  0
 41 84  1  0
 41 85  1  0
 44 86  1  0
 45 87  1  0
 45 88  1  0
 46 89  1  0
 46 90  1  0
M  END
$$$$
[H]c1nc2c(N([H])C([H])([H])C([H])([H])C([H])([H])C([H])([H])[H])c([H])c(C3([H])C([H])([H])OC3([H])[H])c([H])n2c1-c1c([H])c([H])c(N([H])C(=O)c2c([H])c([H])c(C([H])([H])[H])c(C(F)(F)F)c2[H])c([H])c1[H]
     RDKit          3D

 67 71  0  0  0  0  0  0  0  0999 V2000
   -8.9820    1.2260   -2.0411 C   0  0  0  0  0  0  0  0  0  0  0  0
   -8.1184    0.1463   -1.4589 C   0  0  0  0  0  0  0  0  0  0  0  0
   -7.9540    0.2857    0.0503 C   0  0  0  0  0  0  0  0  0  0  0  0
   -7.3257    1.5827    0.4245 C   0  0  0  0  0  0  0  0  0  0  0  0
   -6.0210    1.8267   -0.0970 N   0  0  0  0  0  0  0  0  0  0  0  0
   -4.8583    1.1178    0.2974 C   0  0  0  0  0  0  0  0  0  0  0  0
   -4.8148    0.1794    1.2976 C   0  0  0  0  0  0  0  0  0  0  0  0
   -3.6638   -0.4710    1.6581 C   0  0  0  0  0  0  0  0  0  0  0  0
   -2.4966   -0.1740    0.9907 C   0  0  0  0  0  0  0  0  0  0  0  0
   -2.4975    0.7502   -0.0086 N   0  0  0  0  0  0  0  0  0  0  0  0
   -1.5016    1.2078   -0.7734 C   0  0  0  0  0  0  0  0  0  0  0  0
   -2.0870    2.1738   -1.6190 C   0  0  0  0  0  0  0  0  0  0  0  0
   -3.3720    2.2366   -1.3210 N   0  0  0  0  0  0  0  0  0  0  0  0
   -3.6554    1.3748   -0.3374 C   0  0  0  0  0  0  0  0  0  0  0  0
   -0.0730    0.9288   -0.8251 C   0  0  0  0  0  0  0  0  0  0  0  0
    0.5536   -0.1452   -0.2745 C   0  0  0  0  0  0  0  0  0  0  0  0
    1.9418   -0.2976   -0.3092 C   0  0  0  0  0  0  0  0  0  0  0  0
    2.7783    0.6137   -0.8971 C   0  0  0  0  0  0  0  0  0  0  0  0
    4.1891    0.5117   -0.9453 N   0  0  0  0  0  0  0  0  0  0  0  0
    5.0150   -0.3911   -0.2905 C   0  0  0  0  0  0  0  0  0  0  0  0
    4.5657   -1.2754    0.4697 O   0  0  0  0  0  0  0  0  0  0  0  0
    6.4706   -0.3563   -0.4572 C   0  0  0  0  0  0  0  0  0  0  0  0
    7.1243    0.7101   -1.0268 C   0  0  0  0  0  0  0  0  0  0  0  0
    8.5145    0.6695   -1.1600 C   0  0  0  0  0  0  0  0  0  0  0  0
    9.2747   -0.3979   -0.7445 C   0  0  0  0  0  0  0  0  0  0  0  0
   10.7571   -0.4008   -0.9052 C   0  0  0  0  0  0  0  0  0  0  0  0
    8.6201   -1.4634   -0.1750 C   0  0  0  0  0  0  0  0  0  0  0  0
    7.2523   -1.4388   -0.0369 C   0  0  0  0  0  0  0  0  0  0  0  0
    9.3545   -2.6549    0.3009 C   0  0  0  0  0  0  0  0  0  0  0  0
    8.4836   -3.5846    0.8330 F   0  0  0  0  0  0  0  0  0  0  0  0
    9.9319   -3.2641   -0.8037 F   0  0  0  0  0  0  0  0  0  0  0  0
   10.2793   -2.3649    1.2722 F   0  0  0  0  0  0  0  0  0  0  0  0
    2.1423    1.7175   -1.4664 C   0  0  0  0  0  0  0  0  0  0  0  0
    0.7847    1.8656   -1.4309 C   0  0  0  0  0  0  0  0  0  0  0  0
   -3.6835   -1.4900    2.7646 C   0  0  0  0  0  0  0  0  0  0  0  0
   -2.4753   -1.4936    3.6403 C   0  0  0  0  0  0  0  0  0  0  0  0
   -2.2461   -2.8631    3.4096 O   0  0  0  0  0  0  0  0  0  0  0  0
   -3.0042   -2.7519    2.2478 C   0  0  0  0  0  0  0  0  0  0  0  0
   -8.3782    2.0519   -2.4715 H   0  0  0  0  0  0  0  0  0  0  0  0
   -9.5901    0.8110   -2.8832 H   0  0  0  0  0  0  0  0  0  0  0  0
   -9.7146    1.5934   -1.2904 H   0  0  0  0  0  0  0  0  0  0  0  0
   -8.6615   -0.8246   -1.6166 H   0  0  0  0  0  0  0  0  0  0  0  0
   -7.1173    0.0864   -1.9160 H   0  0  0  0  0  0  0  0  0  0  0  0
   -8.9948    0.3021    0.4872 H   0  0  0  0  0  0  0  0  0  0  0  0
   -7.4531   -0.6261    0.3813 H   0  0  0  0  0  0  0  0  0  0  0  0
   -7.2987    1.7153    1.5458 H   0  0  0  0  0  0  0  0  0  0  0  0
   -8.0437    2.3860    0.0980 H   0  0  0  0  0  0  0  0  0  0  0  0
   -5.9282    2.5983   -0.8335 H   0  0  0  0  0  0  0  0  0  0  0  0
   -5.7225   -0.0501    1.8309 H   0  0  0  0  0  0  0  0  0  0  0  0
   -1.6147   -0.6705    1.3052 H   0  0  0  0  0  0  0  0  0  0  0  0
   -1.5817    2.7697   -2.3909 H   0  0  0  0  0  0  0  0  0  0  0  0
    0.0215   -0.9565    0.1823 H   0  0  0  0  0  0  0  0  0  0  0  0
    2.3269   -1.1766    0.1461 H   0  0  0  0  0  0  0  0  0  0  0  0
    4.6800    1.2226   -1.5765 H   0  0  0  0  0  0  0  0  0  0  0  0
    6.6012    1.5947   -1.3785 H   0  0  0  0  0  0  0  0  0  0  0  0
    9.0148    1.5063   -1.6057 H   0  0  0  0  0  0  0  0  0  0  0  0
   11.1053   -1.2161   -1.5839 H   0  0  0  0  0  0  0  0  0  0  0  0
   11.0969    0.5402   -1.3978 H   0  0  0  0  0  0  0  0  0  0  0  0
   11.2749   -0.4206    0.0776 H   0  0  0  0  0  0  0  0  0  0  0  0
    6.7221   -2.2811    0.4145 H   0  0  0  0  0  0  0  0  0  0  0  0
    2.7749    2.4720   -1.9487 H   0  0  0  0  0  0  0  0  0  0  0  0
    0.3318    2.7514   -1.8873 H   0  0  0  0  0  0  0  0  0  0  0  0
   -4.6572   -1.6353    3.2218 H   0  0  0  0  0  0  0  0  0  0  0  0
   -2.7128   -1.3803    4.7368 H   0  0  0  0  0  0  0  0  0  0  0  0
   -1.6369   -0.8624    3.3472 H   0  0  0  0  0  0  0  0  0  0  0  0
   -3.7222   -3.5668    2.0800 H   0  0  0  0  0  0  0  0  0  0  0  0
   -2.3250   -2.5804    1.3857 H   0  0  0  0  0  0  0  0  0  0  0  0
  1  2  1  0
  2  3  1  0
  3  4  1  0
  4  5  1  0
  5  6  1  0
  6  7  2  0
  7  8  1  0
  8  9  2  0
  9 10  1  0
 10 11  1  0
 11 12  2  0
 12 13  1  0
 13 14  2  0
 11 15  1  0
 15 16  2  0
 16 17  1  0
 17 18  2  0
 18 19  1  0
 19 20  1  0
 20 21  2  0
 20 22  1  0
 22 23  2  0
 23 24  1  0
 24 25  2  0
 25 26  1  0
 25 27  1  0
 27 28  2  0
 27 29  1  0
 29 30  1  0
 29 31  1  0
 29 32  1  0
 18 33  1  0
 33 34  2  0
  8 35  1  0
 35 36  1  0
 36 37  1  0
 37 38  1  0
 14  6  1  0
 34 15  1  0
 38 35  1  0
 14 10  1  0
 28 22  1  0
  1 39  1  0
  1 40  1  0
  1 41  1  0
  2 42  1  0
  2 43  1  0
  3 44  1  0
  3 45  1  0
  4 46  1  0
  4 47  1  0
  5 48  1  0
  7 49  1  0
  9 50  1  0
 12 51  1  0
 16 52  1  0
 17 53  1  0
 19 54  1  0
 23 55  1  0
 24 56  1  0
 26 57  1  0
 26 58  1  0
 26 59  1  0
 28 60  1  0
 33 61  1  0
 34 62  1  0
 35 63  1  0
 36 64  1  0
 36 65  1  0
 38 66  1  0
 38 67  1  0
M  END
$$$$
[H]c1nc(N([H])c2c(Cl)c([H])c([H])c([H])c2C([H])([H])C([H])([H])O[C@@]2([H])C([H])([H])C([H])([H])O[C@@]2([H])C(=O)N([H])[H])nc(C([H])([H])[H])c1-c1c([H])c([H])c2c(c1[H])OC([H])([H])O2
     RDKit          3D

 60 64  0  0  0  0  0  0  0  0999 V2000
   -2.2418   -1.3354    2.4660 C   0  0  0  0  0  0  0  0  0  0  0  0
   -1.8974   -0.4736    1.3036 C   0  0  0  0  0  0  0  0  0  0  0  0
   -0.6451    0.0645    1.2007 N   0  0  0  0  0  0  0  0  0  0  0  0
   -0.3112    0.8357    0.1534 C   0  0  0  0  0  0  0  0  0  0  0  0
    1.0188    1.3954    0.0582 N   0  0  0  0  0  0  0  0  0  0  0  0
    1.2640    2.1977   -1.0997 C   0  0  0  0  0  0  0  0  0  0  0  0
    1.6773    1.6924   -2.3092 C   0  0  0  0  0  0  0  0  0  0  0  0
    1.9451    0.2521   -2.4614 C   0  0  0  0  0  0  0  0  0  0  0  0
    3.2791   -0.2287   -2.0363 C   0  0  0  0  0  0  0  0  0  0  0  0
    3.6337   -0.0362   -0.7277 O   0  0  0  0  0  0  0  0  0  0  0  0
    4.8797   -0.5119   -0.4035 C   0  0  1  0  0  0  0  0  0  0  0  0
    5.7106    0.6857    0.0611 C   0  0  0  0  0  0  0  0  0  0  0  0
    5.5174    0.6525    1.5415 C   0  0  0  0  0  0  0  0  0  0  0  0
    4.7613   -0.4503    1.8535 O   0  0  0  0  0  0  0  0  0  0  0  0
    4.9175   -1.3767    0.8139 C   0  0  1  0  0  0  0  0  0  0  0  0
    3.8910   -2.4030    0.8708 C   0  0  0  0  0  0  0  0  0  0  0  0
    2.9164   -2.3678    1.8919 N   0  0  0  0  0  0  0  0  0  0  0  0
    3.8546   -3.3219    0.0273 O   0  0  0  0  0  0  0  0  0  0  0  0
    1.8635    2.5619   -3.3875 C   0  0  0  0  0  0  0  0  0  0  0  0
    1.6283    3.8919   -3.2020 C   0  0  0  0  0  0  0  0  0  0  0  0
    1.2132    4.3897   -1.9790 C   0  0  0  0  0  0  0  0  0  0  0  0
    1.0189    3.5629   -0.8948 C   0  0  0  0  0  0  0  0  0  0  0  0
    0.4953    4.1753    0.6558 Cl  0  0  0  0  0  0  0  0  0  0  0  0
   -1.2558    1.0458   -0.7688 N   0  0  0  0  0  0  0  0  0  0  0  0
   -2.4848    0.5618   -0.7391 C   0  0  0  0  0  0  0  0  0  0  0  0
   -2.8493   -0.2445    0.3460 C   0  0  0  0  0  0  0  0  0  0  0  0
   -4.2118   -0.7703    0.3715 C   0  0  0  0  0  0  0  0  0  0  0  0
   -4.7409   -1.4014   -0.7588 C   0  0  0  0  0  0  0  0  0  0  0  0
   -6.0214   -1.8968   -0.7749 C   0  0  0  0  0  0  0  0  0  0  0  0
   -6.8497   -1.7900    0.3410 C   0  0  0  0  0  0  0  0  0  0  0  0
   -8.1335   -2.1685    0.6374 O   0  0  0  0  0  0  0  0  0  0  0  0
   -8.5109   -1.6607    1.8888 C   0  0  0  0  0  0  0  0  0  0  0  0
   -7.3170   -1.1717    2.4419 O   0  0  0  0  0  0  0  0  0  0  0  0
   -6.3398   -1.1703    1.4603 C   0  0  0  0  0  0  0  0  0  0  0  0
   -5.0369   -0.6741    1.4556 C   0  0  0  0  0  0  0  0  0  0  0  0
   -1.2959   -1.8777    2.7126 H   0  0  0  0  0  0  0  0  0  0  0  0
   -2.5710   -0.7015    3.3147 H   0  0  0  0  0  0  0  0  0  0  0  0
   -2.9726   -2.1261    2.2374 H   0  0  0  0  0  0  0  0  0  0  0  0
    1.6846    1.2075    0.8074 H   0  0  0  0  0  0  0  0  0  0  0  0
    1.7908    0.0181   -3.5445 H   0  0  0  0  0  0  0  0  0  0  0  0
    1.1834   -0.3424   -1.9145 H   0  0  0  0  0  0  0  0  0  0  0  0
    4.1006    0.0847   -2.7481 H   0  0  0  0  0  0  0  0  0  0  0  0
    3.2644   -1.3555   -2.1835 H   0  0  0  0  0  0  0  0  0  0  0  0
    5.3565   -0.9748   -1.3019 H   0  0  0  0  0  0  0  0  0  0  0  0
    5.3068    1.6316   -0.3517 H   0  0  0  0  0  0  0  0  0  0  0  0
    6.7505    0.5951   -0.2756 H   0  0  0  0  0  0  0  0  0  0  0  0
    4.9434    1.5592    1.8772 H   0  0  0  0  0  0  0  0  0  0  0  0
    6.4894    0.7014    2.0775 H   0  0  0  0  0  0  0  0  0  0  0  0
    5.9309   -1.8506    0.8494 H   0  0  0  0  0  0  0  0  0  0  0  0
    3.1833   -1.9642    2.8137 H   0  0  0  0  0  0  0  0  0  0  0  0
    1.9392   -2.7172    1.7975 H   0  0  0  0  0  0  0  0  0  0  0  0
    2.1820    2.1800   -4.3240 H   0  0  0  0  0  0  0  0  0  0  0  0
    1.7528    4.6254   -3.9955 H   0  0  0  0  0  0  0  0  0  0  0  0
    1.0324    5.4526   -1.8548 H   0  0  0  0  0  0  0  0  0  0  0  0
   -3.2396    0.7397   -1.4930 H   0  0  0  0  0  0  0  0  0  0  0  0
   -4.1212   -1.5008   -1.6454 H   0  0  0  0  0  0  0  0  0  0  0  0
   -6.4521   -2.3896   -1.6394 H   0  0  0  0  0  0  0  0  0  0  0  0
   -8.9099   -2.4614    2.5639 H   0  0  0  0  0  0  0  0  0  0  0  0
   -9.2909   -0.8544    1.8067 H   0  0  0  0  0  0  0  0  0  0  0  0
   -4.6761   -0.1907    2.3525 H   0  0  0  0  0  0  0  0  0  0  0  0
  1  2  1  0
  2  3  2  0
  3  4  1  0
  4  5  1  0
  5  6  1  0
  6  7  1  0
  7  8  1  0
  8  9  1  0
  9 10  1  0
 10 11  1  0
 11 12  1  0
 12 13  1  0
 13 14  1  0
 14 15  1  0
 15 16  1  0
 16 17  1  0
 16 18  2  0
  7 19  2  0
 19 20  1  0
 20 21  2  0
 21 22  1  0
 22 23  1  0
  4 24  2  0
 24 25  1  0
 25 26  2  0
 26 27  1  0
 27 28  2  0
 28 29  1  0
 29 30  2  0
 30 31  1  0
 31 32  1  0
 32 33  1  0
 33 34  1  0
 34 35  2  0
 26  2  1  0
 35 27  1  0
 22  6  2  0
 34 30  1  0
 15 11  1  0
  1 36  1  0
  1 37  1  0
  1 38  1  0
  5 39  1  0
  8 40  1  0
  8 41  1  0
  9 42  1  0
  9 43  1  0
 11 44  1  6
 12 45  1  0
 12 46  1  0
 13 47  1  0
 13 48  1  0
 15 49  1  1
 17 50  1  0
 17 51  1  0
 19 52  1  0
 20 53  1  0
 21 54  1  0
 25 55  1  0
 28 56  1  0
 29 57  1  0
 32 58  1  0
 32 59  1  0
 35 60  1  0
M  END
$$$$
[H]c1nc(N([H])c2c(C(=O)N3C([H])([H])C([H])([H])N([H])C([H])([H])[C@@]3([H])C([H])([H])[H])c([H])nc3c([H])c([H])c(C(N([H])[H])(C([H])([H])[H])C([H])([H])[H])c([H])c23)c2nc([H])c([H])c([H])c2n1
     RDKit          3D

 62 66  0  0  0  0  0  0  0  0999 V2000
   -5.7944   -1.2950   -1.2770 C   0  0  0  0  0  0  0  0  0  0  0  0
   -4.9598   -1.4484   -0.0265 C   0  0  0  0  0  0  0  0  0  0  0  0
   -4.9450   -0.1439    0.7581 C   0  0  0  0  0  0  0  0  0  0  0  0
   -5.6375   -2.4255    0.8200 N   0  0  0  0  0  0  0  0  0  0  0  0
   -3.5675   -1.8692   -0.3406 C   0  0  0  0  0  0  0  0  0  0  0  0
   -3.3339   -3.0720   -0.9729 C   0  0  0  0  0  0  0  0  0  0  0  0
   -2.0508   -3.4943   -1.2808 C   0  0  0  0  0  0  0  0  0  0  0  0
   -0.9374   -2.7309   -0.9698 C   0  0  0  0  0  0  0  0  0  0  0  0
    0.3081   -3.1172   -1.2555 N   0  0  0  0  0  0  0  0  0  0  0  0
    1.3866   -2.3755   -0.9515 C   0  0  0  0  0  0  0  0  0  0  0  0
    1.2020   -1.1549   -0.3141 C   0  0  0  0  0  0  0  0  0  0  0  0
    2.3099   -0.3530    0.1177 C   0  0  0  0  0  0  0  0  0  0  0  0
    1.9672    0.6324    0.9090 O   0  0  0  0  0  0  0  0  0  0  0  0
    3.6839   -0.4036   -0.1299 N   0  0  0  0  0  0  0  0  0  0  0  0
    4.4998   -1.2119   -0.9596 C   0  0  0  0  0  0  0  0  0  0  0  0
    5.4945   -2.0392   -0.1572 C   0  0  0  0  0  0  0  0  0  0  0  0
    6.1737   -1.2077    0.8196 N   0  0  0  0  0  0  0  0  0  0  0  0
    5.2924   -0.3981    1.6092 C   0  0  0  0  0  0  0  0  0  0  0  0
    4.5518    0.5432    0.6869 C   0  0  1  0  0  0  0  0  0  0  0  0
    5.5133    1.2669   -0.1841 C   0  0  0  0  0  0  0  0  0  0  0  0
   -0.0890   -0.7368   -0.0098 C   0  0  0  0  0  0  0  0  0  0  0  0
   -0.3562    0.5276    0.6080 N   0  0  0  0  0  0  0  0  0  0  0  0
   -0.6515    1.6835   -0.1760 C   0  0  0  0  0  0  0  0  0  0  0  0
   -0.7104    1.6071   -1.5186 N   0  0  0  0  0  0  0  0  0  0  0  0
   -1.0021    2.7085   -2.2302 C   0  0  0  0  0  0  0  0  0  0  0  0
   -1.2397    3.8954   -1.6449 N   0  0  0  0  0  0  0  0  0  0  0  0
   -1.1935    4.0265   -0.3149 C   0  0  0  0  0  0  0  0  0  0  0  0
   -1.4195    5.2029    0.3475 C   0  0  0  0  0  0  0  0  0  0  0  0
   -1.3571    5.2923    1.7176 C   0  0  0  0  0  0  0  0  0  0  0  0
   -1.0552    4.1433    2.4146 C   0  0  0  0  0  0  0  0  0  0  0  0
   -0.8313    2.9804    1.7668 N   0  0  0  0  0  0  0  0  0  0  0  0
   -0.8897    2.8785    0.4196 C   0  0  0  0  0  0  0  0  0  0  0  0
   -1.1635   -1.5305   -0.3393 C   0  0  0  0  0  0  0  0  0  0  0  0
   -2.4694   -1.1042   -0.0276 C   0  0  0  0  0  0  0  0  0  0  0  0
   -5.3380   -1.8366   -2.1299 H   0  0  0  0  0  0  0  0  0  0  0  0
   -6.7960   -1.7435   -1.1314 H   0  0  0  0  0  0  0  0  0  0  0  0
   -5.9538   -0.2143   -1.5025 H   0  0  0  0  0  0  0  0  0  0  0  0
   -4.6213    0.6923    0.0981 H   0  0  0  0  0  0  0  0  0  0  0  0
   -6.0235    0.0247    1.0385 H   0  0  0  0  0  0  0  0  0  0  0  0
   -4.3077   -0.2946    1.6354 H   0  0  0  0  0  0  0  0  0  0  0  0
   -4.9979   -2.7091    1.5947 H   0  0  0  0  0  0  0  0  0  0  0  0
   -5.7999   -3.2774    0.2120 H   0  0  0  0  0  0  0  0  0  0  0  0
   -4.1885   -3.6897   -1.2277 H   0  0  0  0  0  0  0  0  0  0  0  0
   -1.8465   -4.4398   -1.7787 H   0  0  0  0  0  0  0  0  0  0  0  0
    2.3798   -2.7670   -1.1882 H   0  0  0  0  0  0  0  0  0  0  0  0
    5.2024   -0.4449   -1.4900 H   0  0  0  0  0  0  0  0  0  0  0  0
    4.1013   -1.7531   -1.7893 H   0  0  0  0  0  0  0  0  0  0  0  0
    6.2591   -2.4141   -0.8619 H   0  0  0  0  0  0  0  0  0  0  0  0
    5.0457   -2.9029    0.3471 H   0  0  0  0  0  0  0  0  0  0  0  0
    6.6896   -1.8544    1.4474 H   0  0  0  0  0  0  0  0  0  0  0  0
    5.8846    0.1335    2.3715 H   0  0  0  0  0  0  0  0  0  0  0  0
    4.5336   -1.0860    2.0800 H   0  0  0  0  0  0  0  0  0  0  0  0
    3.9162    1.2575    1.2176 H   0  0  0  0  0  0  0  0  0  0  0  0
    6.4421    0.7368   -0.4029 H   0  0  0  0  0  0  0  0  0  0  0  0
    5.0733    1.5952   -1.1494 H   0  0  0  0  0  0  0  0  0  0  0  0
    5.7947    2.2056    0.3705 H   0  0  0  0  0  0  0  0  0  0  0  0
   -0.3353    0.5627    1.6409 H   0  0  0  0  0  0  0  0  0  0  0  0
   -1.0551    2.6663   -3.3124 H   0  0  0  0  0  0  0  0  0  0  0  0
   -1.6558    6.1039   -0.2047 H   0  0  0  0  0  0  0  0  0  0  0  0
   -1.5346    6.2154    2.2507 H   0  0  0  0  0  0  0  0  0  0  0  0
   -0.9844    4.1273    3.4908 H   0  0  0  0  0  0  0  0  0  0  0  0
   -2.6124   -0.1706    0.4601 H   0  0  0  0  0  0  0  0  0  0  0  0
  1  2  1  0
  2  3  1  0
  2  4  1  0
  2  5  1  0
  5  6  2  0
  6  7  1  0
  7  8  2  0
  8  9  1  0
  9 10  2  0
 10 11  1  0
 11 12  1  0
 12 13  2  0
 12 14  1  0
 14 15  1  0
 15 16  1  0
 16 17  1  0
 17 18  1  0
 18 19  1  0
 19 20  1  0
 11 21  2  0
 21 22  1  0
 22 23  1  0
 23 24  2  0
 24 25  1  0
 25 26  2  0
 26 27  1  0
 27 28  2  0
 28 29  1  0
 29 30  2  0
 30 31  1  0
 31 32  2  0
 21 33  1  0
 33 34  2  0
 34  5  1  0
 33  8  1  0
 19 14  1  0
 32 23  1  0
 32 27  1  0
  1 35  1  0
  1 36  1  0
  1 37  1  0
  3 38  1  0
  3 39  1  0
  3 40  1  0
  4 41  1  0
  4 42  1  0
  6 43  1  0
  7 44  1  0
 10 45  1  0
 15 46  1  0
 15 47  1  0
 16 48  1  0
 16 49  1  0
 17 50  1  0
 18 51  1  0
 18 52  1  0
 19 53  1  1
 20 54  1  0
 20 55  1  0
 20 56  1  0
 22 57  1  0
 25 58  1  0
 28 59  1  0
 29 60  1  0
 30 61  1  0
 34 62  1  0
M  END
$$$$
[H]c1c([H])c(-c2nn([H])c3c([H])c([H])c(C(=O)N([H])C([H])([H])[H])c([H])c23)c([H])c([H])c1F
     RDKit          3D

 32 34  0  0  0  0  0  0  0  0999 V2000
    4.1715    2.1887   -1.0412 C   0  0  0  0  0  0  0  0  0  0  0  0
    3.0494    1.3496   -0.6940 N   0  0  0  0  0  0  0  0  0  0  0  0
    3.1877   -0.0012   -0.2967 C   0  0  0  0  0  0  0  0  0  0  0  0
    4.3687   -0.4576   -0.2566 O   0  0  0  0  0  0  0  0  0  0  0  0
    2.0828   -0.8542    0.0533 C   0  0  0  0  0  0  0  0  0  0  0  0
    2.3141   -2.1616    0.4305 C   0  0  0  0  0  0  0  0  0  0  0  0
    1.3191   -3.0473    0.7812 C   0  0  0  0  0  0  0  0  0  0  0  0
    0.0173   -2.6193    0.7591 C   0  0  0  0  0  0  0  0  0  0  0  0
   -1.1560   -3.2261    1.0381 N   0  0  0  0  0  0  0  0  0  0  0  0
   -2.1428   -2.3696    0.8592 N   0  0  0  0  0  0  0  0  0  0  0  0
   -1.6292   -1.1701    0.4545 C   0  0  0  0  0  0  0  0  0  0  0  0
   -2.3790    0.0338    0.1469 C   0  0  0  0  0  0  0  0  0  0  0  0
   -3.5065   -0.0020   -0.6435 C   0  0  0  0  0  0  0  0  0  0  0  0
   -4.2393    1.1296   -0.9448 C   0  0  0  0  0  0  0  0  0  0  0  0
   -3.8305    2.3543   -0.4354 C   0  0  0  0  0  0  0  0  0  0  0  0
   -4.5787    3.4437   -0.7553 F   0  0  0  0  0  0  0  0  0  0  0  0
   -2.7140    2.4182    0.3526 C   0  0  0  0  0  0  0  0  0  0  0  0
   -1.9876    1.2561    0.6440 C   0  0  0  0  0  0  0  0  0  0  0  0
   -0.2599   -1.3003    0.3823 C   0  0  0  0  0  0  0  0  0  0  0  0
    0.7705   -0.4424    0.0369 C   0  0  0  0  0  0  0  0  0  0  0  0
    4.6093    2.6070   -0.1150 H   0  0  0  0  0  0  0  0  0  0  0  0
    3.9010    2.9803   -1.7699 H   0  0  0  0  0  0  0  0  0  0  0  0
    4.9494    1.5385   -1.5171 H   0  0  0  0  0  0  0  0  0  0  0  0
    2.0932    1.7475   -0.7350 H   0  0  0  0  0  0  0  0  0  0  0  0
    3.3510   -2.4988    0.4470 H   0  0  0  0  0  0  0  0  0  0  0  0
    1.5252   -4.0788    1.0768 H   0  0  0  0  0  0  0  0  0  0  0  0
   -1.3163   -4.2157    1.3506 H   0  0  0  0  0  0  0  0  0  0  0  0
   -3.8306   -0.9460   -1.0424 H   0  0  0  0  0  0  0  0  0  0  0  0
   -5.1205    1.0429   -1.5733 H   0  0  0  0  0  0  0  0  0  0  0  0
   -2.4162    3.3798    0.7365 H   0  0  0  0  0  0  0  0  0  0  0  0
   -1.1278    1.3576    1.2650 H   0  0  0  0  0  0  0  0  0  0  0  0
    0.5246    0.5635   -0.2507 H   0  0  0  0  0  0  0  0  0  0  0  0
  1  2  1  0
  2  3  1  0
  3  4  2  0
  3  5  1  0
  5  6  2  0
  6  7  1  0
  7  8  2  0
  8  9  1  0
  9 10  1  0
 10 11  2  0
 11 12  1  0
 12 13  2  0
 13 14  1  0
 14 15  2  0
 15 16  1  0
 15 17  1  0
 17 18  2  0
 11 19  1  0
 19 20  2  0
 20  5  1  0
 19  8  1  0
 18 12  1  0
  1 21  1  0
  1 22  1  0
  1 23  1  0
  2 24  1  0
  6 25  1  0
  7 26  1  0
  9 27  1  0
 13 28  1  0
 14 29  1  0
 17 30  1  0
 18 31  1  0
 20 32  1  0
M  END
$$$$
[H]C1=C(N2C([H])([H])C([H])([H])C([H])([H])[C@@]2([H])N([H])c2nc(N([H])c3c([H])c([H])c(C(=O)N([H])C([H])([H])C(F)(F)F)c([H])c3[H])nc([H])c2C(F)(F)F)C([H])([H])C([H])([H])C(C([H])([H])[H])(C([H])([H])[H])C(=O)N([H])C([H])([H])C([H])([H])C1([H])[H]
     RDKit          3D

 79 82  0  0  0  0  0  0  0  0999 V2000
   -5.1886   -1.7664   -1.2281 C   0  0  0  0  0  0  0  0  0  0  0  0
   -5.6371   -2.5532   -0.0748 C   0  0  0  0  0  0  0  0  0  0  0  0
   -4.9628   -2.4906    1.1654 N   0  0  0  0  0  0  0  0  0  0  0  0
   -4.0401   -1.6187    1.7295 C   0  0  0  0  0  0  0  0  0  0  0  0
   -2.9313   -2.0995    2.1656 O   0  0  0  0  0  0  0  0  0  0  0  0
   -4.1130   -0.1530    1.9315 C   0  0  0  0  0  0  0  0  0  0  0  0
   -5.4077    0.4753    1.4872 C   0  0  0  0  0  0  0  0  0  0  0  0
   -4.1877    0.0125    3.4846 C   0  0  0  0  0  0  0  0  0  0  0  0
   -2.8960    0.6132    1.5564 C   0  0  0  0  0  0  0  0  0  0  0  0
   -2.1664    0.2544    0.3267 C   0  0  0  0  0  0  0  0  0  0  0  0
   -2.7225    0.5636   -0.9692 C   0  0  0  0  0  0  0  0  0  0  0  0
   -3.3938   -0.2732   -1.7486 C   0  0  0  0  0  0  0  0  0  0  0  0
   -3.7115   -1.6830   -1.4633 C   0  0  0  0  0  0  0  0  0  0  0  0
   -2.5593    1.8724   -1.5356 N   0  0  0  0  0  0  0  0  0  0  0  0
   -3.1841    3.1226   -1.0808 C   0  0  0  0  0  0  0  0  0  0  0  0
   -2.1073    4.1288   -1.2857 C   0  0  0  0  0  0  0  0  0  0  0  0
   -1.0324    3.4532   -2.1640 C   0  0  0  0  0  0  0  0  0  0  0  0
   -1.8135    2.3019   -2.7021 C   0  0  1  0  0  0  0  0  0  0  0  0
   -1.1221    1.3142   -3.4316 N   0  0  0  0  0  0  0  0  0  0  0  0
    0.0567    0.6810   -3.0286 C   0  0  0  0  0  0  0  0  0  0  0  0
    0.7001    1.0020   -1.9054 N   0  0  0  0  0  0  0  0  0  0  0  0
    1.8631    0.4717   -1.4675 C   0  0  0  0  0  0  0  0  0  0  0  0
    2.4428    0.9290   -0.2557 N   0  0  0  0  0  0  0  0  0  0  0  0
    3.6278    0.5071    0.3505 C   0  0  0  0  0  0  0  0  0  0  0  0
    4.3453   -0.6152    0.0628 C   0  0  0  0  0  0  0  0  0  0  0  0
    5.5380   -0.9428    0.7007 C   0  0  0  0  0  0  0  0  0  0  0  0
    6.0723   -0.1407    1.6762 C   0  0  0  0  0  0  0  0  0  0  0  0
    5.3543    1.0132    1.9859 C   0  0  0  0  0  0  0  0  0  0  0  0
    4.1884    1.3248    1.3561 C   0  0  0  0  0  0  0  0  0  0  0  0
    7.3122   -0.4468    2.3714 C   0  0  0  0  0  0  0  0  0  0  0  0
    7.8411    0.5060    2.9937 O   0  0  0  0  0  0  0  0  0  0  0  0
    7.8906   -1.7162    2.3602 N   0  0  0  0  0  0  0  0  0  0  0  0
    9.0815   -2.1914    2.9915 C   0  0  0  0  0  0  0  0  0  0  0  0
    9.1161   -2.1920    4.4717 C   0  0  0  0  0  0  0  0  0  0  0  0
    8.9704   -0.9501    5.0036 F   0  0  0  0  0  0  0  0  0  0  0  0
    8.1678   -3.0672    4.9918 F   0  0  0  0  0  0  0  0  0  0  0  0
   10.3682   -2.7064    4.8394 F   0  0  0  0  0  0  0  0  0  0  0  0
    2.3860   -0.4666   -2.2727 N   0  0  0  0  0  0  0  0  0  0  0  0
    1.8108   -0.8544   -3.4188 C   0  0  0  0  0  0  0  0  0  0  0  0
    0.6165   -0.2987   -3.8526 C   0  0  0  0  0  0  0  0  0  0  0  0
   -0.0016   -0.7573   -5.1233 C   0  0  0  0  0  0  0  0  0  0  0  0
   -1.2406   -1.3094   -4.9636 F   0  0  0  0  0  0  0  0  0  0  0  0
    0.7833   -1.7809   -5.6900 F   0  0  0  0  0  0  0  0  0  0  0  0
    0.0354    0.2491   -6.0950 F   0  0  0  0  0  0  0  0  0  0  0  0
   -5.6189   -2.2838   -2.1481 H   0  0  0  0  0  0  0  0  0  0  0  0
   -5.6951   -0.7518   -1.3363 H   0  0  0  0  0  0  0  0  0  0  0  0
   -5.7900   -3.6272   -0.4250 H   0  0  0  0  0  0  0  0  0  0  0  0
   -6.7097   -2.2422    0.1314 H   0  0  0  0  0  0  0  0  0  0  0  0
   -5.2429   -3.3172    1.8056 H   0  0  0  0  0  0  0  0  0  0  0  0
   -6.2023   -0.2861    1.4394 H   0  0  0  0  0  0  0  0  0  0  0  0
   -5.2108    0.9862    0.5282 H   0  0  0  0  0  0  0  0  0  0  0  0
   -5.7746    1.2586    2.1808 H   0  0  0  0  0  0  0  0  0  0  0  0
   -4.1628    1.0897    3.7406 H   0  0  0  0  0  0  0  0  0  0  0  0
   -3.4102   -0.5898    3.9621 H   0  0  0  0  0  0  0  0  0  0  0  0
   -5.1702   -0.4052    3.7860 H   0  0  0  0  0  0  0  0  0  0  0  0
   -3.1307    1.6920    1.6954 H   0  0  0  0  0  0  0  0  0  0  0  0
   -2.1233    0.4476    2.4008 H   0  0  0  0  0  0  0  0  0  0  0  0
   -1.8296   -0.8075    0.4371 H   0  0  0  0  0  0  0  0  0  0  0  0
   -1.1661    0.8110    0.4098 H   0  0  0  0  0  0  0  0  0  0  0  0
   -3.7593    0.0914   -2.7010 H   0  0  0  0  0  0  0  0  0  0  0  0
   -3.0871   -2.1545   -0.6996 H   0  0  0  0  0  0  0  0  0  0  0  0
   -3.4072   -2.2388   -2.4082 H   0  0  0  0  0  0  0  0  0  0  0  0
   -4.0415    3.2645   -1.7967 H   0  0  0  0  0  0  0  0  0  0  0  0
   -3.6087    3.0792   -0.0901 H   0  0  0  0  0  0  0  0  0  0  0  0
   -1.6687    4.3854   -0.2870 H   0  0  0  0  0  0  0  0  0  0  0  0
   -2.5357    5.0138   -1.7916 H   0  0  0  0  0  0  0  0  0  0  0  0
   -0.1586    3.2501   -1.5630 H   0  0  0  0  0  0  0  0  0  0  0  0
   -0.7520    4.1903   -2.9604 H   0  0  0  0  0  0  0  0  0  0  0  0
   -2.6235    2.8004   -3.3482 H   0  0  0  0  0  0  0  0  0  0  0  0
   -1.5503    1.0335   -4.3836 H   0  0  0  0  0  0  0  0  0  0  0  0
    1.8630    1.6938    0.2279 H   0  0  0  0  0  0  0  0  0  0  0  0
    4.0021   -1.3132   -0.6784 H   0  0  0  0  0  0  0  0  0  0  0  0
    6.0689   -1.8514    0.4229 H   0  0  0  0  0  0  0  0  0  0  0  0
    5.7667    1.6583    2.7562 H   0  0  0  0  0  0  0  0  0  0  0  0
    3.6416    2.2389    1.6168 H   0  0  0  0  0  0  0  0  0  0  0  0
    7.3651   -2.4693    1.7951 H   0  0  0  0  0  0  0  0  0  0  0  0
    9.9525   -1.5470    2.6545 H   0  0  0  0  0  0  0  0  0  0  0  0
    9.3475   -3.2030    2.5792 H   0  0  0  0  0  0  0  0  0  0  0  0
    2.2723   -1.6195   -4.0411 H   0  0  0  0  0  0  0  0  0  0  0  0
  1  2  1  0
  2  3  1  0
  3  4  1  0
  4  5  2  0
  4  6  1  0
  6  7  1  0
  6  8  1  0
  6  9  1  0
  9 10  1  0
 10 11  1  0
 11 12  2  0
 12 13  1  0
 11 14  1  0
 14 15  1  0
 15 16  1  0
 16 17  1  0
 17 18  1  0
 18 19  1  0
 19 20  1  0
 20 21  2  0
 21 22  1  0
 22 23  1  0
 23 24  1  0
 24 25  2  0
 25 26  1  0
 26 27  2  0
 27 28  1  0
 28 29  2  0
 27 30  1  0
 30 31  2  0
 30 32  1  0
 32 33  1  0
 33 34  1  0
 34 35  1  0
 34 36  1  0
 34 37  1  0
 22 38  2  0
 38 39  1  0
 39 40  2  0
 40 41  1  0
 41 42  1  0
 41 43  1  0
 41 44  1  0
 13  1  1  0
 18 14  1  0
 40 20  1  0
 29 24  1  0
  1 45  1  0
  1 46  1  0
  2 47  1  0
  2 48  1  0
  3 49  1  0
  7 50  1  0
  7 51  1  0
  7 52  1  0
  8 53  1  0
  8 54  1  0
  8 55  1  0
  9 56  1  0
  9 57  1  0
 10 58  1  0
 10 59  1  0
 12 60  1  0
 13 61  1  0
 13 62  1  0
 15 63  1  0
 15 64  1  0
 16 65  1  0
 16 66  1  0
 17 67  1  0
 17 68  1  0
 18 69  1  6
 19 70  1  0
 23 71  1  0
 25 72  1  0
 26 73  1  0
 28 74  1  0
 29 75  1  0
 32 76  1  0
 33 77  1  0
 33 78  1  0
 39 79  1  0
M  END
$$$$
[H]c1c([H])c(C(F)(F)F)c([H])c([H])c1N([H])C(=O)c1c([H])c([H])c([H])c2c1c([C@]1([H])C([H])([H])C([H])([H])[C@]([H])(N3C([H])([H])C([H])([H])C(F)(F)C3([H])[H])C1([H])[H])nn2[H]
     RDKit          3D

 57 61  0  0  0  0  0  0  0  0999 V2000
    5.1472   -4.8036   -0.5368 F   0  0  0  0  0  0  0  0  0  0  0  0
    5.4711   -3.7374   -1.3711 C   0  0  0  0  0  0  0  0  0  0  0  0
    5.2057   -4.0708   -2.6787 F   0  0  0  0  0  0  0  0  0  0  0  0
    6.8227   -3.4622   -1.1652 F   0  0  0  0  0  0  0  0  0  0  0  0
    4.7199   -2.5278   -0.9437 C   0  0  0  0  0  0  0  0  0  0  0  0
    5.0053   -1.3018   -1.4958 C   0  0  0  0  0  0  0  0  0  0  0  0
    4.3494   -0.1555   -1.1353 C   0  0  0  0  0  0  0  0  0  0  0  0
    3.3274   -0.1799   -0.1604 C   0  0  0  0  0  0  0  0  0  0  0  0
    2.6775    1.0130    0.1737 N   0  0  0  0  0  0  0  0  0  0  0  0
    1.8669    1.3132    1.2830 C   0  0  0  0  0  0  0  0  0  0  0  0
    1.6343    0.4626    2.1528 O   0  0  0  0  0  0  0  0  0  0  0  0
    1.2746    2.6422    1.4656 C   0  0  0  0  0  0  0  0  0  0  0  0
    1.9601    3.5275    2.3177 C   0  0  0  0  0  0  0  0  0  0  0  0
    1.5347    4.8243    2.4158 C   0  0  0  0  0  0  0  0  0  0  0  0
    0.4445    5.2573    1.6868 C   0  0  0  0  0  0  0  0  0  0  0  0
   -0.2338    4.4225    0.8628 C   0  0  0  0  0  0  0  0  0  0  0  0
   -1.3121    4.5156    0.0619 N   0  0  0  0  0  0  0  0  0  0  0  0
   -1.5725    3.3891   -0.5007 N   0  0  0  0  0  0  0  0  0  0  0  0
   -0.6677    2.4380   -0.1104 C   0  0  0  0  0  0  0  0  0  0  0  0
   -0.7435    1.0507   -0.5037 C   0  0  2  0  0  0  0  0  0  0  0  0
   -1.7107    0.8574   -1.6974 C   0  0  0  0  0  0  0  0  0  0  0  0
   -2.0998   -0.6129   -1.5522 C   0  0  0  0  0  0  0  0  0  0  0  0
   -1.8704   -0.9841   -0.1218 C   0  0  1  0  0  0  0  0  0  0  0  0
   -1.6436    0.3402    0.5562 C   0  0  0  0  0  0  0  0  0  0  0  0
   -2.9514   -1.7356    0.4814 N   0  0  0  0  0  0  0  0  0  0  0  0
   -4.1833   -1.0065    0.5434 C   0  0  0  0  0  0  0  0  0  0  0  0
   -5.2346   -2.0954    0.5759 C   0  0  0  0  0  0  0  0  0  0  0  0
   -4.5720   -3.3406    0.0494 C   0  0  0  0  0  0  0  0  0  0  0  0
   -4.6042   -4.3662    0.9954 F   0  0  0  0  0  0  0  0  0  0  0  0
   -5.2162   -3.7887   -1.1044 F   0  0  0  0  0  0  0  0  0  0  0  0
   -3.1794   -2.9209   -0.2741 C   0  0  0  0  0  0  0  0  0  0  0  0
    0.1866    3.0778    0.7464 C   0  0  0  0  0  0  0  0  0  0  0  0
    3.0526   -1.4125    0.3820 C   0  0  0  0  0  0  0  0  0  0  0  0
    3.7325   -2.5723    0.0023 C   0  0  0  0  0  0  0  0  0  0  0  0
    5.8044   -1.2838   -2.2537 H   0  0  0  0  0  0  0  0  0  0  0  0
    4.5892    0.7974   -1.5833 H   0  0  0  0  0  0  0  0  0  0  0  0
    2.8088    1.8286   -0.5152 H   0  0  0  0  0  0  0  0  0  0  0  0
    2.7949    3.1188    2.8498 H   0  0  0  0  0  0  0  0  0  0  0  0
    2.0614    5.5016    3.0720 H   0  0  0  0  0  0  0  0  0  0  0  0
    0.1098    6.2987    1.7700 H   0  0  0  0  0  0  0  0  0  0  0  0
   -1.8507    5.4191   -0.0652 H   0  0  0  0  0  0  0  0  0  0  0  0
    0.1101    0.4300   -0.5891 H   0  0  0  0  0  0  0  0  0  0  0  0
   -2.5749    1.5215   -1.4793 H   0  0  0  0  0  0  0  0  0  0  0  0
   -1.2362    1.0304   -2.6597 H   0  0  0  0  0  0  0  0  0  0  0  0
   -1.4119   -1.2293   -2.1816 H   0  0  0  0  0  0  0  0  0  0  0  0
   -3.1153   -0.7337   -1.9268 H   0  0  0  0  0  0  0  0  0  0  0  0
   -0.9281   -1.5518   -0.0094 H   0  0  0  0  0  0  0  0  0  0  0  0
   -1.1463    0.2809    1.5116 H   0  0  0  0  0  0  0  0  0  0  0  0
   -2.5719    0.9690    0.5535 H   0  0  0  0  0  0  0  0  0  0  0  0
   -4.3082   -0.4255    1.4826 H   0  0  0  0  0  0  0  0  0  0  0  0
   -4.3512   -0.4005   -0.3482 H   0  0  0  0  0  0  0  0  0  0  0  0
   -5.5797   -2.3044    1.6099 H   0  0  0  0  0  0  0  0  0  0  0  0
   -6.1010   -1.8643   -0.0670 H   0  0  0  0  0  0  0  0  0  0  0  0
   -2.4636   -3.6957    0.0783 H   0  0  0  0  0  0  0  0  0  0  0  0
   -3.0344   -2.6949   -1.3571 H   0  0  0  0  0  0  0  0  0  0  0  0
    2.2787   -1.5228    1.1299 H   0  0  0  0  0  0  0  0  0  0  0  0
    3.4986   -3.5461    0.4441 H   0  0  0  0  0  0  0  0  0  0  0  0
  1  2  1  0
  2  3  1  0
  2  4  1  0
  2  5  1  0
  5  6  2  0
  6  7  1  0
  7  8  2  0
  8  9  1  0
  9 10  1  0
 10 11  2  0
 10 12  1  0
 12 13  2  0
 13 14  1  0
 14 15  2  0
 15 16  1  0
 16 17  1  0
 17 18  1  0
 18 19  2  0
 19 20  1  0
 20 21  1  0
 21 22  1  0
 22 23  1  0
 23 24  1  0
 23 25  1  0
 25 26  1  0
 26 27  1  0
 27 28  1  0
 28 29  1  0
 28 30  1  0
 28 31  1  0
 19 32  1  0
  8 33  1  0
 33 34  2  0
 34  5  1  0
 32 12  1  0
 32 16  2  0
 24 20  1  0
 31 25  1  0
  6 35  1  0
  7 36  1  0
  9 37  1  0
 13 38  1  0
 14 39  1  0
 15 40  1  0
 17 41  1  0
 20 42  1  6
 21 43  1  0
 21 44  1  0
 22 45  1  0
 22 46  1  0
 23 47  1  6
 24 48  1  0
 24 49  1  0
 26 50  1  0
 26 51  1  0
 27 52  1  0
 27 53  1  0
 31 54  1  0
 31 55  1  0
 33 56  1  0
 34 57  1  0
M  END
$$$$
