[H]N=C(N([H])[H])N([H])C([H])([H])C([H])([H])C([H])([H])[C@@]([H])(C(=O)c1nc([H])c([H])s1)N([H])C(=O)[C@@]1([H])N(C(=O)[C@]([H])(N([H])C(=O)OC([H])([H])c2c([H])c([H])c([H])c([H])c2[H])C([H])([H])c2c([H])c([H])c([H])c([H])c2[H])C([H])([H])C([H])([H])C1([H])[H]
     RDKit          3D

 81 84  0  0  0  0  0  0  0  0999 V2000
    7.9115    1.8550   -2.0745 N   0  0  0  0  0  0  0  0  0  0  0  0
    7.8249    0.7892   -1.1475 C   0  0  0  0  0  0  0  0  0  0  0  0
    8.3891   -0.3309   -1.4123 N   0  0  0  0  0  0  0  0  0  0  0  0
    7.1217    0.9418    0.0713 N   0  0  0  0  0  0  0  0  0  0  0  0
    6.9333   -0.1395    0.9865 C   0  0  0  0  0  0  0  0  0  0  0  0
    6.1250    0.3038    2.2152 C   0  0  0  0  0  0  0  0  0  0  0  0
    4.7944    0.8055    1.8679 C   0  0  0  0  0  0  0  0  0  0  0  0
    3.8028    0.0220    1.1359 C   0  0  2  0  0  0  0  0  0  0  0  0
    2.6105    0.8981    0.8962 N   0  0  0  0  0  0  0  0  0  0  0  0
    2.1743    1.3147   -0.3554 C   0  0  0  0  0  0  0  0  0  0  0  0
    2.8709    0.8503   -1.3463 O   0  0  0  0  0  0  0  0  0  0  0  0
    1.0778    2.1848   -0.6848 C   0  0  2  0  0  0  0  0  0  0  0  0
    0.6881    3.1858    0.4046 C   0  0  0  0  0  0  0  0  0  0  0  0
   -0.5444    3.8159   -0.2470 C   0  0  0  0  0  0  0  0  0  0  0  0
   -0.8920    2.9389   -1.4462 C   0  0  0  0  0  0  0  0  0  0  0  0
   -0.2017    1.6851   -1.0302 N   0  0  0  0  0  0  0  0  0  0  0  0
   -0.8884    0.4665   -1.0320 C   0  0  0  0  0  0  0  0  0  0  0  0
   -0.3330   -0.5597   -0.5954 O   0  0  0  0  0  0  0  0  0  0  0  0
   -2.2766    0.2870   -1.5263 C   0  0  1  0  0  0  0  0  0  0  0  0
   -2.1962    0.3856   -3.0364 C   0  0  0  0  0  0  0  0  0  0  0  0
   -3.5164    0.2274   -3.6882 C   0  0  0  0  0  0  0  0  0  0  0  0
   -3.9598   -1.0304   -4.0542 C   0  0  0  0  0  0  0  0  0  0  0  0
   -5.1868   -1.1847   -4.6619 C   0  0  0  0  0  0  0  0  0  0  0  0
   -6.0054   -0.0938   -4.9217 C   0  0  0  0  0  0  0  0  0  0  0  0
   -5.5866    1.1557   -4.5685 C   0  0  0  0  0  0  0  0  0  0  0  0
   -4.3484    1.2940   -3.9576 C   0  0  0  0  0  0  0  0  0  0  0  0
   -2.7639   -1.0586   -1.2339 N   0  0  0  0  0  0  0  0  0  0  0  0
   -4.0247   -1.2265   -0.5747 C   0  0  0  0  0  0  0  0  0  0  0  0
   -4.6774   -0.1670   -0.2813 O   0  0  0  0  0  0  0  0  0  0  0  0
   -4.5863   -2.4256   -0.2335 O   0  0  0  0  0  0  0  0  0  0  0  0
   -5.8248   -2.5573    0.4080 C   0  0  0  0  0  0  0  0  0  0  0  0
   -5.9078   -1.8968    1.7300 C   0  0  0  0  0  0  0  0  0  0  0  0
   -7.1280   -1.5826    2.3185 C   0  0  0  0  0  0  0  0  0  0  0  0
   -7.2023   -0.9677    3.5652 C   0  0  0  0  0  0  0  0  0  0  0  0
   -6.0512   -0.6468    4.2643 C   0  0  0  0  0  0  0  0  0  0  0  0
   -4.8455   -0.9532    3.6918 C   0  0  0  0  0  0  0  0  0  0  0  0
   -4.7846   -1.5647    2.4515 C   0  0  0  0  0  0  0  0  0  0  0  0
    3.3930   -1.3110    1.4437 C   0  0  0  0  0  0  0  0  0  0  0  0
    2.3998   -1.7175    0.6684 O   0  0  0  0  0  0  0  0  0  0  0  0
    3.7912   -2.3262    2.3919 C   0  0  0  0  0  0  0  0  0  0  0  0
    4.6479   -2.4490    3.3567 N   0  0  0  0  0  0  0  0  0  0  0  0
    4.7878   -3.5238    4.0479 C   0  0  0  0  0  0  0  0  0  0  0  0
    3.9792   -4.5848    3.7328 C   0  0  0  0  0  0  0  0  0  0  0  0
    3.0736   -3.9252    2.4456 S   0  0  0  0  0  0  0  0  0  0  0  0
    8.8257    2.3349   -2.2517 H   0  0  0  0  0  0  0  0  0  0  0  0
    7.1030    2.2195   -2.6210 H   0  0  0  0  0  0  0  0  0  0  0  0
    8.3872   -1.1684   -0.8088 H   0  0  0  0  0  0  0  0  0  0  0  0
    6.7320    1.8767    0.3014 H   0  0  0  0  0  0  0  0  0  0  0  0
    7.9200   -0.5464    1.2900 H   0  0  0  0  0  0  0  0  0  0  0  0
    6.4157   -0.9668    0.4461 H   0  0  0  0  0  0  0  0  0  0  0  0
    6.7629    1.2492    2.5322 H   0  0  0  0  0  0  0  0  0  0  0  0
    6.3187   -0.3559    3.0183 H   0  0  0  0  0  0  0  0  0  0  0  0
    4.8729    1.8757    1.4335 H   0  0  0  0  0  0  0  0  0  0  0  0
    4.2905    1.0722    2.8772 H   0  0  0  0  0  0  0  0  0  0  0  0
    4.2131   -0.0485    0.0529 H   0  0  0  0  0  0  0  0  0  0  0  0
    2.1167    1.1845    1.7568 H   0  0  0  0  0  0  0  0  0  0  0  0
    1.3504    2.8817   -1.5562 H   0  0  0  0  0  0  0  0  0  0  0  0
    0.3918    2.6598    1.3250 H   0  0  0  0  0  0  0  0  0  0  0  0
    1.4784    3.9262    0.5823 H   0  0  0  0  0  0  0  0  0  0  0  0
   -0.2939    4.8081   -0.6239 H   0  0  0  0  0  0  0  0  0  0  0  0
   -1.3822    3.8905    0.4591 H   0  0  0  0  0  0  0  0  0  0  0  0
   -1.9629    2.8066   -1.5633 H   0  0  0  0  0  0  0  0  0  0  0  0
   -0.4350    3.3181   -2.3780 H   0  0  0  0  0  0  0  0  0  0  0  0
   -2.9486    0.9999   -1.0775 H   0  0  0  0  0  0  0  0  0  0  0  0
   -1.6956    1.3047   -3.3793 H   0  0  0  0  0  0  0  0  0  0  0  0
   -1.5355   -0.4489   -3.3638 H   0  0  0  0  0  0  0  0  0  0  0  0
   -3.3285   -1.8720   -3.8529 H   0  0  0  0  0  0  0  0  0  0  0  0
   -5.5260   -2.1608   -4.9437 H   0  0  0  0  0  0  0  0  0  0  0  0
   -6.9838   -0.2085   -5.4037 H   0  0  0  0  0  0  0  0  0  0  0  0
   -6.2135    2.0350   -4.7627 H   0  0  0  0  0  0  0  0  0  0  0  0
   -4.0613    2.2874   -3.6980 H   0  0  0  0  0  0  0  0  0  0  0  0
   -2.2323   -1.8997   -1.4847 H   0  0  0  0  0  0  0  0  0  0  0  0
   -6.6702   -2.2326   -0.2668 H   0  0  0  0  0  0  0  0  0  0  0  0
   -6.0336   -3.6469    0.6115 H   0  0  0  0  0  0  0  0  0  0  0  0
   -8.0557   -1.8052    1.8256 H   0  0  0  0  0  0  0  0  0  0  0  0
   -8.1422   -0.7190    4.0331 H   0  0  0  0  0  0  0  0  0  0  0  0
   -6.0931   -0.1669    5.2383 H   0  0  0  0  0  0  0  0  0  0  0  0
   -3.9540   -0.6947    4.2550 H   0  0  0  0  0  0  0  0  0  0  0  0
   -3.7727   -1.7728    2.0691 H   0  0  0  0  0  0  0  0  0  0  0  0
    5.5277   -3.6208    4.8751 H   0  0  0  0  0  0  0  0  0  0  0  0
    3.9492   -5.5802    4.2027 H   0  0  0  0  0  0  0  0  0  0  0  0
  1  2  1  0
  2  3  2  3
  2  4  1  0
  4  5  1  0
  5  6  1  0
  6  7  1  0
  7  8  1  0
  8  9  1  0
  9 10  1  0
 10 11  2  0
 10 12  1  0
 12 13  1  0
 13 14  1  0
 14 15  1  0
 15 16  1  0
 16 17  1  0
 17 18  2  0
 17 19  1  0
 19 20  1  0
 20 21  1  0
 21 22  2  0
 22 23  1  0
 23 24  2  0
 24 25  1  0
 25 26  2  0
 19 27  1  0
 27 28  1  0
 28 29  2  0
 28 30  1  0
 30 31  1  0
 31 32  1  0
 32 33  2  0
 33 34  1  0
 34 35  2  0
 35 36  1  0
 36 37  2  0
  8 38  1  0
 38 39  2  0
 38 40  1  0
 40 41  2  0
 41 42  1  0
 42 43  2  0
 43 44  1  0
 16 12  1  0
 26 21  1  0
 37 32  1  0
 44 40  1  0
  1 45  1  0
  1 46  1  0
  3 47  1  0
  4 48  1  0
  5 49  1  0
  5 50  1  0
  6 51  1  0
  6 52  1  0
  7 53  1  0
  7 54  1  0
  8 55  1  6
  9 56  1  0
 12 57  1  6
 13 58  1  0
 13 59  1  0
 14 60  1  0
 14 61  1  0
 15 62  1  0
 15 63  1  0
 19 64  1  1
 20 65  1  0
 20 66  1  0
 22 67  1  0
 23 68  1  0
 24 69  1  0
 25 70  1  0
 26 71  1  0
 27 72  1  0
 31 73  1  0
 31 74  1  0
 33 75  1  0
 34 76  1  0
 35 77  1  0
 36 78  1  0
 37 79  1  0
 42 80  1  0
 43 81  1  0
M  END
$$$$
[H]c1c(Cl)c([H])c(C(=O)N2C([H])([H])C([H])([H])C([H])([H])[C@@]2([H])C([H])([H])N([H])C(=O)c2c([H])c(OC([H])([H])[H])c(OC([H])([H])[H])c(OC([H])([H])[H])c2[H])c([H])c1Cl
     RDKit          3D

 55 57  0  0  0  0  0  0  0  0999 V2000
   -4.7211    1.6321    2.4315 C   0  0  0  0  0  0  0  0  0  0  0  0
   -5.4137    0.8071    1.5177 O   0  0  0  0  0  0  0  0  0  0  0  0
   -4.7634    0.2281    0.4698 C   0  0  0  0  0  0  0  0  0  0  0  0
   -3.3913    0.4613    0.3064 C   0  0  0  0  0  0  0  0  0  0  0  0
   -2.7209   -0.1161   -0.7464 C   0  0  0  0  0  0  0  0  0  0  0  0
   -3.4402   -0.9204   -1.6217 C   0  0  0  0  0  0  0  0  0  0  0  0
   -4.7913   -1.1474   -1.4565 C   0  0  0  0  0  0  0  0  0  0  0  0
   -5.4157   -1.9638   -2.3822 O   0  0  0  0  0  0  0  0  0  0  0  0
   -4.7831   -2.5689   -3.4636 C   0  0  0  0  0  0  0  0  0  0  0  0
   -5.4649   -0.5699   -0.4013 C   0  0  0  0  0  0  0  0  0  0  0  0
   -6.8265   -0.8300   -0.2801 O   0  0  0  0  0  0  0  0  0  0  0  0
   -7.3255   -1.8519    0.5612 C   0  0  0  0  0  0  0  0  0  0  0  0
   -1.2950    0.1059   -0.9027 C   0  0  0  0  0  0  0  0  0  0  0  0
   -0.8444    0.2188   -2.0657 O   0  0  0  0  0  0  0  0  0  0  0  0
   -0.4189    0.1922    0.1975 N   0  0  0  0  0  0  0  0  0  0  0  0
    0.9705    0.4061   -0.0360 C   0  0  0  0  0  0  0  0  0  0  0  0
    1.8328    0.4524    1.1544 C   0  0  2  0  0  0  0  0  0  0  0  0
    1.5996    1.4717    2.1794 C   0  0  0  0  0  0  0  0  0  0  0  0
    2.3216    2.6732    1.6819 C   0  0  0  0  0  0  0  0  0  0  0  0
    3.6039    2.0049    1.1394 C   0  0  0  0  0  0  0  0  0  0  0  0
    3.2527    0.6649    0.7848 N   0  0  0  0  0  0  0  0  0  0  0  0
    4.0106   -0.3542    0.1714 C   0  0  0  0  0  0  0  0  0  0  0  0
    3.3928   -1.4828   -0.0687 O   0  0  0  0  0  0  0  0  0  0  0  0
    5.3891   -0.3429   -0.2429 C   0  0  0  0  0  0  0  0  0  0  0  0
    6.3029    0.6589   -0.0399 C   0  0  0  0  0  0  0  0  0  0  0  0
    7.6281    0.6040   -0.5038 C   0  0  0  0  0  0  0  0  0  0  0  0
    8.7459    1.9135   -0.2096 Cl  0  0  0  0  0  0  0  0  0  0  0  0
    8.0739   -0.4896   -1.2004 C   0  0  0  0  0  0  0  0  0  0  0  0
    7.1776   -1.5045   -1.4149 C   0  0  0  0  0  0  0  0  0  0  0  0
    7.7650   -2.9087   -2.3140 Cl  0  0  0  0  0  0  0  0  0  0  0  0
    5.8820   -1.4496   -0.9603 C   0  0  0  0  0  0  0  0  0  0  0  0
   -3.8926    1.0741    2.8788 H   0  0  0  0  0  0  0  0  0  0  0  0
   -4.3466    2.5311    1.8651 H   0  0  0  0  0  0  0  0  0  0  0  0
   -5.3750    1.9725    3.2622 H   0  0  0  0  0  0  0  0  0  0  0  0
   -2.8377    1.0951    1.0023 H   0  0  0  0  0  0  0  0  0  0  0  0
   -2.8588   -1.3432   -2.4263 H   0  0  0  0  0  0  0  0  0  0  0  0
   -5.5021   -2.8853   -4.2457 H   0  0  0  0  0  0  0  0  0  0  0  0
   -4.1343   -1.7858   -3.9518 H   0  0  0  0  0  0  0  0  0  0  0  0
   -4.1082   -3.3627   -3.1387 H   0  0  0  0  0  0  0  0  0  0  0  0
   -6.4735   -2.5524    0.7239 H   0  0  0  0  0  0  0  0  0  0  0  0
   -8.1039   -2.4307    0.0285 H   0  0  0  0  0  0  0  0  0  0  0  0
   -7.6481   -1.5094    1.5422 H   0  0  0  0  0  0  0  0  0  0  0  0
   -0.8441    0.0922    1.1509 H   0  0  0  0  0  0  0  0  0  0  0  0
    1.3018   -0.3755   -0.7488 H   0  0  0  0  0  0  0  0  0  0  0  0
    1.0599    1.3746   -0.6152 H   0  0  0  0  0  0  0  0  0  0  0  0
    1.7774   -0.5655    1.6585 H   0  0  0  0  0  0  0  0  0  0  0  0
    2.1120    1.1481    3.1261 H   0  0  0  0  0  0  0  0  0  0  0  0
    0.5553    1.6472    2.4679 H   0  0  0  0  0  0  0  0  0  0  0  0
    1.8098    3.2236    0.8750 H   0  0  0  0  0  0  0  0  0  0  0  0
    2.5921    3.3902    2.4964 H   0  0  0  0  0  0  0  0  0  0  0  0
    4.2794    1.9824    2.0102 H   0  0  0  0  0  0  0  0  0  0  0  0
    3.9788    2.6003    0.2751 H   0  0  0  0  0  0  0  0  0  0  0  0
    6.0161    1.5360    0.5087 H   0  0  0  0  0  0  0  0  0  0  0  0
    9.0849   -0.5616   -1.5699 H   0  0  0  0  0  0  0  0  0  0  0  0
    5.2243   -2.2899   -1.1674 H   0  0  0  0  0  0  0  0  0  0  0  0
  1  2  1  0
  2  3  1  0
  3  4  2  0
  4  5  1  0
  5  6  2  0
  6  7  1  0
  7  8  1  0
  8  9  1  0
  7 10  2  0
 10 11  1  0
 11 12  1  0
  5 13  1  0
 13 14  2  0
 13 15  1  0
 15 16  1  0
 16 17  1  0
 17 18  1  0
 18 19  1  0
 19 20  1  0
 20 21  1  0
 21 22  1  0
 22 23  2  0
 22 24  1  0
 24 25  2  0
 25 26  1  0
 26 27  1  0
 26 28  2  0
 28 29  1  0
 29 30  1  0
 29 31  2  0
 10  3  1  0
 21 17  1  0
 31 24  1  0
  1 32  1  0
  1 33  1  0
  1 34  1  0
  4 35  1  0
  6 36  1  0
  9 37  1  0
  9 38  1  0
  9 39  1  0
 12 40  1  0
 12 41  1  0
 12 42  1  0
 15 43  1  0
 16 44  1  0
 16 45  1  0
 17 46  1  1
 18 47  1  0
 18 48  1  0
 19 49  1  0
 19 50  1  0
 20 51  1  0
 20 52  1  0
 25 53  1  0
 28 54  1  0
 31 55  1  0
M  END
$$$$
[H]c1nc(N([H])c2c([H])c(OC([H])([H])[H])c(OC([H])([H])[H])c(OC([H])([H])[H])c2[H])nc(N([H])c2nc3c(c([H])c2[H])OC(C([H])([H])[H])(C([H])([H])[H])C(=O)N3[H])c1F
     RDKit          3D

 57 60  0  0  0  0  0  0  0  0999 V2000
   -5.6364    2.1181   -1.8630 C   0  0  0  0  0  0  0  0  0  0  0  0
   -5.8443    0.7587   -1.5880 O   0  0  0  0  0  0  0  0  0  0  0  0
   -4.8072    0.0010   -1.0783 C   0  0  0  0  0  0  0  0  0  0  0  0
   -3.5618    0.6012   -0.8432 C   0  0  0  0  0  0  0  0  0  0  0  0
   -2.5031   -0.0703   -0.3477 C   0  0  0  0  0  0  0  0  0  0  0  0
   -1.2316    0.4626   -0.0655 N   0  0  0  0  0  0  0  0  0  0  0  0
   -0.9067    1.8244    0.0656 C   0  0  0  0  0  0  0  0  0  0  0  0
   -1.7494    2.8585   -0.0431 N   0  0  0  0  0  0  0  0  0  0  0  0
   -1.4116    4.1432    0.0863 C   0  0  0  0  0  0  0  0  0  0  0  0
   -0.1125    4.4539    0.3502 C   0  0  0  0  0  0  0  0  0  0  0  0
    0.3587    5.6995    0.5032 F   0  0  0  0  0  0  0  0  0  0  0  0
    0.8217    3.4140    0.4762 C   0  0  0  0  0  0  0  0  0  0  0  0
    2.1801    3.7060    0.7505 N   0  0  0  0  0  0  0  0  0  0  0  0
    3.1050    2.6399    0.8733 C   0  0  0  0  0  0  0  0  0  0  0  0
    4.4571    2.8965    1.1446 C   0  0  0  0  0  0  0  0  0  0  0  0
    5.3443    1.8517    1.2613 C   0  0  0  0  0  0  0  0  0  0  0  0
    4.9285    0.5481    1.1161 C   0  0  0  0  0  0  0  0  0  0  0  0
    5.7961   -0.5293    1.2273 O   0  0  0  0  0  0  0  0  0  0  0  0
    5.5066   -1.7939    0.6515 C   0  0  0  0  0  0  0  0  0  0  0  0
    6.2846   -2.8749    1.3459 C   0  0  0  0  0  0  0  0  0  0  0  0
    5.8127   -1.7705   -0.8228 C   0  0  0  0  0  0  0  0  0  0  0  0
    4.0556   -2.1122    0.8177 C   0  0  0  0  0  0  0  0  0  0  0  0
    3.6763   -3.3008    1.0572 O   0  0  0  0  0  0  0  0  0  0  0  0
    3.1427   -1.0383    0.6962 N   0  0  0  0  0  0  0  0  0  0  0  0
    3.5828    0.3027    0.8467 C   0  0  0  0  0  0  0  0  0  0  0  0
    2.7547    1.3550    0.7416 N   0  0  0  0  0  0  0  0  0  0  0  0
    0.3826    2.1601    0.3289 N   0  0  0  0  0  0  0  0  0  0  0  0
   -2.7045   -1.4372   -0.0691 C   0  0  0  0  0  0  0  0  0  0  0  0
   -3.9082   -2.0549   -0.2874 C   0  0  0  0  0  0  0  0  0  0  0  0
   -4.0666   -3.3859   -0.0045 O   0  0  0  0  0  0  0  0  0  0  0  0
   -2.9762   -4.1177    0.5153 C   0  0  0  0  0  0  0  0  0  0  0  0
   -4.9761   -1.3425   -0.7952 C   0  0  0  0  0  0  0  0  0  0  0  0
   -6.2188   -1.9257   -1.0338 O   0  0  0  0  0  0  0  0  0  0  0  0
   -7.1743   -1.9137    0.0186 C   0  0  0  0  0  0  0  0  0  0  0  0
   -4.7813    2.3111   -2.5387 H   0  0  0  0  0  0  0  0  0  0  0  0
   -5.4850    2.7232   -0.9417 H   0  0  0  0  0  0  0  0  0  0  0  0
   -6.5386    2.5082   -2.4098 H   0  0  0  0  0  0  0  0  0  0  0  0
   -3.4970    1.6360   -1.0973 H   0  0  0  0  0  0  0  0  0  0  0  0
   -0.4103   -0.2136    0.0641 H   0  0  0  0  0  0  0  0  0  0  0  0
   -2.1604    4.9024   -0.0184 H   0  0  0  0  0  0  0  0  0  0  0  0
    2.4712    4.6872    0.8556 H   0  0  0  0  0  0  0  0  0  0  0  0
    4.7318    3.9285    1.2492 H   0  0  0  0  0  0  0  0  0  0  0  0
    6.3943    2.0780    1.4734 H   0  0  0  0  0  0  0  0  0  0  0  0
    5.7812   -3.1588    2.2953 H   0  0  0  0  0  0  0  0  0  0  0  0
    7.3278   -2.5920    1.5737 H   0  0  0  0  0  0  0  0  0  0  0  0
    6.3119   -3.7970    0.7168 H   0  0  0  0  0  0  0  0  0  0  0  0
    5.5475   -2.7321   -1.2838 H   0  0  0  0  0  0  0  0  0  0  0  0
    5.2428   -0.9509   -1.3072 H   0  0  0  0  0  0  0  0  0  0  0  0
    6.8942   -1.5474   -0.9277 H   0  0  0  0  0  0  0  0  0  0  0  0
    2.1474   -1.2464    0.4955 H   0  0  0  0  0  0  0  0  0  0  0  0
   -1.8577   -2.0119    0.3366 H   0  0  0  0  0  0  0  0  0  0  0  0
   -2.2185   -4.1935   -0.2936 H   0  0  0  0  0  0  0  0  0  0  0  0
   -3.3828   -5.1246    0.7905 H   0  0  0  0  0  0  0  0  0  0  0  0
   -2.5554   -3.6060    1.4036 H   0  0  0  0  0  0  0  0  0  0  0  0
   -7.4919   -2.9486    0.2973 H   0  0  0  0  0  0  0  0  0  0  0  0
   -8.0902   -1.3564   -0.3279 H   0  0  0  0  0  0  0  0  0  0  0  0
   -6.7818   -1.4227    0.9319 H   0  0  0  0  0  0  0  0  0  0  0  0
  1  2  1  0
  2  3  1  0
  3  4  2  0
  4  5  1  0
  5  6  1  0
  6  7  1  0
  7  8  2  0
  8  9  1  0
  9 10  2  0
 10 11  1  0
 10 12  1  0
 12 13  1  0
 13 14  1  0
 14 15  2  0
 15 16  1  0
 16 17  2  0
 17 18  1  0
 18 19  1  0
 19 20  1  0
 19 21  1  0
 19 22  1  0
 22 23  2  0
 22 24  1  0
 24 25  1  0
 25 26  2  0
 12 27  2  0
  5 28  2  0
 28 29  1  0
 29 30  1  0
 30 31  1  0
 29 32  2  0
 32 33  1  0
 33 34  1  0
 32  3  1  0
 27  7  1  0
 26 14  1  0
 25 17  1  0
  1 35  1  0
  1 36  1  0
  1 37  1  0
  4 38  1  0
  6 39  1  0
  9 40  1  0
 13 41  1  0
 15 42  1  0
 16 43  1  0
 20 44  1  0
 20 45  1  0
 20 46  1  0
 21 47  1  0
 21 48  1  0
 21 49  1  0
 24 50  1  0
 28 51  1  0
 31 52  1  0
 31 53  1  0
 31 54  1  0
 34 55  1  0
 34 56  1  0
 34 57  1  0
M  END
$$$$
[H]O[C@@]1([H])C([H])([H])C([H])([H])[C@]2([H])[C@]1(C([H])([H])[H])C([H])([H])C([H])([H])[C@]1([H])[C@]3(C([H])([H])[H])C(=C([H])C(=O)C([H])([H])C3([H])[H])C([H])([H])C([H])([H])[C@@]21[H]
     RDKit          3D

 49 52  0  0  0  0  0  0  0  0999 V2000
    2.6003    1.3949    0.7370 C   0  0  0  0  0  0  0  0  0  0  0  0
    2.3315    0.4990   -0.4424 C   0  0  2  0  0  0  0  0  0  0  0  0
    1.5103    1.1614   -1.4949 C   0  0  0  0  0  0  0  0  0  0  0  0
    0.1483    1.4556   -0.9170 C   0  0  0  0  0  0  0  0  0  0  0  0
   -0.5369    0.1560   -0.5507 C   0  0  1  0  0  0  0  0  0  0  0  0
    0.2754   -0.6369    0.4710 C   0  0  1  0  0  0  0  0  0  0  0  0
   -0.3169   -2.0384    0.5263 C   0  0  0  0  0  0  0  0  0  0  0  0
   -1.7749   -2.0482    0.8169 C   0  0  0  0  0  0  0  0  0  0  0  0
   -2.5405   -0.9871    0.1457 C   0  0  0  0  0  0  0  0  0  0  0  0
   -3.7658   -1.2727   -0.2625 C   0  0  0  0  0  0  0  0  0  0  0  0
   -4.6079   -0.3042   -0.9341 C   0  0  0  0  0  0  0  0  0  0  0  0
   -5.6066   -0.6232   -1.6118 O   0  0  0  0  0  0  0  0  0  0  0  0
   -4.2087    1.1393   -0.7699 C   0  0  0  0  0  0  0  0  0  0  0  0
   -2.7163    1.1869   -1.0278 C   0  0  0  0  0  0  0  0  0  0  0  0
   -1.9296    0.3620   -0.0560 C   0  0  2  0  0  0  0  0  0  0  0  0
   -1.9459    1.0713    1.2829 C   0  0  0  0  0  0  0  0  0  0  0  0
    1.6457   -0.7900   -0.0472 C   0  0  2  0  0  0  0  0  0  0  0  0
    2.6444   -1.3862    0.8737 C   0  0  0  0  0  0  0  0  0  0  0  0
    3.9631   -1.0731    0.1623 C   0  0  0  0  0  0  0  0  0  0  0  0
    3.6050   -0.1289   -0.9688 C   0  0  2  0  0  0  0  0  0  0  0  0
    4.5812    0.7519   -1.2889 O   0  0  0  0  0  0  0  0  0  0  0  0
    3.6756    1.2716    1.0471 H   0  0  0  0  0  0  0  0  0  0  0  0
    1.9625    1.2047    1.6015 H   0  0  0  0  0  0  0  0  0  0  0  0
    2.4819    2.4492    0.4115 H   0  0  0  0  0  0  0  0  0  0  0  0
    1.9872    2.1545   -1.7263 H   0  0  0  0  0  0  0  0  0  0  0  0
    1.4562    0.5158   -2.3781 H   0  0  0  0  0  0  0  0  0  0  0  0
   -0.4734    1.9510   -1.6671 H   0  0  0  0  0  0  0  0  0  0  0  0
    0.2714    2.1214   -0.0498 H   0  0  0  0  0  0  0  0  0  0  0  0
   -0.5888   -0.4547   -1.4753 H   0  0  0  0  0  0  0  0  0  0  0  0
    0.1940   -0.1895    1.4684 H   0  0  0  0  0  0  0  0  0  0  0  0
   -0.0876   -2.5040   -0.4691 H   0  0  0  0  0  0  0  0  0  0  0  0
    0.2474   -2.5825    1.3004 H   0  0  0  0  0  0  0  0  0  0  0  0
   -2.1698   -3.0559    0.5263 H   0  0  0  0  0  0  0  0  0  0  0  0
   -1.9002   -2.0016    1.9294 H   0  0  0  0  0  0  0  0  0  0  0  0
   -4.1853   -2.2671   -0.1012 H   0  0  0  0  0  0  0  0  0  0  0  0
   -4.4637    1.4087    0.2637 H   0  0  0  0  0  0  0  0  0  0  0  0
   -4.7180    1.7173   -1.5432 H   0  0  0  0  0  0  0  0  0  0  0  0
   -2.5697    0.8169   -2.0700 H   0  0  0  0  0  0  0  0  0  0  0  0
   -2.4147    2.2480   -0.9356 H   0  0  0  0  0  0  0  0  0  0  0  0
   -2.6695    1.9362    1.2729 H   0  0  0  0  0  0  0  0  0  0  0  0
   -2.2828    0.4031    2.1004 H   0  0  0  0  0  0  0  0  0  0  0  0
   -0.9566    1.5164    1.5155 H   0  0  0  0  0  0  0  0  0  0  0  0
    1.6091   -1.4204   -0.9702 H   0  0  0  0  0  0  0  0  0  0  0  0
    2.6340   -0.7940    1.8359 H   0  0  0  0  0  0  0  0  0  0  0  0
    2.5188   -2.4554    1.0564 H   0  0  0  0  0  0  0  0  0  0  0  0
    4.3735   -2.0337   -0.2265 H   0  0  0  0  0  0  0  0  0  0  0  0
    4.6899   -0.6220    0.8558 H   0  0  0  0  0  0  0  0  0  0  0  0
    3.3380   -0.7531   -1.8418 H   0  0  0  0  0  0  0  0  0  0  0  0
    4.6855    1.5297   -0.7163 H   0  0  0  0  0  0  0  0  0  0  0  0
  2  1  1  1
  2  3  1  0
  3  4  1  0
  4  5  1  0
  5  6  1  0
  6  7  1  0
  7  8  1  0
  8  9  1  0
  9 10  2  0
 10 11  1  0
 11 12  2  0
 11 13  1  0
 13 14  1  0
 14 15  1  0
 15 16  1  1
  6 17  1  0
 17 18  1  0
 18 19  1  0
 19 20  1  0
 20 21  1  0
 17  2  1  0
 20  2  1  0
 15  5  1  0
 15  9  1  0
  1 22  1  0
  1 23  1  0
  1 24  1  0
  3 25  1  0
  3 26  1  0
  4 27  1  0
  4 28  1  0
  5 29  1  6
  6 30  1  1
  7 31  1  0
  7 32  1  0
  8 33  1  0
  8 34  1  0
 10 35  1  0
 13 36  1  0
 13 37  1  0
 14 38  1  0
 14 39  1  0
 16 40  1  0
 16 41  1  0
 16 42  1  0
 17 43  1  6
 18 44  1  0
 18 45  1  0
 19 46  1  0
 19 47  1  0
 20 48  1  6
 21 49  1  0
M  END
$$$$
[H]Oc1c([H])c([H])c(C([H])([H])[C@@]([H])(C(=O)N2C([H])([H])C([H])([H])C([H])([H])[C@@]2([H])C(=O)N([H])C([H])([H])C(=O)N([H])[C@]([H])(C(=O)N([H])[C@]([H])(C(=O)N([H])[C@]([H])(C(=O)N([H])[H])C([H])([H])c2c([H])n([H])c3c([H])c([H])c([H])c([H])c23)C([H])([H])C([H])(C([H])([H])[H])C([H])([H])[H])C([H])([H])c2c([H])c([H])c([H])c([H])c2[H])N([H])[H])c([H])c1[H]
     RDKit          3D

109113  0  0  0  0  0  0  0  0999 V2000
   -0.8329    3.8007    2.2141 C   0  0  0  0  0  0  0  0  0  0  0  0
   -1.8301    2.6189    2.0402 C   0  0  0  0  0  0  0  0  0  0  0  0
   -3.1937    3.1426    2.3132 C   0  0  0  0  0  0  0  0  0  0  0  0
   -1.5490    2.0532    0.7192 C   0  0  0  0  0  0  0  0  0  0  0  0
   -2.2436    0.8951    0.1674 C   0  0  2  0  0  0  0  0  0  0  0  0
   -1.5946    0.6478   -1.2045 N   0  0  0  0  0  0  0  0  0  0  0  0
   -0.5929   -0.2944   -1.2988 C   0  0  0  0  0  0  0  0  0  0  0  0
   -0.2791   -0.8889   -0.1838 O   0  0  0  0  0  0  0  0  0  0  0  0
    0.1752   -0.7326   -2.4544 C   0  0  2  0  0  0  0  0  0  0  0  0
   -0.6588   -1.7028   -3.3361 C   0  0  0  0  0  0  0  0  0  0  0  0
   -1.8877   -1.1308   -3.8788 C   0  0  0  0  0  0  0  0  0  0  0  0
   -3.1032   -1.3121   -3.2620 C   0  0  0  0  0  0  0  0  0  0  0  0
   -4.2706   -0.7759   -3.8192 C   0  0  0  0  0  0  0  0  0  0  0  0
   -4.2437   -0.0568   -4.9904 C   0  0  0  0  0  0  0  0  0  0  0  0
   -3.0193    0.1263   -5.6114 C   0  0  0  0  0  0  0  0  0  0  0  0
   -1.9000   -0.4069   -5.0452 C   0  0  0  0  0  0  0  0  0  0  0  0
    1.3418   -1.5149   -2.0094 N   0  0  0  0  0  0  0  0  0  0  0  0
    2.3053   -2.1022   -2.8496 C   0  0  0  0  0  0  0  0  0  0  0  0
    2.2276   -1.9987   -4.0836 O   0  0  0  0  0  0  0  0  0  0  0  0
    3.4594   -2.8928   -2.3189 C   0  0  0  0  0  0  0  0  0  0  0  0
    3.5462   -2.6892   -0.8510 N   0  0  0  0  0  0  0  0  0  0  0  0
    3.9746   -1.3789   -0.4173 C   0  0  0  0  0  0  0  0  0  0  0  0
    4.2790   -0.5199   -1.3248 O   0  0  0  0  0  0  0  0  0  0  0  0
    4.0771   -0.9818    0.9635 C   0  0  2  0  0  0  0  0  0  0  0  0
    3.1400    0.2680    1.1974 C   0  0  0  0  0  0  0  0  0  0  0  0
    3.9872    1.4061    0.6646 C   0  0  0  0  0  0  0  0  0  0  0  0
    5.4074    0.9297    0.7819 C   0  0  0  0  0  0  0  0  0  0  0  0
    5.3044   -0.3588    1.3928 N   0  0  0  0  0  0  0  0  0  0  0  0
    6.2245   -0.9657    2.3015 C   0  0  0  0  0  0  0  0  0  0  0  0
    5.9447   -2.1316    2.7540 O   0  0  0  0  0  0  0  0  0  0  0  0
    7.4734   -0.3704    2.7731 C   0  0  1  0  0  0  0  0  0  0  0  0
    8.0343   -1.1633    3.8319 N   0  0  0  0  0  0  0  0  0  0  0  0
    8.5017   -0.3966    1.6181 C   0  0  0  0  0  0  0  0  0  0  0  0
    9.7868    0.2011    2.1324 C   0  0  0  0  0  0  0  0  0  0  0  0
   10.7198   -0.6437    2.7042 C   0  0  0  0  0  0  0  0  0  0  0  0
   11.8743   -0.0587    3.2009 C   0  0  0  0  0  0  0  0  0  0  0  0
   12.0805    1.3107    3.1244 C   0  0  0  0  0  0  0  0  0  0  0  0
   13.2678    1.8162    3.6535 O   0  0  0  0  0  0  0  0  0  0  0  0
   11.1465    2.1041    2.5573 C   0  0  0  0  0  0  0  0  0  0  0  0
    9.9651    1.5406    2.0444 C   0  0  0  0  0  0  0  0  0  0  0  0
   -3.6769    0.8324   -0.0483 C   0  0  0  0  0  0  0  0  0  0  0  0
   -4.1377    1.4712   -1.0694 O   0  0  0  0  0  0  0  0  0  0  0  0
   -4.5993    0.1221    0.7372 N   0  0  0  0  0  0  0  0  0  0  0  0
   -6.0195   -0.0253    0.4908 C   0  0  1  0  0  0  0  0  0  0  0  0
   -6.3705   -1.4892    0.4040 C   0  0  0  0  0  0  0  0  0  0  0  0
   -7.7397   -1.8704    0.1972 C   0  0  0  0  0  0  0  0  0  0  0  0
   -8.5227   -2.4867    1.1654 C   0  0  0  0  0  0  0  0  0  0  0  0
   -9.7206   -2.7831    0.6737 N   0  0  0  0  0  0  0  0  0  0  0  0
   -9.7316   -2.3607   -0.6207 C   0  0  0  0  0  0  0  0  0  0  0  0
  -10.7543   -2.4418   -1.5710 C   0  0  0  0  0  0  0  0  0  0  0  0
  -10.5300   -1.9403   -2.8363 C   0  0  0  0  0  0  0  0  0  0  0  0
   -9.3175   -1.3782   -3.1355 C   0  0  0  0  0  0  0  0  0  0  0  0
   -8.2914   -1.2868   -2.2157 C   0  0  0  0  0  0  0  0  0  0  0  0
   -8.5188   -1.7908   -0.9424 C   0  0  0  0  0  0  0  0  0  0  0  0
   -6.8289    0.7656    1.4019 C   0  0  0  0  0  0  0  0  0  0  0  0
   -8.2569    0.8273    1.2215 N   0  0  0  0  0  0  0  0  0  0  0  0
   -6.3075    1.3996    2.3399 O   0  0  0  0  0  0  0  0  0  0  0  0
   -0.6853    3.9415    3.2921 H   0  0  0  0  0  0  0  0  0  0  0  0
    0.0867    3.5761    1.6816 H   0  0  0  0  0  0  0  0  0  0  0  0
   -1.3410    4.7212    1.8178 H   0  0  0  0  0  0  0  0  0  0  0  0
   -1.5713    1.9204    2.8877 H   0  0  0  0  0  0  0  0  0  0  0  0
   -3.1405    4.1674    2.7915 H   0  0  0  0  0  0  0  0  0  0  0  0
   -3.8017    2.4620    2.9509 H   0  0  0  0  0  0  0  0  0  0  0  0
   -3.7413    3.2792    1.3671 H   0  0  0  0  0  0  0  0  0  0  0  0
   -0.4310    1.7635    0.7431 H   0  0  0  0  0  0  0  0  0  0  0  0
   -1.5348    2.8682   -0.0925 H   0  0  0  0  0  0  0  0  0  0  0  0
   -1.9210   -0.0179    0.7347 H   0  0  0  0  0  0  0  0  0  0  0  0
   -1.9436    1.2091   -1.9745 H   0  0  0  0  0  0  0  0  0  0  0  0
    0.5342   -0.0052   -3.1723 H   0  0  0  0  0  0  0  0  0  0  0  0
   -0.0433   -2.1587   -4.1225 H   0  0  0  0  0  0  0  0  0  0  0  0
   -0.9819   -2.5702   -2.6624 H   0  0  0  0  0  0  0  0  0  0  0  0
   -3.2350   -1.8515   -2.3423 H   0  0  0  0  0  0  0  0  0  0  0  0
   -5.2066   -0.9316   -3.3232 H   0  0  0  0  0  0  0  0  0  0  0  0
   -5.1516    0.3667   -5.4367 H   0  0  0  0  0  0  0  0  0  0  0  0
   -2.9892    0.6846   -6.5292 H   0  0  0  0  0  0  0  0  0  0  0  0
   -0.9384   -0.2699   -5.5242 H   0  0  0  0  0  0  0  0  0  0  0  0
    1.4374   -1.6472   -0.9630 H   0  0  0  0  0  0  0  0  0  0  0  0
    3.4031   -3.9552   -2.5025 H   0  0  0  0  0  0  0  0  0  0  0  0
    4.4170   -2.5279   -2.7310 H   0  0  0  0  0  0  0  0  0  0  0  0
    3.2969   -3.4678   -0.2483 H   0  0  0  0  0  0  0  0  0  0  0  0
    3.7190   -1.7129    1.6872 H   0  0  0  0  0  0  0  0  0  0  0  0
    2.9763    0.3557    2.2754 H   0  0  0  0  0  0  0  0  0  0  0  0
    2.2593    0.1040    0.5757 H   0  0  0  0  0  0  0  0  0  0  0  0
    3.7880    2.3404    1.2441 H   0  0  0  0  0  0  0  0  0  0  0  0
    3.7339    1.6038   -0.4066 H   0  0  0  0  0  0  0  0  0  0  0  0
    5.9768    0.9458   -0.1724 H   0  0  0  0  0  0  0  0  0  0  0  0
    5.9569    1.6232    1.4806 H   0  0  0  0  0  0  0  0  0  0  0  0
    7.4067    0.7180    3.0255 H   0  0  0  0  0  0  0  0  0  0  0  0
    7.3548   -1.7754    4.3015 H   0  0  0  0  0  0  0  0  0  0  0  0
    8.4669   -0.5360    4.5389 H   0  0  0  0  0  0  0  0  0  0  0  0
    8.1670    0.2545    0.8018 H   0  0  0  0  0  0  0  0  0  0  0  0
    8.6644   -1.4140    1.2632 H   0  0  0  0  0  0  0  0  0  0  0  0
   10.6038   -1.6952    2.7778 H   0  0  0  0  0  0  0  0  0  0  0  0
   12.5941   -0.7013    3.6371 H   0  0  0  0  0  0  0  0  0  0  0  0
   13.4035    2.8219    3.5959 H   0  0  0  0  0  0  0  0  0  0  0  0
   11.3104    3.1725    2.5036 H   0  0  0  0  0  0  0  0  0  0  0  0
    9.2809    2.2415    1.6097 H   0  0  0  0  0  0  0  0  0  0  0  0
   -4.2158   -0.3548    1.5808 H   0  0  0  0  0  0  0  0  0  0  0  0
   -6.1856    0.3788   -0.5612 H   0  0  0  0  0  0  0  0  0  0  0  0
   -5.7374   -1.9456   -0.4148 H   0  0  0  0  0  0  0  0  0  0  0  0
   -5.9773   -1.9317    1.3704 H   0  0  0  0  0  0  0  0  0  0  0  0
   -8.2081   -2.7087    2.2047 H   0  0  0  0  0  0  0  0  0  0  0  0
  -10.5272   -3.2494    1.1473 H   0  0  0  0  0  0  0  0  0  0  0  0
  -11.6905   -2.8902   -1.3163 H   0  0  0  0  0  0  0  0  0  0  0  0
  -11.3441   -2.0192   -3.5471 H   0  0  0  0  0  0  0  0  0  0  0  0
   -9.1553   -0.9737   -4.1380 H   0  0  0  0  0  0  0  0  0  0  0  0
   -7.3385   -0.8507   -2.4180 H   0  0  0  0  0  0  0  0  0  0  0  0
   -8.8694    0.6291    2.0118 H   0  0  0  0  0  0  0  0  0  0  0  0
   -8.6530    1.0674    0.2960 H   0  0  0  0  0  0  0  0  0  0  0  0
  1  2  1  0
  2  3  1  0
  2  4  1  0
  4  5  1  0
  5  6  1  0
  6  7  1  0
  7  8  2  0
  7  9  1  0
  9 10  1  0
 10 11  1  0
 11 12  2  0
 12 13  1  0
 13 14  2  0
 14 15  1  0
 15 16  2  0
  9 17  1  0
 17 18  1  0
 18 19  2  0
 18 20  1  0
 20 21  1  0
 21 22  1  0
 22 23  2  0
 22 24  1  0
 24 25  1  0
 25 26  1  0
 26 27  1  0
 27 28  1  0
 28 29  1  0
 29 30  2  0
 29 31  1  0
 31 32  1  0
 31 33  1  0
 33 34  1  0
 34 35  2  0
 35 36  1  0
 36 37  2  0
 37 38  1  0
 37 39  1  0
 39 40  2  0
  5 41  1  0
 41 42  2  0
 41 43  1  0
 43 44  1  0
 44 45  1  0
 45 46  1  0
 46 47  2  0
 47 48  1  0
 48 49  1  0
 49 50  2  0
 50 51  1  0
 51 52  2  0
 52 53  1  0
 53 54  2  0
 44 55  1  0
 55 56  1  0
 55 57  2  0
 16 11  1  0
 28 24  1  0
 40 34  1  0
 54 46  1  0
 54 49  1  0
  1 58  1  0
  1 59  1  0
  1 60  1  0
  2 61  1  0
  3 62  1  0
  3 63  1  0
  3 64  1  0
  4 65  1  0
  4 66  1  0
  5 67  1  1
  6 68  1  0
  9 69  1  6
 10 70  1  0
 10 71  1  0
 12 72  1  0
 13 73  1  0
 14 74  1  0
 15 75  1  0
 16 76  1  0
 17 77  1  0
 20 78  1  0
 20 79  1  0
 21 80  1  0
 24 81  1  1
 25 82  1  0
 25 83  1  0
 26 84  1  0
 26 85  1  0
 27 86  1  0
 27 87  1  0
 31 88  1  1
 32 89  1  0
 32 90  1  0
 33 91  1  0
 33 92  1  0
 35 93  1  0
 36 94  1  0
 38 95  1  0
 39 96  1  0
 40 97  1  0
 43 98  1  0
 44 99  1  6
 45100  1  0
 45101  1  0
 47102  1  0
 48103  1  0
 50104  1  0
 51105  1  0
 52106  1  0
 53107  1  0
 56108  1  0
 56109  1  0
M  END
$$$$
[H]N=C(c1c([H])c([H])c([H])c(C([H])([H])[C@]([H])(C(=O)N2C([H])([H])C([H])([H])C([H])([H])[C@@]2([H])C(=O)N([H])C([H])(C([H])=O)C([H])([H])C([H])([H])C([H])([H])N([H])C(=N[H])N([H])[H])N([H])C(=O)OC(C([H])([H])[H])(C([H])([H])[H])C([H])([H])[H])c1[H])N([H])[H]
     RDKit          3D

 79 80  0  0  0  0  0  0  0  0999 V2000
   -4.8317    4.5411   -1.4190 C   0  0  0  0  0  0  0  0  0  0  0  0
   -5.3598    3.1814   -1.9555 C   0  0  0  0  0  0  0  0  0  0  0  0
   -6.8641    3.2302   -1.9226 C   0  0  0  0  0  0  0  0  0  0  0  0
   -4.8774    3.0901   -3.3441 C   0  0  0  0  0  0  0  0  0  0  0  0
   -4.8843    2.2508   -1.0200 O   0  0  0  0  0  0  0  0  0  0  0  0
   -3.5268    1.9657   -0.8693 C   0  0  0  0  0  0  0  0  0  0  0  0
   -2.8296    2.5540   -1.7329 O   0  0  0  0  0  0  0  0  0  0  0  0
   -3.1180    1.1235    0.1550 N   0  0  0  0  0  0  0  0  0  0  0  0
   -1.7976    0.6714    0.5024 C   0  0  2  0  0  0  0  0  0  0  0  0
   -1.7169   -0.5102    1.3787 C   0  0  0  0  0  0  0  0  0  0  0  0
   -2.3182   -1.7565    0.9158 C   0  0  0  0  0  0  0  0  0  0  0  0
   -3.6167   -2.0689    1.2192 C   0  0  0  0  0  0  0  0  0  0  0  0
   -4.2189   -3.2420    0.8148 C   0  0  0  0  0  0  0  0  0  0  0  0
   -3.5075   -4.1525    0.0750 C   0  0  0  0  0  0  0  0  0  0  0  0
   -2.1978   -3.8808   -0.2548 C   0  0  0  0  0  0  0  0  0  0  0  0
   -1.6296   -2.6995    0.1668 C   0  0  0  0  0  0  0  0  0  0  0  0
   -1.4410   -4.8407   -1.0290 C   0  0  0  0  0  0  0  0  0  0  0  0
   -1.9874   -6.0575   -1.4709 N   0  0  0  0  0  0  0  0  0  0  0  0
   -0.2106   -4.5682   -1.3220 N   0  0  0  0  0  0  0  0  0  0  0  0
   -0.9509    1.7659    1.0029 C   0  0  0  0  0  0  0  0  0  0  0  0
   -1.1016    2.8810    0.3251 O   0  0  0  0  0  0  0  0  0  0  0  0
   -0.0302    1.8699    2.0226 N   0  0  0  0  0  0  0  0  0  0  0  0
    0.3535    1.0715    3.1282 C   0  0  0  0  0  0  0  0  0  0  0  0
    0.4815    2.1837    4.2174 C   0  0  0  0  0  0  0  0  0  0  0  0
    1.4538    3.0912    3.4438 C   0  0  0  0  0  0  0  0  0  0  0  0
    0.9646    2.9919    2.0496 C   0  0  1  0  0  0  0  0  0  0  0  0
    2.0753    2.6278    1.1019 C   0  0  0  0  0  0  0  0  0  0  0  0
    2.9732    3.4447    0.8232 O   0  0  0  0  0  0  0  0  0  0  0  0
    2.1169    1.3402    0.5100 N   0  0  0  0  0  0  0  0  0  0  0  0
    3.1140    0.8522   -0.4078 C   0  0  0  0  0  0  0  0  0  0  0  0
    3.9790   -0.2126    0.2583 C   0  0  0  0  0  0  0  0  0  0  0  0
    4.9951   -0.7071   -0.7488 C   0  0  0  0  0  0  0  0  0  0  0  0
    5.8358   -1.7657   -0.0072 C   0  0  0  0  0  0  0  0  0  0  0  0
    6.8163   -2.3164   -0.9102 N   0  0  0  0  0  0  0  0  0  0  0  0
    7.7712   -3.2996   -0.5732 C   0  0  0  0  0  0  0  0  0  0  0  0
    9.0092   -3.3335   -1.2789 N   0  0  0  0  0  0  0  0  0  0  0  0
    7.5797   -4.1957    0.3483 N   0  0  0  0  0  0  0  0  0  0  0  0
    2.4694    0.2664   -1.5837 C   0  0  0  0  0  0  0  0  0  0  0  0
    1.2766    0.2434   -1.7101 O   0  0  0  0  0  0  0  0  0  0  0  0
   -5.7207    5.1769   -1.2318 H   0  0  0  0  0  0  0  0  0  0  0  0
   -4.0523    4.9749   -2.0270 H   0  0  0  0  0  0  0  0  0  0  0  0
   -4.4202    4.3019   -0.3837 H   0  0  0  0  0  0  0  0  0  0  0  0
   -7.2706    3.0550   -2.9174 H   0  0  0  0  0  0  0  0  0  0  0  0
   -7.2290    4.2008   -1.5403 H   0  0  0  0  0  0  0  0  0  0  0  0
   -7.2680    2.3923   -1.2769 H   0  0  0  0  0  0  0  0  0  0  0  0
   -4.0460    3.8319   -3.5762 H   0  0  0  0  0  0  0  0  0  0  0  0
   -4.6491    2.0883   -3.7414 H   0  0  0  0  0  0  0  0  0  0  0  0
   -5.7068    3.4873   -4.0104 H   0  0  0  0  0  0  0  0  0  0  0  0
   -3.8840    0.7428    0.7981 H   0  0  0  0  0  0  0  0  0  0  0  0
   -1.3202    0.4807   -0.5484 H   0  0  0  0  0  0  0  0  0  0  0  0
   -0.6279   -0.7323    1.5388 H   0  0  0  0  0  0  0  0  0  0  0  0
   -2.2376   -0.2219    2.3392 H   0  0  0  0  0  0  0  0  0  0  0  0
   -4.2586   -1.3986    1.8064 H   0  0  0  0  0  0  0  0  0  0  0  0
   -5.2476   -3.4449    1.0808 H   0  0  0  0  0  0  0  0  0  0  0  0
   -3.9875   -5.0493   -0.2241 H   0  0  0  0  0  0  0  0  0  0  0  0
   -0.5889   -2.5289   -0.1194 H   0  0  0  0  0  0  0  0  0  0  0  0
   -2.9455   -6.2208   -1.8284 H   0  0  0  0  0  0  0  0  0  0  0  0
   -1.3924   -6.9389   -1.4577 H   0  0  0  0  0  0  0  0  0  0  0  0
    0.3964   -5.2354   -1.8827 H   0  0  0  0  0  0  0  0  0  0  0  0
   -0.3697    0.3773    3.5518 H   0  0  0  0  0  0  0  0  0  0  0  0
    1.3765    0.6338    3.0829 H   0  0  0  0  0  0  0  0  0  0  0  0
   -0.4836    2.6653    4.3729 H   0  0  0  0  0  0  0  0  0  0  0  0
    0.9611    1.7768    5.1217 H   0  0  0  0  0  0  0  0  0  0  0  0
    1.4517    4.1217    3.8478 H   0  0  0  0  0  0  0  0  0  0  0  0
    2.4498    2.6205    3.5434 H   0  0  0  0  0  0  0  0  0  0  0  0
    0.5343    3.9258    1.7188 H   0  0  0  0  0  0  0  0  0  0  0  0
    1.3695    0.6607    0.7429 H   0  0  0  0  0  0  0  0  0  0  0  0
    3.8370    1.6398   -0.7260 H   0  0  0  0  0  0  0  0  0  0  0  0
    3.3824   -1.0942    0.5505 H   0  0  0  0  0  0  0  0  0  0  0  0
    4.5180    0.1554    1.1394 H   0  0  0  0  0  0  0  0  0  0  0  0
    5.6382    0.1086   -1.1025 H   0  0  0  0  0  0  0  0  0  0  0  0
    4.4908   -1.2877   -1.5543 H   0  0  0  0  0  0  0  0  0  0  0  0
    5.2206   -2.5714    0.3854 H   0  0  0  0  0  0  0  0  0  0  0  0
    6.3965   -1.2850    0.8352 H   0  0  0  0  0  0  0  0  0  0  0  0
    6.8343   -1.9658   -1.9217 H   0  0  0  0  0  0  0  0  0  0  0  0
    9.3499   -2.4506   -1.7038 H   0  0  0  0  0  0  0  0  0  0  0  0
    9.5213   -4.2315   -1.3462 H   0  0  0  0  0  0  0  0  0  0  0  0
    6.6766   -4.2143    0.8858 H   0  0  0  0  0  0  0  0  0  0  0  0
    3.0533   -0.1778   -2.4017 H   0  0  0  0  0  0  0  0  0  0  0  0
  1  2  1  0
  2  3  1  0
  2  4  1  0
  2  5  1  0
  5  6  1  0
  6  7  2  0
  6  8  1  0
  8  9  1  0
  9 10  1  0
 10 11  1  0
 11 12  2  0
 12 13  1  0
 13 14  2  0
 14 15  1  0
 15 16  2  0
 15 17  1  0
 17 18  1  0
 17 19  2  3
  9 20  1  0
 20 21  2  0
 20 22  1  0
 22 23  1  0
 23 24  1  0
 24 25  1  0
 25 26  1  0
 26 27  1  0
 27 28  2  0
 27 29  1  0
 29 30  1  0
 30 31  1  0
 31 32  1  0
 32 33  1  0
 33 34  1  0
 34 35  1  0
 35 36  1  0
 35 37  2  3
 30 38  1  0
 38 39  2  0
 16 11  1  0
 26 22  1  0
  1 40  1  0
  1 41  1  0
  1 42  1  0
  3 43  1  0
  3 44  1  0
  3 45  1  0
  4 46  1  0
  4 47  1  0
  4 48  1  0
  8 49  1  0
  9 50  1  6
 10 51  1  0
 10 52  1  0
 12 53  1  0
 13 54  1  0
 14 55  1  0
 16 56  1  0
 18 57  1  0
 18 58  1  0
 19 59  1  0
 23 60  1  0
 23 61  1  0
 24 62  1  0
 24 63  1  0
 25 64  1  0
 25 65  1  0
 26 66  1  6
 29 67  1  0
 30 68  1  0
 31 69  1  0
 31 70  1  0
 32 71  1  0
 32 72  1  0
 33 73  1  0
 33 74  1  0
 34 75  1  0
 36 76  1  0
 36 77  1  0
 37 78  1  0
 38 79  1  0
M  END
$$$$
[H]c1c([H])c([H])c2c(c1[H])c(C(=O)OC1([H])C([H])([H])C3([H])N(C([H])([H])[H])C([H])(C([H])([H])C3([H])[H])C1([H])[H])c([H])n2C([H])([H])C([H])(F)F
     RDKit          3D

 47 50  0  0  0  0  0  0  0  0999 V2000
    5.1926   -0.2176   -1.8728 C   0  0  0  0  0  0  0  0  0  0  0  0
    3.9217   -0.1651   -1.2227 N   0  0  0  0  0  0  0  0  0  0  0  0
    3.8167    1.0751   -0.4495 C   0  0  0  0  0  0  0  0  0  0  0  0
    4.7533    0.9061    0.7273 C   0  0  0  0  0  0  0  0  0  0  0  0
    4.7914   -0.5915    0.9062 C   0  0  0  0  0  0  0  0  0  0  0  0
    3.8571   -1.1381   -0.1332 C   0  0  0  0  0  0  0  0  0  0  0  0
    2.4417   -1.2213    0.3121 C   0  0  0  0  0  0  0  0  0  0  0  0
    1.7856    0.0670    0.6322 C   0  0  0  0  0  0  0  0  0  0  0  0
    2.4258    1.2890    0.0856 C   0  0  0  0  0  0  0  0  0  0  0  0
    0.4125    0.0848    0.2060 O   0  0  0  0  0  0  0  0  0  0  0  0
   -0.6220    0.2093    1.1145 C   0  0  0  0  0  0  0  0  0  0  0  0
   -0.2774    0.3044    2.3257 O   0  0  0  0  0  0  0  0  0  0  0  0
   -2.0364    0.2321    0.7233 C   0  0  0  0  0  0  0  0  0  0  0  0
   -3.0718    0.3550    1.6173 C   0  0  0  0  0  0  0  0  0  0  0  0
   -4.2187    0.3390    0.9167 N   0  0  0  0  0  0  0  0  0  0  0  0
   -5.5452    0.4447    1.4874 C   0  0  0  0  0  0  0  0  0  0  0  0
   -6.0225   -0.9657    1.7974 C   0  0  0  0  0  0  0  0  0  0  0  0
   -7.2804   -0.9119    2.3418 F   0  0  0  0  0  0  0  0  0  0  0  0
   -5.1875   -1.5344    2.7302 F   0  0  0  0  0  0  0  0  0  0  0  0
   -3.9710    0.2111   -0.3896 C   0  0  0  0  0  0  0  0  0  0  0  0
   -4.7398    0.1398   -1.5314 C   0  0  0  0  0  0  0  0  0  0  0  0
   -4.1502    0.0034   -2.7771 C   0  0  0  0  0  0  0  0  0  0  0  0
   -2.7800   -0.0636   -2.8971 C   0  0  0  0  0  0  0  0  0  0  0  0
   -1.9875    0.0068   -1.7547 C   0  0  0  0  0  0  0  0  0  0  0  0
   -2.5958    0.1420   -0.5316 C   0  0  0  0  0  0  0  0  0  0  0  0
    5.0314    0.0325   -2.9607 H   0  0  0  0  0  0  0  0  0  0  0  0
    5.6899   -1.2147   -1.8000 H   0  0  0  0  0  0  0  0  0  0  0  0
    5.8771    0.5197   -1.4270 H   0  0  0  0  0  0  0  0  0  0  0  0
    4.1657    1.9151   -1.0561 H   0  0  0  0  0  0  0  0  0  0  0  0
    5.7357    1.3484    0.5147 H   0  0  0  0  0  0  0  0  0  0  0  0
    4.2890    1.3497    1.6406 H   0  0  0  0  0  0  0  0  0  0  0  0
    5.8376   -0.9177    0.7624 H   0  0  0  0  0  0  0  0  0  0  0  0
    4.4681   -0.9132    1.9217 H   0  0  0  0  0  0  0  0  0  0  0  0
    4.2157   -2.1222   -0.4348 H   0  0  0  0  0  0  0  0  0  0  0  0
    1.8633   -1.7325   -0.4984 H   0  0  0  0  0  0  0  0  0  0  0  0
    2.4080   -1.9538    1.1725 H   0  0  0  0  0  0  0  0  0  0  0  0
    1.7910    0.1685    1.7593 H   0  0  0  0  0  0  0  0  0  0  0  0
    1.8282    1.7219   -0.7709 H   0  0  0  0  0  0  0  0  0  0  0  0
    2.4894    2.1152    0.8254 H   0  0  0  0  0  0  0  0  0  0  0  0
   -3.0141    0.4503    2.7014 H   0  0  0  0  0  0  0  0  0  0  0  0
   -6.2549    0.9167    0.7635 H   0  0  0  0  0  0  0  0  0  0  0  0
   -5.5172    0.9900    2.4529 H   0  0  0  0  0  0  0  0  0  0  0  0
   -6.0552   -1.5980    0.8839 H   0  0  0  0  0  0  0  0  0  0  0  0
   -5.8163    0.1926   -1.4352 H   0  0  0  0  0  0  0  0  0  0  0  0
   -4.7650   -0.0530   -3.6829 H   0  0  0  0  0  0  0  0  0  0  0  0
   -2.2664   -0.1699   -3.8437 H   0  0  0  0  0  0  0  0  0  0  0  0
   -0.9130   -0.0460   -1.8528 H   0  0  0  0  0  0  0  0  0  0  0  0
  1  2  1  0
  2  3  1  0
  3  4  1  0
  4  5  1  0
  5  6  1  0
  6  7  1  0
  7  8  1  0
  8  9  1  0
  8 10  1  0
 10 11  1  0
 11 12  2  0
 11 13  1  0
 13 14  2  0
 14 15  1  0
 15 16  1  0
 16 17  1  0
 17 18  1  0
 17 19  1  0
 15 20  1  0
 20 21  2  0
 21 22  1  0
 22 23  2  0
 23 24  1  0
 24 25  2  0
  6  2  1  0
 25 13  1  0
  9  3  1  0
 25 20  1  0
  1 26  1  0
  1 27  1  0
  1 28  1  0
  3 29  1  0
  4 30  1  0
  4 31  1  0
  5 32  1  0
  5 33  1  0
  6 34  1  0
  7 35  1  0
  7 36  1  0
  8 37  1  0
  9 38  1  0
  9 39  1  0
 14 40  1  0
 16 41  1  0
 16 42  1  0
 17 43  1  0
 21 44  1  0
 22 45  1  0
 23 46  1  0
 24 47  1  0
M  END
$$$$
[H]c1c([H])c(Cl)c(-c2c([H])c3c([H])nc(N([H])c4c([H])c(OC([H])([H])[H])c(OC([H])([H])[H])c(OC([H])([H])[H])c4[H])nc3n(C([H])([H])[H])c2=O)c(Cl)c1[H]
     RDKit          3D

 53 56  0  0  0  0  0  0  0  0999 V2000
    6.1786   -1.8212    2.8822 C   0  0  0  0  0  0  0  0  0  0  0  0
    6.3138   -1.2426    1.6090 O   0  0  0  0  0  0  0  0  0  0  0  0
    5.2427   -0.7320    0.8883 C   0  0  0  0  0  0  0  0  0  0  0  0
    3.9472   -0.7404    1.3444 C   0  0  0  0  0  0  0  0  0  0  0  0
    2.9027   -0.2058    0.5637 C   0  0  0  0  0  0  0  0  0  0  0  0
    1.6115   -0.2281    1.1048 N   0  0  0  0  0  0  0  0  0  0  0  0
    0.3819   -0.1586    0.4120 C   0  0  0  0  0  0  0  0  0  0  0  0
    0.2180   -0.0706   -0.9041 N   0  0  0  0  0  0  0  0  0  0  0  0
   -0.9608   -0.0055   -1.5430 C   0  0  0  0  0  0  0  0  0  0  0  0
   -2.1115   -0.0307   -0.7847 C   0  0  0  0  0  0  0  0  0  0  0  0
   -3.3626    0.0315   -1.3552 C   0  0  0  0  0  0  0  0  0  0  0  0
   -4.4739    0.0015   -0.5349 C   0  0  0  0  0  0  0  0  0  0  0  0
   -5.8149    0.0635   -1.0741 C   0  0  0  0  0  0  0  0  0  0  0  0
   -6.4677   -1.1013   -1.4035 C   0  0  0  0  0  0  0  0  0  0  0  0
   -5.7277   -2.6625   -1.1915 Cl  0  0  0  0  0  0  0  0  0  0  0  0
   -7.7685   -1.0701   -1.9281 C   0  0  0  0  0  0  0  0  0  0  0  0
   -8.3968    0.1463   -2.1142 C   0  0  0  0  0  0  0  0  0  0  0  0
   -7.7521    1.3169   -1.7877 C   0  0  0  0  0  0  0  0  0  0  0  0
   -6.4665    1.2530   -1.2711 C   0  0  0  0  0  0  0  0  0  0  0  0
   -5.6623    2.7503   -0.8618 Cl  0  0  0  0  0  0  0  0  0  0  0  0
   -4.3270   -0.0894    0.8309 C   0  0  0  0  0  0  0  0  0  0  0  0
   -5.3661   -0.1153    1.5648 O   0  0  0  0  0  0  0  0  0  0  0  0
   -3.1206   -0.1485    1.3669 N   0  0  0  0  0  0  0  0  0  0  0  0
   -2.9706   -0.2439    2.8023 C   0  0  0  0  0  0  0  0  0  0  0  0
   -1.9967   -0.1213    0.5876 C   0  0  0  0  0  0  0  0  0  0  0  0
   -0.7812   -0.1818    1.1420 N   0  0  0  0  0  0  0  0  0  0  0  0
    3.1560    0.3329   -0.6633 C   0  0  0  0  0  0  0  0  0  0  0  0
    4.4821    0.3431   -1.1346 C   0  0  0  0  0  0  0  0  0  0  0  0
    4.7808    0.8810   -2.3767 O   0  0  0  0  0  0  0  0  0  0  0  0
    3.7243    1.4134   -3.1482 C   0  0  0  0  0  0  0  0  0  0  0  0
    5.4928   -0.1856   -0.3555 C   0  0  0  0  0  0  0  0  0  0  0  0
    6.7944   -0.1634   -0.8438 O   0  0  0  0  0  0  0  0  0  0  0  0
    7.6121    0.9778   -0.5498 C   0  0  0  0  0  0  0  0  0  0  0  0
    5.6586   -1.1759    3.6084 H   0  0  0  0  0  0  0  0  0  0  0  0
    7.2166   -2.0389    3.2512 H   0  0  0  0  0  0  0  0  0  0  0  0
    5.6171   -2.7837    2.8274 H   0  0  0  0  0  0  0  0  0  0  0  0
    3.7200   -1.1607    2.3105 H   0  0  0  0  0  0  0  0  0  0  0  0
    1.5722   -0.3013    2.1803 H   0  0  0  0  0  0  0  0  0  0  0  0
   -1.0291    0.0654   -2.6236 H   0  0  0  0  0  0  0  0  0  0  0  0
   -3.4819    0.1039   -2.4435 H   0  0  0  0  0  0  0  0  0  0  0  0
   -8.2759   -1.9918   -2.1850 H   0  0  0  0  0  0  0  0  0  0  0  0
   -9.4085    0.2288   -2.5189 H   0  0  0  0  0  0  0  0  0  0  0  0
   -8.2103    2.2914   -1.9185 H   0  0  0  0  0  0  0  0  0  0  0  0
   -3.8645   -0.6360    3.2984 H   0  0  0  0  0  0  0  0  0  0  0  0
   -2.7691    0.7820    3.2146 H   0  0  0  0  0  0  0  0  0  0  0  0
   -2.0766   -0.8796    2.9846 H   0  0  0  0  0  0  0  0  0  0  0  0
    2.4270    0.7758   -1.3226 H   0  0  0  0  0  0  0  0  0  0  0  0
    3.2154    2.2533   -2.6294 H   0  0  0  0  0  0  0  0  0  0  0  0
    2.9170    0.6489   -3.3254 H   0  0  0  0  0  0  0  0  0  0  0  0
    4.0621    1.7407   -4.1440 H   0  0  0  0  0  0  0  0  0  0  0  0
    8.0562    0.8366    0.4555 H   0  0  0  0  0  0  0  0  0  0  0  0
    6.9815    1.8932   -0.4874 H   0  0  0  0  0  0  0  0  0  0  0  0
    8.3609    1.1556   -1.3355 H   0  0  0  0  0  0  0  0  0  0  0  0
  1  2  1  0
  2  3  1  0
  3  4  2  0
  4  5  1  0
  5  6  1  0
  6  7  1  0
  7  8  2  0
  8  9  1  0
  9 10  2  0
 10 11  1  0
 11 12  2  0
 12 13  1  0
 13 14  2  0
 14 15  1  0
 14 16  1  0
 16 17  2  0
 17 18  1  0
 18 19  2  0
 19 20  1  0
 12 21  1  0
 21 22  2  0
 21 23  1  0
 23 24  1  0
 23 25  1  0
 25 26  2  0
  5 27  2  0
 27 28  1  0
 28 29  1  0
 29 30  1  0
 28 31  2  0
 31 32  1  0
 32 33  1  0
 31  3  1  0
 26  7  1  0
 25 10  1  0
 19 13  1  0
  1 34  1  0
  1 35  1  0
  1 36  1  0
  4 37  1  0
  6 38  1  0
  9 39  1  0
 11 40  1  0
 16 41  1  0
 17 42  1  0
 18 43  1  0
 24 44  1  0
 24 45  1  0
 24 46  1  0
 27 47  1  0
 30 48  1  0
 30 49  1  0
 30 50  1  0
 33 51  1  0
 33 52  1  0
 33 53  1  0
M  END
$$$$
[H]c1c([H])c([H])c(-c2c([H])c([H])c(C3([H])C(C(=O)OC(C([H])([H])[H])(C([H])([H])[H])C([H])([H])[H])=C(C([H])([H])[H])N=C(C([H])([H])[H])C3([H])C(=O)OC([H])([H])[H])c([H])c2[H])c([H])c1[H]
     RDKit          3D

 60 62  0  0  0  0  0  0  0  0999 V2000
    2.0767    4.0467   -0.3435 C   0  0  0  0  0  0  0  0  0  0  0  0
    0.8790    3.4895    0.1649 O   0  0  0  0  0  0  0  0  0  0  0  0
    0.7282    3.0878    1.4757 C   0  0  0  0  0  0  0  0  0  0  0  0
    1.7163    3.2340    2.2355 O   0  0  0  0  0  0  0  0  0  0  0  0
   -0.5196    2.4965    2.0452 C   0  0  0  0  0  0  0  0  0  0  0  0
   -0.8760    1.1625    1.5793 C   0  0  0  0  0  0  0  0  0  0  0  0
   -2.2262    0.9427    1.0078 C   0  0  0  0  0  0  0  0  0  0  0  0
   -2.5492   -0.3994    0.6030 C   0  0  0  0  0  0  0  0  0  0  0  0
   -3.6440   -0.6949    0.1167 O   0  0  0  0  0  0  0  0  0  0  0  0
   -1.6548   -1.4662    0.7283 O   0  0  0  0  0  0  0  0  0  0  0  0
   -1.9568   -2.7731    0.3397 C   0  0  0  0  0  0  0  0  0  0  0  0
   -3.1233   -3.3846    1.0407 C   0  0  0  0  0  0  0  0  0  0  0  0
   -2.2371   -2.8676   -1.1627 C   0  0  0  0  0  0  0  0  0  0  0  0
   -0.7379   -3.6339    0.5974 C   0  0  0  0  0  0  0  0  0  0  0  0
   -3.0584    1.9316    0.8925 C   0  0  0  0  0  0  0  0  0  0  0  0
   -4.4078    1.7238    0.3218 C   0  0  0  0  0  0  0  0  0  0  0  0
   -2.6930    3.2548    1.3334 N   0  0  0  0  0  0  0  0  0  0  0  0
   -1.5729    3.5040    1.8414 C   0  0  0  0  0  0  0  0  0  0  0  0
   -1.3116    4.9382    2.2634 C   0  0  0  0  0  0  0  0  0  0  0  0
    0.1642    0.4876    0.7340 C   0  0  0  0  0  0  0  0  0  0  0  0
    0.1178    0.6737   -0.6310 C   0  0  0  0  0  0  0  0  0  0  0  0
    1.0790    0.0562   -1.3999 C   0  0  0  0  0  0  0  0  0  0  0  0
    2.0858   -0.7366   -0.8958 C   0  0  0  0  0  0  0  0  0  0  0  0
    2.0912   -0.8938    0.4796 C   0  0  0  0  0  0  0  0  0  0  0  0
    1.1525   -0.2976    1.2908 C   0  0  0  0  0  0  0  0  0  0  0  0
    3.0846   -1.3730   -1.7454 C   0  0  0  0  0  0  0  0  0  0  0  0
    4.3503   -1.5787   -1.2411 C   0  0  0  0  0  0  0  0  0  0  0  0
    5.3474   -2.1724   -1.9795 C   0  0  0  0  0  0  0  0  0  0  0  0
    5.0559   -2.5651   -3.2532 C   0  0  0  0  0  0  0  0  0  0  0  0
    3.7861   -2.3610   -3.7650 C   0  0  0  0  0  0  0  0  0  0  0  0
    2.7822   -1.7644   -3.0247 C   0  0  0  0  0  0  0  0  0  0  0  0
    1.8765    5.1237   -0.5218 H   0  0  0  0  0  0  0  0  0  0  0  0
    2.2798    3.5571   -1.3180 H   0  0  0  0  0  0  0  0  0  0  0  0
    2.9198    3.8935    0.3615 H   0  0  0  0  0  0  0  0  0  0  0  0
   -0.3868    2.4574    3.1727 H   0  0  0  0  0  0  0  0  0  0  0  0
   -0.8847    0.4941    2.5139 H   0  0  0  0  0  0  0  0  0  0  0  0
   -3.0870   -4.4930    0.8181 H   0  0  0  0  0  0  0  0  0  0  0  0
   -3.0569   -3.3227    2.1474 H   0  0  0  0  0  0  0  0  0  0  0  0
   -4.1087   -3.0566    0.6461 H   0  0  0  0  0  0  0  0  0  0  0  0
   -2.0308   -3.9382   -1.4317 H   0  0  0  0  0  0  0  0  0  0  0  0
   -1.5223   -2.2282   -1.7053 H   0  0  0  0  0  0  0  0  0  0  0  0
   -3.2854   -2.6352   -1.4028 H   0  0  0  0  0  0  0  0  0  0  0  0
   -0.9677   -4.7031    0.6301 H   0  0  0  0  0  0  0  0  0  0  0  0
    0.0351   -3.4830   -0.2101 H   0  0  0  0  0  0  0  0  0  0  0  0
   -0.2206   -3.3459    1.5411 H   0  0  0  0  0  0  0  0  0  0  0  0
   -4.4008    1.3930   -0.7433 H   0  0  0  0  0  0  0  0  0  0  0  0
   -4.9720    2.7186    0.3240 H   0  0  0  0  0  0  0  0  0  0  0  0
   -4.9841    1.0690    0.9997 H   0  0  0  0  0  0  0  0  0  0  0  0
   -1.9947    5.6291    1.7339 H   0  0  0  0  0  0  0  0  0  0  0  0
   -0.2654    5.2130    2.0204 H   0  0  0  0  0  0  0  0  0  0  0  0
   -1.4324    4.9939    3.3646 H   0  0  0  0  0  0  0  0  0  0  0  0
   -0.6672    1.2988   -1.0877 H   0  0  0  0  0  0  0  0  0  0  0  0
    1.0456    0.2004   -2.4714 H   0  0  0  0  0  0  0  0  0  0  0  0
    2.8855   -1.5229    0.9100 H   0  0  0  0  0  0  0  0  0  0  0  0
    1.1952   -0.4504    2.3790 H   0  0  0  0  0  0  0  0  0  0  0  0
    4.6050   -1.2740   -0.2294 H   0  0  0  0  0  0  0  0  0  0  0  0
    6.3538   -2.3443   -1.6003 H   0  0  0  0  0  0  0  0  0  0  0  0
    5.8032   -3.0352   -3.8730 H   0  0  0  0  0  0  0  0  0  0  0  0
    3.5622   -2.6738   -4.7726 H   0  0  0  0  0  0  0  0  0  0  0  0
    1.7772   -1.6026   -3.4292 H   0  0  0  0  0  0  0  0  0  0  0  0
  1  2  1  0
  2  3  1  0
  3  4  2  0
  3  5  1  0
  5  6  1  0
  6  7  1  0
  7  8  1  0
  8  9  2  0
  8 10  1  0
 10 11  1  0
 11 12  1  0
 11 13  1  0
 11 14  1  0
  7 15  2  0
 15 16  1  0
 15 17  1  0
 17 18  2  0
 18 19  1  0
  6 20  1  0
 20 21  2  0
 21 22  1  0
 22 23  2  0
 23 24  1  0
 24 25  2  0
 23 26  1  0
 26 27  2  0
 27 28  1  0
 28 29  2  0
 29 30  1  0
 30 31  2  0
 18  5  1  0
 25 20  1  0
 31 26  1  0
  1 32  1  0
  1 33  1  0
  1 34  1  0
  5 35  1  0
  6 36  1  0
 12 37  1  0
 12 38  1  0
 12 39  1  0
 13 40  1  0
 13 41  1  0
 13 42  1  0
 14 43  1  0
 14 44  1  0
 14 45  1  0
 16 46  1  0
 16 47  1  0
 16 48  1  0
 19 49  1  0
 19 50  1  0
 19 51  1  0
 21 52  1  0
 22 53  1  0
 24 54  1  0
 25 55  1  0
 27 56  1  0
 28 57  1  0
 29 58  1  0
 30 59  1  0
 31 60  1  0
M  END
$$$$
[H]N=C(N([H])[H])N([H])C([H])([H])C([H])([H])C([H])([H])[C@@]([H])(C([H])=O)N([H])C(=O)[C@@]1([H])N(C(=O)[C@]([H])(N([H])C(=O)OC([H])([H])c2c([H])c([H])c([H])c([H])c2[H])C([H])([H])c2c([H])c([H])c([H])c([H])c2[H])C([H])([H])C([H])([H])C1([H])[H]
     RDKit          3D

 75 77  0  0  0  0  0  0  0  0999 V2000
    5.8001    2.5252    3.8620 N   0  0  0  0  0  0  0  0  0  0  0  0
    6.2049    2.7641    2.5064 C   0  0  0  0  0  0  0  0  0  0  0  0
    7.4774    3.0044    2.3058 N   0  0  0  0  0  0  0  0  0  0  0  0
    5.3133    2.7494    1.4139 N   0  0  0  0  0  0  0  0  0  0  0  0
    4.0075    2.1298    1.4806 C   0  0  0  0  0  0  0  0  0  0  0  0
    3.2874    2.2129    0.1763 C   0  0  0  0  0  0  0  0  0  0  0  0
    3.9440    1.5640   -0.9832 C   0  0  0  0  0  0  0  0  0  0  0  0
    4.1696    0.0979   -0.9120 C   0  0  2  0  0  0  0  0  0  0  0  0
    2.9458   -0.6579   -0.7598 N   0  0  0  0  0  0  0  0  0  0  0  0
    2.5718   -1.7108   -1.6115 C   0  0  0  0  0  0  0  0  0  0  0  0
    3.3966   -1.9888   -2.5585 O   0  0  0  0  0  0  0  0  0  0  0  0
    1.3760   -2.5328   -1.5666 C   0  0  2  0  0  0  0  0  0  0  0  0
    1.0298   -3.2573   -2.8234 C   0  0  0  0  0  0  0  0  0  0  0  0
    0.2652   -2.2221   -3.6216 C   0  0  0  0  0  0  0  0  0  0  0  0
   -0.1773   -1.2006   -2.5836 C   0  0  0  0  0  0  0  0  0  0  0  0
    0.1399   -1.8126   -1.2971 N   0  0  0  0  0  0  0  0  0  0  0  0
   -0.5159   -1.7456   -0.0549 C   0  0  0  0  0  0  0  0  0  0  0  0
    0.0620   -2.3298    0.9334 O   0  0  0  0  0  0  0  0  0  0  0  0
   -1.8077   -1.0606    0.1962 C   0  0  1  0  0  0  0  0  0  0  0  0
   -2.9924   -2.0123    0.1533 C   0  0  0  0  0  0  0  0  0  0  0  0
   -3.1932   -2.7229   -1.0880 C   0  0  0  0  0  0  0  0  0  0  0  0
   -3.9791   -2.2493   -2.1055 C   0  0  0  0  0  0  0  0  0  0  0  0
   -4.1529   -2.9799   -3.2838 C   0  0  0  0  0  0  0  0  0  0  0  0
   -3.5002   -4.2015   -3.3898 C   0  0  0  0  0  0  0  0  0  0  0  0
   -2.6970   -4.7032   -2.3756 C   0  0  0  0  0  0  0  0  0  0  0  0
   -2.5530   -3.9591   -1.2369 C   0  0  0  0  0  0  0  0  0  0  0  0
   -1.8442   -0.5204    1.5670 N   0  0  0  0  0  0  0  0  0  0  0  0
   -2.0703    0.8531    1.8141 C   0  0  0  0  0  0  0  0  0  0  0  0
   -2.2476    1.6512    0.8202 O   0  0  0  0  0  0  0  0  0  0  0  0
   -2.1202    1.4321    3.0684 O   0  0  0  0  0  0  0  0  0  0  0  0
   -2.3547    2.8039    3.2035 C   0  0  0  0  0  0  0  0  0  0  0  0
   -3.6790    3.1164    2.6103 C   0  0  0  0  0  0  0  0  0  0  0  0
   -4.7172    2.1793    2.5984 C   0  0  0  0  0  0  0  0  0  0  0  0
   -5.9518    2.4362    2.0525 C   0  0  0  0  0  0  0  0  0  0  0  0
   -6.2303    3.6547    1.4826 C   0  0  0  0  0  0  0  0  0  0  0  0
   -5.1986    4.5854    1.4970 C   0  0  0  0  0  0  0  0  0  0  0  0
   -3.9727    4.3257    2.0381 C   0  0  0  0  0  0  0  0  0  0  0  0
    5.2430   -0.2930    0.0193 C   0  0  0  0  0  0  0  0  0  0  0  0
    5.1095   -1.1930    0.8262 O   0  0  0  0  0  0  0  0  0  0  0  0
    5.4188    3.3208    4.4131 H   0  0  0  0  0  0  0  0  0  0  0  0
    5.8859    1.5750    4.2955 H   0  0  0  0  0  0  0  0  0  0  0  0
    7.7721    3.1789    1.3139 H   0  0  0  0  0  0  0  0  0  0  0  0
    5.5952    3.2029    0.5222 H   0  0  0  0  0  0  0  0  0  0  0  0
    4.0280    1.1489    1.9535 H   0  0  0  0  0  0  0  0  0  0  0  0
    3.4339    2.7983    2.2056 H   0  0  0  0  0  0  0  0  0  0  0  0
    2.2541    1.8267    0.3224 H   0  0  0  0  0  0  0  0  0  0  0  0
    3.1294    3.2978   -0.0970 H   0  0  0  0  0  0  0  0  0  0  0  0
    4.9187    2.1181   -1.1689 H   0  0  0  0  0  0  0  0  0  0  0  0
    3.3559    1.7559   -1.9242 H   0  0  0  0  0  0  0  0  0  0  0  0
    4.5356   -0.1998   -1.9624 H   0  0  0  0  0  0  0  0  0  0  0  0
    2.3199   -0.4060    0.0266 H   0  0  0  0  0  0  0  0  0  0  0  0
    1.5217   -3.3014   -0.7638 H   0  0  0  0  0  0  0  0  0  0  0  0
    0.3589   -4.1085   -2.5179 H   0  0  0  0  0  0  0  0  0  0  0  0
    1.8809   -3.7014   -3.3479 H   0  0  0  0  0  0  0  0  0  0  0  0
    0.9223   -1.7905   -4.3953 H   0  0  0  0  0  0  0  0  0  0  0  0
   -0.6164   -2.7053   -4.0908 H   0  0  0  0  0  0  0  0  0  0  0  0
    0.4396   -0.2733   -2.7201 H   0  0  0  0  0  0  0  0  0  0  0  0
   -1.2154   -0.9127   -2.7090 H   0  0  0  0  0  0  0  0  0  0  0  0
   -1.9623   -0.2166   -0.4790 H   0  0  0  0  0  0  0  0  0  0  0  0
   -3.9189   -1.4663    0.4319 H   0  0  0  0  0  0  0  0  0  0  0  0
   -2.8199   -2.7025    1.0349 H   0  0  0  0  0  0  0  0  0  0  0  0
   -4.4580   -1.2943   -1.9708 H   0  0  0  0  0  0  0  0  0  0  0  0
   -4.7764   -2.5705   -4.0596 H   0  0  0  0  0  0  0  0  0  0  0  0
   -3.6109   -4.7858   -4.2845 H   0  0  0  0  0  0  0  0  0  0  0  0
   -2.2293   -5.6630   -2.5458 H   0  0  0  0  0  0  0  0  0  0  0  0
   -1.9301   -4.3416   -0.4399 H   0  0  0  0  0  0  0  0  0  0  0  0
   -1.6942   -1.1683    2.3521 H   0  0  0  0  0  0  0  0  0  0  0  0
   -2.4330    3.0671    4.2931 H   0  0  0  0  0  0  0  0  0  0  0  0
   -1.5819    3.4255    2.7018 H   0  0  0  0  0  0  0  0  0  0  0  0
   -4.5539    1.2062    3.0365 H   0  0  0  0  0  0  0  0  0  0  0  0
   -6.7243    1.6601    2.0695 H   0  0  0  0  0  0  0  0  0  0  0  0
   -7.1930    3.8544    1.0638 H   0  0  0  0  0  0  0  0  0  0  0  0
   -5.4288    5.5548    1.0433 H   0  0  0  0  0  0  0  0  0  0  0  0
   -3.2067    5.0847    2.0234 H   0  0  0  0  0  0  0  0  0  0  0  0
    6.1939    0.2235    0.0001 H   0  0  0  0  0  0  0  0  0  0  0  0
  1  2  1  0
  2  3  2  3
  2  4  1  0
  4  5  1  0
  5  6  1  0
  6  7  1  0
  7  8  1  0
  8  9  1  0
  9 10  1  0
 10 11  2  0
 10 12  1  0
 12 13  1  0
 13 14  1  0
 14 15  1  0
 15 16  1  0
 16 17  1  0
 17 18  2  0
 17 19  1  0
 19 20  1  0
 20 21  1  0
 21 22  2  0
 22 23  1  0
 23 24  2  0
 24 25  1  0
 25 26  2  0
 19 27  1  0
 27 28  1  0
 28 29  2  0
 28 30  1  0
 30 31  1  0
 31 32  1  0
 32 33  2  0
 33 34  1  0
 34 35  2  0
 35 36  1  0
 36 37  2  0
  8 38  1  0
 38 39  2  0
 16 12  1  0
 26 21  1  0
 37 32  1  0
  1 40  1  0
  1 41  1  0
  3 42  1  0
  4 43  1  0
  5 44  1  0
  5 45  1  0
  6 46  1  0
  6 47  1  0
  7 48  1  0
  7 49  1  0
  8 50  1  6
  9 51  1  0
 12 52  1  1
 13 53  1  0
 13 54  1  0
 14 55  1  0
 14 56  1  0
 15 57  1  0
 15 58  1  0
 19 59  1  6
 20 60  1  0
 20 61  1  0
 22 62  1  0
 23 63  1  0
 24 64  1  0
 25 65  1  0
 26 66  1  0
 27 67  1  0
 31 68  1  0
 31 69  1  0
 33 70  1  0
 34 71  1  0
 35 72  1  0
 36 73  1  0
 37 74  1  0
 38 75  1  0
M  END
$$$$
[H]c1c([N+](=O)[O-])c([H])c2oc(C(=O)N([H])[C@@]3([H])C([H])([H])N4C([H])([H])C([H])([H])C3([H])C([H])([H])C4([H])[H])c([H])c(=O)c2c1[H]
     RDKit          3D

 42 45  0  0  0  0  0  0  0  0999 V2000
    6.9967   -1.5029    2.5525 O   0  0  0  0  0  0  0  0  0  0  0  0
    7.2207   -0.8974    1.3633 N   0  0  0  0  0  0  0  0  0  0  0  0
    8.3937   -0.7521    0.9720 O   0  0  0  0  0  0  0  0  0  0  0  0
    6.1079   -0.4328    0.5722 C   0  0  0  0  0  0  0  0  0  0  0  0
    6.3131    0.1862   -0.6414 C   0  0  0  0  0  0  0  0  0  0  0  0
    5.2745    0.6439   -1.4260 C   0  0  0  0  0  0  0  0  0  0  0  0
    3.9765    0.4807   -0.9884 C   0  0  0  0  0  0  0  0  0  0  0  0
    3.7404   -0.1348    0.2214 C   0  0  0  0  0  0  0  0  0  0  0  0
    4.8115   -0.5926    1.0031 C   0  0  0  0  0  0  0  0  0  0  0  0
    2.5068   -0.2885    0.6346 O   0  0  0  0  0  0  0  0  0  0  0  0
    1.4394    0.1002   -0.0142 C   0  0  0  0  0  0  0  0  0  0  0  0
    1.6408    0.7193   -1.2278 C   0  0  0  0  0  0  0  0  0  0  0  0
    2.9090    0.9213   -1.7373 C   0  0  0  0  0  0  0  0  0  0  0  0
    3.1099    1.4853   -2.8444 O   0  0  0  0  0  0  0  0  0  0  0  0
    0.0887   -0.1220    0.5421 C   0  0  0  0  0  0  0  0  0  0  0  0
    0.0161   -0.6955    1.6554 O   0  0  0  0  0  0  0  0  0  0  0  0
   -1.0955    0.2745   -0.1108 N   0  0  0  0  0  0  0  0  0  0  0  0
   -2.3681    0.0092    0.5214 C   0  0  1  0  0  0  0  0  0  0  0  0
   -3.1398    1.2795    0.8203 C   0  0  0  0  0  0  0  0  0  0  0  0
   -4.5364    0.8739    0.9952 N   0  0  0  0  0  0  0  0  0  0  0  0
   -5.1477    0.7773   -0.3383 C   0  0  0  0  0  0  0  0  0  0  0  0
   -4.1725    0.0459   -1.2229 C   0  0  0  0  0  0  0  0  0  0  0  0
   -3.2720   -0.8458   -0.3562 C   0  0  0  0  0  0  0  0  0  0  0  0
   -4.2381   -1.5394    0.6159 C   0  0  0  0  0  0  0  0  0  0  0  0
   -4.6348   -0.4381    1.6093 C   0  0  0  0  0  0  0  0  0  0  0  0
    7.3233    0.3306   -1.0154 H   0  0  0  0  0  0  0  0  0  0  0  0
    5.4162    1.1321   -2.3812 H   0  0  0  0  0  0  0  0  0  0  0  0
    4.5912   -1.0719    1.9486 H   0  0  0  0  0  0  0  0  0  0  0  0
    0.7995    1.0646   -1.8143 H   0  0  0  0  0  0  0  0  0  0  0  0
   -1.0220    0.7510   -1.0370 H   0  0  0  0  0  0  0  0  0  0  0  0
   -2.2183   -0.5017    1.4930 H   0  0  0  0  0  0  0  0  0  0  0  0
   -3.0531    2.0079   -0.0196 H   0  0  0  0  0  0  0  0  0  0  0  0
   -2.7229    1.7058    1.7594 H   0  0  0  0  0  0  0  0  0  0  0  0
   -6.0741    0.1599   -0.1943 H   0  0  0  0  0  0  0  0  0  0  0  0
   -5.4468    1.7525   -0.7287 H   0  0  0  0  0  0  0  0  0  0  0  0
   -3.6002    0.6869   -1.8923 H   0  0  0  0  0  0  0  0  0  0  0  0
   -4.7633   -0.6736   -1.8498 H   0  0  0  0  0  0  0  0  0  0  0  0
   -2.7223   -1.5595   -0.9717 H   0  0  0  0  0  0  0  0  0  0  0  0
   -3.6371   -2.3072    1.1393 H   0  0  0  0  0  0  0  0  0  0  0  0
   -5.1106   -1.9553    0.0973 H   0  0  0  0  0  0  0  0  0  0  0  0
   -5.7041   -0.5974    1.8419 H   0  0  0  0  0  0  0  0  0  0  0  0
   -3.9963   -0.4802    2.5119 H   0  0  0  0  0  0  0  0  0  0  0  0
  1  2  1  0
  2  3  2  0
  2  4  1  0
  4  5  2  0
  5  6  1  0
  6  7  2  0
  7  8  1  0
  8  9  2  0
  8 10  1  0
 10 11  1  0
 11 12  2  0
 12 13  1  0
 13 14  2  0
 11 15  1  0
 15 16  2  0
 15 17  1  0
 17 18  1  0
 18 19  1  0
 19 20  1  0
 20 21  1  0
 21 22  1  0
 22 23  1  0
 23 24  1  0
 24 25  1  0
  9  4  1  0
 23 18  1  0
 13  7  1  0
 25 20  1  0
  5 26  1  0
  6 27  1  0
  9 28  1  0
 12 29  1  0
 17 30  1  0
 18 31  1  1
 19 32  1  0
 19 33  1  0
 21 34  1  0
 21 35  1  0
 22 36  1  0
 22 37  1  0
 23 38  1  0
 24 39  1  0
 24 40  1  0
 25 41  1  0
 25 42  1  0
M  CHG  2   1  -1   2   1
M  END
$$$$
[H]OC(=O)[C@@]([H])(N([H])C(=O)[C@]([H])(N([H])[H])C([H])([H])S[H])C([H])([H])c1c([H])c([H])c([H])c([H])c1[H]
     RDKit          3D

 34 34  0  0  0  0  0  0  0  0999 V2000
   -4.3852   -0.4036    0.0590 N   0  0  0  0  0  0  0  0  0  0  0  0
   -3.0982    0.0611    0.4569 C   0  0  2  0  0  0  0  0  0  0  0  0
   -2.8009    1.3439   -0.2870 C   0  0  0  0  0  0  0  0  0  0  0  0
   -4.0270    2.6196    0.0806 S   0  0  0  0  0  0  0  0  0  0  0  0
   -2.0654   -0.9387    0.1220 C   0  0  0  0  0  0  0  0  0  0  0  0
   -2.4084   -2.0089   -0.4350 O   0  0  0  0  0  0  0  0  0  0  0  0
   -0.6872   -0.7408    0.4052 N   0  0  0  0  0  0  0  0  0  0  0  0
    0.3333   -1.6938    0.0910 C   0  0  1  0  0  0  0  0  0  0  0  0
    1.3210   -1.2078   -0.9293 C   0  0  0  0  0  0  0  0  0  0  0  0
    2.0601   -0.0089   -0.5598 C   0  0  0  0  0  0  0  0  0  0  0  0
    1.5646    1.2405   -0.8767 C   0  0  0  0  0  0  0  0  0  0  0  0
    2.2617    2.4039   -0.5304 C   0  0  0  0  0  0  0  0  0  0  0  0
    3.4565    2.3281    0.1337 C   0  0  0  0  0  0  0  0  0  0  0  0
    3.9651    1.0824    0.4578 C   0  0  0  0  0  0  0  0  0  0  0  0
    3.2638   -0.0541    0.1082 C   0  0  0  0  0  0  0  0  0  0  0  0
    0.9706   -2.2725    1.3032 C   0  0  0  0  0  0  0  0  0  0  0  0
    1.9755   -3.2172    1.1511 O   0  0  0  0  0  0  0  0  0  0  0  0
    0.6580   -1.9613    2.4769 O   0  0  0  0  0  0  0  0  0  0  0  0
   -5.0874   -0.4665    0.8110 H   0  0  0  0  0  0  0  0  0  0  0  0
   -4.3753   -1.2184   -0.5843 H   0  0  0  0  0  0  0  0  0  0  0  0
   -3.1340    0.2708    1.5506 H   0  0  0  0  0  0  0  0  0  0  0  0
   -1.8090    1.7376    0.0397 H   0  0  0  0  0  0  0  0  0  0  0  0
   -2.8209    1.1426   -1.3821 H   0  0  0  0  0  0  0  0  0  0  0  0
   -4.2289    3.4844   -1.0143 H   0  0  0  0  0  0  0  0  0  0  0  0
   -0.4189    0.1570    0.8699 H   0  0  0  0  0  0  0  0  0  0  0  0
   -0.1949   -2.5687   -0.3984 H   0  0  0  0  0  0  0  0  0  0  0  0
    0.7659   -1.0256   -1.8682 H   0  0  0  0  0  0  0  0  0  0  0  0
    2.0123   -2.0573   -1.1445 H   0  0  0  0  0  0  0  0  0  0  0  0
    0.6266    1.3681   -1.4004 H   0  0  0  0  0  0  0  0  0  0  0  0
    1.8789    3.3854   -0.7758 H   0  0  0  0  0  0  0  0  0  0  0  0
    3.9923    3.2406    0.3993 H   0  0  0  0  0  0  0  0  0  0  0  0
    4.9097    1.0606    0.9815 H   0  0  0  0  0  0  0  0  0  0  0  0
    3.6643   -1.0043    0.3615 H   0  0  0  0  0  0  0  0  0  0  0  0
    1.8615   -4.0782    0.6697 H   0  0  0  0  0  0  0  0  0  0  0  0
  1  2  1  0
  2  3  1  0
  3  4  1  0
  2  5  1  0
  5  6  2  0
  5  7  1  0
  7  8  1  0
  8  9  1  0
  9 10  1  0
 10 11  2  0
 11 12  1  0
 12 13  2  0
 13 14  1  0
 14 15  2  0
  8 16  1  0
 16 17  1  0
 16 18  2  0
 15 10  1  0
  1 19  1  0
  1 20  1  0
  2 21  1  1
  3 22  1  0
  3 23  1  0
  4 24  1  0
  7 25  1  0
  8 26  1  6
  9 27  1  0
  9 28  1  0
 11 29  1  0
 12 30  1  0
 13 31  1  0
 14 32  1  0
 15 33  1  0
 17 34  1  0
M  END
$$$$
[H]c1nc([H])c(Cl)c(N([H])C(=O)N([H])c2c([H])c(-c3c([H])c([H])c([H])c(-c4c([H])c([H])c([H])c(-c5nnn([H])n5)c4[H])c3[H])nn(C([H])([H])C([H])([H])[H])c2=O)c1Cl
     RDKit          3D

 57 61  0  0  0  0  0  0  0  0999 V2000
   -2.3943   -5.9715    1.2710 C   0  0  0  0  0  0  0  0  0  0  0  0
   -2.1101   -5.6682   -0.1948 C   0  0  0  0  0  0  0  0  0  0  0  0
   -1.7228   -4.2537   -0.2340 N   0  0  0  0  0  0  0  0  0  0  0  0
   -0.4692   -3.9361   -0.1010 N   0  0  0  0  0  0  0  0  0  0  0  0
   -0.0012   -2.6756   -0.1209 C   0  0  0  0  0  0  0  0  0  0  0  0
   -0.9274   -1.6433   -0.2964 C   0  0  0  0  0  0  0  0  0  0  0  0
   -2.2566   -1.9536   -0.4391 C   0  0  0  0  0  0  0  0  0  0  0  0
   -3.2674   -0.9961   -0.6201 N   0  0  0  0  0  0  0  0  0  0  0  0
   -3.1780    0.3960   -0.6939 C   0  0  0  0  0  0  0  0  0  0  0  0
   -2.0982    1.0094   -0.6003 O   0  0  0  0  0  0  0  0  0  0  0  0
   -4.3343    1.2295   -0.8849 N   0  0  0  0  0  0  0  0  0  0  0  0
   -4.2764    2.6328   -0.9632 C   0  0  0  0  0  0  0  0  0  0  0  0
   -4.3923    3.3866    0.1948 C   0  0  0  0  0  0  0  0  0  0  0  0
   -4.6085    2.5625    1.7307 Cl  0  0  0  0  0  0  0  0  0  0  0  0
   -4.3409    4.7685    0.1594 C   0  0  0  0  0  0  0  0  0  0  0  0
   -4.1752    5.3745   -1.0272 N   0  0  0  0  0  0  0  0  0  0  0  0
   -4.0562    4.6910   -2.1917 C   0  0  0  0  0  0  0  0  0  0  0  0
   -4.1093    3.3155   -2.1403 C   0  0  0  0  0  0  0  0  0  0  0  0
   -3.9545    2.4351   -3.6495 Cl  0  0  0  0  0  0  0  0  0  0  0  0
   -2.6375   -3.2990   -0.4034 C   0  0  0  0  0  0  0  0  0  0  0  0
   -3.8343   -3.6426   -0.5280 O   0  0  0  0  0  0  0  0  0  0  0  0
    1.4349   -2.4120    0.0378 C   0  0  0  0  0  0  0  0  0  0  0  0
    2.2804   -3.4868    0.2078 C   0  0  0  0  0  0  0  0  0  0  0  0
    3.6426   -3.3604    0.3659 C   0  0  0  0  0  0  0  0  0  0  0  0
    4.1721   -2.0834    0.3508 C   0  0  0  0  0  0  0  0  0  0  0  0
    3.3731   -0.9727    0.1842 C   0  0  0  0  0  0  0  0  0  0  0  0
    1.9971   -1.1703    0.0288 C   0  0  0  0  0  0  0  0  0  0  0  0
    3.9607    0.3613    0.1718 C   0  0  0  0  0  0  0  0  0  0  0  0
    5.2375    0.5435   -0.3238 C   0  0  0  0  0  0  0  0  0  0  0  0
    5.8273    1.7993   -0.3514 C   0  0  0  0  0  0  0  0  0  0  0  0
    5.1551    2.9093    0.1169 C   0  0  0  0  0  0  0  0  0  0  0  0
    3.8719    2.7389    0.6171 C   0  0  0  0  0  0  0  0  0  0  0  0
    3.3007    1.4804    0.6365 C   0  0  0  0  0  0  0  0  0  0  0  0
    3.1442    3.8986    1.1163 C   0  0  0  0  0  0  0  0  0  0  0  0
    1.9059    3.9132    1.6306 N   0  0  0  0  0  0  0  0  0  0  0  0
    1.6309    5.1523    1.9560 N   0  0  0  0  0  0  0  0  0  0  0  0
    2.6475    5.9409    1.6704 N   0  0  0  0  0  0  0  0  0  0  0  0
    3.5824    5.1664    1.1517 N   0  0  0  0  0  0  0  0  0  0  0  0
   -2.9089   -5.0849    1.7408 H   0  0  0  0  0  0  0  0  0  0  0  0
   -1.4200   -6.1388    1.7611 H   0  0  0  0  0  0  0  0  0  0  0  0
   -2.9869   -6.8839    1.3997 H   0  0  0  0  0  0  0  0  0  0  0  0
   -1.2633   -6.3248   -0.4814 H   0  0  0  0  0  0  0  0  0  0  0  0
   -3.0039   -5.8595   -0.7908 H   0  0  0  0  0  0  0  0  0  0  0  0
   -0.5603   -0.6485   -0.3125 H   0  0  0  0  0  0  0  0  0  0  0  0
   -4.2707   -1.3796   -0.7185 H   0  0  0  0  0  0  0  0  0  0  0  0
   -5.2685    0.7761   -0.9707 H   0  0  0  0  0  0  0  0  0  0  0  0
   -4.4339    5.3264    1.0777 H   0  0  0  0  0  0  0  0  0  0  0  0
   -3.9229    5.1728   -3.1480 H   0  0  0  0  0  0  0  0  0  0  0  0
    1.8826   -4.5117    0.2232 H   0  0  0  0  0  0  0  0  0  0  0  0
    4.2667   -4.2332    0.4964 H   0  0  0  0  0  0  0  0  0  0  0  0
    5.2537   -1.9196    0.4725 H   0  0  0  0  0  0  0  0  0  0  0  0
    1.4002   -0.3042   -0.0980 H   0  0  0  0  0  0  0  0  0  0  0  0
    5.7701   -0.3263   -0.6932 H   0  0  0  0  0  0  0  0  0  0  0  0
    6.8285    1.9561   -0.7378 H   0  0  0  0  0  0  0  0  0  0  0  0
    5.6348    3.8828    0.0862 H   0  0  0  0  0  0  0  0  0  0  0  0
    2.2984    1.3442    1.0267 H   0  0  0  0  0  0  0  0  0  0  0  0
    2.6846    6.9764    1.8322 H   0  0  0  0  0  0  0  0  0  0  0  0
  1  2  1  0
  2  3  1  0
  3  4  1  0
  4  5  2  0
  5  6  1  0
  6  7  2  0
  7  8  1  0
  8  9  1  0
  9 10  2  0
  9 11  1  0
 11 12  1  0
 12 13  2  0
 13 14  1  0
 13 15  1  0
 15 16  2  0
 16 17  1  0
 17 18  2  0
 18 19  1  0
  7 20  1  0
 20 21  2  0
  5 22  1  0
 22 23  2  0
 23 24  1  0
 24 25  2  0
 25 26  1  0
 26 27  2  0
 26 28  1  0
 28 29  2  0
 29 30  1  0
 30 31  2  0
 31 32  1  0
 32 33  2  0
 32 34  1  0
 34 35  1  0
 35 36  2  0
 36 37  1  0
 37 38  1  0
 20  3  1  0
 27 22  1  0
 33 28  1  0
 38 34  2  0
 18 12  1  0
  1 39  1  0
  1 40  1  0
  1 41  1  0
  2 42  1  0
  2 43  1  0
  6 44  1  0
  8 45  1  0
 11 46  1  0
 15 47  1  0
 17 48  1  0
 23 49  1  0
 24 50  1  0
 25 51  1  0
 27 52  1  0
 29 53  1  0
 30 54  1  0
 31 55  1  0
 33 56  1  0
 37 57  1  0
M  END
$$$$
[H]c1c([H])c(C(=O)N([H])c2nnc(-c3c([H])c([H])c(Oc4c([H])c([H])c([N+](=O)[O-])c([H])c4[H])c([H])c3[H])s2)c([H])c([H])c1Br
     RDKit          3D

 44 47  0  0  0  0  0  0  0  0999 V2000
   -8.0553    3.3693    1.0468 O   0  0  0  0  0  0  0  0  0  0  0  0
   -7.6647    2.1999    1.6409 N   0  0  0  0  0  0  0  0  0  0  0  0
   -8.0593    1.9378    2.7861 O   0  0  0  0  0  0  0  0  0  0  0  0
   -6.8289    1.3136    0.9577 C   0  0  0  0  0  0  0  0  0  0  0  0
   -6.3692    1.5808   -0.3302 C   0  0  0  0  0  0  0  0  0  0  0  0
   -5.5437    0.7046   -1.0038 C   0  0  0  0  0  0  0  0  0  0  0  0
   -5.1466   -0.4762   -0.4100 C   0  0  0  0  0  0  0  0  0  0  0  0
   -4.3291   -1.3355   -1.0873 O   0  0  0  0  0  0  0  0  0  0  0  0
   -2.9366   -1.2865   -1.0277 C   0  0  0  0  0  0  0  0  0  0  0  0
   -2.1415   -2.1691   -1.7240 C   0  0  0  0  0  0  0  0  0  0  0  0
   -0.7586   -2.0952   -1.6446 C   0  0  0  0  0  0  0  0  0  0  0  0
   -0.1201   -1.1497   -0.8771 C   0  0  0  0  0  0  0  0  0  0  0  0
   -0.9064   -0.2675   -0.1811 C   0  0  0  0  0  0  0  0  0  0  0  0
   -2.3038   -0.3361   -0.2563 C   0  0  0  0  0  0  0  0  0  0  0  0
    1.3532   -1.1136   -0.8268 C   0  0  0  0  0  0  0  0  0  0  0  0
    2.1570   -0.3027   -0.1647 N   0  0  0  0  0  0  0  0  0  0  0  0
    3.4077   -0.4345   -0.2523 N   0  0  0  0  0  0  0  0  0  0  0  0
    3.9339   -1.3839   -1.0063 C   0  0  0  0  0  0  0  0  0  0  0  0
    5.2754   -1.7624   -1.2905 N   0  0  0  0  0  0  0  0  0  0  0  0
    6.3562   -1.0893   -0.7349 C   0  0  0  0  0  0  0  0  0  0  0  0
    7.5420   -1.4769   -1.0285 O   0  0  0  0  0  0  0  0  0  0  0  0
    6.1541    0.0350    0.1638 C   0  0  0  0  0  0  0  0  0  0  0  0
    6.0611    1.3447   -0.3033 C   0  0  0  0  0  0  0  0  0  0  0  0
    5.8782    2.3539    0.6250 C   0  0  0  0  0  0  0  0  0  0  0  0
    5.7880    2.0943    1.9757 C   0  0  0  0  0  0  0  0  0  0  0  0
    5.5349    3.4836    3.2691 Br  0  0  0  0  0  0  0  0  0  0  0  0
    5.8797    0.7976    2.4423 C   0  0  0  0  0  0  0  0  0  0  0  0
    6.0629   -0.2144    1.5141 C   0  0  0  0  0  0  0  0  0  0  0  0
    2.4922   -2.1242   -1.6210 S   0  0  0  0  0  0  0  0  0  0  0  0
   -5.6007   -0.7451    0.8685 C   0  0  0  0  0  0  0  0  0  0  0  0
   -6.4264    0.1219    1.5535 C   0  0  0  0  0  0  0  0  0  0  0  0
   -6.6665    2.5102   -0.8299 H   0  0  0  0  0  0  0  0  0  0  0  0
   -5.2021    0.9513   -2.0193 H   0  0  0  0  0  0  0  0  0  0  0  0
   -2.6394   -2.9153   -2.3296 H   0  0  0  0  0  0  0  0  0  0  0  0
   -0.1468   -2.8017   -2.2023 H   0  0  0  0  0  0  0  0  0  0  0  0
   -0.4245    0.4887    0.4324 H   0  0  0  0  0  0  0  0  0  0  0  0
   -2.9145    0.3545    0.2886 H   0  0  0  0  0  0  0  0  0  0  0  0
    5.4495   -2.5742   -1.9390 H   0  0  0  0  0  0  0  0  0  0  0  0
    6.1347    1.5108   -1.3524 H   0  0  0  0  0  0  0  0  0  0  0  0
    5.8019    3.3810    0.2970 H   0  0  0  0  0  0  0  0  0  0  0  0
    5.8097    0.5821    3.5069 H   0  0  0  0  0  0  0  0  0  0  0  0
    6.1389   -1.2393    1.8417 H   0  0  0  0  0  0  0  0  0  0  0  0
   -5.2697   -1.6809    1.3051 H   0  0  0  0  0  0  0  0  0  0  0  0
   -6.7566   -0.1414    2.5650 H   0  0  0  0  0  0  0  0  0  0  0  0
  1  2  1  0
  2  3  2  0
  2  4  1  0
  4  5  2  0
  5  6  1  0
  6  7  2  0
  7  8  1  0
  8  9  1  0
  9 10  2  0
 10 11  1  0
 11 12  2  0
 12 13  1  0
 13 14  2  0
 12 15  1  0
 15 16  2  0
 16 17  1  0
 17 18  2  0
 18 19  1  0
 19 20  1  0
 20 21  2  0
 20 22  1  0
 22 23  2  0
 23 24  1  0
 24 25  2  0
 25 26  1  0
 25 27  1  0
 27 28  2  0
 18 29  1  0
  7 30  1  0
 30 31  2  0
 31  4  1  0
 14  9  1  0
 29 15  1  0
 28 22  1  0
  5 32  1  0
  6 33  1  0
 10 34  1  0
 11 35  1  0
 13 36  1  0
 14 37  1  0
 19 38  1  0
 23 39  1  0
 24 40  1  0
 27 41  1  0
 28 42  1  0
 30 43  1  0
 31 44  1  0
M  CHG  2   1  -1   2   1
M  END
$$$$
[H]OC1([H])C([H])([H])C([H])([H])C2([H])C3([H])C([H])([H])C([H])([H])C4=C([H])C(=O)C([H])([H])C([H])([H])[C@]4(C([H])([H])[H])C3([H])C([H])([H])C([H])([H])[C@]12C([H])([H])[H]
     RDKit          3D

 49 52  0  0  0  0  0  0  0  0999 V2000
    2.4951    1.4829    1.0374 C   0  0  0  0  0  0  0  0  0  0  0  0
    2.2239    0.5754   -0.1457 C   0  0  2  0  0  0  0  0  0  0  0  0
    1.4868    1.3409   -1.2073 C   0  0  0  0  0  0  0  0  0  0  0  0
    0.0671    1.4704   -0.7616 C   0  0  0  0  0  0  0  0  0  0  0  0
   -0.5834    0.1191   -0.7973 C   0  0  0  0  0  0  0  0  0  0  0  0
    0.2596   -1.0154   -0.3859 C   0  0  0  0  0  0  0  0  0  0  0  0
   -0.4065   -2.0232    0.5253 C   0  0  0  0  0  0  0  0  0  0  0  0
   -1.8556   -2.1908    0.3591 C   0  0  0  0  0  0  0  0  0  0  0  0
   -2.6013   -0.9960   -0.0772 C   0  0  0  0  0  0  0  0  0  0  0  0
   -3.8295   -1.1534   -0.5220 C   0  0  0  0  0  0  0  0  0  0  0  0
   -4.6083    0.0214   -0.9677 C   0  0  0  0  0  0  0  0  0  0  0  0
   -5.5795   -0.1286   -1.7344 O   0  0  0  0  0  0  0  0  0  0  0  0
   -4.1243    1.3140   -0.4269 C   0  0  0  0  0  0  0  0  0  0  0  0
   -2.6356    1.4288   -0.5532 C   0  0  0  0  0  0  0  0  0  0  0  0
   -1.8656    0.2763    0.0382 C   0  0  2  0  0  0  0  0  0  0  0  0
   -1.5203    0.6063    1.4722 C   0  0  0  0  0  0  0  0  0  0  0  0
    1.5683   -0.7006    0.2489 C   0  0  0  0  0  0  0  0  0  0  0  0
    2.5943   -1.8029   -0.0643 C   0  0  0  0  0  0  0  0  0  0  0  0
    3.9043   -1.0967    0.0144 C   0  0  0  0  0  0  0  0  0  0  0  0
    3.5880    0.2119   -0.7225 C   0  0  0  0  0  0  0  0  0  0  0  0
    4.5690    1.1085   -0.3698 O   0  0  0  0  0  0  0  0  0  0  0  0
    3.2986    2.2150    0.8270 H   0  0  0  0  0  0  0  0  0  0  0  0
    2.7804    0.7898    1.8830 H   0  0  0  0  0  0  0  0  0  0  0  0
    1.6230    2.0337    1.3826 H   0  0  0  0  0  0  0  0  0  0  0  0
    1.9879    2.3153   -1.3309 H   0  0  0  0  0  0  0  0  0  0  0  0
    1.4880    0.7794   -2.1664 H   0  0  0  0  0  0  0  0  0  0  0  0
   -0.4412    2.1634   -1.4849 H   0  0  0  0  0  0  0  0  0  0  0  0
   -0.0535    1.9485    0.2250 H   0  0  0  0  0  0  0  0  0  0  0  0
   -0.9786    0.0143   -1.8442 H   0  0  0  0  0  0  0  0  0  0  0  0
    0.4943   -1.6022   -1.3168 H   0  0  0  0  0  0  0  0  0  0  0  0
    0.0739   -3.0359    0.3683 H   0  0  0  0  0  0  0  0  0  0  0  0
   -0.1522   -1.7736    1.5853 H   0  0  0  0  0  0  0  0  0  0  0  0
   -2.1270   -3.0554   -0.3164 H   0  0  0  0  0  0  0  0  0  0  0  0
   -2.3160   -2.4925    1.3480 H   0  0  0  0  0  0  0  0  0  0  0  0
   -4.2906   -2.1454   -0.5694 H   0  0  0  0  0  0  0  0  0  0  0  0
   -4.4477    1.3555    0.6345 H   0  0  0  0  0  0  0  0  0  0  0  0
   -4.5796    2.1109   -1.0199 H   0  0  0  0  0  0  0  0  0  0  0  0
   -2.4052    1.4642   -1.6497 H   0  0  0  0  0  0  0  0  0  0  0  0
   -2.3331    2.3708   -0.0396 H   0  0  0  0  0  0  0  0  0  0  0  0
   -1.9981    1.5596    1.7635 H   0  0  0  0  0  0  0  0  0  0  0  0
   -1.9862   -0.1827    2.1156 H   0  0  0  0  0  0  0  0  0  0  0  0
   -0.4560    0.6025    1.6977 H   0  0  0  0  0  0  0  0  0  0  0  0
    1.5253   -0.7075    1.3703 H   0  0  0  0  0  0  0  0  0  0  0  0
    2.4839   -2.6302    0.6687 H   0  0  0  0  0  0  0  0  0  0  0  0
    2.4315   -2.1495   -1.1018 H   0  0  0  0  0  0  0  0  0  0  0  0
    4.1666   -0.9038    1.0682 H   0  0  0  0  0  0  0  0  0  0  0  0
    4.7076   -1.6276   -0.5361 H   0  0  0  0  0  0  0  0  0  0  0  0
    3.5436   -0.0172   -1.7900 H   0  0  0  0  0  0  0  0  0  0  0  0
    4.8140    1.7527   -1.0736 H   0  0  0  0  0  0  0  0  0  0  0  0
  2  1  1  1
  2  3  1  0
  3  4  1  0
  4  5  1  0
  5  6  1  0
  6  7  1  0
  7  8  1  0
  8  9  1  0
  9 10  2  0
 10 11  1  0
 11 12  2  0
 11 13  1  0
 13 14  1  0
 14 15  1  0
 15 16  1  1
  6 17  1  0
 17 18  1  0
 18 19  1  0
 19 20  1  0
 20 21  1  0
 17  2  1  0
 20  2  1  0
 15  5  1  0
 15  9  1  0
  1 22  1  0
  1 23  1  0
  1 24  1  0
  3 25  1  0
  3 26  1  0
  4 27  1  0
  4 28  1  0
  5 29  1  0
  6 30  1  0
  7 31  1  0
  7 32  1  0
  8 33  1  0
  8 34  1  0
 10 35  1  0
 13 36  1  0
 13 37  1  0
 14 38  1  0
 14 39  1  0
 16 40  1  0
 16 41  1  0
 16 42  1  0
 17 43  1  0
 18 44  1  0
 18 45  1  0
 19 46  1  0
 19 47  1  0
 20 48  1  0
 21 49  1  0
M  END
$$$$
[H]O[C@]12O[C@]([H])([C@@]([H])(OC([H])([H])[H])C([H])([H])[C@@]([H])(C([H])([H])[H])C([H])([H])/C(C([H])([H])[H])=C(\[H])[C@@]([H])(C([H])([H])C([H])([H])[H])C(=O)C([H])([H])[C@@]([H])(O[H])[C@@]([H])(C([H])([H])[H])[C@@]([H])(C(=C([H])[H])C([H])([H])[H])OC(=O)[C@@]3([H])N(C(=O)C1=O)C([H])([H])C([H])([H])C([H])([H])C3([H])[H])[C@@]([H])(OC([H])([H])[H])C([H])([H])[C@@]2([H])C([H])([H])[H]
     RDKit          3D

104106  0  0  0  0  0  0  0  0999 V2000
   -0.5285   -3.7228    3.2897 C   0  0  0  0  0  0  0  0  0  0  0  0
   -1.2784   -2.9556    2.2166 C   0  0  0  0  0  0  0  0  0  0  0  0
   -1.8467   -4.0137    1.2471 C   0  0  2  0  0  0  0  0  0  0  0  0
   -0.8013   -4.8128    0.6360 C   0  0  0  0  0  0  0  0  0  0  0  0
   -0.1263   -4.6647   -0.4826 C   0  0  0  0  0  0  0  0  0  0  0  0
    0.9265   -5.7342   -0.8104 C   0  0  0  0  0  0  0  0  0  0  0  0
   -0.2390   -3.6155   -1.5011 C   0  0  0  0  0  0  0  0  0  0  0  0
    0.4432   -2.2975   -1.2249 C   0  0  2  0  0  0  0  0  0  0  0  0
    0.4028   -1.5494   -2.5301 C   0  0  0  0  0  0  0  0  0  0  0  0
    1.7001   -2.3439   -0.5019 C   0  0  0  0  0  0  0  0  0  0  0  0
    2.9062   -1.6356   -1.0191 C   0  0  2  0  0  0  0  0  0  0  0  0
    4.0246   -2.2501   -0.4392 O   0  0  0  0  0  0  0  0  0  0  0  0
    4.8903   -2.8088   -1.3428 C   0  0  0  0  0  0  0  0  0  0  0  0
    3.0432   -0.1958   -0.7225 C   0  0  1  0  0  0  0  0  0  0  0  0
    1.9464    0.6071   -0.9353 O   0  0  0  0  0  0  0  0  0  0  0  0
    2.2693    1.9236   -1.1427 C   0  0  2  0  0  0  0  0  0  0  0  0
    3.1802    1.9386   -2.2483 O   0  0  0  0  0  0  0  0  0  0  0  0
    2.9991    2.5545   -0.0386 C   0  0  2  0  0  0  0  0  0  0  0  0
    3.7401    3.8078   -0.5026 C   0  0  0  0  0  0  0  0  0  0  0  0
    4.0847    1.6162    0.4477 C   0  0  0  0  0  0  0  0  0  0  0  0
    3.5555    0.1800    0.6374 C   0  0  2  0  0  0  0  0  0  0  0  0
    4.5964   -0.5624    1.1166 O   0  0  0  0  0  0  0  0  0  0  0  0
    4.2307   -1.0593    2.3866 C   0  0  0  0  0  0  0  0  0  0  0  0
    1.0173    2.5758   -1.6018 C   0  0  0  0  0  0  0  0  0  0  0  0
    0.6800    2.0619   -2.7532 O   0  0  0  0  0  0  0  0  0  0  0  0
    0.2127    3.5898   -1.0125 C   0  0  0  0  0  0  0  0  0  0  0  0
   -0.1542    4.5238   -1.8368 O   0  0  0  0  0  0  0  0  0  0  0  0
   -0.2860    3.8167    0.2809 N   0  0  0  0  0  0  0  0  0  0  0  0
   -0.5707    5.2230    0.7240 C   0  0  0  0  0  0  0  0  0  0  0  0
   -0.0137    5.4565    2.0902 C   0  0  0  0  0  0  0  0  0  0  0  0
   -0.8028    4.6028    3.0619 C   0  0  0  0  0  0  0  0  0  0  0  0
   -1.5815    3.5704    2.3056 C   0  0  0  0  0  0  0  0  0  0  0  0
   -0.5941    2.8992    1.3217 C   0  0  1  0  0  0  0  0  0  0  0  0
   -1.1757    1.5943    0.9101 C   0  0  0  0  0  0  0  0  0  0  0  0
   -0.4891    0.6035    1.3616 O   0  0  0  0  0  0  0  0  0  0  0  0
   -2.2802    1.5771    0.1653 O   0  0  0  0  0  0  0  0  0  0  0  0
   -2.8677    1.1255   -0.9584 C   0  0  1  0  0  0  0  0  0  0  0  0
   -3.9065    0.0680   -0.5527 C   0  0  2  0  0  0  0  0  0  0  0  0
   -4.3176    0.2534    0.8841 C   0  0  0  0  0  0  0  0  0  0  0  0
   -3.4440   -1.3387   -0.8336 C   0  0  2  0  0  0  0  0  0  0  0  0
   -4.4089   -2.0688   -1.5650 O   0  0  0  0  0  0  0  0  0  0  0  0
   -3.2373   -2.0318    0.4690 C   0  0  0  0  0  0  0  0  0  0  0  0
   -2.9154   -3.4678    0.4003 C   0  0  0  0  0  0  0  0  0  0  0  0
   -3.5299   -4.1876   -0.3455 O   0  0  0  0  0  0  0  0  0  0  0  0
   -3.6628    2.1774   -1.7054 C   0  0  0  0  0  0  0  0  0  0  0  0
   -4.3882    1.7132   -2.9167 C   0  0  0  0  0  0  0  0  0  0  0  0
   -3.7405    3.4240   -1.3533 C   0  0  0  0  0  0  0  0  0  0  0  0
   -0.5379   -3.0867    4.1979 H   0  0  0  0  0  0  0  0  0  0  0  0
   -1.1022   -4.6456    3.5478 H   0  0  0  0  0  0  0  0  0  0  0  0
    0.5121   -3.9268    3.0435 H   0  0  0  0  0  0  0  0  0  0  0  0
   -2.1678   -2.5143    2.7100 H   0  0  0  0  0  0  0  0  0  0  0  0
   -0.6122   -2.2489    1.7298 H   0  0  0  0  0  0  0  0  0  0  0  0
   -2.4173   -4.6833    1.9784 H   0  0  0  0  0  0  0  0  0  0  0  0
   -0.5077   -5.7315    1.2327 H   0  0  0  0  0  0  0  0  0  0  0  0
    1.3117   -5.6121   -1.8350 H   0  0  0  0  0  0  0  0  0  0  0  0
    0.4335   -6.7358   -0.7781 H   0  0  0  0  0  0  0  0  0  0  0  0
    1.7056   -5.7554   -0.0239 H   0  0  0  0  0  0  0  0  0  0  0  0
    0.2282   -3.9544   -2.4905 H   0  0  0  0  0  0  0  0  0  0  0  0
   -1.2940   -3.4085   -1.8292 H   0  0  0  0  0  0  0  0  0  0  0  0
   -0.3044   -1.7476   -0.5680 H   0  0  0  0  0  0  0  0  0  0  0  0
    1.3537   -1.3209   -2.9940 H   0  0  0  0  0  0  0  0  0  0  0  0
   -0.2484   -0.6358   -2.4669 H   0  0  0  0  0  0  0  0  0  0  0  0
   -0.1428   -2.1376   -3.3344 H   0  0  0  0  0  0  0  0  0  0  0  0
    2.0029   -3.4022   -0.3491 H   0  0  0  0  0  0  0  0  0  0  0  0
    1.5934   -1.9705    0.5676 H   0  0  0  0  0  0  0  0  0  0  0  0
    3.0746   -1.8003   -2.1115 H   0  0  0  0  0  0  0  0  0  0  0  0
    5.7678   -3.2902   -0.8802 H   0  0  0  0  0  0  0  0  0  0  0  0
    5.2976   -2.0874   -2.0818 H   0  0  0  0  0  0  0  0  0  0  0  0
    4.3418   -3.6191   -1.8959 H   0  0  0  0  0  0  0  0  0  0  0  0
    3.8281    0.1887   -1.4507 H   0  0  0  0  0  0  0  0  0  0  0  0
    2.9268    2.6561   -2.8780 H   0  0  0  0  0  0  0  0  0  0  0  0
    2.4500    2.8515    0.8521 H   0  0  0  0  0  0  0  0  0  0  0  0
    4.2965    3.6260   -1.4308 H   0  0  0  0  0  0  0  0  0  0  0  0
    3.0738    4.6937   -0.5324 H   0  0  0  0  0  0  0  0  0  0  0  0
    4.5105    4.0249    0.2789 H   0  0  0  0  0  0  0  0  0  0  0  0
    4.4167    1.9535    1.4411 H   0  0  0  0  0  0  0  0  0  0  0  0
    4.9137    1.5383   -0.2779 H   0  0  0  0  0  0  0  0  0  0  0  0
    2.6980    0.1915    1.3435 H   0  0  0  0  0  0  0  0  0  0  0  0
    5.0377   -1.6633    2.8071 H   0  0  0  0  0  0  0  0  0  0  0  0
    4.0962   -0.1598    3.0387 H   0  0  0  0  0  0  0  0  0  0  0  0
    3.3041   -1.6412    2.2946 H   0  0  0  0  0  0  0  0  0  0  0  0
   -1.6528    5.3939    0.6451 H   0  0  0  0  0  0  0  0  0  0  0  0
   -0.0740    5.9307    0.0358 H   0  0  0  0  0  0  0  0  0  0  0  0
    1.0568    5.1622    2.0662 H   0  0  0  0  0  0  0  0  0  0  0  0
   -0.1325    6.5271    2.3132 H   0  0  0  0  0  0  0  0  0  0  0  0
   -1.4599    5.2341    3.6731 H   0  0  0  0  0  0  0  0  0  0  0  0
   -0.0490    4.0487    3.6789 H   0  0  0  0  0  0  0  0  0  0  0  0
   -2.4749    3.9297    1.7988 H   0  0  0  0  0  0  0  0  0  0  0  0
   -1.8857    2.7466    2.9873 H   0  0  0  0  0  0  0  0  0  0  0  0
    0.3255    2.8020    1.9459 H   0  0  0  0  0  0  0  0  0  0  0  0
   -2.2547    0.6637   -1.7597 H   0  0  0  0  0  0  0  0  0  0  0  0
   -4.8161    0.2231   -1.1625 H   0  0  0  0  0  0  0  0  0  0  0  0
   -5.2914   -0.2872    1.0261 H   0  0  0  0  0  0  0  0  0  0  0  0
   -4.5548    1.3219    1.0734 H   0  0  0  0  0  0  0  0  0  0  0  0
   -3.5545   -0.0314    1.6171 H   0  0  0  0  0  0  0  0  0  0  0  0
   -2.5143   -1.2883   -1.3964 H   0  0  0  0  0  0  0  0  0  0  0  0
   -4.2269   -1.8355   -2.5247 H   0  0  0  0  0  0  0  0  0  0  0  0
   -2.3444   -1.5215    0.9364 H   0  0  0  0  0  0  0  0  0  0  0  0
   -4.1212   -1.9502    1.1474 H   0  0  0  0  0  0  0  0  0  0  0  0
   -5.4534    1.5375   -2.5825 H   0  0  0  0  0  0  0  0  0  0  0  0
   -4.5014    2.5441   -3.6748 H   0  0  0  0  0  0  0  0  0  0  0  0
   -3.9663    0.8072   -3.3629 H   0  0  0  0  0  0  0  0  0  0  0  0
   -3.2302    3.8060   -0.4803 H   0  0  0  0  0  0  0  0  0  0  0  0
   -4.3262    4.1229   -1.9317 H   0  0  0  0  0  0  0  0  0  0  0  0
  1  2  1  0
  2  3  1  0
  3  4  1  0
  4  5  2  0
  5  6  1  0
  5  7  1  0
  7  8  1  0
  8  9  1  0
  8 10  1  0
 10 11  1  0
 11 12  1  0
 12 13  1  0
 11 14  1  0
 14 15  1  0
 15 16  1  0
 16 17  1  6
 16 18  1  0
 18 19  1  0
 18 20  1  0
 20 21  1  0
 21 22  1  0
 22 23  1  0
 16 24  1  0
 24 25  2  0
 24 26  1  0
 26 27  2  0
 26 28  1  0
 28 29  1  0
 29 30  1  0
 30 31  1  0
 31 32  1  0
 32 33  1  0
 33 34  1  0
 34 35  2  0
 34 36  1  0
 36 37  1  0
 37 38  1  0
 38 39  1  0
 38 40  1  0
 40 41  1  0
 40 42  1  0
 42 43  1  0
 43 44  2  0
 37 45  1  0
 45 46  1  0
 45 47  2  3
 43  3  1  0
 21 14  1  0
 33 28  1  0
  1 48  1  0
  1 49  1  0
  1 50  1  0
  2 51  1  0
  2 52  1  0
  3 53  1  1
  4 54  1  0
  6 55  1  0
  6 56  1  0
  6 57  1  0
  7 58  1  0
  7 59  1  0
  8 60  1  1
  9 61  1  0
  9 62  1  0
  9 63  1  0
 10 64  1  0
 10 65  1  0
 11 66  1  6
 13 67  1  0
 13 68  1  0
 13 69  1  0
 14 70  1  6
 17 71  1  0
 18 72  1  1
 19 73  1  0
 19 74  1  0
 19 75  1  0
 20 76  1  0
 20 77  1  0
 21 78  1  1
 23 79  1  0
 23 80  1  0
 23 81  1  0
 29 82  1  0
 29 83  1  0
 30 84  1  0
 30 85  1  0
 31 86  1  0
 31 87  1  0
 32 88  1  0
 32 89  1  0
 33 90  1  1
 37 91  1  6
 38 92  1  6
 39 93  1  0
 39 94  1  0
 39 95  1  0
 40 96  1  6
 41 97  1  0
 42 98  1  0
 42 99  1  0
 46100  1  0
 46101  1  0
 46102  1  0
 47103  1  0
 47104  1  0
M  END
$$$$
[H]OC([H])([H])C([H])([H])Oc1nc([H])c(-c2c(C([H])([H])[H])nc([H])c(N([H])C(=O)c3c([H])c([H])c([H])c(C(F)(F)F)c3[H])c2[H])c([H])c1N1C([H])([H])C([H])([H])OC([H])([H])C1([H])[H]
     RDKit          3D

 61 64  0  0  0  0  0  0  0  0999 V2000
   -1.0478   -1.6207    3.5053 C   0  0  0  0  0  0  0  0  0  0  0  0
    0.1766   -1.1925    2.7955 C   0  0  0  0  0  0  0  0  0  0  0  0
    1.3257   -1.0825    3.4680 N   0  0  0  0  0  0  0  0  0  0  0  0
    2.4807   -0.7144    2.9087 C   0  0  0  0  0  0  0  0  0  0  0  0
    2.5518   -0.4133    1.5431 C   0  0  0  0  0  0  0  0  0  0  0  0
    3.8026   -0.0344    1.0189 N   0  0  0  0  0  0  0  0  0  0  0  0
    4.0530    0.4836   -0.2595 C   0  0  0  0  0  0  0  0  0  0  0  0
    3.2193    0.7059   -1.1649 O   0  0  0  0  0  0  0  0  0  0  0  0
    5.4466    0.8175   -0.6170 C   0  0  0  0  0  0  0  0  0  0  0  0
    5.6539    1.9033   -1.4294 C   0  0  0  0  0  0  0  0  0  0  0  0
    6.9225    2.2945   -1.8348 C   0  0  0  0  0  0  0  0  0  0  0  0
    7.9585    1.5341   -1.3822 C   0  0  0  0  0  0  0  0  0  0  0  0
    7.8315    0.4297   -0.5664 C   0  0  0  0  0  0  0  0  0  0  0  0
    6.5312    0.0968   -0.1967 C   0  0  0  0  0  0  0  0  0  0  0  0
    9.0106   -0.3453   -0.1284 C   0  0  0  0  0  0  0  0  0  0  0  0
    9.4558   -1.1528   -1.1713 F   0  0  0  0  0  0  0  0  0  0  0  0
   10.0124    0.5505    0.2423 F   0  0  0  0  0  0  0  0  0  0  0  0
    8.7145   -1.1484    0.9535 F   0  0  0  0  0  0  0  0  0  0  0  0
    1.3746   -0.5263    0.8625 C   0  0  0  0  0  0  0  0  0  0  0  0
    0.1808   -0.9090    1.4443 C   0  0  0  0  0  0  0  0  0  0  0  0
   -1.0432   -0.9973    0.6608 C   0  0  0  0  0  0  0  0  0  0  0  0
   -1.4183   -2.1600    0.0278 C   0  0  0  0  0  0  0  0  0  0  0  0
   -2.5655   -2.1624   -0.6691 N   0  0  0  0  0  0  0  0  0  0  0  0
   -3.3794   -1.1038   -0.7919 C   0  0  0  0  0  0  0  0  0  0  0  0
   -4.5558   -1.0701   -1.4924 O   0  0  0  0  0  0  0  0  0  0  0  0
   -5.0857   -2.1506   -2.1861 C   0  0  0  0  0  0  0  0  0  0  0  0
   -5.4131   -3.3579   -1.3258 C   0  0  0  0  0  0  0  0  0  0  0  0
   -5.9426   -4.3749   -2.1589 O   0  0  0  0  0  0  0  0  0  0  0  0
   -3.0378    0.1092   -0.1636 C   0  0  0  0  0  0  0  0  0  0  0  0
   -1.8739    0.1199    0.5470 C   0  0  0  0  0  0  0  0  0  0  0  0
   -3.8882    1.2294   -0.3014 N   0  0  0  0  0  0  0  0  0  0  0  0
   -5.2777    1.2118    0.0904 C   0  0  0  0  0  0  0  0  0  0  0  0
   -5.6339    2.5594    0.6664 C   0  0  0  0  0  0  0  0  0  0  0  0
   -4.4326    3.1334    1.1555 O   0  0  0  0  0  0  0  0  0  0  0  0
   -3.8201    3.6757    0.0156 C   0  0  0  0  0  0  0  0  0  0  0  0
   -3.3787    2.4904   -0.8543 C   0  0  0  0  0  0  0  0  0  0  0  0
   -1.2820   -2.6748    3.2915 H   0  0  0  0  0  0  0  0  0  0  0  0
   -0.8857   -1.5084    4.5786 H   0  0  0  0  0  0  0  0  0  0  0  0
   -1.9209   -0.9514    3.2327 H   0  0  0  0  0  0  0  0  0  0  0  0
    3.3841   -0.6344    3.5059 H   0  0  0  0  0  0  0  0  0  0  0  0
    4.6577   -0.1410    1.6460 H   0  0  0  0  0  0  0  0  0  0  0  0
    4.8240    2.4720   -1.7626 H   0  0  0  0  0  0  0  0  0  0  0  0
    7.0474    3.1633   -2.4788 H   0  0  0  0  0  0  0  0  0  0  0  0
    8.9680    1.8112   -1.6749 H   0  0  0  0  0  0  0  0  0  0  0  0
    6.3854   -0.7591    0.4425 H   0  0  0  0  0  0  0  0  0  0  0  0
    1.3685   -0.3109   -0.2160 H   0  0  0  0  0  0  0  0  0  0  0  0
   -0.8031   -3.0537    0.0943 H   0  0  0  0  0  0  0  0  0  0  0  0
   -4.3815   -2.5223   -2.9838 H   0  0  0  0  0  0  0  0  0  0  0  0
   -6.0624   -1.8779   -2.6725 H   0  0  0  0  0  0  0  0  0  0  0  0
   -4.4848   -3.7720   -0.9182 H   0  0  0  0  0  0  0  0  0  0  0  0
   -6.1557   -3.1436   -0.5532 H   0  0  0  0  0  0  0  0  0  0  0  0
   -6.5425   -4.9618   -1.6134 H   0  0  0  0  0  0  0  0  0  0  0  0
   -1.5579    1.0327    1.0458 H   0  0  0  0  0  0  0  0  0  0  0  0
   -5.8699    1.1153   -0.8704 H   0  0  0  0  0  0  0  0  0  0  0  0
   -5.5229    0.4543    0.8320 H   0  0  0  0  0  0  0  0  0  0  0  0
   -6.4021    2.5252    1.4491 H   0  0  0  0  0  0  0  0  0  0  0  0
   -6.0386    3.2531   -0.1241 H   0  0  0  0  0  0  0  0  0  0  0  0
   -2.9601    4.3300    0.2566 H   0  0  0  0  0  0  0  0  0  0  0  0
   -4.5658    4.2977   -0.4931 H   0  0  0  0  0  0  0  0  0  0  0  0
   -3.8185    2.5672   -1.8721 H   0  0  0  0  0  0  0  0  0  0  0  0
   -2.2892    2.4610   -0.9211 H   0  0  0  0  0  0  0  0  0  0  0  0
  1  2  1  0
  2  3  2  0
  3  4  1  0
  4  5  2  0
  5  6  1  0
  6  7  1  0
  7  8  2  0
  7  9  1  0
  9 10  2  0
 10 11  1  0
 11 12  2  0
 12 13  1  0
 13 14  2  0
 13 15  1  0
 15 16  1  0
 15 17  1  0
 15 18  1  0
  5 19  1  0
 19 20  2  0
 20 21  1  0
 21 22  2  0
 22 23  1  0
 23 24  2  0
 24 25  1  0
 25 26  1  0
 26 27  1  0
 27 28  1  0
 24 29  1  0
 29 30  2  0
 29 31  1  0
 31 32  1  0
 32 33  1  0
 33 34  1  0
 34 35  1  0
 35 36  1  0
 20  2  1  0
 30 21  1  0
 36 31  1  0
 14  9  1  0
  1 37  1  0
  1 38  1  0
  1 39  1  0
  4 40  1  0
  6 41  1  0
 10 42  1  0
 11 43  1  0
 12 44  1  0
 14 45  1  0
 19 46  1  0
 22 47  1  0
 26 48  1  0
 26 49  1  0
 27 50  1  0
 27 51  1  0
 28 52  1  0
 30 53  1  0
 32 54  1  0
 32 55  1  0
 33 56  1  0
 33 57  1  0
 35 58  1  0
 35 59  1  0
 36 60  1  0
 36 61  1  0
M  END
$$$$
[H]c1nc(N2C([H])([H])[C@@]3([H])N(C([H])([H])[H])C([H])([H])[C@@]2([H])C3([H])[H])c([H])c([H])c1-c1c([H])c([H])c(C(F)(F)F)c([H])c1[H]
     RDKit          2D

 42 45  0  0  0  0  0  0  0  0999 V2000
    2.7760    0.0000    0.0000 C   0  0  0  0  0  0  0  0  0  0  0  0
    1.2760    0.0000    0.0000 N   0  0  0  0  0  0  0  0  0  0  0  0
    0.3943    1.2135    0.0000 C   0  0  0  0  0  0  0  0  0  0  0  0
   -1.0323    0.7500    0.0000 C   0  0  0  0  0  0  0  0  0  0  0  0
   -1.0323   -0.7500    0.0000 C   0  0  0  0  0  0  0  0  0  0  0  0
    0.3943   -1.2135    0.0000 C   0  0  0  0  0  0  0  0  0  0  0  0
   -1.0323   -1.6771    0.0000 C   0  0  0  0  0  0  0  0  0  0  0  0
   -1.9140   -0.4635    0.0000 N   0  0  0  0  0  0  0  0  0  0  0  0
   -3.4140   -0.4635    0.0000 C   0  0  0  0  0  0  0  0  0  0  0  0
   -4.1640    0.8355    0.0000 C   0  0  0  0  0  0  0  0  0  0  0  0
   -5.6640    0.8355    0.0000 C   0  0  0  0  0  0  0  0  0  0  0  0
   -6.4140   -0.4635    0.0000 C   0  0  0  0  0  0  0  0  0  0  0  0
   -5.6640   -1.7626    0.0000 C   0  0  0  0  0  0  0  0  0  0  0  0
   -4.1640   -1.7626    0.0000 N   0  0  0  0  0  0  0  0  0  0  0  0
   -7.9140   -0.4635    0.0000 C   0  0  0  0  0  0  0  0  0  0  0  0
   -8.6640    0.8355    0.0000 C   0  0  0  0  0  0  0  0  0  0  0  0
  -10.1640    0.8355    0.0000 C   0  0  0  0  0  0  0  0  0  0  0  0
  -10.9140   -0.4635    0.0000 C   0  0  0  0  0  0  0  0  0  0  0  0
  -10.1640   -1.7626    0.0000 C   0  0  0  0  0  0  0  0  0  0  0  0
   -8.6640   -1.7626    0.0000 C   0  0  0  0  0  0  0  0  0  0  0  0
  -12.4140   -0.4635    0.0000 C   0  0  0  0  0  0  0  0  0  0  0  0
  -13.9140   -0.4635    0.0000 F   0  0  0  0  0  0  0  0  0  0  0  0
  -12.4140   -1.9635    0.0000 F   0  0  0  0  0  0  0  0  0  0  0  0
  -12.4140    1.0365    0.0000 F   0  0  0  0  0  0  0  0  0  0  0  0
    4.2760    0.0000    0.0000 H   0  0  0  0  0  0  0  0  0  0  0  0
    2.7760   -1.5000    0.0000 H   0  0  0  0  0  0  0  0  0  0  0  0
    2.7760    1.5000    0.0000 H   0  0  0  0  0  0  0  0  0  0  0  0
   -0.2158    2.5838    0.0000 H   0  0  0  0  0  0  0  0  0  0  0  0
    1.6933    1.9635    0.0000 H   0  0  0  0  0  0  0  0  0  0  0  0
   -2.2458    1.6317    0.0000 H   0  0  0  0  0  0  0  0  0  0  0  0
   -1.3818   -1.4665    0.0000 H   0  0  0  0  0  0  0  0  0  0  0  0
   -2.5177   -0.9588    0.0000 H   0  0  0  0  0  0  0  0  0  0  0  0
    0.8578   -2.6401    0.0000 H   0  0  0  0  0  0  0  0  0  0  0  0
   -0.4222   -3.0474    0.0000 H   0  0  0  0  0  0  0  0  0  0  0  0
   -2.3313   -2.4271    0.0000 H   0  0  0  0  0  0  0  0  0  0  0  0
   -3.4140    2.1346    0.0000 H   0  0  0  0  0  0  0  0  0  0  0  0
   -6.4140    2.1346    0.0000 H   0  0  0  0  0  0  0  0  0  0  0  0
   -6.4140   -3.0616    0.0000 H   0  0  0  0  0  0  0  0  0  0  0  0
   -7.9140    2.1346    0.0000 H   0  0  0  0  0  0  0  0  0  0  0  0
  -10.9140    2.1346    0.0000 H   0  0  0  0  0  0  0  0  0  0  0  0
  -10.9140   -3.0616    0.0000 H   0  0  0  0  0  0  0  0  0  0  0  0
   -7.9140   -3.0616    0.0000 H   0  0  0  0  0  0  0  0  0  0  0  0
  1  2  1  0
  2  3  1  0
  3  4  1  0
  4  5  1  0
  5  6  1  0
  6  7  1  0
  7  8  1  0
  8  9  1  0
  9 10  2  0
 10 11  1  0
 11 12  2  0
 12 13  1  0
 13 14  2  0
 12 15  1  0
 15 16  2  0
 16 17  1  0
 17 18  2  0
 18 19  1  0
 19 20  2  0
 18 21  1  0
 21 22  1  0
 21 23  1  0
 21 24  1  0
  6  2  1  0
 14  9  1  0
 20 15  1  0
  8  4  1  0
  1 25  1  0
  1 26  1  0
  1 27  1  0
  3 28  1  0
  3 29  1  0
  4 30  1  6
  5 31  1  0
  5 32  1  0
  6 33  1  1
  7 34  1  0
  7 35  1  0
 10 36  1  0
 11 37  1  0
 13 38  1  0
 16 39  1  0
 17 40  1  0
 19 41  1  0
 20 42  1  0
M  END
$$$$
[H]c1c(C(=O)O[C@]([H])(c2c([H])c([H])c(OC([H])([H])[H])c(OC([H])([H])[H])c2[H])C([H])([H])c2c(Cl)c([H])[n+]([O-])c([H])c2Cl)sc(C([H])([H])N2C([H])([H])C([H])([H])OC([H])([H])C2([H])[H])c1[H]
     RDKit          3D

 62 65  0  0  0  0  0  0  0  0999 V2000
   -5.5026   -3.6103   -3.9819 C   0  0  0  0  0  0  0  0  0  0  0  0
   -5.2734   -3.7422   -2.6105 O   0  0  0  0  0  0  0  0  0  0  0  0
   -4.5883   -2.8050   -1.8323 C   0  0  0  0  0  0  0  0  0  0  0  0
   -4.0727   -1.6498   -2.3726 C   0  0  0  0  0  0  0  0  0  0  0  0
   -3.3978   -0.7553   -1.5335 C   0  0  0  0  0  0  0  0  0  0  0  0
   -3.2457   -1.0141   -0.1915 C   0  0  0  0  0  0  0  0  0  0  0  0
   -3.7780   -2.1786    0.2959 C   0  0  0  0  0  0  0  0  0  0  0  0
   -4.4483   -3.0894   -0.4818 C   0  0  0  0  0  0  0  0  0  0  0  0
   -4.9858   -4.2809    0.0485 O   0  0  0  0  0  0  0  0  0  0  0  0
   -4.7953   -4.4896    1.4343 C   0  0  0  0  0  0  0  0  0  0  0  0
   -2.5281   -0.0384    0.6435 C   0  0  2  0  0  0  0  0  0  0  0  0
   -3.4177    1.0684    1.1349 C   0  0  0  0  0  0  0  0  0  0  0  0
   -2.7487    2.0911    1.9580 C   0  0  0  0  0  0  0  0  0  0  0  0
   -2.0726    3.1591    1.4124 C   0  0  0  0  0  0  0  0  0  0  0  0
   -2.0476    3.4390   -0.3355 Cl  0  0  0  0  0  0  0  0  0  0  0  0
   -1.4454    4.0333    2.2672 C   0  0  0  0  0  0  0  0  0  0  0  0
   -1.4617    3.8974    3.6008 N   0  0  0  0  0  0  0  0  0  0  0  0
   -0.8158    4.8017    4.4356 O   0  0  0  0  0  0  0  0  0  0  0  0
   -2.1108    2.8718    4.1619 C   0  0  0  0  0  0  0  0  0  0  0  0
   -2.7539    1.9701    3.3311 C   0  0  0  0  0  0  0  0  0  0  0  0
   -3.5971    0.6381    4.0728 Cl  0  0  0  0  0  0  0  0  0  0  0  0
   -1.3439    0.4668    0.1405 O   0  0  0  0  0  0  0  0  0  0  0  0
   -0.0997    0.2691    0.7183 C   0  0  0  0  0  0  0  0  0  0  0  0
   -0.0847   -0.4128    1.7689 O   0  0  0  0  0  0  0  0  0  0  0  0
    1.1484    0.8193    0.1467 C   0  0  0  0  0  0  0  0  0  0  0  0
    1.2904    1.5680   -0.9914 C   0  0  0  0  0  0  0  0  0  0  0  0
    2.5318    1.9617   -1.3155 C   0  0  0  0  0  0  0  0  0  0  0  0
    3.5497    1.5852   -0.4868 C   0  0  0  0  0  0  0  0  0  0  0  0
    5.0175    1.9004   -0.6284 C   0  0  0  0  0  0  0  0  0  0  0  0
    5.7151    0.9509   -1.4398 N   0  0  0  0  0  0  0  0  0  0  0  0
    7.1020    1.3593   -1.4965 C   0  0  0  0  0  0  0  0  0  0  0  0
    8.0485    0.1748   -1.4910 C   0  0  0  0  0  0  0  0  0  0  0  0
    7.9100   -0.5870   -0.3533 O   0  0  0  0  0  0  0  0  0  0  0  0
    6.6088   -0.8210    0.0244 C   0  0  0  0  0  0  0  0  0  0  0  0
    5.5978   -0.4103   -1.0266 C   0  0  0  0  0  0  0  0  0  0  0  0
    2.7489    0.6924    0.7219 S   0  0  0  0  0  0  0  0  0  0  0  0
   -4.7143   -4.1338   -4.5394 H   0  0  0  0  0  0  0  0  0  0  0  0
   -5.6548   -2.5663   -4.3174 H   0  0  0  0  0  0  0  0  0  0  0  0
   -6.4730   -4.1413   -4.2095 H   0  0  0  0  0  0  0  0  0  0  0  0
   -4.1916   -1.4408   -3.4397 H   0  0  0  0  0  0  0  0  0  0  0  0
   -3.0164    0.1281   -2.0063 H   0  0  0  0  0  0  0  0  0  0  0  0
   -3.6680   -2.3988    1.3485 H   0  0  0  0  0  0  0  0  0  0  0  0
   -5.4271   -3.8675    2.0724 H   0  0  0  0  0  0  0  0  0  0  0  0
   -5.0458   -5.5601    1.6964 H   0  0  0  0  0  0  0  0  0  0  0  0
   -3.7021   -4.4072    1.6982 H   0  0  0  0  0  0  0  0  0  0  0  0
   -2.2571   -0.6127    1.6066 H   0  0  0  0  0  0  0  0  0  0  0  0
   -3.8778    1.6217    0.2566 H   0  0  0  0  0  0  0  0  0  0  0  0
   -4.3147    0.6383    1.6504 H   0  0  0  0  0  0  0  0  0  0  0  0
   -0.9089    4.8802    1.8159 H   0  0  0  0  0  0  0  0  0  0  0  0
   -2.1101    2.7840    5.2415 H   0  0  0  0  0  0  0  0  0  0  0  0
    0.3989    1.8313   -1.6135 H   0  0  0  0  0  0  0  0  0  0  0  0
    2.7700    2.5733   -2.2166 H   0  0  0  0  0  0  0  0  0  0  0  0
    5.1388    2.9171   -1.0065 H   0  0  0  0  0  0  0  0  0  0  0  0
    5.4308    1.8356    0.3981 H   0  0  0  0  0  0  0  0  0  0  0  0
    7.3384    1.9470   -0.5859 H   0  0  0  0  0  0  0  0  0  0  0  0
    7.3335    1.9668   -2.3889 H   0  0  0  0  0  0  0  0  0  0  0  0
    7.9525   -0.4125   -2.4114 H   0  0  0  0  0  0  0  0  0  0  0  0
    9.0817    0.6208   -1.4524 H   0  0  0  0  0  0  0  0  0  0  0  0
    6.4601   -1.9144    0.1816 H   0  0  0  0  0  0  0  0  0  0  0  0
    6.3822   -0.3341    0.9988 H   0  0  0  0  0  0  0  0  0  0  0  0
    4.6123   -0.7117   -0.6645 H   0  0  0  0  0  0  0  0  0  0  0  0
    5.8090   -1.0767   -1.9143 H   0  0  0  0  0  0  0  0  0  0  0  0
  1  2  1  0
  2  3  1  0
  3  4  2  0
  4  5  1  0
  5  6  2  0
  6  7  1  0
  7  8  2  0
  8  9  1  0
  9 10  1  0
  6 11  1  0
 11 12  1  0
 12 13  1  0
 13 14  2  0
 14 15  1  0
 14 16  1  0
 16 17  2  0
 17 18  1  0
 17 19  1  0
 19 20  2  0
 20 21  1  0
 11 22  1  0
 22 23  1  0
 23 24  2  0
 23 25  1  0
 25 26  2  0
 26 27  1  0
 27 28  2  0
 28 29  1  0
 29 30  1  0
 30 31  1  0
 31 32  1  0
 32 33  1  0
 33 34  1  0
 34 35  1  0
 28 36  1  0
  8  3  1  0
 20 13  1  0
 36 25  1  0
 35 30  1  0
  1 37  1  0
  1 38  1  0
  1 39  1  0
  4 40  1  0
  5 41  1  0
  7 42  1  0
 10 43  1  0
 10 44  1  0
 10 45  1  0
 11 46  1  1
 12 47  1  0
 12 48  1  0
 16 49  1  0
 19 50  1  0
 26 51  1  0
 27 52  1  0
 29 53  1  0
 29 54  1  0
 31 55  1  0
 31 56  1  0
 32 57  1  0
 32 58  1  0
 34 59  1  0
 34 60  1  0
 35 61  1  0
 35 62  1  0
M  CHG  2  17   1  18  -1
M  END
$$$$
[H]c1nc(N([H])c2c([H])c([H])c(N3C([H])([H])C([H])([H])C([H])(N4C(=O)c5c([H])c([H])c([H])c([H])c5C4=O)C([H])([H])C3([H])[H])c([H])c2OC([H])([H])[H])nc(N([H])c2c([H])c([H])c([H])c([H])c2S(=O)(=O)C([H])(C([H])([H])[H])C([H])([H])[H])c1Cl
     RDKit          3D

 79 84  0  0  0  0  0  0  0  0999 V2000
   -1.5592    4.5026   -1.1555 C   0  0  0  0  0  0  0  0  0  0  0  0
   -1.5890    3.1010   -1.3044 O   0  0  0  0  0  0  0  0  0  0  0  0
   -0.3815    2.4424   -1.5421 C   0  0  0  0  0  0  0  0  0  0  0  0
    0.7775    3.1572   -1.6267 C   0  0  0  0  0  0  0  0  0  0  0  0
    2.0232    2.5880   -1.8618 C   0  0  0  0  0  0  0  0  0  0  0  0
    2.0286    1.2207   -2.0158 C   0  0  0  0  0  0  0  0  0  0  0  0
    0.8605    0.4698   -1.9329 C   0  0  0  0  0  0  0  0  0  0  0  0
   -0.3747    1.0361   -1.6938 C   0  0  0  0  0  0  0  0  0  0  0  0
   -1.5821    0.3298   -1.5387 N   0  0  0  0  0  0  0  0  0  0  0  0
   -1.7018   -1.0744   -1.5038 C   0  0  0  0  0  0  0  0  0  0  0  0
   -0.7178   -1.9389   -1.6486 N   0  0  0  0  0  0  0  0  0  0  0  0
   -0.8383   -3.2694   -1.5135 C   0  0  0  0  0  0  0  0  0  0  0  0
   -2.0622   -3.8203   -1.1998 C   0  0  0  0  0  0  0  0  0  0  0  0
   -2.2842   -5.5281   -1.0159 Cl  0  0  0  0  0  0  0  0  0  0  0  0
   -3.1496   -2.9294   -1.0352 C   0  0  0  0  0  0  0  0  0  0  0  0
   -4.3750   -3.4582   -0.5898 N   0  0  0  0  0  0  0  0  0  0  0  0
   -5.6319   -2.8648   -0.4355 C   0  0  0  0  0  0  0  0  0  0  0  0
   -5.9492   -1.7325   -1.1732 C   0  0  0  0  0  0  0  0  0  0  0  0
   -7.1967   -1.1585   -1.0945 C   0  0  0  0  0  0  0  0  0  0  0  0
   -8.1328   -1.7369   -0.2606 C   0  0  0  0  0  0  0  0  0  0  0  0
   -7.8363   -2.8594    0.4780 C   0  0  0  0  0  0  0  0  0  0  0  0
   -6.5947   -3.4120    0.3860 C   0  0  0  0  0  0  0  0  0  0  0  0
   -6.1703   -4.8463    1.3206 S   0  0  0  0  0  0  0  0  0  0  0  0
   -5.9846   -6.0332    0.3704 O   0  0  0  0  0  0  0  0  0  0  0  0
   -4.8903   -4.6751    2.0613 O   0  0  0  0  0  0  0  0  0  0  0  0
   -7.4322   -5.3314    2.4290 C   0  0  0  0  0  0  0  0  0  0  0  0
   -7.7650   -4.2562    3.4056 C   0  0  0  0  0  0  0  0  0  0  0  0
   -8.6475   -5.9455    1.7522 C   0  0  0  0  0  0  0  0  0  0  0  0
   -2.9138   -1.6407   -1.1949 N   0  0  0  0  0  0  0  0  0  0  0  0
    3.1979    3.3548   -1.8351 N   0  0  0  0  0  0  0  0  0  0  0  0
    4.3305    3.1059   -2.6814 C   0  0  0  0  0  0  0  0  0  0  0  0
    5.5798    3.4165   -1.8353 C   0  0  0  0  0  0  0  0  0  0  0  0
    5.2191    2.9416   -0.4305 C   0  0  0  0  0  0  0  0  0  0  0  0
    4.3804    4.0072    0.1957 C   0  0  0  0  0  0  0  0  0  0  0  0
    3.3439    4.4211   -0.8678 C   0  0  0  0  0  0  0  0  0  0  0  0
    6.3736    2.5591    0.3553 N   0  0  0  0  0  0  0  0  0  0  0  0
    6.6613    1.2110    0.8028 C   0  0  0  0  0  0  0  0  0  0  0  0
    5.9521    0.2239    0.5394 O   0  0  0  0  0  0  0  0  0  0  0  0
    7.8858    1.2274    1.5869 C   0  0  0  0  0  0  0  0  0  0  0  0
    8.5968    0.2198    2.2364 C   0  0  0  0  0  0  0  0  0  0  0  0
    9.7560    0.4951    2.9261 C   0  0  0  0  0  0  0  0  0  0  0  0
   10.2575    1.7804    3.0004 C   0  0  0  0  0  0  0  0  0  0  0  0
    9.5389    2.7738    2.3477 C   0  0  0  0  0  0  0  0  0  0  0  0
    8.3763    2.5379    1.6484 C   0  0  0  0  0  0  0  0  0  0  0  0
    7.4305    3.3443    0.8826 C   0  0  0  0  0  0  0  0  0  0  0  0
    7.5630    4.5938    0.7242 O   0  0  0  0  0  0  0  0  0  0  0  0
   -2.5920    4.8474   -0.9139 H   0  0  0  0  0  0  0  0  0  0  0  0
   -0.8075    4.8171   -0.4038 H   0  0  0  0  0  0  0  0  0  0  0  0
   -1.2051    4.9153   -2.1283 H   0  0  0  0  0  0  0  0  0  0  0  0
    0.7854    4.2506   -1.5158 H   0  0  0  0  0  0  0  0  0  0  0  0
    2.9636    0.7104   -2.2018 H   0  0  0  0  0  0  0  0  0  0  0  0
    0.9938   -0.5833   -2.0726 H   0  0  0  0  0  0  0  0  0  0  0  0
   -2.4590    0.9311   -1.4452 H   0  0  0  0  0  0  0  0  0  0  0  0
   -0.0122   -3.9549   -1.6431 H   0  0  0  0  0  0  0  0  0  0  0  0
   -4.3567   -4.5029   -0.3128 H   0  0  0  0  0  0  0  0  0  0  0  0
   -5.2402   -1.2885   -1.8312 H   0  0  0  0  0  0  0  0  0  0  0  0
   -7.4813   -0.2845   -1.6501 H   0  0  0  0  0  0  0  0  0  0  0  0
   -9.1299   -1.2799   -0.1933 H   0  0  0  0  0  0  0  0  0  0  0  0
   -8.5992   -3.3081    1.1304 H   0  0  0  0  0  0  0  0  0  0  0  0
   -7.0038   -6.2016    3.0258 H   0  0  0  0  0  0  0  0  0  0  0  0
   -8.8808   -4.1631    3.5450 H   0  0  0  0  0  0  0  0  0  0  0  0
   -7.4028   -4.4898    4.4426 H   0  0  0  0  0  0  0  0  0  0  0  0
   -7.2971   -3.2772    3.1468 H   0  0  0  0  0  0  0  0  0  0  0  0
   -8.5810   -5.6602    0.6783 H   0  0  0  0  0  0  0  0  0  0  0  0
   -8.6458   -7.0540    1.7627 H   0  0  0  0  0  0  0  0  0  0  0  0
   -9.5343   -5.4725    2.1695 H   0  0  0  0  0  0  0  0  0  0  0  0
    4.4210    2.0687   -3.0414 H   0  0  0  0  0  0  0  0  0  0  0  0
    4.3760    3.7788   -3.5781 H   0  0  0  0  0  0  0  0  0  0  0  0
    5.7675    4.4990   -1.8536 H   0  0  0  0  0  0  0  0  0  0  0  0
    6.4214    2.8461   -2.2119 H   0  0  0  0  0  0  0  0  0  0  0  0
    4.5967    2.0326   -0.5801 H   0  0  0  0  0  0  0  0  0  0  0  0
    4.9704    4.9396    0.4181 H   0  0  0  0  0  0  0  0  0  0  0  0
    3.8799    3.7008    1.1323 H   0  0  0  0  0  0  0  0  0  0  0  0
    2.3924    4.6184   -0.3488 H   0  0  0  0  0  0  0  0  0  0  0  0
    3.6613    5.3289   -1.3994 H   0  0  0  0  0  0  0  0  0  0  0  0
    8.2256   -0.8045    2.1925 H   0  0  0  0  0  0  0  0  0  0  0  0
   10.3301   -0.2720    3.4440 H   0  0  0  0  0  0  0  0  0  0  0  0
   11.1652    1.9825    3.5424 H   0  0  0  0  0  0  0  0  0  0  0  0
    9.9057    3.7796    2.3903 H   0  0  0  0  0  0  0  0  0  0  0  0
  1  2  1  0
  2  3  1  0
  3  4  2  0
  4  5  1  0
  5  6  2  0
  6  7  1  0
  7  8  2  0
  8  9  1  0
  9 10  1  0
 10 11  2  0
 11 12  1  0
 12 13  2  0
 13 14  1  0
 13 15  1  0
 15 16  1  0
 16 17  1  0
 17 18  2  0
 18 19  1  0
 19 20  2  0
 20 21  1  0
 21 22  2  0
 22 23  1  0
 23 24  2  0
 23 25  2  0
 23 26  1  0
 26 27  1  0
 26 28  1  0
 15 29  2  0
  5 30  1  0
 30 31  1  0
 31 32  1  0
 32 33  1  0
 33 34  1  0
 34 35  1  0
 33 36  1  0
 36 37  1  0
 37 38  2  0
 37 39  1  0
 39 40  2  0
 40 41  1  0
 41 42  2  0
 42 43  1  0
 43 44  2  0
 44 45  1  0
 45 46  2  0
  8  3  1  0
 29 10  1  0
 35 30  1  0
 45 36  1  0
 22 17  1  0
 44 39  1  0
  1 47  1  0
  1 48  1  0
  1 49  1  0
  4 50  1  0
  6 51  1  0
  7 52  1  0
  9 53  1  0
 12 54  1  0
 16 55  1  0
 18 56  1  0
 19 57  1  0
 20 58  1  0
 21 59  1  0
 26 60  1  0
 27 61  1  0
 27 62  1  0
 27 63  1  0
 28 64  1  0
 28 65  1  0
 28 66  1  0
 31 67  1  0
 31 68  1  0
 32 69  1  0
 32 70  1  0
 33 71  1  0
 34 72  1  0
 34 73  1  0
 35 74  1  0
 35 75  1  0
 40 76  1  0
 41 77  1  0
 42 78  1  0
 43 79  1  0
M  END
$$$$
[H]C1=C(C(=O)[O-])N2C(=O)/C(=C(\[H])c3c([H])c([H])c([H])c([H])c3[H])[C@@]2([H])S1
     RDKit          3D

 26 28  0  0  0  0  0  0  0  0999 V2000
   -5.2948   -0.7722    0.4333 O   0  0  0  0  0  0  0  0  0  0  0  0
   -4.7351    0.3176   -0.2037 C   0  0  0  0  0  0  0  0  0  0  0  0
   -5.4952    1.0931   -0.8152 O   0  0  0  0  0  0  0  0  0  0  0  0
   -3.2825    0.5015   -0.1258 C   0  0  0  0  0  0  0  0  0  0  0  0
   -2.7411    1.5405   -0.7312 C   0  0  0  0  0  0  0  0  0  0  0  0
   -0.9819    1.4519   -0.4313 S   0  0  0  0  0  0  0  0  0  0  0  0
   -1.1680    0.3018    0.9698 C   0  0  1  0  0  0  0  0  0  0  0  0
   -2.4022   -0.3437    0.5407 N   0  0  0  0  0  0  0  0  0  0  0  0
   -1.8888   -1.5313    1.1179 C   0  0  0  0  0  0  0  0  0  0  0  0
   -2.3605   -2.5987    1.6421 O   0  0  0  0  0  0  0  0  0  0  0  0
   -0.5481   -1.0007    0.8498 C   0  0  0  0  0  0  0  0  0  0  0  0
    0.6094   -1.5697    0.6203 C   0  0  0  0  0  0  0  0  0  0  0  0
    1.7789   -0.7448    0.3844 C   0  0  0  0  0  0  0  0  0  0  0  0
    2.0115    0.4159    1.0757 C   0  0  0  0  0  0  0  0  0  0  0  0
    3.0992    1.2164    0.8733 C   0  0  0  0  0  0  0  0  0  0  0  0
    4.0343    0.8673   -0.0712 C   0  0  0  0  0  0  0  0  0  0  0  0
    3.8440   -0.2918   -0.7914 C   0  0  0  0  0  0  0  0  0  0  0  0
    2.7205   -1.0951   -0.5637 C   0  0  0  0  0  0  0  0  0  0  0  0
   -3.2088    2.3177   -1.3065 H   0  0  0  0  0  0  0  0  0  0  0  0
   -1.3095    0.7570    1.9457 H   0  0  0  0  0  0  0  0  0  0  0  0
    0.6397   -2.6580    0.6175 H   0  0  0  0  0  0  0  0  0  0  0  0
    1.3095    0.7324    1.8279 H   0  0  0  0  0  0  0  0  0  0  0  0
    3.2544    2.1373    1.4442 H   0  0  0  0  0  0  0  0  0  0  0  0
    4.9198    1.4901   -0.2601 H   0  0  0  0  0  0  0  0  0  0  0  0
    4.5969   -0.5433   -1.5299 H   0  0  0  0  0  0  0  0  0  0  0  0
    2.5983   -1.9912   -1.1373 H   0  0  0  0  0  0  0  0  0  0  0  0
  1  2  1  0
  2  3  2  0
  2  4  1  0
  4  5  2  0
  5  6  1  0
  6  7  1  0
  7  8  1  0
  8  9  1  0
  9 10  2  0
  9 11  1  0
 11 12  2  0
 12 13  1  0
 13 14  2  0
 14 15  1  0
 15 16  2  0
 16 17  1  0
 17 18  2  0
  8  4  1  0
 18 13  1  0
 11  7  1  0
  5 19  1  0
  7 20  1  1
 12 21  1  0
 14 22  1  0
 15 23  1  0
 16 24  1  0
 17 25  1  0
 18 26  1  0
M  CHG  1   1  -1
M  END
$$$$
[H]C([H])=C([H])C(=O)N([H])[C@]1([H])C([H])([H])C([H])([H])[C@]([H])(n2c([H])c(-c3c([H])c([H])c(Oc4c([H])c([H])c([H])c([H])c4[H])c([H])c3[H])c3c(N([H])[H])nc([H])nc32)C([H])([H])C1([H])[H]
     RDKit          3D

 61 65  0  0  0  0  0  0  0  0999 V2000
   -1.7303   -2.7669    2.9173 N   0  0  0  0  0  0  0  0  0  0  0  0
   -0.4512   -2.6989    2.3109 C   0  0  0  0  0  0  0  0  0  0  0  0
    0.5515   -3.5148    2.6689 N   0  0  0  0  0  0  0  0  0  0  0  0
    1.7587   -3.4149    2.0998 C   0  0  0  0  0  0  0  0  0  0  0  0
    2.0387   -2.5091    1.1524 N   0  0  0  0  0  0  0  0  0  0  0  0
    1.0534   -1.6804    0.7753 C   0  0  0  0  0  0  0  0  0  0  0  0
    1.0393   -0.6834   -0.1254 N   0  0  0  0  0  0  0  0  0  0  0  0
   -0.1601   -0.1282   -0.1579 C   0  0  0  0  0  0  0  0  0  0  0  0
   -1.0045   -0.7701    0.7568 C   0  0  0  0  0  0  0  0  0  0  0  0
   -2.4071   -0.4865    0.9880 C   0  0  0  0  0  0  0  0  0  0  0  0
   -3.4404   -1.3678    0.7492 C   0  0  0  0  0  0  0  0  0  0  0  0
   -4.7674   -1.0910    0.9820 C   0  0  0  0  0  0  0  0  0  0  0  0
   -5.1270    0.1396    1.4873 C   0  0  0  0  0  0  0  0  0  0  0  0
   -6.4754    0.4391    1.7307 O   0  0  0  0  0  0  0  0  0  0  0  0
   -7.2223    1.0150    0.7131 C   0  0  0  0  0  0  0  0  0  0  0  0
   -7.9266    0.2701   -0.2124 C   0  0  0  0  0  0  0  0  0  0  0  0
   -8.6588    0.8882   -1.2116 C   0  0  0  0  0  0  0  0  0  0  0  0
   -8.7139    2.2634   -1.3218 C   0  0  0  0  0  0  0  0  0  0  0  0
   -8.0157    3.0069   -0.4044 C   0  0  0  0  0  0  0  0  0  0  0  0
   -7.2766    2.3891    0.6040 C   0  0  0  0  0  0  0  0  0  0  0  0
   -4.1286    1.0481    1.7395 C   0  0  0  0  0  0  0  0  0  0  0  0
   -2.8096    0.7554    1.5016 C   0  0  0  0  0  0  0  0  0  0  0  0
   -0.2364   -1.7428    1.3410 C   0  0  0  0  0  0  0  0  0  0  0  0
    2.1554   -0.2712   -0.9403 C   0  0  2  0  0  0  0  0  0  0  0  0
    3.3631   -1.1304   -0.8388 C   0  0  0  0  0  0  0  0  0  0  0  0
    4.3734   -0.5511   -1.8487 C   0  0  0  0  0  0  0  0  0  0  0  0
    5.0097    0.6575   -1.2017 C   0  0  1  0  0  0  0  0  0  0  0  0
    4.0347    1.2481   -0.2291 C   0  0  0  0  0  0  0  0  0  0  0  0
    2.5918    1.1574   -0.6764 C   0  0  0  0  0  0  0  0  0  0  0  0
    6.2326    0.3228   -0.5244 N   0  0  0  0  0  0  0  0  0  0  0  0
    7.4899    0.8978   -0.8423 C   0  0  0  0  0  0  0  0  0  0  0  0
    7.5336    1.7444   -1.7651 O   0  0  0  0  0  0  0  0  0  0  0  0
    8.7187    0.5548   -0.1551 C   0  0  0  0  0  0  0  0  0  0  0  0
    9.8601    1.1206   -0.4913 C   0  0  0  0  0  0  0  0  0  0  0  0
   -2.3987   -3.5414    2.8380 H   0  0  0  0  0  0  0  0  0  0  0  0
   -2.0247   -1.9444    3.5062 H   0  0  0  0  0  0  0  0  0  0  0  0
    2.5915   -4.0783    2.3838 H   0  0  0  0  0  0  0  0  0  0  0  0
   -0.5094    0.6963   -0.7692 H   0  0  0  0  0  0  0  0  0  0  0  0
   -3.2142   -2.3600    0.3377 H   0  0  0  0  0  0  0  0  0  0  0  0
   -5.5573   -1.7996    0.7865 H   0  0  0  0  0  0  0  0  0  0  0  0
   -7.8774   -0.8031   -0.1182 H   0  0  0  0  0  0  0  0  0  0  0  0
   -9.2044    0.2950   -1.9282 H   0  0  0  0  0  0  0  0  0  0  0  0
   -9.2882    2.7487   -2.1056 H   0  0  0  0  0  0  0  0  0  0  0  0
   -8.0479    4.0803   -0.4759 H   0  0  0  0  0  0  0  0  0  0  0  0
   -6.7314    2.9736    1.3203 H   0  0  0  0  0  0  0  0  0  0  0  0
   -4.4161    2.0213    2.1392 H   0  0  0  0  0  0  0  0  0  0  0  0
   -2.0070    1.4699    1.6982 H   0  0  0  0  0  0  0  0  0  0  0  0
    1.8187   -0.3083   -2.0086 H   0  0  0  0  0  0  0  0  0  0  0  0
    3.8713   -1.0461    0.1244 H   0  0  0  0  0  0  0  0  0  0  0  0
    3.1167   -2.1636   -1.1605 H   0  0  0  0  0  0  0  0  0  0  0  0
    5.0890   -1.3116   -2.1589 H   0  0  0  0  0  0  0  0  0  0  0  0
    3.8017   -0.1827   -2.7389 H   0  0  0  0  0  0  0  0  0  0  0  0
    5.2688    1.4168   -1.9774 H   0  0  0  0  0  0  0  0  0  0  0  0
    4.2297    2.3489   -0.1008 H   0  0  0  0  0  0  0  0  0  0  0  0
    4.1550    0.8443    0.8153 H   0  0  0  0  0  0  0  0  0  0  0  0
    1.9791    1.5627    0.1526 H   0  0  0  0  0  0  0  0  0  0  0  0
    2.4937    1.8014   -1.5820 H   0  0  0  0  0  0  0  0  0  0  0  0
    6.1989   -0.3755    0.2378 H   0  0  0  0  0  0  0  0  0  0  0  0
    8.6930   -0.1685    0.6353 H   0  0  0  0  0  0  0  0  0  0  0  0
   10.7770    0.8605    0.0263 H   0  0  0  0  0  0  0  0  0  0  0  0
    9.9397    1.8526   -1.2778 H   0  0  0  0  0  0  0  0  0  0  0  0
  1  2  1  0
  2  3  2  0
  3  4  1  0
  4  5  2  0
  5  6  1  0
  6  7  1  0
  7  8  1  0
  8  9  2  0
  9 10  1  0
 10 11  2  0
 11 12  1  0
 12 13  2  0
 13 14  1  0
 14 15  1  0
 15 16  2  0
 16 17  1  0
 17 18  2  0
 18 19  1  0
 19 20  2  0
 13 21  1  0
 21 22  2  0
  9 23  1  0
  7 24  1  0
 24 25  1  0
 25 26  1  0
 26 27  1  0
 27 28  1  0
 28 29  1  0
 27 30  1  0
 30 31  1  0
 31 32  2  0
 31 33  1  0
 33 34  2  3
 23  2  1  0
 29 24  1  0
 23  6  2  0
 22 10  1  0
 20 15  1  0
  1 35  1  0
  1 36  1  0
  4 37  1  0
  8 38  1  0
 11 39  1  0
 12 40  1  0
 16 41  1  0
 17 42  1  0
 18 43  1  0
 19 44  1  0
 20 45  1  0
 21 46  1  0
 22 47  1  0
 24 48  1  6
 25 49  1  0
 25 50  1  0
 26 51  1  0
 26 52  1  0
 27 53  1  6
 28 54  1  0
 28 55  1  0
 29 56  1  0
 29 57  1  0
 30 58  1  0
 33 59  1  0
 34 60  1  0
 34 61  1  0
M  END
$$$$
[H]N=C(N([H])[H])N([H])C([H])([H])C([H])([H])C([H])([H])[C@@]([H])(C(=O)c1nc2c([H])c([H])c([H])c([H])c2s1)N([H])C(=O)[C@@]1([H])N(C(=O)[C@]([H])(N([H])S(=O)(=O)C([H])([H])c2c([H])c([H])c([H])c([H])c2[H])C([H])([H])c2c([H])c([H])c([H])c([H])c2[H])C([H])([H])C([H])([H])C1([H])[H]
     RDKit          3D

 87 91  0  0  0  0  0  0  0  0999 V2000
   -8.3462   -2.5958    1.1239 N   0  0  0  0  0  0  0  0  0  0  0  0
   -8.2240   -1.5952    0.1251 C   0  0  0  0  0  0  0  0  0  0  0  0
   -9.2590   -1.2029   -0.5035 N   0  0  0  0  0  0  0  0  0  0  0  0
   -6.9296   -1.0401   -0.1634 N   0  0  0  0  0  0  0  0  0  0  0  0
   -5.9150   -1.9312   -0.6548 C   0  0  0  0  0  0  0  0  0  0  0  0
   -4.6059   -1.2653   -0.9313 C   0  0  0  0  0  0  0  0  0  0  0  0
   -4.0109   -0.6043    0.3071 C   0  0  0  0  0  0  0  0  0  0  0  0
   -2.6636    0.0315   -0.0620 C   0  0  2  0  0  0  0  0  0  0  0  0
   -1.7832   -1.0350   -0.5536 N   0  0  0  0  0  0  0  0  0  0  0  0
   -1.0922   -0.9394   -1.8188 C   0  0  0  0  0  0  0  0  0  0  0  0
   -1.2682    0.0875   -2.4781 O   0  0  0  0  0  0  0  0  0  0  0  0
   -0.2600   -2.0347   -2.2076 C   0  0  2  0  0  0  0  0  0  0  0  0
   -0.2138   -3.2034   -1.2070 C   0  0  0  0  0  0  0  0  0  0  0  0
    0.9731   -4.0295   -1.6928 C   0  0  0  0  0  0  0  0  0  0  0  0
    1.6234   -3.1289   -2.7530 C   0  0  0  0  0  0  0  0  0  0  0  0
    1.1978   -1.8048   -2.2857 N   0  0  0  0  0  0  0  0  0  0  0  0
    1.9122   -0.6478   -1.9604 C   0  0  0  0  0  0  0  0  0  0  0  0
    1.2312    0.3531   -1.5471 O   0  0  0  0  0  0  0  0  0  0  0  0
    3.3718   -0.4025   -2.0163 C   0  0  1  0  0  0  0  0  0  0  0  0
    4.0553   -0.7122   -3.2917 C   0  0  0  0  0  0  0  0  0  0  0  0
    5.5283   -0.4355   -3.2203 C   0  0  0  0  0  0  0  0  0  0  0  0
    6.0205    0.7822   -3.5928 C   0  0  0  0  0  0  0  0  0  0  0  0
    7.3771    1.0849   -3.5321 C   0  0  0  0  0  0  0  0  0  0  0  0
    8.2427    0.1239   -3.0820 C   0  0  0  0  0  0  0  0  0  0  0  0
    7.7618   -1.1306   -2.6952 C   0  0  0  0  0  0  0  0  0  0  0  0
    6.4092   -1.3924   -2.7702 C   0  0  0  0  0  0  0  0  0  0  0  0
    3.6758    0.9206   -1.5299 N   0  0  0  0  0  0  0  0  0  0  0  0
    4.2875    1.0951    0.0127 S   0  0  0  0  0  0  0  0  0  0  0  0
    4.4039    2.5846    0.3362 O   0  0  0  0  0  0  0  0  0  0  0  0
    5.6063    0.4359    0.2714 O   0  0  0  0  0  0  0  0  0  0  0  0
    3.1254    0.4865    1.2541 C   0  0  0  0  0  0  0  0  0  0  0  0
    3.6391    0.6587    2.6272 C   0  0  0  0  0  0  0  0  0  0  0  0
    3.3602    1.8899    3.2257 C   0  0  0  0  0  0  0  0  0  0  0  0
    3.7514    2.1318    4.5158 C   0  0  0  0  0  0  0  0  0  0  0  0
    4.4211    1.1930    5.2593 C   0  0  0  0  0  0  0  0  0  0  0  0
    4.6815   -0.0157    4.6323 C   0  0  0  0  0  0  0  0  0  0  0  0
    4.3036   -0.2912    3.3406 C   0  0  0  0  0  0  0  0  0  0  0  0
   -2.0555    0.6951    1.1173 C   0  0  0  0  0  0  0  0  0  0  0  0
   -0.9413    0.2871    1.5189 O   0  0  0  0  0  0  0  0  0  0  0  0
   -2.6929    1.8066    1.8375 C   0  0  0  0  0  0  0  0  0  0  0  0
   -3.8496    2.3971    1.6021 N   0  0  0  0  0  0  0  0  0  0  0  0
   -4.2614    3.3721    2.3521 C   0  0  0  0  0  0  0  0  0  0  0  0
   -5.4821    4.0693    2.1887 C   0  0  0  0  0  0  0  0  0  0  0  0
   -5.8063    5.0826    3.0493 C   0  0  0  0  0  0  0  0  0  0  0  0
   -5.0060    5.4760    4.0842 C   0  0  0  0  0  0  0  0  0  0  0  0
   -3.8153    4.8096    4.2591 C   0  0  0  0  0  0  0  0  0  0  0  0
   -3.4594    3.7640    3.3874 C   0  0  0  0  0  0  0  0  0  0  0  0
   -2.1347    2.6774    3.2092 S   0  0  0  0  0  0  0  0  0  0  0  0
   -7.8524   -3.5142    1.0612 H   0  0  0  0  0  0  0  0  0  0  0  0
   -8.9684   -2.3483    1.9324 H   0  0  0  0  0  0  0  0  0  0  0  0
  -10.1921   -1.6229   -0.2772 H   0  0  0  0  0  0  0  0  0  0  0  0
   -6.8020   -0.0250    0.0022 H   0  0  0  0  0  0  0  0  0  0  0  0
   -6.2782   -2.3520   -1.6288 H   0  0  0  0  0  0  0  0  0  0  0  0
   -5.7711   -2.7351    0.0948 H   0  0  0  0  0  0  0  0  0  0  0  0
   -3.8937   -1.9507   -1.4322 H   0  0  0  0  0  0  0  0  0  0  0  0
   -4.8221   -0.4533   -1.6858 H   0  0  0  0  0  0  0  0  0  0  0  0
   -4.6763    0.2216    0.6117 H   0  0  0  0  0  0  0  0  0  0  0  0
   -3.9199   -1.3214    1.1290 H   0  0  0  0  0  0  0  0  0  0  0  0
   -2.8622    0.8089   -0.8030 H   0  0  0  0  0  0  0  0  0  0  0  0
   -1.7130   -1.8568    0.0777 H   0  0  0  0  0  0  0  0  0  0  0  0
   -0.5108   -2.4728   -3.2064 H   0  0  0  0  0  0  0  0  0  0  0  0
    0.0312   -2.7440   -0.2143 H   0  0  0  0  0  0  0  0  0  0  0  0
   -1.1469   -3.7524   -1.1749 H   0  0  0  0  0  0  0  0  0  0  0  0
    1.6871   -4.1112   -0.8589 H   0  0  0  0  0  0  0  0  0  0  0  0
    0.6513   -4.9849   -2.1320 H   0  0  0  0  0  0  0  0  0  0  0  0
    1.0439   -3.3044   -3.6952 H   0  0  0  0  0  0  0  0  0  0  0  0
    2.6807   -3.2945   -2.8141 H   0  0  0  0  0  0  0  0  0  0  0  0
    3.7723   -1.0917   -1.2121 H   0  0  0  0  0  0  0  0  0  0  0  0
    3.6545    0.0174   -4.0606 H   0  0  0  0  0  0  0  0  0  0  0  0
    3.9944   -1.7420   -3.6595 H   0  0  0  0  0  0  0  0  0  0  0  0
    5.3611    1.5529   -3.9493 H   0  0  0  0  0  0  0  0  0  0  0  0
    7.6966    2.0698   -3.8454 H   0  0  0  0  0  0  0  0  0  0  0  0
    9.2869    0.3911   -3.0455 H   0  0  0  0  0  0  0  0  0  0  0  0
    8.4870   -1.8356   -2.3531 H   0  0  0  0  0  0  0  0  0  0  0  0
    6.0801   -2.3855   -2.4565 H   0  0  0  0  0  0  0  0  0  0  0  0
    3.6460    1.6483   -2.1948 H   0  0  0  0  0  0  0  0  0  0  0  0
    2.8343   -0.5611    1.0225 H   0  0  0  0  0  0  0  0  0  0  0  0
    2.1537    1.0467    1.1891 H   0  0  0  0  0  0  0  0  0  0  0  0
    2.8412    2.6692    2.6938 H   0  0  0  0  0  0  0  0  0  0  0  0
    3.5314    3.0996    4.9830 H   0  0  0  0  0  0  0  0  0  0  0  0
    4.7256    1.3863    6.2820 H   0  0  0  0  0  0  0  0  0  0  0  0
    5.2115   -0.7770    5.2014 H   0  0  0  0  0  0  0  0  0  0  0  0
    4.5074   -1.2266    2.8462 H   0  0  0  0  0  0  0  0  0  0  0  0
   -6.1737    3.8061    1.3788 H   0  0  0  0  0  0  0  0  0  0  0  0
   -6.7791    5.5955    2.8723 H   0  0  0  0  0  0  0  0  0  0  0  0
   -5.2934    6.2660    4.7297 H   0  0  0  0  0  0  0  0  0  0  0  0
   -3.1063    5.0270    5.0308 H   0  0  0  0  0  0  0  0  0  0  0  0
  1  2  1  0
  2  3  2  3
  2  4  1  0
  4  5  1  0
  5  6  1  0
  6  7  1  0
  7  8  1  0
  8  9  1  0
  9 10  1  0
 10 11  2  0
 10 12  1  0
 12 13  1  0
 13 14  1  0
 14 15  1  0
 15 16  1  0
 16 17  1  0
 17 18  2  0
 17 19  1  0
 19 20  1  0
 20 21  1  0
 21 22  2  0
 22 23  1  0
 23 24  2  0
 24 25  1  0
 25 26  2  0
 19 27  1  0
 27 28  1  0
 28 29  2  0
 28 30  2  0
 28 31  1  0
 31 32  1  0
 32 33  2  0
 33 34  1  0
 34 35  2  0
 35 36  1  0
 36 37  2  0
  8 38  1  0
 38 39  2  0
 38 40  1  0
 40 41  2  0
 41 42  1  0
 42 43  2  0
 43 44  1  0
 44 45  2  0
 45 46  1  0
 46 47  2  0
 47 48  1  0
 16 12  1  0
 26 21  1  0
 37 32  1  0
 48 40  1  0
 47 42  1  0
  1 49  1  0
  1 50  1  0
  3 51  1  0
  4 52  1  0
  5 53  1  0
  5 54  1  0
  6 55  1  0
  6 56  1  0
  7 57  1  0
  7 58  1  0
  8 59  1  6
  9 60  1  0
 12 61  1  6
 13 62  1  0
 13 63  1  0
 14 64  1  0
 14 65  1  0
 15 66  1  0
 15 67  1  0
 19 68  1  1
 20 69  1  0
 20 70  1  0
 22 71  1  0
 23 72  1  0
 24 73  1  0
 25 74  1  0
 26 75  1  0
 27 76  1  0
 31 77  1  0
 31 78  1  0
 33 79  1  0
 34 80  1  0
 35 81  1  0
 36 82  1  0
 37 83  1  0
 43 84  1  0
 44 85  1  0
 45 86  1  0
 46 87  1  0
M  END
$$$$
[H]c1c([H])c([H])c(C([H])([H])[C@@]2([H])C(=O)N([H])[C@]([H])(C([H])([H])c3c([H])c([H])c([H])c([H])c3[H])C(=O)N([H])[C@@]([H])(C([H])([H])C([H])([H])C([H])([H])C([H])([H])N([H])[H])C(=O)N([H])[C@@]([H])(C([H])(C([H])([H])[H])C([H])([H])[H])C(=O)N([H])[C@@]([H])(C([H])([H])c3c([H])n([H])c4c([H])c([H])c([H])c([H])c34)C(=O)N2[H])c([H])c1[H]
     RDKit          3D

101105  0  0  0  0  0  0  0  0999 V2000
   -1.4125   -3.9989   -1.5346 C   0  0  0  0  0  0  0  0  0  0  0  0
   -0.2759   -3.7635   -0.6006 C   0  0  0  0  0  0  0  0  0  0  0  0
    0.9701   -4.4703   -1.0089 C   0  0  0  0  0  0  0  0  0  0  0  0
   -0.0663   -2.2592   -0.2997 C   0  0  2  0  0  0  0  0  0  0  0  0
    1.0615   -2.1533    0.5957 N   0  0  0  0  0  0  0  0  0  0  0  0
    2.2629   -1.4501    0.3509 C   0  0  0  0  0  0  0  0  0  0  0  0
    2.8360   -1.0006    1.4051 O   0  0  0  0  0  0  0  0  0  0  0  0
    2.9177   -1.1793   -0.9214 C   0  0  2  0  0  0  0  0  0  0  0  0
    4.4629   -1.3432   -0.7495 C   0  0  0  0  0  0  0  0  0  0  0  0
    4.7112   -2.7430   -0.3263 C   0  0  0  0  0  0  0  0  0  0  0  0
    6.1217   -3.1774   -0.1481 C   0  0  0  0  0  0  0  0  0  0  0  0
    6.8816   -2.4172    0.8816 C   0  0  0  0  0  0  0  0  0  0  0  0
    7.0032   -1.0381    0.5483 N   0  0  0  0  0  0  0  0  0  0  0  0
    2.5875    0.0252   -1.5995 N   0  0  0  0  0  0  0  0  0  0  0  0
    2.8988    1.3572   -1.2792 C   0  0  0  0  0  0  0  0  0  0  0  0
    3.5436    2.0834   -2.1220 O   0  0  0  0  0  0  0  0  0  0  0  0
    2.5624    2.0789   -0.0262 C   0  0  1  0  0  0  0  0  0  0  0  0
    3.8285    2.5072    0.6974 C   0  0  0  0  0  0  0  0  0  0  0  0
    3.5640    3.2300    1.9450 C   0  0  0  0  0  0  0  0  0  0  0  0
    3.4071    4.5964    1.9991 C   0  0  0  0  0  0  0  0  0  0  0  0
    3.1686    5.2298    3.1973 C   0  0  0  0  0  0  0  0  0  0  0  0
    3.0812    4.5136    4.3680 C   0  0  0  0  0  0  0  0  0  0  0  0
    3.2344    3.1506    4.3373 C   0  0  0  0  0  0  0  0  0  0  0  0
    3.4747    2.5216    3.1211 C   0  0  0  0  0  0  0  0  0  0  0  0
    1.9455    3.3312   -0.4796 N   0  0  0  0  0  0  0  0  0  0  0  0
    0.6118    3.6612   -0.4624 C   0  0  0  0  0  0  0  0  0  0  0  0
    0.2361    4.7996   -0.0113 O   0  0  0  0  0  0  0  0  0  0  0  0
   -0.5447    2.7880   -0.9444 C   0  0  2  0  0  0  0  0  0  0  0  0
   -1.2833    3.7140   -1.8870 C   0  0  0  0  0  0  0  0  0  0  0  0
   -2.4530    3.1913   -2.5484 C   0  0  0  0  0  0  0  0  0  0  0  0
   -3.7462    3.2830   -2.0930 C   0  0  0  0  0  0  0  0  0  0  0  0
   -4.8181    2.7732   -2.7932 C   0  0  0  0  0  0  0  0  0  0  0  0
   -4.6274    2.1400   -3.9993 C   0  0  0  0  0  0  0  0  0  0  0  0
   -3.3407    2.0344   -4.4777 C   0  0  0  0  0  0  0  0  0  0  0  0
   -2.2967    2.5424   -3.7757 C   0  0  0  0  0  0  0  0  0  0  0  0
   -1.3021    2.4061    0.2243 N   0  0  0  0  0  0  0  0  0  0  0  0
   -1.6854    1.1565    0.6987 C   0  0  0  0  0  0  0  0  0  0  0  0
   -1.0949    0.7140    1.7569 O   0  0  0  0  0  0  0  0  0  0  0  0
   -2.6982    0.2267    0.1686 C   0  0  2  0  0  0  0  0  0  0  0  0
   -3.9338    0.5104    1.0388 C   0  0  0  0  0  0  0  0  0  0  0  0
   -5.1088   -0.2925    0.7809 C   0  0  0  0  0  0  0  0  0  0  0  0
   -6.1324    0.0372   -0.1045 C   0  0  0  0  0  0  0  0  0  0  0  0
   -7.0113   -0.9593   -0.1022 N   0  0  0  0  0  0  0  0  0  0  0  0
   -6.6418   -1.9379    0.7327 C   0  0  0  0  0  0  0  0  0  0  0  0
   -7.2289   -3.1466    1.0829 C   0  0  0  0  0  0  0  0  0  0  0  0
   -6.6493   -3.9941    2.0076 C   0  0  0  0  0  0  0  0  0  0  0  0
   -5.4577   -3.5641    2.5563 C   0  0  0  0  0  0  0  0  0  0  0  0
   -4.8568   -2.3786    2.2291 C   0  0  0  0  0  0  0  0  0  0  0  0
   -5.4601   -1.5495    1.2973 C   0  0  0  0  0  0  0  0  0  0  0  0
   -2.3993   -1.1582    0.1624 N   0  0  0  0  0  0  0  0  0  0  0  0
   -1.2923   -1.9256    0.5106 C   0  0  0  0  0  0  0  0  0  0  0  0
   -1.2636   -2.4532    1.6752 O   0  0  0  0  0  0  0  0  0  0  0  0
   -1.2496   -5.0084   -2.0021 H   0  0  0  0  0  0  0  0  0  0  0  0
   -1.4478   -3.2825   -2.3837 H   0  0  0  0  0  0  0  0  0  0  0  0
   -2.3971   -4.0835   -1.0189 H   0  0  0  0  0  0  0  0  0  0  0  0
   -0.5931   -4.2669    0.3729 H   0  0  0  0  0  0  0  0  0  0  0  0
    1.1539   -4.3469   -2.1027 H   0  0  0  0  0  0  0  0  0  0  0  0
    1.8773   -4.1017   -0.4889 H   0  0  0  0  0  0  0  0  0  0  0  0
    0.8473   -5.5771   -0.8668 H   0  0  0  0  0  0  0  0  0  0  0  0
    0.0413   -1.6781   -1.2066 H   0  0  0  0  0  0  0  0  0  0  0  0
    0.9184   -2.6794    1.5191 H   0  0  0  0  0  0  0  0  0  0  0  0
    2.6803   -2.0335   -1.5997 H   0  0  0  0  0  0  0  0  0  0  0  0
    4.6820   -0.5619    0.0123 H   0  0  0  0  0  0  0  0  0  0  0  0
    4.8857   -1.1086   -1.7367 H   0  0  0  0  0  0  0  0  0  0  0  0
    4.2074   -2.9126    0.6783 H   0  0  0  0  0  0  0  0  0  0  0  0
    4.2530   -3.4369   -1.0832 H   0  0  0  0  0  0  0  0  0  0  0  0
    6.0832   -4.2563    0.2228 H   0  0  0  0  0  0  0  0  0  0  0  0
    6.6821   -3.2104   -1.1281 H   0  0  0  0  0  0  0  0  0  0  0  0
    7.9050   -2.8810    0.9961 H   0  0  0  0  0  0  0  0  0  0  0  0
    6.3731   -2.5510    1.8661 H   0  0  0  0  0  0  0  0  0  0  0  0
    7.1435   -0.9636   -0.4916 H   0  0  0  0  0  0  0  0  0  0  0  0
    7.7852   -0.5496    1.0427 H   0  0  0  0  0  0  0  0  0  0  0  0
    2.0133   -0.0725   -2.5068 H   0  0  0  0  0  0  0  0  0  0  0  0
    1.8462    1.5714    0.6107 H   0  0  0  0  0  0  0  0  0  0  0  0
    4.5048    1.6445    0.8436 H   0  0  0  0  0  0  0  0  0  0  0  0
    4.3572    3.1871   -0.0265 H   0  0  0  0  0  0  0  0  0  0  0  0
    3.4682    5.1867    1.1128 H   0  0  0  0  0  0  0  0  0  0  0  0
    3.0394    6.3120    3.2925 H   0  0  0  0  0  0  0  0  0  0  0  0
    2.8960    4.9647    5.3316 H   0  0  0  0  0  0  0  0  0  0  0  0
    3.1730    2.5527    5.2300 H   0  0  0  0  0  0  0  0  0  0  0  0
    3.5903    1.4409    3.1313 H   0  0  0  0  0  0  0  0  0  0  0  0
    2.6456    4.0461   -0.8589 H   0  0  0  0  0  0  0  0  0  0  0  0
   -0.0989    1.9522   -1.5035 H   0  0  0  0  0  0  0  0  0  0  0  0
   -0.4974    4.1089   -2.6014 H   0  0  0  0  0  0  0  0  0  0  0  0
   -1.5986    4.6561   -1.3455 H   0  0  0  0  0  0  0  0  0  0  0  0
   -3.8794    3.7893   -1.1298 H   0  0  0  0  0  0  0  0  0  0  0  0
   -5.8193    2.8607   -2.4137 H   0  0  0  0  0  0  0  0  0  0  0  0
   -5.4717    1.7300   -4.5712 H   0  0  0  0  0  0  0  0  0  0  0  0
   -3.2216    1.5303   -5.4296 H   0  0  0  0  0  0  0  0  0  0  0  0
   -1.2873    2.4511   -4.1711 H   0  0  0  0  0  0  0  0  0  0  0  0
   -1.5821    3.2778    0.8111 H   0  0  0  0  0  0  0  0  0  0  0  0
   -2.9673    0.4979   -0.8981 H   0  0  0  0  0  0  0  0  0  0  0  0
   -3.5827    0.3102    2.0944 H   0  0  0  0  0  0  0  0  0  0  0  0
   -4.1443    1.6042    1.0360 H   0  0  0  0  0  0  0  0  0  0  0  0
   -6.1497    0.9645   -0.6626 H   0  0  0  0  0  0  0  0  0  0  0  0
   -7.8780   -0.9690   -0.6808 H   0  0  0  0  0  0  0  0  0  0  0  0
   -8.1737   -3.4429    0.6210 H   0  0  0  0  0  0  0  0  0  0  0  0
   -7.1170   -4.9414    2.2762 H   0  0  0  0  0  0  0  0  0  0  0  0
   -4.9752   -4.2119    3.2868 H   0  0  0  0  0  0  0  0  0  0  0  0
   -3.9337   -2.0376    2.6580 H   0  0  0  0  0  0  0  0  0  0  0  0
   -3.2793   -1.7232   -0.2117 H   0  0  0  0  0  0  0  0  0  0  0  0
  1  2  1  0
  2  3  1  0
  2  4  1  0
  4  5  1  0
  5  6  1  0
  6  7  2  0
  6  8  1  0
  8  9  1  0
  9 10  1  0
 10 11  1  0
 11 12  1  0
 12 13  1  0
  8 14  1  0
 14 15  1  0
 15 16  2  0
 15 17  1  0
 17 18  1  0
 18 19  1  0
 19 20  2  0
 20 21  1  0
 21 22  2  0
 22 23  1  0
 23 24  2  0
 17 25  1  0
 25 26  1  0
 26 27  2  0
 26 28  1  0
 28 29  1  0
 29 30  1  0
 30 31  2  0
 31 32  1  0
 32 33  2  0
 33 34  1  0
 34 35  2  0
 28 36  1  0
 36 37  1  0
 37 38  2  0
 37 39  1  0
 39 40  1  0
 40 41  1  0
 41 42  2  0
 42 43  1  0
 43 44  1  0
 44 45  2  0
 45 46  1  0
 46 47  2  0
 47 48  1  0
 48 49  2  0
 39 50  1  0
 50 51  1  0
 51 52  2  0
 51  4  1  0
 24 19  1  0
 35 30  1  0
 49 41  1  0
 49 44  1  0
  1 53  1  0
  1 54  1  0
  1 55  1  0
  2 56  1  0
  3 57  1  0
  3 58  1  0
  3 59  1  0
  4 60  1  6
  5 61  1  0
  8 62  1  6
  9 63  1  0
  9 64  1  0
 10 65  1  0
 10 66  1  0
 11 67  1  0
 11 68  1  0
 12 69  1  0
 12 70  1  0
 13 71  1  0
 13 72  1  0
 14 73  1  0
 17 74  1  1
 18 75  1  0
 18 76  1  0
 20 77  1  0
 21 78  1  0
 22 79  1  0
 23 80  1  0
 24 81  1  0
 25 82  1  0
 28 83  1  6
 29 84  1  0
 29 85  1  0
 31 86  1  0
 32 87  1  0
 33 88  1  0
 34 89  1  0
 35 90  1  0
 36 91  1  0
 39 92  1  6
 40 93  1  0
 40 94  1  0
 42 95  1  0
 43 96  1  0
 45 97  1  0
 46 98  1  0
 47 99  1  0
 48100  1  0
 50101  1  0
M  END
$$$$
[H]OC1([H])C([H])([H])C([H])([H])N(C([H])([H])C([H])([H])C([H])([H])Oc2c(OC([H])([H])[H])c([H])c3c(Oc4c([H])c([H])c(N([H])C(=O)C5(C(=O)N([H])C6=C([H])C([H])([H])C([H])(F)C([H])=C6[H])C([H])([H])C5([H])[H])c([H])c4F)c([H])c([H])nc3c2[H])C([H])([H])C1([H])[H]
     RDKit          3D

 85 90  0  0  0  0  0  0  0  0999 V2000
    0.6026    1.3556    1.4476 C   0  0  0  0  0  0  0  0  0  0  0  0
    1.8386    1.0648    0.8400 O   0  0  0  0  0  0  0  0  0  0  0  0
    2.2602   -0.2078    0.5147 C   0  0  0  0  0  0  0  0  0  0  0  0
    1.4788   -1.2928    0.7710 C   0  0  0  0  0  0  0  0  0  0  0  0
    1.8760   -2.5832    0.4545 C   0  0  0  0  0  0  0  0  0  0  0  0
    1.0771   -3.6548    0.7350 C   0  0  0  0  0  0  0  0  0  0  0  0
   -0.1439   -3.6151    1.3165 O   0  0  0  0  0  0  0  0  0  0  0  0
   -1.3548   -3.1125    1.0520 C   0  0  0  0  0  0  0  0  0  0  0  0
   -2.0628   -2.2686    1.9128 C   0  0  0  0  0  0  0  0  0  0  0  0
   -3.3016   -1.7517    1.6527 C   0  0  0  0  0  0  0  0  0  0  0  0
   -3.9341   -2.0734    0.4430 C   0  0  0  0  0  0  0  0  0  0  0  0
   -5.1963   -1.4979    0.1959 N   0  0  0  0  0  0  0  0  0  0  0  0
   -6.2028   -2.0959   -0.5781 C   0  0  0  0  0  0  0  0  0  0  0  0
   -5.9668   -3.2698   -1.0851 O   0  0  0  0  0  0  0  0  0  0  0  0
   -7.5404   -1.5311   -0.8936 C   0  0  0  0  0  0  0  0  0  0  0  0
   -8.6481   -2.5423   -0.9143 C   0  0  0  0  0  0  0  0  0  0  0  0
   -8.0882   -2.0248   -2.2062 C   0  0  0  0  0  0  0  0  0  0  0  0
   -7.9394   -0.1858   -0.4590 C   0  0  0  0  0  0  0  0  0  0  0  0
   -7.0283    0.6768   -0.2065 O   0  0  0  0  0  0  0  0  0  0  0  0
   -9.2921    0.2108   -0.3059 N   0  0  0  0  0  0  0  0  0  0  0  0
   -9.5920    1.5442    0.1273 C   0  0  0  0  0  0  0  0  0  0  0  0
  -10.2749    1.7401    1.2240 C   0  0  0  0  0  0  0  0  0  0  0  0
  -10.6237    3.0607    1.7329 C   0  0  0  0  0  0  0  0  0  0  0  0
  -10.1294    4.2390    0.9949 C   0  0  0  0  0  0  0  0  0  0  0  0
  -11.2319    5.0259    0.6202 F   0  0  0  0  0  0  0  0  0  0  0  0
   -9.3700    3.9472   -0.2351 C   0  0  0  0  0  0  0  0  0  0  0  0
   -9.1378    2.7085   -0.6084 C   0  0  0  0  0  0  0  0  0  0  0  0
   -3.2848   -2.8867   -0.4221 C   0  0  0  0  0  0  0  0  0  0  0  0
   -2.0226   -3.4112   -0.1521 C   0  0  0  0  0  0  0  0  0  0  0  0
   -1.4170   -4.2155   -1.0384 F   0  0  0  0  0  0  0  0  0  0  0  0
    1.5700   -4.9501    0.3871 C   0  0  0  0  0  0  0  0  0  0  0  0
    2.7786   -5.0800   -0.1940 C   0  0  0  0  0  0  0  0  0  0  0  0
    3.5487   -4.0162   -0.4613 N   0  0  0  0  0  0  0  0  0  0  0  0
    3.1158   -2.7787   -0.1464 C   0  0  0  0  0  0  0  0  0  0  0  0
    3.9048   -1.6678   -0.4046 C   0  0  0  0  0  0  0  0  0  0  0  0
    3.5213   -0.3963   -0.0944 C   0  0  0  0  0  0  0  0  0  0  0  0
    4.2702    0.6904   -0.3250 O   0  0  0  0  0  0  0  0  0  0  0  0
    5.5427    0.7809   -0.8313 C   0  0  0  0  0  0  0  0  0  0  0  0
    6.5547    0.1877    0.0881 C   0  0  0  0  0  0  0  0  0  0  0  0
    7.9792    0.2589   -0.4382 C   0  0  0  0  0  0  0  0  0  0  0  0
    8.3667    1.6210   -0.6392 N   0  0  0  0  0  0  0  0  0  0  0  0
    8.5059    2.3648    0.5768 C   0  0  0  0  0  0  0  0  0  0  0  0
    9.5461    3.4476    0.3712 C   0  0  0  0  0  0  0  0  0  0  0  0
   10.8810    2.7702    0.1585 C   0  0  0  0  0  0  0  0  0  0  0  0
   11.8937    3.6916    0.0519 O   0  0  0  0  0  0  0  0  0  0  0  0
   10.7807    1.8201   -1.0166 C   0  0  0  0  0  0  0  0  0  0  0  0
    9.3890    1.8238   -1.6129 C   0  0  0  0  0  0  0  0  0  0  0  0
   -0.2599    1.0548    0.8160 H   0  0  0  0  0  0  0  0  0  0  0  0
    0.4986    0.8244    2.4153 H   0  0  0  0  0  0  0  0  0  0  0  0
    0.5457    2.4641    1.6062 H   0  0  0  0  0  0  0  0  0  0  0  0
    0.5184   -1.2040    1.2367 H   0  0  0  0  0  0  0  0  0  0  0  0
   -1.5534   -2.0249    2.8605 H   0  0  0  0  0  0  0  0  0  0  0  0
   -3.8293   -1.0985    2.3405 H   0  0  0  0  0  0  0  0  0  0  0  0
   -5.3736   -0.5516    0.6487 H   0  0  0  0  0  0  0  0  0  0  0  0
   -9.6561   -2.3223   -0.5722 H   0  0  0  0  0  0  0  0  0  0  0  0
   -8.3500   -3.6166   -0.6999 H   0  0  0  0  0  0  0  0  0  0  0  0
   -8.7947   -1.3947   -2.7932 H   0  0  0  0  0  0  0  0  0  0  0  0
   -7.4812   -2.6890   -2.8478 H   0  0  0  0  0  0  0  0  0  0  0  0
  -10.0794   -0.4141   -0.4953 H   0  0  0  0  0  0  0  0  0  0  0  0
  -10.6201    0.8798    1.8199 H   0  0  0  0  0  0  0  0  0  0  0  0
  -11.7455    3.0909    1.8707 H   0  0  0  0  0  0  0  0  0  0  0  0
  -10.2456    3.1086    2.7950 H   0  0  0  0  0  0  0  0  0  0  0  0
   -9.4707    4.8564    1.6795 H   0  0  0  0  0  0  0  0  0  0  0  0
   -9.0024    4.7944   -0.8333 H   0  0  0  0  0  0  0  0  0  0  0  0
   -8.5636    2.5639   -1.5351 H   0  0  0  0  0  0  0  0  0  0  0  0
   -3.7281   -3.1437   -1.3815 H   0  0  0  0  0  0  0  0  0  0  0  0
    0.9293   -5.7875    0.6150 H   0  0  0  0  0  0  0  0  0  0  0  0
    3.1060   -6.1006   -0.4392 H   0  0  0  0  0  0  0  0  0  0  0  0
    4.8473   -1.8959   -0.9088 H   0  0  0  0  0  0  0  0  0  0  0  0
    5.7483    1.8777   -1.0128 H   0  0  0  0  0  0  0  0  0  0  0  0
    5.5508    0.2471   -1.8338 H   0  0  0  0  0  0  0  0  0  0  0  0
    6.3210   -0.8421    0.3433 H   0  0  0  0  0  0  0  0  0  0  0  0
    6.4931    0.7833    1.0440 H   0  0  0  0  0  0  0  0  0  0  0  0
    8.5994   -0.2738    0.3170 H   0  0  0  0  0  0  0  0  0  0  0  0
    8.0413   -0.2973   -1.3766 H   0  0  0  0  0  0  0  0  0  0  0  0
    7.5437    2.9221    0.7799 H   0  0  0  0  0  0  0  0  0  0  0  0
    8.7866    1.7258    1.4472 H   0  0  0  0  0  0  0  0  0  0  0  0
    9.6584    4.0510    1.3143 H   0  0  0  0  0  0  0  0  0  0  0  0
    9.2373    4.0943   -0.4478 H   0  0  0  0  0  0  0  0  0  0  0  0
   11.0791    2.1479    1.0655 H   0  0  0  0  0  0  0  0  0  0  0  0
   12.5985    3.4859   -0.5954 H   0  0  0  0  0  0  0  0  0  0  0  0
   11.1147    0.7974   -0.7851 H   0  0  0  0  0  0  0  0  0  0  0  0
   11.4700    2.2135   -1.8061 H   0  0  0  0  0  0  0  0  0  0  0  0
    9.3548    0.9937   -2.3516 H   0  0  0  0  0  0  0  0  0  0  0  0
    9.2127    2.7590   -2.2104 H   0  0  0  0  0  0  0  0  0  0  0  0
  1  2  1  0
  2  3  1  0
  3  4  2  0
  4  5  1  0
  5  6  2  0
  6  7  1  0
  7  8  1  0
  8  9  2  0
  9 10  1  0
 10 11  2  0
 11 12  1  0
 12 13  1  0
 13 14  2  0
 13 15  1  0
 15 16  1  0
 16 17  1  0
 15 18  1  0
 18 19  2  0
 18 20  1  0
 20 21  1  0
 21 22  2  0
 22 23  1  0
 23 24  1  0
 24 25  1  0
 24 26  1  0
 26 27  2  0
 11 28  1  0
 28 29  2  0
 29 30  1  0
  6 31  1  0
 31 32  2  0
 32 33  1  0
 33 34  2  0
 34 35  1  0
 35 36  2  0
 36 37  1  0
 37 38  1  0
 38 39  1  0
 39 40  1  0
 40 41  1  0
 41 42  1  0
 42 43  1  0
 43 44  1  0
 44 45  1  0
 44 46  1  0
 46 47  1  0
 36  3  1  0
 47 41  1  0
 34  5  1  0
 29  8  1  0
 17 15  1  0
 27 21  1  0
  1 48  1  0
  1 49  1  0
  1 50  1  0
  4 51  1  0
  9 52  1  0
 10 53  1  0
 12 54  1  0
 16 55  1  0
 16 56  1  0
 17 57  1  0
 17 58  1  0
 20 59  1  0
 22 60  1  0
 23 61  1  0
 23 62  1  0
 24 63  1  0
 26 64  1  0
 27 65  1  0
 28 66  1  0
 31 67  1  0
 32 68  1  0
 35 69  1  0
 38 70  1  0
 38 71  1  0
 39 72  1  0
 39 73  1  0
 40 74  1  0
 40 75  1  0
 42 76  1  0
 42 77  1  0
 43 78  1  0
 43 79  1  0
 44 80  1  0
 45 81  1  0
 46 82  1  0
 46 83  1  0
 47 84  1  0
 47 85  1  0
M  END
$$$$
[H]c1nc(N2C([H])([H])C([H])([H])N(c3c([H])c([H])c([H])c([H])c3OC([H])([H])[H])C([H])([H])C2([H])[H])c2nc([H])n(C3([H])C([H])([H])C([H])([H])C([H])([H])C([H])([H])C3([H])[H])c2n1
     RDKit          3D

 57 61  0  0  0  0  0  0  0  0999 V2000
    6.7235   -2.7944    0.1084 C   0  0  0  0  0  0  0  0  0  0  0  0
    5.6957   -1.8142    0.2357 O   0  0  0  0  0  0  0  0  0  0  0  0
    5.9526   -0.4657    0.0822 C   0  0  0  0  0  0  0  0  0  0  0  0
    7.2296   -0.0487   -0.2010 C   0  0  0  0  0  0  0  0  0  0  0  0
    7.4923    1.3089   -0.3563 C   0  0  0  0  0  0  0  0  0  0  0  0
    6.4550    2.2062   -0.2207 C   0  0  0  0  0  0  0  0  0  0  0  0
    5.1782    1.7646    0.0644 C   0  0  0  0  0  0  0  0  0  0  0  0
    4.9063    0.4203    0.2205 C   0  0  0  0  0  0  0  0  0  0  0  0
    3.5918   -0.0300    0.5139 N   0  0  0  0  0  0  0  0  0  0  0  0
    2.8440   -0.9340   -0.3395 C   0  0  0  0  0  0  0  0  0  0  0  0
    1.5545   -0.2128   -0.7215 C   0  0  0  0  0  0  0  0  0  0  0  0
    0.8697    0.2574    0.4644 N   0  0  0  0  0  0  0  0  0  0  0  0
    1.5979    1.0720    1.4093 C   0  0  0  0  0  0  0  0  0  0  0  0
    2.9423    0.4271    1.7294 C   0  0  0  0  0  0  0  0  0  0  0  0
   -0.4995   -0.0732    0.7036 C   0  0  0  0  0  0  0  0  0  0  0  0
   -0.8865   -0.7527    1.7894 N   0  0  0  0  0  0  0  0  0  0  0  0
   -2.1924   -1.0246    1.9425 C   0  0  0  0  0  0  0  0  0  0  0  0
   -3.1356   -0.6512    1.0634 N   0  0  0  0  0  0  0  0  0  0  0  0
   -2.7410    0.0304   -0.0243 C   0  0  0  0  0  0  0  0  0  0  0  0
   -3.4588    0.5205   -1.0506 N   0  0  0  0  0  0  0  0  0  0  0  0
   -2.5818    1.1201   -1.8776 C   0  0  0  0  0  0  0  0  0  0  0  0
   -1.3313    1.0219   -1.4017 N   0  0  0  0  0  0  0  0  0  0  0  0
   -1.4221    0.3402   -0.2403 C   0  0  0  0  0  0  0  0  0  0  0  0
   -4.8888    0.4256   -1.2331 C   0  0  0  0  0  0  0  0  0  0  0  0
   -5.4057   -0.9900   -1.2051 C   0  0  0  0  0  0  0  0  0  0  0  0
   -6.8788   -1.0485   -0.8493 C   0  0  0  0  0  0  0  0  0  0  0  0
   -7.1770   -0.4298    0.4740 C   0  0  0  0  0  0  0  0  0  0  0  0
   -6.4114    0.8205    0.7514 C   0  0  0  0  0  0  0  0  0  0  0  0
   -5.6674    1.3916   -0.3963 C   0  0  0  0  0  0  0  0  0  0  0  0
    6.4178   -3.7481    0.5925 H   0  0  0  0  0  0  0  0  0  0  0  0
    7.6622   -2.4579    0.6345 H   0  0  0  0  0  0  0  0  0  0  0  0
    6.9107   -2.9210   -0.9789 H   0  0  0  0  0  0  0  0  0  0  0  0
    8.0757   -0.7029   -0.3177 H   0  0  0  0  0  0  0  0  0  0  0  0
    8.4744    1.6924   -0.5789 H   0  0  0  0  0  0  0  0  0  0  0  0
    6.6259    3.2649   -0.3352 H   0  0  0  0  0  0  0  0  0  0  0  0
    4.4037    2.5218    0.1590 H   0  0  0  0  0  0  0  0  0  0  0  0
    3.3837   -1.1685   -1.2713 H   0  0  0  0  0  0  0  0  0  0  0  0
    2.5277   -1.8581    0.2033 H   0  0  0  0  0  0  0  0  0  0  0  0
    1.8546    0.6823   -1.3375 H   0  0  0  0  0  0  0  0  0  0  0  0
    0.8847   -0.8783   -1.3201 H   0  0  0  0  0  0  0  0  0  0  0  0
    1.0412    1.1446    2.3769 H   0  0  0  0  0  0  0  0  0  0  0  0
    1.7317    2.1181    1.0606 H   0  0  0  0  0  0  0  0  0  0  0  0
    2.6922   -0.4801    2.3395 H   0  0  0  0  0  0  0  0  0  0  0  0
    3.5503    1.1189    2.3135 H   0  0  0  0  0  0  0  0  0  0  0  0
   -2.4649   -1.5822    2.8448 H   0  0  0  0  0  0  0  0  0  0  0  0
   -2.8147    1.6326   -2.8245 H   0  0  0  0  0  0  0  0  0  0  0  0
   -5.0693    0.7575   -2.3034 H   0  0  0  0  0  0  0  0  0  0  0  0
   -5.3361   -1.4758   -2.2253 H   0  0  0  0  0  0  0  0  0  0  0  0
   -4.8852   -1.6682   -0.5296 H   0  0  0  0  0  0  0  0  0  0  0  0
   -7.5170   -0.6772   -1.6744 H   0  0  0  0  0  0  0  0  0  0  0  0
   -7.1213   -2.1478   -0.7678 H   0  0  0  0  0  0  0  0  0  0  0  0
   -8.2781   -0.3193    0.5629 H   0  0  0  0  0  0  0  0  0  0  0  0
   -6.8687   -1.1799    1.2608 H   0  0  0  0  0  0  0  0  0  0  0  0
   -5.7657    0.7483    1.6561 H   0  0  0  0  0  0  0  0  0  0  0  0
   -7.1854    1.5910    1.0521 H   0  0  0  0  0  0  0  0  0  0  0  0
   -4.9159    2.1198    0.0288 H   0  0  0  0  0  0  0  0  0  0  0  0
   -6.3699    2.0155   -0.9985 H   0  0  0  0  0  0  0  0  0  0  0  0
  1  2  1  0
  2  3  1  0
  3  4  2  0
  4  5  1  0
  5  6  2  0
  6  7  1  0
  7  8  2  0
  8  9  1  0
  9 10  1  0
 10 11  1  0
 11 12  1  0
 12 13  1  0
 13 14  1  0
 12 15  1  0
 15 16  2  0
 16 17  1  0
 17 18  2  0
 18 19  1  0
 19 20  1  0
 20 21  1  0
 21 22  2  0
 22 23  1  0
 20 24  1  0
 24 25  1  0
 25 26  1  0
 26 27  1  0
 27 28  1  0
 28 29  1  0
  8  3  1  0
 14  9  1  0
 23 15  1  0
 29 24  1  0
 23 19  2  0
  1 30  1  0
  1 31  1  0
  1 32  1  0
  4 33  1  0
  5 34  1  0
  6 35  1  0
  7 36  1  0
 10 37  1  0
 10 38  1  0
 11 39  1  0
 11 40  1  0
 13 41  1  0
 13 42  1  0
 14 43  1  0
 14 44  1  0
 17 45  1  0
 21 46  1  0
 24 47  1  0
 25 48  1  0
 25 49  1  0
 26 50  1  0
 26 51  1  0
 27 52  1  0
 27 53  1  0
 28 54  1  0
 28 55  1  0
 29 56  1  0
 29 57  1  0
M  END
$$$$
[H]c1nc2c([H])c(OC([H])([H])C([H])([H])C([H])([H])N3C([H])([H])C([H])([H])OC([H])([H])C3([H])[H])c(OC([H])([H])[H])c([H])c2c(Oc2c([H])c([H])c(N([H])C(=O)C3(C(=O)N([H])c4c([H])c([H])c(F)c([H])c4[H])C([H])([H])C3([H])[H])c([H])c2F)c1[H]
     RDKit          3D

 80 85  0  0  0  0  0  0  0  0999 V2000
   -3.8348   -0.7830   -2.5268 C   0  0  0  0  0  0  0  0  0  0  0  0
   -4.4085   -0.0831   -1.4692 O   0  0  0  0  0  0  0  0  0  0  0  0
   -3.7050    0.3915   -0.3940 C   0  0  0  0  0  0  0  0  0  0  0  0
   -2.3426    0.2299   -0.2625 C   0  0  0  0  0  0  0  0  0  0  0  0
   -1.6750    0.7344    0.8625 C   0  0  0  0  0  0  0  0  0  0  0  0
   -0.2898    0.5501    0.9662 C   0  0  0  0  0  0  0  0  0  0  0  0
    0.3435   -0.1256   -0.0602 O   0  0  0  0  0  0  0  0  0  0  0  0
    1.7161   -0.3803   -0.1332 C   0  0  0  0  0  0  0  0  0  0  0  0
    2.1597   -1.6934   -0.1033 C   0  0  0  0  0  0  0  0  0  0  0  0
    3.5189   -2.0068   -0.1774 C   0  0  0  0  0  0  0  0  0  0  0  0
    4.4887   -1.0391   -0.2815 C   0  0  0  0  0  0  0  0  0  0  0  0
    5.8792   -1.3421   -0.3734 N   0  0  0  0  0  0  0  0  0  0  0  0
    6.4824   -2.5462    0.0493 C   0  0  0  0  0  0  0  0  0  0  0  0
    5.8571   -3.4761    0.5938 O   0  0  0  0  0  0  0  0  0  0  0  0
    7.9663   -2.7108   -0.2057 C   0  0  0  0  0  0  0  0  0  0  0  0
    8.3768   -4.0792   -0.7264 C   0  0  0  0  0  0  0  0  0  0  0  0
    8.5635   -3.7277    0.7383 C   0  0  0  0  0  0  0  0  0  0  0  0
    8.7412   -1.5075   -0.5379 C   0  0  0  0  0  0  0  0  0  0  0  0
    9.2658   -1.4618   -1.7261 O   0  0  0  0  0  0  0  0  0  0  0  0
    8.9847   -0.4096    0.2987 N   0  0  0  0  0  0  0  0  0  0  0  0
    9.7265    0.7540   -0.0941 C   0  0  0  0  0  0  0  0  0  0  0  0
   10.8357    1.1147    0.5958 C   0  0  0  0  0  0  0  0  0  0  0  0
   11.5248    2.2599    0.2548 C   0  0  0  0  0  0  0  0  0  0  0  0
   11.0639    3.0368   -0.8057 C   0  0  0  0  0  0  0  0  0  0  0  0
   11.7002    4.1760   -1.1980 F   0  0  0  0  0  0  0  0  0  0  0  0
    9.9259    2.6771   -1.5228 C   0  0  0  0  0  0  0  0  0  0  0  0
    9.2822    1.5333   -1.1426 C   0  0  0  0  0  0  0  0  0  0  0  0
    4.0405    0.2679   -0.3104 C   0  0  0  0  0  0  0  0  0  0  0  0
    2.6818    0.5942   -0.2385 C   0  0  0  0  0  0  0  0  0  0  0  0
    2.2895    1.9005   -0.2942 F   0  0  0  0  0  0  0  0  0  0  0  0
    0.3644    1.0374    2.0620 C   0  0  0  0  0  0  0  0  0  0  0  0
   -0.3737    1.7049    3.0395 C   0  0  0  0  0  0  0  0  0  0  0  0
   -1.7048    1.8658    2.9116 N   0  0  0  0  0  0  0  0  0  0  0  0
   -2.3620    1.3966    1.8519 C   0  0  0  0  0  0  0  0  0  0  0  0
   -3.7219    1.5655    1.7321 C   0  0  0  0  0  0  0  0  0  0  0  0
   -4.3695    1.0741    0.6362 C   0  0  0  0  0  0  0  0  0  0  0  0
   -5.7174    1.2662    0.5493 O   0  0  0  0  0  0  0  0  0  0  0  0
   -6.4811    1.9426    1.5276 C   0  0  0  0  0  0  0  0  0  0  0  0
   -7.9347    2.0328    1.1448 C   0  0  0  0  0  0  0  0  0  0  0  0
   -8.4979    0.6486    1.0445 C   0  0  0  0  0  0  0  0  0  0  0  0
   -9.9036    0.6228    0.6831 N   0  0  0  0  0  0  0  0  0  0  0  0
  -10.3079   -0.7910    0.8619 C   0  0  0  0  0  0  0  0  0  0  0  0
  -11.6524   -1.0829    0.2872 C   0  0  0  0  0  0  0  0  0  0  0  0
  -11.9057   -0.4129   -0.9237 O   0  0  0  0  0  0  0  0  0  0  0  0
  -10.6875   -0.1604   -1.5210 C   0  0  0  0  0  0  0  0  0  0  0  0
   -9.9805    0.9527   -0.7449 C   0  0  0  0  0  0  0  0  0  0  0  0
   -3.5752   -1.8606   -2.2552 H   0  0  0  0  0  0  0  0  0  0  0  0
   -4.5499   -0.8738   -3.3932 H   0  0  0  0  0  0  0  0  0  0  0  0
   -2.9103   -0.3554   -2.9443 H   0  0  0  0  0  0  0  0  0  0  0  0
   -1.7881   -0.2915   -1.0522 H   0  0  0  0  0  0  0  0  0  0  0  0
    1.4435   -2.4997   -0.0192 H   0  0  0  0  0  0  0  0  0  0  0  0
    3.8115   -3.0467   -0.1742 H   0  0  0  0  0  0  0  0  0  0  0  0
    6.5102   -0.6145   -0.7952 H   0  0  0  0  0  0  0  0  0  0  0  0
    9.3550   -4.1910   -1.2604 H   0  0  0  0  0  0  0  0  0  0  0  0
    7.5489   -4.7822   -0.9962 H   0  0  0  0  0  0  0  0  0  0  0  0
    7.9285   -4.2048    1.5021 H   0  0  0  0  0  0  0  0  0  0  0  0
    9.5761   -3.4402    1.0968 H   0  0  0  0  0  0  0  0  0  0  0  0
    8.6269   -0.4382    1.3024 H   0  0  0  0  0  0  0  0  0  0  0  0
   11.2158    0.5228    1.4404 H   0  0  0  0  0  0  0  0  0  0  0  0
   12.4267    2.5904    0.7817 H   0  0  0  0  0  0  0  0  0  0  0  0
    9.5578    3.2991   -2.3588 H   0  0  0  0  0  0  0  0  0  0  0  0
    8.3940    1.2002   -1.6567 H   0  0  0  0  0  0  0  0  0  0  0  0
    4.7885    1.0431   -0.3850 H   0  0  0  0  0  0  0  0  0  0  0  0
    1.4077    0.9219    2.2023 H   0  0  0  0  0  0  0  0  0  0  0  0
    0.1267    2.1033    3.9130 H   0  0  0  0  0  0  0  0  0  0  0  0
   -4.2450    2.0957    2.5441 H   0  0  0  0  0  0  0  0  0  0  0  0
   -6.0816    2.9259    1.7614 H   0  0  0  0  0  0  0  0  0  0  0  0
   -6.4223    1.2583    2.4406 H   0  0  0  0  0  0  0  0  0  0  0  0
   -8.0945    2.6326    0.2433 H   0  0  0  0  0  0  0  0  0  0  0  0
   -8.4948    2.5991    1.9539 H   0  0  0  0  0  0  0  0  0  0  0  0
   -7.8870    0.1130    0.2654 H   0  0  0  0  0  0  0  0  0  0  0  0
   -8.3089    0.1370    2.0005 H   0  0  0  0  0  0  0  0  0  0  0  0
   -9.4878   -1.3997    0.4459 H   0  0  0  0  0  0  0  0  0  0  0  0
  -10.2930   -0.9120    1.9864 H   0  0  0  0  0  0  0  0  0  0  0  0
  -11.6772   -2.1790    0.0299 H   0  0  0  0  0  0  0  0  0  0  0  0
  -12.4398   -0.9525    1.0381 H   0  0  0  0  0  0  0  0  0  0  0  0
  -10.0219   -1.0279   -1.4792 H   0  0  0  0  0  0  0  0  0  0  0  0
  -10.8743    0.1453   -2.5500 H   0  0  0  0  0  0  0  0  0  0  0  0
  -10.5228    1.8993   -0.8854 H   0  0  0  0  0  0  0  0  0  0  0  0
   -8.9666    1.0724   -1.1712 H   0  0  0  0  0  0  0  0  0  0  0  0
  1  2  1  0
  2  3  1  0
  3  4  2  0
  4  5  1  0
  5  6  2  0
  6  7  1  0
  7  8  1  0
  8  9  2  0
  9 10  1  0
 10 11  2  0
 11 12  1  0
 12 13  1  0
 13 14  2  0
 13 15  1  0
 15 16  1  0
 16 17  1  0
 15 18  1  0
 18 19  2  0
 18 20  1  0
 20 21  1  0
 21 22  2  0
 22 23  1  0
 23 24  2  0
 24 25  1  0
 24 26  1  0
 26 27  2  0
 11 28  1  0
 28 29  2  0
 29 30  1  0
  6 31  1  0
 31 32  2  0
 32 33  1  0
 33 34  2  0
 34 35  1  0
 35 36  2  0
 36 37  1  0
 37 38  1  0
 38 39  1  0
 39 40  1  0
 40 41  1  0
 41 42  1  0
 42 43  1  0
 43 44  1  0
 44 45  1  0
 45 46  1  0
 36  3  1  0
 46 41  1  0
 34  5  1  0
 29  8  1  0
 17 15  1  0
 27 21  1  0
  1 47  1  0
  1 48  1  0
  1 49  1  0
  4 50  1  0
  9 51  1  0
 10 52  1  0
 12 53  1  0
 16 54  1  0
 16 55  1  0
 17 56  1  0
 17 57  1  0
 20 58  1  0
 22 59  1  0
 23 60  1  0
 26 61  1  0
 27 62  1  0
 28 63  1  0
 31 64  1  0
 32 65  1  0
 35 66  1  0
 38 67  1  0
 38 68  1  0
 39 69  1  0
 39 70  1  0
 40 71  1  0
 40 72  1  0
 42 73  1  0
 42 74  1  0
 43 75  1  0
 43 76  1  0
 45 77  1  0
 45 78  1  0
 46 79  1  0
 46 80  1  0
M  END
$$$$
[H]O[C@]1([H])C([H])([H])C2=C([H])C([H])([H])[C@@]3([H])[C@]4([H])C([H])([H])C([H])([H])C(=O)[C@@]4(C([H])([H])[H])C([H])([H])C([H])([H])[C@]3([H])[C@@]2(C([H])([H])[H])C([H])([H])C1([H])[H]
     RDKit          3D

 49 52  0  0  0  0  0  0  0  0999 V2000
   -2.9258    1.2456   -0.8772 C   0  0  0  0  0  0  0  0  0  0  0  0
   -2.7332    0.5245    0.4315 C   0  0  2  0  0  0  0  0  0  0  0  0
   -1.8779    1.2621    1.3973 C   0  0  0  0  0  0  0  0  0  0  0  0
   -0.5432    1.5133    0.7271 C   0  0  0  0  0  0  0  0  0  0  0  0
    0.1028    0.1909    0.4374 C   0  0  1  0  0  0  0  0  0  0  0  0
   -0.7261   -0.7196   -0.4256 C   0  0  1  0  0  0  0  0  0  0  0  0
   -0.0979   -2.0837   -0.4356 C   0  0  0  0  0  0  0  0  0  0  0  0
    1.3785   -2.0649   -0.1748 C   0  0  0  0  0  0  0  0  0  0  0  0
    2.1045   -0.9780   -0.0742 C   0  0  0  0  0  0  0  0  0  0  0  0
    3.5519   -1.0435    0.1839 C   0  0  0  0  0  0  0  0  0  0  0  0
    4.3139    0.1789   -0.1980 C   0  0  1  0  0  0  0  0  0  0  0  0
    4.6813    0.0716   -1.5552 O   0  0  0  0  0  0  0  0  0  0  0  0
    3.6686    1.4827    0.0989 C   0  0  0  0  0  0  0  0  0  0  0  0
    2.2347    1.4256    0.5022 C   0  0  0  0  0  0  0  0  0  0  0  0
    1.4577    0.3425   -0.2179 C   0  0  2  0  0  0  0  0  0  0  0  0
    1.3266    0.7057   -1.6638 C   0  0  0  0  0  0  0  0  0  0  0  0
   -2.0724   -0.8473    0.2251 C   0  0  2  0  0  0  0  0  0  0  0  0
   -3.1171   -1.5432   -0.5641 C   0  0  0  0  0  0  0  0  0  0  0  0
   -4.4070   -1.1064    0.1498 C   0  0  0  0  0  0  0  0  0  0  0  0
   -4.0372    0.0760    0.9515 C   0  0  0  0  0  0  0  0  0  0  0  0
   -4.6540    0.5835    1.8448 O   0  0  0  0  0  0  0  0  0  0  0  0
   -2.5349    2.2828   -0.8240 H   0  0  0  0  0  0  0  0  0  0  0  0
   -2.5139    0.7263   -1.7450 H   0  0  0  0  0  0  0  0  0  0  0  0
   -4.0305    1.3694   -1.0766 H   0  0  0  0  0  0  0  0  0  0  0  0
   -2.3270    2.2107    1.7685 H   0  0  0  0  0  0  0  0  0  0  0  0
   -1.6803    0.6052    2.2639 H   0  0  0  0  0  0  0  0  0  0  0  0
    0.1067    2.0432    1.4519 H   0  0  0  0  0  0  0  0  0  0  0  0
   -0.6080    2.1135   -0.1804 H   0  0  0  0  0  0  0  0  0  0  0  0
    0.2681   -0.3346    1.4004 H   0  0  0  0  0  0  0  0  0  0  0  0
   -0.8128   -0.3645   -1.4797 H   0  0  0  0  0  0  0  0  0  0  0  0
   -0.2349   -2.6256   -1.3956 H   0  0  0  0  0  0  0  0  0  0  0  0
   -0.5486   -2.7498    0.3448 H   0  0  0  0  0  0  0  0  0  0  0  0
    1.8711   -3.0517   -0.0620 H   0  0  0  0  0  0  0  0  0  0  0  0
    3.9863   -1.8908   -0.4006 H   0  0  0  0  0  0  0  0  0  0  0  0
    3.7460   -1.2707    1.2618 H   0  0  0  0  0  0  0  0  0  0  0  0
    5.2997    0.1274    0.3474 H   0  0  0  0  0  0  0  0  0  0  0  0
    4.5825   -0.8621   -1.8655 H   0  0  0  0  0  0  0  0  0  0  0  0
    4.2230    2.0133    0.9277 H   0  0  0  0  0  0  0  0  0  0  0  0
    3.8097    2.1777   -0.7788 H   0  0  0  0  0  0  0  0  0  0  0  0
    2.2054    1.2731    1.6125 H   0  0  0  0  0  0  0  0  0  0  0  0
    1.7524    2.3909    0.2411 H   0  0  0  0  0  0  0  0  0  0  0  0
    2.1549    1.4319   -1.9114 H   0  0  0  0  0  0  0  0  0  0  0  0
    1.4641   -0.1543   -2.3373 H   0  0  0  0  0  0  0  0  0  0  0  0
    0.3663    1.2492   -1.8521 H   0  0  0  0  0  0  0  0  0  0  0  0
   -1.9645   -1.3211    1.1996 H   0  0  0  0  0  0  0  0  0  0  0  0
   -3.0721   -2.6486   -0.5167 H   0  0  0  0  0  0  0  0  0  0  0  0
   -3.1517   -1.2687   -1.6258 H   0  0  0  0  0  0  0  0  0  0  0  0
   -4.8282   -1.9287    0.7373 H   0  0  0  0  0  0  0  0  0  0  0  0
   -5.1580   -0.7598   -0.6103 H   0  0  0  0  0  0  0  0  0  0  0  0
  2  1  1  6
  2  3  1  0
  3  4  1  0
  4  5  1  0
  5  6  1  0
  6  7  1  0
  7  8  1  0
  8  9  2  0
  9 10  1  0
 10 11  1  0
 11 12  1  0
 11 13  1  0
 13 14  1  0
 14 15  1  0
 15 16  1  6
  6 17  1  0
 17 18  1  0
 18 19  1  0
 19 20  1  0
 20 21  2  0
 17  2  1  0
 20  2  1  0
 15  5  1  0
 15  9  1  0
  1 22  1  0
  1 23  1  0
  1 24  1  0
  3 25  1  0
  3 26  1  0
  4 27  1  0
  4 28  1  0
  5 29  1  1
  6 30  1  6
  7 31  1  0
  7 32  1  0
  8 33  1  0
 10 34  1  0
 10 35  1  0
 11 36  1  1
 12 37  1  0
 13 38  1  0
 13 39  1  0
 14 40  1  0
 14 41  1  0
 16 42  1  0
 16 43  1  0
 16 44  1  0
 17 45  1  1
 18 46  1  0
 18 47  1  0
 19 48  1  0
 19 49  1  0
M  END
$$$$
[H]c1c([H])c(Cl)c(N([H])c2nc3c([H])c([H])c4c(C([H])([H])[H])c(C([H])([H])[H])n([H])c(=O)c4c3n2C([H])([H])[H])c(Cl)c1[H]
     RDKit          3D

 42 45  0  0  0  0  0  0  0  0999 V2000
   -5.5470    1.5568   -0.0422 C   0  0  0  0  0  0  0  0  0  0  0  0
   -4.1665    0.9571    0.0032 C   0  0  0  0  0  0  0  0  0  0  0  0
   -3.1133    1.7450   -0.0900 N   0  0  0  0  0  0  0  0  0  0  0  0
   -1.8240    1.2579   -0.0513 C   0  0  0  0  0  0  0  0  0  0  0  0
   -0.9594    2.0932   -0.1579 O   0  0  0  0  0  0  0  0  0  0  0  0
   -1.6476   -0.0786    0.0908 C   0  0  0  0  0  0  0  0  0  0  0  0
   -0.3584   -0.6313    0.1114 C   0  0  0  0  0  0  0  0  0  0  0  0
    0.8853   -0.1007    0.0601 N   0  0  0  0  0  0  0  0  0  0  0  0
    1.3224    1.2649    0.0466 C   0  0  0  0  0  0  0  0  0  0  0  0
    1.7552   -1.1205    0.1192 C   0  0  0  0  0  0  0  0  0  0  0  0
    3.1628   -1.2114    0.0601 N   0  0  0  0  0  0  0  0  0  0  0  0
    4.2119   -0.3258   -0.0650 C   0  0  0  0  0  0  0  0  0  0  0  0
    4.8918    0.0691    1.0914 C   0  0  0  0  0  0  0  0  0  0  0  0
    4.3478   -0.5536    2.6541 Cl  0  0  0  0  0  0  0  0  0  0  0  0
    5.9653    0.9224    1.0531 C   0  0  0  0  0  0  0  0  0  0  0  0
    6.3770    1.4000   -0.1802 C   0  0  0  0  0  0  0  0  0  0  0  0
    5.7056    1.0113   -1.3321 C   0  0  0  0  0  0  0  0  0  0  0  0
    4.6483    0.1713   -1.2979 C   0  0  0  0  0  0  0  0  0  0  0  0
    3.7623   -0.3535   -2.7217 Cl  0  0  0  0  0  0  0  0  0  0  0  0
    1.0269   -2.2959    0.2168 N   0  0  0  0  0  0  0  0  0  0  0  0
   -0.2516   -2.0083    0.2141 C   0  0  0  0  0  0  0  0  0  0  0  0
   -1.3715   -2.8244    0.3047 C   0  0  0  0  0  0  0  0  0  0  0  0
   -2.6023   -2.2728    0.2913 C   0  0  0  0  0  0  0  0  0  0  0  0
   -2.7805   -0.9132    0.1865 C   0  0  0  0  0  0  0  0  0  0  0  0
   -4.0569   -0.3973    0.1439 C   0  0  0  0  0  0  0  0  0  0  0  0
   -5.2275   -1.3009    0.2491 C   0  0  0  0  0  0  0  0  0  0  0  0
   -5.4839    2.6578   -0.0946 H   0  0  0  0  0  0  0  0  0  0  0  0
   -6.1156    1.3074    0.8777 H   0  0  0  0  0  0  0  0  0  0  0  0
   -6.0265    1.1536   -0.9644 H   0  0  0  0  0  0  0  0  0  0  0  0
   -3.2014    2.7726   -0.1974 H   0  0  0  0  0  0  0  0  0  0  0  0
    2.4172    1.3295    0.3793 H   0  0  0  0  0  0  0  0  0  0  0  0
    1.3848    1.6966   -0.9542 H   0  0  0  0  0  0  0  0  0  0  0  0
    0.9379    1.9043    0.8826 H   0  0  0  0  0  0  0  0  0  0  0  0
    3.5512   -2.2619    0.1318 H   0  0  0  0  0  0  0  0  0  0  0  0
    6.4731    1.2090    1.9836 H   0  0  0  0  0  0  0  0  0  0  0  0
    7.2157    2.0732   -0.2635 H   0  0  0  0  0  0  0  0  0  0  0  0
    6.0379    1.3916   -2.2859 H   0  0  0  0  0  0  0  0  0  0  0  0
   -1.2232   -3.8717    0.3827 H   0  0  0  0  0  0  0  0  0  0  0  0
   -3.5170   -2.8953    0.3644 H   0  0  0  0  0  0  0  0  0  0  0  0
   -6.1501   -0.6702    0.1884 H   0  0  0  0  0  0  0  0  0  0  0  0
   -5.2339   -1.8355    1.2447 H   0  0  0  0  0  0  0  0  0  0  0  0
   -5.2223   -2.0220   -0.5750 H   0  0  0  0  0  0  0  0  0  0  0  0
  1  2  1  0
  2  3  1  0
  3  4  1  0
  4  5  2  0
  4  6  1  0
  6  7  2  0
  7  8  1  0
  8  9  1  0
  8 10  1  0
 10 11  1  0
 11 12  1  0
 12 13  2  0
 13 14  1  0
 13 15  1  0
 15 16  2  0
 16 17  1  0
 17 18  2  0
 18 19  1  0
 10 20  2  0
 20 21  1  0
 21 22  2  0
 22 23  1  0
 23 24  2  0
 24 25  1  0
 25 26  1  0
 25  2  2  0
 24  6  1  0
 21  7  1  0
 18 12  1  0
  1 27  1  0
  1 28  1  0
  1 29  1  0
  3 30  1  0
  9 31  1  0
  9 32  1  0
  9 33  1  0
 11 34  1  0
 15 35  1  0
 16 36  1  0
 17 37  1  0
 22 38  1  0
 23 39  1  0
 26 40  1  0
 26 41  1  0
 26 42  1  0
M  END
$$$$
[H]OC(=O)C([H])(C([H])([H])S[H])C([H])([H])c1c([H])c([H])c([H])c([H])c1[H]
     RDKit          3D

 25 25  0  0  0  0  0  0  0  0999 V2000
   -3.2996   -1.5370   -0.8758 O   0  0  0  0  0  0  0  0  0  0  0  0
   -2.9658   -0.4172   -0.1298 C   0  0  0  0  0  0  0  0  0  0  0  0
   -3.8495    0.0515    0.6282 O   0  0  0  0  0  0  0  0  0  0  0  0
   -1.6038    0.1576   -0.2654 C   0  0  0  0  0  0  0  0  0  0  0  0
   -1.4576    1.3461    0.6167 C   0  0  0  0  0  0  0  0  0  0  0  0
   -1.7250    0.9928    2.3762 S   0  0  0  0  0  0  0  0  0  0  0  0
   -0.5880   -0.9129   -0.1295 C   0  0  0  0  0  0  0  0  0  0  0  0
    0.8103   -0.5119   -0.2521 C   0  0  0  0  0  0  0  0  0  0  0  0
    1.4554   -0.4538   -1.4956 C   0  0  0  0  0  0  0  0  0  0  0  0
    2.7775   -0.0829   -1.5826 C   0  0  0  0  0  0  0  0  0  0  0  0
    3.5177    0.2439   -0.4667 C   0  0  0  0  0  0  0  0  0  0  0  0
    2.8936    0.1895    0.7551 C   0  0  0  0  0  0  0  0  0  0  0  0
    1.5465   -0.1870    0.8594 C   0  0  0  0  0  0  0  0  0  0  0  0
   -3.0823   -2.4423   -0.4490 H   0  0  0  0  0  0  0  0  0  0  0  0
   -1.5307    0.5319   -1.3225 H   0  0  0  0  0  0  0  0  0  0  0  0
   -2.1925    2.1241    0.3295 H   0  0  0  0  0  0  0  0  0  0  0  0
   -0.4590    1.8264    0.5457 H   0  0  0  0  0  0  0  0  0  0  0  0
   -2.0225    2.2434    2.9902 H   0  0  0  0  0  0  0  0  0  0  0  0
   -0.7840   -1.6396   -0.9742 H   0  0  0  0  0  0  0  0  0  0  0  0
   -0.6912   -1.5288    0.7840 H   0  0  0  0  0  0  0  0  0  0  0  0
    0.8398   -0.7166   -2.3362 H   0  0  0  0  0  0  0  0  0  0  0  0
    3.2452   -0.0478   -2.5535 H   0  0  0  0  0  0  0  0  0  0  0  0
    4.5664    0.5338   -0.5797 H   0  0  0  0  0  0  0  0  0  0  0  0
    3.4599    0.4445    1.6579 H   0  0  0  0  0  0  0  0  0  0  0  0
    1.1391   -0.2078    1.8697 H   0  0  0  0  0  0  0  0  0  0  0  0
  1  2  1  0
  2  3  2  0
  2  4  1  0
  4  5  1  0
  5  6  1  0
  4  7  1  0
  7  8  1  0
  8  9  2  0
  9 10  1  0
 10 11  2  0
 11 12  1  0
 12 13  2  0
 13  8  1  0
  1 14  1  0
  4 15  1  0
  5 16  1  0
  5 17  1  0
  6 18  1  0
  7 19  1  0
  7 20  1  0
  9 21  1  0
 10 22  1  0
 11 23  1  0
 12 24  1  0
 13 25  1  0
M  END
$$$$
[H]c1nc(N([H])c2c([H])c(N3C([H])([H])C([H])([H])OC([H])([H])C3([H])[H])c([H])c(N3C([H])([H])C([H])([H])OC([H])([H])C3([H])[H])c2[H])nc(N(c2c([H])c(N3C([H])([H])C([H])([H])OC([H])([H])C3([H])[H])c([H])c(C(F)(F)F)c2[H])C([H])([H])[H])c1[H]
     RDKit          3D

 79 84  0  0  0  0  0  0  0  0999 V2000
    4.0226   -3.1907   -1.2909 C   0  0  0  0  0  0  0  0  0  0  0  0
    3.4017   -2.0443   -0.6511 N   0  0  0  0  0  0  0  0  0  0  0  0
    2.0000   -2.0053   -0.3529 C   0  0  0  0  0  0  0  0  0  0  0  0
    1.6287   -2.6872    0.7985 C   0  0  0  0  0  0  0  0  0  0  0  0
    0.3135   -2.6486    1.1867 C   0  0  0  0  0  0  0  0  0  0  0  0
   -0.5618   -1.9594    0.4456 N   0  0  0  0  0  0  0  0  0  0  0  0
   -0.2356   -1.2869   -0.6769 C   0  0  0  0  0  0  0  0  0  0  0  0
   -1.1159   -0.4932   -1.4094 N   0  0  0  0  0  0  0  0  0  0  0  0
   -2.4675   -0.2717   -1.0902 C   0  0  0  0  0  0  0  0  0  0  0  0
   -3.3555   -1.2877   -0.8146 C   0  0  0  0  0  0  0  0  0  0  0  0
   -4.6709   -1.0206   -0.4787 C   0  0  0  0  0  0  0  0  0  0  0  0
   -5.0539    0.3006   -0.4301 C   0  0  0  0  0  0  0  0  0  0  0  0
   -4.2194    1.3772   -0.6922 C   0  0  0  0  0  0  0  0  0  0  0  0
   -2.9296    1.0684   -1.0217 C   0  0  0  0  0  0  0  0  0  0  0  0
   -4.7143    2.6762   -0.5702 N   0  0  0  0  0  0  0  0  0  0  0  0
   -4.9786    3.5073   -1.7199 C   0  0  0  0  0  0  0  0  0  0  0  0
   -6.4489    3.9197   -1.7032 C   0  0  0  0  0  0  0  0  0  0  0  0
   -7.0983    3.6906   -0.5342 O   0  0  0  0  0  0  0  0  0  0  0  0
   -6.4680    3.8165    0.6558 C   0  0  0  0  0  0  0  0  0  0  0  0
   -5.0400    3.2897    0.7101 C   0  0  0  0  0  0  0  0  0  0  0  0
   -5.6453   -2.0211   -0.1932 N   0  0  0  0  0  0  0  0  0  0  0  0
   -6.9887   -1.8031   -0.7651 C   0  0  0  0  0  0  0  0  0  0  0  0
   -8.0011   -1.7662    0.3408 C   0  0  0  0  0  0  0  0  0  0  0  0
   -7.7098   -2.6888    1.3450 O   0  0  0  0  0  0  0  0  0  0  0  0
   -6.8912   -3.7198    0.9132 C   0  0  0  0  0  0  0  0  0  0  0  0
   -5.4860   -3.1817    0.6070 C   0  0  0  0  0  0  0  0  0  0  0  0
    1.0883   -1.3478   -1.0369 N   0  0  0  0  0  0  0  0  0  0  0  0
    4.1927   -0.9365   -0.2788 C   0  0  0  0  0  0  0  0  0  0  0  0
    5.5737   -0.9327   -0.3328 C   0  0  0  0  0  0  0  0  0  0  0  0
    6.3357    0.1561    0.0170 C   0  0  0  0  0  0  0  0  0  0  0  0
    5.6549    1.2942    0.4425 C   0  0  0  0  0  0  0  0  0  0  0  0
    4.2912    1.3477    0.5170 C   0  0  0  0  0  0  0  0  0  0  0  0
    3.5879    0.2157    0.1499 C   0  0  0  0  0  0  0  0  0  0  0  0
    3.5688    2.5735    0.9792 C   0  0  0  0  0  0  0  0  0  0  0  0
    3.4996    3.4507   -0.0795 F   0  0  0  0  0  0  0  0  0  0  0  0
    2.2728    2.2561    1.3443 F   0  0  0  0  0  0  0  0  0  0  0  0
    4.2976    3.0723    2.0329 F   0  0  0  0  0  0  0  0  0  0  0  0
    7.7527    0.1588   -0.0099 N   0  0  0  0  0  0  0  0  0  0  0  0
    8.4031   -0.2699    1.2233 C   0  0  0  0  0  0  0  0  0  0  0  0
    9.6269    0.6147    1.3728 C   0  0  0  0  0  0  0  0  0  0  0  0
   10.3944    0.4060    0.2406 O   0  0  0  0  0  0  0  0  0  0  0  0
    9.8867    0.9449   -0.9179 C   0  0  0  0  0  0  0  0  0  0  0  0
    8.4462    0.5635   -1.1777 C   0  0  0  0  0  0  0  0  0  0  0  0
    4.9236   -3.4947   -0.6849 H   0  0  0  0  0  0  0  0  0  0  0  0
    4.3133   -2.8812   -2.3120 H   0  0  0  0  0  0  0  0  0  0  0  0
    3.3183   -4.0582   -1.2674 H   0  0  0  0  0  0  0  0  0  0  0  0
    2.3194   -3.2414    1.4058 H   0  0  0  0  0  0  0  0  0  0  0  0
   -0.0430   -3.1477    2.0751 H   0  0  0  0  0  0  0  0  0  0  0  0
   -0.7674   -0.0054   -2.2754 H   0  0  0  0  0  0  0  0  0  0  0  0
   -3.0339   -2.3291   -0.8515 H   0  0  0  0  0  0  0  0  0  0  0  0
   -6.0708    0.5126   -0.1713 H   0  0  0  0  0  0  0  0  0  0  0  0
   -2.1781    1.8227   -1.2502 H   0  0  0  0  0  0  0  0  0  0  0  0
   -4.3835    4.4597   -1.6230 H   0  0  0  0  0  0  0  0  0  0  0  0
   -4.7225    3.0749   -2.6796 H   0  0  0  0  0  0  0  0  0  0  0  0
   -6.9758    3.2797   -2.4804 H   0  0  0  0  0  0  0  0  0  0  0  0
   -6.5704    4.9745   -1.9983 H   0  0  0  0  0  0  0  0  0  0  0  0
   -7.0244    3.1630    1.3968 H   0  0  0  0  0  0  0  0  0  0  0  0
   -6.5308    4.8477    1.0439 H   0  0  0  0  0  0  0  0  0  0  0  0
   -4.3685    4.1827    0.7976 H   0  0  0  0  0  0  0  0  0  0  0  0
   -4.8245    2.6575    1.5724 H   0  0  0  0  0  0  0  0  0  0  0  0
   -7.1427   -2.6677   -1.4622 H   0  0  0  0  0  0  0  0  0  0  0  0
   -7.0495   -0.8395   -1.3054 H   0  0  0  0  0  0  0  0  0  0  0  0
   -9.0142   -1.9164   -0.0852 H   0  0  0  0  0  0  0  0  0  0  0  0
   -8.0006   -0.7328    0.7772 H   0  0  0  0  0  0  0  0  0  0  0  0
   -7.2985   -4.1162   -0.0498 H   0  0  0  0  0  0  0  0  0  0  0  0
   -6.8823   -4.4984    1.6808 H   0  0  0  0  0  0  0  0  0  0  0  0
   -4.9970   -3.0039    1.5785 H   0  0  0  0  0  0  0  0  0  0  0  0
   -4.9800   -3.9499   -0.0054 H   0  0  0  0  0  0  0  0  0  0  0  0
    6.1255   -1.8308   -0.6662 H   0  0  0  0  0  0  0  0  0  0  0  0
    6.2655    2.1641    0.7244 H   0  0  0  0  0  0  0  0  0  0  0  0
    2.5268    0.2800    0.2130 H   0  0  0  0  0  0  0  0  0  0  0  0
    8.7860   -1.2959    1.0563 H   0  0  0  0  0  0  0  0  0  0  0  0
    7.7339   -0.1870    2.0951 H   0  0  0  0  0  0  0  0  0  0  0  0
    9.2839    1.6459    1.5025 H   0  0  0  0  0  0  0  0  0  0  0  0
   10.2414    0.2569    2.2431 H   0  0  0  0  0  0  0  0  0  0  0  0
   10.0113    2.0563   -0.9601 H   0  0  0  0  0  0  0  0  0  0  0  0
   10.4849    0.5398   -1.7564 H   0  0  0  0  0  0  0  0  0  0  0  0
    7.9676    1.4243   -1.6768 H   0  0  0  0  0  0  0  0  0  0  0  0
    8.3976   -0.2833   -1.9249 H   0  0  0  0  0  0  0  0  0  0  0  0
  1  2  1  0
  2  3  1  0
  3  4  2  0
  4  5  1  0
  5  6  2  0
  6  7  1  0
  7  8  1  0
  8  9  1  0
  9 10  2  0
 10 11  1  0
 11 12  2  0
 12 13  1  0
 13 14  2  0
 13 15  1  0
 15 16  1  0
 16 17  1  0
 17 18  1  0
 18 19  1  0
 19 20  1  0
 11 21  1  0
 21 22  1  0
 22 23  1  0
 23 24  1  0
 24 25  1  0
 25 26  1  0
  7 27  2  0
  2 28  1  0
 28 29  2  0
 29 30  1  0
 30 31  2  0
 31 32  1  0
 32 33  2  0
 32 34  1  0
 34 35  1  0
 34 36  1  0
 34 37  1  0
 30 38  1  0
 38 39  1  0
 39 40  1  0
 40 41  1  0
 41 42  1  0
 42 43  1  0
 27  3  1  0
 33 28  1  0
 43 38  1  0
 14  9  1  0
 20 15  1  0
 26 21  1  0
  1 44  1  0
  1 45  1  0
  1 46  1  0
  4 47  1  0
  5 48  1  0
  8 49  1  0
 10 50  1  0
 12 51  1  0
 14 52  1  0
 16 53  1  0
 16 54  1  0
 17 55  1  0
 17 56  1  0
 19 57  1  0
 19 58  1  0
 20 59  1  0
 20 60  1  0
 22 61  1  0
 22 62  1  0
 23 63  1  0
 23 64  1  0
 25 65  1  0
 25 66  1  0
 26 67  1  0
 26 68  1  0
 29 69  1  0
 31 70  1  0
 33 71  1  0
 39 72  1  0
 39 73  1  0
 40 74  1  0
 40 75  1  0
 42 76  1  0
 42 77  1  0
 43 78  1  0
 43 79  1  0
M  END
$$$$
[H]N=C(N([H])[H])N([H])C([H])([H])C([H])([H])C([H])([H])[C@@]([H])(C(=O)c1nc2c([H])c([H])c([H])c([H])c2o1)N([H])C(=O)[C@@]1([H])N(C(=O)[C@]([H])(N([H])C(=O)OC([H])([H])c2c([H])c([H])c([H])c([H])c2[H])C([H])([H])c2c([H])c([H])c([H])c([H])c2[H])C([H])([H])C([H])([H])C1([H])[H]
     RDKit          3D

 87 91  0  0  0  0  0  0  0  0999 V2000
    4.3180   -4.4240   -1.4516 N   0  0  0  0  0  0  0  0  0  0  0  0
    5.0936   -3.4835   -0.7087 C   0  0  0  0  0  0  0  0  0  0  0  0
    6.1245   -2.9039   -1.2007 N   0  0  0  0  0  0  0  0  0  0  0  0
    4.6567   -3.2219    0.6231 N   0  0  0  0  0  0  0  0  0  0  0  0
    3.2955   -2.8399    0.8315 C   0  0  0  0  0  0  0  0  0  0  0  0
    2.9719   -1.4510    0.2784 C   0  0  0  0  0  0  0  0  0  0  0  0
    3.8395   -0.4388    0.9502 C   0  0  0  0  0  0  0  0  0  0  0  0
    3.6205    0.9761    0.5287 C   0  0  2  0  0  0  0  0  0  0  0  0
    2.2216    1.3633    0.8188 N   0  0  0  0  0  0  0  0  0  0  0  0
    1.8978    2.0533    1.9659 C   0  0  0  0  0  0  0  0  0  0  0  0
    2.9281    2.3048    2.7380 O   0  0  0  0  0  0  0  0  0  0  0  0
    0.6663    2.5321    2.4379 C   0  0  2  0  0  0  0  0  0  0  0  0
    0.3996    2.3685    3.9467 C   0  0  0  0  0  0  0  0  0  0  0  0
   -0.8617    3.2319    4.0321 C   0  0  0  0  0  0  0  0  0  0  0  0
   -1.3865    3.3589    2.5883 C   0  0  0  0  0  0  0  0  0  0  0  0
   -0.6186    2.2314    1.9586 N   0  0  0  0  0  0  0  0  0  0  0  0
   -1.3082    1.2445    1.2398 C   0  0  0  0  0  0  0  0  0  0  0  0
   -0.8229    0.1279    0.8804 O   0  0  0  0  0  0  0  0  0  0  0  0
   -2.7400    1.4224    0.8062 C   0  0  1  0  0  0  0  0  0  0  0  0
   -2.8037    2.5538   -0.2136 C   0  0  0  0  0  0  0  0  0  0  0  0
   -4.1597    2.8315   -0.6917 C   0  0  0  0  0  0  0  0  0  0  0  0
   -4.7027    2.1984   -1.7835 C   0  0  0  0  0  0  0  0  0  0  0  0
   -5.9782    2.4986   -2.1969 C   0  0  0  0  0  0  0  0  0  0  0  0
   -6.7469    3.4335   -1.5376 C   0  0  0  0  0  0  0  0  0  0  0  0
   -6.2031    4.0785   -0.4301 C   0  0  0  0  0  0  0  0  0  0  0  0
   -4.9320    3.7662   -0.0352 C   0  0  0  0  0  0  0  0  0  0  0  0
   -3.2280    0.1998    0.1905 N   0  0  0  0  0  0  0  0  0  0  0  0
   -4.3651   -0.4929    0.6854 C   0  0  0  0  0  0  0  0  0  0  0  0
   -4.9471   -0.0178    1.6952 O   0  0  0  0  0  0  0  0  0  0  0  0
   -4.8650   -1.6418    0.1280 O   0  0  0  0  0  0  0  0  0  0  0  0
   -6.0002   -2.3237    0.6160 C   0  0  0  0  0  0  0  0  0  0  0  0
   -6.3539   -3.5166   -0.1510 C   0  0  0  0  0  0  0  0  0  0  0  0
   -5.5068   -3.9953   -1.1251 C   0  0  0  0  0  0  0  0  0  0  0  0
   -5.8476   -5.1343   -1.8652 C   0  0  0  0  0  0  0  0  0  0  0  0
   -7.0567   -5.7555   -1.5856 C   0  0  0  0  0  0  0  0  0  0  0  0
   -7.9023   -5.2683   -0.6056 C   0  0  0  0  0  0  0  0  0  0  0  0
   -7.5699   -4.1464    0.1267 C   0  0  0  0  0  0  0  0  0  0  0  0
    3.9539    1.2696   -0.8731 C   0  0  0  0  0  0  0  0  0  0  0  0
    3.0421    1.7146   -1.6582 O   0  0  0  0  0  0  0  0  0  0  0  0
    5.2731    1.0857   -1.4332 C   0  0  0  0  0  0  0  0  0  0  0  0
    5.6025    1.3307   -2.7184 N   0  0  0  0  0  0  0  0  0  0  0  0
    6.8948    1.0656   -2.9193 C   0  0  0  0  0  0  0  0  0  0  0  0
    7.7489    1.1344   -4.0188 C   0  0  0  0  0  0  0  0  0  0  0  0
    9.0589    0.7799   -3.8861 C   0  0  0  0  0  0  0  0  0  0  0  0
    9.5802    0.3478   -2.6825 C   0  0  0  0  0  0  0  0  0  0  0  0
    8.6974    0.2918   -1.6060 C   0  0  0  0  0  0  0  0  0  0  0  0
    7.3710    0.6387   -1.6933 C   0  0  0  0  0  0  0  0  0  0  0  0
    6.3611    0.6731   -0.8552 O   0  0  0  0  0  0  0  0  0  0  0  0
    4.0636   -4.2370   -2.4285 H   0  0  0  0  0  0  0  0  0  0  0  0
    3.9845   -5.3349   -1.0253 H   0  0  0  0  0  0  0  0  0  0  0  0
    6.6418   -2.2192   -0.5778 H   0  0  0  0  0  0  0  0  0  0  0  0
    5.3187   -3.3062    1.4224 H   0  0  0  0  0  0  0  0  0  0  0  0
    2.6431   -3.5781    0.2771 H   0  0  0  0  0  0  0  0  0  0  0  0
    3.0289   -2.9287    1.8844 H   0  0  0  0  0  0  0  0  0  0  0  0
    3.1017   -1.4464   -0.8229 H   0  0  0  0  0  0  0  0  0  0  0  0
    1.9097   -1.2207    0.5019 H   0  0  0  0  0  0  0  0  0  0  0  0
    4.9044   -0.6919    0.7496 H   0  0  0  0  0  0  0  0  0  0  0  0
    3.7234   -0.4641    2.0632 H   0  0  0  0  0  0  0  0  0  0  0  0
    4.2702    1.6017    1.1833 H   0  0  0  0  0  0  0  0  0  0  0  0
    1.5371    1.0923    0.0806 H   0  0  0  0  0  0  0  0  0  0  0  0
    0.7428    3.7100    2.3150 H   0  0  0  0  0  0  0  0  0  0  0  0
    0.0921    1.3380    4.1210 H   0  0  0  0  0  0  0  0  0  0  0  0
    1.2157    2.7458    4.5532 H   0  0  0  0  0  0  0  0  0  0  0  0
   -1.6119    2.8287    4.7086 H   0  0  0  0  0  0  0  0  0  0  0  0
   -0.5115    4.2472    4.2982 H   0  0  0  0  0  0  0  0  0  0  0  0
   -1.0549    4.2728    2.0991 H   0  0  0  0  0  0  0  0  0  0  0  0
   -2.4533    3.2010    2.5555 H   0  0  0  0  0  0  0  0  0  0  0  0
   -3.3353    1.6102    1.7019 H   0  0  0  0  0  0  0  0  0  0  0  0
   -2.1112    2.2594   -1.0445 H   0  0  0  0  0  0  0  0  0  0  0  0
   -2.3728    3.4580    0.2165 H   0  0  0  0  0  0  0  0  0  0  0  0
   -4.1536    1.4483   -2.3522 H   0  0  0  0  0  0  0  0  0  0  0  0
   -6.4130    1.9893   -3.0716 H   0  0  0  0  0  0  0  0  0  0  0  0
   -7.7438    3.6531   -1.8799 H   0  0  0  0  0  0  0  0  0  0  0  0
   -6.8384    4.8016    0.0600 H   0  0  0  0  0  0  0  0  0  0  0  0
   -4.5011    4.2711    0.8373 H   0  0  0  0  0  0  0  0  0  0  0  0
   -2.7436   -0.1952   -0.6433 H   0  0  0  0  0  0  0  0  0  0  0  0
   -5.8655   -2.5348    1.7010 H   0  0  0  0  0  0  0  0  0  0  0  0
   -6.8526   -1.5942    0.5346 H   0  0  0  0  0  0  0  0  0  0  0  0
   -4.5913   -3.4873   -1.3058 H   0  0  0  0  0  0  0  0  0  0  0  0
   -5.1666   -5.5011   -2.6290 H   0  0  0  0  0  0  0  0  0  0  0  0
   -7.3351   -6.6207   -2.1338 H   0  0  0  0  0  0  0  0  0  0  0  0
   -8.8261   -5.7983   -0.4411 H   0  0  0  0  0  0  0  0  0  0  0  0
   -8.2265   -3.7641    0.8897 H   0  0  0  0  0  0  0  0  0  0  0  0
    7.3701    1.4689   -4.9856 H   0  0  0  0  0  0  0  0  0  0  0  0
    9.6853    0.8547   -4.7874 H   0  0  0  0  0  0  0  0  0  0  0  0
   10.6178    0.0739   -2.6052 H   0  0  0  0  0  0  0  0  0  0  0  0
    9.1467   -0.0554   -0.6678 H   0  0  0  0  0  0  0  0  0  0  0  0
  1  2  1  0
  2  3  2  3
  2  4  1  0
  4  5  1  0
  5  6  1  0
  6  7  1  0
  7  8  1  0
  8  9  1  0
  9 10  1  0
 10 11  2  0
 10 12  1  0
 12 13  1  0
 13 14  1  0
 14 15  1  0
 15 16  1  0
 16 17  1  0
 17 18  2  0
 17 19  1  0
 19 20  1  0
 20 21  1  0
 21 22  2  0
 22 23  1  0
 23 24  2  0
 24 25  1  0
 25 26  2  0
 19 27  1  0
 27 28  1  0
 28 29  2  0
 28 30  1  0
 30 31  1  0
 31 32  1  0
 32 33  2  0
 33 34  1  0
 34 35  2  0
 35 36  1  0
 36 37  2  0
  8 38  1  0
 38 39  2  0
 38 40  1  0
 40 41  2  0
 41 42  1  0
 42 43  2  0
 43 44  1  0
 44 45  2  0
 45 46  1  0
 46 47  2  0
 47 48  1  0
 16 12  1  0
 26 21  1  0
 37 32  1  0
 48 40  1  0
 47 42  1  0
  1 49  1  0
  1 50  1  0
  3 51  1  0
  4 52  1  0
  5 53  1  0
  5 54  1  0
  6 55  1  0
  6 56  1  0
  7 57  1  0
  7 58  1  0
  8 59  1  1
  9 60  1  0
 12 61  1  1
 13 62  1  0
 13 63  1  0
 14 64  1  0
 14 65  1  0
 15 66  1  0
 15 67  1  0
 19 68  1  1
 20 69  1  0
 20 70  1  0
 22 71  1  0
 23 72  1  0
 24 73  1  0
 25 74  1  0
 26 75  1  0
 27 76  1  0
 31 77  1  0
 31 78  1  0
 33 79  1  0
 34 80  1  0
 35 81  1  0
 36 82  1  0
 37 83  1  0
 43 84  1  0
 44 85  1  0
 45 86  1  0
 46 87  1  0
M  END
$$$$
[H]OC([H])([H])c1c([H])c([H])c(C([H])([H])[H])c(N(c2nc(N([H])c3c([H])c(N4C([H])([H])C([H])([H])OC([H])([H])C4([H])[H])c([H])c(N4C([H])([H])C([H])([H])OC([H])([H])C4([H])[H])c3[H])nc([H])c2[H])C([H])([H])[H])c1[H]
     RDKit          3D

 70 74  0  0  0  0  0  0  0  0999 V2000
    4.8161   -0.0126    2.7557 C   0  0  0  0  0  0  0  0  0  0  0  0
    4.5648   -0.2531    1.3519 N   0  0  0  0  0  0  0  0  0  0  0  0
    3.2811   -0.7754    1.0168 C   0  0  0  0  0  0  0  0  0  0  0  0
    3.0506   -2.1188    0.8292 C   0  0  0  0  0  0  0  0  0  0  0  0
    1.7556   -2.4822    0.5186 C   0  0  0  0  0  0  0  0  0  0  0  0
    0.7827   -1.5802    0.4071 N   0  0  0  0  0  0  0  0  0  0  0  0
    0.9845   -0.2735    0.5850 C   0  0  0  0  0  0  0  0  0  0  0  0
   -0.0285    0.7260    0.4812 N   0  0  0  0  0  0  0  0  0  0  0  0
   -1.3860    0.5212    0.1625 C   0  0  0  0  0  0  0  0  0  0  0  0
   -2.2954    1.5062    0.5674 C   0  0  0  0  0  0  0  0  0  0  0  0
   -3.6377    1.4631    0.3198 C   0  0  0  0  0  0  0  0  0  0  0  0
   -4.1076    0.3704   -0.3757 C   0  0  0  0  0  0  0  0  0  0  0  0
   -3.2484   -0.6492   -0.8089 C   0  0  0  0  0  0  0  0  0  0  0  0
   -1.9024   -0.5491   -0.5292 C   0  0  0  0  0  0  0  0  0  0  0  0
   -3.8135   -1.7378   -1.5164 N   0  0  0  0  0  0  0  0  0  0  0  0
   -3.0717   -2.9054   -1.9154 C   0  0  0  0  0  0  0  0  0  0  0  0
   -3.8195   -4.1458   -1.4322 C   0  0  0  0  0  0  0  0  0  0  0  0
   -5.1466   -4.1431   -1.7781 O   0  0  0  0  0  0  0  0  0  0  0  0
   -5.5061   -3.0673   -2.5651 C   0  0  0  0  0  0  0  0  0  0  0  0
   -5.2284   -1.7398   -1.8985 C   0  0  0  0  0  0  0  0  0  0  0  0
   -4.5286    2.5071    0.7748 N   0  0  0  0  0  0  0  0  0  0  0  0
   -5.9255    2.5224    0.4462 C   0  0  0  0  0  0  0  0  0  0  0  0
   -6.7116    3.2687    1.5026 C   0  0  0  0  0  0  0  0  0  0  0  0
   -6.1374    4.5351    1.6549 O   0  0  0  0  0  0  0  0  0  0  0  0
   -4.9769    4.3277    2.3938 C   0  0  0  0  0  0  0  0  0  0  0  0
   -3.9618    3.5577    1.5919 C   0  0  0  0  0  0  0  0  0  0  0  0
    2.2685    0.0866    0.8924 N   0  0  0  0  0  0  0  0  0  0  0  0
    5.5440    0.0186    0.3779 C   0  0  0  0  0  0  0  0  0  0  0  0
    6.1182   -1.0079   -0.3379 C   0  0  0  0  0  0  0  0  0  0  0  0
    7.0900   -0.7998   -1.2905 C   0  0  0  0  0  0  0  0  0  0  0  0
    7.6444   -1.9597   -2.0072 C   0  0  0  0  0  0  0  0  0  0  0  0
    7.0270   -3.1514   -1.5799 O   0  0  0  0  0  0  0  0  0  0  0  0
    7.5171    0.4660   -1.5514 C   0  0  0  0  0  0  0  0  0  0  0  0
    6.9664    1.5378   -0.8535 C   0  0  0  0  0  0  0  0  0  0  0  0
    5.9850    1.2854    0.1014 C   0  0  0  0  0  0  0  0  0  0  0  0
    5.4012    2.4380    0.8226 C   0  0  0  0  0  0  0  0  0  0  0  0
    4.6001   -0.8821    3.3934 H   0  0  0  0  0  0  0  0  0  0  0  0
    4.1775    0.8235    3.1037 H   0  0  0  0  0  0  0  0  0  0  0  0
    5.8624    0.2701    2.9089 H   0  0  0  0  0  0  0  0  0  0  0  0
    3.8293   -2.8362    0.9222 H   0  0  0  0  0  0  0  0  0  0  0  0
    1.5054   -3.5437    0.3562 H   0  0  0  0  0  0  0  0  0  0  0  0
    0.3274    1.7221    0.6724 H   0  0  0  0  0  0  0  0  0  0  0  0
   -1.8925    2.3686    1.1166 H   0  0  0  0  0  0  0  0  0  0  0  0
   -5.1693    0.2631   -0.6149 H   0  0  0  0  0  0  0  0  0  0  0  0
   -1.2515   -1.3390   -0.8871 H   0  0  0  0  0  0  0  0  0  0  0  0
   -2.0640   -2.9953   -1.5247 H   0  0  0  0  0  0  0  0  0  0  0  0
   -2.9867   -2.9433   -3.0336 H   0  0  0  0  0  0  0  0  0  0  0  0
   -3.7315   -4.1677   -0.3300 H   0  0  0  0  0  0  0  0  0  0  0  0
   -3.2826   -5.0294   -1.8315 H   0  0  0  0  0  0  0  0  0  0  0  0
   -6.6173   -3.1380   -2.6972 H   0  0  0  0  0  0  0  0  0  0  0  0
   -5.0022   -3.0739   -3.5469 H   0  0  0  0  0  0  0  0  0  0  0  0
   -5.8873   -1.6396   -1.0392 H   0  0  0  0  0  0  0  0  0  0  0  0
   -5.4522   -0.9410   -2.6341 H   0  0  0  0  0  0  0  0  0  0  0  0
   -6.0312    3.1408   -0.4898 H   0  0  0  0  0  0  0  0  0  0  0  0
   -6.3894    1.5398    0.2991 H   0  0  0  0  0  0  0  0  0  0  0  0
   -7.7492    3.4055    1.2099 H   0  0  0  0  0  0  0  0  0  0  0  0
   -6.5794    2.7344    2.4609 H   0  0  0  0  0  0  0  0  0  0  0  0
   -4.5211    5.3098    2.6614 H   0  0  0  0  0  0  0  0  0  0  0  0
   -5.2020    3.7578    3.3232 H   0  0  0  0  0  0  0  0  0  0  0  0
   -3.3540    4.2100    0.9408 H   0  0  0  0  0  0  0  0  0  0  0  0
   -3.2621    3.1175    2.3630 H   0  0  0  0  0  0  0  0  0  0  0  0
    5.7895   -2.0115   -0.1392 H   0  0  0  0  0  0  0  0  0  0  0  0
    7.4606   -1.9250   -3.1086 H   0  0  0  0  0  0  0  0  0  0  0  0
    8.7376   -2.0864   -1.7911 H   0  0  0  0  0  0  0  0  0  0  0  0
    7.5210   -3.4635   -0.7856 H   0  0  0  0  0  0  0  0  0  0  0  0
    8.2738    0.6427   -2.2894 H   0  0  0  0  0  0  0  0  0  0  0  0
    7.2778    2.5545   -1.0316 H   0  0  0  0  0  0  0  0  0  0  0  0
    5.8792    3.4055    0.4904 H   0  0  0  0  0  0  0  0  0  0  0  0
    4.3214    2.5476    0.5328 H   0  0  0  0  0  0  0  0  0  0  0  0
    5.4987    2.4162    1.9056 H   0  0  0  0  0  0  0  0  0  0  0  0
  1  2  1  0
  2  3  1  0
  3  4  2  0
  4  5  1  0
  5  6  2  0
  6  7  1  0
  7  8  1  0
  8  9  1  0
  9 10  2  0
 10 11  1  0
 11 12  2  0
 12 13  1  0
 13 14  2  0
 13 15  1  0
 15 16  1  0
 16 17  1  0
 17 18  1  0
 18 19  1  0
 19 20  1  0
 11 21  1  0
 21 22  1  0
 22 23  1  0
 23 24  1  0
 24 25  1  0
 25 26  1  0
  7 27  2  0
  2 28  1  0
 28 29  2  0
 29 30  1  0
 30 31  1  0
 31 32  1  0
 30 33  2  0
 33 34  1  0
 34 35  2  0
 35 36  1  0
 27  3  1  0
 35 28  1  0
 14  9  1  0
 20 15  1  0
 26 21  1  0
  1 37  1  0
  1 38  1  0
  1 39  1  0
  4 40  1  0
  5 41  1  0
  8 42  1  0
 10 43  1  0
 12 44  1  0
 14 45  1  0
 16 46  1  0
 16 47  1  0
 17 48  1  0
 17 49  1  0
 19 50  1  0
 19 51  1  0
 20 52  1  0
 20 53  1  0
 22 54  1  0
 22 55  1  0
 23 56  1  0
 23 57  1  0
 25 58  1  0
 25 59  1  0
 26 60  1  0
 26 61  1  0
 29 62  1  0
 31 63  1  0
 31 64  1  0
 32 65  1  0
 33 66  1  0
 34 67  1  0
 36 68  1  0
 36 69  1  0
 36 70  1  0
M  END
$$$$
[H]N=C(N([H])[H])N([H])C([H])([H])C([H])([H])C([H])([H])[C@@]([H])(C(=O)c1nc([H])c([H])s1)N([H])C(=O)[C@@]([H])(N([H])C(=O)[C@@]1([H])N(C(=O)[C@]([H])(N([H])C(=O)OC([H])([H])c2c([H])c([H])c([H])c([H])c2[H])C([H])([H])c2c([H])c([H])c([H])c([H])c2[H])C([H])([H])C([H])([H])C1([H])[H])C([H])([H])C([H])([H])C([H])([H])N([H])C(=N[H])N([H])[H]
     RDKit          3D

104107  0  0  0  0  0  0  0  0999 V2000
    2.4636   -6.7272    1.1234 N   0  0  0  0  0  0  0  0  0  0  0  0
    3.3454   -6.2959    0.0337 C   0  0  0  0  0  0  0  0  0  0  0  0
    4.0922   -7.0436   -0.5433 N   0  0  0  0  0  0  0  0  0  0  0  0
    3.2211   -4.8642   -0.1913 N   0  0  0  0  0  0  0  0  0  0  0  0
    3.4919   -4.0431    0.9526 C   0  0  0  0  0  0  0  0  0  0  0  0
    3.2373   -2.6014    0.7267 C   0  0  0  0  0  0  0  0  0  0  0  0
    1.8072   -2.3156    0.3315 C   0  0  0  0  0  0  0  0  0  0  0  0
    1.5770   -0.8158    0.1907 C   0  0  2  0  0  0  0  0  0  0  0  0
    0.2649   -0.5546   -0.2225 N   0  0  0  0  0  0  0  0  0  0  0  0
   -0.5629    0.2421    0.6349 C   0  0  0  0  0  0  0  0  0  0  0  0
    0.0069    0.6416    1.7017 O   0  0  0  0  0  0  0  0  0  0  0  0
   -1.9369    0.6183    0.4173 C   0  0  2  0  0  0  0  0  0  0  0  0
   -2.2312    1.9347    1.2162 C   0  0  0  0  0  0  0  0  0  0  0  0
   -2.3609    1.4661    2.6520 C   0  0  0  0  0  0  0  0  0  0  0  0
   -2.5081   -0.0420    2.5242 C   0  0  0  0  0  0  0  0  0  0  0  0
   -2.8930   -0.2197    1.1265 N   0  0  0  0  0  0  0  0  0  0  0  0
   -3.9975   -0.8847    0.6350 C   0  0  0  0  0  0  0  0  0  0  0  0
   -4.6345   -1.6786    1.3375 O   0  0  0  0  0  0  0  0  0  0  0  0
   -4.4913   -0.6568   -0.7810 C   0  0  1  0  0  0  0  0  0  0  0  0
   -3.9963   -1.6130   -1.7693 C   0  0  0  0  0  0  0  0  0  0  0  0
   -4.3719   -3.0404   -1.5388 C   0  0  0  0  0  0  0  0  0  0  0  0
   -3.5538   -3.8089   -0.7592 C   0  0  0  0  0  0  0  0  0  0  0  0
   -3.8291   -5.1198   -0.5091 C   0  0  0  0  0  0  0  0  0  0  0  0
   -4.9762   -5.7364   -1.0508 C   0  0  0  0  0  0  0  0  0  0  0  0
   -5.7720   -4.9243   -1.8314 C   0  0  0  0  0  0  0  0  0  0  0  0
   -5.4928   -3.5955   -2.0828 C   0  0  0  0  0  0  0  0  0  0  0  0
   -5.9459   -0.6682   -0.6240 N   0  0  0  0  0  0  0  0  0  0  0  0
   -6.6116    0.4582   -0.0246 C   0  0  0  0  0  0  0  0  0  0  0  0
   -5.9549    1.4485    0.3570 O   0  0  0  0  0  0  0  0  0  0  0  0
   -7.9811    0.4706    0.1539 O   0  0  0  0  0  0  0  0  0  0  0  0
   -8.6691    1.5064    0.7715 C   0  0  0  0  0  0  0  0  0  0  0  0
   -8.6065    2.8411    0.2277 C   0  0  0  0  0  0  0  0  0  0  0  0
   -8.7337    3.9102    1.0927 C   0  0  0  0  0  0  0  0  0  0  0  0
   -8.7032    5.2377    0.6589 C   0  0  0  0  0  0  0  0  0  0  0  0
   -8.5405    5.4945   -0.6805 C   0  0  0  0  0  0  0  0  0  0  0  0
   -8.4144    4.3973   -1.5474 C   0  0  0  0  0  0  0  0  0  0  0  0
   -8.4467    3.1015   -1.1019 C   0  0  0  0  0  0  0  0  0  0  0  0
    2.6683   -0.1430   -0.5692 C   0  0  0  0  0  0  0  0  0  0  0  0
    2.6353   -0.1542   -1.8172 O   0  0  0  0  0  0  0  0  0  0  0  0
    3.6974    0.4852    0.1174 N   0  0  0  0  0  0  0  0  0  0  0  0
    4.9133    1.1959   -0.3496 C   0  0  1  0  0  0  0  0  0  0  0  0
    4.4470    2.3920   -1.0845 C   0  0  0  0  0  0  0  0  0  0  0  0
    5.1765    3.4491   -1.7195 C   0  0  0  0  0  0  0  0  0  0  0  0
    5.9522    4.5086   -1.0854 C   0  0  0  0  0  0  0  0  0  0  0  0
    7.0907    4.3782   -0.3028 N   0  0  0  0  0  0  0  0  0  0  0  0
    8.4089    4.0100   -0.6050 C   0  0  0  0  0  0  0  0  0  0  0  0
    9.4298    4.0210    0.4132 N   0  0  0  0  0  0  0  0  0  0  0  0
    8.7871    3.6731   -1.7679 N   0  0  0  0  0  0  0  0  0  0  0  0
    5.7237    1.3427    0.8502 C   0  0  0  0  0  0  0  0  0  0  0  0
    5.2206    1.8472    1.9197 O   0  0  0  0  0  0  0  0  0  0  0  0
    7.1163    0.9307    0.9571 C   0  0  0  0  0  0  0  0  0  0  0  0
    7.9255    0.3879    0.0419 N   0  0  0  0  0  0  0  0  0  0  0  0
    9.1393    0.0861    0.3567 C   0  0  0  0  0  0  0  0  0  0  0  0
    9.5683    0.3299    1.6276 C   0  0  0  0  0  0  0  0  0  0  0  0
    8.1623    1.0041    2.3302 S   0  0  0  0  0  0  0  0  0  0  0  0
    2.5081   -7.7189    1.3953 H   0  0  0  0  0  0  0  0  0  0  0  0
    1.8212   -6.0871    1.5975 H   0  0  0  0  0  0  0  0  0  0  0  0
    4.6516   -7.5982   -0.9773 H   0  0  0  0  0  0  0  0  0  0  0  0
    2.9599   -4.5489   -1.1159 H   0  0  0  0  0  0  0  0  0  0  0  0
    2.9468   -4.4509    1.8531 H   0  0  0  0  0  0  0  0  0  0  0  0
    4.5762   -4.2400    1.2194 H   0  0  0  0  0  0  0  0  0  0  0  0
    3.9798   -2.1408    0.0800 H   0  0  0  0  0  0  0  0  0  0  0  0
    3.3586   -2.0892    1.7325 H   0  0  0  0  0  0  0  0  0  0  0  0
    1.1027   -2.6912    1.1138 H   0  0  0  0  0  0  0  0  0  0  0  0
    1.5931   -2.8635   -0.5980 H   0  0  0  0  0  0  0  0  0  0  0  0
    1.6875   -0.3759    1.2459 H   0  0  0  0  0  0  0  0  0  0  0  0
   -0.1407   -0.9172   -1.1296 H   0  0  0  0  0  0  0  0  0  0  0  0
   -2.1651    0.8378   -0.6058 H   0  0  0  0  0  0  0  0  0  0  0  0
   -1.4200    2.6446    1.1368 H   0  0  0  0  0  0  0  0  0  0  0  0
   -3.2362    2.2740    0.8915 H   0  0  0  0  0  0  0  0  0  0  0  0
   -3.2799    1.8887    3.1261 H   0  0  0  0  0  0  0  0  0  0  0  0
   -1.5003    1.6707    3.2873 H   0  0  0  0  0  0  0  0  0  0  0  0
   -3.3338   -0.3392    3.2135 H   0  0  0  0  0  0  0  0  0  0  0  0
   -1.6364   -0.6104    2.8421 H   0  0  0  0  0  0  0  0  0  0  0  0
   -4.1895    0.3704   -0.9863 H   0  0  0  0  0  0  0  0  0  0  0  0
   -2.8969   -1.5321   -1.9167 H   0  0  0  0  0  0  0  0  0  0  0  0
   -4.4672   -1.3688   -2.7578 H   0  0  0  0  0  0  0  0  0  0  0  0
   -2.6320   -3.3549   -0.3133 H   0  0  0  0  0  0  0  0  0  0  0  0
   -3.1857   -5.7694    0.1113 H   0  0  0  0  0  0  0  0  0  0  0  0
   -5.1755   -6.7777   -0.8520 H   0  0  0  0  0  0  0  0  0  0  0  0
   -6.6633   -5.4065   -2.2444 H   0  0  0  0  0  0  0  0  0  0  0  0
   -6.1626   -3.0300   -2.6995 H   0  0  0  0  0  0  0  0  0  0  0  0
   -6.5074   -1.4634   -0.9243 H   0  0  0  0  0  0  0  0  0  0  0  0
   -8.4179    1.4616    1.8749 H   0  0  0  0  0  0  0  0  0  0  0  0
   -9.7713    1.1970    0.7753 H   0  0  0  0  0  0  0  0  0  0  0  0
   -8.8573    3.7850    2.1663 H   0  0  0  0  0  0  0  0  0  0  0  0
   -8.8042    6.0544    1.3697 H   0  0  0  0  0  0  0  0  0  0  0  0
   -8.5135    6.5193   -1.0517 H   0  0  0  0  0  0  0  0  0  0  0  0
   -8.2941    4.6774   -2.6026 H   0  0  0  0  0  0  0  0  0  0  0  0
   -8.3476    2.3075   -1.8174 H   0  0  0  0  0  0  0  0  0  0  0  0
    3.5885    0.4477    1.1956 H   0  0  0  0  0  0  0  0  0  0  0  0
    5.3686    0.5383   -1.1255 H   0  0  0  0  0  0  0  0  0  0  0  0
    3.5894    2.8939   -0.4733 H   0  0  0  0  0  0  0  0  0  0  0  0
    3.7650    1.9372   -1.9341 H   0  0  0  0  0  0  0  0  0  0  0  0
    4.4018    3.9863   -2.4232 H   0  0  0  0  0  0  0  0  0  0  0  0
    5.8543    3.0290   -2.5659 H   0  0  0  0  0  0  0  0  0  0  0  0
    6.2662    5.2117   -1.9715 H   0  0  0  0  0  0  0  0  0  0  0  0
    5.2075    5.2780   -0.5786 H   0  0  0  0  0  0  0  0  0  0  0  0
    6.9499    4.6030    0.7538 H   0  0  0  0  0  0  0  0  0  0  0  0
   10.3937    3.6916    0.2418 H   0  0  0  0  0  0  0  0  0  0  0  0
    9.1473    4.3806    1.3636 H   0  0  0  0  0  0  0  0  0  0  0  0
    8.1194    3.6572   -2.5824 H   0  0  0  0  0  0  0  0  0  0  0  0
    9.8403   -0.3767   -0.3786 H   0  0  0  0  0  0  0  0  0  0  0  0
   10.5667    0.1444    2.0719 H   0  0  0  0  0  0  0  0  0  0  0  0
  1  2  1  0
  2  3  2  3
  2  4  1  0
  4  5  1  0
  5  6  1  0
  6  7  1  0
  7  8  1  0
  8  9  1  0
  9 10  1  0
 10 11  2  0
 10 12  1  0
 12 13  1  0
 13 14  1  0
 14 15  1  0
 15 16  1  0
 16 17  1  0
 17 18  2  0
 17 19  1  0
 19 20  1  0
 20 21  1  0
 21 22  2  0
 22 23  1  0
 23 24  2  0
 24 25  1  0
 25 26  2  0
 19 27  1  0
 27 28  1  0
 28 29  2  0
 28 30  1  0
 30 31  1  0
 31 32  1  0
 32 33  2  0
 33 34  1  0
 34 35  2  0
 35 36  1  0
 36 37  2  0
  8 38  1  0
 38 39  2  0
 38 40  1  0
 40 41  1  0
 41 42  1  0
 42 43  1  0
 43 44  1  0
 44 45  1  0
 45 46  1  0
 46 47  1  0
 46 48  2  3
 41 49  1  0
 49 50  2  0
 49 51  1  0
 51 52  2  0
 52 53  1  0
 53 54  2  0
 54 55  1  0
 16 12  1  0
 26 21  1  0
 37 32  1  0
 55 51  1  0
  1 56  1  0
  1 57  1  0
  3 58  1  0
  4 59  1  0
  5 60  1  0
  5 61  1  0
  6 62  1  0
  6 63  1  0
  7 64  1  0
  7 65  1  0
  8 66  1  1
  9 67  1  0
 12 68  1  6
 13 69  1  0
 13 70  1  0
 14 71  1  0
 14 72  1  0
 15 73  1  0
 15 74  1  0
 19 75  1  6
 20 76  1  0
 20 77  1  0
 22 78  1  0
 23 79  1  0
 24 80  1  0
 25 81  1  0
 26 82  1  0
 27 83  1  0
 31 84  1  0
 31 85  1  0
 33 86  1  0
 34 87  1  0
 35 88  1  0
 36 89  1  0
 37 90  1  0
 40 91  1  0
 41 92  1  6
 42 93  1  0
 42 94  1  0
 43 95  1  0
 43 96  1  0
 44 97  1  0
 44 98  1  0
 45 99  1  0
 47100  1  0
 47101  1  0
 48102  1  0
 53103  1  0
 54104  1  0
M  END
$$$$
[H]c1nc2c(nc([H])c(=O)n2[H])c(Oc2c([H])c([H])c(N([H])C(=O)N([H])c3c([H])c(C(C([H])([H])[H])(C([H])([H])[H])C([H])([H])[H])nn3-c3c([H])c([H])c(OC([H])([H])[H])c([H])c3[H])c3c([H])c([H])c([H])c([H])c23)c1[H]
     RDKit          3D

 72 77  0  0  0  0  0  0  0  0999 V2000
   -5.1485    6.2319   -1.4754 C   0  0  0  0  0  0  0  0  0  0  0  0
   -5.2814    5.0522   -2.2976 O   0  0  0  0  0  0  0  0  0  0  0  0
   -5.0233    3.8127   -1.7209 C   0  0  0  0  0  0  0  0  0  0  0  0
   -4.6121    3.6866   -0.4155 C   0  0  0  0  0  0  0  0  0  0  0  0
   -4.3702    2.4664    0.1584 C   0  0  0  0  0  0  0  0  0  0  0  0
   -4.5135    1.3176   -0.5218 C   0  0  0  0  0  0  0  0  0  0  0  0
   -4.9297    1.4170   -1.8771 C   0  0  0  0  0  0  0  0  0  0  0  0
   -5.1767    2.6579   -2.4504 C   0  0  0  0  0  0  0  0  0  0  0  0
   -4.3540    0.0232    0.0620 N   0  0  0  0  0  0  0  0  0  0  0  0
   -5.4522   -0.7221    0.2962 N   0  0  0  0  0  0  0  0  0  0  0  0
   -5.1548   -1.8679    0.8495 C   0  0  0  0  0  0  0  0  0  0  0  0
   -3.7813   -1.8573    0.9863 C   0  0  0  0  0  0  0  0  0  0  0  0
   -3.2545   -0.6207    0.4671 C   0  0  0  0  0  0  0  0  0  0  0  0
   -1.8810   -0.4983    0.3884 N   0  0  0  0  0  0  0  0  0  0  0  0
   -1.0655    0.3675   -0.4308 C   0  0  0  0  0  0  0  0  0  0  0  0
   -1.6012    1.1091   -1.2349 O   0  0  0  0  0  0  0  0  0  0  0  0
    0.3158    0.3383   -0.2974 N   0  0  0  0  0  0  0  0  0  0  0  0
    1.6429    0.3157   -0.1752 C   0  0  0  0  0  0  0  0  0  0  0  0
    2.4008    1.4529   -0.5463 C   0  0  0  0  0  0  0  0  0  0  0  0
    3.7237    1.5280   -0.3982 C   0  0  0  0  0  0  0  0  0  0  0  0
    4.4334    0.4368    0.1503 C   0  0  0  0  0  0  0  0  0  0  0  0
    5.7870    0.6864    0.2057 O   0  0  0  0  0  0  0  0  0  0  0  0
    6.7849    0.1516   -0.5506 C   0  0  0  0  0  0  0  0  0  0  0  0
    6.6911   -0.8769   -1.4339 C   0  0  0  0  0  0  0  0  0  0  0  0
    7.7958   -1.3436   -2.1707 C   0  0  0  0  0  0  0  0  0  0  0  0
    8.9621   -0.7415   -1.9867 N   0  0  0  0  0  0  0  0  0  0  0  0
    9.1116    0.2926   -1.1223 C   0  0  0  0  0  0  0  0  0  0  0  0
   10.3210    0.8882   -1.0250 N   0  0  0  0  0  0  0  0  0  0  0  0
   10.4976    1.9366   -0.2032 C   0  0  0  0  0  0  0  0  0  0  0  0
   11.6159    2.5067   -0.1157 O   0  0  0  0  0  0  0  0  0  0  0  0
    9.3915    2.3905    0.5414 C   0  0  0  0  0  0  0  0  0  0  0  0
    8.2003    1.7984    0.4356 N   0  0  0  0  0  0  0  0  0  0  0  0
    8.0489    0.7509   -0.3982 C   0  0  0  0  0  0  0  0  0  0  0  0
    3.7456   -0.6530    0.5200 C   0  0  0  0  0  0  0  0  0  0  0  0
    4.4464   -1.7085    1.0917 C   0  0  0  0  0  0  0  0  0  0  0  0
    3.8154   -2.8434    1.5129 C   0  0  0  0  0  0  0  0  0  0  0  0
    2.4597   -2.9194    1.3651 C   0  0  0  0  0  0  0  0  0  0  0  0
    1.7586   -1.8812    0.8004 C   0  0  0  0  0  0  0  0  0  0  0  0
    2.3677   -0.7263    0.3660 C   0  0  0  0  0  0  0  0  0  0  0  0
   -6.0302   -3.0302    1.2522 C   0  0  0  0  0  0  0  0  0  0  0  0
   -7.3181   -3.0055    0.4272 C   0  0  0  0  0  0  0  0  0  0  0  0
   -5.3302   -4.3405    0.9722 C   0  0  0  0  0  0  0  0  0  0  0  0
   -6.3821   -2.9770    2.6908 C   0  0  0  0  0  0  0  0  0  0  0  0
   -4.1233    6.4052   -1.1982 H   0  0  0  0  0  0  0  0  0  0  0  0
   -5.4299    7.0810   -2.1572 H   0  0  0  0  0  0  0  0  0  0  0  0
   -5.7751    6.1634   -0.5693 H   0  0  0  0  0  0  0  0  0  0  0  0
   -4.4773    4.6434    0.1192 H   0  0  0  0  0  0  0  0  0  0  0  0
   -4.0775    2.4880    1.2003 H   0  0  0  0  0  0  0  0  0  0  0  0
   -5.0460    0.4887   -2.3927 H   0  0  0  0  0  0  0  0  0  0  0  0
   -5.5186    2.6876   -3.4862 H   0  0  0  0  0  0  0  0  0  0  0  0
   -3.2396   -2.6523    1.4112 H   0  0  0  0  0  0  0  0  0  0  0  0
   -1.3295   -1.1379    1.0767 H   0  0  0  0  0  0  0  0  0  0  0  0
    0.4301    0.7515   -1.6111 H   0  0  0  0  0  0  0  0  0  0  0  0
    1.8307    2.2987   -0.9775 H   0  0  0  0  0  0  0  0  0  0  0  0
    4.3120    2.3972   -0.6848 H   0  0  0  0  0  0  0  0  0  0  0  0
    5.7565   -1.3432   -1.6231 H   0  0  0  0  0  0  0  0  0  0  0  0
    7.6624   -2.1662   -2.8732 H   0  0  0  0  0  0  0  0  0  0  0  0
   11.1207    0.5356   -1.5878 H   0  0  0  0  0  0  0  0  0  0  0  0
    9.5921    3.2252    1.1754 H   0  0  0  0  0  0  0  0  0  0  0  0
    5.5308   -1.6576    1.2623 H   0  0  0  0  0  0  0  0  0  0  0  0
    4.3610   -3.6651    1.9604 H   0  0  0  0  0  0  0  0  0  0  0  0
    1.8941   -3.7528    1.6919 H   0  0  0  0  0  0  0  0  0  0  0  0
    0.7028   -1.9648    0.6647 H   0  0  0  0  0  0  0  0  0  0  0  0
   -7.9166   -3.9099    0.6408 H   0  0  0  0  0  0  0  0  0  0  0  0
   -7.0866   -2.8670   -0.6285 H   0  0  0  0  0  0  0  0  0  0  0  0
   -7.9428   -2.1561    0.7466 H   0  0  0  0  0  0  0  0  0  0  0  0
   -4.3061   -4.3632    1.4266 H   0  0  0  0  0  0  0  0  0  0  0  0
   -5.1869   -4.4345   -0.1227 H   0  0  0  0  0  0  0  0  0  0  0  0
   -5.8896   -5.1825    1.3920 H   0  0  0  0  0  0  0  0  0  0  0  0
   -6.5953   -3.9989    3.0352 H   0  0  0  0  0  0  0  0  0  0  0  0
   -7.3316   -2.3635    2.8482 H   0  0  0  0  0  0  0  0  0  0  0  0
   -5.5784   -2.5527    3.3106 H   0  0  0  0  0  0  0  0  0  0  0  0
  1  2  1  0
  2  3  1  0
  3  4  2  0
  4  5  1  0
  5  6  2  0
  6  7  1  0
  7  8  2  0
  6  9  1  0
  9 10  1  0
 10 11  2  0
 11 12  1  0
 12 13  2  0
 13 14  1  0
 14 15  1  0
 15 16  2  0
 15 17  1  0
 17 18  1  0
 18 19  2  0
 19 20  1  0
 20 21  2  0
 21 22  1  0
 22 23  1  0
 23 24  2  0
 24 25  1  0
 25 26  2  0
 26 27  1  0
 27 28  1  0
 28 29  1  0
 29 30  2  0
 29 31  1  0
 31 32  2  0
 32 33  1  0
 21 34  1  0
 34 35  2  0
 35 36  1  0
 36 37  2  0
 37 38  1  0
 38 39  2  0
 11 40  1  0
 40 41  1  0
 40 42  1  0
 40 43  1  0
  8  3  1  0
 13  9  1  0
 39 18  1  0
 33 23  1  0
 39 34  1  0
 33 27  2  0
  1 44  1  0
  1 45  1  0
  1 46  1  0
  4 47  1  0
  5 48  1  0
  7 49  1  0
  8 50  1  0
 12 51  1  0
 14 52  1  0
 17 53  1  0
 19 54  1  0
 20 55  1  0
 24 56  1  0
 25 57  1  0
 28 58  1  0
 31 59  1  0
 35 60  1  0
 36 61  1  0
 37 62  1  0
 38 63  1  0
 41 64  1  0
 41 65  1  0
 41 66  1  0
 42 67  1  0
 42 68  1  0
 42 69  1  0
 43 70  1  0
 43 71  1  0
 43 72  1  0
M  END
$$$$
[H]c1nc(N2C([H])([H])[C@@]3([H])N(C([H])([H])[H])C([H])([H])[C@]2([H])C3([H])[H])c([H])nc1-c1c([H])c([H])c([H])c2c([H])c([H])c([H])c([H])c12
     RDKit          3D

 44 48  0  0  0  0  0  0  0  0999 V2000
   -6.5681   -0.1841   -0.5410 C   0  0  0  0  0  0  0  0  0  0  0  0
   -5.1471    0.0735   -0.5556 N   0  0  0  0  0  0  0  0  0  0  0  0
   -4.3830   -1.1843   -0.5755 C   0  0  0  0  0  0  0  0  0  0  0  0
   -3.3871   -1.0102    0.5607 C   0  0  2  0  0  0  0  0  0  0  0  0
   -4.3301   -0.3009    1.5580 C   0  0  0  0  0  0  0  0  0  0  0  0
   -4.6845    0.8210    0.5630 C   0  0  1  0  0  0  0  0  0  0  0  0
   -3.2629    1.2873    0.2354 C   0  0  0  0  0  0  0  0  0  0  0  0
   -2.4768    0.0718    0.3025 N   0  0  0  0  0  0  0  0  0  0  0  0
   -1.0725    0.0181    0.1367 C   0  0  0  0  0  0  0  0  0  0  0  0
   -0.3973   -1.1808    0.2151 C   0  0  0  0  0  0  0  0  0  0  0  0
    0.9258   -1.2214    0.0585 N   0  0  0  0  0  0  0  0  0  0  0  0
    1.6945   -0.1126   -0.1847 C   0  0  0  0  0  0  0  0  0  0  0  0
    1.0225    1.0613   -0.2621 C   0  0  0  0  0  0  0  0  0  0  0  0
   -0.3305    1.1086   -0.1018 N   0  0  0  0  0  0  0  0  0  0  0  0
    3.0938   -0.3908   -0.4257 C   0  0  0  0  0  0  0  0  0  0  0  0
    3.4186   -1.5323   -1.1966 C   0  0  0  0  0  0  0  0  0  0  0  0
    4.6817   -1.9194   -1.4864 C   0  0  0  0  0  0  0  0  0  0  0  0
    5.7262   -1.1795   -1.0170 C   0  0  0  0  0  0  0  0  0  0  0  0
    5.4468   -0.0494   -0.2511 C   0  0  0  0  0  0  0  0  0  0  0  0
    6.5294    0.6677    0.2439 C   0  0  0  0  0  0  0  0  0  0  0  0
    6.3314    1.7723    1.0356 C   0  0  0  0  0  0  0  0  0  0  0  0
    5.0407    2.1483    1.3258 C   0  0  0  0  0  0  0  0  0  0  0  0
    3.9530    1.4500    0.8433 C   0  0  0  0  0  0  0  0  0  0  0  0
    4.1570    0.3450    0.0459 C   0  0  0  0  0  0  0  0  0  0  0  0
   -6.7198   -1.2847   -0.5906 H   0  0  0  0  0  0  0  0  0  0  0  0
   -7.0368    0.2533    0.3763 H   0  0  0  0  0  0  0  0  0  0  0  0
   -7.0224    0.2483   -1.4566 H   0  0  0  0  0  0  0  0  0  0  0  0
   -5.0817   -1.9793   -0.2659 H   0  0  0  0  0  0  0  0  0  0  0  0
   -3.9039   -1.3418   -1.5438 H   0  0  0  0  0  0  0  0  0  0  0  0
   -2.9688   -1.9165    0.9446 H   0  0  0  0  0  0  0  0  0  0  0  0
   -5.1873   -0.9329    1.7793 H   0  0  0  0  0  0  0  0  0  0  0  0
   -3.7851    0.0821    2.4210 H   0  0  0  0  0  0  0  0  0  0  0  0
   -5.3235    1.5684    0.9643 H   0  0  0  0  0  0  0  0  0  0  0  0
   -3.2319    1.7448   -0.7753 H   0  0  0  0  0  0  0  0  0  0  0  0
   -2.9859    2.0355    0.9807 H   0  0  0  0  0  0  0  0  0  0  0  0
   -1.0062   -2.0628    0.4082 H   0  0  0  0  0  0  0  0  0  0  0  0
    1.5486    1.9989   -0.4961 H   0  0  0  0  0  0  0  0  0  0  0  0
    2.5763   -2.1196   -1.5683 H   0  0  0  0  0  0  0  0  0  0  0  0
    4.8328   -2.8175   -2.0908 H   0  0  0  0  0  0  0  0  0  0  0  0
    6.7498   -1.4365   -1.2163 H   0  0  0  0  0  0  0  0  0  0  0  0
    7.5464    0.3526    0.0029 H   0  0  0  0  0  0  0  0  0  0  0  0
    7.2057    2.3013    1.3984 H   0  0  0  0  0  0  0  0  0  0  0  0
    4.8542    3.0197    1.9528 H   0  0  0  0  0  0  0  0  0  0  0  0
    2.9577    1.7273    1.1151 H   0  0  0  0  0  0  0  0  0  0  0  0
  1  2  1  0
  2  3  1  0
  3  4  1  0
  4  5  1  0
  5  6  1  0
  6  7  1  0
  7  8  1  0
  8  9  1  0
  9 10  2  0
 10 11  1  0
 11 12  2  0
 12 13  1  0
 13 14  2  0
 12 15  1  0
 15 16  2  0
 16 17  1  0
 17 18  2  0
 18 19  1  0
 19 20  2  0
 20 21  1  0
 21 22  2  0
 22 23  1  0
 23 24  2  0
  6  2  1  0
 14  9  1  0
 24 15  1  0
  8  4  1  0
 24 19  1  0
  1 25  1  0
  1 26  1  0
  1 27  1  0
  3 28  1  0
  3 29  1  0
  4 30  1  1
  5 31  1  0
  5 32  1  0
  6 33  1  1
  7 34  1  0
  7 35  1  0
 10 36  1  0
 13 37  1  0
 16 38  1  0
 17 39  1  0
 18 40  1  0
 20 41  1  0
 21 42  1  0
 22 43  1  0
 23 44  1  0
M  END
$$$$
[H]c1nc([H])c(-c2c(OC([H])([H])[H])nc3sc(N([H])C(=O)N([H])C([H])([H])C([H])([H])[H])nc3c2[H])c([H])c1[H]
     RDKit          3D

 38 40  0  0  0  0  0  0  0  0999 V2000
    7.0706   -0.1519   -0.2877 C   0  0  0  0  0  0  0  0  0  0  0  0
    6.8513    0.9294    0.7447 C   0  0  0  0  0  0  0  0  0  0  0  0
    5.5956    1.5922    0.5073 N   0  0  0  0  0  0  0  0  0  0  0  0
    4.3910    0.8535    0.5381 C   0  0  0  0  0  0  0  0  0  0  0  0
    4.4399   -0.3822    0.7749 O   0  0  0  0  0  0  0  0  0  0  0  0
    3.1876    1.5457    0.2998 N   0  0  0  0  0  0  0  0  0  0  0  0
    1.9416    0.8231    0.3239 C   0  0  0  0  0  0  0  0  0  0  0  0
    0.7405    1.3097    0.1245 N   0  0  0  0  0  0  0  0  0  0  0  0
   -0.3021    0.5185    0.1797 C   0  0  0  0  0  0  0  0  0  0  0  0
   -1.6641    0.8588   -0.0065 C   0  0  0  0  0  0  0  0  0  0  0  0
   -2.6213   -0.1036    0.0887 C   0  0  0  0  0  0  0  0  0  0  0  0
   -4.0191    0.2896   -0.1047 C   0  0  0  0  0  0  0  0  0  0  0  0
   -4.4600    1.0721   -1.1502 C   0  0  0  0  0  0  0  0  0  0  0  0
   -5.8131    1.4033   -1.2514 C   0  0  0  0  0  0  0  0  0  0  0  0
   -6.7262    0.9610   -0.3202 C   0  0  0  0  0  0  0  0  0  0  0  0
   -6.2727    0.2017    0.6871 N   0  0  0  0  0  0  0  0  0  0  0  0
   -4.9581   -0.1291    0.7991 C   0  0  0  0  0  0  0  0  0  0  0  0
   -2.3624   -1.4408    0.3632 C   0  0  0  0  0  0  0  0  0  0  0  0
   -3.3417   -2.3940    0.4538 O   0  0  0  0  0  0  0  0  0  0  0  0
   -3.1443   -3.7424    0.7249 C   0  0  0  0  0  0  0  0  0  0  0  0
   -1.0692   -1.7402    0.5357 N   0  0  0  0  0  0  0  0  0  0  0  0
   -0.0721   -0.8029    0.4490 C   0  0  0  0  0  0  0  0  0  0  0  0
    1.6357   -0.8290    0.6072 S   0  0  0  0  0  0  0  0  0  0  0  0
    7.9799    0.0958   -0.8766 H   0  0  0  0  0  0  0  0  0  0  0  0
    6.2211   -0.1516   -0.9981 H   0  0  0  0  0  0  0  0  0  0  0  0
    7.1270   -1.1576    0.1494 H   0  0  0  0  0  0  0  0  0  0  0  0
    7.6991    1.6342    0.7970 H   0  0  0  0  0  0  0  0  0  0  0  0
    6.8476    0.4078    1.7465 H   0  0  0  0  0  0  0  0  0  0  0  0
    5.6297    2.6190    0.3172 H   0  0  0  0  0  0  0  0  0  0  0  0
    3.1668    2.5428    0.1104 H   0  0  0  0  0  0  0  0  0  0  0  0
   -1.9446    1.8817   -0.2240 H   0  0  0  0  0  0  0  0  0  0  0  0
   -3.7694    1.4209   -1.8759 H   0  0  0  0  0  0  0  0  0  0  0  0
   -6.1877    2.0153   -2.0604 H   0  0  0  0  0  0  0  0  0  0  0  0
   -7.7890    1.2280   -0.4101 H   0  0  0  0  0  0  0  0  0  0  0  0
   -4.6831   -0.7456    1.6515 H   0  0  0  0  0  0  0  0  0  0  0  0
   -2.0711   -3.9882    0.7353 H   0  0  0  0  0  0  0  0  0  0  0  0
   -3.5866   -4.0703    1.7019 H   0  0  0  0  0  0  0  0  0  0  0  0
   -3.6673   -4.3750   -0.0463 H   0  0  0  0  0  0  0  0  0  0  0  0
  1  2  1  0
  2  3  1  0
  3  4  1  0
  4  5  2  0
  4  6  1  0
  6  7  1  0
  7  8  2  0
  8  9  1  0
  9 10  2  0
 10 11  1  0
 11 12  1  0
 12 13  2  0
 13 14  1  0
 14 15  2  0
 15 16  1  0
 16 17  2  0
 11 18  2  0
 18 19  1  0
 19 20  1  0
 18 21  1  0
 21 22  2  0
 22 23  1  0
 23  7  1  0
 22  9  1  0
 17 12  1  0
  1 24  1  0
  1 25  1  0
  1 26  1  0
  2 27  1  0
  2 28  1  0
  3 29  1  0
  6 30  1  0
 10 31  1  0
 13 32  1  0
 14 33  1  0
 15 34  1  0
 17 35  1  0
 20 36  1  0
 20 37  1  0
 20 38  1  0
M  END
$$$$
[H]c1c([H])c([H])c(C2=NC([H])([H])C(=O)N(C([H])([H])[H])c3c([H])c([H])c(Cl)c([H])c32)c(F)c1[H]
     RDKit          3D

 33 35  0  0  0  0  0  0  0  0999 V2000
    3.6785   -0.9548    0.8508 C   0  0  0  0  0  0  0  0  0  0  0  0
    2.4753   -0.9741    0.0853 N   0  0  0  0  0  0  0  0  0  0  0  0
    1.8307    0.2941   -0.0692 C   0  0  0  0  0  0  0  0  0  0  0  0
    2.7108    1.3609   -0.0624 C   0  0  0  0  0  0  0  0  0  0  0  0
    2.2212    2.6153   -0.3191 C   0  0  0  0  0  0  0  0  0  0  0  0
    0.8708    2.7820   -0.5783 C   0  0  0  0  0  0  0  0  0  0  0  0
    0.2275    4.3728   -0.9027 Cl  0  0  0  0  0  0  0  0  0  0  0  0
   -0.0097    1.7401   -0.5882 C   0  0  0  0  0  0  0  0  0  0  0  0
    0.4934    0.4632   -0.3196 C   0  0  0  0  0  0  0  0  0  0  0  0
   -0.5724   -0.5031   -0.3100 C   0  0  0  0  0  0  0  0  0  0  0  0
   -0.3880   -1.7232   -0.8006 N   0  0  0  0  0  0  0  0  0  0  0  0
    0.7829   -2.3322   -1.3892 C   0  0  0  0  0  0  0  0  0  0  0  0
    1.9782   -2.1792   -0.5031 C   0  0  0  0  0  0  0  0  0  0  0  0
    2.6239   -3.2090   -0.2394 O   0  0  0  0  0  0  0  0  0  0  0  0
   -1.8820   -0.2175    0.2046 C   0  0  0  0  0  0  0  0  0  0  0  0
   -2.2960    0.8575    0.9018 C   0  0  0  0  0  0  0  0  0  0  0  0
   -3.6191    1.0982    1.2725 C   0  0  0  0  0  0  0  0  0  0  0  0
   -4.6025    0.2046    0.9282 C   0  0  0  0  0  0  0  0  0  0  0  0
   -4.2256   -0.9083    0.2193 C   0  0  0  0  0  0  0  0  0  0  0  0
   -2.9099   -1.1255   -0.1382 C   0  0  0  0  0  0  0  0  0  0  0  0
   -2.5397   -2.2265   -0.8395 F   0  0  0  0  0  0  0  0  0  0  0  0
    3.7906   -1.9395    1.3435 H   0  0  0  0  0  0  0  0  0  0  0  0
    3.6294   -0.2156    1.6977 H   0  0  0  0  0  0  0  0  0  0  0  0
    4.5952   -0.7992    0.2404 H   0  0  0  0  0  0  0  0  0  0  0  0
    3.7334    1.1117    0.1527 H   0  0  0  0  0  0  0  0  0  0  0  0
    2.9068    3.4457   -0.3123 H   0  0  0  0  0  0  0  0  0  0  0  0
   -1.0395    1.8419   -0.8432 H   0  0  0  0  0  0  0  0  0  0  0  0
    0.6222   -3.3981   -1.6173 H   0  0  0  0  0  0  0  0  0  0  0  0
    1.0153   -1.8117   -2.3326 H   0  0  0  0  0  0  0  0  0  0  0  0
   -1.5680    1.5726    1.2725 H   0  0  0  0  0  0  0  0  0  0  0  0
   -3.9017    1.9750    1.8287 H   0  0  0  0  0  0  0  0  0  0  0  0
   -5.6331    0.3986    1.2206 H   0  0  0  0  0  0  0  0  0  0  0  0
   -4.9989   -1.6169   -0.0534 H   0  0  0  0  0  0  0  0  0  0  0  0
  1  2  1  0
  2  3  1  0
  3  4  2  0
  4  5  1  0
  5  6  2  0
  6  7  1  0
  6  8  1  0
  8  9  2  0
  9 10  1  0
 10 11  2  0
 11 12  1  0
 12 13  1  0
 13 14  2  0
 10 15  1  0
 15 16  2  0
 16 17  1  0
 17 18  2  0
 18 19  1  0
 19 20  2  0
 20 21  1  0
 13  2  1  0
 20 15  1  0
  9  3  1  0
  1 22  1  0
  1 23  1  0
  1 24  1  0
  4 25  1  0
  5 26  1  0
  8 27  1  0
 12 28  1  0
 12 29  1  0
 16 30  1  0
 17 31  1  0
 18 32  1  0
 19 33  1  0
M  END
$$$$
[H]N=C(N([H])[H])N([H])C([H])([H])C([H])([H])C([H])([H])[C@@]([H])(C(=O)c1nc2c([H])c([H])c([H])c([H])c2s1)N([H])C(=O)[C@@]([H])(N([H])C(=O)[C@@]([H])(N([H])[H])C([H])([H])c1c([H])c([H])c([H])c([H])c1[H])C([H])([H])c1c([H])c([H])c([H])c([H])c1[H]
     RDKit          3D

 77 80  0  0  0  0  0  0  0  0999 V2000
    5.3531   -1.9969    2.0147 N   0  0  0  0  0  0  0  0  0  0  0  0
    4.7453   -1.3282    0.8797 C   0  0  1  0  0  0  0  0  0  0  0  0
    4.3411   -2.4313   -0.0900 C   0  0  0  0  0  0  0  0  0  0  0  0
    5.5631   -3.1793   -0.4609 C   0  0  0  0  0  0  0  0  0  0  0  0
    6.3387   -2.8015   -1.5389 C   0  0  0  0  0  0  0  0  0  0  0  0
    7.4752   -3.5088   -1.9005 C   0  0  0  0  0  0  0  0  0  0  0  0
    7.8573   -4.6151   -1.1821 C   0  0  0  0  0  0  0  0  0  0  0  0
    7.1142   -5.0329   -0.0942 C   0  0  0  0  0  0  0  0  0  0  0  0
    5.9722   -4.2961    0.2434 C   0  0  0  0  0  0  0  0  0  0  0  0
    3.5258   -0.6036    1.3622 C   0  0  0  0  0  0  0  0  0  0  0  0
    3.2050   -0.7525    2.5687 O   0  0  0  0  0  0  0  0  0  0  0  0
    2.7324    0.2216    0.5404 N   0  0  0  0  0  0  0  0  0  0  0  0
    1.5824    0.8605    1.0695 C   0  0  1  0  0  0  0  0  0  0  0  0
    1.7281    2.3520    1.2084 C   0  0  0  0  0  0  0  0  0  0  0  0
    2.0184    3.0798   -0.0244 C   0  0  0  0  0  0  0  0  0  0  0  0
    1.1301    3.5494   -0.9279 C   0  0  0  0  0  0  0  0  0  0  0  0
    1.5498    4.2322   -2.0490 C   0  0  0  0  0  0  0  0  0  0  0  0
    2.9071    4.4698   -2.3030 C   0  0  0  0  0  0  0  0  0  0  0  0
    3.8047    3.9914   -1.3831 C   0  0  0  0  0  0  0  0  0  0  0  0
    3.3774    3.3154   -0.2748 C   0  0  0  0  0  0  0  0  0  0  0  0
    0.3150    0.5798    0.3140 C   0  0  0  0  0  0  0  0  0  0  0  0
    0.4332    0.1368   -0.8540 O   0  0  0  0  0  0  0  0  0  0  0  0
   -0.9422    0.7946    0.8759 N   0  0  0  0  0  0  0  0  0  0  0  0
   -2.1592    0.5231    0.1018 C   0  0  1  0  0  0  0  0  0  0  0  0
   -2.5495   -0.9451    0.5078 C   0  0  0  0  0  0  0  0  0  0  0  0
   -3.7815   -1.3589   -0.1909 C   0  0  0  0  0  0  0  0  0  0  0  0
   -4.2564   -2.7569    0.0396 C   0  0  0  0  0  0  0  0  0  0  0  0
   -4.5739   -3.1377    1.3679 N   0  0  0  0  0  0  0  0  0  0  0  0
   -3.5985   -3.3093    2.3652 C   0  0  0  0  0  0  0  0  0  0  0  0
   -3.7671   -2.8454    3.6904 N   0  0  0  0  0  0  0  0  0  0  0  0
   -2.5047   -3.9314    2.0507 N   0  0  0  0  0  0  0  0  0  0  0  0
   -3.2080    1.3725    0.6233 C   0  0  0  0  0  0  0  0  0  0  0  0
   -3.1863    1.6757    1.8686 O   0  0  0  0  0  0  0  0  0  0  0  0
   -4.3058    1.9168   -0.1957 C   0  0  0  0  0  0  0  0  0  0  0  0
   -5.3023    2.6931    0.1933 N   0  0  0  0  0  0  0  0  0  0  0  0
   -6.1904    3.0977   -0.6567 C   0  0  0  0  0  0  0  0  0  0  0  0
   -7.2859    3.9325   -0.3556 C   0  0  0  0  0  0  0  0  0  0  0  0
   -8.1595    4.3111   -1.3159 C   0  0  0  0  0  0  0  0  0  0  0  0
   -8.0424    3.9170   -2.6229 C   0  0  0  0  0  0  0  0  0  0  0  0
   -6.9867    3.1042   -2.9465 C   0  0  0  0  0  0  0  0  0  0  0  0
   -6.0621    2.6967   -1.9604 C   0  0  0  0  0  0  0  0  0  0  0  0
   -4.6485    1.7468   -1.8772 S   0  0  0  0  0  0  0  0  0  0  0  0
    4.7409   -2.0739    2.8447 H   0  0  0  0  0  0  0  0  0  0  0  0
    6.2000   -1.4659    2.2735 H   0  0  0  0  0  0  0  0  0  0  0  0
    5.4015   -0.6418    0.3459 H   0  0  0  0  0  0  0  0  0  0  0  0
    3.5720   -3.1061    0.3553 H   0  0  0  0  0  0  0  0  0  0  0  0
    3.9214   -1.9835   -1.0171 H   0  0  0  0  0  0  0  0  0  0  0  0
    6.1015   -1.9451   -2.1469 H   0  0  0  0  0  0  0  0  0  0  0  0
    8.1062   -3.2296   -2.7511 H   0  0  0  0  0  0  0  0  0  0  0  0
    8.7535   -5.2019   -1.4472 H   0  0  0  0  0  0  0  0  0  0  0  0
    7.4339   -5.8970    0.4498 H   0  0  0  0  0  0  0  0  0  0  0  0
    5.3842   -4.6157    1.0857 H   0  0  0  0  0  0  0  0  0  0  0  0
    2.9930    0.3609   -0.4607 H   0  0  0  0  0  0  0  0  0  0  0  0
    1.4049    0.4932    2.0966 H   0  0  0  0  0  0  0  0  0  0  0  0
    0.7493    2.7388    1.5949 H   0  0  0  0  0  0  0  0  0  0  0  0
    2.4773    2.5548    1.9900 H   0  0  0  0  0  0  0  0  0  0  0  0
    0.0937    3.3940   -0.7800 H   0  0  0  0  0  0  0  0  0  0  0  0
    0.8192    4.6083   -2.7810 H   0  0  0  0  0  0  0  0  0  0  0  0
    3.2341    5.0143   -3.2040 H   0  0  0  0  0  0  0  0  0  0  0  0
    4.8533    4.1882   -1.5972 H   0  0  0  0  0  0  0  0  0  0  0  0
    4.1621    2.9688    0.4065 H   0  0  0  0  0  0  0  0  0  0  0  0
   -1.0336    1.1416    1.8452 H   0  0  0  0  0  0  0  0  0  0  0  0
   -1.9583    0.5219   -0.9634 H   0  0  0  0  0  0  0  0  0  0  0  0
   -2.6900   -0.9602    1.6003 H   0  0  0  0  0  0  0  0  0  0  0  0
   -1.6934   -1.5986    0.2462 H   0  0  0  0  0  0  0  0  0  0  0  0
   -3.6422   -1.2210   -1.2946 H   0  0  0  0  0  0  0  0  0  0  0  0
   -4.6375   -0.6840    0.1483 H   0  0  0  0  0  0  0  0  0  0  0  0
   -3.5322   -3.4854   -0.4356 H   0  0  0  0  0  0  0  0  0  0  0  0
   -5.1907   -2.8951   -0.5699 H   0  0  0  0  0  0  0  0  0  0  0  0
   -5.5829   -3.3148    1.6869 H   0  0  0  0  0  0  0  0  0  0  0  0
   -4.3372   -1.9926    3.8833 H   0  0  0  0  0  0  0  0  0  0  0  0
   -3.3300   -3.3418    4.4956 H   0  0  0  0  0  0  0  0  0  0  0  0
   -2.3169   -4.3056    1.1040 H   0  0  0  0  0  0  0  0  0  0  0  0
   -7.4599    4.2945    0.6576 H   0  0  0  0  0  0  0  0  0  0  0  0
   -9.0111    4.9699   -1.0430 H   0  0  0  0  0  0  0  0  0  0  0  0
   -8.7384    4.2332   -3.3533 H   0  0  0  0  0  0  0  0  0  0  0  0
   -6.8062    2.7377   -3.9461 H   0  0  0  0  0  0  0  0  0  0  0  0
  1  2  1  0
  2  3  1  0
  3  4  1  0
  4  5  2  0
  5  6  1  0
  6  7  2  0
  7  8  1  0
  8  9  2  0
  2 10  1  0
 10 11  2  0
 10 12  1  0
 12 13  1  0
 13 14  1  0
 14 15  1  0
 15 16  2  0
 16 17  1  0
 17 18  2  0
 18 19  1  0
 19 20  2  0
 13 21  1  0
 21 22  2  0
 21 23  1  0
 23 24  1  0
 24 25  1  0
 25 26  1  0
 26 27  1  0
 27 28  1  0
 28 29  1  0
 29 30  1  0
 29 31  2  3
 24 32  1  0
 32 33  2  0
 32 34  1  0
 34 35  2  0
 35 36  1  0
 36 37  2  0
 37 38  1  0
 38 39  2  0
 39 40  1  0
 40 41  2  0
 41 42  1  0
  9  4  1  0
 20 15  1  0
 42 34  1  0
 41 36  1  0
  1 43  1  0
  1 44  1  0
  2 45  1  6
  3 46  1  0
  3 47  1  0
  5 48  1  0
  6 49  1  0
  7 50  1  0
  8 51  1  0
  9 52  1  0
 12 53  1  0
 13 54  1  1
 14 55  1  0
 14 56  1  0
 16 57  1  0
 17 58  1  0
 18 59  1  0
 19 60  1  0
 20 61  1  0
 23 62  1  0
 24 63  1  6
 25 64  1  0
 25 65  1  0
 26 66  1  0
 26 67  1  0
 27 68  1  0
 27 69  1  0
 28 70  1  0
 30 71  1  0
 30 72  1  0
 31 73  1  0
 37 74  1  0
 38 75  1  0
 39 76  1  0
 40 77  1  0
M  END
$$$$
[H]OC(=O)c1c([H])c([H])c(-c2c([H])c(C([H])([H])[H])c(C#N)c(C([H])([H])[H])c2[H])c([H])c1[H]
     RDKit          3D

 32 33  0  0  0  0  0  0  0  0999 V2000
   -2.8449   -1.3409    2.5577 C   0  0  0  0  0  0  0  0  0  0  0  0
   -2.2941   -0.6558    1.3711 C   0  0  0  0  0  0  0  0  0  0  0  0
   -0.9038   -0.6125    1.1890 C   0  0  0  0  0  0  0  0  0  0  0  0
   -0.3520    0.0134    0.1014 C   0  0  0  0  0  0  0  0  0  0  0  0
   -1.1599    0.6113   -0.8323 C   0  0  0  0  0  0  0  0  0  0  0  0
   -2.5560    0.5938   -0.6928 C   0  0  0  0  0  0  0  0  0  0  0  0
   -3.4231    1.2375   -1.6981 C   0  0  0  0  0  0  0  0  0  0  0  0
   -3.0703   -0.0425    0.4093 C   0  0  0  0  0  0  0  0  0  0  0  0
   -4.4995   -0.0871    0.5966 C   0  0  0  0  0  0  0  0  0  0  0  0
   -5.6452   -0.1251    0.7360 N   0  0  0  0  0  0  0  0  0  0  0  0
    1.0813    0.0472   -0.0681 C   0  0  0  0  0  0  0  0  0  0  0  0
    1.6505    0.0613   -1.3279 C   0  0  0  0  0  0  0  0  0  0  0  0
    3.0141    0.0935   -1.4592 C   0  0  0  0  0  0  0  0  0  0  0  0
    3.8481    0.1125   -0.3618 C   0  0  0  0  0  0  0  0  0  0  0  0
    3.2665    0.0981    0.8749 C   0  0  0  0  0  0  0  0  0  0  0  0
    1.8997    0.0659    1.0410 C   0  0  0  0  0  0  0  0  0  0  0  0
    5.2905    0.1466   -0.5605 C   0  0  0  0  0  0  0  0  0  0  0  0
    5.8195    0.1597   -1.8397 O   0  0  0  0  0  0  0  0  0  0  0  0
    6.0806    0.1646    0.4144 O   0  0  0  0  0  0  0  0  0  0  0  0
   -2.3023   -0.9393    3.4438 H   0  0  0  0  0  0  0  0  0  0  0  0
   -2.5993   -2.4126    2.5054 H   0  0  0  0  0  0  0  0  0  0  0  0
   -3.9097   -1.1336    2.6700 H   0  0  0  0  0  0  0  0  0  0  0  0
   -0.2603   -1.0720    1.9050 H   0  0  0  0  0  0  0  0  0  0  0  0
   -0.7710    1.1185   -1.7091 H   0  0  0  0  0  0  0  0  0  0  0  0
   -4.3835    1.5791   -1.2632 H   0  0  0  0  0  0  0  0  0  0  0  0
   -2.9130    2.1132   -2.1520 H   0  0  0  0  0  0  0  0  0  0  0  0
   -3.6615    0.5539   -2.5533 H   0  0  0  0  0  0  0  0  0  0  0  0
    0.9837    0.0462   -2.1845 H   0  0  0  0  0  0  0  0  0  0  0  0
    3.4789    0.1051   -2.4524 H   0  0  0  0  0  0  0  0  0  0  0  0
    3.9423    0.1135    1.7346 H   0  0  0  0  0  0  0  0  0  0  0  0
    1.4604    0.0549    2.0455 H   0  0  0  0  0  0  0  0  0  0  0  0
    5.7335   -0.6685   -2.4412 H   0  0  0  0  0  0  0  0  0  0  0  0
  1  2  1  0
  2  3  2  0
  3  4  1  0
  4  5  2  0
  5  6  1  0
  6  7  1  0
  6  8  2  0
  8  9  1  0
  9 10  3  0
  4 11  1  0
 11 12  2  0
 12 13  1  0
 13 14  2  0
 14 15  1  0
 15 16  2  0
 14 17  1  0
 17 18  1  0
 17 19  2  0
  8  2  1  0
 16 11  1  0
  1 20  1  0
  1 21  1  0
  1 22  1  0
  3 23  1  0
  5 24  1  0
  7 25  1  0
  7 26  1  0
  7 27  1  0
 12 28  1  0
 13 29  1  0
 15 30  1  0
 16 31  1  0
 18 32  1  0
M  END
$$$$
[H]c1nc(N([H])c2c([H])c(OC([H])([H])[H])c([H])c(OC([H])([H])[H])c2[H])nc(N([H])c2nc3c(c([H])c2[H])OC(C([H])([H])[H])(C([H])([H])[H])C(=O)N3[H])c1F
     RDKit          3D

 53 56  0  0  0  0  0  0  0  0999 V2000
   -4.9384    4.5871    0.3441 C   0  0  0  0  0  0  0  0  0  0  0  0
   -5.9036    3.6236    0.7021 O   0  0  0  0  0  0  0  0  0  0  0  0
   -5.5889    2.2856    0.8344 C   0  0  0  0  0  0  0  0  0  0  0  0
   -4.3226    1.8411    0.6223 C   0  0  0  0  0  0  0  0  0  0  0  0
   -3.9264    0.4959    0.7377 C   0  0  0  0  0  0  0  0  0  0  0  0
   -2.5863    0.1773    0.4687 N   0  0  0  0  0  0  0  0  0  0  0  0
   -1.8465   -0.9663    0.8186 C   0  0  0  0  0  0  0  0  0  0  0  0
   -2.3975   -1.9622    1.5248 N   0  0  0  0  0  0  0  0  0  0  0  0
   -1.7469   -3.0572    1.8790 C   0  0  0  0  0  0  0  0  0  0  0  0
   -0.4354   -3.1992    1.5125 C   0  0  0  0  0  0  0  0  0  0  0  0
    0.3107   -4.2770    1.8255 F   0  0  0  0  0  0  0  0  0  0  0  0
    0.1630   -2.1615    0.7685 C   0  0  0  0  0  0  0  0  0  0  0  0
    1.5114   -2.3254    0.4009 N   0  0  0  0  0  0  0  0  0  0  0  0
    2.3152   -1.4341   -0.3358 C   0  0  0  0  0  0  0  0  0  0  0  0
    1.9075   -0.2256   -0.8309 C   0  0  0  0  0  0  0  0  0  0  0  0
    2.7894    0.5875   -1.5533 C   0  0  0  0  0  0  0  0  0  0  0  0
    4.0656    0.1232   -1.7401 C   0  0  0  0  0  0  0  0  0  0  0  0
    4.9423    0.9309   -2.4580 O   0  0  0  0  0  0  0  0  0  0  0  0
    6.3272    0.7031   -2.4399 C   0  0  0  0  0  0  0  0  0  0  0  0
    6.9566    1.5377   -1.3415 C   0  0  0  0  0  0  0  0  0  0  0  0
    6.9310    1.0935   -3.7893 C   0  0  0  0  0  0  0  0  0  0  0  0
    6.6675   -0.7021   -2.1844 C   0  0  0  0  0  0  0  0  0  0  0  0
    7.7650   -1.1390   -2.6398 O   0  0  0  0  0  0  0  0  0  0  0  0
    5.7900   -1.5441   -1.4483 N   0  0  0  0  0  0  0  0  0  0  0  0
    4.4451   -1.1060   -1.2247 C   0  0  0  0  0  0  0  0  0  0  0  0
    3.6025   -1.8518   -0.5506 N   0  0  0  0  0  0  0  0  0  0  0  0
   -0.5447   -1.0985    0.4502 N   0  0  0  0  0  0  0  0  0  0  0  0
   -4.9199   -0.3685    1.0862 C   0  0  0  0  0  0  0  0  0  0  0  0
   -6.2399    0.0186    1.3192 C   0  0  0  0  0  0  0  0  0  0  0  0
   -7.2259   -0.8806    1.6720 O   0  0  0  0  0  0  0  0  0  0  0  0
   -6.8893   -2.2563    1.8048 C   0  0  0  0  0  0  0  0  0  0  0  0
   -6.5418    1.3548    1.1846 C   0  0  0  0  0  0  0  0  0  0  0  0
   -4.7078    4.4935   -0.7379 H   0  0  0  0  0  0  0  0  0  0  0  0
   -4.0184    4.5049    0.9781 H   0  0  0  0  0  0  0  0  0  0  0  0
   -5.3363    5.6099    0.4864 H   0  0  0  0  0  0  0  0  0  0  0  0
   -3.5495    2.5623    0.3448 H   0  0  0  0  0  0  0  0  0  0  0  0
   -2.0163    0.9049   -0.0976 H   0  0  0  0  0  0  0  0  0  0  0  0
   -2.2257   -3.8432    2.4511 H   0  0  0  0  0  0  0  0  0  0  0  0
    2.0107   -3.2454    0.7146 H   0  0  0  0  0  0  0  0  0  0  0  0
    0.9075    0.1573   -0.6945 H   0  0  0  0  0  0  0  0  0  0  0  0
    2.4413    1.5383   -1.9337 H   0  0  0  0  0  0  0  0  0  0  0  0
    7.8868    1.0394   -0.9542 H   0  0  0  0  0  0  0  0  0  0  0  0
    6.2388    1.5550   -0.4897 H   0  0  0  0  0  0  0  0  0  0  0  0
    7.2053    2.5599   -1.6895 H   0  0  0  0  0  0  0  0  0  0  0  0
    7.8181    0.4658   -3.9460 H   0  0  0  0  0  0  0  0  0  0  0  0
    6.1955    0.8662   -4.5692 H   0  0  0  0  0  0  0  0  0  0  0  0
    7.2019    2.1765   -3.7706 H   0  0  0  0  0  0  0  0  0  0  0  0
    6.1413   -2.4611   -1.0867 H   0  0  0  0  0  0  0  0  0  0  0  0
   -4.7034   -1.4170    1.1820 H   0  0  0  0  0  0  0  0  0  0  0  0
   -6.1664   -2.4069    2.6422 H   0  0  0  0  0  0  0  0  0  0  0  0
   -7.7938   -2.8627    1.9604 H   0  0  0  0  0  0  0  0  0  0  0  0
   -6.3934   -2.6479    0.8929 H   0  0  0  0  0  0  0  0  0  0  0  0
   -7.5721    1.6458    1.3680 H   0  0  0  0  0  0  0  0  0  0  0  0
  1  2  1  0
  2  3  1  0
  3  4  2  0
  4  5  1  0
  5  6  1  0
  6  7  1  0
  7  8  2  0
  8  9  1  0
  9 10  2  0
 10 11  1  0
 10 12  1  0
 12 13  1  0
 13 14  1  0
 14 15  2  0
 15 16  1  0
 16 17  2  0
 17 18  1  0
 18 19  1  0
 19 20  1  0
 19 21  1  0
 19 22  1  0
 22 23  2  0
 22 24  1  0
 24 25  1  0
 25 26  2  0
 12 27  2  0
  5 28  2  0
 28 29  1  0
 29 30  1  0
 30 31  1  0
 29 32  2  0
 32  3  1  0
 27  7  1  0
 26 14  1  0
 25 17  1  0
  1 33  1  0
  1 34  1  0
  1 35  1  0
  4 36  1  0
  6 37  1  0
  9 38  1  0
 13 39  1  0
 15 40  1  0
 16 41  1  0
 20 42  1  0
 20 43  1  0
 20 44  1  0
 21 45  1  0
 21 46  1  0
 21 47  1  0
 24 48  1  0
 28 49  1  0
 31 50  1  0
 31 51  1  0
 31 52  1  0
 32 53  1  0
M  END
$$$$
[H]C([H])=C([H])C(=O)N([H])c1sc(N([H])c2c([H])c([H])c3c([H])c([H])c([H])c([H])c3c2[H])nc1C(=O)N([H])[H]
     RDKit          3D

 38 40  0  0  0  0  0  0  0  0999 V2000
    1.5299   -3.6137   -0.5782 N   0  0  0  0  0  0  0  0  0  0  0  0
    2.5705   -2.6307   -0.4970 C   0  0  0  0  0  0  0  0  0  0  0  0
    3.7316   -3.0695   -0.6179 O   0  0  0  0  0  0  0  0  0  0  0  0
    2.2751   -1.1945   -0.2838 C   0  0  0  0  0  0  0  0  0  0  0  0
    1.0512   -0.7838   -0.1636 N   0  0  0  0  0  0  0  0  0  0  0  0
    0.7479    0.4608    0.0236 C   0  0  0  0  0  0  0  0  0  0  0  0
   -0.4758    1.1658    0.1843 N   0  0  0  0  0  0  0  0  0  0  0  0
   -1.7732    0.6383    0.1792 C   0  0  0  0  0  0  0  0  0  0  0  0
   -2.0837   -0.6877    0.0126 C   0  0  0  0  0  0  0  0  0  0  0  0
   -3.4003   -1.1562    0.0166 C   0  0  0  0  0  0  0  0  0  0  0  0
   -4.4560   -0.2953    0.1903 C   0  0  0  0  0  0  0  0  0  0  0  0
   -5.7676   -0.7439    0.1968 C   0  0  0  0  0  0  0  0  0  0  0  0
   -6.8306    0.1131    0.3704 C   0  0  0  0  0  0  0  0  0  0  0  0
   -6.5472    1.4439    0.5391 C   0  0  0  0  0  0  0  0  0  0  0  0
   -5.2471    1.8992    0.5341 C   0  0  0  0  0  0  0  0  0  0  0  0
   -4.1778    1.0426    0.3602 C   0  0  0  0  0  0  0  0  0  0  0  0
   -2.8787    1.4820    0.3531 C   0  0  0  0  0  0  0  0  0  0  0  0
    2.3284    1.1816    0.0406 S   0  0  0  0  0  0  0  0  0  0  0  0
    3.2614   -0.2603   -0.2065 C   0  0  0  0  0  0  0  0  0  0  0  0
    4.6777   -0.3104   -0.2870 N   0  0  0  0  0  0  0  0  0  0  0  0
    5.4589    0.8656   -0.1657 C   0  0  0  0  0  0  0  0  0  0  0  0
    4.8842    1.9608    0.0150 O   0  0  0  0  0  0  0  0  0  0  0  0
    6.9043    0.8366   -0.2448 C   0  0  0  0  0  0  0  0  0  0  0  0
    7.6231    1.9311   -0.1315 C   0  0  0  0  0  0  0  0  0  0  0  0
    1.1403   -3.9890    0.3018 H   0  0  0  0  0  0  0  0  0  0  0  0
    1.1549   -3.9609   -1.4859 H   0  0  0  0  0  0  0  0  0  0  0  0
   -0.3857    2.2181    0.3246 H   0  0  0  0  0  0  0  0  0  0  0  0
   -1.3004   -1.4145   -0.1284 H   0  0  0  0  0  0  0  0  0  0  0  0
   -3.6056   -2.2059   -0.1174 H   0  0  0  0  0  0  0  0  0  0  0  0
   -5.9473   -1.8016    0.0604 H   0  0  0  0  0  0  0  0  0  0  0  0
   -7.8398   -0.2863    0.3680 H   0  0  0  0  0  0  0  0  0  0  0  0
   -7.3721    2.1561    0.6803 H   0  0  0  0  0  0  0  0  0  0  0  0
   -5.0469    2.9509    0.6686 H   0  0  0  0  0  0  0  0  0  0  0  0
   -2.6554    2.5412    0.4875 H   0  0  0  0  0  0  0  0  0  0  0  0
    5.1690   -1.1975   -0.4347 H   0  0  0  0  0  0  0  0  0  0  0  0
    7.4170   -0.1063   -0.4013 H   0  0  0  0  0  0  0  0  0  0  0  0
    8.6964    1.9127   -0.1898 H   0  0  0  0  0  0  0  0  0  0  0  0
    7.1696    2.9077    0.0265 H   0  0  0  0  0  0  0  0  0  0  0  0
  1  2  1  0
  2  3  2  0
  2  4  1  0
  4  5  1  0
  5  6  2  0
  6  7  1  0
  7  8  1  0
  8  9  2  0
  9 10  1  0
 10 11  2  0
 11 12  1  0
 12 13  2  0
 13 14  1  0
 14 15  2  0
 15 16  1  0
 16 17  2  0
  6 18  1  0
 18 19  1  0
 19 20  1  0
 20 21  1  0
 21 22  2  0
 21 23  1  0
 23 24  2  3
 19  4  2  0
 17  8  1  0
 16 11  1  0
  1 25  1  0
  1 26  1  0
  7 27  1  0
  9 28  1  0
 10 29  1  0
 12 30  1  0
 13 31  1  0
 14 32  1  0
 15 33  1  0
 17 34  1  0
 20 35  1  0
 23 36  1  0
 24 37  1  0
 24 38  1  0
M  END
$$$$
[H]c1nc(N([H])c2c([H])c([H])c(N3C([H])([H])C([H])([H])N(C([H])([H])[H])C([H])([H])C3([H])[H])c([H])c2OC([H])([H])[H])nc2c1N(C([H])([H])[H])C(=O)[C@@]([H])(C([H])([H])C([H])([H])[H])N2C1([H])C([H])([H])C([H])([H])C([H])([H])C1([H])[H]
     RDKit          3D

 72 76  0  0  0  0  0  0  0  0999 V2000
   -6.9973    3.5156    0.6660 C   0  0  0  0  0  0  0  0  0  0  0  0
   -6.3707    2.1019    0.7381 C   0  0  0  0  0  0  0  0  0  0  0  0
   -4.9936    2.1697    0.1922 C   0  0  1  0  0  0  0  0  0  0  0  0
   -4.2302    0.9479    0.1917 N   0  0  0  0  0  0  0  0  0  0  0  0
   -4.7400   -0.3141    0.6447 C   0  0  0  0  0  0  0  0  0  0  0  0
   -3.8152   -1.4639    0.6263 C   0  0  0  0  0  0  0  0  0  0  0  0
   -4.8447   -2.6217    0.7862 C   0  0  0  0  0  0  0  0  0  0  0  0
   -5.6322   -2.2904   -0.4961 C   0  0  0  0  0  0  0  0  0  0  0  0
   -5.9046   -0.8045   -0.2134 C   0  0  0  0  0  0  0  0  0  0  0  0
   -2.8716    1.0675   -0.3160 C   0  0  0  0  0  0  0  0  0  0  0  0
   -1.9574    0.2626    0.2091 N   0  0  0  0  0  0  0  0  0  0  0  0
   -0.6591    0.3678   -0.2631 C   0  0  0  0  0  0  0  0  0  0  0  0
    0.2492   -0.5166    0.3529 N   0  0  0  0  0  0  0  0  0  0  0  0
    1.6133   -0.6280    0.0690 C   0  0  0  0  0  0  0  0  0  0  0  0
    2.3072    0.0615   -0.8870 C   0  0  0  0  0  0  0  0  0  0  0  0
    3.6795   -0.1036   -1.1253 C   0  0  0  0  0  0  0  0  0  0  0  0
    4.3819   -1.0114   -0.3575 C   0  0  0  0  0  0  0  0  0  0  0  0
    3.7228   -1.7360    0.6256 C   0  0  0  0  0  0  0  0  0  0  0  0
    2.3733   -1.5401    0.8238 C   0  0  0  0  0  0  0  0  0  0  0  0
    1.7015   -2.2583    1.8043 O   0  0  0  0  0  0  0  0  0  0  0  0
    2.3697   -3.1875    2.6043 C   0  0  0  0  0  0  0  0  0  0  0  0
    5.7523   -1.2349   -0.5412 N   0  0  0  0  0  0  0  0  0  0  0  0
    6.5721   -0.6974   -1.5976 C   0  0  0  0  0  0  0  0  0  0  0  0
    7.5779    0.2270   -0.9483 C   0  0  0  0  0  0  0  0  0  0  0  0
    8.2123   -0.3806    0.2035 N   0  0  0  0  0  0  0  0  0  0  0  0
    7.8336    0.2984    1.4288 C   0  0  0  0  0  0  0  0  0  0  0  0
    7.9582   -1.8077    0.2879 C   0  0  0  0  0  0  0  0  0  0  0  0
    6.4731   -2.0936    0.4189 C   0  0  0  0  0  0  0  0  0  0  0  0
   -0.4041    1.2649   -1.2109 N   0  0  0  0  0  0  0  0  0  0  0  0
   -1.2985    2.0983   -1.7686 C   0  0  0  0  0  0  0  0  0  0  0  0
   -2.5899    1.9964   -1.3012 C   0  0  0  0  0  0  0  0  0  0  0  0
   -3.6513    2.8063   -1.7757 N   0  0  0  0  0  0  0  0  0  0  0  0
   -3.4112    3.7948   -2.8381 C   0  0  0  0  0  0  0  0  0  0  0  0
   -4.9684    2.6542   -1.2317 C   0  0  0  0  0  0  0  0  0  0  0  0
   -5.9897    2.8999   -1.8763 O   0  0  0  0  0  0  0  0  0  0  0  0
   -7.5687    3.7324    1.5904 H   0  0  0  0  0  0  0  0  0  0  0  0
   -7.6374    3.6410   -0.2057 H   0  0  0  0  0  0  0  0  0  0  0  0
   -6.1601    4.2437    0.6320 H   0  0  0  0  0  0  0  0  0  0  0  0
   -7.0906    1.4920    0.1529 H   0  0  0  0  0  0  0  0  0  0  0  0
   -6.3306    1.8583    1.8149 H   0  0  0  0  0  0  0  0  0  0  0  0
   -4.4813    2.9929    0.7830 H   0  0  0  0  0  0  0  0  0  0  0  0
   -5.1001   -0.1949    1.6967 H   0  0  0  0  0  0  0  0  0  0  0  0
   -3.3810   -1.7163   -0.3763 H   0  0  0  0  0  0  0  0  0  0  0  0
   -3.1526   -1.6084    1.4736 H   0  0  0  0  0  0  0  0  0  0  0  0
   -4.3605   -3.5974    0.7189 H   0  0  0  0  0  0  0  0  0  0  0  0
   -5.4941   -2.4523    1.6453 H   0  0  0  0  0  0  0  0  0  0  0  0
   -4.9185   -2.3656   -1.3243 H   0  0  0  0  0  0  0  0  0  0  0  0
   -6.5456   -2.8734   -0.5926 H   0  0  0  0  0  0  0  0  0  0  0  0
   -5.9807   -0.3138   -1.1806 H   0  0  0  0  0  0  0  0  0  0  0  0
   -6.8500   -0.8327    0.3755 H   0  0  0  0  0  0  0  0  0  0  0  0
   -0.1291   -1.1768    1.1153 H   0  0  0  0  0  0  0  0  0  0  0  0
    1.8176    0.7743   -1.5129 H   0  0  0  0  0  0  0  0  0  0  0  0
    4.1830    0.4635   -1.8881 H   0  0  0  0  0  0  0  0  0  0  0  0
    4.2538   -2.4521    1.2367 H   0  0  0  0  0  0  0  0  0  0  0  0
    3.0191   -3.8914    2.0607 H   0  0  0  0  0  0  0  0  0  0  0  0
    1.6226   -3.7251    3.2386 H   0  0  0  0  0  0  0  0  0  0  0  0
    3.0224   -2.6332    3.3107 H   0  0  0  0  0  0  0  0  0  0  0  0
    6.0233   -0.1510   -2.3560 H   0  0  0  0  0  0  0  0  0  0  0  0
    7.1365   -1.5401   -2.0917 H   0  0  0  0  0  0  0  0  0  0  0  0
    8.3694    0.4872   -1.6725 H   0  0  0  0  0  0  0  0  0  0  0  0
    7.0332    1.1236   -0.5911 H   0  0  0  0  0  0  0  0  0  0  0  0
    8.0713   -0.3203    2.3098 H   0  0  0  0  0  0  0  0  0  0  0  0
    8.3111    1.2823    1.5151 H   0  0  0  0  0  0  0  0  0  0  0  0
    6.7314    0.4405    1.3988 H   0  0  0  0  0  0  0  0  0  0  0  0
    8.4612   -2.1819    1.1924 H   0  0  0  0  0  0  0  0  0  0  0  0
    8.3680   -2.3285   -0.5804 H   0  0  0  0  0  0  0  0  0  0  0  0
    6.2820   -3.1251    0.1113 H   0  0  0  0  0  0  0  0  0  0  0  0
    6.1900   -1.8942    1.4514 H   0  0  0  0  0  0  0  0  0  0  0  0
   -1.0699    2.8098   -2.5277 H   0  0  0  0  0  0  0  0  0  0  0  0
   -2.7894    3.3703   -3.6474 H   0  0  0  0  0  0  0  0  0  0  0  0
   -4.3692    4.1129   -3.2970 H   0  0  0  0  0  0  0  0  0  0  0  0
   -2.9345    4.7055   -2.4274 H   0  0  0  0  0  0  0  0  0  0  0  0
  1  2  1  0
  2  3  1  0
  3  4  1  0
  4  5  1  0
  5  6  1  0
  6  7  1  0
  7  8  1  0
  8  9  1  0
  4 10  1  0
 10 11  2  0
 11 12  1  0
 12 13  1  0
 13 14  1  0
 14 15  2  0
 15 16  1  0
 16 17  2  0
 17 18  1  0
 18 19  2  0
 19 20  1  0
 20 21  1  0
 17 22  1  0
 22 23  1  0
 23 24  1  0
 24 25  1  0
 25 26  1  0
 25 27  1  0
 27 28  1  0
 12 29  2  0
 29 30  1  0
 30 31  2  0
 31 32  1  0
 32 33  1  0
 32 34  1  0
 34 35  2  0
 34  3  1  0
  9  5  1  0
 31 10  1  0
 19 14  1  0
 28 22  1  0
  1 36  1  0
  1 37  1  0
  1 38  1  0
  2 39  1  0
  2 40  1  0
  3 41  1  1
  5 42  1  0
  6 43  1  0
  6 44  1  0
  7 45  1  0
  7 46  1  0
  8 47  1  0
  8 48  1  0
  9 49  1  0
  9 50  1  0
 13 51  1  0
 15 52  1  0
 16 53  1  0
 18 54  1  0
 21 55  1  0
 21 56  1  0
 21 57  1  0
 23 58  1  0
 23 59  1  0
 24 60  1  0
 24 61  1  0
 26 62  1  0
 26 63  1  0
 26 64  1  0
 27 65  1  0
 27 66  1  0
 28 67  1  0
 28 68  1  0
 30 69  1  0
 33 70  1  0
 33 71  1  0
 33 72  1  0
M  END
$$$$
[H]O[C@]([H])(C([H])([H])N([H])C(=O)c1c(C([H])([H])[H])c(/C([H])=C2\C(=O)N([H])c3c([H])c([H])c(F)c([H])c32)n([H])c1C([H])([H])[H])C([H])([H])N1C([H])([H])C([H])([H])OC([H])([H])C1([H])[H]
     RDKit          3D

 59 62  0  0  0  0  0  0  0  0999 V2000
   -0.0067    3.0051   -1.0071 C   0  0  0  0  0  0  0  0  0  0  0  0
   -0.8501    1.8317   -0.6247 C   0  0  0  0  0  0  0  0  0  0  0  0
   -2.0811    1.8440   -0.1243 N   0  0  0  0  0  0  0  0  0  0  0  0
   -2.5055    0.6096    0.0967 C   0  0  0  0  0  0  0  0  0  0  0  0
   -3.7672    0.1046    0.6046 C   0  0  0  0  0  0  0  0  0  0  0  0
   -4.9551    0.3616    0.1015 C   0  0  0  0  0  0  0  0  0  0  0  0
   -5.2686    1.1831   -1.0526 C   0  0  0  0  0  0  0  0  0  0  0  0
   -4.4447    1.7926   -1.8068 O   0  0  0  0  0  0  0  0  0  0  0  0
   -6.6877    1.1703   -1.1787 N   0  0  0  0  0  0  0  0  0  0  0  0
   -7.2854    0.3683   -0.1452 C   0  0  0  0  0  0  0  0  0  0  0  0
   -8.5932    0.0485    0.1572 C   0  0  0  0  0  0  0  0  0  0  0  0
   -8.8890   -0.7569    1.2253 C   0  0  0  0  0  0  0  0  0  0  0  0
   -7.8675   -1.2558    2.0099 C   0  0  0  0  0  0  0  0  0  0  0  0
   -8.1704   -2.0582    3.0732 F   0  0  0  0  0  0  0  0  0  0  0  0
   -6.5671   -0.9274    1.6946 C   0  0  0  0  0  0  0  0  0  0  0  0
   -6.2525   -0.1198    0.6256 C   0  0  0  0  0  0  0  0  0  0  0  0
   -1.4701   -0.2719   -0.2891 C   0  0  0  0  0  0  0  0  0  0  0  0
   -1.5634   -1.7560   -0.2190 C   0  0  0  0  0  0  0  0  0  0  0  0
   -0.4504    0.4817   -0.7334 C   0  0  0  0  0  0  0  0  0  0  0  0
    0.8421    0.0665   -1.2851 C   0  0  0  0  0  0  0  0  0  0  0  0
    1.4391    0.9461   -2.0019 O   0  0  0  0  0  0  0  0  0  0  0  0
    1.4641   -1.1610   -1.1017 N   0  0  0  0  0  0  0  0  0  0  0  0
    2.7215   -1.6317   -1.5988 C   0  0  0  0  0  0  0  0  0  0  0  0
    3.9100   -0.9040   -1.0858 C   0  0  1  0  0  0  0  0  0  0  0  0
    3.9623    0.4288   -1.4233 O   0  0  0  0  0  0  0  0  0  0  0  0
    3.9389   -1.0769    0.4336 C   0  0  0  0  0  0  0  0  0  0  0  0
    5.1145   -0.5489    1.0231 N   0  0  0  0  0  0  0  0  0  0  0  0
    6.3057   -1.2328    0.7606 C   0  0  0  0  0  0  0  0  0  0  0  0
    7.5650   -0.4418    0.7566 C   0  0  0  0  0  0  0  0  0  0  0  0
    7.4895    0.7846    1.3637 O   0  0  0  0  0  0  0  0  0  0  0  0
    6.4448    1.4794    0.7104 C   0  0  0  0  0  0  0  0  0  0  0  0
    5.1722    0.8464    1.2284 C   0  0  0  0  0  0  0  0  0  0  0  0
    0.0822    3.1015   -2.1049 H   0  0  0  0  0  0  0  0  0  0  0  0
    0.9945    2.8829   -0.5849 H   0  0  0  0  0  0  0  0  0  0  0  0
   -0.4526    3.9508   -0.6159 H   0  0  0  0  0  0  0  0  0  0  0  0
   -2.6066    2.7533    0.0695 H   0  0  0  0  0  0  0  0  0  0  0  0
   -3.7823   -0.5608    1.4939 H   0  0  0  0  0  0  0  0  0  0  0  0
   -7.2117    1.6663   -1.9082 H   0  0  0  0  0  0  0  0  0  0  0  0
   -9.3955    0.4290   -0.4451 H   0  0  0  0  0  0  0  0  0  0  0  0
   -9.9115   -1.0343    1.4983 H   0  0  0  0  0  0  0  0  0  0  0  0
   -5.7718   -1.3177    2.3089 H   0  0  0  0  0  0  0  0  0  0  0  0
   -2.6454   -2.0706   -0.0938 H   0  0  0  0  0  0  0  0  0  0  0  0
   -1.2591   -2.2559   -1.1569 H   0  0  0  0  0  0  0  0  0  0  0  0
   -1.0707   -2.1818    0.6776 H   0  0  0  0  0  0  0  0  0  0  0  0
    0.9409   -1.8713   -0.4745 H   0  0  0  0  0  0  0  0  0  0  0  0
    2.7227   -1.5655   -2.7387 H   0  0  0  0  0  0  0  0  0  0  0  0
    2.8856   -2.7214   -1.3345 H   0  0  0  0  0  0  0  0  0  0  0  0
    4.8252   -1.3984   -1.5342 H   0  0  0  0  0  0  0  0  0  0  0  0
    4.6728    0.6685   -2.0620 H   0  0  0  0  0  0  0  0  0  0  0  0
    3.8608   -2.1623    0.6551 H   0  0  0  0  0  0  0  0  0  0  0  0
    3.0333   -0.6218    0.8919 H   0  0  0  0  0  0  0  0  0  0  0  0
    6.4000   -2.0516    1.5425 H   0  0  0  0  0  0  0  0  0  0  0  0
    6.2394   -1.7948   -0.1894 H   0  0  0  0  0  0  0  0  0  0  0  0
    8.3678   -1.0168    1.3034 H   0  0  0  0  0  0  0  0  0  0  0  0
    7.9510   -0.2953   -0.2738 H   0  0  0  0  0  0  0  0  0  0  0  0
    6.5258    1.2239   -0.3654 H   0  0  0  0  0  0  0  0  0  0  0  0
    6.4620    2.5549    0.9159 H   0  0  0  0  0  0  0  0  0  0  0  0
    5.1227    1.0724    2.3311 H   0  0  0  0  0  0  0  0  0  0  0  0
    4.3267    1.4070    0.7958 H   0  0  0  0  0  0  0  0  0  0  0  0
  1  2  1  0
  2  3  1  0
  3  4  1  0
  4  5  1  0
  5  6  2  0
  6  7  1  0
  7  8  2  0
  7  9  1  0
  9 10  1  0
 10 11  2  0
 11 12  1  0
 12 13  2  0
 13 14  1  0
 13 15  1  0
 15 16  2  0
  4 17  2  0
 17 18  1  0
 17 19  1  0
 19 20  1  0
 20 21  2  0
 20 22  1  0
 22 23  1  0
 23 24  1  0
 24 25  1  0
 24 26  1  0
 26 27  1  0
 27 28  1  0
 28 29  1  0
 29 30  1  0
 30 31  1  0
 31 32  1  0
 19  2  2  0
 32 27  1  0
 16  6  1  0
 16 10  1  0
  1 33  1  0
  1 34  1  0
  1 35  1  0
  3 36  1  0
  5 37  1  0
  9 38  1  0
 11 39  1  0
 12 40  1  0
 15 41  1  0
 18 42  1  0
 18 43  1  0
 18 44  1  0
 22 45  1  0
 23 46  1  0
 23 47  1  0
 24 48  1  6
 25 49  1  0
 26 50  1  0
 26 51  1  0
 28 52  1  0
 28 53  1  0
 29 54  1  0
 29 55  1  0
 31 56  1  0
 31 57  1  0
 32 58  1  0
 32 59  1  0
M  END
$$$$
[H]O[C@]1([H])C([H])([H])C([H])([H])C([H])([H])C([H])([H])[C@]1([H])N1C([H])([H])C([H])([H])C([H])(c2c([H])c([H])c([H])c(F)c2[H])C([H])([H])C1([H])[H]
     RDKit          3D

 44 46  0  0  0  0  0  0  0  0999 V2000
   -3.2487   -0.5523   -1.6357 O   0  0  0  0  0  0  0  0  0  0  0  0
   -2.8419   -1.0728   -0.4053 C   0  0  2  0  0  0  0  0  0  0  0  0
   -4.1641   -1.3404    0.3334 C   0  0  0  0  0  0  0  0  0  0  0  0
   -4.9452   -0.0527    0.2109 C   0  0  0  0  0  0  0  0  0  0  0  0
   -4.2280    1.1465    0.7210 C   0  0  0  0  0  0  0  0  0  0  0  0
   -2.7972    1.2559    0.2541 C   0  0  0  0  0  0  0  0  0  0  0  0
   -2.1131   -0.0767    0.4439 C   0  0  2  0  0  0  0  0  0  0  0  0
   -0.7123   -0.0409    0.2865 N   0  0  0  0  0  0  0  0  0  0  0  0
   -0.1930    0.3175   -0.9747 C   0  0  0  0  0  0  0  0  0  0  0  0
    1.2418    0.7891   -0.8666 C   0  0  0  0  0  0  0  0  0  0  0  0
    1.9271    0.2140    0.3664 C   0  0  0  0  0  0  0  0  0  0  0  0
    1.3848   -1.1945    0.5193 C   0  0  0  0  0  0  0  0  0  0  0  0
   -0.0400   -1.0423    1.0200 C   0  0  0  0  0  0  0  0  0  0  0  0
    3.3797    0.2513    0.1958 C   0  0  0  0  0  0  0  0  0  0  0  0
    4.1414    0.9510    1.1070 C   0  0  0  0  0  0  0  0  0  0  0  0
    5.5152    1.0376    1.0213 C   0  0  0  0  0  0  0  0  0  0  0  0
    6.1358    0.4032   -0.0079 C   0  0  0  0  0  0  0  0  0  0  0  0
    5.3999   -0.3121   -0.9460 C   0  0  0  0  0  0  0  0  0  0  0  0
    6.0131   -0.9444   -1.9707 F   0  0  0  0  0  0  0  0  0  0  0  0
    4.0339   -0.3811   -0.8356 C   0  0  0  0  0  0  0  0  0  0  0  0
   -2.5452   -0.1600   -2.1639 H   0  0  0  0  0  0  0  0  0  0  0  0
   -2.2885   -2.0039   -0.5954 H   0  0  0  0  0  0  0  0  0  0  0  0
   -3.9112   -1.6074    1.3593 H   0  0  0  0  0  0  0  0  0  0  0  0
   -4.7109   -2.1271   -0.2217 H   0  0  0  0  0  0  0  0  0  0  0  0
   -5.2827    0.0516   -0.8395 H   0  0  0  0  0  0  0  0  0  0  0  0
   -5.8575   -0.1867    0.8618 H   0  0  0  0  0  0  0  0  0  0  0  0
   -4.7573    2.0486    0.3483 H   0  0  0  0  0  0  0  0  0  0  0  0
   -4.2637    1.1997    1.8253 H   0  0  0  0  0  0  0  0  0  0  0  0
   -2.7782    1.6303   -0.7703 H   0  0  0  0  0  0  0  0  0  0  0  0
   -2.2912    2.0037    0.8947 H   0  0  0  0  0  0  0  0  0  0  0  0
   -2.3096   -0.3562    1.5243 H   0  0  0  0  0  0  0  0  0  0  0  0
   -0.2121   -0.4906   -1.7227 H   0  0  0  0  0  0  0  0  0  0  0  0
   -0.7699    1.2215   -1.3313 H   0  0  0  0  0  0  0  0  0  0  0  0
    1.3279    1.8945   -0.8458 H   0  0  0  0  0  0  0  0  0  0  0  0
    1.8266    0.4391   -1.7362 H   0  0  0  0  0  0  0  0  0  0  0  0
    1.6088    0.7819    1.2526 H   0  0  0  0  0  0  0  0  0  0  0  0
    1.9438   -1.7887    1.2548 H   0  0  0  0  0  0  0  0  0  0  0  0
    1.4246   -1.7516   -0.4403 H   0  0  0  0  0  0  0  0  0  0  0  0
   -0.5627   -2.0106    1.0967 H   0  0  0  0  0  0  0  0  0  0  0  0
    0.0593   -0.6817    2.0862 H   0  0  0  0  0  0  0  0  0  0  0  0
    3.6671    1.4617    1.9314 H   0  0  0  0  0  0  0  0  0  0  0  0
    6.1036    1.5890    1.7415 H   0  0  0  0  0  0  0  0  0  0  0  0
    7.2132    0.4269   -0.1400 H   0  0  0  0  0  0  0  0  0  0  0  0
    3.4765   -0.9396   -1.5701 H   0  0  0  0  0  0  0  0  0  0  0  0
  1  2  1  0
  2  3  1  0
  3  4  1  0
  4  5  1  0
  5  6  1  0
  6  7  1  0
  7  8  1  0
  8  9  1  0
  9 10  1  0
 10 11  1  0
 11 12  1  0
 12 13  1  0
 11 14  1  0
 14 15  2  0
 15 16  1  0
 16 17  2  0
 17 18  1  0
 18 19  1  0
 18 20  2  0
  7  2  1  0
 13  8  1  0
 20 14  1  0
  1 21  1  0
  2 22  1  6
  3 23  1  0
  3 24  1  0
  4 25  1  0
  4 26  1  0
  5 27  1  0
  5 28  1  0
  6 29  1  0
  6 30  1  0
  7 31  1  1
  9 32  1  0
  9 33  1  0
 10 34  1  0
 10 35  1  0
 11 36  1  0
 12 37  1  0
 12 38  1  0
 13 39  1  0
 13 40  1  0
 15 41  1  0
 16 42  1  0
 17 43  1  0
 20 44  1  0
M  END
$$$$
[H]c1c([H])c(-c2c([H])c([H])c(OC([H])([H])C([H])(C([H])([H])[H])C([H])([H])[H])c(C#N)c2[H])c(C#N)c([H])c1C#N
     RDKit          3D

 38 39  0  0  0  0  0  0  0  0999 V2000
   -5.0779    0.3450    1.6923 C   0  0  0  0  0  0  0  0  0  0  0  0
   -3.8905    0.5627    0.7705 C   0  0  0  0  0  0  0  0  0  0  0  0
   -4.2772    1.5522   -0.3338 C   0  0  0  0  0  0  0  0  0  0  0  0
   -3.6619   -0.7492    0.0617 C   0  0  0  0  0  0  0  0  0  0  0  0
   -2.6052   -0.7067   -0.8002 O   0  0  0  0  0  0  0  0  0  0  0  0
   -1.2851   -0.5540   -0.4789 C   0  0  0  0  0  0  0  0  0  0  0  0
   -0.7830   -0.4560    0.7982 C   0  0  0  0  0  0  0  0  0  0  0  0
    0.5729   -0.3058    1.0491 C   0  0  0  0  0  0  0  0  0  0  0  0
    1.4270   -0.2565   -0.0171 C   0  0  0  0  0  0  0  0  0  0  0  0
    0.9518   -0.3530   -1.2999 C   0  0  0  0  0  0  0  0  0  0  0  0
   -0.3804   -0.5002   -1.5497 C   0  0  0  0  0  0  0  0  0  0  0  0
   -0.8644   -0.6005   -2.8991 C   0  0  0  0  0  0  0  0  0  0  0  0
   -1.2582   -0.6738   -3.9916 N   0  0  0  0  0  0  0  0  0  0  0  0
    2.8671   -0.0833    0.2602 C   0  0  0  0  0  0  0  0  0  0  0  0
    3.2393    0.9552    1.0937 C   0  0  0  0  0  0  0  0  0  0  0  0
    4.5857    1.1426    1.3537 C   0  0  0  0  0  0  0  0  0  0  0  0
    5.5590    0.3217    0.8035 C   0  0  0  0  0  0  0  0  0  0  0  0
    5.1384   -0.7009   -0.0215 C   0  0  0  0  0  0  0  0  0  0  0  0
    3.7959   -0.9243   -0.3087 C   0  0  0  0  0  0  0  0  0  0  0  0
    3.4410   -2.0177   -1.1641 C   0  0  0  0  0  0  0  0  0  0  0  0
    3.1613   -2.9045   -1.8300 N   0  0  0  0  0  0  0  0  0  0  0  0
    6.9619    0.5429    1.0941 C   0  0  0  0  0  0  0  0  0  0  0  0
    8.0824    0.7351    1.3227 N   0  0  0  0  0  0  0  0  0  0  0  0
   -4.9456   -0.6775    2.1300 H   0  0  0  0  0  0  0  0  0  0  0  0
   -5.0909    1.0505    2.5378 H   0  0  0  0  0  0  0  0  0  0  0  0
   -5.9863    0.3525    1.0786 H   0  0  0  0  0  0  0  0  0  0  0  0
   -3.0187    0.9529    1.2436 H   0  0  0  0  0  0  0  0  0  0  0  0
   -4.8334    1.0435   -1.1525 H   0  0  0  0  0  0  0  0  0  0  0  0
   -3.3215    1.8913   -0.7840 H   0  0  0  0  0  0  0  0  0  0  0  0
   -4.8088    2.4181    0.0630 H   0  0  0  0  0  0  0  0  0  0  0  0
   -3.5351   -1.5073    0.8829 H   0  0  0  0  0  0  0  0  0  0  0  0
   -4.5939   -1.0560   -0.4907 H   0  0  0  0  0  0  0  0  0  0  0  0
   -1.4500   -0.5268    1.6561 H   0  0  0  0  0  0  0  0  0  0  0  0
    0.8952   -0.2340    2.0848 H   0  0  0  0  0  0  0  0  0  0  0  0
    1.6658   -0.3016   -2.1507 H   0  0  0  0  0  0  0  0  0  0  0  0
    2.4953    1.6065    1.5326 H   0  0  0  0  0  0  0  0  0  0  0  0
    4.9154    1.9465    2.0024 H   0  0  0  0  0  0  0  0  0  0  0  0
    5.9127   -1.3299   -0.4406 H   0  0  0  0  0  0  0  0  0  0  0  0
  1  2  1  0
  2  3  1  0
  2  4  1  0
  4  5  1  0
  5  6  1  0
  6  7  2  0
  7  8  1  0
  8  9  2  0
  9 10  1  0
 10 11  2  0
 11 12  1  0
 12 13  3  0
  9 14  1  0
 14 15  2  0
 15 16  1  0
 16 17  2  0
 17 18  1  0
 18 19  2  0
 19 20  1  0
 20 21  3  0
 17 22  1  0
 22 23  3  0
 11  6  1  0
 19 14  1  0
  1 24  1  0
  1 25  1  0
  1 26  1  0
  2 27  1  0
  3 28  1  0
  3 29  1  0
  3 30  1  0
  4 31  1  0
  4 32  1  0
  7 33  1  0
  8 34  1  0
 10 35  1  0
 15 36  1  0
 16 37  1  0
 18 38  1  0
M  END
$$$$
[H]c1c([H])c(N([H])c2nc(N([H])c3c([H])c([H])c(S(=O)(=O)C([H])([H])[H])c([H])c3[H])c3nc([H])n(C([H])([H])[H])c3n2)c([H])c(OC([H])([H])[H])c1OC([H])([H])[H]
     RDKit          3D

 54 57  0  0  0  0  0  0  0  0999 V2000
    6.7315    3.6052   -1.0799 C   0  0  0  0  0  0  0  0  0  0  0  0
    6.3916    2.5234   -0.2344 O   0  0  0  0  0  0  0  0  0  0  0  0
    5.0796    2.1009   -0.2091 C   0  0  0  0  0  0  0  0  0  0  0  0
    4.1197    2.7045   -0.9780 C   0  0  0  0  0  0  0  0  0  0  0  0
    2.8088    2.3286   -0.9933 C   0  0  0  0  0  0  0  0  0  0  0  0
    2.4214    1.2581   -0.1706 C   0  0  0  0  0  0  0  0  0  0  0  0
    1.0617    0.9249   -0.1939 N   0  0  0  0  0  0  0  0  0  0  0  0
    0.5915   -0.3871    0.0204 C   0  0  0  0  0  0  0  0  0  0  0  0
   -0.7667   -0.5347   -0.0146 N   0  0  0  0  0  0  0  0  0  0  0  0
   -1.3889   -1.6986    0.1412 C   0  0  0  0  0  0  0  0  0  0  0  0
   -2.7792   -1.9267    0.0940 N   0  0  0  0  0  0  0  0  0  0  0  0
   -3.7308   -0.9074   -0.0826 C   0  0  0  0  0  0  0  0  0  0  0  0
   -3.5419    0.4117    0.2193 C   0  0  0  0  0  0  0  0  0  0  0  0
   -4.5331    1.3688   -0.0149 C   0  0  0  0  0  0  0  0  0  0  0  0
   -5.7171    0.9819   -0.5560 C   0  0  0  0  0  0  0  0  0  0  0  0
   -5.9123   -0.3612   -0.8635 C   0  0  0  0  0  0  0  0  0  0  0  0
   -4.9599   -1.3120   -0.6443 C   0  0  0  0  0  0  0  0  0  0  0  0
   -7.0001    2.1444   -0.8724 S   0  0  0  0  0  0  0  0  0  0  0  0
   -8.0049    2.2287    0.5894 C   0  0  0  0  0  0  0  0  0  0  0  0
   -6.4093    3.4765   -1.2270 O   0  0  0  0  0  0  0  0  0  0  0  0
   -7.8351    1.5838   -1.9828 O   0  0  0  0  0  0  0  0  0  0  0  0
   -0.5235   -2.7967    0.3504 C   0  0  0  0  0  0  0  0  0  0  0  0
   -0.8031   -4.0872    0.5408 N   0  0  0  0  0  0  0  0  0  0  0  0
    0.3553   -4.7475    0.6939 C   0  0  0  0  0  0  0  0  0  0  0  0
    1.3943   -3.9043    0.6062 N   0  0  0  0  0  0  0  0  0  0  0  0
    2.8160   -4.1894    0.7118 C   0  0  0  0  0  0  0  0  0  0  0  0
    0.8398   -2.6815    0.3907 C   0  0  0  0  0  0  0  0  0  0  0  0
    1.3609   -1.4601    0.2216 N   0  0  0  0  0  0  0  0  0  0  0  0
    3.3433    0.6303    0.6107 C   0  0  0  0  0  0  0  0  0  0  0  0
    4.6589    1.0568    0.5829 C   0  0  0  0  0  0  0  0  0  0  0  0
    5.6037    0.4309    1.3670 O   0  0  0  0  0  0  0  0  0  0  0  0
    5.2544   -0.6505    2.2090 C   0  0  0  0  0  0  0  0  0  0  0  0
    7.8069    3.8662   -1.0108 H   0  0  0  0  0  0  0  0  0  0  0  0
    6.0614    4.4574   -0.8320 H   0  0  0  0  0  0  0  0  0  0  0  0
    6.4704    3.2834   -2.1162 H   0  0  0  0  0  0  0  0  0  0  0  0
    4.4192    3.5386   -1.6196 H   0  0  0  0  0  0  0  0  0  0  0  0
    2.0635    2.8192   -1.6093 H   0  0  0  0  0  0  0  0  0  0  0  0
    0.3688    1.7204   -0.3817 H   0  0  0  0  0  0  0  0  0  0  0  0
   -3.1286   -2.9301    0.2026 H   0  0  0  0  0  0  0  0  0  0  0  0
   -2.6419    0.7888    0.6656 H   0  0  0  0  0  0  0  0  0  0  0  0
   -4.3640    2.4056    0.2299 H   0  0  0  0  0  0  0  0  0  0  0  0
   -6.8727   -0.6272   -1.2938 H   0  0  0  0  0  0  0  0  0  0  0  0
   -5.1137   -2.3506   -0.8835 H   0  0  0  0  0  0  0  0  0  0  0  0
   -8.7935    1.4451    0.5100 H   0  0  0  0  0  0  0  0  0  0  0  0
   -8.4368    3.2296    0.7419 H   0  0  0  0  0  0  0  0  0  0  0  0
   -7.4049    1.9554    1.5054 H   0  0  0  0  0  0  0  0  0  0  0  0
    0.4905   -5.8254    0.8687 H   0  0  0  0  0  0  0  0  0  0  0  0
    3.0441   -5.2164    0.3583 H   0  0  0  0  0  0  0  0  0  0  0  0
    3.1527   -4.1557    1.7794 H   0  0  0  0  0  0  0  0  0  0  0  0
    3.3775   -3.4114    0.1690 H   0  0  0  0  0  0  0  0  0  0  0  0
    3.0919   -0.1759    1.2693 H   0  0  0  0  0  0  0  0  0  0  0  0
    6.1643   -1.1814    2.5873 H   0  0  0  0  0  0  0  0  0  0  0  0
    4.6266   -0.3542    3.0563 H   0  0  0  0  0  0  0  0  0  0  0  0
    4.6916   -1.3962    1.5863 H   0  0  0  0  0  0  0  0  0  0  0  0
  1  2  1  0
  2  3  1  0
  3  4  2  0
  4  5  1  0
  5  6  2  0
  6  7  1  0
  7  8  1  0
  8  9  2  0
  9 10  1  0
 10 11  1  0
 11 12  1  0
 12 13  2  0
 13 14  1  0
 14 15  2  0
 15 16  1  0
 16 17  2  0
 15 18  1  0
 18 19  1  0
 18 20  2  0
 18 21  2  0
 10 22  2  0
 22 23  1  0
 23 24  2  0
 24 25  1  0
 25 26  1  0
 25 27  1  0
 27 28  2  0
  6 29  1  0
 29 30  2  0
 30 31  1  0
 31 32  1  0
 30  3  1  0
 28  8  1  0
 17 12  1  0
 27 22  1  0
  1 33  1  0
  1 34  1  0
  1 35  1  0
  4 36  1  0
  5 37  1  0
  7 38  1  0
 11 39  1  0
 13 40  1  0
 14 41  1  0
 16 42  1  0
 17 43  1  0
 19 44  1  0
 19 45  1  0
 19 46  1  0
 24 47  1  0
 26 48  1  0
 26 49  1  0
 26 50  1  0
 29 51  1  0
 32 52  1  0
 32 53  1  0
 32 54  1  0
M  END
$$$$
[H]c1c(N([H])C(=O)[C@@]2([H])N(C(=O)c3c([H])c([H])c(F)c(F)c3[H])C([H])([H])c3c([H])c([H])c([H])c([H])c3C2([H])[H])noc1C(C([H])([H])[H])(C([H])([H])[H])C([H])([H])[H]
     RDKit          3D

 55 58  0  0  0  0  0  0  0  0999 V2000
    5.1068    2.9103   -1.7509 C   0  0  0  0  0  0  0  0  0  0  0  0
    5.4286    1.7077   -0.9000 C   0  0  0  0  0  0  0  0  0  0  0  0
    6.2834    2.0970    0.3058 C   0  0  0  0  0  0  0  0  0  0  0  0
    6.1448    0.6752   -1.7402 C   0  0  0  0  0  0  0  0  0  0  0  0
    4.1917    1.0775   -0.3586 C   0  0  0  0  0  0  0  0  0  0  0  0
    3.0329    0.8005   -1.0254 C   0  0  0  0  0  0  0  0  0  0  0  0
    2.1686    0.2266   -0.1408 C   0  0  0  0  0  0  0  0  0  0  0  0
    0.8113   -0.2143   -0.3549 N   0  0  0  0  0  0  0  0  0  0  0  0
    0.1154   -0.8077    0.6912 C   0  0  0  0  0  0  0  0  0  0  0  0
    0.7487   -0.9817    1.7991 O   0  0  0  0  0  0  0  0  0  0  0  0
   -1.2977   -1.2679    0.6737 C   0  0  2  0  0  0  0  0  0  0  0  0
   -1.3016   -2.7766    0.9858 C   0  0  0  0  0  0  0  0  0  0  0  0
   -2.5965   -3.3482    0.6921 C   0  0  0  0  0  0  0  0  0  0  0  0
   -3.2977   -4.1337    1.5436 C   0  0  0  0  0  0  0  0  0  0  0  0
   -4.5315   -4.6981    1.1821 C   0  0  0  0  0  0  0  0  0  0  0  0
   -4.9884   -4.4103   -0.0808 C   0  0  0  0  0  0  0  0  0  0  0  0
   -4.2756   -3.5999   -0.9715 C   0  0  0  0  0  0  0  0  0  0  0  0
   -3.0915   -3.0743   -0.5863 C   0  0  0  0  0  0  0  0  0  0  0  0
   -2.2273   -2.1351   -1.4113 C   0  0  0  0  0  0  0  0  0  0  0  0
   -2.0565   -0.9484   -0.4621 N   0  0  0  0  0  0  0  0  0  0  0  0
   -2.7361    0.1757   -0.8960 C   0  0  0  0  0  0  0  0  0  0  0  0
   -3.3379    0.0665   -2.0773 O   0  0  0  0  0  0  0  0  0  0  0  0
   -2.9307    1.4636   -0.3001 C   0  0  0  0  0  0  0  0  0  0  0  0
   -3.8317    2.3409   -0.9629 C   0  0  0  0  0  0  0  0  0  0  0  0
   -4.0588    3.5921   -0.4456 C   0  0  0  0  0  0  0  0  0  0  0  0
   -3.4469    4.0325    0.6914 C   0  0  0  0  0  0  0  0  0  0  0  0
   -3.6800    5.2579    1.1630 F   0  0  0  0  0  0  0  0  0  0  0  0
   -2.5620    3.1993    1.3644 C   0  0  0  0  0  0  0  0  0  0  0  0
   -1.9569    3.6041    2.4793 F   0  0  0  0  0  0  0  0  0  0  0  0
   -2.3247    1.9350    0.8508 C   0  0  0  0  0  0  0  0  0  0  0  0
    2.8283    0.1662    1.0570 N   0  0  0  0  0  0  0  0  0  0  0  0
    3.9923    0.6703    0.8787 O   0  0  0  0  0  0  0  0  0  0  0  0
    4.0803    2.8701   -2.1592 H   0  0  0  0  0  0  0  0  0  0  0  0
    5.2202    3.8324   -1.1599 H   0  0  0  0  0  0  0  0  0  0  0  0
    5.7724    2.9459   -2.6696 H   0  0  0  0  0  0  0  0  0  0  0  0
    6.2771    1.1838    0.9513 H   0  0  0  0  0  0  0  0  0  0  0  0
    7.2980    2.3764   -0.0018 H   0  0  0  0  0  0  0  0  0  0  0  0
    5.7275    2.8624    0.8479 H   0  0  0  0  0  0  0  0  0  0  0  0
    7.0749    1.0808   -2.1915 H   0  0  0  0  0  0  0  0  0  0  0  0
    5.4620    0.3335   -2.5466 H   0  0  0  0  0  0  0  0  0  0  0  0
    6.3374   -0.2080   -1.1076 H   0  0  0  0  0  0  0  0  0  0  0  0
    2.8024    0.9934   -2.0906 H   0  0  0  0  0  0  0  0  0  0  0  0
    0.3497   -0.0545   -1.2748 H   0  0  0  0  0  0  0  0  0  0  0  0
   -1.8321   -0.8508    1.5862 H   0  0  0  0  0  0  0  0  0  0  0  0
   -0.5184   -3.2398    0.3063 H   0  0  0  0  0  0  0  0  0  0  0  0
   -0.9982   -2.9354    2.0452 H   0  0  0  0  0  0  0  0  0  0  0  0
   -2.9588   -4.3805    2.5528 H   0  0  0  0  0  0  0  0  0  0  0  0
   -5.0995   -5.3260    1.8585 H   0  0  0  0  0  0  0  0  0  0  0  0
   -5.9439   -4.8527   -0.3540 H   0  0  0  0  0  0  0  0  0  0  0  0
   -4.6679   -3.3926   -1.9584 H   0  0  0  0  0  0  0  0  0  0  0  0
   -1.2516   -2.6266   -1.5097 H   0  0  0  0  0  0  0  0  0  0  0  0
   -2.7117   -1.7755   -2.2827 H   0  0  0  0  0  0  0  0  0  0  0  0
   -4.3348    2.0168   -1.8694 H   0  0  0  0  0  0  0  0  0  0  0  0
   -4.7706    4.2412   -0.9899 H   0  0  0  0  0  0  0  0  0  0  0  0
   -1.6371    1.3030    1.3833 H   0  0  0  0  0  0  0  0  0  0  0  0
  1  2  1  0
  2  3  1  0
  2  4  1  0
  2  5  1  0
  5  6  2  0
  6  7  1  0
  7  8  1  0
  8  9  1  0
  9 10  2  0
  9 11  1  0
 11 12  1  0
 12 13  1  0
 13 14  2  0
 14 15  1  0
 15 16  2  0
 16 17  1  0
 17 18  2  0
 18 19  1  0
 19 20  1  0
 20 21  1  0
 21 22  2  0
 21 23  1  0
 23 24  2  0
 24 25  1  0
 25 26  2  0
 26 27  1  0
 26 28  1  0
 28 29  1  0
 28 30  2  0
  7 31  2  0
 31 32  1  0
 32  5  1  0
 20 11  1  0
 30 23  1  0
 18 13  1  0
  1 33  1  0
  1 34  1  0
  1 35  1  0
  3 36  1  0
  3 37  1  0
  3 38  1  0
  4 39  1  0
  4 40  1  0
  4 41  1  0
  6 42  1  0
  8 43  1  0
 11 44  1  1
 12 45  1  0
 12 46  1  0
 14 47  1  0
 15 48  1  0
 16 49  1  0
 17 50  1  0
 19 51  1  0
 19 52  1  0
 24 53  1  0
 25 54  1  0
 30 55  1  0
M  END
$$$$
[H]OB(O[H])[C@@]([H])(N([H])C(=O)[C@@]([H])(N([H])C(=O)c1nc([H])c([H])nc1[H])C([H])([H])c1c([H])c([H])c([H])c([H])c1[H])C([H])([H])C([H])(C([H])([H])[H])C([H])([H])[H]
     RDKit          3D

 53 54  0  0  0  0  0  0  0  0999 V2000
    5.2013    0.8170    0.0086 C   0  0  0  0  0  0  0  0  0  0  0  0
    4.3190    0.3937   -1.1321 C   0  0  0  0  0  0  0  0  0  0  0  0
    4.9295    1.0028   -2.4113 C   0  0  0  0  0  0  0  0  0  0  0  0
    2.8827    0.7336   -1.0208 C   0  0  0  0  0  0  0  0  0  0  0  0
    2.1858    0.1339    0.1544 C   0  0  2  0  0  0  0  0  0  0  0  0
    0.7692    0.5114    0.1492 N   0  0  0  0  0  0  0  0  0  0  0  0
   -0.2413   -0.4499   -0.0878 C   0  0  0  0  0  0  0  0  0  0  0  0
    0.1658   -1.6445   -0.2921 O   0  0  0  0  0  0  0  0  0  0  0  0
   -1.6910   -0.2149   -0.1293 C   0  0  2  0  0  0  0  0  0  0  0  0
   -2.3256    0.0284    1.2058 C   0  0  0  0  0  0  0  0  0  0  0  0
   -1.8577    1.1662    1.9838 C   0  0  0  0  0  0  0  0  0  0  0  0
   -2.3634    2.4305    1.7709 C   0  0  0  0  0  0  0  0  0  0  0  0
   -1.9832    3.5246    2.5100 C   0  0  0  0  0  0  0  0  0  0  0  0
   -1.0603    3.3815    3.5112 C   0  0  0  0  0  0  0  0  0  0  0  0
   -0.5320    2.1334    3.7540 C   0  0  0  0  0  0  0  0  0  0  0  0
   -0.9296    1.0285    2.9920 C   0  0  0  0  0  0  0  0  0  0  0  0
   -2.3468   -1.4444   -0.6247 N   0  0  0  0  0  0  0  0  0  0  0  0
   -3.1107   -1.3851   -1.8067 C   0  0  0  0  0  0  0  0  0  0  0  0
   -3.2450   -0.2907   -2.4543 O   0  0  0  0  0  0  0  0  0  0  0  0
   -3.7816   -2.5529   -2.3496 C   0  0  0  0  0  0  0  0  0  0  0  0
   -4.5221   -2.4682   -3.5048 C   0  0  0  0  0  0  0  0  0  0  0  0
   -5.1625   -3.5308   -4.0439 N   0  0  0  0  0  0  0  0  0  0  0  0
   -5.0835   -4.7346   -3.4370 C   0  0  0  0  0  0  0  0  0  0  0  0
   -4.3467   -4.8412   -2.2786 C   0  0  0  0  0  0  0  0  0  0  0  0
   -3.7179   -3.7658   -1.7622 N   0  0  0  0  0  0  0  0  0  0  0  0
    2.7695    0.6746    1.5181 B   0  0  0  0  0  0  0  0  0  0  0  0
    2.5265    2.1058    1.8085 O   0  0  0  0  0  0  0  0  0  0  0  0
    3.0234   -0.2476    2.6290 O   0  0  0  0  0  0  0  0  0  0  0  0
    4.9972    1.8263    0.3683 H   0  0  0  0  0  0  0  0  0  0  0  0
    5.3170    0.0424    0.8033 H   0  0  0  0  0  0  0  0  0  0  0  0
    6.2532    0.8919   -0.4328 H   0  0  0  0  0  0  0  0  0  0  0  0
    4.4352   -0.7089   -1.2948 H   0  0  0  0  0  0  0  0  0  0  0  0
    5.2331    2.0533   -2.1426 H   0  0  0  0  0  0  0  0  0  0  0  0
    5.8514    0.4318   -2.6207 H   0  0  0  0  0  0  0  0  0  0  0  0
    4.2306    0.9808   -3.2472 H   0  0  0  0  0  0  0  0  0  0  0  0
    2.7750    1.8569   -1.0354 H   0  0  0  0  0  0  0  0  0  0  0  0
    2.3834    0.3904   -1.9712 H   0  0  0  0  0  0  0  0  0  0  0  0
    2.2231   -0.9598    0.0569 H   0  0  0  0  0  0  0  0  0  0  0  0
    0.5068    1.4986    0.3100 H   0  0  0  0  0  0  0  0  0  0  0  0
   -1.9542    0.5864   -0.8509 H   0  0  0  0  0  0  0  0  0  0  0  0
   -2.1719   -0.9306    1.7999 H   0  0  0  0  0  0  0  0  0  0  0  0
   -3.4579    0.0530    1.1074 H   0  0  0  0  0  0  0  0  0  0  0  0
   -3.0914    2.5898    0.9939 H   0  0  0  0  0  0  0  0  0  0  0  0
   -2.4138    4.5078    2.3023 H   0  0  0  0  0  0  0  0  0  0  0  0
   -0.7621    4.2428    4.0918 H   0  0  0  0  0  0  0  0  0  0  0  0
    0.1910    1.9917    4.5299 H   0  0  0  0  0  0  0  0  0  0  0  0
   -0.4857    0.0830    3.2251 H   0  0  0  0  0  0  0  0  0  0  0  0
   -2.2432   -2.3287   -0.1089 H   0  0  0  0  0  0  0  0  0  0  0  0
   -4.6119   -1.5137   -4.0269 H   0  0  0  0  0  0  0  0  0  0  0  0
   -5.5903   -5.5747   -3.8640 H   0  0  0  0  0  0  0  0  0  0  0  0
   -4.2674   -5.7963   -1.7717 H   0  0  0  0  0  0  0  0  0  0  0  0
    2.5093    2.2408    2.7855 H   0  0  0  0  0  0  0  0  0  0  0  0
    3.6720   -0.9503    2.4041 H   0  0  0  0  0  0  0  0  0  0  0  0
  1  2  1  0
  2  3  1  0
  2  4  1  0
  4  5  1  0
  5  6  1  0
  6  7  1  0
  7  8  2  0
  7  9  1  0
  9 10  1  0
 10 11  1  0
 11 12  2  0
 12 13  1  0
 13 14  2  0
 14 15  1  0
 15 16  2  0
  9 17  1  0
 17 18  1  0
 18 19  2  0
 18 20  1  0
 20 21  2  0
 21 22  1  0
 22 23  2  0
 23 24  1  0
 24 25  2  0
  5 26  1  0
 26 27  1  0
 26 28  1  0
 16 11  1  0
 25 20  1  0
  1 29  1  0
  1 30  1  0
  1 31  1  0
  2 32  1  0
  3 33  1  0
  3 34  1  0
  3 35  1  0
  4 36  1  0
  4 37  1  0
  5 38  1  1
  6 39  1  0
  9 40  1  6
 10 41  1  0
 10 42  1  0
 12 43  1  0
 13 44  1  0
 14 45  1  0
 15 46  1  0
 16 47  1  0
 17 48  1  0
 21 49  1  0
 23 50  1  0
 24 51  1  0
 27 52  1  0
 28 53  1  0
M  END
$$$$
[H]c1nc(-c2c([H])c([H])c([H])c([H])c2F)c([H])c([H])c1C#Cc1nc(C([H])([H])[H])sc1[H]
     RDKit          3D

 32 34  0  0  0  0  0  0  0  0999 V2000
    7.6484   -0.9842   -0.5995 C   0  0  0  0  0  0  0  0  0  0  0  0
    6.5215   -0.4488    0.2487 C   0  0  0  0  0  0  0  0  0  0  0  0
    5.2257   -0.4497    0.0084 N   0  0  0  0  0  0  0  0  0  0  0  0
    4.4012    0.0691    0.8794 C   0  0  0  0  0  0  0  0  0  0  0  0
    4.9556    0.5967    2.0218 C   0  0  0  0  0  0  0  0  0  0  0  0
    6.6183    0.3132    1.7692 S   0  0  0  0  0  0  0  0  0  0  0  0
    2.9499    0.0741    0.6220 C   0  0  0  0  0  0  0  0  0  0  0  0
    1.7611    0.0873    0.4308 C   0  0  0  0  0  0  0  0  0  0  0  0
    0.3383    0.0998    0.2274 C   0  0  0  0  0  0  0  0  0  0  0  0
   -0.1514   -0.1899   -1.0032 C   0  0  0  0  0  0  0  0  0  0  0  0
   -1.5409   -0.1734   -1.1852 C   0  0  0  0  0  0  0  0  0  0  0  0
   -2.4193    0.1183   -0.1899 C   0  0  0  0  0  0  0  0  0  0  0  0
   -1.8581    0.4009    1.0257 N   0  0  0  0  0  0  0  0  0  0  0  0
   -0.5426    0.3962    1.2413 C   0  0  0  0  0  0  0  0  0  0  0  0
   -3.8694    0.1494   -0.2962 C   0  0  0  0  0  0  0  0  0  0  0  0
   -4.6061    0.4076    0.8748 C   0  0  0  0  0  0  0  0  0  0  0  0
   -5.9728    0.4693    0.9087 C   0  0  0  0  0  0  0  0  0  0  0  0
   -6.6923    0.2734   -0.2435 C   0  0  0  0  0  0  0  0  0  0  0  0
   -6.0109    0.0187   -1.4081 C   0  0  0  0  0  0  0  0  0  0  0  0
   -4.6064   -0.0409   -1.4241 C   0  0  0  0  0  0  0  0  0  0  0  0
   -4.0044   -0.2904   -2.6122 F   0  0  0  0  0  0  0  0  0  0  0  0
    8.5203   -0.2929   -0.4571 H   0  0  0  0  0  0  0  0  0  0  0  0
    7.9684   -1.9743   -0.2580 H   0  0  0  0  0  0  0  0  0  0  0  0
    7.3544   -0.9262   -1.6469 H   0  0  0  0  0  0  0  0  0  0  0  0
    4.4237    1.0745    2.8660 H   0  0  0  0  0  0  0  0  0  0  0  0
    0.5194   -0.4232   -1.8053 H   0  0  0  0  0  0  0  0  0  0  0  0
   -1.8816   -0.4088   -2.1564 H   0  0  0  0  0  0  0  0  0  0  0  0
   -0.1808    0.6269    2.2169 H   0  0  0  0  0  0  0  0  0  0  0  0
   -4.0235    0.5631    1.7947 H   0  0  0  0  0  0  0  0  0  0  0  0
   -6.4987    0.6712    1.8353 H   0  0  0  0  0  0  0  0  0  0  0  0
   -7.7709    0.3267   -0.1925 H   0  0  0  0  0  0  0  0  0  0  0  0
   -6.5762   -0.1336   -2.3049 H   0  0  0  0  0  0  0  0  0  0  0  0
  1  2  1  0
  2  3  2  0
  3  4  1  0
  4  5  2  0
  5  6  1  0
  4  7  1  0
  7  8  3  0
  8  9  1  0
  9 10  2  0
 10 11  1  0
 11 12  2  0
 12 13  1  0
 13 14  2  0
 12 15  1  0
 15 16  2  0
 16 17  1  0
 17 18  2  0
 18 19  1  0
 19 20  2  0
 20 21  1  0
  6  2  1  0
 14  9  1  0
 20 15  1  0
  1 22  1  0
  1 23  1  0
  1 24  1  0
  5 25  1  0
 10 26  1  0
 11 27  1  0
 14 28  1  0
 16 29  1  0
 17 30  1  0
 18 31  1  0
 19 32  1  0
M  END
$$$$
[H]c1c([H])c([H])c(C([H])([H])[C@@]([H])(C(=O)N([H])[H])N([H])C(=O)[C@@]([H])(N([H])C(=O)[C@@]([H])(N([H])C(=O)C([H])([H])N([H])C(=O)[C@@]2([H])N(C(=O)[C@@]([H])(N([H])[H])C([H])([H])c3c([H])n([H])c4c([H])c([H])c([H])c([H])c34)C([H])([H])C([H])([H])C2([H])[H])C([H])([H])c2c([H])n([H])c3c([H])c([H])c([H])c([H])c23)C([H])([H])C([H])(C([H])([H])[H])C([H])([H])[H])c([H])c1[H]
     RDKit          3D

112117  0  0  0  0  0  0  0  0999 V2000
   -2.8284   -0.1599    3.8687 C   0  0  0  0  0  0  0  0  0  0  0  0
   -3.8625    0.8930    3.6787 C   0  0  0  0  0  0  0  0  0  0  0  0
   -5.1026    0.4595    4.4604 C   0  0  0  0  0  0  0  0  0  0  0  0
   -4.1855    1.3665    2.3193 C   0  0  0  0  0  0  0  0  0  0  0  0
   -4.6809    0.3932    1.3233 C   0  0  2  0  0  0  0  0  0  0  0  0
   -3.8379   -0.6681    0.8919 N   0  0  0  0  0  0  0  0  0  0  0  0
   -2.4823   -0.5635    0.5593 C   0  0  0  0  0  0  0  0  0  0  0  0
   -1.8995    0.5432    0.6307 O   0  0  0  0  0  0  0  0  0  0  0  0
   -1.6599   -1.7159    0.1153 C   0  0  2  0  0  0  0  0  0  0  0  0
   -1.9596   -3.0212    0.7077 C   0  0  0  0  0  0  0  0  0  0  0  0
   -1.0156   -4.0413    0.1503 C   0  0  0  0  0  0  0  0  0  0  0  0
    0.0579   -4.6192    0.8326 C   0  0  0  0  0  0  0  0  0  0  0  0
    0.6511   -5.4888   -0.0058 N   0  0  0  0  0  0  0  0  0  0  0  0
    0.0418   -5.5259   -1.2023 C   0  0  0  0  0  0  0  0  0  0  0  0
    0.3063   -6.2556   -2.3325 C   0  0  0  0  0  0  0  0  0  0  0  0
   -0.5296   -6.0558   -3.4168 C   0  0  0  0  0  0  0  0  0  0  0  0
   -1.5694   -5.1644   -3.3445 C   0  0  0  0  0  0  0  0  0  0  0  0
   -1.8269   -4.4379   -2.2072 C   0  0  0  0  0  0  0  0  0  0  0  0
   -1.0122   -4.6128   -1.1060 C   0  0  0  0  0  0  0  0  0  0  0  0
   -0.2440   -1.3667    0.1149 N   0  0  0  0  0  0  0  0  0  0  0  0
    0.3559   -0.8120   -1.0131 C   0  0  0  0  0  0  0  0  0  0  0  0
   -0.3979   -0.6287   -2.0362 O   0  0  0  0  0  0  0  0  0  0  0  0
    1.7609   -0.4279   -1.1112 C   0  0  0  0  0  0  0  0  0  0  0  0
    2.5376   -0.6942    0.0322 N   0  0  0  0  0  0  0  0  0  0  0  0
    3.9298   -0.2975    0.0047 C   0  0  0  0  0  0  0  0  0  0  0  0
    4.3594    0.2619   -1.0093 O   0  0  0  0  0  0  0  0  0  0  0  0
    4.8040   -0.5779    1.2035 C   0  0  2  0  0  0  0  0  0  0  0  0
    4.0678   -0.1227    2.4257 C   0  0  0  0  0  0  0  0  0  0  0  0
    4.9373    0.9463    3.0183 C   0  0  0  0  0  0  0  0  0  0  0  0
    5.9004    1.3361    1.9430 C   0  0  0  0  0  0  0  0  0  0  0  0
    6.0450    0.0894    1.1626 N   0  0  0  0  0  0  0  0  0  0  0  0
    7.2390   -0.2282    0.5111 C   0  0  0  0  0  0  0  0  0  0  0  0
    8.2155    0.6013    0.7527 O   0  0  0  0  0  0  0  0  0  0  0  0
    7.5983   -1.3046   -0.3868 C   0  0  1  0  0  0  0  0  0  0  0  0
    6.6779   -2.4458   -0.2665 N   0  0  0  0  0  0  0  0  0  0  0  0
    7.7398   -0.9820   -1.8385 C   0  0  0  0  0  0  0  0  0  0  0  0
    8.7212    0.0224   -2.2507 C   0  0  0  0  0  0  0  0  0  0  0  0
   10.0639   -0.2056   -2.6012 C   0  0  0  0  0  0  0  0  0  0  0  0
   10.6623    0.9629   -2.9025 N   0  0  0  0  0  0  0  0  0  0  0  0
    9.7691    1.9555   -2.7651 C   0  0  0  0  0  0  0  0  0  0  0  0
    9.8592    3.3326   -2.9691 C   0  0  0  0  0  0  0  0  0  0  0  0
    8.7767    4.1524   -2.7825 C   0  0  0  0  0  0  0  0  0  0  0  0
    7.5751    3.6210   -2.3874 C   0  0  0  0  0  0  0  0  0  0  0  0
    7.4957    2.2706   -2.1882 C   0  0  0  0  0  0  0  0  0  0  0  0
    8.5568    1.4078   -2.3628 C   0  0  0  0  0  0  0  0  0  0  0  0
   -5.4470    0.9279    0.1984 C   0  0  0  0  0  0  0  0  0  0  0  0
   -5.6880    0.1123   -0.7652 O   0  0  0  0  0  0  0  0  0  0  0  0
   -5.9335    2.2471    0.0915 N   0  0  0  0  0  0  0  0  0  0  0  0
   -6.7061    2.6308   -1.0847 C   0  0  1  0  0  0  0  0  0  0  0  0
   -7.8157    3.5936   -0.7538 C   0  0  0  0  0  0  0  0  0  0  0  0
   -8.7907    3.0883    0.2259 C   0  0  0  0  0  0  0  0  0  0  0  0
   -9.9026    2.4039   -0.1768 C   0  0  0  0  0  0  0  0  0  0  0  0
  -10.8048    1.9420    0.7595 C   0  0  0  0  0  0  0  0  0  0  0  0
  -10.5782    2.1762    2.0965 C   0  0  0  0  0  0  0  0  0  0  0  0
   -9.4654    2.8642    2.5330 C   0  0  0  0  0  0  0  0  0  0  0  0
   -8.5684    3.3187    1.5661 C   0  0  0  0  0  0  0  0  0  0  0  0
   -5.7413    3.3685   -1.9962 C   0  0  0  0  0  0  0  0  0  0  0  0
   -6.1658    3.8466   -3.2499 N   0  0  0  0  0  0  0  0  0  0  0  0
   -4.5485    3.5656   -1.6509 O   0  0  0  0  0  0  0  0  0  0  0  0
   -1.8278    0.1790    3.5048 H   0  0  0  0  0  0  0  0  0  0  0  0
   -2.6496   -0.2777    4.9870 H   0  0  0  0  0  0  0  0  0  0  0  0
   -3.1118   -1.1682    3.5310 H   0  0  0  0  0  0  0  0  0  0  0  0
   -3.4875    1.7875    4.2914 H   0  0  0  0  0  0  0  0  0  0  0  0
   -5.4796   -0.5047    4.0787 H   0  0  0  0  0  0  0  0  0  0  0  0
   -4.7514    0.2865    5.5251 H   0  0  0  0  0  0  0  0  0  0  0  0
   -5.8253    1.2693    4.5119 H   0  0  0  0  0  0  0  0  0  0  0  0
   -5.0350    2.1201    2.4564 H   0  0  0  0  0  0  0  0  0  0  0  0
   -3.3491    2.0034    1.9601 H   0  0  0  0  0  0  0  0  0  0  0  0
   -5.5325   -0.2150    1.9177 H   0  0  0  0  0  0  0  0  0  0  0  0
   -4.2525   -1.6483    0.7992 H   0  0  0  0  0  0  0  0  0  0  0  0
   -1.9505   -1.7967   -1.0003 H   0  0  0  0  0  0  0  0  0  0  0  0
   -2.9731   -3.3426    0.3773 H   0  0  0  0  0  0  0  0  0  0  0  0
   -1.8963   -3.0572    1.8232 H   0  0  0  0  0  0  0  0  0  0  0  0
    0.3753   -4.4316    1.8423 H   0  0  0  0  0  0  0  0  0  0  0  0
    1.4978   -6.0927    0.2148 H   0  0  0  0  0  0  0  0  0  0  0  0
    1.1346   -6.9738   -2.4085 H   0  0  0  0  0  0  0  0  0  0  0  0
   -0.3383   -6.6249   -4.3185 H   0  0  0  0  0  0  0  0  0  0  0  0
   -2.2406   -4.9919   -4.2035 H   0  0  0  0  0  0  0  0  0  0  0  0
   -2.6594   -3.7337   -2.1582 H   0  0  0  0  0  0  0  0  0  0  0  0
    0.3340   -1.5342    0.9772 H   0  0  0  0  0  0  0  0  0  0  0  0
    1.7754    0.6487   -1.4248 H   0  0  0  0  0  0  0  0  0  0  0  0
    2.1952   -0.9944   -1.9745 H   0  0  0  0  0  0  0  0  0  0  0  0
    2.1972   -1.1448    0.8797 H   0  0  0  0  0  0  0  0  0  0  0  0
    4.9245   -1.7073    1.2393 H   0  0  0  0  0  0  0  0  0  0  0  0
    3.0783    0.3110    2.1565 H   0  0  0  0  0  0  0  0  0  0  0  0
    3.9497   -0.9554    3.1580 H   0  0  0  0  0  0  0  0  0  0  0  0
    5.4699    0.5932    3.9354 H   0  0  0  0  0  0  0  0  0  0  0  0
    4.3396    1.8366    3.3737 H   0  0  0  0  0  0  0  0  0  0  0  0
    6.8930    1.6515    2.3549 H   0  0  0  0  0  0  0  0  0  0  0  0
    5.5484    2.1080    1.2475 H   0  0  0  0  0  0  0  0  0  0  0  0
    8.6164   -1.7423   -0.0919 H   0  0  0  0  0  0  0  0  0  0  0  0
    5.9980   -2.3780   -1.0849 H   0  0  0  0  0  0  0  0  0  0  0  0
    7.2047   -3.3373   -0.4345 H   0  0  0  0  0  0  0  0  0  0  0  0
    6.7489   -0.7006   -2.2940 H   0  0  0  0  0  0  0  0  0  0  0  0
    8.0102   -1.9286   -2.4078 H   0  0  0  0  0  0  0  0  0  0  0  0
   10.4708   -1.2066   -2.6007 H   0  0  0  0  0  0  0  0  0  0  0  0
   11.6604    1.0285   -3.1899 H   0  0  0  0  0  0  0  0  0  0  0  0
   10.8302    3.7176   -3.2836 H   0  0  0  0  0  0  0  0  0  0  0  0
    8.8502    5.2103   -2.9409 H   0  0  0  0  0  0  0  0  0  0  0  0
    6.6892    4.2756   -2.2349 H   0  0  0  0  0  0  0  0  0  0  0  0
    6.5530    1.8331   -1.8709 H   0  0  0  0  0  0  0  0  0  0  0  0
   -5.7716    2.9794    0.8076 H   0  0  0  0  0  0  0  0  0  0  0  0
   -7.0145    1.7604   -1.6594 H   0  0  0  0  0  0  0  0  0  0  0  0
   -8.4031    3.6959   -1.7248 H   0  0  0  0  0  0  0  0  0  0  0  0
   -7.4297    4.6097   -0.5144 H   0  0  0  0  0  0  0  0  0  0  0  0
  -10.1412    2.1869   -1.2128 H   0  0  0  0  0  0  0  0  0  0  0  0
  -11.7080    1.3870    0.4557 H   0  0  0  0  0  0  0  0  0  0  0  0
  -11.3201    1.7910    2.8023 H   0  0  0  0  0  0  0  0  0  0  0  0
   -9.3137    3.0348    3.5963 H   0  0  0  0  0  0  0  0  0  0  0  0
   -7.6917    3.8606    1.9196 H   0  0  0  0  0  0  0  0  0  0  0  0
   -7.0314    4.4052   -3.3285 H   0  0  0  0  0  0  0  0  0  0  0  0
   -5.6148    3.6407   -4.0966 H   0  0  0  0  0  0  0  0  0  0  0  0
  1  2  1  0
  2  3  1  0
  2  4  1  0
  4  5  1  0
  5  6  1  0
  6  7  1  0
  7  8  2  0
  7  9  1  0
  9 10  1  0
 10 11  1  0
 11 12  2  0
 12 13  1  0
 13 14  1  0
 14 15  2  0
 15 16  1  0
 16 17  2  0
 17 18  1  0
 18 19  2  0
  9 20  1  0
 20 21  1  0
 21 22  2  0
 21 23  1  0
 23 24  1  0
 24 25  1  0
 25 26  2  0
 25 27  1  0
 27 28  1  0
 28 29  1  0
 29 30  1  0
 30 31  1  0
 31 32  1  0
 32 33  2  0
 32 34  1  0
 34 35  1  0
 34 36  1  0
 36 37  1  0
 37 38  2  0
 38 39  1  0
 39 40  1  0
 40 41  2  0
 41 42  1  0
 42 43  2  0
 43 44  1  0
 44 45  2  0
  5 46  1  0
 46 47  2  0
 46 48  1  0
 48 49  1  0
 49 50  1  0
 50 51  1  0
 51 52  2  0
 52 53  1  0
 53 54  2  0
 54 55  1  0
 55 56  2  0
 49 57  1  0
 57 58  1  0
 57 59  2  0
 19 11  1  0
 31 27  1  0
 45 37  1  0
 56 51  1  0
 19 14  1  0
 45 40  1  0
  1 60  1  0
  1 61  1  0
  1 62  1  0
  2 63  1  0
  3 64  1  0
  3 65  1  0
  3 66  1  0
  4 67  1  0
  4 68  1  0
  5 69  1  1
  6 70  1  0
  9 71  1  6
 10 72  1  0
 10 73  1  0
 12 74  1  0
 13 75  1  0
 15 76  1  0
 16 77  1  0
 17 78  1  0
 18 79  1  0
 20 80  1  0
 23 81  1  0
 23 82  1  0
 24 83  1  0
 27 84  1  1
 28 85  1  0
 28 86  1  0
 29 87  1  0
 29 88  1  0
 30 89  1  0
 30 90  1  0
 34 91  1  1
 35 92  1  0
 35 93  1  0
 36 94  1  0
 36 95  1  0
 38 96  1  0
 39 97  1  0
 41 98  1  0
 42 99  1  0
 43100  1  0
 44101  1  0
 48102  1  0
 49103  1  6
 50104  1  0
 50105  1  0
 52106  1  0
 53107  1  0
 54108  1  0
 55109  1  0
 56110  1  0
 58111  1  0
 58112  1  0
M  END
$$$$
[H]Oc1c([H])c([H])c(C([H])([H])[C@@]2([H])C(=O)N([H])[C@@]([H])(C([H])([H])c3c([H])n([H])c4c([H])c([H])c([H])c([H])c34)C(=O)N3C([H])([H])C([H])([H])C([H])([H])[C@@]3([H])C(=O)N([H])[C@@]([H])(C([H])([H])c3c([H])n([H])c4c([H])c([H])c([H])c([H])c34)C(=O)N([H])[C@@]([H])(C([H])(C([H])([H])[H])C([H])([H])[H])C(=O)N2[H])c([H])c1[H]
     RDKit          3D

 99105  0  0  0  0  0  0  0  0999 V2000
    3.0849    4.8766    1.2331 C   0  0  0  0  0  0  0  0  0  0  0  0
    3.1913    3.7572    0.2495 C   0  0  0  0  0  0  0  0  0  0  0  0
    3.4438    4.2154   -1.1664 C   0  0  0  0  0  0  0  0  0  0  0  0
    1.9668    2.8245    0.3355 C   0  0  2  0  0  0  0  0  0  0  0  0
    2.1008    1.7776   -0.6167 N   0  0  0  0  0  0  0  0  0  0  0  0
    2.7200    0.5187   -0.4640 C   0  0  0  0  0  0  0  0  0  0  0  0
    3.1510   -0.0359   -1.5087 O   0  0  0  0  0  0  0  0  0  0  0  0
    2.9048   -0.2034    0.8189 C   0  0  2  0  0  0  0  0  0  0  0  0
    3.8346   -1.3865    0.7121 C   0  0  0  0  0  0  0  0  0  0  0  0
    5.2042   -1.0243    0.2824 C   0  0  0  0  0  0  0  0  0  0  0  0
    5.7805    0.2004    0.0671 C   0  0  0  0  0  0  0  0  0  0  0  0
    7.0576    0.0233   -0.3111 N   0  0  0  0  0  0  0  0  0  0  0  0
    7.3409   -1.3038   -0.3510 C   0  0  0  0  0  0  0  0  0  0  0  0
    8.4925   -1.9759   -0.6751 C   0  0  0  0  0  0  0  0  0  0  0  0
    8.5189   -3.3476   -0.6369 C   0  0  0  0  0  0  0  0  0  0  0  0
    7.3534   -4.0087   -0.2637 C   0  0  0  0  0  0  0  0  0  0  0  0
    6.2041   -3.3533    0.0604 C   0  0  0  0  0  0  0  0  0  0  0  0
    6.1834   -1.9563    0.0196 C   0  0  0  0  0  0  0  0  0  0  0  0
    1.6888   -0.4585    1.5106 N   0  0  0  0  0  0  0  0  0  0  0  0
    0.8467   -1.5557    1.5802 C   0  0  0  0  0  0  0  0  0  0  0  0
    0.4122   -1.8099    2.7887 O   0  0  0  0  0  0  0  0  0  0  0  0
    0.3186   -2.5035    0.6511 C   0  0  2  0  0  0  0  0  0  0  0  0
    0.4529   -2.3694   -0.7970 C   0  0  0  0  0  0  0  0  0  0  0  0
   -0.4999   -3.4663   -1.3067 C   0  0  0  0  0  0  0  0  0  0  0  0
   -1.0775   -4.0782   -0.0186 C   0  0  0  0  0  0  0  0  0  0  0  0
   -1.1142   -2.8373    0.7814 N   0  0  0  0  0  0  0  0  0  0  0  0
   -2.1053   -2.1513    1.4685 C   0  0  0  0  0  0  0  0  0  0  0  0
   -2.5046   -2.7603    2.5532 O   0  0  0  0  0  0  0  0  0  0  0  0
   -2.7983   -0.8882    1.2358 C   0  0  2  0  0  0  0  0  0  0  0  0
   -4.2814   -1.0442    0.9867 C   0  0  0  0  0  0  0  0  0  0  0  0
   -4.6867   -1.8180   -0.1741 C   0  0  0  0  0  0  0  0  0  0  0  0
   -4.8260   -1.2268   -1.4446 C   0  0  0  0  0  0  0  0  0  0  0  0
   -5.1422   -2.2032   -2.2925 N   0  0  0  0  0  0  0  0  0  0  0  0
   -5.2195   -3.3876   -1.6610 C   0  0  0  0  0  0  0  0  0  0  0  0
   -5.5373   -4.6429   -2.1589 C   0  0  0  0  0  0  0  0  0  0  0  0
   -5.5720   -5.6925   -1.2895 C   0  0  0  0  0  0  0  0  0  0  0  0
   -5.2932   -5.4750    0.0433 C   0  0  0  0  0  0  0  0  0  0  0  0
   -4.9806   -4.2398    0.5275 C   0  0  0  0  0  0  0  0  0  0  0  0
   -4.9349   -3.1590   -0.3224 C   0  0  0  0  0  0  0  0  0  0  0  0
   -2.3240   -0.1638    0.0646 N   0  0  0  0  0  0  0  0  0  0  0  0
   -2.0506    1.1754   -0.0970 C   0  0  0  0  0  0  0  0  0  0  0  0
   -2.5454    1.7305   -1.1538 O   0  0  0  0  0  0  0  0  0  0  0  0
   -1.2706    2.1034    0.7464 C   0  0  2  0  0  0  0  0  0  0  0  0
   -2.1913    2.8865    1.6399 C   0  0  0  0  0  0  0  0  0  0  0  0
   -3.1805    3.7213    0.9287 C   0  0  0  0  0  0  0  0  0  0  0  0
   -4.4521    3.2926    0.6141 C   0  0  0  0  0  0  0  0  0  0  0  0
   -5.3439    4.0973   -0.0482 C   0  0  0  0  0  0  0  0  0  0  0  0
   -4.9932    5.3646   -0.4205 C   0  0  0  0  0  0  0  0  0  0  0  0
   -5.8619    6.2353   -1.1008 O   0  0  0  0  0  0  0  0  0  0  0  0
   -3.7273    5.7959   -0.1088 C   0  0  0  0  0  0  0  0  0  0  0  0
   -2.8125    5.0169    0.5522 C   0  0  0  0  0  0  0  0  0  0  0  0
   -0.5675    3.0884   -0.0719 N   0  0  0  0  0  0  0  0  0  0  0  0
    0.7189    3.5710    0.0685 C   0  0  0  0  0  0  0  0  0  0  0  0
    0.8621    4.8409   -0.0473 O   0  0  0  0  0  0  0  0  0  0  0  0
    2.2760    4.6363    1.9589 H   0  0  0  0  0  0  0  0  0  0  0  0
    4.0130    4.9621    1.8317 H   0  0  0  0  0  0  0  0  0  0  0  0
    2.9422    5.8772    0.7662 H   0  0  0  0  0  0  0  0  0  0  0  0
    4.1000    3.1520    0.5406 H   0  0  0  0  0  0  0  0  0  0  0  0
    4.5443    4.4289   -1.2450 H   0  0  0  0  0  0  0  0  0  0  0  0
    2.8397    5.0661   -1.4824 H   0  0  0  0  0  0  0  0  0  0  0  0
    3.2734    3.3084   -1.8170 H   0  0  0  0  0  0  0  0  0  0  0  0
    1.9407    2.5329    1.3969 H   0  0  0  0  0  0  0  0  0  0  0  0
    1.6713    1.9856   -1.5760 H   0  0  0  0  0  0  0  0  0  0  0  0
    3.5266    0.5384    1.4336 H   0  0  0  0  0  0  0  0  0  0  0  0
    3.8628   -1.9375    1.6792 H   0  0  0  0  0  0  0  0  0  0  0  0
    3.4666   -2.0719   -0.0976 H   0  0  0  0  0  0  0  0  0  0  0  0
    5.3066    1.1405    0.1775 H   0  0  0  0  0  0  0  0  0  0  0  0
    7.7569    0.7614   -0.5465 H   0  0  0  0  0  0  0  0  0  0  0  0
    9.3703   -1.4226   -0.9581 H   0  0  0  0  0  0  0  0  0  0  0  0
    9.4242   -3.8773   -0.8922 H   0  0  0  0  0  0  0  0  0  0  0  0
    7.3568   -5.1074   -0.2278 H   0  0  0  0  0  0  0  0  0  0  0  0
    5.2839   -3.8567    0.3545 H   0  0  0  0  0  0  0  0  0  0  0  0
    1.3548    0.3749    2.1104 H   0  0  0  0  0  0  0  0  0  0  0  0
    0.8254   -3.5055    0.9225 H   0  0  0  0  0  0  0  0  0  0  0  0
    1.4531   -2.6766   -1.2006 H   0  0  0  0  0  0  0  0  0  0  0  0
    0.1045   -1.4259   -1.2220 H   0  0  0  0  0  0  0  0  0  0  0  0
   -1.3277   -3.0499   -1.8839 H   0  0  0  0  0  0  0  0  0  0  0  0
    0.0213   -4.2555   -1.8607 H   0  0  0  0  0  0  0  0  0  0  0  0
   -1.9780   -4.6193   -0.1377 H   0  0  0  0  0  0  0  0  0  0  0  0
   -0.3110   -4.7172    0.4742 H   0  0  0  0  0  0  0  0  0  0  0  0
   -2.7375   -0.2052    2.1407 H   0  0  0  0  0  0  0  0  0  0  0  0
   -4.7636   -0.0463    0.9428 H   0  0  0  0  0  0  0  0  0  0  0  0
   -4.7035   -1.5132    1.9236 H   0  0  0  0  0  0  0  0  0  0  0  0
   -4.7020   -0.1792   -1.6963 H   0  0  0  0  0  0  0  0  0  0  0  0
   -5.3087   -2.0653   -3.3189 H   0  0  0  0  0  0  0  0  0  0  0  0
   -5.7472   -4.7487   -3.2220 H   0  0  0  0  0  0  0  0  0  0  0  0
   -5.8223   -6.6733   -1.6905 H   0  0  0  0  0  0  0  0  0  0  0  0
   -5.3401   -6.3590    0.6817 H   0  0  0  0  0  0  0  0  0  0  0  0
   -4.7763   -4.0737    1.5677 H   0  0  0  0  0  0  0  0  0  0  0  0
   -2.1926   -0.8006   -0.7822 H   0  0  0  0  0  0  0  0  0  0  0  0
   -0.5672    1.5709    1.4203 H   0  0  0  0  0  0  0  0  0  0  0  0
   -1.5787    3.5233    2.3482 H   0  0  0  0  0  0  0  0  0  0  0  0
   -2.7805    2.2295    2.3189 H   0  0  0  0  0  0  0  0  0  0  0  0
   -4.7858    2.2887    0.8930 H   0  0  0  0  0  0  0  0  0  0  0  0
   -6.3513    3.7745   -0.3039 H   0  0  0  0  0  0  0  0  0  0  0  0
   -6.4787    6.8655   -0.6178 H   0  0  0  0  0  0  0  0  0  0  0  0
   -3.4108    6.7963   -0.3880 H   0  0  0  0  0  0  0  0  0  0  0  0
   -1.8199    5.3329    0.8112 H   0  0  0  0  0  0  0  0  0  0  0  0
   -1.1701    3.4545   -0.8727 H   0  0  0  0  0  0  0  0  0  0  0  0
  1  2  1  0
  2  3  1  0
  2  4  1  0
  4  5  1  0
  5  6  1  0
  6  7  2  0
  6  8  1  0
  8  9  1  0
  9 10  1  0
 10 11  2  0
 11 12  1  0
 12 13  1  0
 13 14  2  0
 14 15  1  0
 15 16  2  0
 16 17  1  0
 17 18  2  0
  8 19  1  0
 19 20  1  0
 20 21  2  0
 20 22  1  0
 22 23  1  0
 23 24  1  0
 24 25  1  0
 25 26  1  0
 26 27  1  0
 27 28  2  0
 27 29  1  0
 29 30  1  0
 30 31  1  0
 31 32  2  0
 32 33  1  0
 33 34  1  0
 34 35  2  0
 35 36  1  0
 36 37  2  0
 37 38  1  0
 38 39  2  0
 29 40  1  0
 40 41  1  0
 41 42  2  0
 41 43  1  0
 43 44  1  0
 44 45  1  0
 45 46  2  0
 46 47  1  0
 47 48  2  0
 48 49  1  0
 48 50  1  0
 50 51  2  0
 43 52  1  0
 52 53  1  0
 53 54  2  0
 53  4  1  0
 18 10  1  0
 26 22  1  0
 39 31  1  0
 51 45  1  0
 18 13  1  0
 39 34  1  0
  1 55  1  0
  1 56  1  0
  1 57  1  0
  2 58  1  0
  3 59  1  0
  3 60  1  0
  3 61  1  0
  4 62  1  1
  5 63  1  0
  8 64  1  1
  9 65  1  0
  9 66  1  0
 11 67  1  0
 12 68  1  0
 14 69  1  0
 15 70  1  0
 16 71  1  0
 17 72  1  0
 19 73  1  0
 22 74  1  1
 23 75  1  0
 23 76  1  0
 24 77  1  0
 24 78  1  0
 25 79  1  0
 25 80  1  0
 29 81  1  1
 30 82  1  0
 30 83  1  0
 32 84  1  0
 33 85  1  0
 35 86  1  0
 36 87  1  0
 37 88  1  0
 38 89  1  0
 40 90  1  0
 43 91  1  1
 44 92  1  0
 44 93  1  0
 46 94  1  0
 47 95  1  0
 49 96  1  0
 50 97  1  0
 51 98  1  0
 52 99  1  0
M  END
$$$$
[H]c1c([H])c([C@]([H])(N([H])[C@]([H])(C(=O)N([H])C([H])([H])C#N)C([H])([H])C([H])(C([H])([H])[H])C([H])([H])[H])C(F)(F)F)c([H])c([H])c1-c1c([H])c([H])c(S(=O)(=O)C([H])([H])[H])c([H])c1[H]
     RDKit          3D

 59 60  0  0  0  0  0  0  0  0999 V2000
   -4.3666   -2.8466    1.0270 C   0  0  0  0  0  0  0  0  0  0  0  0
   -3.9577   -1.5421    1.6613 C   0  0  0  0  0  0  0  0  0  0  0  0
   -5.1403   -0.7838    2.2020 C   0  0  0  0  0  0  0  0  0  0  0  0
   -2.9786   -0.7521    0.9502 C   0  0  0  0  0  0  0  0  0  0  0  0
   -3.2410   -0.2521   -0.4636 C   0  0  2  0  0  0  0  0  0  0  0  0
   -2.0854    0.4375   -0.8327 N   0  0  0  0  0  0  0  0  0  0  0  0
   -1.4821    1.5629   -0.3577 C   0  0  1  0  0  0  0  0  0  0  0  0
   -0.0007    1.2965   -0.2248 C   0  0  0  0  0  0  0  0  0  0  0  0
    0.7419    1.7515    0.8391 C   0  0  0  0  0  0  0  0  0  0  0  0
    2.0760    1.4346    0.9412 C   0  0  0  0  0  0  0  0  0  0  0  0
    2.6963    0.6507   -0.0252 C   0  0  0  0  0  0  0  0  0  0  0  0
    1.9308    0.2126   -1.0754 C   0  0  0  0  0  0  0  0  0  0  0  0
    0.5805    0.5261   -1.1925 C   0  0  0  0  0  0  0  0  0  0  0  0
    4.1062    0.2990    0.0888 C   0  0  0  0  0  0  0  0  0  0  0  0
    4.5346   -0.9216   -0.4208 C   0  0  0  0  0  0  0  0  0  0  0  0
    5.8502   -1.2756   -0.3176 C   0  0  0  0  0  0  0  0  0  0  0  0
    6.7606   -0.4411    0.2832 C   0  0  0  0  0  0  0  0  0  0  0  0
    6.3206    0.7671    0.7824 C   0  0  0  0  0  0  0  0  0  0  0  0
    5.0137    1.1492    0.6958 C   0  0  0  0  0  0  0  0  0  0  0  0
    8.4371   -0.8867    0.4370 S   0  0  0  0  0  0  0  0  0  0  0  0
    9.3700   -0.5147   -1.0148 C   0  0  0  0  0  0  0  0  0  0  0  0
    8.5088   -2.3418    0.7887 O   0  0  0  0  0  0  0  0  0  0  0  0
    9.0581   -0.1494    1.6155 O   0  0  0  0  0  0  0  0  0  0  0  0
   -1.6669    2.9175   -0.9468 C   0  0  0  0  0  0  0  0  0  0  0  0
   -1.2733    2.9173   -2.3094 F   0  0  0  0  0  0  0  0  0  0  0  0
   -0.6391    3.7829   -0.3974 F   0  0  0  0  0  0  0  0  0  0  0  0
   -2.7916    3.6118   -0.7438 F   0  0  0  0  0  0  0  0  0  0  0  0
   -4.5185    0.3401   -0.7071 C   0  0  0  0  0  0  0  0  0  0  0  0
   -4.9543    1.4883   -0.4997 O   0  0  0  0  0  0  0  0  0  0  0  0
   -5.5465   -0.5074   -1.3175 N   0  0  0  0  0  0  0  0  0  0  0  0
   -6.8636   -0.0571   -1.6207 C   0  0  0  0  0  0  0  0  0  0  0  0
   -7.6416    0.3988   -0.4785 C   0  0  0  0  0  0  0  0  0  0  0  0
   -8.2554    0.7501    0.4593 N   0  0  0  0  0  0  0  0  0  0  0  0
   -5.4621   -2.7195    0.7735 H   0  0  0  0  0  0  0  0  0  0  0  0
   -4.3303   -3.6902    1.7397 H   0  0  0  0  0  0  0  0  0  0  0  0
   -3.7835   -3.1254    0.1477 H   0  0  0  0  0  0  0  0  0  0  0  0
   -3.4143   -1.8955    2.6282 H   0  0  0  0  0  0  0  0  0  0  0  0
   -5.3152   -0.9671    3.2926 H   0  0  0  0  0  0  0  0  0  0  0  0
   -6.0837   -1.1820    1.7251 H   0  0  0  0  0  0  0  0  0  0  0  0
   -5.0446    0.3141    2.1151 H   0  0  0  0  0  0  0  0  0  0  0  0
   -2.7034    0.1478    1.5740 H   0  0  0  0  0  0  0  0  0  0  0  0
   -1.9841   -1.2879    0.8467 H   0  0  0  0  0  0  0  0  0  0  0  0
   -3.2065   -1.2135   -1.1213 H   0  0  0  0  0  0  0  0  0  0  0  0
   -1.8947    0.3069   -1.8964 H   0  0  0  0  0  0  0  0  0  0  0  0
   -1.7640    1.7367    0.7714 H   0  0  0  0  0  0  0  0  0  0  0  0
    0.2645    2.3561    1.5873 H   0  0  0  0  0  0  0  0  0  0  0  0
    2.7034    1.7752    1.7765 H   0  0  0  0  0  0  0  0  0  0  0  0
    2.4085   -0.4012   -1.8419 H   0  0  0  0  0  0  0  0  0  0  0  0
    0.0798    0.1304   -2.0607 H   0  0  0  0  0  0  0  0  0  0  0  0
    3.8521   -1.6214   -0.9075 H   0  0  0  0  0  0  0  0  0  0  0  0
    6.1598   -2.2306   -0.7212 H   0  0  0  0  0  0  0  0  0  0  0  0
    7.0554    1.4303    1.2602 H   0  0  0  0  0  0  0  0  0  0  0  0
    4.6266    2.0810    1.0717 H   0  0  0  0  0  0  0  0  0  0  0  0
   10.3216   -1.1150   -0.9924 H   0  0  0  0  0  0  0  0  0  0  0  0
    8.7949   -0.8208   -1.9358 H   0  0  0  0  0  0  0  0  0  0  0  0
    9.6464    0.5579   -1.0386 H   0  0  0  0  0  0  0  0  0  0  0  0
   -5.3173   -1.5088   -1.5663 H   0  0  0  0  0  0  0  0  0  0  0  0
   -6.7376    0.7705   -2.3789 H   0  0  0  0  0  0  0  0  0  0  0  0
   -7.4535   -0.8504   -2.1323 H   0  0  0  0  0  0  0  0  0  0  0  0
  1  2  1  0
  2  3  1  0
  2  4  1  0
  4  5  1  0
  5  6  1  0
  6  7  1  0
  7  8  1  0
  8  9  2  0
  9 10  1  0
 10 11  2  0
 11 12  1  0
 12 13  2  0
 11 14  1  0
 14 15  2  0
 15 16  1  0
 16 17  2  0
 17 18  1  0
 18 19  2  0
 17 20  1  0
 20 21  1  0
 20 22  2  0
 20 23  2  0
  7 24  1  0
 24 25  1  0
 24 26  1  0
 24 27  1  0
  5 28  1  0
 28 29  2  0
 28 30  1  0
 30 31  1  0
 31 32  1  0
 32 33  3  0
 13  8  1  0
 19 14  1  0
  1 34  1  0
  1 35  1  0
  1 36  1  0
  2 37  1  0
  3 38  1  0
  3 39  1  0
  3 40  1  0
  4 41  1  0
  4 42  1  0
  5 43  1  6
  6 44  1  0
  7 45  1  1
  9 46  1  0
 10 47  1  0
 12 48  1  0
 13 49  1  0
 15 50  1  0
 16 51  1  0
 18 52  1  0
 19 53  1  0
 21 54  1  0
 21 55  1  0
 21 56  1  0
 30 57  1  0
 31 58  1  0
 31 59  1  0
M  END
$$$$
[H]/C(=C1/C(=O)N([H])c2c1c([H])c([H])c([H])c2C([H])([H])[H])c1c(C([H])([H])[H])c(C(=O)OC([H])([H])C([H])([H])[H])c(C([H])([H])[H])n1[H]
     RDKit          3D

 44 46  0  0  0  0  0  0  0  0999 V2000
    6.2152    0.8895    2.0504 C   0  0  0  0  0  0  0  0  0  0  0  0
    5.9508   -0.0359    0.8633 C   0  0  0  0  0  0  0  0  0  0  0  0
    4.6203    0.1478    0.4839 O   0  0  0  0  0  0  0  0  0  0  0  0
    3.9711   -0.4960   -0.5530 C   0  0  0  0  0  0  0  0  0  0  0  0
    4.6283   -1.3279   -1.2263 O   0  0  0  0  0  0  0  0  0  0  0  0
    2.5840   -0.2740   -0.9138 C   0  0  0  0  0  0  0  0  0  0  0  0
    2.1181    0.6621   -1.8108 C   0  0  0  0  0  0  0  0  0  0  0  0
    3.0109    1.5961   -2.5467 C   0  0  0  0  0  0  0  0  0  0  0  0
    0.7749    0.5591   -1.8753 N   0  0  0  0  0  0  0  0  0  0  0  0
    0.3297   -0.4117   -1.0528 C   0  0  0  0  0  0  0  0  0  0  0  0
   -0.9895   -0.8965   -0.7428 C   0  0  0  0  0  0  0  0  0  0  0  0
   -1.9397   -0.1302   -0.3036 C   0  0  0  0  0  0  0  0  0  0  0  0
   -1.9279    1.2980   -0.0238 C   0  0  0  0  0  0  0  0  0  0  0  0
   -0.9705    2.0894   -0.1309 O   0  0  0  0  0  0  0  0  0  0  0  0
   -3.2474    1.6431    0.4120 N   0  0  0  0  0  0  0  0  0  0  0  0
   -4.0557    0.4734    0.4063 C   0  0  0  0  0  0  0  0  0  0  0  0
   -5.4005    0.2506    0.7371 C   0  0  0  0  0  0  0  0  0  0  0  0
   -6.1828    1.4456    1.1924 C   0  0  0  0  0  0  0  0  0  0  0  0
   -5.9898   -0.9928    0.6555 C   0  0  0  0  0  0  0  0  0  0  0  0
   -5.2153   -2.0504    0.2305 C   0  0  0  0  0  0  0  0  0  0  0  0
   -3.8919   -1.8624   -0.1013 C   0  0  0  0  0  0  0  0  0  0  0  0
   -3.3202   -0.6087   -0.0127 C   0  0  0  0  0  0  0  0  0  0  0  0
    1.4773   -0.9383   -0.4451 C   0  0  0  0  0  0  0  0  0  0  0  0
    1.4578   -2.0379    0.5418 C   0  0  0  0  0  0  0  0  0  0  0  0
    5.6472    1.8308    1.8347 H   0  0  0  0  0  0  0  0  0  0  0  0
    7.3019    1.1640    2.1097 H   0  0  0  0  0  0  0  0  0  0  0  0
    5.8498    0.4212    2.9861 H   0  0  0  0  0  0  0  0  0  0  0  0
    6.1497   -1.0748    1.2436 H   0  0  0  0  0  0  0  0  0  0  0  0
    6.6904    0.1315    0.0438 H   0  0  0  0  0  0  0  0  0  0  0  0
    3.7761    2.0221   -1.8636 H   0  0  0  0  0  0  0  0  0  0  0  0
    2.4083    2.4441   -2.9470 H   0  0  0  0  0  0  0  0  0  0  0  0
    3.5357    1.0600   -3.3710 H   0  0  0  0  0  0  0  0  0  0  0  0
    0.1755    1.1535   -2.5006 H   0  0  0  0  0  0  0  0  0  0  0  0
   -1.2013   -1.9695   -0.8851 H   0  0  0  0  0  0  0  0  0  0  0  0
   -3.5672    2.5843    0.6869 H   0  0  0  0  0  0  0  0  0  0  0  0
   -6.8476    1.1312    2.0222 H   0  0  0  0  0  0  0  0  0  0  0  0
   -5.5228    2.2709    1.4530 H   0  0  0  0  0  0  0  0  0  0  0  0
   -6.8147    1.7303    0.3126 H   0  0  0  0  0  0  0  0  0  0  0  0
   -7.0336   -1.1019    0.9249 H   0  0  0  0  0  0  0  0  0  0  0  0
   -5.6569   -3.0564    0.1545 H   0  0  0  0  0  0  0  0  0  0  0  0
   -3.2660   -2.6801   -0.4371 H   0  0  0  0  0  0  0  0  0  0  0  0
    2.2203   -2.7944    0.2530 H   0  0  0  0  0  0  0  0  0  0  0  0
    1.6717   -1.7089    1.5754 H   0  0  0  0  0  0  0  0  0  0  0  0
    0.4763   -2.5497    0.5699 H   0  0  0  0  0  0  0  0  0  0  0  0
  1  2  1  0
  2  3  1  0
  3  4  1  0
  4  5  2  0
  4  6  1  0
  6  7  2  0
  7  8  1  0
  7  9  1  0
  9 10  1  0
 10 11  1  0
 11 12  2  0
 12 13  1  0
 13 14  2  0
 13 15  1  0
 15 16  1  0
 16 17  2  0
 17 18  1  0
 17 19  1  0
 19 20  2  0
 20 21  1  0
 21 22  2  0
 10 23  2  0
 23 24  1  0
 23  6  1  0
 22 12  1  0
 22 16  1  0
  1 25  1  0
  1 26  1  0
  1 27  1  0
  2 28  1  0
  2 29  1  0
  8 30  1  0
  8 31  1  0
  8 32  1  0
  9 33  1  0
 11 34  1  0
 15 35  1  0
 18 36  1  0
 18 37  1  0
 18 38  1  0
 19 39  1  0
 20 40  1  0
 21 41  1  0
 24 42  1  0
 24 43  1  0
 24 44  1  0
M  END
$$$$
[H]c1nc(C([H])([H])[H])c([H])c([H])c1C(=O)N([H])c1c([H])c(N([H])C(=O)c2c([H])c([H])c(C([H])([H])N3C([H])([H])C([H])([H])N(C([H])([H])[H])C([H])([H])C3([H])[H])c(C(F)(F)F)c2[H])c([H])c([H])c1C([H])([H])[H]
     RDKit          3D

 68 71  0  0  0  0  0  0  0  0999 V2000
   -7.4704    3.2651    0.3944 C   0  0  0  0  0  0  0  0  0  0  0  0
   -7.8775    2.0417    1.0061 N   0  0  0  0  0  0  0  0  0  0  0  0
   -6.8958    1.3863    1.8075 C   0  0  0  0  0  0  0  0  0  0  0  0
   -6.5363    0.0770    1.1259 C   0  0  0  0  0  0  0  0  0  0  0  0
   -6.3486    0.2164   -0.2965 N   0  0  0  0  0  0  0  0  0  0  0  0
   -5.5297   -0.7590   -0.9223 C   0  0  0  0  0  0  0  0  0  0  0  0
   -4.1082   -0.7698   -0.6556 C   0  0  0  0  0  0  0  0  0  0  0  0
   -3.4780    0.1861    0.1436 C   0  0  0  0  0  0  0  0  0  0  0  0
   -2.1245    0.1738    0.3743 C   0  0  0  0  0  0  0  0  0  0  0  0
   -1.3565   -0.8086   -0.1977 C   0  0  0  0  0  0  0  0  0  0  0  0
   -1.9606   -1.7451   -0.9801 C   0  0  0  0  0  0  0  0  0  0  0  0
   -3.3419   -1.7589   -1.2340 C   0  0  0  0  0  0  0  0  0  0  0  0
   -3.8915   -2.7647   -2.0731 C   0  0  0  0  0  0  0  0  0  0  0  0
   -4.8500   -3.6003   -1.6352 F   0  0  0  0  0  0  0  0  0  0  0  0
   -2.8493   -3.6479   -2.4525 F   0  0  0  0  0  0  0  0  0  0  0  0
   -4.2524   -2.2281   -3.3196 F   0  0  0  0  0  0  0  0  0  0  0  0
    0.1061   -0.8319    0.0307 C   0  0  0  0  0  0  0  0  0  0  0  0
    0.6465    0.2574    0.3115 O   0  0  0  0  0  0  0  0  0  0  0  0
    0.8063   -2.0236   -0.0702 N   0  0  0  0  0  0  0  0  0  0  0  0
    2.1962   -2.2576    0.1009 C   0  0  0  0  0  0  0  0  0  0  0  0
    2.6497   -3.5754    0.2332 C   0  0  0  0  0  0  0  0  0  0  0  0
    3.9794   -3.8578    0.3860 C   0  0  0  0  0  0  0  0  0  0  0  0
    4.9340   -2.8768    0.4181 C   0  0  0  0  0  0  0  0  0  0  0  0
    6.3738   -3.2433    0.5885 C   0  0  0  0  0  0  0  0  0  0  0  0
    4.5188   -1.5461    0.2885 C   0  0  0  0  0  0  0  0  0  0  0  0
    5.5357   -0.5651    0.3263 N   0  0  0  0  0  0  0  0  0  0  0  0
    5.4068    0.8211    0.2195 C   0  0  0  0  0  0  0  0  0  0  0  0
    4.3164    1.3939    0.0709 O   0  0  0  0  0  0  0  0  0  0  0  0
    6.5845    1.7036    0.2790 C   0  0  0  0  0  0  0  0  0  0  0  0
    7.8703    1.2446    0.2072 C   0  0  0  0  0  0  0  0  0  0  0  0
    8.9151    2.1604    0.2790 C   0  0  0  0  0  0  0  0  0  0  0  0
    8.7313    3.5146    0.4193 C   0  0  0  0  0  0  0  0  0  0  0  0
    9.8308    4.5001    0.4963 C   0  0  0  0  0  0  0  0  0  0  0  0
    7.4454    3.9268    0.4863 N   0  0  0  0  0  0  0  0  0  0  0  0
    6.4289    3.0847    0.4214 C   0  0  0  0  0  0  0  0  0  0  0  0
    3.1623   -1.2758    0.1335 C   0  0  0  0  0  0  0  0  0  0  0  0
   -7.5675    0.5356   -0.9290 C   0  0  0  0  0  0  0  0  0  0  0  0
   -8.5064    1.1072    0.1341 C   0  0  0  0  0  0  0  0  0  0  0  0
   -7.8931    3.2699   -0.6514 H   0  0  0  0  0  0  0  0  0  0  0  0
   -6.3739    3.3324    0.3111 H   0  0  0  0  0  0  0  0  0  0  0  0
   -7.9195    4.1239    0.9333 H   0  0  0  0  0  0  0  0  0  0  0  0
   -5.9714    1.9773    1.9578 H   0  0  0  0  0  0  0  0  0  0  0  0
   -7.3580    1.0982    2.7878 H   0  0  0  0  0  0  0  0  0  0  0  0
   -5.6527   -0.3344    1.6413 H   0  0  0  0  0  0  0  0  0  0  0  0
   -7.3508   -0.6674    1.3461 H   0  0  0  0  0  0  0  0  0  0  0  0
   -5.8199   -0.9526   -1.9844 H   0  0  0  0  0  0  0  0  0  0  0  0
   -5.9025   -1.7396   -0.4516 H   0  0  0  0  0  0  0  0  0  0  0  0
   -4.0798    0.9809    0.5842 H   0  0  0  0  0  0  0  0  0  0  0  0
   -1.6658    0.9139    0.9886 H   0  0  0  0  0  0  0  0  0  0  0  0
   -1.3548   -2.5143   -1.4365 H   0  0  0  0  0  0  0  0  0  0  0  0
    0.2171   -2.8968   -0.3100 H   0  0  0  0  0  0  0  0  0  0  0  0
    1.8911   -4.3625    0.2095 H   0  0  0  0  0  0  0  0  0  0  0  0
    4.3093   -4.8931    0.4875 H   0  0  0  0  0  0  0  0  0  0  0  0
    6.8752   -3.0917   -0.3721 H   0  0  0  0  0  0  0  0  0  0  0  0
    6.8405   -2.7020    1.4392 H   0  0  0  0  0  0  0  0  0  0  0  0
    6.4480   -4.3196    0.8429 H   0  0  0  0  0  0  0  0  0  0  0  0
    6.5352   -0.9429    0.4580 H   0  0  0  0  0  0  0  0  0  0  0  0
    8.0994    0.1922    0.0934 H   0  0  0  0  0  0  0  0  0  0  0  0
    9.9200    1.7927    0.2223 H   0  0  0  0  0  0  0  0  0  0  0  0
   10.7556    3.9811    0.8133 H   0  0  0  0  0  0  0  0  0  0  0  0
    9.5957    5.2806    1.2396 H   0  0  0  0  0  0  0  0  0  0  0  0
    9.9754    5.0296   -0.4848 H   0  0  0  0  0  0  0  0  0  0  0  0
    5.4014    3.4719    0.4809 H   0  0  0  0  0  0  0  0  0  0  0  0
    2.8497   -0.2677    0.0262 H   0  0  0  0  0  0  0  0  0  0  0  0
   -8.0668   -0.3978   -1.2704 H   0  0  0  0  0  0  0  0  0  0  0  0
   -7.4982    1.1976   -1.8057 H   0  0  0  0  0  0  0  0  0  0  0  0
   -9.2772    1.6834   -0.4588 H   0  0  0  0  0  0  0  0  0  0  0  0
   -9.0220    0.2961    0.6460 H   0  0  0  0  0  0  0  0  0  0  0  0
  1  2  1  0
  2  3  1  0
  3  4  1  0
  4  5  1  0
  5  6  1  0
  6  7  1  0
  7  8  2  0
  8  9  1  0
  9 10  2  0
 10 11  1  0
 11 12  2  0
 12 13  1  0
 13 14  1  0
 13 15  1  0
 13 16  1  0
 10 17  1  0
 17 18  2  0
 17 19  1  0
 19 20  1  0
 20 21  2  0
 21 22  1  0
 22 23  2  0
 23 24  1  0
 23 25  1  0
 25 26  1  0
 26 27  1  0
 27 28  2  0
 27 29  1  0
 29 30  2  0
 30 31  1  0
 31 32  2  0
 32 33  1  0
 32 34  1  0
 34 35  2  0
 25 36  2  0
  5 37  1  0
 37 38  1  0
 38  2  1  0
 12  7  1  0
 36 20  1  0
 35 29  1  0
  1 39  1  0
  1 40  1  0
  1 41  1  0
  3 42  1  0
  3 43  1  0
  4 44  1  0
  4 45  1  0
  6 46  1  0
  6 47  1  0
  8 48  1  0
  9 49  1  0
 11 50  1  0
 19 51  1  0
 21 52  1  0
 22 53  1  0
 24 54  1  0
 24 55  1  0
 24 56  1  0
 26 57  1  0
 30 58  1  0
 31 59  1  0
 33 60  1  0
 33 61  1  0
 33 62  1  0
 35 63  1  0
 36 64  1  0
 37 65  1  0
 37 66  1  0
 38 67  1  0
 38 68  1  0
M  END
$$$$
[H]N([H])C(=O)C([H])([H])C([H])([H])[C@@]([H])(C(=O)N([H])[H])N([H])C(=O)[C@@]([H])(N([H])C(=O)[C@@]([H])(N([H])C(=O)[C@@]([H])(N([H])C(=O)[C@@]([H])(N([H])C(=O)[C@@]([H])(N([H])C(=O)[C@@]([H])(N([H])C(=O)C([H])([H])[H])C([H])([H])C([H])([H])C(=O)N([H])[H])C([H])([H])C([H])([H])C(=O)N([H])[H])C([H])([H])C([H])([H])C(=O)N([H])[H])C([H])([H])C([H])(C([H])([H])[H])C([H])([H])[H])C([H])([H])C([H])([H])C(=O)N([H])[H])C([H])([H])C([H])([H])C(=O)N([H])[H]
     RDKit          3D

130129  0  0  0  0  0  0  0  0999 V2000
    1.0803    3.7026   -1.9377 C   0  0  0  0  0  0  0  0  0  0  0  0
    2.0371    3.3037   -0.8225 C   0  0  0  0  0  0  0  0  0  0  0  0
    2.6119    4.6606   -0.3265 C   0  0  0  0  0  0  0  0  0  0  0  0
    1.3754    2.6943    0.3438 C   0  0  0  0  0  0  0  0  0  0  0  0
    0.5962    1.4373    0.1852 C   0  0  2  0  0  0  0  0  0  0  0  0
    0.0022    1.1611    1.5423 N   0  0  0  0  0  0  0  0  0  0  0  0
   -1.2515    0.4117    1.5291 C   0  0  0  0  0  0  0  0  0  0  0  0
   -1.6100    0.0706    0.4051 O   0  0  0  0  0  0  0  0  0  0  0  0
   -2.0053    0.1218    2.7577 C   0  0  2  0  0  0  0  0  0  0  0  0
   -1.6319   -1.2018    3.3195 C   0  0  0  0  0  0  0  0  0  0  0  0
   -2.3011   -1.6486    4.5619 C   0  0  0  0  0  0  0  0  0  0  0  0
   -3.7233   -1.9320    4.5170 C   0  0  0  0  0  0  0  0  0  0  0  0
   -4.6686   -1.6746    5.5796 N   0  0  0  0  0  0  0  0  0  0  0  0
   -4.2625   -2.4658    3.4916 O   0  0  0  0  0  0  0  0  0  0  0  0
   -3.3985    0.3632    2.6353 N   0  0  0  0  0  0  0  0  0  0  0  0
   -4.2878    0.4672    1.5956 C   0  0  0  0  0  0  0  0  0  0  0  0
   -3.9757    0.2868    0.3792 O   0  0  0  0  0  0  0  0  0  0  0  0
   -5.7646    0.8033    1.7042 C   0  0  2  0  0  0  0  0  0  0  0  0
   -6.2227    1.2868    3.0071 C   0  0  0  0  0  0  0  0  0  0  0  0
   -5.5944    2.5720    3.4781 C   0  0  0  0  0  0  0  0  0  0  0  0
   -6.0861    2.9812    4.8096 C   0  0  0  0  0  0  0  0  0  0  0  0
   -5.3397    3.9441    5.5704 N   0  0  0  0  0  0  0  0  0  0  0  0
   -7.1318    2.5222    5.3087 O   0  0  0  0  0  0  0  0  0  0  0  0
   -6.5048   -0.1722    1.0115 N   0  0  0  0  0  0  0  0  0  0  0  0
   -6.7245   -0.3584   -0.3509 C   0  0  0  0  0  0  0  0  0  0  0  0
   -6.2780    0.3688   -1.2348 O   0  0  0  0  0  0  0  0  0  0  0  0
   -7.5700   -1.5533   -0.8124 C   0  0  2  0  0  0  0  0  0  0  0  0
   -6.7534   -2.7505   -0.2871 C   0  0  0  0  0  0  0  0  0  0  0  0
   -7.4087   -4.0658   -0.5924 C   0  0  0  0  0  0  0  0  0  0  0  0
   -8.7020   -4.1474    0.1238 C   0  0  0  0  0  0  0  0  0  0  0  0
   -9.7441   -5.0348   -0.1775 N   0  0  0  0  0  0  0  0  0  0  0  0
   -8.8923   -3.3527    1.0991 O   0  0  0  0  0  0  0  0  0  0  0  0
   -7.5627   -1.6565   -2.2293 N   0  0  0  0  0  0  0  0  0  0  0  0
   -8.7234   -1.6465   -3.0828 C   0  0  0  0  0  0  0  0  0  0  0  0
   -8.5718   -1.7898   -4.5451 C   0  0  0  0  0  0  0  0  0  0  0  0
   -9.8597   -1.5208   -2.5765 O   0  0  0  0  0  0  0  0  0  0  0  0
    1.3913    0.2999   -0.2081 C   0  0  0  0  0  0  0  0  0  0  0  0
    1.8039   -0.5842    0.5719 O   0  0  0  0  0  0  0  0  0  0  0  0
    1.7873    0.0598   -1.5849 N   0  0  0  0  0  0  0  0  0  0  0  0
    2.5954   -1.1242   -1.9391 C   0  0  1  0  0  0  0  0  0  0  0  0
    2.0401   -1.7629   -3.1347 C   0  0  0  0  0  0  0  0  0  0  0  0
    0.6029   -2.1912   -2.7651 C   0  0  0  0  0  0  0  0  0  0  0  0
   -0.0613   -2.8937   -3.8867 C   0  0  0  0  0  0  0  0  0  0  0  0
   -1.3727   -3.3514   -3.7547 N   0  0  0  0  0  0  0  0  0  0  0  0
    0.5748   -3.0656   -4.9461 O   0  0  0  0  0  0  0  0  0  0  0  0
    4.0082   -0.8554   -1.8220 C   0  0  0  0  0  0  0  0  0  0  0  0
    4.3091    0.2699   -1.2675 O   0  0  0  0  0  0  0  0  0  0  0  0
    5.1218   -1.6207   -2.2071 N   0  0  0  0  0  0  0  0  0  0  0  0
    6.4811   -1.1349   -1.9202 C   0  0  1  0  0  0  0  0  0  0  0  0
    6.9495   -0.0818   -2.8323 C   0  0  0  0  0  0  0  0  0  0  0  0
    7.0203   -0.4657   -4.2897 C   0  0  0  0  0  0  0  0  0  0  0  0
    7.9579   -1.5636   -4.5841 C   0  0  0  0  0  0  0  0  0  0  0  0
    7.9574   -2.2145   -5.8324 N   0  0  0  0  0  0  0  0  0  0  0  0
    8.8028   -1.9459   -3.6955 O   0  0  0  0  0  0  0  0  0  0  0  0
    6.5122   -0.6559   -0.5093 C   0  0  0  0  0  0  0  0  0  0  0  0
    5.9158   -1.4383    0.3422 O   0  0  0  0  0  0  0  0  0  0  0  0
    7.0792    0.5001   -0.0049 N   0  0  0  0  0  0  0  0  0  0  0  0
    7.0021    0.7827    1.3976 C   0  0  1  0  0  0  0  0  0  0  0  0
    8.3295    1.1858    1.9931 C   0  0  0  0  0  0  0  0  0  0  0  0
    8.8733    2.4345    1.3291 C   0  0  0  0  0  0  0  0  0  0  0  0
   10.1743    2.7716    2.0129 C   0  0  0  0  0  0  0  0  0  0  0  0
   10.9089    3.9102    1.6242 N   0  0  0  0  0  0  0  0  0  0  0  0
   10.6157    2.0443    2.9288 O   0  0  0  0  0  0  0  0  0  0  0  0
    6.0338    1.8684    1.7423 C   0  0  0  0  0  0  0  0  0  0  0  0
    5.8220    2.1750    3.1368 N   0  0  0  0  0  0  0  0  0  0  0  0
    5.3886    2.5372    0.9164 O   0  0  0  0  0  0  0  0  0  0  0  0
    1.3708    3.0291   -2.8008 H   0  0  0  0  0  0  0  0  0  0  0  0
    0.0352    3.4823   -1.7270 H   0  0  0  0  0  0  0  0  0  0  0  0
    1.2842    4.7197   -2.2807 H   0  0  0  0  0  0  0  0  0  0  0  0
    2.8681    2.6711   -1.1743 H   0  0  0  0  0  0  0  0  0  0  0  0
    2.9928    5.1843   -1.2178 H   0  0  0  0  0  0  0  0  0  0  0  0
    3.3549    4.5088    0.4608 H   0  0  0  0  0  0  0  0  0  0  0  0
    1.7140    5.2210    0.0289 H   0  0  0  0  0  0  0  0  0  0  0  0
    0.7458    3.5119    0.8252 H   0  0  0  0  0  0  0  0  0  0  0  0
    2.2302    2.5119    1.1044 H   0  0  0  0  0  0  0  0  0  0  0  0
   -0.3102    1.5602   -0.4700 H   0  0  0  0  0  0  0  0  0  0  0  0
    0.4686    1.4919    2.3493 H   0  0  0  0  0  0  0  0  0  0  0  0
   -1.5647    0.9054    3.5132 H   0  0  0  0  0  0  0  0  0  0  0  0
   -0.5172   -1.2278    3.5266 H   0  0  0  0  0  0  0  0  0  0  0  0
   -1.8459   -1.9914    2.5210 H   0  0  0  0  0  0  0  0  0  0  0  0
   -2.1015   -0.9277    5.4236 H   0  0  0  0  0  0  0  0  0  0  0  0
   -1.7832   -2.6024    4.9027 H   0  0  0  0  0  0  0  0  0  0  0  0
   -5.0140   -0.6878    5.7420 H   0  0  0  0  0  0  0  0  0  0  0  0
   -5.0435   -2.4127    6.1981 H   0  0  0  0  0  0  0  0  0  0  0  0
   -3.8689    0.4866    3.6253 H   0  0  0  0  0  0  0  0  0  0  0  0
   -5.7719    1.7678    1.0259 H   0  0  0  0  0  0  0  0  0  0  0  0
   -6.1625    0.4904    3.8157 H   0  0  0  0  0  0  0  0  0  0  0  0
   -7.3298    1.5075    2.9172 H   0  0  0  0  0  0  0  0  0  0  0  0
   -5.9235    3.3602    2.7130 H   0  0  0  0  0  0  0  0  0  0  0  0
   -4.5190    2.5741    3.4472 H   0  0  0  0  0  0  0  0  0  0  0  0
   -4.4352    4.3033    5.1810 H   0  0  0  0  0  0  0  0  0  0  0  0
   -5.6878    4.2903    6.5106 H   0  0  0  0  0  0  0  0  0  0  0  0
   -6.9989   -0.9065    1.6430 H   0  0  0  0  0  0  0  0  0  0  0  0
   -8.5711   -1.4941   -0.3848 H   0  0  0  0  0  0  0  0  0  0  0  0
   -5.7786   -2.6826   -0.8194 H   0  0  0  0  0  0  0  0  0  0  0  0
   -6.6175   -2.6564    0.8007 H   0  0  0  0  0  0  0  0  0  0  0  0
   -7.5397   -4.1743   -1.6925 H   0  0  0  0  0  0  0  0  0  0  0  0
   -6.6957   -4.8613   -0.2731 H   0  0  0  0  0  0  0  0  0  0  0  0
   -9.5313   -6.0170   -0.4628 H   0  0  0  0  0  0  0  0  0  0  0  0
  -10.7574   -4.7149   -0.1216 H   0  0  0  0  0  0  0  0  0  0  0  0
   -6.6339   -1.7656   -2.7319 H   0  0  0  0  0  0  0  0  0  0  0  0
   -8.1661   -0.8303   -4.9688 H   0  0  0  0  0  0  0  0  0  0  0  0
   -9.5267   -2.0994   -4.9812 H   0  0  0  0  0  0  0  0  0  0  0  0
   -7.7739   -2.5557   -4.7428 H   0  0  0  0  0  0  0  0  0  0  0  0
    1.4471    0.7280   -2.2923 H   0  0  0  0  0  0  0  0  0  0  0  0
    2.3850   -1.8437   -1.0475 H   0  0  0  0  0  0  0  0  0  0  0  0
    2.0082   -0.9875   -3.9573 H   0  0  0  0  0  0  0  0  0  0  0  0
    2.5729   -2.6112   -3.5550 H   0  0  0  0  0  0  0  0  0  0  0  0
    0.0650   -1.3260   -2.3857 H   0  0  0  0  0  0  0  0  0  0  0  0
    0.7300   -2.9279   -1.9275 H   0  0  0  0  0  0  0  0  0  0  0  0
   -1.6069   -4.1723   -3.1160 H   0  0  0  0  0  0  0  0  0  0  0  0
   -2.1414   -2.8953   -4.2797 H   0  0  0  0  0  0  0  0  0  0  0  0
    5.0109   -2.5112   -2.6939 H   0  0  0  0  0  0  0  0  0  0  0  0
    7.1403   -2.0409   -1.9846 H   0  0  0  0  0  0  0  0  0  0  0  0
    6.3492    0.8605   -2.7906 H   0  0  0  0  0  0  0  0  0  0  0  0
    7.9937    0.2758   -2.5725 H   0  0  0  0  0  0  0  0  0  0  0  0
    5.9735   -0.7395   -4.6065 H   0  0  0  0  0  0  0  0  0  0  0  0
    7.2665    0.4331   -4.9163 H   0  0  0  0  0  0  0  0  0  0  0  0
    7.1549   -2.8604   -6.1293 H   0  0  0  0  0  0  0  0  0  0  0  0
    8.7072   -2.1206   -6.5535 H   0  0  0  0  0  0  0  0  0  0  0  0
    7.5635    1.1761   -0.6355 H   0  0  0  0  0  0  0  0  0  0  0  0
    6.6349   -0.1084    1.9540 H   0  0  0  0  0  0  0  0  0  0  0  0
    8.1677    1.4048    3.0523 H   0  0  0  0  0  0  0  0  0  0  0  0
    9.0751    0.3769    1.9223 H   0  0  0  0  0  0  0  0  0  0  0  0
    9.0709    2.3107    0.2723 H   0  0  0  0  0  0  0  0  0  0  0  0
    8.2193    3.3128    1.4608 H   0  0  0  0  0  0  0  0  0  0  0  0
   11.8684    3.7674    1.2249 H   0  0  0  0  0  0  0  0  0  0  0  0
   10.5450    4.9021    1.7194 H   0  0  0  0  0  0  0  0  0  0  0  0
    4.9730    1.7912    3.6415 H   0  0  0  0  0  0  0  0  0  0  0  0
    6.4538    2.7582    3.6984 H   0  0  0  0  0  0  0  0  0  0  0  0
  1  2  1  0
  2  3  1  0
  2  4  1  0
  4  5  1  0
  5  6  1  0
  6  7  1  0
  7  8  2  0
  7  9  1  0
  9 10  1  0
 10 11  1  0
 11 12  1  0
 12 13  1  0
 12 14  2  0
  9 15  1  0
 15 16  1  0
 16 17  2  0
 16 18  1  0
 18 19  1  0
 19 20  1  0
 20 21  1  0
 21 22  1  0
 21 23  2  0
 18 24  1  0
 24 25  1  0
 25 26  2  0
 25 27  1  0
 27 28  1  0
 28 29  1  0
 29 30  1  0
 30 31  1  0
 30 32  2  0
 27 33  1  0
 33 34  1  0
 34 35  1  0
 34 36  2  0
  5 37  1  0
 37 38  2  0
 37 39  1  0
 39 40  1  0
 40 41  1  0
 41 42  1  0
 42 43  1  0
 43 44  1  0
 43 45  2  0
 40 46  1  0
 46 47  2  0
 46 48  1  0
 48 49  1  0
 49 50  1  0
 50 51  1  0
 51 52  1  0
 52 53  1  0
 52 54  2  0
 49 55  1  0
 55 56  2  0
 55 57  1  0
 57 58  1  0
 58 59  1  0
 59 60  1  0
 60 61  1  0
 61 62  1  0
 61 63  2  0
 58 64  1  0
 64 65  1  0
 64 66  2  0
  1 67  1  0
  1 68  1  0
  1 69  1  0
  2 70  1  0
  3 71  1  0
  3 72  1  0
  3 73  1  0
  4 74  1  0
  4 75  1  0
  5 76  1  6
  6 77  1  0
  9 78  1  1
 10 79  1  0
 10 80  1  0
 11 81  1  0
 11 82  1  0
 13 83  1  0
 13 84  1  0
 15 85  1  0
 18 86  1  6
 19 87  1  0
 19 88  1  0
 20 89  1  0
 20 90  1  0
 22 91  1  0
 22 92  1  0
 24 93  1  0
 27 94  1  1
 28 95  1  0
 28 96  1  0
 29 97  1  0
 29 98  1  0
 31 99  1  0
 31100  1  0
 33101  1  0
 35102  1  0
 35103  1  0
 35104  1  0
 39105  1  0
 40106  1  1
 41107  1  0
 41108  1  0
 42109  1  0
 42110  1  0
 44111  1  0
 44112  1  0
 48113  1  0
 49114  1  1
 50115  1  0
 50116  1  0
 51117  1  0
 51118  1  0
 53119  1  0
 53120  1  0
 57121  1  0
 58122  1  1
 59123  1  0
 59124  1  0
 60125  1  0
 60126  1  0
 62127  1  0
 62128  1  0
 65129  1  0
 65130  1  0
M  END
$$$$
[H]c1c([H])c([C@]2([H])[C@@]3([H])C([H])([H])C([H])([H])[C@]2([H])C([H])([H])[C@]([H])(n2c(N([H])C(=O)C([H])([H])[H])nc4c([H])c([H])c([H])c([H])c42)C3([H])[H])c([H])c([H])c1OC([H])([H])[H]
     RDKit          3D

 56 60  0  0  0  0  0  0  0  0999 V2000
   -5.4267   -0.9226    3.2330 C   0  0  0  0  0  0  0  0  0  0  0  0
   -4.8518   -1.8392    2.3221 O   0  0  0  0  0  0  0  0  0  0  0  0
   -4.1194   -1.3564    1.2481 C   0  0  0  0  0  0  0  0  0  0  0  0
   -3.9482    0.0037    1.0629 C   0  0  0  0  0  0  0  0  0  0  0  0
   -3.2140    0.4756   -0.0146 C   0  0  0  0  0  0  0  0  0  0  0  0
   -2.6288   -0.3758   -0.9379 C   0  0  0  0  0  0  0  0  0  0  0  0
   -2.7978   -1.7320   -0.7556 C   0  0  0  0  0  0  0  0  0  0  0  0
   -3.5364   -2.1949    0.3288 C   0  0  0  0  0  0  0  0  0  0  0  0
   -1.8775    0.1300   -2.0475 C   0  0  2  0  0  0  0  0  0  0  0  0
   -0.7580   -0.6799   -2.5954 C   0  0  1  0  0  0  0  0  0  0  0  0
   -0.3327    0.1964   -3.7597 C   0  0  0  0  0  0  0  0  0  0  0  0
   -0.6619    1.6221   -3.3227 C   0  0  0  0  0  0  0  0  0  0  0  0
   -1.2019    1.4623   -1.8891 C   0  0  2  0  0  0  0  0  0  0  0  0
   -0.1076    1.4846   -0.8702 C   0  0  0  0  0  0  0  0  0  0  0  0
    0.4971    0.1339   -0.5799 C   0  0  1  0  0  0  0  0  0  0  0  0
    0.4286   -0.8430   -1.7011 C   0  0  0  0  0  0  0  0  0  0  0  0
    1.7968    0.1812    0.0333 N   0  0  0  0  0  0  0  0  0  0  0  0
    2.1595   -0.2354    1.2798 C   0  0  0  0  0  0  0  0  0  0  0  0
    1.2962   -0.8173    2.2483 N   0  0  0  0  0  0  0  0  0  0  0  0
    1.7568   -1.2220    3.5205 C   0  0  0  0  0  0  0  0  0  0  0  0
    3.1631   -1.0833    3.9663 C   0  0  0  0  0  0  0  0  0  0  0  0
    0.9088   -1.7359    4.3280 O   0  0  0  0  0  0  0  0  0  0  0  0
    3.4839   -0.0099    1.4613 N   0  0  0  0  0  0  0  0  0  0  0  0
    3.9924    0.5488    0.3496 C   0  0  0  0  0  0  0  0  0  0  0  0
    5.2730    0.9736    0.0066 C   0  0  0  0  0  0  0  0  0  0  0  0
    5.4586    1.5143   -1.2428 C   0  0  0  0  0  0  0  0  0  0  0  0
    4.4086    1.6313   -2.1271 C   0  0  0  0  0  0  0  0  0  0  0  0
    3.1324    1.2075   -1.7839 C   0  0  0  0  0  0  0  0  0  0  0  0
    2.9436    0.6637   -0.5285 C   0  0  0  0  0  0  0  0  0  0  0  0
   -6.1537   -0.2978    2.6804 H   0  0  0  0  0  0  0  0  0  0  0  0
   -4.6116   -0.2227    3.5819 H   0  0  0  0  0  0  0  0  0  0  0  0
   -5.8445   -1.4069    4.1186 H   0  0  0  0  0  0  0  0  0  0  0  0
   -4.3952    0.6992    1.7709 H   0  0  0  0  0  0  0  0  0  0  0  0
   -3.1044    1.5449   -0.1228 H   0  0  0  0  0  0  0  0  0  0  0  0
   -2.3560   -2.4260   -1.4551 H   0  0  0  0  0  0  0  0  0  0  0  0
   -3.6584   -3.2650    0.4553 H   0  0  0  0  0  0  0  0  0  0  0  0
   -2.6018    0.2741   -2.9087 H   0  0  0  0  0  0  0  0  0  0  0  0
   -1.1245   -1.6410   -3.0141 H   0  0  0  0  0  0  0  0  0  0  0  0
   -0.9881   -0.0745   -4.6245 H   0  0  0  0  0  0  0  0  0  0  0  0
    0.7400    0.0772   -4.0064 H   0  0  0  0  0  0  0  0  0  0  0  0
   -1.4452    2.0367   -3.9815 H   0  0  0  0  0  0  0  0  0  0  0  0
    0.2537    2.2198   -3.3373 H   0  0  0  0  0  0  0  0  0  0  0  0
   -1.9042    2.2995   -1.7094 H   0  0  0  0  0  0  0  0  0  0  0  0
    0.6078    2.2655   -1.1469 H   0  0  0  0  0  0  0  0  0  0  0  0
   -0.5902    1.8873    0.0757 H   0  0  0  0  0  0  0  0  0  0  0  0
   -0.1881   -0.3002    0.2181 H   0  0  0  0  0  0  0  0  0  0  0  0
    1.3813   -0.8621   -2.2646 H   0  0  0  0  0  0  0  0  0  0  0  0
    0.3730   -1.8816   -1.2479 H   0  0  0  0  0  0  0  0  0  0  0  0
    0.2961   -0.9465    2.0074 H   0  0  0  0  0  0  0  0  0  0  0  0
    3.5069   -0.0347    4.0299 H   0  0  0  0  0  0  0  0  0  0  0  0
    3.8752   -1.7006    3.3560 H   0  0  0  0  0  0  0  0  0  0  0  0
    3.2484   -1.4795    5.0236 H   0  0  0  0  0  0  0  0  0  0  0  0
    6.0705    0.8622    0.7343 H   0  0  0  0  0  0  0  0  0  0  0  0
    6.4696    1.8368   -1.4817 H   0  0  0  0  0  0  0  0  0  0  0  0
    4.5931    2.0598   -3.0967 H   0  0  0  0  0  0  0  0  0  0  0  0
    2.3141    1.2943   -2.4630 H   0  0  0  0  0  0  0  0  0  0  0  0
  1  2  1  0
  2  3  1  0
  3  4  2  0
  4  5  1  0
  5  6  2  0
  6  7  1  0
  7  8  2  0
  6  9  1  0
  9 10  1  0
 10 11  1  0
 11 12  1  0
 12 13  1  0
 13 14  1  0
 14 15  1  0
 15 16  1  0
 15 17  1  0
 17 18  1  0
 18 19  1  0
 19 20  1  0
 20 21  1  0
 20 22  2  0
 18 23  2  0
 23 24  1  0
 24 25  2  0
 25 26  1  0
 26 27  2  0
 27 28  1  0
 28 29  2  0
  8  3  1  0
 13  9  1  0
 29 17  1  0
 16 10  1  0
 29 24  1  0
  1 30  1  0
  1 31  1  0
  1 32  1  0
  4 33  1  0
  5 34  1  0
  7 35  1  0
  8 36  1  0
  9 37  1  6
 10 38  1  6
 11 39  1  0
 11 40  1  0
 12 41  1  0
 12 42  1  0
 13 43  1  1
 14 44  1  0
 14 45  1  0
 15 46  1  1
 16 47  1  0
 16 48  1  0
 19 49  1  0
 21 50  1  0
 21 51  1  0
 21 52  1  0
 25 53  1  0
 26 54  1  0
 27 55  1  0
 28 56  1  0
M  END
$$$$
[H]C(=O)[C@@]([H])(N([H])C(=O)[C@@]1([H])N(C(=O)[C@]([H])(N([H])C(=O)OC([H])([H])c2c([H])c([H])c([H])c([H])c2[H])C([H])([H])c2c([H])c([H])c([H])c([H])c2[H])C([H])([H])C([H])([H])C1([H])[H])C([H])([H])C([H])([H])C([H])([H])N=C(N([H])[H])N([H])[H]
     RDKit          3D

 75 77  0  0  0  0  0  0  0  0999 V2000
    6.2076    3.2585    1.4247 N   0  0  0  0  0  0  0  0  0  0  0  0
    6.7813    2.5184    0.3429 C   0  0  0  0  0  0  0  0  0  0  0  0
    8.1505    2.6950    0.0110 N   0  0  0  0  0  0  0  0  0  0  0  0
    6.0281    1.7049   -0.3071 N   0  0  0  0  0  0  0  0  0  0  0  0
    6.5653    0.9367   -1.4082 C   0  0  0  0  0  0  0  0  0  0  0  0
    5.4680    0.4574   -2.3421 C   0  0  0  0  0  0  0  0  0  0  0  0
    4.5160   -0.4026   -1.5820 C   0  0  0  0  0  0  0  0  0  0  0  0
    3.3909   -0.9060   -2.4861 C   0  0  2  0  0  0  0  0  0  0  0  0
    2.4791   -1.7372   -1.7467 N   0  0  0  0  0  0  0  0  0  0  0  0
    1.1813   -1.3571   -1.3527 C   0  0  0  0  0  0  0  0  0  0  0  0
    0.7529   -0.2140   -1.6522 O   0  0  0  0  0  0  0  0  0  0  0  0
    0.3715   -2.3398   -0.5881 C   0  0  2  0  0  0  0  0  0  0  0  0
   -0.1792   -3.2924   -1.6296 C   0  0  0  0  0  0  0  0  0  0  0  0
   -1.6868   -3.2475   -1.5267 C   0  0  0  0  0  0  0  0  0  0  0  0
   -1.8657   -2.7417   -0.1182 C   0  0  0  0  0  0  0  0  0  0  0  0
   -0.7634   -1.8311    0.0934 N   0  0  0  0  0  0  0  0  0  0  0  0
   -0.9325   -0.6487    0.8994 C   0  0  0  0  0  0  0  0  0  0  0  0
    0.0973    0.0734    1.0292 O   0  0  0  0  0  0  0  0  0  0  0  0
   -2.1594   -0.2284    1.5560 C   0  0  1  0  0  0  0  0  0  0  0  0
   -2.2700   -0.5829    3.0158 C   0  0  0  0  0  0  0  0  0  0  0  0
   -2.2234   -1.9865    3.3669 C   0  0  0  0  0  0  0  0  0  0  0  0
   -3.3179   -2.8217    3.4631 C   0  0  0  0  0  0  0  0  0  0  0  0
   -3.1814   -4.1476    3.8150 C   0  0  0  0  0  0  0  0  0  0  0  0
   -1.9411   -4.6767    4.0818 C   0  0  0  0  0  0  0  0  0  0  0  0
   -0.8248   -3.8804    3.9985 C   0  0  0  0  0  0  0  0  0  0  0  0
   -0.9873   -2.5597    3.6442 C   0  0  0  0  0  0  0  0  0  0  0  0
   -2.1512    1.2522    1.5610 N   0  0  0  0  0  0  0  0  0  0  0  0
   -3.2592    1.9909    1.0994 C   0  0  0  0  0  0  0  0  0  0  0  0
   -4.2646    1.3543    0.6777 O   0  0  0  0  0  0  0  0  0  0  0  0
   -3.2961    3.3592    1.0876 O   0  0  0  0  0  0  0  0  0  0  0  0
   -4.3757    4.1397    0.6490 C   0  0  0  0  0  0  0  0  0  0  0  0
   -4.7438    3.9206   -0.7583 C   0  0  0  0  0  0  0  0  0  0  0  0
   -3.9234    3.3208   -1.6781 C   0  0  0  0  0  0  0  0  0  0  0  0
   -4.3429    3.1478   -2.9769 C   0  0  0  0  0  0  0  0  0  0  0  0
   -5.5838    3.5772   -3.3486 C   0  0  0  0  0  0  0  0  0  0  0  0
   -6.4486    4.1912   -2.4469 C   0  0  0  0  0  0  0  0  0  0  0  0
   -5.9914    4.3474   -1.1502 C   0  0  0  0  0  0  0  0  0  0  0  0
    3.8579   -1.4899   -3.7406 C   0  0  0  0  0  0  0  0  0  0  0  0
    3.4410   -2.6128   -4.0531 O   0  0  0  0  0  0  0  0  0  0  0  0
    5.1791    3.4098    1.4868 H   0  0  0  0  0  0  0  0  0  0  0  0
    6.8002    3.6596    2.1724 H   0  0  0  0  0  0  0  0  0  0  0  0
    8.8791    2.4987    0.7239 H   0  0  0  0  0  0  0  0  0  0  0  0
    8.3757    3.0263   -0.9714 H   0  0  0  0  0  0  0  0  0  0  0  0
    7.3164    1.5467   -1.9421 H   0  0  0  0  0  0  0  0  0  0  0  0
    7.1251    0.0817   -0.9487 H   0  0  0  0  0  0  0  0  0  0  0  0
    5.9966   -0.1868   -3.1020 H   0  0  0  0  0  0  0  0  0  0  0  0
    5.0039    1.3318   -2.8014 H   0  0  0  0  0  0  0  0  0  0  0  0
    4.0135    0.2178   -0.8102 H   0  0  0  0  0  0  0  0  0  0  0  0
    5.0595   -1.2027   -1.0861 H   0  0  0  0  0  0  0  0  0  0  0  0
    2.8198    0.0360   -2.7370 H   0  0  0  0  0  0  0  0  0  0  0  0
    2.8274   -2.6824   -1.4957 H   0  0  0  0  0  0  0  0  0  0  0  0
    1.0665   -2.8645    0.1089 H   0  0  0  0  0  0  0  0  0  0  0  0
    0.1338   -3.0053   -2.6620 H   0  0  0  0  0  0  0  0  0  0  0  0
    0.2235   -4.2991   -1.4076 H   0  0  0  0  0  0  0  0  0  0  0  0
   -2.0569   -2.4615   -2.2175 H   0  0  0  0  0  0  0  0  0  0  0  0
   -2.1750   -4.2120   -1.7164 H   0  0  0  0  0  0  0  0  0  0  0  0
   -1.7659   -3.5624    0.6336 H   0  0  0  0  0  0  0  0  0  0  0  0
   -2.8520   -2.2556   -0.0580 H   0  0  0  0  0  0  0  0  0  0  0  0
   -3.0738   -0.5286    1.0594 H   0  0  0  0  0  0  0  0  0  0  0  0
   -3.2575   -0.1582    3.3557 H   0  0  0  0  0  0  0  0  0  0  0  0
   -1.4951   -0.0018    3.5578 H   0  0  0  0  0  0  0  0  0  0  0  0
   -4.2719   -2.3932    3.2531 H   0  0  0  0  0  0  0  0  0  0  0  0
   -4.0239   -4.8144    3.8950 H   0  0  0  0  0  0  0  0  0  0  0  0
   -1.8028   -5.7182    4.3601 H   0  0  0  0  0  0  0  0  0  0  0  0
    0.1713   -4.2993    4.2133 H   0  0  0  0  0  0  0  0  0  0  0  0
   -0.0959   -1.9606    3.5836 H   0  0  0  0  0  0  0  0  0  0  0  0
   -1.2939    1.7081    1.9238 H   0  0  0  0  0  0  0  0  0  0  0  0
   -5.2835    3.9769    1.2964 H   0  0  0  0  0  0  0  0  0  0  0  0
   -4.0780    5.2086    0.8326 H   0  0  0  0  0  0  0  0  0  0  0  0
   -2.9298    2.9767   -1.3810 H   0  0  0  0  0  0  0  0  0  0  0  0
   -3.6518    2.6658   -3.6631 H   0  0  0  0  0  0  0  0  0  0  0  0
   -5.8777    3.4180   -4.3960 H   0  0  0  0  0  0  0  0  0  0  0  0
   -7.4271    4.5220   -2.7707 H   0  0  0  0  0  0  0  0  0  0  0  0
   -6.6897    4.8321   -0.4620 H   0  0  0  0  0  0  0  0  0  0  0  0
    4.5359   -1.0508   -4.4380 H   0  0  0  0  0  0  0  0  0  0  0  0
  1  2  1  0
  2  3  1  0
  2  4  2  3
  4  5  1  0
  5  6  1  0
  6  7  1  0
  7  8  1  0
  8  9  1  0
  9 10  1  0
 10 11  2  0
 10 12  1  0
 12 13  1  0
 13 14  1  0
 14 15  1  0
 15 16  1  0
 16 17  1  0
 17 18  2  0
 17 19  1  0
 19 20  1  0
 20 21  1  0
 21 22  2  0
 22 23  1  0
 23 24  2  0
 24 25  1  0
 25 26  2  0
 19 27  1  0
 27 28  1  0
 28 29  2  0
 28 30  1  0
 30 31  1  0
 31 32  1  0
 32 33  2  0
 33 34  1  0
 34 35  2  0
 35 36  1  0
 36 37  2  0
  8 38  1  0
 38 39  2  0
 16 12  1  0
 26 21  1  0
 37 32  1  0
  1 40  1  0
  1 41  1  0
  3 42  1  0
  3 43  1  0
  5 44  1  0
  5 45  1  0
  6 46  1  0
  6 47  1  0
  7 48  1  0
  7 49  1  0
  8 50  1  6
  9 51  1  0
 12 52  1  1
 13 53  1  0
 13 54  1  0
 14 55  1  0
 14 56  1  0
 15 57  1  0
 15 58  1  0
 19 59  1  6
 20 60  1  0
 20 61  1  0
 22 62  1  0
 23 63  1  0
 24 64  1  0
 25 65  1  0
 26 66  1  0
 27 67  1  0
 31 68  1  0
 31 69  1  0
 33 70  1  0
 34 71  1  0
 35 72  1  0
 36 73  1  0
 37 74  1  0
 38 75  1  0
M  END
$$$$
[H]C(=O)[C@@]([H])(N([H])C(=O)[C@@]1([H])N(C(=O)[C@]([H])(N([H])C(=O)OC([H])([H])c2c([H])c([H])c([H])c([H])c2[H])C([H])([H])c2c([H])c([H])c([H])c([H])c2[H])C([H])([H])C([H])([H])C1([H])[H])C([H])([H])C([H])([H])C([H])([H])N=C(N([H])[H])N([H])[H]
     RDKit          3D

 75 77  0  0  0  0  0  0  0  0999 V2000
    6.2076    3.2585    1.4247 N   0  0  0  0  0  0  0  0  0  0  0  0
    6.7813    2.5184    0.3429 C   0  0  0  0  0  0  0  0  0  0  0  0
    8.1505    2.6950    0.0110 N   0  0  0  0  0  0  0  0  0  0  0  0
    6.0281    1.7049   -0.3071 N   0  0  0  0  0  0  0  0  0  0  0  0
    6.5653    0.9367   -1.4082 C   0  0  0  0  0  0  0  0  0  0  0  0
    5.4680    0.4574   -2.3421 C   0  0  0  0  0  0  0  0  0  0  0  0
    4.5160   -0.4026   -1.5820 C   0  0  0  0  0  0  0  0  0  0  0  0
    3.3909   -0.9060   -2.4861 C   0  0  2  0  0  0  0  0  0  0  0  0
    2.4791   -1.7372   -1.7467 N   0  0  0  0  0  0  0  0  0  0  0  0
    1.1813   -1.3571   -1.3527 C   0  0  0  0  0  0  0  0  0  0  0  0
    0.7529   -0.2140   -1.6522 O   0  0  0  0  0  0  0  0  0  0  0  0
    0.3715   -2.3398   -0.5881 C   0  0  2  0  0  0  0  0  0  0  0  0
   -0.1792   -3.2924   -1.6296 C   0  0  0  0  0  0  0  0  0  0  0  0
   -1.6868   -3.2475   -1.5267 C   0  0  0  0  0  0  0  0  0  0  0  0
   -1.8657   -2.7417   -0.1182 C   0  0  0  0  0  0  0  0  0  0  0  0
   -0.7634   -1.8311    0.0934 N   0  0  0  0  0  0  0  0  0  0  0  0
   -0.9325   -0.6487    0.8994 C   0  0  0  0  0  0  0  0  0  0  0  0
    0.0973    0.0734    1.0292 O   0  0  0  0  0  0  0  0  0  0  0  0
   -2.1594   -0.2284    1.5560 C   0  0  1  0  0  0  0  0  0  0  0  0
   -2.2700   -0.5829    3.0158 C   0  0  0  0  0  0  0  0  0  0  0  0
   -2.2234   -1.9865    3.3669 C   0  0  0  0  0  0  0  0  0  0  0  0
   -3.3179   -2.8217    3.4631 C   0  0  0  0  0  0  0  0  0  0  0  0
   -3.1814   -4.1476    3.8150 C   0  0  0  0  0  0  0  0  0  0  0  0
   -1.9411   -4.6767    4.0818 C   0  0  0  0  0  0  0  0  0  0  0  0
   -0.8248   -3.8804    3.9985 C   0  0  0  0  0  0  0  0  0  0  0  0
   -0.9873   -2.5597    3.6442 C   0  0  0  0  0  0  0  0  0  0  0  0
   -2.1512    1.2522    1.5610 N   0  0  0  0  0  0  0  0  0  0  0  0
   -3.2592    1.9909    1.0994 C   0  0  0  0  0  0  0  0  0  0  0  0
   -4.2646    1.3543    0.6777 O   0  0  0  0  0  0  0  0  0  0  0  0
   -3.2961    3.3592    1.0876 O   0  0  0  0  0  0  0  0  0  0  0  0
   -4.3757    4.1397    0.6490 C   0  0  0  0  0  0  0  0  0  0  0  0
   -4.7438    3.9206   -0.7583 C   0  0  0  0  0  0  0  0  0  0  0  0
   -3.9234    3.3208   -1.6781 C   0  0  0  0  0  0  0  0  0  0  0  0
   -4.3429    3.1478   -2.9769 C   0  0  0  0  0  0  0  0  0  0  0  0
   -5.5838    3.5772   -3.3486 C   0  0  0  0  0  0  0  0  0  0  0  0
   -6.4486    4.1912   -2.4469 C   0  0  0  0  0  0  0  0  0  0  0  0
   -5.9914    4.3474   -1.1502 C   0  0  0  0  0  0  0  0  0  0  0  0
    3.8579   -1.4899   -3.7406 C   0  0  0  0  0  0  0  0  0  0  0  0
    3.4410   -2.6128   -4.0531 O   0  0  0  0  0  0  0  0  0  0  0  0
    5.1791    3.4098    1.4868 H   0  0  0  0  0  0  0  0  0  0  0  0
    6.8002    3.6596    2.1724 H   0  0  0  0  0  0  0  0  0  0  0  0
    8.8791    2.4987    0.7239 H   0  0  0  0  0  0  0  0  0  0  0  0
    8.3757    3.0263   -0.9714 H   0  0  0  0  0  0  0  0  0  0  0  0
    7.3164    1.5467   -1.9421 H   0  0  0  0  0  0  0  0  0  0  0  0
    7.1251    0.0817   -0.9487 H   0  0  0  0  0  0  0  0  0  0  0  0
    5.9966   -0.1868   -3.1020 H   0  0  0  0  0  0  0  0  0  0  0  0
    5.0039    1.3318   -2.8014 H   0  0  0  0  0  0  0  0  0  0  0  0
    4.0135    0.2178   -0.8102 H   0  0  0  0  0  0  0  0  0  0  0  0
    5.0595   -1.2027   -1.0861 H   0  0  0  0  0  0  0  0  0  0  0  0
    2.8198    0.0360   -2.7370 H   0  0  0  0  0  0  0  0  0  0  0  0
    2.8274   -2.6824   -1.4957 H   0  0  0  0  0  0  0  0  0  0  0  0
    1.0665   -2.8645    0.1089 H   0  0  0  0  0  0  0  0  0  0  0  0
    0.1338   -3.0053   -2.6620 H   0  0  0  0  0  0  0  0  0  0  0  0
    0.2235   -4.2991   -1.4076 H   0  0  0  0  0  0  0  0  0  0  0  0
   -2.0569   -2.4615   -2.2175 H   0  0  0  0  0  0  0  0  0  0  0  0
   -2.1750   -4.2120   -1.7164 H   0  0  0  0  0  0  0  0  0  0  0  0
   -1.7659   -3.5624    0.6336 H   0  0  0  0  0  0  0  0  0  0  0  0
   -2.8520   -2.2556   -0.0580 H   0  0  0  0  0  0  0  0  0  0  0  0
   -3.0738   -0.5286    1.0594 H   0  0  0  0  0  0  0  0  0  0  0  0
   -3.2575   -0.1582    3.3557 H   0  0  0  0  0  0  0  0  0  0  0  0
   -1.4951   -0.0018    3.5578 H   0  0  0  0  0  0  0  0  0  0  0  0
   -4.2719   -2.3932    3.2531 H   0  0  0  0  0  0  0  0  0  0  0  0
   -4.0239   -4.8144    3.8950 H   0  0  0  0  0  0  0  0  0  0  0  0
   -1.8028   -5.7182    4.3601 H   0  0  0  0  0  0  0  0  0  0  0  0
    0.1713   -4.2993    4.2133 H   0  0  0  0  0  0  0  0  0  0  0  0
   -0.0959   -1.9606    3.5836 H   0  0  0  0  0  0  0  0  0  0  0  0
   -1.2939    1.7081    1.9238 H   0  0  0  0  0  0  0  0  0  0  0  0
   -5.2835    3.9769    1.2964 H   0  0  0  0  0  0  0  0  0  0  0  0
   -4.0780    5.2086    0.8326 H   0  0  0  0  0  0  0  0  0  0  0  0
   -2.9298    2.9767   -1.3810 H   0  0  0  0  0  0  0  0  0  0  0  0
   -3.6518    2.6658   -3.6631 H   0  0  0  0  0  0  0  0  0  0  0  0
   -5.8777    3.4180   -4.3960 H   0  0  0  0  0  0  0  0  0  0  0  0
   -7.4271    4.5220   -2.7707 H   0  0  0  0  0  0  0  0  0  0  0  0
   -6.6897    4.8321   -0.4620 H   0  0  0  0  0  0  0  0  0  0  0  0
    4.5359   -1.0508   -4.4380 H   0  0  0  0  0  0  0  0  0  0  0  0
  1  2  1  0
  2  3  1  0
  2  4  2  3
  4  5  1  0
  5  6  1  0
  6  7  1  0
  7  8  1  0
  8  9  1  0
  9 10  1  0
 10 11  2  0
 10 12  1  0
 12 13  1  0
 13 14  1  0
 14 15  1  0
 15 16  1  0
 16 17  1  0
 17 18  2  0
 17 19  1  0
 19 20  1  0
 20 21  1  0
 21 22  2  0
 22 23  1  0
 23 24  2  0
 24 25  1  0
 25 26  2  0
 19 27  1  0
 27 28  1  0
 28 29  2  0
 28 30  1  0
 30 31  1  0
 31 32  1  0
 32 33  2  0
 33 34  1  0
 34 35  2  0
 35 36  1  0
 36 37  2  0
  8 38  1  0
 38 39  2  0
 16 12  1  0
 26 21  1  0
 37 32  1  0
  1 40  1  0
  1 41  1  0
  3 42  1  0
  3 43  1  0
  5 44  1  0
  5 45  1  0
  6 46  1  0
  6 47  1  0
  7 48  1  0
  7 49  1  0
  8 50  1  6
  9 51  1  0
 12 52  1  1
 13 53  1  0
 13 54  1  0
 14 55  1  0
 14 56  1  0
 15 57  1  0
 15 58  1  0
 19 59  1  6
 20 60  1  0
 20 61  1  0
 22 62  1  0
 23 63  1  0
 24 64  1  0
 25 65  1  0
 26 66  1  0
 27 67  1  0
 31 68  1  0
 31 69  1  0
 33 70  1  0
 34 71  1  0
 35 72  1  0
 36 73  1  0
 37 74  1  0
 38 75  1  0
M  END
$$$$
[H]c1c([H])c([H])c(S(=O)(=O)N2C([H])([H])C([H])([H])N(C(=O)N([H])c3c([H])c([H])c([N+](=O)[O-])c([H])c3[H])C([H])([H])C2([H])[H])c([H])c1[H]
     RDKit          3D

 45 47  0  0  0  0  0  0  0  0999 V2000
   -7.3525   -1.2935   -3.4240 O   0  0  0  0  0  0  0  0  0  0  0  0
   -6.8985   -1.8257   -2.2655 N   0  0  0  0  0  0  0  0  0  0  0  0
   -7.5032   -2.7870   -1.7606 O   0  0  0  0  0  0  0  0  0  0  0  0
   -5.7516   -1.3252   -1.6009 C   0  0  0  0  0  0  0  0  0  0  0  0
   -5.2919   -1.8684   -0.4221 C   0  0  0  0  0  0  0  0  0  0  0  0
   -4.1810   -1.3560    0.1886 C   0  0  0  0  0  0  0  0  0  0  0  0
   -3.4501   -0.2684   -0.3302 C   0  0  0  0  0  0  0  0  0  0  0  0
   -2.2929    0.1724    0.3749 N   0  0  0  0  0  0  0  0  0  0  0  0
   -1.6703    1.4082    0.2021 C   0  0  0  0  0  0  0  0  0  0  0  0
   -2.1026    2.2849   -0.6299 O   0  0  0  0  0  0  0  0  0  0  0  0
   -0.5082    1.7355    0.9650 N   0  0  0  0  0  0  0  0  0  0  0  0
    0.1197    0.9153    1.9509 C   0  0  0  0  0  0  0  0  0  0  0  0
    1.4353    0.4510    1.3669 C   0  0  0  0  0  0  0  0  0  0  0  0
    1.9874    1.3897    0.4270 N   0  0  0  0  0  0  0  0  0  0  0  0
    1.6391    2.7642    0.6997 C   0  0  0  0  0  0  0  0  0  0  0  0
    0.1558    3.0294    0.7392 C   0  0  0  0  0  0  0  0  0  0  0  0
    3.7095    1.2724    0.5184 S   0  0  0  0  0  0  0  0  0  0  0  0
    4.1936    1.5193    1.9292 O   0  0  0  0  0  0  0  0  0  0  0  0
    4.3724    2.3190   -0.3410 O   0  0  0  0  0  0  0  0  0  0  0  0
    4.2271   -0.3324    0.0770 C   0  0  0  0  0  0  0  0  0  0  0  0
    4.3499   -1.2912    1.0505 C   0  0  0  0  0  0  0  0  0  0  0  0
    4.7620   -2.5928    0.7432 C   0  0  0  0  0  0  0  0  0  0  0  0
    5.0453   -2.8959   -0.5721 C   0  0  0  0  0  0  0  0  0  0  0  0
    4.9141   -1.9163   -1.5289 C   0  0  0  0  0  0  0  0  0  0  0  0
    4.5101   -0.6352   -1.2368 C   0  0  0  0  0  0  0  0  0  0  0  0
   -3.9087    0.2640   -1.4959 C   0  0  0  0  0  0  0  0  0  0  0  0
   -5.0528   -0.2677   -2.1193 C   0  0  0  0  0  0  0  0  0  0  0  0
   -5.8483   -2.7089   -0.0117 H   0  0  0  0  0  0  0  0  0  0  0  0
   -3.8222   -1.7738    1.1007 H   0  0  0  0  0  0  0  0  0  0  0  0
   -1.8567   -0.4835    1.0852 H   0  0  0  0  0  0  0  0  0  0  0  0
   -0.5316    0.1317    2.3082 H   0  0  0  0  0  0  0  0  0  0  0  0
    0.3685    1.6204    2.8135 H   0  0  0  0  0  0  0  0  0  0  0  0
    1.2565   -0.5072    0.8399 H   0  0  0  0  0  0  0  0  0  0  0  0
    2.1457    0.2546    2.1867 H   0  0  0  0  0  0  0  0  0  0  0  0
    2.0803    3.1337    1.6356 H   0  0  0  0  0  0  0  0  0  0  0  0
    2.0621    3.3720   -0.1270 H   0  0  0  0  0  0  0  0  0  0  0  0
   -0.1356    3.6767    1.5915 H   0  0  0  0  0  0  0  0  0  0  0  0
   -0.2425    3.4818   -0.1737 H   0  0  0  0  0  0  0  0  0  0  0  0
    4.1362   -1.0773    2.0733 H   0  0  0  0  0  0  0  0  0  0  0  0
    4.8438   -3.3084    1.5357 H   0  0  0  0  0  0  0  0  0  0  0  0
    5.3667   -3.9167   -0.8007 H   0  0  0  0  0  0  0  0  0  0  0  0
    5.1431   -2.1817   -2.5541 H   0  0  0  0  0  0  0  0  0  0  0  0
    4.3991    0.1454   -1.9566 H   0  0  0  0  0  0  0  0  0  0  0  0
   -3.4293    1.0876   -1.9998 H   0  0  0  0  0  0  0  0  0  0  0  0
   -5.3927    0.1837   -3.0521 H   0  0  0  0  0  0  0  0  0  0  0  0
  1  2  1  0
  2  3  2  0
  2  4  1  0
  4  5  2  0
  5  6  1  0
  6  7  2  0
  7  8  1  0
  8  9  1  0
  9 10  2  0
  9 11  1  0
 11 12  1  0
 12 13  1  0
 13 14  1  0
 14 15  1  0
 15 16  1  0
 14 17  1  0
 17 18  2  0
 17 19  2  0
 17 20  1  0
 20 21  2  0
 21 22  1  0
 22 23  2  0
 23 24  1  0
 24 25  2  0
  7 26  1  0
 26 27  2  0
 27  4  1  0
 16 11  1  0
 25 20  1  0
  5 28  1  0
  6 29  1  0
  8 30  1  0
 12 31  1  0
 12 32  1  0
 13 33  1  0
 13 34  1  0
 15 35  1  0
 15 36  1  0
 16 37  1  0
 16 38  1  0
 21 39  1  0
 22 40  1  0
 23 41  1  0
 24 42  1  0
 25 43  1  0
 26 44  1  0
 27 45  1  0
M  CHG  2   1  -1   2   1
M  END
$$$$
[H]c1c([H])c([H])c(C([H])([H])N([H])C(=O)C(=O)[C@@]([H])(N([H])C(=O)[C@@]2([H])N(C(=O)C3(c4c([H])c([H])c(Cl)c([H])c4[H])C([H])([H])C3([H])[H])C([H])([H])[C@]([H])(S(=O)(=O)c3c([H])c([H])c([H])c([H])c3Cl)C2([H])[H])C([H])([H])[H])c([H])c1[H]
     RDKit          3D

 75 79  0  0  0  0  0  0  0  0999 V2000
    3.2431   -1.3867   -2.1090 C   0  0  0  0  0  0  0  0  0  0  0  0
    2.3967   -0.8830   -0.9906 C   0  0  2  0  0  0  0  0  0  0  0  0
    1.0032   -0.6682   -1.3764 N   0  0  0  0  0  0  0  0  0  0  0  0
   -0.0967   -0.8551   -0.4981 C   0  0  0  0  0  0  0  0  0  0  0  0
    0.2202   -1.2331    0.6836 O   0  0  0  0  0  0  0  0  0  0  0  0
   -1.4577   -0.6186   -0.9488 C   0  0  2  0  0  0  0  0  0  0  0  0
   -1.5254    0.7378   -1.6613 C   0  0  0  0  0  0  0  0  0  0  0  0
   -1.6746    1.7323   -0.5168 C   0  0  2  0  0  0  0  0  0  0  0  0
   -1.9503    0.8619    0.6938 C   0  0  0  0  0  0  0  0  0  0  0  0
   -2.4570   -0.4090    0.0649 N   0  0  0  0  0  0  0  0  0  0  0  0
   -3.6270   -0.9875    0.4979 C   0  0  0  0  0  0  0  0  0  0  0  0
   -4.2276   -0.3416    1.4695 O   0  0  0  0  0  0  0  0  0  0  0  0
   -4.3949   -2.1810    0.1075 C   0  0  0  0  0  0  0  0  0  0  0  0
   -5.0013   -2.1185   -1.2869 C   0  0  0  0  0  0  0  0  0  0  0  0
   -5.8588   -1.9341   -0.0811 C   0  0  0  0  0  0  0  0  0  0  0  0
   -3.8597   -3.5271    0.3872 C   0  0  0  0  0  0  0  0  0  0  0  0
   -4.7648   -4.4581    0.9563 C   0  0  0  0  0  0  0  0  0  0  0  0
   -4.3895   -5.7444    1.2587 C   0  0  0  0  0  0  0  0  0  0  0  0
   -3.1134   -6.2015    1.0257 C   0  0  0  0  0  0  0  0  0  0  0  0
   -2.6540   -7.8596    1.4250 Cl  0  0  0  0  0  0  0  0  0  0  0  0
   -2.2324   -5.3135    0.4770 C   0  0  0  0  0  0  0  0  0  0  0  0
   -2.6135   -3.9914    0.1645 C   0  0  0  0  0  0  0  0  0  0  0  0
   -3.0671    2.7497   -0.8835 S   0  0  0  0  0  0  0  0  0  0  0  0
   -4.3080    1.9099   -1.0323 O   0  0  0  0  0  0  0  0  0  0  0  0
   -2.8154    3.4228   -2.2288 O   0  0  0  0  0  0  0  0  0  0  0  0
   -3.3173    4.0238    0.2673 C   0  0  0  0  0  0  0  0  0  0  0  0
   -2.5422    4.2758    1.3612 C   0  0  0  0  0  0  0  0  0  0  0  0
   -2.8313    5.3342    2.2017 C   0  0  0  0  0  0  0  0  0  0  0  0
   -3.9154    6.1721    1.9627 C   0  0  0  0  0  0  0  0  0  0  0  0
   -4.7033    5.9293    0.8663 C   0  0  0  0  0  0  0  0  0  0  0  0
   -4.3988    4.8696    0.0404 C   0  0  0  0  0  0  0  0  0  0  0  0
   -5.4476    4.6069   -1.3441 Cl  0  0  0  0  0  0  0  0  0  0  0  0
    2.9618    0.3964   -0.4394 C   0  0  0  0  0  0  0  0  0  0  0  0
    2.2024    1.3786   -0.3271 O   0  0  0  0  0  0  0  0  0  0  0  0
    4.3376    0.4916   -0.0515 C   0  0  0  0  0  0  0  0  0  0  0  0
    5.0986   -0.4646   -0.2430 O   0  0  0  0  0  0  0  0  0  0  0  0
    4.8293    1.6765    0.5550 N   0  0  0  0  0  0  0  0  0  0  0  0
    6.1574    1.9555    0.9858 C   0  0  0  0  0  0  0  0  0  0  0  0
    7.1346    0.9247    0.6338 C   0  0  0  0  0  0  0  0  0  0  0  0
    7.4355   -0.0237    1.5826 C   0  0  0  0  0  0  0  0  0  0  0  0
    8.3696   -0.9906    1.2891 C   0  0  0  0  0  0  0  0  0  0  0  0
    9.0021   -1.0251    0.0757 C   0  0  0  0  0  0  0  0  0  0  0  0
    8.6826   -0.0597   -0.8637 C   0  0  0  0  0  0  0  0  0  0  0  0
    7.7578    0.9083   -0.5926 C   0  0  0  0  0  0  0  0  0  0  0  0
    2.5829   -1.9047   -2.8482 H   0  0  0  0  0  0  0  0  0  0  0  0
    4.0281   -2.0649   -1.7163 H   0  0  0  0  0  0  0  0  0  0  0  0
    3.6955   -0.5008   -2.6398 H   0  0  0  0  0  0  0  0  0  0  0  0
    2.3744   -1.6415   -0.1679 H   0  0  0  0  0  0  0  0  0  0  0  0
    0.7801   -0.3634   -2.3572 H   0  0  0  0  0  0  0  0  0  0  0  0
   -1.8322   -1.4182   -1.6214 H   0  0  0  0  0  0  0  0  0  0  0  0
   -0.7026    0.9384   -2.3302 H   0  0  0  0  0  0  0  0  0  0  0  0
   -2.4822    0.6912   -2.2408 H   0  0  0  0  0  0  0  0  0  0  0  0
   -0.7337    2.2880   -0.4588 H   0  0  0  0  0  0  0  0  0  0  0  0
   -1.0972    0.6784    1.3350 H   0  0  0  0  0  0  0  0  0  0  0  0
   -2.7421    1.3296    1.3027 H   0  0  0  0  0  0  0  0  0  0  0  0
   -4.7070   -1.2730   -1.9429 H   0  0  0  0  0  0  0  0  0  0  0  0
   -5.1554   -3.0621   -1.8171 H   0  0  0  0  0  0  0  0  0  0  0  0
   -6.2091   -0.8842    0.0511 H   0  0  0  0  0  0  0  0  0  0  0  0
   -6.6390   -2.6590    0.1664 H   0  0  0  0  0  0  0  0  0  0  0  0
   -5.7683   -4.0932    1.1477 H   0  0  0  0  0  0  0  0  0  0  0  0
   -5.1197   -6.4203    1.6918 H   0  0  0  0  0  0  0  0  0  0  0  0
   -1.2123   -5.6333    0.2762 H   0  0  0  0  0  0  0  0  0  0  0  0
   -1.8582   -3.3718   -0.2693 H   0  0  0  0  0  0  0  0  0  0  0  0
   -1.7039    3.6139    1.5335 H   0  0  0  0  0  0  0  0  0  0  0  0
   -2.2181    5.5354    3.0695 H   0  0  0  0  0  0  0  0  0  0  0  0
   -4.1753    7.0116    2.5925 H   0  0  0  0  0  0  0  0  0  0  0  0
   -5.5491    6.5693    0.6637 H   0  0  0  0  0  0  0  0  0  0  0  0
    4.1211    2.4533    0.7125 H   0  0  0  0  0  0  0  0  0  0  0  0
    6.5441    2.9227    0.5140 H   0  0  0  0  0  0  0  0  0  0  0  0
    6.2004    2.1540    2.1019 H   0  0  0  0  0  0  0  0  0  0  0  0
    6.9508   -0.0308    2.5667 H   0  0  0  0  0  0  0  0  0  0  0  0
    8.5968   -1.7378    2.0556 H   0  0  0  0  0  0  0  0  0  0  0  0
    9.7406   -1.7949   -0.1531 H   0  0  0  0  0  0  0  0  0  0  0  0
    9.1753   -0.0704   -1.8409 H   0  0  0  0  0  0  0  0  0  0  0  0
    7.5277    1.6566   -1.3632 H   0  0  0  0  0  0  0  0  0  0  0  0
  1  2  1  0
  2  3  1  0
  3  4  1  0
  4  5  2  0
  4  6  1  0
  6  7  1  0
  7  8  1  0
  8  9  1  0
  9 10  1  0
 10 11  1  0
 11 12  2  0
 11 13  1  0
 13 14  1  0
 14 15  1  0
 13 16  1  0
 16 17  2  0
 17 18  1  0
 18 19  2  0
 19 20  1  0
 19 21  1  0
 21 22  2  0
  8 23  1  0
 23 24  2  0
 23 25  2  0
 23 26  1  0
 26 27  2  0
 27 28  1  0
 28 29  2  0
 29 30  1  0
 30 31  2  0
 31 32  1  0
  2 33  1  0
 33 34  2  0
 33 35  1  0
 35 36  2  0
 35 37  1  0
 37 38  1  0
 38 39  1  0
 39 40  2  0
 40 41  1  0
 41 42  2  0
 42 43  1  0
 43 44  2  0
 10  6  1  0
 15 13  1  0
 22 16  1  0
 31 26  1  0
 44 39  1  0
  1 45  1  0
  1 46  1  0
  1 47  1  0
  2 48  1  1
  3 49  1  0
  6 50  1  6
  7 51  1  0
  7 52  1  0
  8 53  1  1
  9 54  1  0
  9 55  1  0
 14 56  1  0
 14 57  1  0
 15 58  1  0
 15 59  1  0
 17 60  1  0
 18 61  1  0
 21 62  1  0
 22 63  1  0
 27 64  1  0
 28 65  1  0
 29 66  1  0
 30 67  1  0
 37 68  1  0
 38 69  1  0
 38 70  1  0
 40 71  1  0
 41 72  1  0
 42 73  1  0
 43 74  1  0
 44 75  1  0
M  END
$$$$
[H]OC(=O)c1[se]c(-c2c([H])c([H])c(C([H])([H])[H])c(C#N)c2[H])nc1C([H])([H])[H]
     RDKit          3D

 28 29  0  0  0  0  0  0  0  0999 V2000
   -5.0226   -0.4617   -0.0154 C   0  0  0  0  0  0  0  0  0  0  0  0
   -3.5407   -0.3436   -0.0368 C   0  0  0  0  0  0  0  0  0  0  0  0
   -2.7534   -1.3758    0.4102 C   0  0  0  0  0  0  0  0  0  0  0  0
   -1.3913   -1.2500    0.3833 C   0  0  0  0  0  0  0  0  0  0  0  0
   -0.8062   -0.1195   -0.0789 C   0  0  0  0  0  0  0  0  0  0  0  0
   -1.6019    0.9090   -0.5246 C   0  0  0  0  0  0  0  0  0  0  0  0
   -2.9772    0.8204   -0.5135 C   0  0  0  0  0  0  0  0  0  0  0  0
   -3.7844    1.8974   -0.9796 C   0  0  0  0  0  0  0  0  0  0  0  0
   -4.4457    2.7639   -1.3691 N   0  0  0  0  0  0  0  0  0  0  0  0
    0.6281   -0.0806   -0.0680 C   0  0  0  0  0  0  0  0  0  0  0  0
    1.6796   -0.7081    0.2147 N   0  0  0  0  0  0  0  0  0  0  0  0
    2.9047   -0.4794    0.1421 C   0  0  0  0  0  0  0  0  0  0  0  0
    3.9581   -1.5058    0.5922 C   0  0  0  0  0  0  0  0  0  0  0  0
    3.4576    0.6643   -0.3264 C   0  0  0  0  0  0  0  0  0  0  0  0
    1.6725    1.6513   -0.7736 Se  0  0  0  0  0  2  0  0  0  0  0  0
    4.7626    1.2111   -0.5307 C   0  0  0  0  0  0  0  0  0  0  0  0
    4.9966    2.4817   -1.0583 O   0  0  0  0  0  0  0  0  0  0  0  0
    5.7723    0.5365   -0.2290 O   0  0  0  0  0  0  0  0  0  0  0  0
   -5.4484    0.3363    0.6310 H   0  0  0  0  0  0  0  0  0  0  0  0
   -5.4682   -0.3158   -1.0222 H   0  0  0  0  0  0  0  0  0  0  0  0
   -5.3128   -1.4311    0.4348 H   0  0  0  0  0  0  0  0  0  0  0  0
   -3.2318   -2.2631    0.7726 H   0  0  0  0  0  0  0  0  0  0  0  0
   -0.7893   -2.0884    0.7457 H   0  0  0  0  0  0  0  0  0  0  0  0
   -1.1084    1.8051   -0.8904 H   0  0  0  0  0  0  0  0  0  0  0  0
    4.6708   -1.7012   -0.2238 H   0  0  0  0  0  0  0  0  0  0  0  0
    4.4963   -1.0378    1.4386 H   0  0  0  0  0  0  0  0  0  0  0  0
    3.5239   -2.4485    0.8943 H   0  0  0  0  0  0  0  0  0  0  0  0
    5.1593    2.5334   -2.0635 H   0  0  0  0  0  0  0  0  0  0  0  0
  1  2  1  0
  2  3  2  0
  3  4  1  0
  4  5  2  0
  5  6  1  0
  6  7  2  0
  7  8  1  0
  8  9  3  0
  5 10  1  0
 10 11  2  0
 11 12  1  0
 12 13  1  0
 12 14  2  0
 14 15  1  0
 14 16  1  0
 16 17  1  0
 16 18  2  0
  7  2  1  0
 15 10  1  0
  1 19  1  0
  1 20  1  0
  1 21  1  0
  3 22  1  0
  4 23  1  0
  6 24  1  0
 13 25  1  0
 13 26  1  0
 13 27  1  0
 17 28  1  0
M  END
$$$$
[H]c1c([H])c([H])c(C([H])([H])[C@@]2([H])C(=O)N([H])[C@@]([H])([C@@]([H])(C([H])([H])[H])C([H])([H])C([H])([H])[H])C(=O)N([H])[C@]([H])(C([H])([H])C([H])([H])C([H])([H])N=C(N([H])[H])N([H])[H])C(=O)N3C([H])([H])C([H])([H])C([H])([H])[C@@]3([H])C(=O)N2[H])c([H])c1[H]
     RDKit          3D

 76 78  0  0  0  0  0  0  0  0999 V2000
   -1.3612    2.8412   -5.1229 C   0  0  0  0  0  0  0  0  0  0  0  0
   -0.4824    2.3196   -3.9777 C   0  0  0  0  0  0  0  0  0  0  0  0
   -1.2614    2.5552   -2.7051 C   0  0  2  0  0  0  0  0  0  0  0  0
   -1.5768    4.0067   -2.4716 C   0  0  0  0  0  0  0  0  0  0  0  0
   -0.6657    1.8453   -1.5082 C   0  0  2  0  0  0  0  0  0  0  0  0
   -1.5047    2.1573   -0.3751 N   0  0  0  0  0  0  0  0  0  0  0  0
   -2.3764    1.2828    0.3100 C   0  0  0  0  0  0  0  0  0  0  0  0
   -3.2263    1.8353    1.0546 O   0  0  0  0  0  0  0  0  0  0  0  0
   -2.3855   -0.1905    0.2404 C   0  0  2  0  0  0  0  0  0  0  0  0
   -3.6488   -0.7831   -0.2657 C   0  0  0  0  0  0  0  0  0  0  0  0
   -4.8838   -0.5429    0.4348 C   0  0  0  0  0  0  0  0  0  0  0  0
   -5.3084   -1.3269    1.5009 C   0  0  0  0  0  0  0  0  0  0  0  0
   -6.5063   -1.0946    2.1440 C   0  0  0  0  0  0  0  0  0  0  0  0
   -7.3123   -0.0589    1.7260 C   0  0  0  0  0  0  0  0  0  0  0  0
   -6.9298    0.7313    0.6844 C   0  0  0  0  0  0  0  0  0  0  0  0
   -5.7304    0.4773    0.0612 C   0  0  0  0  0  0  0  0  0  0  0  0
   -1.9468   -0.7415    1.5062 N   0  0  0  0  0  0  0  0  0  0  0  0
   -0.7353   -1.3699    1.8032 C   0  0  0  0  0  0  0  0  0  0  0  0
   -0.2653   -0.9859    2.9442 O   0  0  0  0  0  0  0  0  0  0  0  0
    0.0400   -2.3242    1.0919 C   0  0  2  0  0  0  0  0  0  0  0  0
    0.8330   -3.2090    2.0584 C   0  0  0  0  0  0  0  0  0  0  0  0
    1.9180   -3.8376    1.2628 C   0  0  0  0  0  0  0  0  0  0  0  0
    1.6272   -3.3065   -0.1177 C   0  0  0  0  0  0  0  0  0  0  0  0
    1.0749   -1.9919    0.1768 N   0  0  0  0  0  0  0  0  0  0  0  0
    1.4765   -0.7497   -0.3507 C   0  0  0  0  0  0  0  0  0  0  0  0
    1.7580   -0.7759   -1.6159 O   0  0  0  0  0  0  0  0  0  0  0  0
    1.6100    0.5436    0.3276 C   0  0  1  0  0  0  0  0  0  0  0  0
    2.6496    0.6379    1.3784 C   0  0  0  0  0  0  0  0  0  0  0  0
    4.0690    0.4404    1.0851 C   0  0  0  0  0  0  0  0  0  0  0  0
    4.5374   -0.8850    0.5904 C   0  0  0  0  0  0  0  0  0  0  0  0
    5.9894   -0.7951    0.3931 N   0  0  0  0  0  0  0  0  0  0  0  0
    6.7462   -1.1455    1.3631 C   0  0  0  0  0  0  0  0  0  0  0  0
    6.1985   -1.6081    2.5946 N   0  0  0  0  0  0  0  0  0  0  0  0
    8.1683   -1.0915    1.2639 N   0  0  0  0  0  0  0  0  0  0  0  0
    1.7673    1.5988   -0.6817 N   0  0  0  0  0  0  0  0  0  0  0  0
    0.7396    2.3101   -1.3058 C   0  0  0  0  0  0  0  0  0  0  0  0
    1.0734    3.4613   -1.7297 O   0  0  0  0  0  0  0  0  0  0  0  0
   -1.7517    2.0073   -5.7417 H   0  0  0  0  0  0  0  0  0  0  0  0
   -0.7910    3.5733   -5.7377 H   0  0  0  0  0  0  0  0  0  0  0  0
   -2.2472    3.3908   -4.7450 H   0  0  0  0  0  0  0  0  0  0  0  0
    0.5087    2.7627   -4.0065 H   0  0  0  0  0  0  0  0  0  0  0  0
   -0.4008    1.2302   -4.1121 H   0  0  0  0  0  0  0  0  0  0  0  0
   -2.2577    2.0561   -2.8818 H   0  0  0  0  0  0  0  0  0  0  0  0
   -1.1349    4.4498   -1.5710 H   0  0  0  0  0  0  0  0  0  0  0  0
   -1.3375    4.6250   -3.3916 H   0  0  0  0  0  0  0  0  0  0  0  0
   -2.6886    4.1907   -2.3534 H   0  0  0  0  0  0  0  0  0  0  0  0
   -0.6850    0.7642   -1.7840 H   0  0  0  0  0  0  0  0  0  0  0  0
   -1.4150    3.1731   -0.0576 H   0  0  0  0  0  0  0  0  0  0  0  0
   -1.6415   -0.4519   -0.5776 H   0  0  0  0  0  0  0  0  0  0  0  0
   -3.7417   -0.5547   -1.3740 H   0  0  0  0  0  0  0  0  0  0  0  0
   -3.4836   -1.9066   -0.2811 H   0  0  0  0  0  0  0  0  0  0  0  0
   -4.6744   -2.1231    1.8120 H   0  0  0  0  0  0  0  0  0  0  0  0
   -6.8397   -1.7141    2.9849 H   0  0  0  0  0  0  0  0  0  0  0  0
   -8.2512    0.1173    2.2359 H   0  0  0  0  0  0  0  0  0  0  0  0
   -7.5419    1.5607    0.3257 H   0  0  0  0  0  0  0  0  0  0  0  0
   -5.4482    1.1222   -0.7671 H   0  0  0  0  0  0  0  0  0  0  0  0
   -2.6398   -0.6473    2.2825 H   0  0  0  0  0  0  0  0  0  0  0  0
   -0.6773   -3.0668    0.6123 H   0  0  0  0  0  0  0  0  0  0  0  0
    0.1797   -3.9237    2.5878 H   0  0  0  0  0  0  0  0  0  0  0  0
    1.2580   -2.5112    2.8148 H   0  0  0  0  0  0  0  0  0  0  0  0
    2.9133   -3.4794    1.6102 H   0  0  0  0  0  0  0  0  0  0  0  0
    1.9006   -4.9520    1.2902 H   0  0  0  0  0  0  0  0  0  0  0  0
    2.4955   -3.3251   -0.7825 H   0  0  0  0  0  0  0  0  0  0  0  0
    0.8186   -3.9845   -0.5234 H   0  0  0  0  0  0  0  0  0  0  0  0
    0.6544    0.8483    0.8404 H   0  0  0  0  0  0  0  0  0  0  0  0
    2.5324    1.6018    1.9829 H   0  0  0  0  0  0  0  0  0  0  0  0
    2.3835   -0.1354    2.1871 H   0  0  0  0  0  0  0  0  0  0  0  0
    4.5276    1.2894    0.4921 H   0  0  0  0  0  0  0  0  0  0  0  0
    4.6125    0.5743    2.0848 H   0  0  0  0  0  0  0  0  0  0  0  0
    4.1384   -1.2522   -0.3437 H   0  0  0  0  0  0  0  0  0  0  0  0
    4.3656   -1.6174    1.4335 H   0  0  0  0  0  0  0  0  0  0  0  0
    5.9069   -0.9895    3.3578 H   0  0  0  0  0  0  0  0  0  0  0  0
    6.0757   -2.6416    2.7559 H   0  0  0  0  0  0  0  0  0  0  0  0
    8.7316   -1.7253    0.6728 H   0  0  0  0  0  0  0  0  0  0  0  0
    8.6919   -0.3649    1.8228 H   0  0  0  0  0  0  0  0  0  0  0  0
    2.7853    1.8000   -0.9233 H   0  0  0  0  0  0  0  0  0  0  0  0
  1  2  1  0
  2  3  1  0
  3  4  1  0
  3  5  1  0
  5  6  1  0
  6  7  1  0
  7  8  2  0
  7  9  1  0
  9 10  1  0
 10 11  1  0
 11 12  2  0
 12 13  1  0
 13 14  2  0
 14 15  1  0
 15 16  2  0
  9 17  1  0
 17 18  1  0
 18 19  2  0
 18 20  1  0
 20 21  1  0
 21 22  1  0
 22 23  1  0
 23 24  1  0
 24 25  1  0
 25 26  2  0
 25 27  1  0
 27 28  1  0
 28 29  1  0
 29 30  1  0
 30 31  1  0
 31 32  2  3
 32 33  1  0
 32 34  1  0
 27 35  1  0
 35 36  1  0
 36 37  2  0
 36  5  1  0
 16 11  1  0
 24 20  1  0
  1 38  1  0
  1 39  1  0
  1 40  1  0
  2 41  1  0
  2 42  1  0
  3 43  1  6
  4 44  1  0
  4 45  1  0
  4 46  1  0
  5 47  1  6
  6 48  1  0
  9 49  1  6
 10 50  1  0
 10 51  1  0
 12 52  1  0
 13 53  1  0
 14 54  1  0
 15 55  1  0
 16 56  1  0
 17 57  1  0
 20 58  1  6
 21 59  1  0
 21 60  1  0
 22 61  1  0
 22 62  1  0
 23 63  1  0
 23 64  1  0
 27 65  1  1
 28 66  1  0
 28 67  1  0
 29 68  1  0
 29 69  1  0
 30 70  1  0
 30 71  1  0
 33 72  1  0
 33 73  1  0
 34 74  1  0
 34 75  1  0
 35 76  1  0
M  END
$$$$
[H]c1nc(N2C([H])([H])[C@@]3([H])N(C([H])([H])[H])C([H])([H])[C@@]2([H])C3([H])[H])c([H])c([H])c1-c1c([H])c(F)c([H])c(F)c1[H]
     RDKit          2D

 39 42  0  0  0  0  0  0  0  0999 V2000
    2.7760    0.0000    0.0000 C   0  0  0  0  0  0  0  0  0  0  0  0
    1.2760    0.0000    0.0000 N   0  0  0  0  0  0  0  0  0  0  0  0
    0.3943    1.2135    0.0000 C   0  0  0  0  0  0  0  0  0  0  0  0
   -1.0323    0.7500    0.0000 C   0  0  0  0  0  0  0  0  0  0  0  0
   -1.0323   -0.7500    0.0000 C   0  0  0  0  0  0  0  0  0  0  0  0
    0.3943   -1.2135    0.0000 C   0  0  0  0  0  0  0  0  0  0  0  0
   -1.0323   -1.6771    0.0000 C   0  0  0  0  0  0  0  0  0  0  0  0
   -1.9140   -0.4635    0.0000 N   0  0  0  0  0  0  0  0  0  0  0  0
   -3.4140   -0.4635    0.0000 C   0  0  0  0  0  0  0  0  0  0  0  0
   -4.1640    0.8355    0.0000 C   0  0  0  0  0  0  0  0  0  0  0  0
   -5.6640    0.8355    0.0000 C   0  0  0  0  0  0  0  0  0  0  0  0
   -6.4140   -0.4635    0.0000 C   0  0  0  0  0  0  0  0  0  0  0  0
   -5.6640   -1.7626    0.0000 C   0  0  0  0  0  0  0  0  0  0  0  0
   -4.1640   -1.7626    0.0000 N   0  0  0  0  0  0  0  0  0  0  0  0
   -7.9140   -0.4635    0.0000 C   0  0  0  0  0  0  0  0  0  0  0  0
   -8.6640    0.8355    0.0000 C   0  0  0  0  0  0  0  0  0  0  0  0
  -10.1640    0.8355    0.0000 C   0  0  0  0  0  0  0  0  0  0  0  0
  -10.9140    2.1346    0.0000 F   0  0  0  0  0  0  0  0  0  0  0  0
  -10.9140   -0.4635    0.0000 C   0  0  0  0  0  0  0  0  0  0  0  0
  -10.1640   -1.7626    0.0000 C   0  0  0  0  0  0  0  0  0  0  0  0
  -10.9140   -3.0616    0.0000 F   0  0  0  0  0  0  0  0  0  0  0  0
   -8.6640   -1.7626    0.0000 C   0  0  0  0  0  0  0  0  0  0  0  0
    4.2760    0.0000    0.0000 H   0  0  0  0  0  0  0  0  0  0  0  0
    2.7760   -1.5000    0.0000 H   0  0  0  0  0  0  0  0  0  0  0  0
    2.7760    1.5000    0.0000 H   0  0  0  0  0  0  0  0  0  0  0  0
   -0.2158    2.5838    0.0000 H   0  0  0  0  0  0  0  0  0  0  0  0
    1.6933    1.9635    0.0000 H   0  0  0  0  0  0  0  0  0  0  0  0
   -2.2458    1.6317    0.0000 H   0  0  0  0  0  0  0  0  0  0  0  0
   -1.3818   -1.4665    0.0000 H   0  0  0  0  0  0  0  0  0  0  0  0
   -2.5177   -0.9588    0.0000 H   0  0  0  0  0  0  0  0  0  0  0  0
    0.8578   -2.6401    0.0000 H   0  0  0  0  0  0  0  0  0  0  0  0
   -0.4222   -3.0474    0.0000 H   0  0  0  0  0  0  0  0  0  0  0  0
   -2.3313   -2.4271    0.0000 H   0  0  0  0  0  0  0  0  0  0  0  0
   -3.4140    2.1346    0.0000 H   0  0  0  0  0  0  0  0  0  0  0  0
   -6.4140    2.1346    0.0000 H   0  0  0  0  0  0  0  0  0  0  0  0
   -6.4140   -3.0616    0.0000 H   0  0  0  0  0  0  0  0  0  0  0  0
   -7.9140    2.1346    0.0000 H   0  0  0  0  0  0  0  0  0  0  0  0
  -12.4140   -0.4635    0.0000 H   0  0  0  0  0  0  0  0  0  0  0  0
   -7.9140   -3.0616    0.0000 H   0  0  0  0  0  0  0  0  0  0  0  0
  1  2  1  0
  2  3  1  0
  3  4  1  0
  4  5  1  0
  5  6  1  0
  6  7  1  0
  7  8  1  0
  8  9  1  0
  9 10  2  0
 10 11  1  0
 11 12  2  0
 12 13  1  0
 13 14  2  0
 12 15  1  0
 15 16  2  0
 16 17  1  0
 17 18  1  0
 17 19  2  0
 19 20  1  0
 20 21  1  0
 20 22  2  0
  6  2  1  0
 14  9  1  0
 22 15  1  0
  8  4  1  0
  1 23  1  0
  1 24  1  0
  1 25  1  0
  3 26  1  0
  3 27  1  0
  4 28  1  6
  5 29  1  0
  5 30  1  0
  6 31  1  1
  7 32  1  0
  7 33  1  0
 10 34  1  0
 11 35  1  0
 13 36  1  0
 16 37  1  0
 19 38  1  0
 22 39  1  0
M  END
$$$$
[H]O[C@]1([H])[C@@]([H])(C([H])([H])OP(=O)(O[H])OP(=O)(O[H])OP(=O)(O[H])OC([H])([H])[C@@]2([H])O[C@@]([H])(n3c([H])c([H])c(=O)n([H])c3=O)[C@]([H])(O[H])[C@]2([H])O[H])O[C@@]([H])(c2c([H])c([H])c([H])c([H])c2[H])[C@]1([H])O[H]
     RDKit          3D

 70 73  0  0  0  0  0  0  0  0999 V2000
   -5.3118   -2.8670    0.4671 O   0  0  0  0  0  0  0  0  0  0  0  0
   -5.5383   -1.7564   -0.3189 C   0  0  1  0  0  0  0  0  0  0  0  0
   -6.9570   -1.3022   -0.2475 C   0  0  1  0  0  0  0  0  0  0  0  0
   -7.6916   -2.3352    0.3463 O   0  0  0  0  0  0  0  0  0  0  0  0
   -6.8486   -0.0728    0.6121 C   0  0  1  0  0  0  0  0  0  0  0  0
   -5.5562    0.4494    0.5074 O   0  0  0  0  0  0  0  0  0  0  0  0
   -4.7667   -0.5775    0.1449 C   0  0  2  0  0  0  0  0  0  0  0  0
   -3.7142   -0.2190   -0.8505 C   0  0  0  0  0  0  0  0  0  0  0  0
   -3.1848   -1.5293   -1.1210 O   0  0  0  0  0  0  0  0  0  0  0  0
   -1.6048   -1.4727   -0.5318 P   0  0  0  0  0  0  0  0  0  0  0  0
   -1.4225   -2.8024    0.5633 O   0  0  0  0  0  0  0  0  0  0  0  0
   -0.5995   -1.5569   -1.5697 O   0  0  0  0  0  0  0  0  0  0  0  0
   -1.4881   -0.1021    0.5164 O   0  0  0  0  0  0  0  0  0  0  0  0
    0.0448   -0.2560    1.2482 P   0  0  0  0  0  0  0  0  0  0  0  0
   -0.0137   -1.4991    2.3684 O   0  0  0  0  0  0  0  0  0  0  0  0
    0.4638    1.0300    1.8964 O   0  0  0  0  0  0  0  0  0  0  0  0
    1.0736   -0.6494   -0.0578 O   0  0  0  0  0  0  0  0  0  0  0  0
    2.0412    0.6968   -0.4060 P   0  0  0  0  0  0  0  0  0  0  0  0
    1.3835    2.1538   -0.0524 O   0  0  0  0  0  0  0  0  0  0  0  0
    2.1827    0.6247   -2.0044 O   0  0  0  0  0  0  0  0  0  0  0  0
    3.5688    0.4365    0.1640 O   0  0  0  0  0  0  0  0  0  0  0  0
    3.6057   -0.9505    0.5361 C   0  0  0  0  0  0  0  0  0  0  0  0
    4.8162   -1.5106   -0.2105 C   0  0  1  0  0  0  0  0  0  0  0  0
    5.3661   -0.3572   -0.8470 O   0  0  0  0  0  0  0  0  0  0  0  0
    6.6478   -0.2920   -0.5562 C   0  0  2  0  0  0  0  0  0  0  0  0
    6.7937   -1.0137    0.8499 C   0  0  2  0  0  0  0  0  0  0  0  0
    8.0726   -1.4069    1.0535 O   0  0  0  0  0  0  0  0  0  0  0  0
    5.8161   -2.1319    0.6453 C   0  0  2  0  0  0  0  0  0  0  0  0
    6.4580   -3.2203   -0.0233 O   0  0  0  0  0  0  0  0  0  0  0  0
    7.3003    0.9965   -0.4460 N   0  0  0  0  0  0  0  0  0  0  0  0
    6.8437    2.0193    0.1689 C   0  0  0  0  0  0  0  0  0  0  0  0
    7.5896    3.1905    0.4081 C   0  0  0  0  0  0  0  0  0  0  0  0
    8.8984    3.1994   -0.0450 C   0  0  0  0  0  0  0  0  0  0  0  0
    9.6752    4.1352    0.1569 O   0  0  0  0  0  0  0  0  0  0  0  0
    9.3054    2.1175   -0.6784 N   0  0  0  0  0  0  0  0  0  0  0  0
    8.6048    0.9823   -0.9383 C   0  0  0  0  0  0  0  0  0  0  0  0
    9.1076    0.0929   -1.5462 O   0  0  0  0  0  0  0  0  0  0  0  0
   -7.7478    1.0427    0.2109 C   0  0  0  0  0  0  0  0  0  0  0  0
   -7.2942    2.1386   -0.5413 C   0  0  0  0  0  0  0  0  0  0  0  0
   -8.0934    3.1955   -0.8787 C   0  0  0  0  0  0  0  0  0  0  0  0
   -9.4109    3.1812   -0.4548 C   0  0  0  0  0  0  0  0  0  0  0  0
   -9.8457    2.0705    0.2984 C   0  0  0  0  0  0  0  0  0  0  0  0
   -9.0234    1.0479    0.6065 C   0  0  0  0  0  0  0  0  0  0  0  0
   -4.4540   -2.6919    1.0117 H   0  0  0  0  0  0  0  0  0  0  0  0
   -5.3126   -2.0449   -1.3539 H   0  0  0  0  0  0  0  0  0  0  0  0
   -7.3536   -1.1012   -1.2393 H   0  0  0  0  0  0  0  0  0  0  0  0
   -7.2582   -3.2355    0.2062 H   0  0  0  0  0  0  0  0  0  0  0  0
   -6.9818   -0.3616    1.6866 H   0  0  0  0  0  0  0  0  0  0  0  0
   -4.1295   -0.9169    1.0600 H   0  0  0  0  0  0  0  0  0  0  0  0
   -2.9601    0.4563   -0.5002 H   0  0  0  0  0  0  0  0  0  0  0  0
   -4.1319    0.1622   -1.8251 H   0  0  0  0  0  0  0  0  0  0  0  0
   -2.0873   -2.5774    1.3169 H   0  0  0  0  0  0  0  0  0  0  0  0
    0.3659   -2.3507    2.0054 H   0  0  0  0  0  0  0  0  0  0  0  0
    0.6012    2.3541   -0.6604 H   0  0  0  0  0  0  0  0  0  0  0  0
    2.7405   -1.5147    0.3428 H   0  0  0  0  0  0  0  0  0  0  0  0
    3.8170   -0.9428    1.6326 H   0  0  0  0  0  0  0  0  0  0  0  0
    4.4003   -2.2284   -1.0109 H   0  0  0  0  0  0  0  0  0  0  0  0
    7.2216   -0.9520   -1.2466 H   0  0  0  0  0  0  0  0  0  0  0  0
    6.3728   -0.3151    1.6003 H   0  0  0  0  0  0  0  0  0  0  0  0
    8.4494   -1.8986    0.3158 H   0  0  0  0  0  0  0  0  0  0  0  0
    5.4473   -2.5150    1.6020 H   0  0  0  0  0  0  0  0  0  0  0  0
    6.6023   -2.9439   -0.9787 H   0  0  0  0  0  0  0  0  0  0  0  0
    5.8389    2.0125    0.5939 H   0  0  0  0  0  0  0  0  0  0  0  0
    7.1377    4.0579    0.8944 H   0  0  0  0  0  0  0  0  0  0  0  0
   10.3546    2.1146   -0.9542 H   0  0  0  0  0  0  0  0  0  0  0  0
   -6.2773    2.1153   -0.8281 H   0  0  0  0  0  0  0  0  0  0  0  0
   -7.6495    4.0522   -1.4440 H   0  0  0  0  0  0  0  0  0  0  0  0
  -10.0547    3.9641   -0.7871 H   0  0  0  0  0  0  0  0  0  0  0  0
  -10.8470    2.1557    0.6317 H   0  0  0  0  0  0  0  0  0  0  0  0
   -9.3984    0.2256    1.2656 H   0  0  0  0  0  0  0  0  0  0  0  0
  1  2  1  0
  2  3  1  0
  3  4  1  0
  3  5  1  0
  5  6  1  0
  6  7  1  0
  7  8  1  0
  8  9  1  0
  9 10  1  0
 10 11  1  0
 10 12  2  0
 10 13  1  0
 13 14  1  0
 14 15  1  0
 14 16  2  0
 14 17  1  0
 17 18  1  0
 18 19  1  0
 18 20  2  0
 18 21  1  0
 21 22  1  0
 22 23  1  0
 23 24  1  0
 24 25  1  0
 25 26  1  0
 26 27  1  0
 26 28  1  0
 28 29  1  0
 25 30  1  0
 30 31  1  0
 31 32  2  0
 32 33  1  0
 33 34  2  0
 33 35  1  0
 35 36  1  0
 36 37  2  0
  5 38  1  0
 38 39  2  0
 39 40  1  0
 40 41  2  0
 41 42  1  0
 42 43  2  0
  7  2  1  0
 28 23  1  0
 36 30  1  0
 43 38  1  0
  1 44  1  0
  2 45  1  6
  3 46  1  6
  4 47  1  0
  5 48  1  1
  7 49  1  1
  8 50  1  0
  8 51  1  0
 11 52  1  0
 15 53  1  0
 19 54  1  0
 22 55  1  0
 22 56  1  0
 23 57  1  6
 25 58  1  6
 26 59  1  1
 27 60  1  0
 28 61  1  1
 29 62  1  0
 31 63  1  0
 32 64  1  0
 35 65  1  0
 39 66  1  0
 40 67  1  0
 41 68  1  0
 42 69  1  0
 43 70  1  0
M  END
$$$$
[H]c1nc(N([H])[H])c2c(-c3c([H])c([H])c(Oc4c([H])c([H])c([H])c([H])c4[H])c([H])c3[H])c([H])n([C@@]3([H])C([H])([H])N([H])C([H])([H])C([H])([H])C3([H])[H])c2n1
     RDKit          3D

 52 56  0  0  0  0  0  0  0  0999 V2000
    0.3963   -3.7326    0.3716 N   0  0  0  0  0  0  0  0  0  0  0  0
   -0.9611   -3.3431    0.3447 C   0  0  0  0  0  0  0  0  0  0  0  0
   -1.9527   -4.2701    0.1884 N   0  0  0  0  0  0  0  0  0  0  0  0
   -3.2291   -3.8707    0.1430 C   0  0  0  0  0  0  0  0  0  0  0  0
   -3.5872   -2.5790    0.2454 N   0  0  0  0  0  0  0  0  0  0  0  0
   -2.6584   -1.6253    0.4004 C   0  0  0  0  0  0  0  0  0  0  0  0
   -2.7570   -0.2894    0.5142 N   0  0  0  0  0  0  0  0  0  0  0  0
   -1.5160    0.1708    0.6368 C   0  0  0  0  0  0  0  0  0  0  0  0
   -0.5665   -0.8643    0.6063 C   0  0  0  0  0  0  0  0  0  0  0  0
    0.8679   -0.6887    0.7591 C   0  0  0  0  0  0  0  0  0  0  0  0
    1.5587   -1.2326    1.8042 C   0  0  0  0  0  0  0  0  0  0  0  0
    2.9247   -1.0862    1.9611 C   0  0  0  0  0  0  0  0  0  0  0  0
    3.6244   -0.3558    1.0181 C   0  0  0  0  0  0  0  0  0  0  0  0
    4.9753   -0.1993    1.1552 O   0  0  0  0  0  0  0  0  0  0  0  0
    5.6842    0.5227    0.2279 C   0  0  0  0  0  0  0  0  0  0  0  0
    6.2060   -0.1507   -0.8656 C   0  0  0  0  0  0  0  0  0  0  0  0
    6.9335    0.5360   -1.8357 C   0  0  0  0  0  0  0  0  0  0  0  0
    7.1297    1.8982   -1.6959 C   0  0  0  0  0  0  0  0  0  0  0  0
    6.6078    2.5418   -0.6122 C   0  0  0  0  0  0  0  0  0  0  0  0
    5.8917    1.8763    0.3462 C   0  0  0  0  0  0  0  0  0  0  0  0
    2.9641    0.2083   -0.0492 C   0  0  0  0  0  0  0  0  0  0  0  0
    1.5790    0.0361   -0.1717 C   0  0  0  0  0  0  0  0  0  0  0  0
   -1.3330   -2.0059    0.4518 C   0  0  0  0  0  0  0  0  0  0  0  0
   -4.0078    0.4974    0.5033 C   0  0  2  0  0  0  0  0  0  0  0  0
   -4.7279    0.2720   -0.7896 C   0  0  0  0  0  0  0  0  0  0  0  0
   -5.9400    1.2029   -0.7956 C   0  0  0  0  0  0  0  0  0  0  0  0
   -5.4164    2.6185   -0.7183 C   0  0  0  0  0  0  0  0  0  0  0  0
   -4.7679    2.8072    0.5629 N   0  0  0  0  0  0  0  0  0  0  0  0
   -3.6426    1.9408    0.7286 C   0  0  0  0  0  0  0  0  0  0  0  0
    0.7134   -4.2894    1.2101 H   0  0  0  0  0  0  0  0  0  0  0  0
    1.0948   -3.5155   -0.3608 H   0  0  0  0  0  0  0  0  0  0  0  0
   -4.0299   -4.5972    0.0191 H   0  0  0  0  0  0  0  0  0  0  0  0
   -1.2320    1.2141    0.7489 H   0  0  0  0  0  0  0  0  0  0  0  0
    1.0526   -1.8116    2.5831 H   0  0  0  0  0  0  0  0  0  0  0  0
    3.4114   -1.5380    2.8041 H   0  0  0  0  0  0  0  0  0  0  0  0
    6.0514   -1.2147   -0.9727 H   0  0  0  0  0  0  0  0  0  0  0  0
    7.3388    0.0018   -2.6889 H   0  0  0  0  0  0  0  0  0  0  0  0
    7.7042    2.3888   -2.4795 H   0  0  0  0  0  0  0  0  0  0  0  0
    6.7722    3.6149   -0.5183 H   0  0  0  0  0  0  0  0  0  0  0  0
    5.4935    2.4083    1.1870 H   0  0  0  0  0  0  0  0  0  0  0  0
    3.5470    0.7677   -0.7579 H   0  0  0  0  0  0  0  0  0  0  0  0
    1.1072    0.5017   -1.0318 H   0  0  0  0  0  0  0  0  0  0  0  0
   -4.6752    0.1865    1.3333 H   0  0  0  0  0  0  0  0  0  0  0  0
   -5.1126   -0.7619   -0.8013 H   0  0  0  0  0  0  0  0  0  0  0  0
   -4.0612    0.4865   -1.6454 H   0  0  0  0  0  0  0  0  0  0  0  0
   -6.5447    1.0476   -1.6919 H   0  0  0  0  0  0  0  0  0  0  0  0
   -6.4716    1.0085    0.1580 H   0  0  0  0  0  0  0  0  0  0  0  0
   -4.6715    2.8031   -1.5103 H   0  0  0  0  0  0  0  0  0  0  0  0
   -6.2196    3.3685   -0.8099 H   0  0  0  0  0  0  0  0  0  0  0  0
   -5.4350    2.7633    1.3597 H   0  0  0  0  0  0  0  0  0  0  0  0
   -2.8435    2.2882    0.0410 H   0  0  0  0  0  0  0  0  0  0  0  0
   -3.2692    2.0434    1.7717 H   0  0  0  0  0  0  0  0  0  0  0  0
  1  2  1  0
  2  3  2  0
  3  4  1  0
  4  5  2  0
  5  6  1  0
  6  7  1  0
  7  8  1  0
  8  9  2  0
  9 10  1  0
 10 11  2  0
 11 12  1  0
 12 13  2  0
 13 14  1  0
 14 15  1  0
 15 16  2  0
 16 17  1  0
 17 18  2  0
 18 19  1  0
 19 20  2  0
 13 21  1  0
 21 22  2  0
  9 23  1  0
  7 24  1  0
 24 25  1  0
 25 26  1  0
 26 27  1  0
 27 28  1  0
 28 29  1  0
 23  2  1  0
 29 24  1  0
 23  6  2  0
 22 10  1  0
 20 15  1  0
  1 30  1  0
  1 31  1  0
  4 32  1  0
  8 33  1  0
 11 34  1  0
 12 35  1  0
 16 36  1  0
 17 37  1  0
 18 38  1  0
 19 39  1  0
 20 40  1  0
 21 41  1  0
 22 42  1  0
 24 43  1  1
 25 44  1  0
 25 45  1  0
 26 46  1  0
 26 47  1  0
 27 48  1  0
 27 49  1  0
 28 50  1  0
 29 51  1  0
 29 52  1  0
M  END
$$$$
[H]Oc1c([H])c([H])c(C([H])([H])[C@@]([H])(C(=O)N([H])[C@@]([H])(C(=O)N2C([H])([H])C([H])([H])C([H])([H])[C@@]2([H])C(=O)N([H])[C@]([H])(C(=O)N([H])[H])C([H])([H])c2c([H])c([H])c([H])c([H])c2[H])C([H])([H])[H])N([H])[H])c([H])c1[H]
     RDKit          3D

 69 71  0  0  0  0  0  0  0  0999 V2000
   -0.6695   -1.5872    1.4688 C   0  0  0  0  0  0  0  0  0  0  0  0
   -0.9437   -0.2948    0.7054 C   0  0  1  0  0  0  0  0  0  0  0  0
   -2.4073   -0.0965    0.6623 N   0  0  0  0  0  0  0  0  0  0  0  0
   -3.1711   -0.2731   -0.4926 C   0  0  0  0  0  0  0  0  0  0  0  0
   -2.5577   -0.6239   -1.5587 O   0  0  0  0  0  0  0  0  0  0  0  0
   -4.6254   -0.0948   -0.5995 C   0  0  1  0  0  0  0  0  0  0  0  0
   -5.1342    0.3668    0.6667 N   0  0  0  0  0  0  0  0  0  0  0  0
   -5.0287    0.8817   -1.6686 C   0  0  0  0  0  0  0  0  0  0  0  0
   -6.4852    1.0328   -1.7499 C   0  0  0  0  0  0  0  0  0  0  0  0
   -7.2397    0.2049   -2.5667 C   0  0  0  0  0  0  0  0  0  0  0  0
   -8.6137    0.3598   -2.6348 C   0  0  0  0  0  0  0  0  0  0  0  0
   -9.2285    1.3405   -1.8874 C   0  0  0  0  0  0  0  0  0  0  0  0
  -10.5996    1.4925   -1.9589 O   0  0  0  0  0  0  0  0  0  0  0  0
   -8.4958    2.1833   -1.0613 C   0  0  0  0  0  0  0  0  0  0  0  0
   -7.1220    2.0102   -1.0090 C   0  0  0  0  0  0  0  0  0  0  0  0
   -0.3414    0.8615    1.3757 C   0  0  0  0  0  0  0  0  0  0  0  0
   -1.2054    1.7653    1.8145 O   0  0  0  0  0  0  0  0  0  0  0  0
    0.9744    1.1959    1.6494 N   0  0  0  0  0  0  0  0  0  0  0  0
    1.3319    2.4439    2.4799 C   0  0  0  0  0  0  0  0  0  0  0  0
    2.2631    1.8070    3.4983 C   0  0  0  0  0  0  0  0  0  0  0  0
    2.7098    0.4586    2.8845 C   0  0  0  0  0  0  0  0  0  0  0  0
    2.3008    0.7338    1.4301 C   0  0  1  0  0  0  0  0  0  0  0  0
    2.6510   -0.2560    0.4648 C   0  0  0  0  0  0  0  0  0  0  0  0
    2.0332   -0.4728   -0.6361 O   0  0  0  0  0  0  0  0  0  0  0  0
    3.7990   -1.1010    0.7254 N   0  0  0  0  0  0  0  0  0  0  0  0
    4.2240   -2.1114   -0.2048 C   0  0  1  0  0  0  0  0  0  0  0  0
    5.7168   -1.9644   -0.4121 C   0  0  0  0  0  0  0  0  0  0  0  0
    6.0645   -0.6352   -0.9367 C   0  0  0  0  0  0  0  0  0  0  0  0
    6.3478    0.3635   -0.0219 C   0  0  0  0  0  0  0  0  0  0  0  0
    6.6722    1.6250   -0.4587 C   0  0  0  0  0  0  0  0  0  0  0  0
    6.7192    1.9079   -1.7890 C   0  0  0  0  0  0  0  0  0  0  0  0
    6.4398    0.9229   -2.6976 C   0  0  0  0  0  0  0  0  0  0  0  0
    6.1055   -0.3759   -2.2856 C   0  0  0  0  0  0  0  0  0  0  0  0
    3.9236   -3.4843    0.3101 C   0  0  0  0  0  0  0  0  0  0  0  0
    4.2808   -4.6003   -0.4924 N   0  0  0  0  0  0  0  0  0  0  0  0
    3.3753   -3.6930    1.4066 O   0  0  0  0  0  0  0  0  0  0  0  0
    0.2885   -1.4624    1.9924 H   0  0  0  0  0  0  0  0  0  0  0  0
   -1.4331   -1.7395    2.2650 H   0  0  0  0  0  0  0  0  0  0  0  0
   -0.6027   -2.3992    0.7448 H   0  0  0  0  0  0  0  0  0  0  0  0
   -0.6542   -0.4482   -0.3315 H   0  0  0  0  0  0  0  0  0  0  0  0
   -2.8343    0.1898    1.5621 H   0  0  0  0  0  0  0  0  0  0  0  0
   -5.0441   -1.0831   -0.8881 H   0  0  0  0  0  0  0  0  0  0  0  0
   -4.8170   -0.1732    1.4933 H   0  0  0  0  0  0  0  0  0  0  0  0
   -4.8583    1.3893    0.7840 H   0  0  0  0  0  0  0  0  0  0  0  0
   -4.6661    0.4608   -2.6493 H   0  0  0  0  0  0  0  0  0  0  0  0
   -4.5051    1.8607   -1.5647 H   0  0  0  0  0  0  0  0  0  0  0  0
   -6.7633   -0.5757   -3.1620 H   0  0  0  0  0  0  0  0  0  0  0  0
   -9.2547   -0.2596   -3.2560 H   0  0  0  0  0  0  0  0  0  0  0  0
  -11.2361    0.9993   -1.3455 H   0  0  0  0  0  0  0  0  0  0  0  0
   -8.9807    2.9580   -0.4728 H   0  0  0  0  0  0  0  0  0  0  0  0
   -6.5199    2.6399   -0.3854 H   0  0  0  0  0  0  0  0  0  0  0  0
    0.4359    2.8763    2.8883 H   0  0  0  0  0  0  0  0  0  0  0  0
    1.8359    3.1503    1.8086 H   0  0  0  0  0  0  0  0  0  0  0  0
    3.2071    2.4224    3.5408 H   0  0  0  0  0  0  0  0  0  0  0  0
    1.8003    1.6575    4.4808 H   0  0  0  0  0  0  0  0  0  0  0  0
    2.0604   -0.3171    3.3304 H   0  0  0  0  0  0  0  0  0  0  0  0
    3.7780    0.3118    3.0197 H   0  0  0  0  0  0  0  0  0  0  0  0
    2.9052    1.7130    1.1974 H   0  0  0  0  0  0  0  0  0  0  0  0
    4.3155   -0.9692    1.5990 H   0  0  0  0  0  0  0  0  0  0  0  0
    3.6877   -2.0345   -1.1623 H   0  0  0  0  0  0  0  0  0  0  0  0
    6.1160   -2.7515   -1.1189 H   0  0  0  0  0  0  0  0  0  0  0  0
    6.2728   -2.1299    0.5360 H   0  0  0  0  0  0  0  0  0  0  0  0
    6.3259    0.1836    1.0542 H   0  0  0  0  0  0  0  0  0  0  0  0
    6.8940    2.4071    0.2468 H   0  0  0  0  0  0  0  0  0  0  0  0
    6.9761    2.9076   -2.1625 H   0  0  0  0  0  0  0  0  0  0  0  0
    6.4641    1.1049   -3.7772 H   0  0  0  0  0  0  0  0  0  0  0  0
    5.8916   -1.1317   -3.0318 H   0  0  0  0  0  0  0  0  0  0  0  0
    4.3430   -5.5765   -0.1314 H   0  0  0  0  0  0  0  0  0  0  0  0
    4.5077   -4.4937   -1.5247 H   0  0  0  0  0  0  0  0  0  0  0  0
  1  2  1  0
  2  3  1  0
  3  4  1  0
  4  5  2  0
  4  6  1  0
  6  7  1  0
  6  8  1  0
  8  9  1  0
  9 10  2  0
 10 11  1  0
 11 12  2  0
 12 13  1  0
 12 14  1  0
 14 15  2  0
  2 16  1  0
 16 17  2  0
 16 18  1  0
 18 19  1  0
 19 20  1  0
 20 21  1  0
 21 22  1  0
 22 23  1  0
 23 24  2  0
 23 25  1  0
 25 26  1  0
 26 27  1  0
 27 28  1  0
 28 29  2  0
 29 30  1  0
 30 31  2  0
 31 32  1  0
 32 33  2  0
 26 34  1  0
 34 35  1  0
 34 36  2  0
 15  9  1  0
 22 18  1  0
 33 28  1  0
  1 37  1  0
  1 38  1  0
  1 39  1  0
  2 40  1  6
  3 41  1  0
  6 42  1  6
  7 43  1  0
  7 44  1  0
  8 45  1  0
  8 46  1  0
 10 47  1  0
 11 48  1  0
 13 49  1  0
 14 50  1  0
 15 51  1  0
 19 52  1  0
 19 53  1  0
 20 54  1  0
 20 55  1  0
 21 56  1  0
 21 57  1  0
 22 58  1  6
 25 59  1  0
 26 60  1  6
 27 61  1  0
 27 62  1  0
 29 63  1  0
 30 64  1  0
 31 65  1  0
 32 66  1  0
 33 67  1  0
 35 68  1  0
 35 69  1  0
M  END
$$$$
[H]c1nc([H])c(-c2c(OC([H])(C([H])([H])[H])C([H])([H])[H])nc3sc(N([H])C(=O)N([H])C([H])([H])C([H])([H])[H])nc3c2[H])c([H])c1[H]
     RDKit          3D

 44 46  0  0  0  0  0  0  0  0999 V2000
    8.5370    0.1795    0.0749 C   0  0  0  0  0  0  0  0  0  0  0  0
    7.1107   -0.2122    0.3866 C   0  0  0  0  0  0  0  0  0  0  0  0
    6.2048    0.6006   -0.3728 N   0  0  0  0  0  0  0  0  0  0  0  0
    4.8146    0.4135   -0.2444 C   0  0  0  0  0  0  0  0  0  0  0  0
    4.3834   -0.4743    0.5437 O   0  0  0  0  0  0  0  0  0  0  0  0
    3.9247    1.2205   -0.9982 N   0  0  0  0  0  0  0  0  0  0  0  0
    2.4973    1.0526   -0.8882 C   0  0  0  0  0  0  0  0  0  0  0  0
    1.8212    0.2019   -0.1406 N   0  0  0  0  0  0  0  0  0  0  0  0
    0.5214    0.1948   -0.1720 C   0  0  0  0  0  0  0  0  0  0  0  0
   -0.3644   -0.6306    0.5466 C   0  0  0  0  0  0  0  0  0  0  0  0
   -1.7215   -0.5405    0.4258 C   0  0  0  0  0  0  0  0  0  0  0  0
   -2.5996   -1.4486    1.2111 C   0  0  0  0  0  0  0  0  0  0  0  0
   -2.3748   -1.6201    2.5424 C   0  0  0  0  0  0  0  0  0  0  0  0
   -3.1890   -2.4692    3.2686 C   0  0  0  0  0  0  0  0  0  0  0  0
   -4.2089   -3.1162    2.6060 C   0  0  0  0  0  0  0  0  0  0  0  0
   -4.4044   -2.9269    1.2964 N   0  0  0  0  0  0  0  0  0  0  0  0
   -3.6257   -2.1134    0.5962 C   0  0  0  0  0  0  0  0  0  0  0  0
   -2.2839    0.3864   -0.4262 C   0  0  0  0  0  0  0  0  0  0  0  0
   -3.6525    0.4531   -0.5249 O   0  0  0  0  0  0  0  0  0  0  0  0
   -4.2218    1.4006   -1.3947 C   0  0  0  0  0  0  0  0  0  0  0  0
   -5.2057    2.2583   -0.6557 C   0  0  0  0  0  0  0  0  0  0  0  0
   -4.9134    0.6148   -2.5060 C   0  0  0  0  0  0  0  0  0  0  0  0
   -1.4574    1.1874   -1.1246 N   0  0  0  0  0  0  0  0  0  0  0  0
   -0.0966    1.0949   -1.0018 C   0  0  0  0  0  0  0  0  0  0  0  0
    1.2475    1.9005   -1.6893 S   0  0  0  0  0  0  0  0  0  0  0  0
    8.7366    1.2124    0.3675 H   0  0  0  0  0  0  0  0  0  0  0  0
    9.2367   -0.4773    0.6532 H   0  0  0  0  0  0  0  0  0  0  0  0
    8.7491    0.0261   -1.0029 H   0  0  0  0  0  0  0  0  0  0  0  0
    6.9587   -0.0955    1.4889 H   0  0  0  0  0  0  0  0  0  0  0  0
    6.9815   -1.2757    0.0826 H   0  0  0  0  0  0  0  0  0  0  0  0
    6.5765    1.3228   -1.0133 H   0  0  0  0  0  0  0  0  0  0  0  0
    4.2853    1.9306   -1.6281 H   0  0  0  0  0  0  0  0  0  0  0  0
    0.0224   -1.3854    1.2385 H   0  0  0  0  0  0  0  0  0  0  0  0
   -1.5749   -1.1161    3.0751 H   0  0  0  0  0  0  0  0  0  0  0  0
   -3.0327   -2.6281    4.3440 H   0  0  0  0  0  0  0  0  0  0  0  0
   -4.8593   -3.7875    3.1602 H   0  0  0  0  0  0  0  0  0  0  0  0
   -3.8036   -1.9805   -0.4662 H   0  0  0  0  0  0  0  0  0  0  0  0
   -3.4334    2.0072   -1.9191 H   0  0  0  0  0  0  0  0  0  0  0  0
   -5.3776    1.8529    0.3737 H   0  0  0  0  0  0  0  0  0  0  0  0
   -6.2002    2.1815   -1.1789 H   0  0  0  0  0  0  0  0  0  0  0  0
   -4.8772    3.3261   -0.5927 H   0  0  0  0  0  0  0  0  0  0  0  0
   -5.6426   -0.1060   -2.0869 H   0  0  0  0  0  0  0  0  0  0  0  0
   -4.0877    0.0745   -3.0474 H   0  0  0  0  0  0  0  0  0  0  0  0
   -5.4004    1.3105   -3.2073 H   0  0  0  0  0  0  0  0  0  0  0  0
  1  2  1  0
  2  3  1  0
  3  4  1  0
  4  5  2  0
  4  6  1  0
  6  7  1  0
  7  8  2  0
  8  9  1  0
  9 10  2  0
 10 11  1  0
 11 12  1  0
 12 13  2  0
 13 14  1  0
 14 15  2  0
 15 16  1  0
 16 17  2  0
 11 18  2  0
 18 19  1  0
 19 20  1  0
 20 21  1  0
 20 22  1  0
 18 23  1  0
 23 24  2  0
 24 25  1  0
 25  7  1  0
 24  9  1  0
 17 12  1  0
  1 26  1  0
  1 27  1  0
  1 28  1  0
  2 29  1  0
  2 30  1  0
  3 31  1  0
  6 32  1  0
 10 33  1  0
 13 34  1  0
 14 35  1  0
 15 36  1  0
 17 37  1  0
 20 38  1  0
 21 39  1  0
 21 40  1  0
 21 41  1  0
 22 42  1  0
 22 43  1  0
 22 44  1  0
M  END
$$$$
[H]OC(=O)c1nc(Oc2c([H])c([H])c(O[H])c(O[H])c2[H])c2c([H])c(O[H])c(O[H])c([H])c2c1[H]
     RDKit          3D

 35 37  0  0  0  0  0  0  0  0999 V2000
   -3.7024   -2.9562    2.8556 O   0  0  0  0  0  0  0  0  0  0  0  0
   -2.4529   -2.9195    2.3002 C   0  0  0  0  0  0  0  0  0  0  0  0
   -1.6077   -3.7649    2.6929 O   0  0  0  0  0  0  0  0  0  0  0  0
   -2.0505   -1.9539    1.2792 C   0  0  0  0  0  0  0  0  0  0  0  0
   -2.9965   -1.0362    0.8648 C   0  0  0  0  0  0  0  0  0  0  0  0
   -2.6252   -0.1214   -0.0984 C   0  0  0  0  0  0  0  0  0  0  0  0
   -3.5152    0.8270   -0.5631 C   0  0  0  0  0  0  0  0  0  0  0  0
   -3.1288    1.7344   -1.5259 C   0  0  0  0  0  0  0  0  0  0  0  0
   -4.0218    2.6789   -1.9859 O   0  0  0  0  0  0  0  0  0  0  0  0
   -1.8507    1.7216   -2.0497 C   0  0  0  0  0  0  0  0  0  0  0  0
   -1.4168    2.6000   -3.0067 O   0  0  0  0  0  0  0  0  0  0  0  0
   -0.9673    0.7655   -1.5754 C   0  0  0  0  0  0  0  0  0  0  0  0
   -1.3262   -0.1547   -0.6128 C   0  0  0  0  0  0  0  0  0  0  0  0
   -0.4082   -1.0850   -0.1755 C   0  0  0  0  0  0  0  0  0  0  0  0
    0.8622   -1.1062   -0.6887 O   0  0  0  0  0  0  0  0  0  0  0  0
    1.9576   -0.5016   -0.1350 C   0  0  0  0  0  0  0  0  0  0  0  0
    1.8765    0.2104    1.0343 C   0  0  0  0  0  0  0  0  0  0  0  0
    3.0207    0.8143    1.5685 C   0  0  0  0  0  0  0  0  0  0  0  0
    4.2364    0.7025    0.9306 C   0  0  0  0  0  0  0  0  0  0  0  0
    5.3803    1.3136    1.4763 O   0  0  0  0  0  0  0  0  0  0  0  0
    4.3177   -0.0033   -0.2289 C   0  0  0  0  0  0  0  0  0  0  0  0
    5.5330   -0.1268   -0.8853 O   0  0  0  0  0  0  0  0  0  0  0  0
    3.1764   -0.6070   -0.7637 C   0  0  0  0  0  0  0  0  0  0  0  0
   -0.8090   -1.9629    0.7674 N   0  0  0  0  0  0  0  0  0  0  0  0
   -3.9112   -2.7724    3.8287 H   0  0  0  0  0  0  0  0  0  0  0  0
   -3.9965   -1.0238    1.2725 H   0  0  0  0  0  0  0  0  0  0  0  0
   -4.5282    0.8953   -0.1992 H   0  0  0  0  0  0  0  0  0  0  0  0
   -3.7697    3.3525   -2.6861 H   0  0  0  0  0  0  0  0  0  0  0  0
   -0.4743    2.5594   -3.3654 H   0  0  0  0  0  0  0  0  0  0  0  0
    0.0390    0.7551   -1.9875 H   0  0  0  0  0  0  0  0  0  0  0  0
    0.9650    0.3430    1.5905 H   0  0  0  0  0  0  0  0  0  0  0  0
    2.9807    1.3806    2.4892 H   0  0  0  0  0  0  0  0  0  0  0  0
    6.2658    1.2361    1.0178 H   0  0  0  0  0  0  0  0  0  0  0  0
    5.6244   -0.6455   -1.7493 H   0  0  0  0  0  0  0  0  0  0  0  0
    3.3236   -1.1490   -1.6861 H   0  0  0  0  0  0  0  0  0  0  0  0
  1  2  1  0
  2  3  2  0
  2  4  1  0
  4  5  2  0
  5  6  1  0
  6  7  2  0
  7  8  1  0
  8  9  1  0
  8 10  2  0
 10 11  1  0
 10 12  1  0
 12 13  2  0
 13 14  1  0
 14 15  1  0
 15 16  1  0
 16 17  2  0
 17 18  1  0
 18 19  2  0
 19 20  1  0
 19 21  1  0
 21 22  1  0
 21 23  2  0
 14 24  2  0
 24  4  1  0
 13  6  1  0
 23 16  1  0
  1 25  1  0
  5 26  1  0
  7 27  1  0
  9 28  1  0
 11 29  1  0
 12 30  1  0
 17 31  1  0
 18 32  1  0
 20 33  1  0
 22 34  1  0
 23 35  1  0
M  END
$$$$
[H]c1nc2c([H])c([H])c([H])c([H])n2c1C(=O)N([H])c1c([H])c(N([H])C(=O)c2c([H])c([H])c(C([H])([H])N3C([H])([H])C([H])([H])N(C([H])([H])[H])C([H])([H])C3([H])[H])c([H])c2[H])c([H])c([H])c1C([H])([H])[H]
     RDKit          3D

 66 70  0  0  0  0  0  0  0  0999 V2000
   -5.9844    3.7825    0.9428 C   0  0  0  0  0  0  0  0  0  0  0  0
   -6.6610    2.5850    1.3990 N   0  0  0  0  0  0  0  0  0  0  0  0
   -7.5218    2.0675    0.3865 C   0  0  0  0  0  0  0  0  0  0  0  0
   -7.5506    0.5882    0.2365 C   0  0  0  0  0  0  0  0  0  0  0  0
   -6.2608   -0.0420    0.2491 N   0  0  0  0  0  0  0  0  0  0  0  0
   -5.8920   -0.6961   -0.9616 C   0  0  0  0  0  0  0  0  0  0  0  0
   -4.5563   -1.2989   -0.8057 C   0  0  0  0  0  0  0  0  0  0  0  0
   -4.3961   -2.5460   -0.2289 C   0  0  0  0  0  0  0  0  0  0  0  0
   -3.1520   -3.1198   -0.0796 C   0  0  0  0  0  0  0  0  0  0  0  0
   -2.0440   -2.4463   -0.5095 C   0  0  0  0  0  0  0  0  0  0  0  0
   -2.1567   -1.2174   -1.0827 C   0  0  0  0  0  0  0  0  0  0  0  0
   -3.4239   -0.6499   -1.2267 C   0  0  0  0  0  0  0  0  0  0  0  0
   -0.7249   -3.0662   -0.3565 C   0  0  0  0  0  0  0  0  0  0  0  0
   -0.7416   -4.3260   -0.3604 O   0  0  0  0  0  0  0  0  0  0  0  0
    0.3958   -2.2496   -0.2238 N   0  0  0  0  0  0  0  0  0  0  0  0
    1.7200   -2.6962   -0.0702 C   0  0  0  0  0  0  0  0  0  0  0  0
    2.1189   -3.9945    0.1149 C   0  0  0  0  0  0  0  0  0  0  0  0
    3.4576   -4.3570    0.2493 C   0  0  0  0  0  0  0  0  0  0  0  0
    4.4422   -3.4143    0.2011 C   0  0  0  0  0  0  0  0  0  0  0  0
    5.8674   -3.8216    0.3469 C   0  0  0  0  0  0  0  0  0  0  0  0
    4.0901   -2.0667    0.0135 C   0  0  0  0  0  0  0  0  0  0  0  0
    5.1364   -1.1214   -0.0287 N   0  0  0  0  0  0  0  0  0  0  0  0
    5.0429    0.2784   -0.1954 C   0  0  0  0  0  0  0  0  0  0  0  0
    3.9710    0.8848   -0.3335 O   0  0  0  0  0  0  0  0  0  0  0  0
    6.2712    1.0995   -0.2110 C   0  0  0  0  0  0  0  0  0  0  0  0
    7.5655    0.6188   -0.0833 C   0  0  0  0  0  0  0  0  0  0  0  0
    8.3699    1.6804   -0.1467 N   0  0  0  0  0  0  0  0  0  0  0  0
    7.6567    2.8036   -0.3069 C   0  0  0  0  0  0  0  0  0  0  0  0
    8.0267    4.1235   -0.4226 C   0  0  0  0  0  0  0  0  0  0  0  0
    7.0677    5.0785   -0.5793 C   0  0  0  0  0  0  0  0  0  0  0  0
    5.7581    4.6942   -0.6172 C   0  0  0  0  0  0  0  0  0  0  0  0
    5.3892    3.3815   -0.5023 C   0  0  0  0  0  0  0  0  0  0  0  0
    6.3439    2.4249   -0.3456 N   0  0  0  0  0  0  0  0  0  0  0  0
    2.7729   -1.7514   -0.1140 C   0  0  0  0  0  0  0  0  0  0  0  0
   -5.2309    0.7423    0.8425 C   0  0  0  0  0  0  0  0  0  0  0  0
   -5.7400    1.6227    1.9635 C   0  0  0  0  0  0  0  0  0  0  0  0
   -5.1398    4.0372    1.5917 H   0  0  0  0  0  0  0  0  0  0  0  0
   -5.6941    3.6708   -0.1361 H   0  0  0  0  0  0  0  0  0  0  0  0
   -6.7183    4.6169    0.9814 H   0  0  0  0  0  0  0  0  0  0  0  0
   -7.2950    2.5480   -0.6053 H   0  0  0  0  0  0  0  0  0  0  0  0
   -8.5703    2.3895    0.6586 H   0  0  0  0  0  0  0  0  0  0  0  0
   -8.2170    0.0671    0.9601 H   0  0  0  0  0  0  0  0  0  0  0  0
   -8.0107    0.3685   -0.7719 H   0  0  0  0  0  0  0  0  0  0  0  0
   -6.5934   -1.5354   -1.2178 H   0  0  0  0  0  0  0  0  0  0  0  0
   -5.8979   -0.0219   -1.8462 H   0  0  0  0  0  0  0  0  0  0  0  0
   -5.3043   -3.0681    0.1093 H   0  0  0  0  0  0  0  0  0  0  0  0
   -3.0481   -4.0848    0.3686 H   0  0  0  0  0  0  0  0  0  0  0  0
   -1.2727   -0.7052   -1.4197 H   0  0  0  0  0  0  0  0  0  0  0  0
   -3.4528    0.3236   -1.6889 H   0  0  0  0  0  0  0  0  0  0  0  0
    0.2383   -1.2031   -0.2297 H   0  0  0  0  0  0  0  0  0  0  0  0
    1.4005   -4.7923    0.1703 H   0  0  0  0  0  0  0  0  0  0  0  0
    3.7207   -5.4143    0.3956 H   0  0  0  0  0  0  0  0  0  0  0  0
    6.4334   -3.7524   -0.5981 H   0  0  0  0  0  0  0  0  0  0  0  0
    5.9327   -4.8803    0.6668 H   0  0  0  0  0  0  0  0  0  0  0  0
    6.3340   -3.1985    1.1553 H   0  0  0  0  0  0  0  0  0  0  0  0
    6.1537   -1.4791    0.0770 H   0  0  0  0  0  0  0  0  0  0  0  0
    7.8226   -0.4179    0.0408 H   0  0  0  0  0  0  0  0  0  0  0  0
    9.0722    4.3676   -0.3855 H   0  0  0  0  0  0  0  0  0  0  0  0
    7.2957    6.1431   -0.6768 H   0  0  0  0  0  0  0  0  0  0  0  0
    4.9454    5.4212   -0.7416 H   0  0  0  0  0  0  0  0  0  0  0  0
    4.3200    3.1535   -0.5418 H   0  0  0  0  0  0  0  0  0  0  0  0
    2.4256   -0.7386   -0.2627 H   0  0  0  0  0  0  0  0  0  0  0  0
   -4.6944    1.3609    0.0654 H   0  0  0  0  0  0  0  0  0  0  0  0
   -4.4619    0.0700    1.2725 H   0  0  0  0  0  0  0  0  0  0  0  0
   -4.8933    2.1798    2.3838 H   0  0  0  0  0  0  0  0  0  0  0  0
   -6.2581    0.9994    2.6899 H   0  0  0  0  0  0  0  0  0  0  0  0
  1  2  1  0
  2  3  1  0
  3  4  1  0
  4  5  1  0
  5  6  1  0
  6  7  1  0
  7  8  2  0
  8  9  1  0
  9 10  2  0
 10 11  1  0
 11 12  2  0
 10 13  1  0
 13 14  2  0
 13 15  1  0
 15 16  1  0
 16 17  2  0
 17 18  1  0
 18 19  2  0
 19 20  1  0
 19 21  1  0
 21 22  1  0
 22 23  1  0
 23 24  2  0
 23 25  1  0
 25 26  2  0
 26 27  1  0
 27 28  2  0
 28 29  1  0
 29 30  2  0
 30 31  1  0
 31 32  2  0
 32 33  1  0
 21 34  2  0
  5 35  1  0
 35 36  1  0
 36  2  1  0
 12  7  1  0
 34 16  1  0
 33 25  1  0
 33 28  1  0
  1 37  1  0
  1 38  1  0
  1 39  1  0
  3 40  1  0
  3 41  1  0
  4 42  1  0
  4 43  1  0
  6 44  1  0
  6 45  1  0
  8 46  1  0
  9 47  1  0
 11 48  1  0
 12 49  1  0
 15 50  1  0
 17 51  1  0
 18 52  1  0
 20 53  1  0
 20 54  1  0
 20 55  1  0
 22 56  1  0
 26 57  1  0
 29 58  1  0
 30 59  1  0
 31 60  1  0
 32 61  1  0
 34 62  1  0
 35 63  1  0
 35 64  1  0
 36 65  1  0
 36 66  1  0
M  END
$$$$
[H]O[C@]([H])(C([H])([H])[H])[C@@]([H])(C(=O)N([H])S(=O)(=O)c1c([H])c([H])c([H])c(-c2nc(C([H])([H])[H])nc(N([H])[H])c2[H])c1[H])N([H])[H]
     RDKit          3D

 44 45  0  0  0  0  0  0  0  0999 V2000
    6.4288    0.4367   -0.8791 C   0  0  0  0  0  0  0  0  0  0  0  0
    5.3494    0.5076    0.1797 C   0  0  1  0  0  0  0  0  0  0  0  0
    4.5787    1.6355   -0.0554 O   0  0  0  0  0  0  0  0  0  0  0  0
    4.5468   -0.7718    0.1130 C   0  0  2  0  0  0  0  0  0  0  0  0
    3.9480   -0.9374   -1.1730 N   0  0  0  0  0  0  0  0  0  0  0  0
    3.5657   -0.8742    1.2228 C   0  0  0  0  0  0  0  0  0  0  0  0
    3.8970   -0.7278    2.4287 O   0  0  0  0  0  0  0  0  0  0  0  0
    2.2159   -1.1417    0.9547 N   0  0  0  0  0  0  0  0  0  0  0  0
    1.0109   -1.2731    2.1882 S   0  0  0  0  0  0  0  0  0  0  0  0
    1.5362   -0.9441    3.5424 O   0  0  0  0  0  0  0  0  0  0  0  0
    0.3477   -2.6192    2.1173 O   0  0  0  0  0  0  0  0  0  0  0  0
   -0.2301   -0.0812    1.7886 C   0  0  0  0  0  0  0  0  0  0  0  0
   -0.1224    1.2110    2.2473 C   0  0  0  0  0  0  0  0  0  0  0  0
   -1.0852    2.1679    1.9441 C   0  0  0  0  0  0  0  0  0  0  0  0
   -2.1444    1.7561    1.1663 C   0  0  0  0  0  0  0  0  0  0  0  0
   -2.2872    0.4618    0.6859 C   0  0  0  0  0  0  0  0  0  0  0  0
   -1.3283   -0.4406    1.0032 C   0  0  0  0  0  0  0  0  0  0  0  0
   -3.4483    0.1251   -0.1350 C   0  0  0  0  0  0  0  0  0  0  0  0
   -3.6619   -1.1425   -0.6272 C   0  0  0  0  0  0  0  0  0  0  0  0
   -4.7812   -1.4326   -1.4042 C   0  0  0  0  0  0  0  0  0  0  0  0
   -5.0334   -2.7341   -1.9273 N   0  0  0  0  0  0  0  0  0  0  0  0
   -5.6337   -0.4205   -1.6470 N   0  0  0  0  0  0  0  0  0  0  0  0
   -5.4625    0.8148   -1.1905 C   0  0  0  0  0  0  0  0  0  0  0  0
   -6.4690    1.8547   -1.5234 C   0  0  0  0  0  0  0  0  0  0  0  0
   -4.3749    1.0643   -0.4441 N   0  0  0  0  0  0  0  0  0  0  0  0
    7.1722    1.2416   -0.6572 H   0  0  0  0  0  0  0  0  0  0  0  0
    6.8937   -0.5699   -0.9560 H   0  0  0  0  0  0  0  0  0  0  0  0
    5.9615    0.7393   -1.8594 H   0  0  0  0  0  0  0  0  0  0  0  0
    5.8289    0.6128    1.1841 H   0  0  0  0  0  0  0  0  0  0  0  0
    5.1281    2.4258    0.1432 H   0  0  0  0  0  0  0  0  0  0  0  0
    5.2684   -1.6116    0.2683 H   0  0  0  0  0  0  0  0  0  0  0  0
    4.2456   -1.8178   -1.6617 H   0  0  0  0  0  0  0  0  0  0  0  0
    4.0469   -0.1037   -1.8051 H   0  0  0  0  0  0  0  0  0  0  0  0
    1.9019   -1.2712   -0.0298 H   0  0  0  0  0  0  0  0  0  0  0  0
    0.7043    1.5457    2.8581 H   0  0  0  0  0  0  0  0  0  0  0  0
   -0.9789    3.1836    2.3171 H   0  0  0  0  0  0  0  0  0  0  0  0
   -2.9240    2.4662    0.9019 H   0  0  0  0  0  0  0  0  0  0  0  0
   -1.3670   -1.4694    0.6669 H   0  0  0  0  0  0  0  0  0  0  0  0
   -2.9760   -1.9492   -0.4305 H   0  0  0  0  0  0  0  0  0  0  0  0
   -5.8848   -3.2293   -1.5801 H   0  0  0  0  0  0  0  0  0  0  0  0
   -4.3909   -3.1446   -2.6138 H   0  0  0  0  0  0  0  0  0  0  0  0
   -6.9183    2.1875   -0.5513 H   0  0  0  0  0  0  0  0  0  0  0  0
   -5.8788    2.7474   -1.8690 H   0  0  0  0  0  0  0  0  0  0  0  0
   -7.1957    1.5219   -2.2646 H   0  0  0  0  0  0  0  0  0  0  0  0
  1  2  1  0
  2  3  1  0
  2  4  1  0
  4  5  1  0
  4  6  1  0
  6  7  2  0
  6  8  1  0
  8  9  1  0
  9 10  2  0
  9 11  2  0
  9 12  1  0
 12 13  2  0
 13 14  1  0
 14 15  2  0
 15 16  1  0
 16 17  2  0
 16 18  1  0
 18 19  2  0
 19 20  1  0
 20 21  1  0
 20 22  2  0
 22 23  1  0
 23 24  1  0
 23 25  2  0
 17 12  1  0
 25 18  1  0
  1 26  1  0
  1 27  1  0
  1 28  1  0
  2 29  1  1
  3 30  1  0
  4 31  1  1
  5 32  1  0
  5 33  1  0
  8 34  1  0
 13 35  1  0
 14 36  1  0
 15 37  1  0
 17 38  1  0
 19 39  1  0
 21 40  1  0
 21 41  1  0
 24 42  1  0
 24 43  1  0
 24 44  1  0
M  END
$$$$
[H]c1c([H])c([H])c(C(=O)N(C([H])([H])C([H])([H])[H])C([H])([H])[C@]23c4nnc(-c5c(F)c([H])c([H])c([H])c5F)c([H])c4[C@]([H])(C([H])([H])C2([H])[H])C3(C([H])([H])[H])C([H])([H])[H])c([H])c1[H]
     RDKit          3D

 60 64  0  0  0  0  0  0  0  0999 V2000
   -3.0923   -0.2113    2.6357 C   0  0  0  0  0  0  0  0  0  0  0  0
   -2.1762    0.4966    1.5865 C   0  0  0  0  0  0  0  0  0  0  0  0
   -2.3367   -0.2694    0.3887 N   0  0  0  0  0  0  0  0  0  0  0  0
   -1.3344   -1.2920    0.1712 C   0  0  0  0  0  0  0  0  0  0  0  0
   -0.1397   -1.1141   -0.6076 C   0  0  1  0  0  0  0  0  0  0  0  0
   -0.2371   -0.8006   -2.0785 C   0  0  0  0  0  0  0  0  0  0  0  0
    1.1171   -1.2543   -2.6976 C   0  0  0  0  0  0  0  0  0  0  0  0
    1.7863   -1.8734   -1.5253 C   0  0  1  0  0  0  0  0  0  0  0  0
    2.1323   -0.7052   -0.6328 C   0  0  0  0  0  0  0  0  0  0  0  0
    3.3407   -0.1242   -0.3698 C   0  0  0  0  0  0  0  0  0  0  0  0
    3.3947    0.9775    0.4506 C   0  0  0  0  0  0  0  0  0  0  0  0
    2.2295    1.4302    0.9583 N   0  0  0  0  0  0  0  0  0  0  0  0
    1.0884    0.8443    0.6830 N   0  0  0  0  0  0  0  0  0  0  0  0
    0.9510   -0.2289   -0.1027 C   0  0  0  0  0  0  0  0  0  0  0  0
    4.6715    1.5959    0.7319 C   0  0  0  0  0  0  0  0  0  0  0  0
    5.3972    1.1624    1.8174 C   0  0  0  0  0  0  0  0  0  0  0  0
    4.9285    0.1661    2.6214 F   0  0  0  0  0  0  0  0  0  0  0  0
    6.6305    1.7309    2.1229 C   0  0  0  0  0  0  0  0  0  0  0  0
    7.1412    2.7381    1.3393 C   0  0  0  0  0  0  0  0  0  0  0  0
    6.4194    3.1825    0.2439 C   0  0  0  0  0  0  0  0  0  0  0  0
    5.1838    2.6007   -0.0477 C   0  0  0  0  0  0  0  0  0  0  0  0
    4.5209    3.0650   -1.1199 F   0  0  0  0  0  0  0  0  0  0  0  0
    0.6670   -2.4403   -0.7074 C   0  0  0  0  0  0  0  0  0  0  0  0
   -0.0718   -3.5507   -1.3113 C   0  0  0  0  0  0  0  0  0  0  0  0
    1.2089   -2.7958    0.6633 C   0  0  0  0  0  0  0  0  0  0  0  0
   -3.3617   -0.1070   -0.5347 C   0  0  0  0  0  0  0  0  0  0  0  0
   -3.3365   -0.9838   -1.5513 O   0  0  0  0  0  0  0  0  0  0  0  0
   -4.4907    0.7788   -0.7090 C   0  0  0  0  0  0  0  0  0  0  0  0
   -4.7705    1.7952    0.1401 C   0  0  0  0  0  0  0  0  0  0  0  0
   -5.8693    2.6297   -0.0467 C   0  0  0  0  0  0  0  0  0  0  0  0
   -6.7018    2.4451   -1.0997 C   0  0  0  0  0  0  0  0  0  0  0  0
   -6.4321    1.4183   -1.9710 C   0  0  0  0  0  0  0  0  0  0  0  0
   -5.3590    0.6001   -1.7921 C   0  0  0  0  0  0  0  0  0  0  0  0
   -3.3200    0.4812    3.4604 H   0  0  0  0  0  0  0  0  0  0  0  0
   -4.0492   -0.5003    2.1643 H   0  0  0  0  0  0  0  0  0  0  0  0
   -2.6251   -1.1362    2.9982 H   0  0  0  0  0  0  0  0  0  0  0  0
   -2.3319    1.5305    1.6209 H   0  0  0  0  0  0  0  0  0  0  0  0
   -1.1569    0.2844    2.0692 H   0  0  0  0  0  0  0  0  0  0  0  0
   -1.9146   -2.1687   -0.2673 H   0  0  0  0  0  0  0  0  0  0  0  0
   -1.0216   -1.7391    1.1766 H   0  0  0  0  0  0  0  0  0  0  0  0
   -0.3268    0.2612   -2.3205 H   0  0  0  0  0  0  0  0  0  0  0  0
   -1.0196   -1.4223   -2.5672 H   0  0  0  0  0  0  0  0  0  0  0  0
    0.9487   -1.9143   -3.5522 H   0  0  0  0  0  0  0  0  0  0  0  0
    1.7051   -0.3921   -3.0319 H   0  0  0  0  0  0  0  0  0  0  0  0
    2.6153   -2.5244   -1.7141 H   0  0  0  0  0  0  0  0  0  0  0  0
    4.2639   -0.4925   -0.7793 H   0  0  0  0  0  0  0  0  0  0  0  0
    7.2085    1.4013    2.9690 H   0  0  0  0  0  0  0  0  0  0  0  0
    8.1164    3.1911    1.5769 H   0  0  0  0  0  0  0  0  0  0  0  0
    6.8133    3.9705   -0.3736 H   0  0  0  0  0  0  0  0  0  0  0  0
   -1.0413   -3.2444   -1.7295 H   0  0  0  0  0  0  0  0  0  0  0  0
    0.4813   -4.1515   -2.0567 H   0  0  0  0  0  0  0  0  0  0  0  0
   -0.3255   -4.2884   -0.4924 H   0  0  0  0  0  0  0  0  0  0  0  0
    0.9851   -2.0182    1.4171 H   0  0  0  0  0  0  0  0  0  0  0  0
    0.7332   -3.7557    1.0113 H   0  0  0  0  0  0  0  0  0  0  0  0
    2.3031   -2.9821    0.6467 H   0  0  0  0  0  0  0  0  0  0  0  0
   -4.1934    2.0479    1.0022 H   0  0  0  0  0  0  0  0  0  0  0  0
   -6.0786    3.4492    0.6548 H   0  0  0  0  0  0  0  0  0  0  0  0
   -7.5648    3.0976   -1.2497 H   0  0  0  0  0  0  0  0  0  0  0  0
   -7.1143    1.2899   -2.8085 H   0  0  0  0  0  0  0  0  0  0  0  0
   -5.1894   -0.1810   -2.4904 H   0  0  0  0  0  0  0  0  0  0  0  0
  1  2  1  0
  2  3  1  0
  3  4  1  0
  5  4  1  1
  5  6  1  0
  6  7  1  0
  7  8  1  0
  8  9  1  0
  9 10  2  0
 10 11  1  0
 11 12  2  0
 12 13  1  0
 13 14  2  0
 11 15  1  0
 15 16  2  0
 16 17  1  0
 16 18  1  0
 18 19  2  0
 19 20  1  0
 20 21  2  0
 21 22  1  0
  8 23  1  0
 23 24  1  0
 23 25  1  0
  3 26  1  0
 26 27  2  0
 26 28  1  0
 28 29  2  0
 29 30  1  0
 30 31  2  0
 31 32  1  0
 32 33  2  0
 14  5  1  0
 21 15  1  0
 33 28  1  0
 23  5  1  0
 14  9  1  0
  1 34  1  0
  1 35  1  0
  1 36  1  0
  2 37  1  0
  2 38  1  0
  4 39  1  0
  4 40  1  0
  6 41  1  0
  6 42  1  0
  7 43  1  0
  7 44  1  0
  8 45  1  6
 10 46  1  0
 18 47  1  0
 19 48  1  0
 20 49  1  0
 24 50  1  0
 24 51  1  0
 24 52  1  0
 25 53  1  0
 25 54  1  0
 25 55  1  0
 29 56  1  0
 30 57  1  0
 31 58  1  0
 32 59  1  0
 33 60  1  0
M  END
$$$$
[H]c1nc(N([H])[H])c2c(C([H])([H])[H])c(-c3c([H])c(N([H])C(=O)c4c([H])c([H])c(C([H])([H])N5C([H])([H])C([H])([H])N(C([H])([H])[H])C([H])([H])C5([H])[H])c(C(F)(F)F)c4[H])c([H])c([H])c3C([H])([H])[H])c([H])n2n1
     RDKit          3D

 69 73  0  0  0  0  0  0  0  0999 V2000
    6.4291    3.3519    0.5687 C   0  0  0  0  0  0  0  0  0  0  0  0
    7.1832    2.7197   -0.4721 N   0  0  0  0  0  0  0  0  0  0  0  0
    6.4083    2.1964   -1.5517 C   0  0  0  0  0  0  0  0  0  0  0  0
    6.0859    0.7066   -1.3887 C   0  0  0  0  0  0  0  0  0  0  0  0
    6.0727    0.3764   -0.0004 N   0  0  0  0  0  0  0  0  0  0  0  0
    5.4805   -0.8838    0.3475 C   0  0  0  0  0  0  0  0  0  0  0  0
    4.0164   -0.8599    0.2433 C   0  0  0  0  0  0  0  0  0  0  0  0
    3.3369    0.3045   -0.0467 C   0  0  0  0  0  0  0  0  0  0  0  0
    1.9369    0.2872   -0.0802 C   0  0  0  0  0  0  0  0  0  0  0  0
    1.2546   -0.8828    0.1750 C   0  0  0  0  0  0  0  0  0  0  0  0
    1.9281   -2.0389    0.4630 C   0  0  0  0  0  0  0  0  0  0  0  0
    3.3317   -2.0414    0.5012 C   0  0  0  0  0  0  0  0  0  0  0  0
    4.0499   -3.2702    0.8038 C   0  0  0  0  0  0  0  0  0  0  0  0
    4.8831   -3.7481   -0.1682 F   0  0  0  0  0  0  0  0  0  0  0  0
    4.7426   -3.2182    2.0263 F   0  0  0  0  0  0  0  0  0  0  0  0
    3.1157   -4.3048    1.0199 F   0  0  0  0  0  0  0  0  0  0  0  0
   -0.2373   -0.8657    0.1299 C   0  0  0  0  0  0  0  0  0  0  0  0
   -0.7675    0.0922   -0.4674 O   0  0  0  0  0  0  0  0  0  0  0  0
   -0.9818   -1.8755    0.7314 N   0  0  0  0  0  0  0  0  0  0  0  0
   -2.3810   -1.9992    0.7733 C   0  0  0  0  0  0  0  0  0  0  0  0
   -2.8504   -3.1828    1.4061 C   0  0  0  0  0  0  0  0  0  0  0  0
   -4.1991   -3.3853    1.4976 C   0  0  0  0  0  0  0  0  0  0  0  0
   -5.0880   -2.4671    0.9895 C   0  0  0  0  0  0  0  0  0  0  0  0
   -6.5721   -2.6894    1.1076 C   0  0  0  0  0  0  0  0  0  0  0  0
   -4.6484   -1.3187    0.3739 C   0  0  0  0  0  0  0  0  0  0  0  0
   -3.2844   -1.1031    0.2766 C   0  0  0  0  0  0  0  0  0  0  0  0
   -5.6067   -0.3482   -0.1995 C   0  0  0  0  0  0  0  0  0  0  0  0
   -6.6333   -0.6706   -1.0656 C   0  0  0  0  0  0  0  0  0  0  0  0
   -7.3073    0.4260   -1.4224 N   0  0  0  0  0  0  0  0  0  0  0  0
   -8.3515    0.6803   -2.2081 N   0  0  0  0  0  0  0  0  0  0  0  0
   -8.8458    1.9150   -2.3994 C   0  0  0  0  0  0  0  0  0  0  0  0
   -8.2525    2.9394   -1.7633 N   0  0  0  0  0  0  0  0  0  0  0  0
   -7.1824    2.7582   -0.9453 C   0  0  0  0  0  0  0  0  0  0  0  0
   -6.5531    3.8202   -0.2727 N   0  0  0  0  0  0  0  0  0  0  0  0
   -6.7196    1.4756   -0.7867 C   0  0  0  0  0  0  0  0  0  0  0  0
   -5.6475    1.0104   -0.0121 C   0  0  0  0  0  0  0  0  0  0  0  0
   -4.7596    1.8119    0.8313 C   0  0  0  0  0  0  0  0  0  0  0  0
    7.4357    0.4908    0.5177 C   0  0  0  0  0  0  0  0  0  0  0  0
    8.1185    1.7265    0.0038 C   0  0  0  0  0  0  0  0  0  0  0  0
    5.4264    3.5940    0.1719 H   0  0  0  0  0  0  0  0  0  0  0  0
    6.4056    2.6783    1.4574 H   0  0  0  0  0  0  0  0  0  0  0  0
    6.8975    4.3436    0.8381 H   0  0  0  0  0  0  0  0  0  0  0  0
    5.4238    2.7209   -1.6461 H   0  0  0  0  0  0  0  0  0  0  0  0
    6.9734    2.2861   -2.5114 H   0  0  0  0  0  0  0  0  0  0  0  0
    6.9132    0.1184   -1.8943 H   0  0  0  0  0  0  0  0  0  0  0  0
    5.1859    0.4295   -1.9185 H   0  0  0  0  0  0  0  0  0  0  0  0
    5.9481   -1.6271   -0.3689 H   0  0  0  0  0  0  0  0  0  0  0  0
    5.8193   -1.1013    1.3903 H   0  0  0  0  0  0  0  0  0  0  0  0
    3.7941    1.2489   -0.2346 H   0  0  0  0  0  0  0  0  0  0  0  0
    1.3669    1.1733   -0.3030 H   0  0  0  0  0  0  0  0  0  0  0  0
    1.4523   -2.9833    0.6657 H   0  0  0  0  0  0  0  0  0  0  0  0
   -0.3912   -2.6376    1.2215 H   0  0  0  0  0  0  0  0  0  0  0  0
   -2.1994   -3.9166    1.8086 H   0  0  0  0  0  0  0  0  0  0  0  0
   -4.6119   -4.2772    1.9753 H   0  0  0  0  0  0  0  0  0  0  0  0
   -6.6795   -3.3405    2.0217 H   0  0  0  0  0  0  0  0  0  0  0  0
   -7.1230   -1.7647    1.2955 H   0  0  0  0  0  0  0  0  0  0  0  0
   -6.9434   -3.3162    0.2817 H   0  0  0  0  0  0  0  0  0  0  0  0
   -2.9512   -0.2022   -0.2024 H   0  0  0  0  0  0  0  0  0  0  0  0
   -6.8901   -1.6646   -1.4346 H   0  0  0  0  0  0  0  0  0  0  0  0
   -9.7146    2.0738   -3.0605 H   0  0  0  0  0  0  0  0  0  0  0  0
   -5.8297    4.4173   -0.7754 H   0  0  0  0  0  0  0  0  0  0  0  0
   -6.7351    4.0977    0.7194 H   0  0  0  0  0  0  0  0  0  0  0  0
   -5.2996    2.4132    1.5947 H   0  0  0  0  0  0  0  0  0  0  0  0
   -4.0745    2.4447    0.2057 H   0  0  0  0  0  0  0  0  0  0  0  0
   -4.1065    1.1340    1.4161 H   0  0  0  0  0  0  0  0  0  0  0  0
    7.9844   -0.3932    0.1266 H   0  0  0  0  0  0  0  0  0  0  0  0
    7.4716    0.4661    1.6287 H   0  0  0  0  0  0  0  0  0  0  0  0
    8.7482    2.1534    0.8307 H   0  0  0  0  0  0  0  0  0  0  0  0
    8.7982    1.4957   -0.8561 H   0  0  0  0  0  0  0  0  0  0  0  0
  1  2  1  0
  2  3  1  0
  3  4  1  0
  4  5  1  0
  5  6  1  0
  6  7  1  0
  7  8  2  0
  8  9  1  0
  9 10  2  0
 10 11  1  0
 11 12  2  0
 12 13  1  0
 13 14  1  0
 13 15  1  0
 13 16  1  0
 10 17  1  0
 17 18  2  0
 17 19  1  0
 19 20  1  0
 20 21  2  0
 21 22  1  0
 22 23  2  0
 23 24  1  0
 23 25  1  0
 25 26  2  0
 25 27  1  0
 27 28  2  0
 28 29  1  0
 29 30  1  0
 30 31  2  0
 31 32  1  0
 32 33  2  0
 33 34  1  0
 33 35  1  0
 35 36  2  0
 36 37  1  0
  5 38  1  0
 38 39  1  0
 39  2  1  0
 12  7  1  0
 26 20  1  0
 36 27  1  0
 35 29  1  0
  1 40  1  0
  1 41  1  0
  1 42  1  0
  3 43  1  0
  3 44  1  0
  4 45  1  0
  4 46  1  0
  6 47  1  0
  6 48  1  0
  8 49  1  0
  9 50  1  0
 11 51  1  0
 19 52  1  0
 21 53  1  0
 22 54  1  0
 24 55  1  0
 24 56  1  0
 24 57  1  0
 26 58  1  0
 28 59  1  0
 31 60  1  0
 34 61  1  0
 34 62  1  0
 37 63  1  0
 37 64  1  0
 37 65  1  0
 38 66  1  0
 38 67  1  0
 39 68  1  0
 39 69  1  0
M  END
$$$$
[H]c1c([H])c([H])c(S(=O)(=O)N2C([H])([H])C([H])([H])N(c3c([H])c([H])c([N+](=O)[O-])c([H])c3[H])C([H])([H])C2([H])[H])c([H])c1[H]
     RDKit          3D

 41 43  0  0  0  0  0  0  0  0999 V2000
    7.5498    1.9324   -0.0668 O   0  0  0  0  0  0  0  0  0  0  0  0
    6.7450    1.4721    0.9508 N   0  0  0  0  0  0  0  0  0  0  0  0
    7.1553    1.4201    2.1375 O   0  0  0  0  0  0  0  0  0  0  0  0
    5.4232    1.0409    0.6906 C   0  0  0  0  0  0  0  0  0  0  0  0
    4.9531    1.0899   -0.6002 C   0  0  0  0  0  0  0  0  0  0  0  0
    3.6610    0.6636   -0.8239 C   0  0  0  0  0  0  0  0  0  0  0  0
    2.8541    0.2022    0.1920 C   0  0  0  0  0  0  0  0  0  0  0  0
    3.3314    0.1566    1.4776 C   0  0  0  0  0  0  0  0  0  0  0  0
    4.6388    0.5840    1.7277 C   0  0  0  0  0  0  0  0  0  0  0  0
    1.5408   -0.2272   -0.0872 N   0  0  0  0  0  0  0  0  0  0  0  0
    0.5738   -0.6206    0.9164 C   0  0  0  0  0  0  0  0  0  0  0  0
   -0.7976   -0.1444    0.4114 C   0  0  0  0  0  0  0  0  0  0  0  0
   -1.1629   -0.9905   -0.6765 N   0  0  0  0  0  0  0  0  0  0  0  0
   -0.0594   -1.3369   -1.5290 C   0  0  0  0  0  0  0  0  0  0  0  0
    1.0605   -0.3074   -1.4751 C   0  0  0  0  0  0  0  0  0  0  0  0
   -2.4821   -0.4116   -1.6043 S   0  0  0  0  0  0  0  0  0  0  0  0
   -2.6811   -1.3888   -2.7518 O   0  0  0  0  0  0  0  0  0  0  0  0
   -2.1083    0.9093   -2.2266 O   0  0  0  0  0  0  0  0  0  0  0  0
   -3.9453   -0.2628   -0.6819 C   0  0  0  0  0  0  0  0  0  0  0  0
   -4.2780    0.9008   -0.0124 C   0  0  0  0  0  0  0  0  0  0  0  0
   -5.4430    1.0203    0.7228 C   0  0  0  0  0  0  0  0  0  0  0  0
   -6.3249   -0.0363    0.8126 C   0  0  0  0  0  0  0  0  0  0  0  0
   -6.0028   -1.2012    0.1487 C   0  0  0  0  0  0  0  0  0  0  0  0
   -4.8297   -1.3172   -0.5897 C   0  0  0  0  0  0  0  0  0  0  0  0
    5.6024    1.4529   -1.3688 H   0  0  0  0  0  0  0  0  0  0  0  0
    3.2723    0.6950   -1.8261 H   0  0  0  0  0  0  0  0  0  0  0  0
    2.7535   -0.1924    2.3045 H   0  0  0  0  0  0  0  0  0  0  0  0
    4.9974    0.5435    2.7307 H   0  0  0  0  0  0  0  0  0  0  0  0
    0.7801   -0.2253    1.9168 H   0  0  0  0  0  0  0  0  0  0  0  0
    0.5450   -1.7495    0.9227 H   0  0  0  0  0  0  0  0  0  0  0  0
   -0.6272    0.9219    0.1087 H   0  0  0  0  0  0  0  0  0  0  0  0
   -1.5492   -0.2050    1.2036 H   0  0  0  0  0  0  0  0  0  0  0  0
    0.3574   -2.3201   -1.1709 H   0  0  0  0  0  0  0  0  0  0  0  0
   -0.3555   -1.4609   -2.5869 H   0  0  0  0  0  0  0  0  0  0  0  0
    0.7157    0.6496   -1.8634 H   0  0  0  0  0  0  0  0  0  0  0  0
    1.8850   -0.7530   -2.0998 H   0  0  0  0  0  0  0  0  0  0  0  0
   -3.5663    1.7352   -0.0922 H   0  0  0  0  0  0  0  0  0  0  0  0
   -5.6741    1.9558    1.2396 H   0  0  0  0  0  0  0  0  0  0  0  0
   -7.2392    0.0724    1.3956 H   0  0  0  0  0  0  0  0  0  0  0  0
   -6.6940   -2.0295    0.2191 H   0  0  0  0  0  0  0  0  0  0  0  0
   -4.5753   -2.2381   -1.1145 H   0  0  0  0  0  0  0  0  0  0  0  0
  1  2  1  0
  2  3  2  0
  2  4  1  0
  4  5  2  0
  5  6  1  0
  6  7  2  0
  7  8  1  0
  8  9  2  0
  7 10  1  0
 10 11  1  0
 11 12  1  0
 12 13  1  0
 13 14  1  0
 14 15  1  0
 13 16  1  0
 16 17  2  0
 16 18  2  0
 16 19  1  0
 19 20  2  0
 20 21  1  0
 21 22  2  0
 22 23  1  0
 23 24  2  0
  9  4  1  0
 15 10  1  0
 24 19  1  0
  5 25  1  0
  6 26  1  0
  8 27  1  0
  9 28  1  0
 11 29  1  0
 11 30  1  0
 12 31  1  0
 12 32  1  0
 14 33  1  0
 14 34  1  0
 15 35  1  0
 15 36  1  0
 20 37  1  0
 21 38  1  0
 22 39  1  0
 23 40  1  0
 24 41  1  0
M  CHG  2   1  -1   2   1
M  END
$$$$
[H]OC([H])([H])C([H])(n1nc([H])c(-c2c([H])c(OC([H])([H])[H])c([H])c3c2-c2c([H])c([H])c([H])c([H])c2C3(O[H])C(F)(F)F)c1[H])C([H])([H])O[H]
     RDKit          3D

 49 52  0  0  0  0  0  0  0  0999 V2000
   -3.1666    4.8999    0.6163 C   0  0  0  0  0  0  0  0  0  0  0  0
   -2.0011    4.2676    0.1758 O   0  0  0  0  0  0  0  0  0  0  0  0
   -1.8249    2.8908    0.1149 C   0  0  0  0  0  0  0  0  0  0  0  0
   -2.7500    1.9774    0.4708 C   0  0  0  0  0  0  0  0  0  0  0  0
   -2.5098    0.5980    0.3844 C   0  0  0  0  0  0  0  0  0  0  0  0
   -1.2892    0.1521   -0.0785 C   0  0  0  0  0  0  0  0  0  0  0  0
   -1.3158   -1.3125   -0.0765 C   0  0  0  0  0  0  0  0  0  0  0  0
   -0.3494   -2.2258   -0.4581 C   0  0  0  0  0  0  0  0  0  0  0  0
   -0.6440   -3.5841   -0.3600 C   0  0  0  0  0  0  0  0  0  0  0  0
   -1.8426   -4.0463    0.0948 C   0  0  0  0  0  0  0  0  0  0  0  0
   -2.7756   -3.1086    0.4630 C   0  0  0  0  0  0  0  0  0  0  0  0
   -2.5454   -1.7305    0.3899 C   0  0  0  0  0  0  0  0  0  0  0  0
   -3.3462   -0.5582    0.7020 C   0  0  0  0  0  0  0  0  0  0  0  0
   -3.6057   -0.5185    2.0719 O   0  0  0  0  0  0  0  0  0  0  0  0
   -4.6774   -0.5347   -0.0216 C   0  0  0  0  0  0  0  0  0  0  0  0
   -4.5368   -0.5307   -1.3786 F   0  0  0  0  0  0  0  0  0  0  0  0
   -5.3952   -1.6465    0.4199 F   0  0  0  0  0  0  0  0  0  0  0  0
   -5.3790    0.5595    0.4148 F   0  0  0  0  0  0  0  0  0  0  0  0
   -0.3163    1.0656   -0.4506 C   0  0  0  0  0  0  0  0  0  0  0  0
   -0.6170    2.4423   -0.3425 C   0  0  0  0  0  0  0  0  0  0  0  0
    1.0145    0.7021   -0.8967 C   0  0  0  0  0  0  0  0  0  0  0  0
    1.4330    0.6460   -2.2007 C   0  0  0  0  0  0  0  0  0  0  0  0
    2.7598    0.3331   -2.1633 N   0  0  0  0  0  0  0  0  0  0  0  0
    3.1769    0.1952   -0.9272 N   0  0  0  0  0  0  0  0  0  0  0  0
    2.1185    0.4177   -0.1209 C   0  0  0  0  0  0  0  0  0  0  0  0
    4.5405   -0.1369   -0.5606 C   0  0  0  0  0  0  0  0  0  0  0  0
    4.7281   -0.0678    0.9399 C   0  0  0  0  0  0  0  0  0  0  0  0
    4.4588    1.2027    1.4380 O   0  0  0  0  0  0  0  0  0  0  0  0
    4.8269   -1.5512   -1.0044 C   0  0  0  0  0  0  0  0  0  0  0  0
    6.1135   -1.9433   -0.6890 O   0  0  0  0  0  0  0  0  0  0  0  0
   -3.0125    5.1810    1.6814 H   0  0  0  0  0  0  0  0  0  0  0  0
   -4.0816    4.2745    0.4998 H   0  0  0  0  0  0  0  0  0  0  0  0
   -3.3160    5.8381    0.0073 H   0  0  0  0  0  0  0  0  0  0  0  0
   -3.6978    2.2971    0.8340 H   0  0  0  0  0  0  0  0  0  0  0  0
    0.6211   -1.9930   -0.8417 H   0  0  0  0  0  0  0  0  0  0  0  0
    0.1201   -4.2931   -0.6611 H   0  0  0  0  0  0  0  0  0  0  0  0
   -2.0518   -5.0984    0.1636 H   0  0  0  0  0  0  0  0  0  0  0  0
   -3.7343   -3.4122    0.8302 H   0  0  0  0  0  0  0  0  0  0  0  0
   -3.3132   -1.3479    2.4903 H   0  0  0  0  0  0  0  0  0  0  0  0
    0.1700    3.1184   -0.6452 H   0  0  0  0  0  0  0  0  0  0  0  0
    0.8005    0.8219   -3.0464 H   0  0  0  0  0  0  0  0  0  0  0  0
    2.1901    0.3660    0.9576 H   0  0  0  0  0  0  0  0  0  0  0  0
    5.2801    0.5317   -1.0157 H   0  0  0  0  0  0  0  0  0  0  0  0
    5.7991   -0.2693    1.1485 H   0  0  0  0  0  0  0  0  0  0  0  0
    4.1464   -0.8642    1.4403 H   0  0  0  0  0  0  0  0  0  0  0  0
    4.2551    1.0727    2.4115 H   0  0  0  0  0  0  0  0  0  0  0  0
    4.1351   -2.2185   -0.4238 H   0  0  0  0  0  0  0  0  0  0  0  0
    4.6434   -1.6673   -2.0983 H   0  0  0  0  0  0  0  0  0  0  0  0
    6.7637   -1.1917   -0.6995 H   0  0  0  0  0  0  0  0  0  0  0  0
  1  2  1  0
  2  3  1  0
  3  4  2  0
  4  5  1  0
  5  6  2  0
  6  7  1  0
  7  8  2  0
  8  9  1  0
  9 10  2  0
 10 11  1  0
 11 12  2  0
 12 13  1  0
 13 14  1  0
 13 15  1  0
 15 16  1  0
 15 17  1  0
 15 18  1  0
  6 19  1  0
 19 20  2  0
 19 21  1  0
 21 22  1  0
 22 23  2  0
 23 24  1  0
 24 25  1  0
 24 26  1  0
 26 27  1  0
 27 28  1  0
 26 29  1  0
 29 30  1  0
 20  3  1  0
 25 21  2  0
 13  5  1  0
 12  7  1  0
  1 31  1  0
  1 32  1  0
  1 33  1  0
  4 34  1  0
  8 35  1  0
  9 36  1  0
 10 37  1  0
 11 38  1  0
 14 39  1  0
 20 40  1  0
 22 41  1  0
 25 42  1  0
 26 43  1  0
 27 44  1  0
 27 45  1  0
 28 46  1  0
 29 47  1  0
 29 48  1  0
 30 49  1  0
M  END
$$$$
[H]c1nc(N([H])C(=O)c2c([H])c([H])c(C3([H])C([H])([H])C([H])([H])N(C([H])(C([H])([H])[H])C([H])([H])[H])C([H])([H])C3([H])[H])c([H])c2[H])c([H])c(Oc2c(OC([H])([H])[H])c([H])c3c(c2[H])c([H])c([H])n3C(=O)N([H])C([H])([H])[H])c1[H]
     RDKit          3D

 75 79  0  0  0  0  0  0  0  0999 V2000
   12.3420   -1.6616   -0.6990 C   0  0  0  0  0  0  0  0  0  0  0  0
   11.0401   -0.9362   -0.5579 N   0  0  0  0  0  0  0  0  0  0  0  0
   11.0533    0.2764    0.0965 C   0  0  0  0  0  0  0  0  0  0  0  0
   12.2367    0.6428    0.5200 O   0  0  0  0  0  0  0  0  0  0  0  0
   10.0081    1.1697    0.3769 N   0  0  0  0  0  0  0  0  0  0  0  0
   10.1891    2.3639    1.0526 C   0  0  0  0  0  0  0  0  0  0  0  0
    8.9902    3.0021    1.1598 C   0  0  0  0  0  0  0  0  0  0  0  0
    8.0411    2.2142    0.5513 C   0  0  0  0  0  0  0  0  0  0  0  0
    6.6879    2.3768    0.3707 C   0  0  0  0  0  0  0  0  0  0  0  0
    5.9325    1.4302   -0.2870 C   0  0  0  0  0  0  0  0  0  0  0  0
    4.5843    1.6220   -0.4550 O   0  0  0  0  0  0  0  0  0  0  0  0
    3.6664    0.7600    0.1162 C   0  0  0  0  0  0  0  0  0  0  0  0
    4.0199   -0.2194    1.0200 C   0  0  0  0  0  0  0  0  0  0  0  0
    3.0632   -1.0684    1.5723 C   0  0  0  0  0  0  0  0  0  0  0  0
    1.7788   -0.9189    1.2088 N   0  0  0  0  0  0  0  0  0  0  0  0
    1.4009    0.0310    0.3253 C   0  0  0  0  0  0  0  0  0  0  0  0
    0.0426    0.1890   -0.0504 N   0  0  0  0  0  0  0  0  0  0  0  0
   -0.9267   -0.6688    0.5472 C   0  0  0  0  0  0  0  0  0  0  0  0
   -0.6067   -1.5351    1.3856 O   0  0  0  0  0  0  0  0  0  0  0  0
   -2.3570   -0.5559    0.1890 C   0  0  0  0  0  0  0  0  0  0  0  0
   -2.7788    0.1208   -0.9348 C   0  0  0  0  0  0  0  0  0  0  0  0
   -4.1328    0.2007   -1.2109 C   0  0  0  0  0  0  0  0  0  0  0  0
   -5.1018   -0.3651   -0.4171 C   0  0  0  0  0  0  0  0  0  0  0  0
   -4.6456   -1.0388    0.7053 C   0  0  0  0  0  0  0  0  0  0  0  0
   -3.3103   -1.1384    1.0109 C   0  0  0  0  0  0  0  0  0  0  0  0
   -6.5148   -0.2302   -0.7985 C   0  0  0  0  0  0  0  0  0  0  0  0
   -7.2465    0.7776    0.0689 C   0  0  0  0  0  0  0  0  0  0  0  0
   -8.1890    0.1177    1.0458 C   0  0  0  0  0  0  0  0  0  0  0  0
   -9.2506   -0.5261    0.3378 N   0  0  0  0  0  0  0  0  0  0  0  0
   -8.7525   -1.2128   -0.8531 C   0  0  0  0  0  0  0  0  0  0  0  0
   -7.2729   -1.5180   -0.7413 C   0  0  0  0  0  0  0  0  0  0  0  0
  -10.2698    0.3917   -0.1220 C   0  0  0  0  0  0  0  0  0  0  0  0
  -11.4261   -0.3845   -0.7075 C   0  0  0  0  0  0  0  0  0  0  0  0
  -10.7430    1.3572    0.9090 C   0  0  0  0  0  0  0  0  0  0  0  0
    2.3210    0.8854   -0.2377 C   0  0  0  0  0  0  0  0  0  0  0  0
    6.5866    0.3153   -0.7558 C   0  0  0  0  0  0  0  0  0  0  0  0
    5.8477   -0.6466   -1.4200 O   0  0  0  0  0  0  0  0  0  0  0  0
    6.4380   -1.8280   -1.9372 C   0  0  0  0  0  0  0  0  0  0  0  0
    7.9409    0.1364   -0.5836 C   0  0  0  0  0  0  0  0  0  0  0  0
    8.7089    1.0739    0.0712 C   0  0  0  0  0  0  0  0  0  0  0  0
   12.3360   -2.4201    0.0945 H   0  0  0  0  0  0  0  0  0  0  0  0
   13.1788   -0.9547   -0.5316 H   0  0  0  0  0  0  0  0  0  0  0  0
   12.4475   -2.0475   -1.7202 H   0  0  0  0  0  0  0  0  0  0  0  0
   10.2571   -1.4370   -0.9773 H   0  0  0  0  0  0  0  0  0  0  0  0
   11.1188    2.7352    1.4334 H   0  0  0  0  0  0  0  0  0  0  0  0
    8.7709    3.9673    1.6354 H   0  0  0  0  0  0  0  0  0  0  0  0
    6.2185    3.2692    0.7552 H   0  0  0  0  0  0  0  0  0  0  0  0
    5.0637   -0.3453    1.3269 H   0  0  0  0  0  0  0  0  0  0  0  0
    3.3912   -1.8225    2.2814 H   0  0  0  0  0  0  0  0  0  0  0  0
   -0.2219    0.9157   -0.7517 H   0  0  0  0  0  0  0  0  0  0  0  0
   -2.0332    0.5762   -1.5816 H   0  0  0  0  0  0  0  0  0  0  0  0
   -4.4139    0.7518   -2.1239 H   0  0  0  0  0  0  0  0  0  0  0  0
   -5.3952   -1.4900    1.3392 H   0  0  0  0  0  0  0  0  0  0  0  0
   -2.9818   -1.6759    1.9022 H   0  0  0  0  0  0  0  0  0  0  0  0
   -6.5654    0.1698   -1.8351 H   0  0  0  0  0  0  0  0  0  0  0  0
   -7.8695    1.4404   -0.5630 H   0  0  0  0  0  0  0  0  0  0  0  0
   -6.5219    1.4600    0.5834 H   0  0  0  0  0  0  0  0  0  0  0  0
   -7.6359   -0.6646    1.6411 H   0  0  0  0  0  0  0  0  0  0  0  0
   -8.5562    0.8962    1.7498 H   0  0  0  0  0  0  0  0  0  0  0  0
   -8.9864   -0.6603   -1.7804 H   0  0  0  0  0  0  0  0  0  0  0  0
   -9.2729   -2.2156   -0.8505 H   0  0  0  0  0  0  0  0  0  0  0  0
   -7.0016   -2.1259   -1.6230 H   0  0  0  0  0  0  0  0  0  0  0  0
   -7.1444   -2.0564    0.2191 H   0  0  0  0  0  0  0  0  0  0  0  0
   -9.8174    0.9659   -0.9589 H   0  0  0  0  0  0  0  0  0  0  0  0
  -12.0470   -0.8652    0.0870 H   0  0  0  0  0  0  0  0  0  0  0  0
  -12.0948    0.3153   -1.2389 H   0  0  0  0  0  0  0  0  0  0  0  0
  -11.0347   -1.1171   -1.4299 H   0  0  0  0  0  0  0  0  0  0  0  0
  -11.0442    0.8201    1.8187 H   0  0  0  0  0  0  0  0  0  0  0  0
  -10.0163    2.1747    1.0915 H   0  0  0  0  0  0  0  0  0  0  0  0
  -11.6667    1.8481    0.4998 H   0  0  0  0  0  0  0  0  0  0  0  0
    2.0198    1.6455   -0.9441 H   0  0  0  0  0  0  0  0  0  0  0  0
    6.9737   -2.3129   -1.0731 H   0  0  0  0  0  0  0  0  0  0  0  0
    7.1509   -1.4982   -2.7198 H   0  0  0  0  0  0  0  0  0  0  0  0
    5.6430   -2.4875   -2.3345 H   0  0  0  0  0  0  0  0  0  0  0  0
    8.3566   -0.7568   -0.9798 H   0  0  0  0  0  0  0  0  0  0  0  0
  1  2  1  0
  2  3  1  0
  3  4  2  0
  3  5  1  0
  5  6  1  0
  6  7  2  0
  7  8  1  0
  8  9  2  0
  9 10  1  0
 10 11  1  0
 11 12  1  0
 12 13  2  0
 13 14  1  0
 14 15  2  0
 15 16  1  0
 16 17  1  0
 17 18  1  0
 18 19  2  0
 18 20  1  0
 20 21  2  0
 21 22  1  0
 22 23  2  0
 23 24  1  0
 24 25  2  0
 23 26  1  0
 26 27  1  0
 27 28  1  0
 28 29  1  0
 29 30  1  0
 30 31  1  0
 29 32  1  0
 32 33  1  0
 32 34  1  0
 16 35  2  0
 10 36  2  0
 36 37  1  0
 37 38  1  0
 36 39  1  0
 39 40  2  0
 40  5  1  0
 40  8  1  0
 35 12  1  0
 25 20  1  0
 31 26  1  0
  1 41  1  0
  1 42  1  0
  1 43  1  0
  2 44  1  0
  6 45  1  0
  7 46  1  0
  9 47  1  0
 13 48  1  0
 14 49  1  0
 17 50  1  0
 21 51  1  0
 22 52  1  0
 24 53  1  0
 25 54  1  0
 26 55  1  0
 27 56  1  0
 27 57  1  0
 28 58  1  0
 28 59  1  0
 30 60  1  0
 30 61  1  0
 31 62  1  0
 31 63  1  0
 32 64  1  0
 33 65  1  0
 33 66  1  0
 33 67  1  0
 34 68  1  0
 34 69  1  0
 34 70  1  0
 35 71  1  0
 38 72  1  0
 38 73  1  0
 38 74  1  0
 39 75  1  0
M  END
$$$$
[H]c1nc(N([H])C(=O)c2c([H])c([H])c(-c3nc([C@]4([H])C([H])([H])N5C(=O)C([H])([H])C([H])([H])[C@]5([H])C([H])([H])C4([H])[H])n4c([H])c([H])nc(N([H])[H])c34)c([H])c2[H])c([H])c(C(F)(F)F)c1[H]
     RDKit          3D

 63 68  0  0  0  0  0  0  0  0999 V2000
    1.1354    2.5301   -0.3548 N   0  0  0  0  0  0  0  0  0  0  0  0
   -0.2576    2.3933   -0.5564 C   0  0  0  0  0  0  0  0  0  0  0  0
   -0.9136    3.4329   -1.1835 N   0  0  0  0  0  0  0  0  0  0  0  0
   -2.2199    3.4047   -1.4192 C   0  0  0  0  0  0  0  0  0  0  0  0
   -2.9844    2.2989   -1.0277 C   0  0  0  0  0  0  0  0  0  0  0  0
   -2.3709    1.2882   -0.4204 N   0  0  0  0  0  0  0  0  0  0  0  0
   -2.8956    0.1207    0.0399 C   0  0  0  0  0  0  0  0  0  0  0  0
   -1.8510   -0.5398    0.5447 N   0  0  0  0  0  0  0  0  0  0  0  0
   -0.7021    0.1035    0.4451 C   0  0  0  0  0  0  0  0  0  0  0  0
    0.6963   -0.3098    0.6609 C   0  0  0  0  0  0  0  0  0  0  0  0
    1.5709    0.1796    1.5342 C   0  0  0  0  0  0  0  0  0  0  0  0
    2.9350   -0.1725    1.4430 C   0  0  0  0  0  0  0  0  0  0  0  0
    3.3777   -1.0115    0.4731 C   0  0  0  0  0  0  0  0  0  0  0  0
    2.4603   -1.5451   -0.4434 C   0  0  0  0  0  0  0  0  0  0  0  0
    1.1688   -1.1977   -0.3386 C   0  0  0  0  0  0  0  0  0  0  0  0
    4.7764   -1.2329    0.1172 C   0  0  0  0  0  0  0  0  0  0  0  0
    5.0902   -2.1302   -0.7036 O   0  0  0  0  0  0  0  0  0  0  0  0
    5.7779   -0.4274    0.6731 N   0  0  0  0  0  0  0  0  0  0  0  0
    7.1021   -0.4553    0.0615 C   0  0  0  0  0  0  0  0  0  0  0  0
    8.1335    0.2001    0.6038 C   0  0  0  0  0  0  0  0  0  0  0  0
    9.3292    0.2889   -0.1274 C   0  0  0  0  0  0  0  0  0  0  0  0
    9.3895   -0.3077   -1.3603 C   0  0  0  0  0  0  0  0  0  0  0  0
    8.3412   -0.9741   -1.8901 C   0  0  0  0  0  0  0  0  0  0  0  0
    7.2132   -1.0343   -1.1626 N   0  0  0  0  0  0  0  0  0  0  0  0
   10.5079    1.0382    0.4474 C   0  0  0  0  0  0  0  0  0  0  0  0
   10.0478    2.2915    0.8183 F   0  0  0  0  0  0  0  0  0  0  0  0
   10.9690    0.2836    1.4706 F   0  0  0  0  0  0  0  0  0  0  0  0
   11.4517    1.1303   -0.5598 F   0  0  0  0  0  0  0  0  0  0  0  0
   -1.0269    1.3173   -0.1807 C   0  0  0  0  0  0  0  0  0  0  0  0
   -4.2896   -0.3559   -0.0523 C   0  0  1  0  0  0  0  0  0  0  0  0
   -4.4500   -1.6548    0.7270 C   0  0  0  0  0  0  0  0  0  0  0  0
   -5.7655   -2.3055    0.3549 C   0  0  0  0  0  0  0  0  0  0  0  0
   -6.7400   -1.3628   -0.3230 C   0  0  1  0  0  0  0  0  0  0  0  0
   -8.1408   -1.6638    0.1118 C   0  0  0  0  0  0  0  0  0  0  0  0
   -8.8474   -0.4213   -0.4708 C   0  0  0  0  0  0  0  0  0  0  0  0
   -7.8289    0.6471   -0.2259 C   0  0  0  0  0  0  0  0  0  0  0  0
   -8.1170    1.8897   -0.2713 O   0  0  0  0  0  0  0  0  0  0  0  0
   -6.6004    0.0295    0.0374 N   0  0  0  0  0  0  0  0  0  0  0  0
   -5.3074    0.5614    0.5620 C   0  0  0  0  0  0  0  0  0  0  0  0
    1.4078    3.1040    0.4615 H   0  0  0  0  0  0  0  0  0  0  0  0
    1.8760    2.1125   -0.9233 H   0  0  0  0  0  0  0  0  0  0  0  0
   -2.7410    4.2357   -1.9354 H   0  0  0  0  0  0  0  0  0  0  0  0
   -4.0237    2.3770   -1.2821 H   0  0  0  0  0  0  0  0  0  0  0  0
    1.2430    0.8458    2.3264 H   0  0  0  0  0  0  0  0  0  0  0  0
    3.6480    0.2337    2.1634 H   0  0  0  0  0  0  0  0  0  0  0  0
    2.7810   -2.2118   -1.2015 H   0  0  0  0  0  0  0  0  0  0  0  0
    0.4106   -1.6033   -1.0180 H   0  0  0  0  0  0  0  0  0  0  0  0
    5.5770    0.2953    1.3615 H   0  0  0  0  0  0  0  0  0  0  0  0
    8.1326    0.6753    1.5822 H   0  0  0  0  0  0  0  0  0  0  0  0
   10.2948   -0.2432   -1.9332 H   0  0  0  0  0  0  0  0  0  0  0  0
    8.4228   -1.4155   -2.8893 H   0  0  0  0  0  0  0  0  0  0  0  0
   -4.5585   -0.6086   -1.1155 H   0  0  0  0  0  0  0  0  0  0  0  0
   -3.5990   -2.3130    0.6442 H   0  0  0  0  0  0  0  0  0  0  0  0
   -4.5329   -1.3260    1.7960 H   0  0  0  0  0  0  0  0  0  0  0  0
   -5.5535   -3.1210   -0.3444 H   0  0  0  0  0  0  0  0  0  0  0  0
   -6.2020   -2.7316    1.2727 H   0  0  0  0  0  0  0  0  0  0  0  0
   -6.7056   -1.5385   -1.4119 H   0  0  0  0  0  0  0  0  0  0  0  0
   -8.5471   -2.5910   -0.3028 H   0  0  0  0  0  0  0  0  0  0  0  0
   -8.1733   -1.6476    1.2177 H   0  0  0  0  0  0  0  0  0  0  0  0
   -9.0151   -0.6214   -1.5461 H   0  0  0  0  0  0  0  0  0  0  0  0
   -9.7564   -0.2007    0.0784 H   0  0  0  0  0  0  0  0  0  0  0  0
   -5.2723    1.6133    0.3693 H   0  0  0  0  0  0  0  0  0  0  0  0
   -5.2781    0.3534    1.6708 H   0  0  0  0  0  0  0  0  0  0  0  0
  1  2  1  0
  2  3  2  0
  3  4  1  0
  4  5  2  0
  5  6  1  0
  6  7  1  0
  7  8  2  0
  8  9  1  0
  9 10  1  0
 10 11  2  0
 11 12  1  0
 12 13  2  0
 13 14  1  0
 14 15  2  0
 13 16  1  0
 16 17  2  0
 16 18  1  0
 18 19  1  0
 19 20  2  0
 20 21  1  0
 21 22  2  0
 22 23  1  0
 23 24  2  0
 21 25  1  0
 25 26  1  0
 25 27  1  0
 25 28  1  0
  9 29  2  0
  7 30  1  0
 30 31  1  0
 31 32  1  0
 32 33  1  0
 33 34  1  0
 34 35  1  0
 35 36  1  0
 36 37  2  0
 36 38  1  0
 38 39  1  0
 29  2  1  0
 39 30  1  0
 29  6  1  0
 38 33  1  0
 15 10  1  0
 24 19  1  0
  1 40  1  0
  1 41  1  0
  4 42  1  0
  5 43  1  0
 11 44  1  0
 12 45  1  0
 14 46  1  0
 15 47  1  0
 18 48  1  0
 20 49  1  0
 22 50  1  0
 23 51  1  0
 30 52  1  6
 31 53  1  0
 31 54  1  0
 32 55  1  0
 32 56  1  0
 33 57  1  6
 34 58  1  0
 34 59  1  0
 35 60  1  0
 35 61  1  0
 39 62  1  0
 39 63  1  0
M  END
$$$$
[H]c1sc(N2C([H])([H])C([H])([H])[C@@]([H])(N([H])C(=O)c3c([H])c([H])c(F)c([H])c3[H])C2([H])[H])nc1-c1c([H])c([H])c([H])c([H])c1[H]
     RDKit          3D

 44 47  0  0  0  0  0  0  0  0999 V2000
   -8.7293   -1.3412    1.3776 F   0  0  0  0  0  0  0  0  0  0  0  0
   -7.4298   -0.9862    1.2006 C   0  0  0  0  0  0  0  0  0  0  0  0
   -6.8209   -1.0529   -0.0315 C   0  0  0  0  0  0  0  0  0  0  0  0
   -5.4890   -0.6810   -0.1720 C   0  0  0  0  0  0  0  0  0  0  0  0
   -4.7535   -0.2433    0.8971 C   0  0  0  0  0  0  0  0  0  0  0  0
   -5.3749   -0.1780    2.1416 C   0  0  0  0  0  0  0  0  0  0  0  0
   -6.6750   -0.5427    2.2701 C   0  0  0  0  0  0  0  0  0  0  0  0
   -3.3448    0.1575    0.7705 C   0  0  0  0  0  0  0  0  0  0  0  0
   -2.7303    0.4920    1.8366 O   0  0  0  0  0  0  0  0  0  0  0  0
   -2.7254    0.1631   -0.4855 N   0  0  0  0  0  0  0  0  0  0  0  0
   -1.3393    0.5631   -0.5765 C   0  0  2  0  0  0  0  0  0  0  0  0
   -1.0777    1.6450   -1.5774 C   0  0  0  0  0  0  0  0  0  0  0  0
   -0.0110    1.0955   -2.4942 C   0  0  0  0  0  0  0  0  0  0  0  0
    0.5370    0.0038   -1.7330 N   0  0  0  0  0  0  0  0  0  0  0  0
   -0.5688   -0.6599   -1.0938 C   0  0  0  0  0  0  0  0  0  0  0  0
    1.9096   -0.4212   -1.5825 C   0  0  0  0  0  0  0  0  0  0  0  0
    2.7911   -0.0061   -0.7020 N   0  0  0  0  0  0  0  0  0  0  0  0
    4.0055   -0.5002   -0.6996 C   0  0  0  0  0  0  0  0  0  0  0  0
    4.2792   -1.4537   -1.6553 C   0  0  0  0  0  0  0  0  0  0  0  0
    2.7948   -1.5722   -2.4787 S   0  0  0  0  0  0  0  0  0  0  0  0
    5.0290   -0.0453    0.2859 C   0  0  0  0  0  0  0  0  0  0  0  0
    4.7625    0.9167    1.2317 C   0  0  0  0  0  0  0  0  0  0  0  0
    5.7144    1.3347    2.1448 C   0  0  0  0  0  0  0  0  0  0  0  0
    6.9752    0.7748    2.1146 C   0  0  0  0  0  0  0  0  0  0  0  0
    7.2622   -0.1831    1.1832 C   0  0  0  0  0  0  0  0  0  0  0  0
    6.2883   -0.5910    0.2708 C   0  0  0  0  0  0  0  0  0  0  0  0
   -7.3945   -1.4021   -0.9042 H   0  0  0  0  0  0  0  0  0  0  0  0
   -5.0466   -0.7517   -1.1705 H   0  0  0  0  0  0  0  0  0  0  0  0
   -4.7871    0.1692    2.9824 H   0  0  0  0  0  0  0  0  0  0  0  0
   -7.1717   -0.4929    3.2528 H   0  0  0  0  0  0  0  0  0  0  0  0
   -3.2200   -0.1044   -1.3376 H   0  0  0  0  0  0  0  0  0  0  0  0
   -0.9211    0.8395    0.4325 H   0  0  0  0  0  0  0  0  0  0  0  0
   -1.9983    1.7532   -2.2262 H   0  0  0  0  0  0  0  0  0  0  0  0
   -0.8040    2.6224   -1.1300 H   0  0  0  0  0  0  0  0  0  0  0  0
    0.8304    1.8326   -2.6192 H   0  0  0  0  0  0  0  0  0  0  0  0
   -0.4031    0.7758   -3.4822 H   0  0  0  0  0  0  0  0  0  0  0  0
   -0.1895   -1.2818   -0.2774 H   0  0  0  0  0  0  0  0  0  0  0  0
   -1.1942   -1.2282   -1.8112 H   0  0  0  0  0  0  0  0  0  0  0  0
    5.2388   -1.9835   -1.8114 H   0  0  0  0  0  0  0  0  0  0  0  0
    3.7867    1.3749    1.2829 H   0  0  0  0  0  0  0  0  0  0  0  0
    5.4384    2.0876    2.8525 H   0  0  0  0  0  0  0  0  0  0  0  0
    7.7439    1.0790    2.8149 H   0  0  0  0  0  0  0  0  0  0  0  0
    8.2263   -0.6257    1.1444 H   0  0  0  0  0  0  0  0  0  0  0  0
    6.5868   -1.3520   -0.4358 H   0  0  0  0  0  0  0  0  0  0  0  0
  1  2  1  0
  2  3  2  0
  3  4  1  0
  4  5  2  0
  5  6  1  0
  6  7  2  0
  5  8  1  0
  8  9  2  0
  8 10  1  0
 10 11  1  0
 11 12  1  0
 12 13  1  0
 13 14  1  0
 14 15  1  0
 14 16  1  0
 16 17  2  0
 17 18  1  0
 18 19  2  0
 19 20  1  0
 18 21  1  0
 21 22  2  0
 22 23  1  0
 23 24  2  0
 24 25  1  0
 25 26  2  0
  7  2  1  0
 15 11  1  0
 20 16  1  0
 26 21  1  0
  3 27  1  0
  4 28  1  0
  6 29  1  0
  7 30  1  0
 10 31  1  0
 11 32  1  1
 12 33  1  0
 12 34  1  0
 13 35  1  0
 13 36  1  0
 15 37  1  0
 15 38  1  0
 19 39  1  0
 22 40  1  0
 23 41  1  0
 24 42  1  0
 25 43  1  0
 26 44  1  0
M  END
$$$$
[H]OC(=O)c1c([H])c(-c2c([H])c([H])c(C(C([H])([H])[H])(C([H])([H])[H])C([H])([H])[H])c([H])c2[H])nc2c([H])c([H])c([H])c([H])c12
     RDKit          3D

 42 44  0  0  0  0  0  0  0  0999 V2000
   -4.7391   -0.8802    1.5870 C   0  0  0  0  0  0  0  0  0  0  0  0
   -4.3555   -0.0702    0.3852 C   0  0  0  0  0  0  0  0  0  0  0  0
   -4.9657   -0.6866   -0.8601 C   0  0  0  0  0  0  0  0  0  0  0  0
   -4.9076    1.3124    0.5648 C   0  0  0  0  0  0  0  0  0  0  0  0
   -2.8730   -0.0516    0.2892 C   0  0  0  0  0  0  0  0  0  0  0  0
   -2.1468   -1.2196    0.2215 C   0  0  0  0  0  0  0  0  0  0  0  0
   -0.7633   -1.2243    0.1083 C   0  0  0  0  0  0  0  0  0  0  0  0
   -0.0883   -0.0309    0.0628 C   0  0  0  0  0  0  0  0  0  0  0  0
   -0.7786    1.1388    0.1280 C   0  0  0  0  0  0  0  0  0  0  0  0
   -2.1786    1.1354    0.2402 C   0  0  0  0  0  0  0  0  0  0  0  0
    1.3779   -0.0108   -0.0029 C   0  0  0  0  0  0  0  0  0  0  0  0
    2.0851    1.0942   -0.3560 C   0  0  0  0  0  0  0  0  0  0  0  0
    3.4925    1.1433   -0.4743 C   0  0  0  0  0  0  0  0  0  0  0  0
    4.0878    2.3631   -0.9653 C   0  0  0  0  0  0  0  0  0  0  0  0
    3.3887    3.5762   -0.8496 O   0  0  0  0  0  0  0  0  0  0  0  0
    5.2006    2.4394   -1.4975 O   0  0  0  0  0  0  0  0  0  0  0  0
    4.1508   -0.0309   -0.1974 C   0  0  0  0  0  0  0  0  0  0  0  0
    5.5166   -0.0663   -0.2570 C   0  0  0  0  0  0  0  0  0  0  0  0
    6.1810   -1.2579    0.0500 C   0  0  0  0  0  0  0  0  0  0  0  0
    5.4862   -2.3678    0.4049 C   0  0  0  0  0  0  0  0  0  0  0  0
    4.1171   -2.3304    0.4656 C   0  0  0  0  0  0  0  0  0  0  0  0
    3.4247   -1.1726    0.1680 C   0  0  0  0  0  0  0  0  0  0  0  0
    2.0866   -1.1324    0.2505 N   0  0  0  0  0  0  0  0  0  0  0  0
   -5.7591   -0.6482    1.9815 H   0  0  0  0  0  0  0  0  0  0  0  0
   -4.0364   -0.6614    2.4116 H   0  0  0  0  0  0  0  0  0  0  0  0
   -4.6339   -1.9573    1.3283 H   0  0  0  0  0  0  0  0  0  0  0  0
   -6.0252   -0.7891   -0.6618 H   0  0  0  0  0  0  0  0  0  0  0  0
   -4.8418    0.0053   -1.7153 H   0  0  0  0  0  0  0  0  0  0  0  0
   -4.4662   -1.6334   -1.0727 H   0  0  0  0  0  0  0  0  0  0  0  0
   -4.6003    2.0076   -0.2449 H   0  0  0  0  0  0  0  0  0  0  0  0
   -6.0347    1.2217    0.5907 H   0  0  0  0  0  0  0  0  0  0  0  0
   -4.5213    1.7294    1.5151 H   0  0  0  0  0  0  0  0  0  0  0  0
   -2.6497   -2.2029    0.2511 H   0  0  0  0  0  0  0  0  0  0  0  0
   -0.2408   -2.2016    0.0590 H   0  0  0  0  0  0  0  0  0  0  0  0
   -0.2441    2.0902    0.1034 H   0  0  0  0  0  0  0  0  0  0  0  0
   -2.6656    2.0771    0.2913 H   0  0  0  0  0  0  0  0  0  0  0  0
    1.5838    2.0339   -0.5762 H   0  0  0  0  0  0  0  0  0  0  0  0
    3.2904    4.1951   -1.6466 H   0  0  0  0  0  0  0  0  0  0  0  0
    6.1092    0.8045   -0.5134 H   0  0  0  0  0  0  0  0  0  0  0  0
    7.2786   -1.2026   -0.0226 H   0  0  0  0  0  0  0  0  0  0  0  0
    6.0386   -3.2955    0.6399 H   0  0  0  0  0  0  0  0  0  0  0  0
    3.6195   -3.2429    0.7540 H   0  0  0  0  0  0  0  0  0  0  0  0
  1  2  1  0
  2  3  1  0
  2  4  1  0
  2  5  1  0
  5  6  2  0
  6  7  1  0
  7  8  2  0
  8  9  1  0
  9 10  2  0
  8 11  1  0
 11 12  2  0
 12 13  1  0
 13 14  1  0
 14 15  1  0
 14 16  2  0
 13 17  2  0
 17 18  1  0
 18 19  2  0
 19 20  1  0
 20 21  2  0
 21 22  1  0
 22 23  2  0
 10  5  1  0
 23 11  1  0
 22 17  1  0
  1 24  1  0
  1 25  1  0
  1 26  1  0
  3 27  1  0
  3 28  1  0
  3 29  1  0
  4 30  1  0
  4 31  1  0
  4 32  1  0
  6 33  1  0
  7 34  1  0
  9 35  1  0
 10 36  1  0
 12 37  1  0
 15 38  1  0
 18 39  1  0
 19 40  1  0
 20 41  1  0
 21 42  1  0
M  END
$$$$
[H]c1c([H])c(-c2nc(-c3c([H])c(C([H])([H])[H])nc(C(F)(F)F)c3[H])c3n2C([H])([H])[C@@]([H])(C([H])([H])[H])OC([H])([H])C3([H])[H])c([H])c([H])c1F
     RDKit          3D

 48 51  0  0  0  0  0  0  0  0999 V2000
   -4.1615   -2.2067   -0.6536 C   0  0  0  0  0  0  0  0  0  0  0  0
   -2.7028   -1.9016   -0.6572 C   0  0  2  0  0  0  0  0  0  0  0  0
   -2.5404   -0.4772   -1.2783 C   0  0  0  0  0  0  0  0  0  0  0  0
   -1.2973    0.0389   -0.7221 N   0  0  0  0  0  0  0  0  0  0  0  0
   -0.0723   -0.5565   -0.7624 C   0  0  0  0  0  0  0  0  0  0  0  0
    0.2161   -1.8181   -1.4654 C   0  0  0  0  0  0  0  0  0  0  0  0
   -0.6770   -2.9317   -0.9443 C   0  0  0  0  0  0  0  0  0  0  0  0
   -1.9749   -2.7714   -1.4426 O   0  0  0  0  0  0  0  0  0  0  0  0
    0.8471    0.1792   -0.0625 C   0  0  0  0  0  0  0  0  0  0  0  0
    0.1568    1.2349    0.4050 N   0  0  0  0  0  0  0  0  0  0  0  0
   -1.1593    1.1617    0.0029 C   0  0  0  0  0  0  0  0  0  0  0  0
   -2.0876    2.1755    0.4254 C   0  0  0  0  0  0  0  0  0  0  0  0
   -1.8556    2.8413    1.6329 C   0  0  0  0  0  0  0  0  0  0  0  0
   -2.6721    3.8680    2.0503 C   0  0  0  0  0  0  0  0  0  0  0  0
   -3.7359    4.2488    1.2661 C   0  0  0  0  0  0  0  0  0  0  0  0
   -4.5617    5.2616    1.6707 F   0  0  0  0  0  0  0  0  0  0  0  0
   -3.9836    3.6113    0.0753 C   0  0  0  0  0  0  0  0  0  0  0  0
   -3.1446    2.5672   -0.3394 C   0  0  0  0  0  0  0  0  0  0  0  0
    2.2674   -0.1012    0.1346 C   0  0  0  0  0  0  0  0  0  0  0  0
    3.1054   -0.4047   -0.9018 C   0  0  0  0  0  0  0  0  0  0  0  0
    4.4607   -0.6754   -0.7152 C   0  0  0  0  0  0  0  0  0  0  0  0
    5.3508   -1.0069   -1.8793 C   0  0  0  0  0  0  0  0  0  0  0  0
    4.9203   -0.6264    0.5462 N   0  0  0  0  0  0  0  0  0  0  0  0
    4.1775   -0.3397    1.6141 C   0  0  0  0  0  0  0  0  0  0  0  0
    2.8348   -0.0755    1.3977 C   0  0  0  0  0  0  0  0  0  0  0  0
    4.7440   -0.3040    3.0029 C   0  0  0  0  0  0  0  0  0  0  0  0
    5.8321    0.5774    2.9651 F   0  0  0  0  0  0  0  0  0  0  0  0
    5.1923   -1.5117    3.4293 F   0  0  0  0  0  0  0  0  0  0  0  0
    3.8345    0.2656    3.8604 F   0  0  0  0  0  0  0  0  0  0  0  0
   -4.5765   -1.9899   -1.6588 H   0  0  0  0  0  0  0  0  0  0  0  0
   -4.3067   -3.2844   -0.3840 H   0  0  0  0  0  0  0  0  0  0  0  0
   -4.6538   -1.5604    0.1245 H   0  0  0  0  0  0  0  0  0  0  0  0
   -2.2989   -1.8413    0.3797 H   0  0  0  0  0  0  0  0  0  0  0  0
   -3.4105    0.0670   -0.9291 H   0  0  0  0  0  0  0  0  0  0  0  0
   -2.4663   -0.6150   -2.3570 H   0  0  0  0  0  0  0  0  0  0  0  0
   -0.0580   -1.7145   -2.5612 H   0  0  0  0  0  0  0  0  0  0  0  0
    1.2505   -2.1492   -1.4408 H   0  0  0  0  0  0  0  0  0  0  0  0
   -0.2771   -3.8895   -1.3293 H   0  0  0  0  0  0  0  0  0  0  0  0
   -0.6243   -2.9235    0.1616 H   0  0  0  0  0  0  0  0  0  0  0  0
   -1.0144    2.5455    2.2559 H   0  0  0  0  0  0  0  0  0  0  0  0
   -2.4578    4.3582    3.0061 H   0  0  0  0  0  0  0  0  0  0  0  0
   -4.8265    3.9079   -0.5499 H   0  0  0  0  0  0  0  0  0  0  0  0
   -3.3873    2.1502   -1.3155 H   0  0  0  0  0  0  0  0  0  0  0  0
    2.7700   -0.4415   -1.9220 H   0  0  0  0  0  0  0  0  0  0  0  0
    5.8121   -0.0240   -2.1861 H   0  0  0  0  0  0  0  0  0  0  0  0
    4.7822   -1.4504   -2.6937 H   0  0  0  0  0  0  0  0  0  0  0  0
    6.1998   -1.6223   -1.5146 H   0  0  0  0  0  0  0  0  0  0  0  0
    2.2302    0.1544    2.2593 H   0  0  0  0  0  0  0  0  0  0  0  0
  1  2  1  0
  2  3  1  0
  3  4  1  0
  4  5  1  0
  5  6  1  0
  6  7  1  0
  7  8  1  0
  5  9  2  0
  9 10  1  0
 10 11  2  0
 11 12  1  0
 12 13  2  0
 13 14  1  0
 14 15  2  0
 15 16  1  0
 15 17  1  0
 17 18  2  0
  9 19  1  0
 19 20  2  0
 20 21  1  0
 21 22  1  0
 21 23  2  0
 23 24  1  0
 24 25  2  0
 24 26  1  0
 26 27  1  0
 26 28  1  0
 26 29  1  0
  8  2  1  0
 18 12  1  0
 25 19  1  0
 11  4  1  0
  1 30  1  0
  1 31  1  0
  1 32  1  0
  2 33  1  1
  3 34  1  0
  3 35  1  0
  6 36  1  0
  6 37  1  0
  7 38  1  0
  7 39  1  0
 13 40  1  0
 14 41  1  0
 17 42  1  0
 18 43  1  0
 20 44  1  0
 22 45  1  0
 22 46  1  0
 22 47  1  0
 25 48  1  0
M  END
$$$$
[H]c1nc2c([H])c(OC([H])([H])C([H])([H])C([H])([H])N3C([H])([H])C([H])([H])C([H])([H])C3([H])[H])c(OC([H])([H])[H])c([H])c2c(Oc2c([H])c([H])c(N([H])C(=O)C3(C(=O)N([H])c4c([H])c([H])c(F)c([H])c4F)C([H])([H])C3([H])[H])c([H])c2F)c1[H]
     RDKit          3D

 79 84  0  0  0  0  0  0  0  0999 V2000
   -3.3962   -4.4477   -1.1905 C   0  0  0  0  0  0  0  0  0  0  0  0
   -4.2679   -3.3874   -0.9399 O   0  0  0  0  0  0  0  0  0  0  0  0
   -3.8336   -2.1720   -0.4311 C   0  0  0  0  0  0  0  0  0  0  0  0
   -2.5199   -1.9273   -0.1389 C   0  0  0  0  0  0  0  0  0  0  0  0
   -2.1107   -0.7104    0.3679 C   0  0  0  0  0  0  0  0  0  0  0  0
   -0.7656   -0.4662    0.6617 C   0  0  0  0  0  0  0  0  0  0  0  0
    0.1051   -1.5062    0.4201 O   0  0  0  0  0  0  0  0  0  0  0  0
    1.4642   -1.5044    0.6716 C   0  0  0  0  0  0  0  0  0  0  0  0
    2.3320   -1.6257   -0.3782 C   0  0  0  0  0  0  0  0  0  0  0  0
    3.7273   -1.6345   -0.2137 C   0  0  0  0  0  0  0  0  0  0  0  0
    4.2933   -1.5205    1.0262 C   0  0  0  0  0  0  0  0  0  0  0  0
    5.6722   -1.5103    1.3067 N   0  0  0  0  0  0  0  0  0  0  0  0
    6.7188   -1.5420    0.4052 C   0  0  0  0  0  0  0  0  0  0  0  0
    6.5628   -1.5875   -0.8308 O   0  0  0  0  0  0  0  0  0  0  0  0
    8.1345   -1.5246    0.9075 C   0  0  0  0  0  0  0  0  0  0  0  0
    8.6977   -2.9155    1.0678 C   0  0  0  0  0  0  0  0  0  0  0  0
    8.4460   -2.0848    2.2584 C   0  0  0  0  0  0  0  0  0  0  0  0
    9.0139   -0.4361    0.3886 C   0  0  0  0  0  0  0  0  0  0  0  0
   10.2258   -0.4488    0.7657 O   0  0  0  0  0  0  0  0  0  0  0  0
    8.5675    0.5675   -0.4751 N   0  0  0  0  0  0  0  0  0  0  0  0
    9.3029    1.6432   -1.0479 C   0  0  0  0  0  0  0  0  0  0  0  0
   10.6348    1.8910   -0.8283 C   0  0  0  0  0  0  0  0  0  0  0  0
   11.3027    2.9523   -1.4283 C   0  0  0  0  0  0  0  0  0  0  0  0
   10.6553    3.8060   -2.2731 C   0  0  0  0  0  0  0  0  0  0  0  0
   11.2589    4.8458   -2.8810 F   0  0  0  0  0  0  0  0  0  0  0  0
    9.3245    3.5805   -2.5079 C   0  0  0  0  0  0  0  0  0  0  0  0
    8.6537    2.5357   -1.9205 C   0  0  0  0  0  0  0  0  0  0  0  0
    7.3453    2.3744   -2.1965 F   0  0  0  0  0  0  0  0  0  0  0  0
    3.3794   -1.3975    2.0880 C   0  0  0  0  0  0  0  0  0  0  0  0
    2.0171   -1.3889    1.9235 C   0  0  0  0  0  0  0  0  0  0  0  0
    1.1662   -1.2886    2.9843 F   0  0  0  0  0  0  0  0  0  0  0  0
   -0.4092    0.7644    1.1616 C   0  0  0  0  0  0  0  0  0  0  0  0
   -1.3771    1.7449    1.3701 C   0  0  0  0  0  0  0  0  0  0  0  0
   -2.6563    1.4719    1.0766 N   0  0  0  0  0  0  0  0  0  0  0  0
   -3.0222    0.2729    0.5856 C   0  0  0  0  0  0  0  0  0  0  0  0
   -4.3547    0.0319    0.2925 C   0  0  0  0  0  0  0  0  0  0  0  0
   -4.8007   -1.1657   -0.2137 C   0  0  0  0  0  0  0  0  0  0  0  0
   -6.0966   -1.4588   -0.5231 O   0  0  0  0  0  0  0  0  0  0  0  0
   -7.2644   -0.7389   -0.4740 C   0  0  0  0  0  0  0  0  0  0  0  0
   -7.2763    0.4209   -1.4176 C   0  0  0  0  0  0  0  0  0  0  0  0
   -8.5139    1.2443   -1.4551 C   0  0  0  0  0  0  0  0  0  0  0  0
   -8.9456    1.8950   -0.2865 N   0  0  0  0  0  0  0  0  0  0  0  0
   -9.4817    1.1304    0.7805 C   0  0  0  0  0  0  0  0  0  0  0  0
  -10.8444    1.6792    1.1505 C   0  0  0  0  0  0  0  0  0  0  0  0
  -11.0204    2.9006    0.3074 C   0  0  0  0  0  0  0  0  0  0  0  0
   -9.7324    3.0602   -0.4589 C   0  0  0  0  0  0  0  0  0  0  0  0
   -3.9473   -5.4053   -1.3248 H   0  0  0  0  0  0  0  0  0  0  0  0
   -2.5867   -4.5845   -0.4392 H   0  0  0  0  0  0  0  0  0  0  0  0
   -2.8885   -4.2444   -2.1809 H   0  0  0  0  0  0  0  0  0  0  0  0
   -1.7863   -2.6947   -0.3032 H   0  0  0  0  0  0  0  0  0  0  0  0
    1.9278   -1.7206   -1.3843 H   0  0  0  0  0  0  0  0  0  0  0  0
    4.3438   -1.7348   -1.0787 H   0  0  0  0  0  0  0  0  0  0  0  0
    5.9489   -1.4857    2.3507 H   0  0  0  0  0  0  0  0  0  0  0  0
    8.0408   -3.7983    0.9235 H   0  0  0  0  0  0  0  0  0  0  0  0
    9.7222   -3.0620    0.6592 H   0  0  0  0  0  0  0  0  0  0  0  0
    9.2901   -1.5532    2.7860 H   0  0  0  0  0  0  0  0  0  0  0  0
    7.6704   -2.4196    2.9582 H   0  0  0  0  0  0  0  0  0  0  0  0
    7.5303    0.5733   -0.7655 H   0  0  0  0  0  0  0  0  0  0  0  0
   11.2314    1.2872   -0.1881 H   0  0  0  0  0  0  0  0  0  0  0  0
   12.3581    3.1469   -1.2520 H   0  0  0  0  0  0  0  0  0  0  0  0
    8.7484    4.2374   -3.1813 H   0  0  0  0  0  0  0  0  0  0  0  0
    3.7989   -1.3047    3.0962 H   0  0  0  0  0  0  0  0  0  0  0  0
    0.6085    1.0039    1.3908 H   0  0  0  0  0  0  0  0  0  0  0  0
   -1.1043    2.7054    1.7626 H   0  0  0  0  0  0  0  0  0  0  0  0
   -5.0477    0.8372    0.5028 H   0  0  0  0  0  0  0  0  0  0  0  0
   -7.3316   -0.3001    0.5653 H   0  0  0  0  0  0  0  0  0  0  0  0
   -8.1622   -1.3804   -0.6362 H   0  0  0  0  0  0  0  0  0  0  0  0
   -7.1569   -0.0130   -2.4840 H   0  0  0  0  0  0  0  0  0  0  0  0
   -6.3533    1.0165   -1.3056 H   0  0  0  0  0  0  0  0  0  0  0  0
   -9.3434    0.5501   -1.7928 H   0  0  0  0  0  0  0  0  0  0  0  0
   -8.4875    1.9964   -2.2930 H   0  0  0  0  0  0  0  0  0  0  0  0
   -9.6694    0.0639    0.5025 H   0  0  0  0  0  0  0  0  0  0  0  0
   -8.8262    1.1717    1.6799 H   0  0  0  0  0  0  0  0  0  0  0  0
  -10.8745    1.9155    2.2455 H   0  0  0  0  0  0  0  0  0  0  0  0
  -11.6671    0.9577    0.9610 H   0  0  0  0  0  0  0  0  0  0  0  0
  -11.2316    3.7956    0.9546 H   0  0  0  0  0  0  0  0  0  0  0  0
  -11.8803    2.8329   -0.3863 H   0  0  0  0  0  0  0  0  0  0  0  0
   -9.9800    3.2382   -1.5338 H   0  0  0  0  0  0  0  0  0  0  0  0
   -9.2067    3.9488   -0.0233 H   0  0  0  0  0  0  0  0  0  0  0  0
  1  2  1  0
  2  3  1  0
  3  4  2  0
  4  5  1  0
  5  6  2  0
  6  7  1  0
  7  8  1  0
  8  9  2  0
  9 10  1  0
 10 11  2  0
 11 12  1  0
 12 13  1  0
 13 14  2  0
 13 15  1  0
 15 16  1  0
 16 17  1  0
 15 18  1  0
 18 19  2  0
 18 20  1  0
 20 21  1  0
 21 22  2  0
 22 23  1  0
 23 24  2  0
 24 25  1  0
 24 26  1  0
 26 27  2  0
 27 28  1  0
 11 29  1  0
 29 30  2  0
 30 31  1  0
  6 32  1  0
 32 33  2  0
 33 34  1  0
 34 35  2  0
 35 36  1  0
 36 37  2  0
 37 38  1  0
 38 39  1  0
 39 40  1  0
 40 41  1  0
 41 42  1  0
 42 43  1  0
 43 44  1  0
 44 45  1  0
 45 46  1  0
 37  3  1  0
 46 42  1  0
 35  5  1  0
 30  8  1  0
 17 15  1  0
 27 21  1  0
  1 47  1  0
  1 48  1  0
  1 49  1  0
  4 50  1  0
  9 51  1  0
 10 52  1  0
 12 53  1  0
 16 54  1  0
 16 55  1  0
 17 56  1  0
 17 57  1  0
 20 58  1  0
 22 59  1  0
 23 60  1  0
 26 61  1  0
 29 62  1  0
 32 63  1  0
 33 64  1  0
 36 65  1  0
 39 66  1  0
 39 67  1  0
 40 68  1  0
 40 69  1  0
 41 70  1  0
 41 71  1  0
 43 72  1  0
 43 73  1  0
 44 74  1  0
 44 75  1  0
 45 76  1  0
 45 77  1  0
 46 78  1  0
 46 79  1  0
M  END
$$$$
[H]OC([H])([H])[C@@]1(O[H])C([H])([H])[C@@]2([H])O[C@]1(C([H])([H])[H])n1c3c([H])c([H])c([H])c([H])c3c3c4c(c5c6c([H])c([H])c([H])c([H])c6n2c5c31)C(=O)N([H])C4([H])[H]
     RDKit          3D

 54 61  0  0  0  0  0  0  0  0999 V2000
    3.1800    0.8838    1.3878 C   0  0  0  0  0  0  0  0  0  0  0  0
    2.1176    0.2237    0.5774 C   0  0  2  0  0  0  0  0  0  0  0  0
    1.6968   -0.7870    1.4854 O   0  0  0  0  0  0  0  0  0  0  0  0
    1.2511   -1.8639    0.7986 C   0  0  2  0  0  0  0  0  0  0  0  0
    2.0328   -1.9517   -0.4419 C   0  0  0  0  0  0  0  0  0  0  0  0
    2.6347   -0.5714   -0.5849 C   0  0  1  0  0  0  0  0  0  0  0  0
    2.2138   -0.0799   -1.8115 O   0  0  0  0  0  0  0  0  0  0  0  0
    4.1191   -0.7109   -0.6110 C   0  0  0  0  0  0  0  0  0  0  0  0
    4.4589   -1.5975   -1.6334 O   0  0  0  0  0  0  0  0  0  0  0  0
   -0.2014   -1.7853    0.5955 N   0  0  0  0  0  0  0  0  0  0  0  0
   -1.1044   -2.7499    0.6347 C   0  0  0  0  0  0  0  0  0  0  0  0
   -0.9179   -4.0868    0.8734 C   0  0  0  0  0  0  0  0  0  0  0  0
   -2.0299   -4.9199    0.8648 C   0  0  0  0  0  0  0  0  0  0  0  0
   -3.2823   -4.4161    0.6235 C   0  0  0  0  0  0  0  0  0  0  0  0
   -3.4758   -3.0511    0.3794 C   0  0  0  0  0  0  0  0  0  0  0  0
   -2.3768   -2.2421    0.3902 C   0  0  0  0  0  0  0  0  0  0  0  0
   -2.2053   -0.8905    0.1945 C   0  0  0  0  0  0  0  0  0  0  0  0
   -3.0670    0.1511   -0.0975 C   0  0  0  0  0  0  0  0  0  0  0  0
   -4.5001    0.2660   -0.2996 C   0  0  0  0  0  0  0  0  0  0  0  0
   -5.3884   -0.5871   -0.2658 O   0  0  0  0  0  0  0  0  0  0  0  0
   -4.7851    1.6416   -0.5724 N   0  0  0  0  0  0  0  0  0  0  0  0
   -3.5735    2.4248   -0.5610 C   0  0  0  0  0  0  0  0  0  0  0  0
   -2.5314    1.4168   -0.2472 C   0  0  0  0  0  0  0  0  0  0  0  0
   -1.1701    1.6669   -0.1133 C   0  0  0  0  0  0  0  0  0  0  0  0
   -0.3770    2.7657   -0.2198 C   0  0  0  0  0  0  0  0  0  0  0  0
   -0.7006    4.0705   -0.5126 C   0  0  0  0  0  0  0  0  0  0  0  0
    0.3203    5.0230   -0.5829 C   0  0  0  0  0  0  0  0  0  0  0  0
    1.6233    4.6180   -0.3553 C   0  0  0  0  0  0  0  0  0  0  0  0
    1.9232    3.2989   -0.0625 C   0  0  0  0  0  0  0  0  0  0  0  0
    0.9354    2.3466    0.0129 C   0  0  0  0  0  0  0  0  0  0  0  0
    0.9590    1.0103    0.2643 N   0  0  0  0  0  0  0  0  0  0  0  0
   -0.3578    0.6223    0.1746 C   0  0  0  0  0  0  0  0  0  0  0  0
   -0.8544   -0.6533    0.3299 C   0  0  0  0  0  0  0  0  0  0  0  0
    4.0624    1.2462    0.8471 H   0  0  0  0  0  0  0  0  0  0  0  0
    3.5596    0.1949    2.1815 H   0  0  0  0  0  0  0  0  0  0  0  0
    2.7312    1.7230    1.9466 H   0  0  0  0  0  0  0  0  0  0  0  0
    1.4219   -2.7643    1.4120 H   0  0  0  0  0  0  0  0  0  0  0  0
    1.4720   -2.2700   -1.3403 H   0  0  0  0  0  0  0  0  0  0  0  0
    2.8377   -2.7359   -0.3258 H   0  0  0  0  0  0  0  0  0  0  0  0
    2.8799   -0.3390   -2.4928 H   0  0  0  0  0  0  0  0  0  0  0  0
    4.5238   -1.1579    0.3296 H   0  0  0  0  0  0  0  0  0  0  0  0
    4.6358    0.2581   -0.8438 H   0  0  0  0  0  0  0  0  0  0  0  0
    4.7979   -2.4633   -1.2908 H   0  0  0  0  0  0  0  0  0  0  0  0
    0.0592   -4.4684    1.0598 H   0  0  0  0  0  0  0  0  0  0  0  0
   -1.8569   -5.9719    1.0560 H   0  0  0  0  0  0  0  0  0  0  0  0
   -4.1224   -5.0759    0.6219 H   0  0  0  0  0  0  0  0  0  0  0  0
   -4.4721   -2.7398    0.2018 H   0  0  0  0  0  0  0  0  0  0  0  0
   -5.7336    2.0654   -0.7610 H   0  0  0  0  0  0  0  0  0  0  0  0
   -3.6366    3.2333    0.1993 H   0  0  0  0  0  0  0  0  0  0  0  0
   -3.3846    2.8954   -1.5673 H   0  0  0  0  0  0  0  0  0  0  0  0
   -1.7294    4.3700   -0.6881 H   0  0  0  0  0  0  0  0  0  0  0  0
    0.0587    6.0490   -0.8135 H   0  0  0  0  0  0  0  0  0  0  0  0
    2.3774    5.3965   -0.4223 H   0  0  0  0  0  0  0  0  0  0  0  0
    2.9510    3.0689    0.0761 H   0  0  0  0  0  0  0  0  0  0  0  0
  2  1  1  1
  2  3  1  0
  3  4  1  0
  4  5  1  0
  5  6  1  0
  6  7  1  6
  6  8  1  0
  8  9  1  0
  4 10  1  0
 10 11  1  0
 11 12  2  0
 12 13  1  0
 13 14  2  0
 14 15  1  0
 15 16  2  0
 16 17  1  0
 17 18  2  0
 18 19  1  0
 19 20  2  0
 19 21  1  0
 21 22  1  0
 22 23  1  0
 23 24  2  0
 24 25  1  0
 25 26  2  0
 26 27  1  0
 27 28  2  0
 28 29  1  0
 29 30  2  0
 30 31  1  0
 31 32  1  0
 32 33  2  0
  6  2  1  0
 33 10  1  0
 31  2  1  0
 16 11  1  0
 33 17  1  0
 23 18  1  0
 32 24  1  0
 30 25  1  0
  1 34  1  0
  1 35  1  0
  1 36  1  0
  4 37  1  1
  5 38  1  0
  5 39  1  0
  7 40  1  0
  8 41  1  0
  8 42  1  0
  9 43  1  0
 12 44  1  0
 13 45  1  0
 14 46  1  0
 15 47  1  0
 21 48  1  0
 22 49  1  0
 22 50  1  0
 26 51  1  0
 27 52  1  0
 28 53  1  0
 29 54  1  0
M  END
$$$$
[H]c1c([H])c([H])c2c(c1[H])C([H])([H])N(C1([H])C([H])([H])C([H])([H])N(C(=O)c3c([H])c(OC([H])([H])[H])c(OC([H])([H])[H])c(OC([H])([H])[H])c3[H])C([H])([H])C1([H])[H])C([H])([H])C2([H])[H]
     RDKit          3D

 60 63  0  0  0  0  0  0  0  0999 V2000
    6.3532   -1.8817   -2.8182 C   0  0  0  0  0  0  0  0  0  0  0  0
    6.2875   -1.7927   -1.4086 O   0  0  0  0  0  0  0  0  0  0  0  0
    5.1334   -1.2929   -0.8402 C   0  0  0  0  0  0  0  0  0  0  0  0
    4.0631   -0.8858   -1.5778 C   0  0  0  0  0  0  0  0  0  0  0  0
    2.8731   -0.3716   -1.0263 C   0  0  0  0  0  0  0  0  0  0  0  0
    2.8675   -0.3094    0.3388 C   0  0  0  0  0  0  0  0  0  0  0  0
    3.9274   -0.7082    1.1576 C   0  0  0  0  0  0  0  0  0  0  0  0
    3.8731   -0.6252    2.5404 O   0  0  0  0  0  0  0  0  0  0  0  0
    2.6831   -0.1154    3.1128 C   0  0  0  0  0  0  0  0  0  0  0  0
    5.0544   -1.1992    0.5291 C   0  0  0  0  0  0  0  0  0  0  0  0
    6.1292   -1.6049    1.3162 O   0  0  0  0  0  0  0  0  0  0  0  0
    7.1618   -0.7233    1.6984 C   0  0  0  0  0  0  0  0  0  0  0  0
    1.7742    0.0209   -1.8737 C   0  0  0  0  0  0  0  0  0  0  0  0
    1.9845   -0.2647   -3.1345 O   0  0  0  0  0  0  0  0  0  0  0  0
    0.5658    0.6366   -1.5693 N   0  0  0  0  0  0  0  0  0  0  0  0
    0.0322    1.0981   -0.3375 C   0  0  0  0  0  0  0  0  0  0  0  0
   -1.1795    2.0215   -0.5339 C   0  0  0  0  0  0  0  0  0  0  0  0
   -2.2495    1.4219   -1.3764 C   0  0  0  0  0  0  0  0  0  0  0  0
   -1.6967    0.2784   -2.2304 C   0  0  0  0  0  0  0  0  0  0  0  0
   -0.3488    0.8481   -2.7307 C   0  0  0  0  0  0  0  0  0  0  0  0
   -3.3640    0.9992   -0.6087 N   0  0  0  0  0  0  0  0  0  0  0  0
   -3.9789    2.1171    0.0457 C   0  0  0  0  0  0  0  0  0  0  0  0
   -5.4485    1.8320    0.2994 C   0  0  0  0  0  0  0  0  0  0  0  0
   -5.5780    0.4246    0.7894 C   0  0  0  0  0  0  0  0  0  0  0  0
   -6.8127    0.0559    1.2997 C   0  0  0  0  0  0  0  0  0  0  0  0
   -6.9975   -1.2312    1.7705 C   0  0  0  0  0  0  0  0  0  0  0  0
   -6.0019   -2.1620    1.7521 C   0  0  0  0  0  0  0  0  0  0  0  0
   -4.7721   -1.7650    1.2341 C   0  0  0  0  0  0  0  0  0  0  0  0
   -4.5704   -0.4888    0.7616 C   0  0  0  0  0  0  0  0  0  0  0  0
   -3.2295   -0.1336    0.2214 C   0  0  0  0  0  0  0  0  0  0  0  0
    7.3329   -2.2184   -3.1821 H   0  0  0  0  0  0  0  0  0  0  0  0
    6.1580   -0.8561   -3.2477 H   0  0  0  0  0  0  0  0  0  0  0  0
    5.5199   -2.5094   -3.2253 H   0  0  0  0  0  0  0  0  0  0  0  0
    4.1116   -0.9528   -2.6495 H   0  0  0  0  0  0  0  0  0  0  0  0
    2.0192    0.0493    0.8806 H   0  0  0  0  0  0  0  0  0  0  0  0
    2.4200    0.8797    2.7226 H   0  0  0  0  0  0  0  0  0  0  0  0
    1.8678   -0.8006    2.7359 H   0  0  0  0  0  0  0  0  0  0  0  0
    2.7406   -0.1194    4.2225 H   0  0  0  0  0  0  0  0  0  0  0  0
    6.9185   -0.2597    2.6988 H   0  0  0  0  0  0  0  0  0  0  0  0
    7.2858    0.1262    0.9936 H   0  0  0  0  0  0  0  0  0  0  0  0
    8.1252   -1.2521    1.8333 H   0  0  0  0  0  0  0  0  0  0  0  0
   -0.2685    0.3427    0.3824 H   0  0  0  0  0  0  0  0  0  0  0  0
    0.8073    1.8179    0.0820 H   0  0  0  0  0  0  0  0  0  0  0  0
   -0.7606    2.9114   -1.0918 H   0  0  0  0  0  0  0  0  0  0  0  0
   -1.5564    2.3437    0.4440 H   0  0  0  0  0  0  0  0  0  0  0  0
   -2.5714    2.1862   -2.1599 H   0  0  0  0  0  0  0  0  0  0  0  0
   -2.3205    0.1617   -3.1108 H   0  0  0  0  0  0  0  0  0  0  0  0
   -1.4579   -0.6136   -1.6547 H   0  0  0  0  0  0  0  0  0  0  0  0
   -0.0459    0.2623   -3.5947 H   0  0  0  0  0  0  0  0  0  0  0  0
   -0.4554    1.9299   -2.9339 H   0  0  0  0  0  0  0  0  0  0  0  0
   -3.4745    2.2351    1.0498 H   0  0  0  0  0  0  0  0  0  0  0  0
   -3.8852    3.0518   -0.5264 H   0  0  0  0  0  0  0  0  0  0  0  0
   -6.0615    1.9470   -0.5910 H   0  0  0  0  0  0  0  0  0  0  0  0
   -5.8030    2.4866    1.1223 H   0  0  0  0  0  0  0  0  0  0  0  0
   -7.6277    0.7694    1.3312 H   0  0  0  0  0  0  0  0  0  0  0  0
   -7.9790   -1.5035    2.1711 H   0  0  0  0  0  0  0  0  0  0  0  0
   -6.1546   -3.1504    2.1156 H   0  0  0  0  0  0  0  0  0  0  0  0
   -3.9862   -2.5086    1.2227 H   0  0  0  0  0  0  0  0  0  0  0  0
   -2.5286    0.0629    1.0622 H   0  0  0  0  0  0  0  0  0  0  0  0
   -2.9053   -1.0179   -0.3642 H   0  0  0  0  0  0  0  0  0  0  0  0
  1  2  1  0
  2  3  1  0
  3  4  2  0
  4  5  1  0
  5  6  2  0
  6  7  1  0
  7  8  1  0
  8  9  1  0
  7 10  2  0
 10 11  1  0
 11 12  1  0
  5 13  1  0
 13 14  2  0
 13 15  1  0
 15 16  1  0
 16 17  1  0
 17 18  1  0
 18 19  1  0
 19 20  1  0
 18 21  1  0
 21 22  1  0
 22 23  1  0
 23 24  1  0
 24 25  2  0
 25 26  1  0
 26 27  2  0
 27 28  1  0
 28 29  2  0
 29 30  1  0
 10  3  1  0
 20 15  1  0
 30 21  1  0
 29 24  1  0
  1 31  1  0
  1 32  1  0
  1 33  1  0
  4 34  1  0
  6 35  1  0
  9 36  1  0
  9 37  1  0
  9 38  1  0
 12 39  1  0
 12 40  1  0
 12 41  1  0
 16 42  1  0
 16 43  1  0
 17 44  1  0
 17 45  1  0
 18 46  1  0
 19 47  1  0
 19 48  1  0
 20 49  1  0
 20 50  1  0
 22 51  1  0
 22 52  1  0
 23 53  1  0
 23 54  1  0
 25 55  1  0
 26 56  1  0
 27 57  1  0
 28 58  1  0
 30 59  1  0
 30 60  1  0
M  END
$$$$
[H]c1nc(N([H])c2c([H])c([H])c(C([H])(C([H])([H])[H])C([H])([H])[H])c([H])c2OC([H])([H])[H])nc(N([H])c2c([H])c([H])c([H])c([H])c2S(=O)(=O)C([H])(C([H])([H])[H])C([H])([H])[H])c1Cl
     RDKit          3D

 59 61  0  0  0  0  0  0  0  0999 V2000
    3.9884   -2.8987   -1.7199 C   0  0  0  0  0  0  0  0  0  0  0  0
    3.3339   -1.8479   -1.0734 O   0  0  0  0  0  0  0  0  0  0  0  0
    3.9638   -0.8139   -0.4210 C   0  0  0  0  0  0  0  0  0  0  0  0
    5.3369   -0.8220   -0.4084 C   0  0  0  0  0  0  0  0  0  0  0  0
    6.0441    0.1645    0.2155 C   0  0  0  0  0  0  0  0  0  0  0  0
    5.3465    1.1654    0.8304 C   0  0  0  0  0  0  0  0  0  0  0  0
    3.9406    1.1665    0.8131 C   0  0  0  0  0  0  0  0  0  0  0  0
    3.2047    0.1899    0.1949 C   0  0  0  0  0  0  0  0  0  0  0  0
    1.8217    0.1089    0.1262 N   0  0  0  0  0  0  0  0  0  0  0  0
    0.8527    0.9946    0.6679 C   0  0  0  0  0  0  0  0  0  0  0  0
    1.1069    2.1030    1.3653 N   0  0  0  0  0  0  0  0  0  0  0  0
    0.1479    2.8995    1.8512 C   0  0  0  0  0  0  0  0  0  0  0  0
   -1.1611    2.5872    1.6383 C   0  0  0  0  0  0  0  0  0  0  0  0
   -2.4278    3.5836    2.2454 Cl  0  0  0  0  0  0  0  0  0  0  0  0
   -1.4995    1.4344    0.9121 C   0  0  0  0  0  0  0  0  0  0  0  0
   -2.8300    1.0937    0.6812 N   0  0  0  0  0  0  0  0  0  0  0  0
   -3.4349    0.0332    0.0086 C   0  0  0  0  0  0  0  0  0  0  0  0
   -2.7062   -0.9459   -0.5969 C   0  0  0  0  0  0  0  0  0  0  0  0
   -3.2600   -2.0288   -1.2832 C   0  0  0  0  0  0  0  0  0  0  0  0
   -4.6157   -2.1255   -1.3602 C   0  0  0  0  0  0  0  0  0  0  0  0
   -5.3907   -1.1648   -0.7667 C   0  0  0  0  0  0  0  0  0  0  0  0
   -4.8268   -0.0986   -0.0909 C   0  0  0  0  0  0  0  0  0  0  0  0
   -5.8377    1.0821    0.6398 S   0  0  0  0  0  0  0  0  0  0  0  0
   -5.6386    1.2285    2.1252 O   0  0  0  0  0  0  0  0  0  0  0  0
   -5.5800    2.4333    0.0164 O   0  0  0  0  0  0  0  0  0  0  0  0
   -7.5679    0.7640    0.4093 C   0  0  0  0  0  0  0  0  0  0  0  0
   -7.9906    0.8803   -1.0316 C   0  0  0  0  0  0  0  0  0  0  0  0
   -8.0510   -0.4765    1.0990 C   0  0  0  0  0  0  0  0  0  0  0  0
   -0.4728    0.7298    0.4845 N   0  0  0  0  0  0  0  0  0  0  0  0
    7.5302    0.1784    0.2433 C   0  0  0  0  0  0  0  0  0  0  0  0
    8.1130    0.2781   -1.1620 C   0  0  0  0  0  0  0  0  0  0  0  0
    8.0526   -1.1150    0.8545 C   0  0  0  0  0  0  0  0  0  0  0  0
    3.3163   -3.7402   -1.9396 H   0  0  0  0  0  0  0  0  0  0  0  0
    4.4478   -2.5051   -2.6536 H   0  0  0  0  0  0  0  0  0  0  0  0
    4.7775   -3.3209   -1.0343 H   0  0  0  0  0  0  0  0  0  0  0  0
    5.8942   -1.6215   -0.8998 H   0  0  0  0  0  0  0  0  0  0  0  0
    5.8724    1.9642    1.3350 H   0  0  0  0  0  0  0  0  0  0  0  0
    3.4720    1.9911    1.3209 H   0  0  0  0  0  0  0  0  0  0  0  0
    1.4233   -0.7334   -0.4062 H   0  0  0  0  0  0  0  0  0  0  0  0
    0.4710    3.7826    2.4084 H   0  0  0  0  0  0  0  0  0  0  0  0
   -3.5567    1.7911    1.1091 H   0  0  0  0  0  0  0  0  0  0  0  0
   -1.6033   -0.9667   -0.5967 H   0  0  0  0  0  0  0  0  0  0  0  0
   -2.6562   -2.7807   -1.7476 H   0  0  0  0  0  0  0  0  0  0  0  0
   -5.1151   -2.9550   -1.8868 H   0  0  0  0  0  0  0  0  0  0  0  0
   -6.4571   -1.2917   -0.8581 H   0  0  0  0  0  0  0  0  0  0  0  0
   -8.0896    1.6129    0.9470 H   0  0  0  0  0  0  0  0  0  0  0  0
   -7.1481    0.8131   -1.7473 H   0  0  0  0  0  0  0  0  0  0  0  0
   -8.7899    0.1432   -1.2458 H   0  0  0  0  0  0  0  0  0  0  0  0
   -8.4237    1.8865   -1.1864 H   0  0  0  0  0  0  0  0  0  0  0  0
   -8.6955   -0.2893    1.9820 H   0  0  0  0  0  0  0  0  0  0  0  0
   -7.1998   -1.1063    1.4917 H   0  0  0  0  0  0  0  0  0  0  0  0
   -8.6788   -1.0752    0.3824 H   0  0  0  0  0  0  0  0  0  0  0  0
    7.8642    1.0616    0.7956 H   0  0  0  0  0  0  0  0  0  0  0  0
    9.1122    0.7582   -1.0623 H   0  0  0  0  0  0  0  0  0  0  0  0
    7.4455    0.8320   -1.8300 H   0  0  0  0  0  0  0  0  0  0  0  0
    8.3198   -0.7682   -1.5267 H   0  0  0  0  0  0  0  0  0  0  0  0
    8.1234   -1.9158    0.0760 H   0  0  0  0  0  0  0  0  0  0  0  0
    7.3273   -1.4399    1.6149 H   0  0  0  0  0  0  0  0  0  0  0  0
    9.0543   -0.8880    1.2625 H   0  0  0  0  0  0  0  0  0  0  0  0
  1  2  1  0
  2  3  1  0
  3  4  2  0
  4  5  1  0
  5  6  2  0
  6  7  1  0
  7  8  2  0
  8  9  1  0
  9 10  1  0
 10 11  2  0
 11 12  1  0
 12 13  2  0
 13 14  1  0
 13 15  1  0
 15 16  1  0
 16 17  1  0
 17 18  2  0
 18 19  1  0
 19 20  2  0
 20 21  1  0
 21 22  2  0
 22 23  1  0
 23 24  2  0
 23 25  2  0
 23 26  1  0
 26 27  1  0
 26 28  1  0
 15 29  2  0
  5 30  1  0
 30 31  1  0
 30 32  1  0
  8  3  1  0
 29 10  1  0
 22 17  1  0
  1 33  1  0
  1 34  1  0
  1 35  1  0
  4 36  1  0
  6 37  1  0
  7 38  1  0
  9 39  1  0
 12 40  1  0
 16 41  1  0
 18 42  1  0
 19 43  1  0
 20 44  1  0
 21 45  1  0
 26 46  1  0
 27 47  1  0
 27 48  1  0
 27 49  1  0
 28 50  1  0
 28 51  1  0
 28 52  1  0
 30 53  1  0
 31 54  1  0
 31 55  1  0
 31 56  1  0
 32 57  1  0
 32 58  1  0
 32 59  1  0
M  END
$$$$
[H]c1c([H])c([H])c(C2=NC([H])([H])c3nnc(C([H])([H])[H])n3-c3sc(C#CC([H])([H])N4C(=O)C([H])([H])C([H])([H])C4=O)c([H])c32)c(Cl)c1[H]
     RDKit          3D

 47 51  0  0  0  0  0  0  0  0999 V2000
   -0.8520   -4.2560    0.9838 C   0  0  0  0  0  0  0  0  0  0  0  0
   -2.0552   -3.9329    0.1646 C   0  0  0  0  0  0  0  0  0  0  0  0
   -3.0654   -4.7500   -0.2346 N   0  0  0  0  0  0  0  0  0  0  0  0
   -3.9269   -4.0208   -0.9802 N   0  0  0  0  0  0  0  0  0  0  0  0
   -3.4580   -2.7901   -1.0369 C   0  0  0  0  0  0  0  0  0  0  0  0
   -4.0349   -1.6403   -1.7528 C   0  0  0  0  0  0  0  0  0  0  0  0
   -4.0448   -0.4339   -0.9715 N   0  0  0  0  0  0  0  0  0  0  0  0
   -3.1568    0.2131   -0.2631 C   0  0  0  0  0  0  0  0  0  0  0  0
   -1.7675   -0.2833   -0.1543 C   0  0  0  0  0  0  0  0  0  0  0  0
   -0.7177    0.5760   -0.0751 C   0  0  0  0  0  0  0  0  0  0  0  0
    0.5414    0.0550    0.0259 C   0  0  0  0  0  0  0  0  0  0  0  0
    0.2639   -1.6370    0.0059 S   0  0  0  0  0  0  0  0  0  0  0  0
   -1.4281   -1.6217   -0.1332 C   0  0  0  0  0  0  0  0  0  0  0  0
   -2.2978   -2.7216   -0.3298 N   0  0  0  0  0  0  0  0  0  0  0  0
    1.8095    0.7379    0.1277 C   0  0  0  0  0  0  0  0  0  0  0  0
    2.8754    1.2871    0.2185 C   0  0  0  0  0  0  0  0  0  0  0  0
    4.1559    1.9727    0.3363 C   0  0  0  0  0  0  0  0  0  0  0  0
    5.1986    1.0501   -0.0606 N   0  0  0  0  0  0  0  0  0  0  0  0
    5.9004    0.1493    0.7990 C   0  0  0  0  0  0  0  0  0  0  0  0
    5.5418   -0.1772    1.9626 O   0  0  0  0  0  0  0  0  0  0  0  0
    7.1243   -0.3535    0.1216 C   0  0  0  0  0  0  0  0  0  0  0  0
    7.1133    0.3005   -1.2317 C   0  0  0  0  0  0  0  0  0  0  0  0
    5.7280    0.8582   -1.3749 C   0  0  0  0  0  0  0  0  0  0  0  0
    5.1036    1.1252   -2.4417 O   0  0  0  0  0  0  0  0  0  0  0  0
   -3.6108    1.4644    0.2726 C   0  0  0  0  0  0  0  0  0  0  0  0
   -4.7713    1.9836   -0.3397 C   0  0  0  0  0  0  0  0  0  0  0  0
   -5.4329    3.0806    0.1131 C   0  0  0  0  0  0  0  0  0  0  0  0
   -4.9921    3.7617    1.2247 C   0  0  0  0  0  0  0  0  0  0  0  0
   -3.8708    3.2724    1.8367 C   0  0  0  0  0  0  0  0  0  0  0  0
   -3.1878    2.1349    1.3719 C   0  0  0  0  0  0  0  0  0  0  0  0
   -1.9711    1.4784    2.4525 Cl  0  0  0  0  0  0  0  0  0  0  0  0
   -1.0823   -5.1743    1.5470 H   0  0  0  0  0  0  0  0  0  0  0  0
    0.0327   -4.4537    0.3624 H   0  0  0  0  0  0  0  0  0  0  0  0
   -0.6766   -3.4756    1.7658 H   0  0  0  0  0  0  0  0  0  0  0  0
   -3.4270   -1.4595   -2.6546 H   0  0  0  0  0  0  0  0  0  0  0  0
   -5.0695   -1.8398   -2.0749 H   0  0  0  0  0  0  0  0  0  0  0  0
   -0.8065    1.6899   -0.1374 H   0  0  0  0  0  0  0  0  0  0  0  0
    4.1792    2.8961   -0.2831 H   0  0  0  0  0  0  0  0  0  0  0  0
    4.3602    2.3063    1.3884 H   0  0  0  0  0  0  0  0  0  0  0  0
    7.1236   -1.4528    0.0684 H   0  0  0  0  0  0  0  0  0  0  0  0
    8.0537    0.0005    0.6525 H   0  0  0  0  0  0  0  0  0  0  0  0
    7.3366   -0.4307   -2.0177 H   0  0  0  0  0  0  0  0  0  0  0  0
    7.7964    1.1792   -1.2837 H   0  0  0  0  0  0  0  0  0  0  0  0
   -5.1383    1.4664   -1.2263 H   0  0  0  0  0  0  0  0  0  0  0  0
   -6.3409    3.4484   -0.4043 H   0  0  0  0  0  0  0  0  0  0  0  0
   -5.5475    4.6264    1.5422 H   0  0  0  0  0  0  0  0  0  0  0  0
   -3.5080    3.7904    2.7092 H   0  0  0  0  0  0  0  0  0  0  0  0
  1  2  1  0
  2  3  2  0
  3  4  1  0
  4  5  2  0
  5  6  1  0
  6  7  1  0
  7  8  2  0
  8  9  1  0
  9 10  1  0
 10 11  2  0
 11 12  1  0
 12 13  1  0
 13 14  1  0
 11 15  1  0
 15 16  3  0
 16 17  1  0
 17 18  1  0
 18 19  1  0
 19 20  2  0
 19 21  1  0
 21 22  1  0
 22 23  1  0
 23 24  2  0
  8 25  1  0
 25 26  2  0
 26 27  1  0
 27 28  2  0
 28 29  1  0
 29 30  2  0
 30 31  1  0
 14  2  1  0
 23 18  1  0
 30 25  1  0
 14  5  1  0
 13  9  2  0
  1 32  1  0
  1 33  1  0
  1 34  1  0
  6 35  1  0
  6 36  1  0
 10 37  1  0
 17 38  1  0
 17 39  1  0
 21 40  1  0
 21 41  1  0
 22 42  1  0
 22 43  1  0
 26 44  1  0
 27 45  1  0
 28 46  1  0
 29 47  1  0
M  END
$$$$
[H]c1c(OC([H])([H])[H])c([H])c2c(N([H])[H])nc(N([H])[H])nc2c1OC([H])([H])[H]
     RDKit          3D

 28 29  0  0  0  0  0  0  0  0999 V2000
   -3.9122    0.9380    0.5285 C   0  0  0  0  0  0  0  0  0  0  0  0
   -2.6836    1.6386    0.5623 O   0  0  0  0  0  0  0  0  0  0  0  0
   -1.4906    0.9540    0.3190 C   0  0  0  0  0  0  0  0  0  0  0  0
   -1.4791   -0.4077    0.0423 C   0  0  0  0  0  0  0  0  0  0  0  0
   -0.3089   -1.0930   -0.1991 C   0  0  0  0  0  0  0  0  0  0  0  0
   -0.3505   -2.4421   -0.4685 O   0  0  0  0  0  0  0  0  0  0  0  0
   -1.5910   -3.1047   -0.4937 C   0  0  0  0  0  0  0  0  0  0  0  0
    0.9143   -0.4240   -0.1711 C   0  0  0  0  0  0  0  0  0  0  0  0
    2.0804   -1.0675   -0.4037 N   0  0  0  0  0  0  0  0  0  0  0  0
    3.2460   -0.3944   -0.3698 C   0  0  0  0  0  0  0  0  0  0  0  0
    4.4695   -1.0750   -0.6150 N   0  0  0  0  0  0  0  0  0  0  0  0
    3.2526    0.9337   -0.1016 N   0  0  0  0  0  0  0  0  0  0  0  0
    2.1334    1.6229    0.1361 C   0  0  0  0  0  0  0  0  0  0  0  0
    2.0813    3.0059    0.4206 N   0  0  0  0  0  0  0  0  0  0  0  0
    0.9252    0.9275    0.1015 C   0  0  0  0  0  0  0  0  0  0  0  0
   -0.2678    1.5816    0.3386 C   0  0  0  0  0  0  0  0  0  0  0  0
   -3.7790    0.0598    1.2142 H   0  0  0  0  0  0  0  0  0  0  0  0
   -4.7398    1.5399    0.9231 H   0  0  0  0  0  0  0  0  0  0  0  0
   -4.1012    0.5566   -0.4949 H   0  0  0  0  0  0  0  0  0  0  0  0
   -2.4363   -0.9103    0.0246 H   0  0  0  0  0  0  0  0  0  0  0  0
   -2.2954   -2.6402   -1.2279 H   0  0  0  0  0  0  0  0  0  0  0  0
   -2.0063   -3.0740    0.5410 H   0  0  0  0  0  0  0  0  0  0  0  0
   -1.4752   -4.1626   -0.8092 H   0  0  0  0  0  0  0  0  0  0  0  0
    4.7321   -1.9785   -0.1642 H   0  0  0  0  0  0  0  0  0  0  0  0
    5.1667   -0.6653   -1.2847 H   0  0  0  0  0  0  0  0  0  0  0  0
    1.7204    3.7153   -0.2392 H   0  0  0  0  0  0  0  0  0  0  0  0
    2.4239    3.3286    1.3421 H   0  0  0  0  0  0  0  0  0  0  0  0
   -0.2289    2.6369    0.5488 H   0  0  0  0  0  0  0  0  0  0  0  0
  1  2  1  0
  2  3  1  0
  3  4  2  0
  4  5  1  0
  5  6  1  0
  6  7  1  0
  5  8  2  0
  8  9  1  0
  9 10  2  0
 10 11  1  0
 10 12  1  0
 12 13  2  0
 13 14  1  0
 13 15  1  0
 15 16  2  0
 16  3  1  0
 15  8  1  0
  1 17  1  0
  1 18  1  0
  1 19  1  0
  4 20  1  0
  7 21  1  0
  7 22  1  0
  7 23  1  0
 11 24  1  0
 11 25  1  0
 14 26  1  0
 14 27  1  0
 16 28  1  0
M  END
$$$$
[H]OC1(c2c([H])c([H])c([H])c([H])c2[H])C([H])([H])C([H])([H])N(C([H])([H])C([H])([H])C([H])(/C(=N/OC([H])([H])[H])C([H])([H])OC([H])([H])c2c([H])c(C(F)(F)F)c([H])c(C(F)(F)F)c2[H])c2c([H])c([H])c(Cl)c(Cl)c2[H])C([H])([H])C1([H])[H]
     RDKit          3D

 77 80  0  0  0  0  0  0  0  0999 V2000
   -3.6416    4.1703   -0.8253 C   0  0  0  0  0  0  0  0  0  0  0  0
   -3.4723    2.8675   -1.4513 O   0  0  0  0  0  0  0  0  0  0  0  0
   -2.1571    2.3984   -1.2262 N   0  0  0  0  0  0  0  0  0  0  0  0
   -1.8559    1.7274   -0.1597 C   0  0  0  0  0  0  0  0  0  0  0  0
   -2.8400    1.3954    0.8351 C   0  0  0  0  0  0  0  0  0  0  0  0
   -4.0746    0.9335    0.4205 O   0  0  0  0  0  0  0  0  0  0  0  0
   -3.8825   -0.1714   -0.3878 C   0  0  0  0  0  0  0  0  0  0  0  0
   -5.0730   -1.0560   -0.2539 C   0  0  0  0  0  0  0  0  0  0  0  0
   -6.1652   -0.9857   -1.0186 C   0  0  0  0  0  0  0  0  0  0  0  0
   -7.2088   -1.9179   -0.8143 C   0  0  0  0  0  0  0  0  0  0  0  0
   -7.0549   -2.8684    0.1754 C   0  0  0  0  0  0  0  0  0  0  0  0
   -5.9437   -2.9540    0.9720 C   0  0  0  0  0  0  0  0  0  0  0  0
   -4.9584   -2.0361    0.7475 C   0  0  0  0  0  0  0  0  0  0  0  0
   -5.7093   -3.9833    1.9851 C   0  0  0  0  0  0  0  0  0  0  0  0
   -6.8550   -4.3994    2.6276 F   0  0  0  0  0  0  0  0  0  0  0  0
   -4.7950   -3.4935    2.9289 F   0  0  0  0  0  0  0  0  0  0  0  0
   -5.1453   -5.0696    1.3074 F   0  0  0  0  0  0  0  0  0  0  0  0
   -8.4216   -1.9567   -1.6336 C   0  0  0  0  0  0  0  0  0  0  0  0
   -8.2333   -1.2308   -2.8086 F   0  0  0  0  0  0  0  0  0  0  0  0
   -9.5531   -1.5263   -0.9813 F   0  0  0  0  0  0  0  0  0  0  0  0
   -8.6615   -3.2818   -1.9812 F   0  0  0  0  0  0  0  0  0  0  0  0
   -0.3912    1.6396    0.1418 C   0  0  0  0  0  0  0  0  0  0  0  0
    0.4651    0.9019   -0.7870 C   0  0  0  0  0  0  0  0  0  0  0  0
    1.9167    1.0980   -0.3124 C   0  0  0  0  0  0  0  0  0  0  0  0
    2.5457   -0.1651   -0.1997 N   0  0  0  0  0  0  0  0  0  0  0  0
    2.7301   -0.9330   -1.3774 C   0  0  0  0  0  0  0  0  0  0  0  0
    4.1273   -1.4305   -1.5932 C   0  0  0  0  0  0  0  0  0  0  0  0
    4.6622   -2.1468   -0.4160 C   0  0  0  0  0  0  0  0  0  0  0  0
    4.1030   -3.4122   -0.3309 O   0  0  0  0  0  0  0  0  0  0  0  0
    4.2500   -1.4105    0.8877 C   0  0  0  0  0  0  0  0  0  0  0  0
    3.7894   -0.0481    0.5693 C   0  0  0  0  0  0  0  0  0  0  0  0
    6.1191   -2.2493   -0.2770 C   0  0  0  0  0  0  0  0  0  0  0  0
    6.5873   -3.2065    0.6139 C   0  0  0  0  0  0  0  0  0  0  0  0
    7.9170   -3.2586    0.9743 C   0  0  0  0  0  0  0  0  0  0  0  0
    8.7887   -2.3511    0.4380 C   0  0  0  0  0  0  0  0  0  0  0  0
    8.3688   -1.3957   -0.4521 C   0  0  0  0  0  0  0  0  0  0  0  0
    7.0271   -1.3693   -0.7929 C   0  0  0  0  0  0  0  0  0  0  0  0
    0.0891    2.9906    0.5461 C   0  0  0  0  0  0  0  0  0  0  0  0
    0.3814    3.8723   -0.5096 C   0  0  0  0  0  0  0  0  0  0  0  0
    0.7445    5.1507   -0.2464 C   0  0  0  0  0  0  0  0  0  0  0  0
    0.8340    5.5774    1.0883 C   0  0  0  0  0  0  0  0  0  0  0  0
    1.2870    7.2188    1.4841 Cl  0  0  0  0  0  0  0  0  0  0  0  0
    0.5524    4.6942    2.1232 C   0  0  0  0  0  0  0  0  0  0  0  0
    0.6157    5.2113    3.7705 Cl  0  0  0  0  0  0  0  0  0  0  0  0
    0.1811    3.4175    1.8164 C   0  0  0  0  0  0  0  0  0  0  0  0
   -3.1215    4.1720    0.1808 H   0  0  0  0  0  0  0  0  0  0  0  0
   -3.0901    4.9322   -1.4065 H   0  0  0  0  0  0  0  0  0  0  0  0
   -4.6872    4.3280   -0.6639 H   0  0  0  0  0  0  0  0  0  0  0  0
   -3.0417    2.2234    1.5643 H   0  0  0  0  0  0  0  0  0  0  0  0
   -2.4253    0.5764    1.5292 H   0  0  0  0  0  0  0  0  0  0  0  0
   -2.9345   -0.6901   -0.2222 H   0  0  0  0  0  0  0  0  0  0  0  0
   -3.9031    0.1541   -1.4705 H   0  0  0  0  0  0  0  0  0  0  0  0
   -6.2832   -0.2640   -1.8138 H   0  0  0  0  0  0  0  0  0  0  0  0
   -7.8347   -3.5897    0.3474 H   0  0  0  0  0  0  0  0  0  0  0  0
   -4.0473   -2.0443    1.3366 H   0  0  0  0  0  0  0  0  0  0  0  0
   -0.3234    1.0393    1.1386 H   0  0  0  0  0  0  0  0  0  0  0  0
    0.3329    1.2202   -1.8195 H   0  0  0  0  0  0  0  0  0  0  0  0
    0.2054   -0.1886   -0.7797 H   0  0  0  0  0  0  0  0  0  0  0  0
    2.3921    1.7488   -1.1070 H   0  0  0  0  0  0  0  0  0  0  0  0
    1.9830    1.6560    0.6296 H   0  0  0  0  0  0  0  0  0  0  0  0
    2.3703   -0.3921   -2.2735 H   0  0  0  0  0  0  0  0  0  0  0  0
    2.0800   -1.8568   -1.3033 H   0  0  0  0  0  0  0  0  0  0  0  0
    4.7142   -0.5820   -1.9780 H   0  0  0  0  0  0  0  0  0  0  0  0
    4.0580   -2.1580   -2.4595 H   0  0  0  0  0  0  0  0  0  0  0  0
    3.7992   -3.6073    0.6180 H   0  0  0  0  0  0  0  0  0  0  0  0
    5.1811   -1.3017    1.5325 H   0  0  0  0  0  0  0  0  0  0  0  0
    3.5302   -1.9765    1.4730 H   0  0  0  0  0  0  0  0  0  0  0  0
    4.5259    0.6000    0.0496 H   0  0  0  0  0  0  0  0  0  0  0  0
    3.5171    0.4553    1.5125 H   0  0  0  0  0  0  0  0  0  0  0  0
    5.9154   -3.9630    1.0520 H   0  0  0  0  0  0  0  0  0  0  0  0
    8.2928   -3.9629    1.6754 H   0  0  0  0  0  0  0  0  0  0  0  0
    9.8676   -2.3492    0.7263 H   0  0  0  0  0  0  0  0  0  0  0  0
    9.0213   -0.6525   -0.8739 H   0  0  0  0  0  0  0  0  0  0  0  0
    6.6742   -0.6434   -1.5080 H   0  0  0  0  0  0  0  0  0  0  0  0
    0.3156    3.5499   -1.5403 H   0  0  0  0  0  0  0  0  0  0  0  0
    0.9732    5.8818   -1.0231 H   0  0  0  0  0  0  0  0  0  0  0  0
   -0.0468    2.7277    2.6199 H   0  0  0  0  0  0  0  0  0  0  0  0
  1  2  1  0
  2  3  1  0
  3  4  2  0
  4  5  1  0
  5  6  1  0
  6  7  1  0
  7  8  1  0
  8  9  2  0
  9 10  1  0
 10 11  2  0
 11 12  1  0
 12 13  2  0
 12 14  1  0
 14 15  1  0
 14 16  1  0
 14 17  1  0
 10 18  1  0
 18 19  1  0
 18 20  1  0
 18 21  1  0
  4 22  1  0
 22 23  1  0
 23 24  1  0
 24 25  1  0
 25 26  1  0
 26 27  1  0
 27 28  1  0
 28 29  1  0
 28 30  1  0
 30 31  1  0
 28 32  1  0
 32 33  2  0
 33 34  1  0
 34 35  2  0
 35 36  1  0
 36 37  2  0
 22 38  1  0
 38 39  2  0
 39 40  1  0
 40 41  2  0
 41 42  1  0
 41 43  1  0
 43 44  1  0
 43 45  2  0
 13  8  1  0
 31 25  1  0
 37 32  1  0
 45 38  1  0
  1 46  1  0
  1 47  1  0
  1 48  1  0
  5 49  1  0
  5 50  1  0
  7 51  1  0
  7 52  1  0
  9 53  1  0
 11 54  1  0
 13 55  1  0
 22 56  1  0
 23 57  1  0
 23 58  1  0
 24 59  1  0
 24 60  1  0
 26 61  1  0
 26 62  1  0
 27 63  1  0
 27 64  1  0
 29 65  1  0
 30 66  1  0
 30 67  1  0
 31 68  1  0
 31 69  1  0
 33 70  1  0
 34 71  1  0
 35 72  1  0
 36 73  1  0
 37 74  1  0
 39 75  1  0
 40 76  1  0
 45 77  1  0
M  END
$$$$
[H]c1nc(N([H])c2c([H])c([H])c(N3C([H])([H])C([H])([H])N(C(=O)C([H])([H])[H])C([H])([H])C3([H])[H])c([H])c2OC([H])([H])[H])nc(N([H])c2c([H])c([H])c([H])c([H])c2C(=O)N([H])C([H])([H])[H])c1Cl
     RDKit          3D

 64 67  0  0  0  0  0  0  0  0999 V2000
    1.5303   -1.5834    3.2566 C   0  0  0  0  0  0  0  0  0  0  0  0
    0.8146   -1.0700    2.1749 O   0  0  0  0  0  0  0  0  0  0  0  0
    1.4869   -0.3516    1.1736 C   0  0  0  0  0  0  0  0  0  0  0  0
    2.8395   -0.1757    1.2921 C   0  0  0  0  0  0  0  0  0  0  0  0
    3.5764    0.5157    0.3554 C   0  0  0  0  0  0  0  0  0  0  0  0
    2.8726    1.0200   -0.7076 C   0  0  0  0  0  0  0  0  0  0  0  0
    1.4947    0.8594   -0.8591 C   0  0  0  0  0  0  0  0  0  0  0  0
    0.7745    0.1692    0.0805 C   0  0  0  0  0  0  0  0  0  0  0  0
   -0.5996   -0.0581    0.0423 N   0  0  0  0  0  0  0  0  0  0  0  0
   -1.5532    0.3438   -0.9250 C   0  0  0  0  0  0  0  0  0  0  0  0
   -1.2874    1.0487   -2.0292 N   0  0  0  0  0  0  0  0  0  0  0  0
   -2.2193    1.4099   -2.9204 C   0  0  0  0  0  0  0  0  0  0  0  0
   -3.5140    1.0499   -2.7094 C   0  0  0  0  0  0  0  0  0  0  0  0
   -4.7511    1.5055   -3.8534 Cl  0  0  0  0  0  0  0  0  0  0  0  0
   -3.8676    0.3038   -1.5628 C   0  0  0  0  0  0  0  0  0  0  0  0
   -5.2287   -0.0263   -1.3461 N   0  0  0  0  0  0  0  0  0  0  0  0
   -5.7479   -0.7895   -0.2913 C   0  0  0  0  0  0  0  0  0  0  0  0
   -4.9611   -1.7181    0.3628 C   0  0  0  0  0  0  0  0  0  0  0  0
   -5.5057   -2.5419    1.3252 C   0  0  0  0  0  0  0  0  0  0  0  0
   -6.8284   -2.4677    1.6589 C   0  0  0  0  0  0  0  0  0  0  0  0
   -7.5987   -1.5371    0.9984 C   0  0  0  0  0  0  0  0  0  0  0  0
   -7.1108   -0.6722    0.0163 C   0  0  0  0  0  0  0  0  0  0  0  0
   -7.9894    0.3275   -0.5621 C   0  0  0  0  0  0  0  0  0  0  0  0
   -7.6534    1.2370   -1.3608 O   0  0  0  0  0  0  0  0  0  0  0  0
   -9.3874    0.3412   -0.2387 N   0  0  0  0  0  0  0  0  0  0  0  0
  -10.2958    1.3311   -0.8007 C   0  0  0  0  0  0  0  0  0  0  0  0
   -2.8583    0.0144   -0.7687 N   0  0  0  0  0  0  0  0  0  0  0  0
    4.9796    0.6885    0.4645 N   0  0  0  0  0  0  0  0  0  0  0  0
    5.6805    1.7250   -0.2969 C   0  0  0  0  0  0  0  0  0  0  0  0
    6.5439    0.9712   -1.2912 C   0  0  0  0  0  0  0  0  0  0  0  0
    7.4449    0.1499   -0.4700 N   0  0  0  0  0  0  0  0  0  0  0  0
    6.8966   -0.8263    0.4223 C   0  0  0  0  0  0  0  0  0  0  0  0
    5.8457   -0.1294    1.3003 C   0  0  0  0  0  0  0  0  0  0  0  0
    8.8506    0.3491   -0.5852 C   0  0  0  0  0  0  0  0  0  0  0  0
    9.7536   -0.4874    0.2505 C   0  0  0  0  0  0  0  0  0  0  0  0
    9.3065    1.2191   -1.3823 O   0  0  0  0  0  0  0  0  0  0  0  0
    2.2126   -2.3740    2.8711 H   0  0  0  0  0  0  0  0  0  0  0  0
    0.8418   -1.9782    4.0291 H   0  0  0  0  0  0  0  0  0  0  0  0
    2.0794   -0.7404    3.7281 H   0  0  0  0  0  0  0  0  0  0  0  0
    3.3894   -0.5855    2.1575 H   0  0  0  0  0  0  0  0  0  0  0  0
    3.4000    1.5745   -1.4903 H   0  0  0  0  0  0  0  0  0  0  0  0
    1.0297    1.2916   -1.7274 H   0  0  0  0  0  0  0  0  0  0  0  0
   -1.0125   -0.6183    0.8578 H   0  0  0  0  0  0  0  0  0  0  0  0
   -1.9446    1.9950   -3.8204 H   0  0  0  0  0  0  0  0  0  0  0  0
   -5.8872    0.3242   -2.1078 H   0  0  0  0  0  0  0  0  0  0  0  0
   -3.9249   -1.8067    0.0965 H   0  0  0  0  0  0  0  0  0  0  0  0
   -4.8406   -3.2498    1.8050 H   0  0  0  0  0  0  0  0  0  0  0  0
   -7.2363   -3.1240    2.4163 H   0  0  0  0  0  0  0  0  0  0  0  0
   -8.6429   -1.5067    1.2910 H   0  0  0  0  0  0  0  0  0  0  0  0
   -9.7915   -0.3447    0.3935 H   0  0  0  0  0  0  0  0  0  0  0  0
  -11.2737    0.8850   -1.0541 H   0  0  0  0  0  0  0  0  0  0  0  0
   -9.8248    1.8420   -1.6866 H   0  0  0  0  0  0  0  0  0  0  0  0
  -10.5073    2.1532   -0.0670 H   0  0  0  0  0  0  0  0  0  0  0  0
    6.3872    2.1985    0.4389 H   0  0  0  0  0  0  0  0  0  0  0  0
    5.0041    2.4458   -0.7319 H   0  0  0  0  0  0  0  0  0  0  0  0
    7.1175    1.6348   -1.9518 H   0  0  0  0  0  0  0  0  0  0  0  0
    5.9024    0.2561   -1.8524 H   0  0  0  0  0  0  0  0  0  0  0  0
    6.4342   -1.6885   -0.1258 H   0  0  0  0  0  0  0  0  0  0  0  0
    7.6950   -1.1634    1.1118 H   0  0  0  0  0  0  0  0  0  0  0  0
    6.4308    0.5881    1.9338 H   0  0  0  0  0  0  0  0  0  0  0  0
    5.3370   -0.8548    1.9242 H   0  0  0  0  0  0  0  0  0  0  0  0
    9.5730   -0.2935    1.3246 H   0  0  0  0  0  0  0  0  0  0  0  0
    9.5299   -1.5649    0.0802 H   0  0  0  0  0  0  0  0  0  0  0  0
   10.7889   -0.2767   -0.0577 H   0  0  0  0  0  0  0  0  0  0  0  0
  1  2  1  0
  2  3  1  0
  3  4  2  0
  4  5  1  0
  5  6  2  0
  6  7  1  0
  7  8  2  0
  8  9  1  0
  9 10  1  0
 10 11  2  0
 11 12  1  0
 12 13  2  0
 13 14  1  0
 13 15  1  0
 15 16  1  0
 16 17  1  0
 17 18  2  0
 18 19  1  0
 19 20  2  0
 20 21  1  0
 21 22  2  0
 22 23  1  0
 23 24  2  0
 23 25  1  0
 25 26  1  0
 15 27  2  0
  5 28  1  0
 28 29  1  0
 29 30  1  0
 30 31  1  0
 31 32  1  0
 32 33  1  0
 31 34  1  0
 34 35  1  0
 34 36  2  0
  8  3  1  0
 27 10  1  0
 33 28  1  0
 22 17  1  0
  1 37  1  0
  1 38  1  0
  1 39  1  0
  4 40  1  0
  6 41  1  0
  7 42  1  0
  9 43  1  0
 12 44  1  0
 16 45  1  0
 18 46  1  0
 19 47  1  0
 20 48  1  0
 21 49  1  0
 25 50  1  0
 26 51  1  0
 26 52  1  0
 26 53  1  0
 29 54  1  0
 29 55  1  0
 30 56  1  0
 30 57  1  0
 32 58  1  0
 32 59  1  0
 33 60  1  0
 33 61  1  0
 35 62  1  0
 35 63  1  0
 35 64  1  0
M  END
$$$$
[H]OC(=O)C([H])([H])C([H])([H])[C@@]([H])(C(=O)N([H])[C@]([H])(C(=O)N([H])[C@]([H])(C(=O)N([H])[C@]([H])(C(=O)N([H])[C@]([H])(C(=O)N([H])[H])C([H])([H])c1c([H])c([H])c([H])c([H])c1[H])C([H])([H])c1c([H])nc([H])n1[H])C([H])([H])C([H])(C([H])([H])[H])C([H])([H])[H])C([H])([H])C([H])([H])C(=O)N([H])[H])N([H])[H]
     RDKit          3D

 93 94  0  0  0  0  0  0  0  0999 V2000
    0.1785    3.9933    2.5768 C   0  0  0  0  0  0  0  0  0  0  0  0
    0.8904    2.7219    2.1563 C   0  0  0  0  0  0  0  0  0  0  0  0
    1.4846    2.0356    3.3963 C   0  0  0  0  0  0  0  0  0  0  0  0
   -0.0264    1.7835    1.4403 C   0  0  0  0  0  0  0  0  0  0  0  0
    0.6695    0.5132    0.9983 C   0  0  2  0  0  0  0  0  0  0  0  0
    1.7570    0.8099    0.0923 N   0  0  0  0  0  0  0  0  0  0  0  0
    3.0861    0.4086    0.2971 C   0  0  0  0  0  0  0  0  0  0  0  0
    3.3609   -0.2567    1.3304 O   0  0  0  0  0  0  0  0  0  0  0  0
    4.2048    0.7092   -0.6127 C   0  0  2  0  0  0  0  0  0  0  0  0
    3.9138    0.0811   -1.9527 C   0  0  0  0  0  0  0  0  0  0  0  0
    3.7764   -1.4095   -1.7723 C   0  0  0  0  0  0  0  0  0  0  0  0
    3.4834   -2.0757   -3.0811 C   0  0  0  0  0  0  0  0  0  0  0  0
    3.3685   -3.4866   -3.1264 N   0  0  0  0  0  0  0  0  0  0  0  0
    3.3507   -1.3612   -4.0848 O   0  0  0  0  0  0  0  0  0  0  0  0
    5.4642    0.2107   -0.1335 N   0  0  0  0  0  0  0  0  0  0  0  0
    6.6008    1.0328    0.0739 C   0  0  0  0  0  0  0  0  0  0  0  0
    6.4984    2.2484   -0.1769 O   0  0  0  0  0  0  0  0  0  0  0  0
    7.8628    0.4734    0.5695 C   0  0  1  0  0  0  0  0  0  0  0  0
    7.7009   -0.9329    0.9572 N   0  0  0  0  0  0  0  0  0  0  0  0
    9.0387    0.5849   -0.3499 C   0  0  0  0  0  0  0  0  0  0  0  0
    9.3858    1.9883   -0.6858 C   0  0  0  0  0  0  0  0  0  0  0  0
   10.5755    1.9959   -1.5694 C   0  0  0  0  0  0  0  0  0  0  0  0
   11.0786    3.1973   -2.0086 O   0  0  0  0  0  0  0  0  0  0  0  0
   11.1090    0.9276   -1.9070 O   0  0  0  0  0  0  0  0  0  0  0  0
   -0.3338   -0.3954    0.3714 C   0  0  0  0  0  0  0  0  0  0  0  0
   -0.1240   -0.7475   -0.8202 O   0  0  0  0  0  0  0  0  0  0  0  0
   -1.4686   -0.8609    1.0348 N   0  0  0  0  0  0  0  0  0  0  0  0
   -2.4809   -1.7561    0.4466 C   0  0  1  0  0  0  0  0  0  0  0  0
   -2.4251   -3.0753    1.1152 C   0  0  0  0  0  0  0  0  0  0  0  0
   -3.3341   -4.1303    0.6909 C   0  0  0  0  0  0  0  0  0  0  0  0
   -3.1720   -5.0554   -0.3528 C   0  0  0  0  0  0  0  0  0  0  0  0
   -4.2258   -5.8831   -0.3681 N   0  0  0  0  0  0  0  0  0  0  0  0
   -5.0491   -5.5274    0.6157 C   0  0  0  0  0  0  0  0  0  0  0  0
   -4.5087   -4.4838    1.2391 N   0  0  0  0  0  0  0  0  0  0  0  0
   -3.7444   -1.0183    0.4870 C   0  0  0  0  0  0  0  0  0  0  0  0
   -3.7255    0.1067    1.1193 O   0  0  0  0  0  0  0  0  0  0  0  0
   -4.9792   -1.3575   -0.0731 N   0  0  0  0  0  0  0  0  0  0  0  0
   -6.1172   -0.4335    0.0889 C   0  0  1  0  0  0  0  0  0  0  0  0
   -6.3079    0.1710   -1.2912 C   0  0  0  0  0  0  0  0  0  0  0  0
   -7.3917    1.1413   -1.3891 C   0  0  0  0  0  0  0  0  0  0  0  0
   -8.6573    0.8070   -1.8068 C   0  0  0  0  0  0  0  0  0  0  0  0
   -9.6780    1.6975   -1.8996 C   0  0  0  0  0  0  0  0  0  0  0  0
   -9.4271    3.0137   -1.5540 C   0  0  0  0  0  0  0  0  0  0  0  0
   -8.1497    3.3662   -1.1293 C   0  0  0  0  0  0  0  0  0  0  0  0
   -7.1235    2.4607   -1.0381 C   0  0  0  0  0  0  0  0  0  0  0  0
   -7.2675   -1.1718    0.5869 C   0  0  0  0  0  0  0  0  0  0  0  0
   -8.4775   -0.5575    0.9726 N   0  0  0  0  0  0  0  0  0  0  0  0
   -7.2276   -2.4303    0.7020 O   0  0  0  0  0  0  0  0  0  0  0  0
    0.6335    4.3210    3.5317 H   0  0  0  0  0  0  0  0  0  0  0  0
    0.3463    4.8009    1.8335 H   0  0  0  0  0  0  0  0  0  0  0  0
   -0.9167    3.8320    2.6452 H   0  0  0  0  0  0  0  0  0  0  0  0
    1.7289    3.0000    1.4979 H   0  0  0  0  0  0  0  0  0  0  0  0
    1.4666    2.7198    4.2767 H   0  0  0  0  0  0  0  0  0  0  0  0
    2.5440    1.7545    3.2476 H   0  0  0  0  0  0  0  0  0  0  0  0
    0.9265    1.0816    3.5983 H   0  0  0  0  0  0  0  0  0  0  0  0
   -0.7962    1.4705    2.2078 H   0  0  0  0  0  0  0  0  0  0  0  0
   -0.4934    2.2050    0.5490 H   0  0  0  0  0  0  0  0  0  0  0  0
    1.0979    0.0001    1.8808 H   0  0  0  0  0  0  0  0  0  0  0  0
    1.5346    1.3576   -0.7671 H   0  0  0  0  0  0  0  0  0  0  0  0
    4.3249    1.8183   -0.7623 H   0  0  0  0  0  0  0  0  0  0  0  0
    2.9807    0.5318   -2.3526 H   0  0  0  0  0  0  0  0  0  0  0  0
    4.7626    0.2775   -2.6390 H   0  0  0  0  0  0  0  0  0  0  0  0
    4.6952   -1.8820   -1.4002 H   0  0  0  0  0  0  0  0  0  0  0  0
    2.9761   -1.5836   -1.0398 H   0  0  0  0  0  0  0  0  0  0  0  0
    2.4881   -3.9856   -2.9082 H   0  0  0  0  0  0  0  0  0  0  0  0
    4.2018   -4.0429   -3.3890 H   0  0  0  0  0  0  0  0  0  0  0  0
    5.5537   -0.8030    0.0756 H   0  0  0  0  0  0  0  0  0  0  0  0
    8.1818    0.9792    1.5293 H   0  0  0  0  0  0  0  0  0  0  0  0
    7.9331   -1.5463    0.1241 H   0  0  0  0  0  0  0  0  0  0  0  0
    8.3210   -1.1858    1.7554 H   0  0  0  0  0  0  0  0  0  0  0  0
    8.8055    0.0260   -1.2843 H   0  0  0  0  0  0  0  0  0  0  0  0
    9.9457    0.1147    0.1322 H   0  0  0  0  0  0  0  0  0  0  0  0
    9.6347    2.5578    0.2371 H   0  0  0  0  0  0  0  0  0  0  0  0
    8.5853    2.4990   -1.2668 H   0  0  0  0  0  0  0  0  0  0  0  0
   10.7420    4.0916   -1.6209 H   0  0  0  0  0  0  0  0  0  0  0  0
   -1.6477   -0.5778    2.0162 H   0  0  0  0  0  0  0  0  0  0  0  0
   -2.2175   -1.9295   -0.6383 H   0  0  0  0  0  0  0  0  0  0  0  0
   -1.3678   -3.4851    1.1463 H   0  0  0  0  0  0  0  0  0  0  0  0
   -2.6735   -2.8797    2.2111 H   0  0  0  0  0  0  0  0  0  0  0  0
   -2.3195   -5.0665   -1.0165 H   0  0  0  0  0  0  0  0  0  0  0  0
   -6.0010   -6.0362    0.8408 H   0  0  0  0  0  0  0  0  0  0  0  0
   -4.9968   -4.0308    2.0631 H   0  0  0  0  0  0  0  0  0  0  0  0
   -5.1383   -2.2150   -0.6018 H   0  0  0  0  0  0  0  0  0  0  0  0
   -5.8186    0.3835    0.7921 H   0  0  0  0  0  0  0  0  0  0  0  0
   -5.3008    0.5921   -1.5760 H   0  0  0  0  0  0  0  0  0  0  0  0
   -6.4628   -0.7033   -1.9870 H   0  0  0  0  0  0  0  0  0  0  0  0
   -8.8323   -0.2300   -2.0733 H   0  0  0  0  0  0  0  0  0  0  0  0
  -10.6818    1.4539   -2.2258 H   0  0  0  0  0  0  0  0  0  0  0  0
  -10.1842    3.7665   -1.6030 H   0  0  0  0  0  0  0  0  0  0  0  0
   -7.9636    4.4081   -0.8597 H   0  0  0  0  0  0  0  0  0  0  0  0
   -6.1345    2.7184   -0.7122 H   0  0  0  0  0  0  0  0  0  0  0  0
   -8.4766    0.3429    1.5070 H   0  0  0  0  0  0  0  0  0  0  0  0
   -9.4034   -0.9945    0.7298 H   0  0  0  0  0  0  0  0  0  0  0  0
  1  2  1  0
  2  3  1  0
  2  4  1  0
  4  5  1  0
  5  6  1  0
  6  7  1  0
  7  8  2  0
  7  9  1  0
  9 10  1  0
 10 11  1  0
 11 12  1  0
 12 13  1  0
 12 14  2  0
  9 15  1  0
 15 16  1  0
 16 17  2  0
 16 18  1  0
 18 19  1  0
 18 20  1  0
 20 21  1  0
 21 22  1  0
 22 23  1  0
 22 24  2  0
  5 25  1  0
 25 26  2  0
 25 27  1  0
 27 28  1  0
 28 29  1  0
 29 30  1  0
 30 31  2  0
 31 32  1  0
 32 33  2  0
 33 34  1  0
 28 35  1  0
 35 36  2  0
 35 37  1  0
 37 38  1  0
 38 39  1  0
 39 40  1  0
 40 41  2  0
 41 42  1  0
 42 43  2  0
 43 44  1  0
 44 45  2  0
 38 46  1  0
 46 47  1  0
 46 48  2  0
 34 30  1  0
 45 40  1  0
  1 49  1  0
  1 50  1  0
  1 51  1  0
  2 52  1  0
  3 53  1  0
  3 54  1  0
  3 55  1  0
  4 56  1  0
  4 57  1  0
  5 58  1  1
  6 59  1  0
  9 60  1  6
 10 61  1  0
 10 62  1  0
 11 63  1  0
 11 64  1  0
 13 65  1  0
 13 66  1  0
 15 67  1  0
 18 68  1  1
 19 69  1  0
 19 70  1  0
 20 71  1  0
 20 72  1  0
 21 73  1  0
 21 74  1  0
 23 75  1  0
 27 76  1  0
 28 77  1  6
 29 78  1  0
 29 79  1  0
 31 80  1  0
 33 81  1  0
 34 82  1  0
 37 83  1  0
 38 84  1  1
 39 85  1  0
 39 86  1  0
 41 87  1  0
 42 88  1  0
 43 89  1  0
 44 90  1  0
 45 91  1  0
 47 92  1  0
 47 93  1  0
M  END
$$$$
[H]c1nc2c([H])c(OC([H])([H])C([H])([H])C([H])([H])N3C([H])([H])C([H])([H])OC([H])([H])C3([H])[H])c(OC([H])([H])[H])c([H])c2c(Oc2c([H])c([H])c(N([H])C(=O)N([H])N3C(=O)C([H])([H])SC3([H])c3c(F)c([H])c([H])c([H])c3F)c([H])c2F)c1[H]
     RDKit          3D

 80 85  0  0  0  0  0  0  0  0999 V2000
   -2.2533    2.9872   -0.1922 C   0  0  0  0  0  0  0  0  0  0  0  0
   -3.5291    2.4127   -0.5371 O   0  0  0  0  0  0  0  0  0  0  0  0
   -3.5120    1.0462   -0.7091 C   0  0  0  0  0  0  0  0  0  0  0  0
   -2.4033    0.2994   -0.5829 C   0  0  0  0  0  0  0  0  0  0  0  0
   -2.4410   -1.0914   -0.7516 C   0  0  0  0  0  0  0  0  0  0  0  0
   -1.2336   -1.7341   -0.5520 C   0  0  0  0  0  0  0  0  0  0  0  0
   -0.0996   -1.1696   -0.3308 O   0  0  0  0  0  0  0  0  0  0  0  0
    1.0850   -0.8321   -0.0348 C   0  0  0  0  0  0  0  0  0  0  0  0
    1.8398   -1.5577    0.9256 C   0  0  0  0  0  0  0  0  0  0  0  0
    3.1135   -1.2558    1.2066 C   0  0  0  0  0  0  0  0  0  0  0  0
    3.7909   -0.1858    0.5643 C   0  0  0  0  0  0  0  0  0  0  0  0
    5.1573   -0.1208    0.6183 N   0  0  0  0  0  0  0  0  0  0  0  0
    6.2209    0.7782    0.5280 C   0  0  0  0  0  0  0  0  0  0  0  0
    6.0220    2.0081    0.3764 O   0  0  0  0  0  0  0  0  0  0  0  0
    7.4116    0.1701    0.6226 N   0  0  0  0  0  0  0  0  0  0  0  0
    8.6501   -0.4539    0.7196 N   0  0  0  0  0  0  0  0  0  0  0  0
    9.8657   -0.1260    1.2782 C   0  0  0  0  0  0  0  0  0  0  0  0
   10.4396   -1.7976    1.9355 S   0  0  0  0  0  0  0  0  0  0  0  0
    9.1782   -2.7912    1.0579 C   0  0  0  0  0  0  0  0  0  0  0  0
    8.5892   -1.8262    0.1603 C   0  0  0  0  0  0  0  0  0  0  0  0
    8.0740   -2.0259   -0.9532 O   0  0  0  0  0  0  0  0  0  0  0  0
   10.9702    0.5346    0.6418 C   0  0  0  0  0  0  0  0  0  0  0  0
   11.4870    0.2374   -0.5608 C   0  0  0  0  0  0  0  0  0  0  0  0
   11.0058   -0.7901   -1.2839 F   0  0  0  0  0  0  0  0  0  0  0  0
   12.5774    0.9013   -1.1360 C   0  0  0  0  0  0  0  0  0  0  0  0
   13.1957    1.9334   -0.4594 C   0  0  0  0  0  0  0  0  0  0  0  0
   12.6782    2.2671    0.7954 C   0  0  0  0  0  0  0  0  0  0  0  0
   11.5942    1.5815    1.3210 C   0  0  0  0  0  0  0  0  0  0  0  0
   11.1750    1.9581    2.5421 F   0  0  0  0  0  0  0  0  0  0  0  0
    3.0588    0.5331   -0.3578 C   0  0  0  0  0  0  0  0  0  0  0  0
    1.7780    0.2379   -0.6541 C   0  0  0  0  0  0  0  0  0  0  0  0
    1.0897    0.9442   -1.5973 F   0  0  0  0  0  0  0  0  0  0  0  0
   -1.3491   -3.1468   -0.6417 C   0  0  0  0  0  0  0  0  0  0  0  0
   -2.5592   -3.7479   -0.9170 C   0  0  0  0  0  0  0  0  0  0  0  0
   -3.6486   -3.0005   -1.1057 N   0  0  0  0  0  0  0  0  0  0  0  0
   -3.6367   -1.6595   -1.0319 C   0  0  0  0  0  0  0  0  0  0  0  0
   -4.7895   -0.8970   -1.1738 C   0  0  0  0  0  0  0  0  0  0  0  0
   -4.7628    0.4843   -1.0124 C   0  0  0  0  0  0  0  0  0  0  0  0
   -5.7986    1.2323   -1.1342 O   0  0  0  0  0  0  0  0  0  0  0  0
   -7.0111    1.7270   -1.3296 C   0  0  0  0  0  0  0  0  0  0  0  0
   -8.1248    1.0250   -0.5378 C   0  0  0  0  0  0  0  0  0  0  0  0
   -9.3932    1.6778   -0.7391 C   0  0  0  0  0  0  0  0  0  0  0  0
  -10.4996    0.9926   -0.0402 N   0  0  0  0  0  0  0  0  0  0  0  0
  -10.4033    1.0012    1.3286 C   0  0  0  0  0  0  0  0  0  0  0  0
  -10.6059   -0.3273    2.0341 C   0  0  0  0  0  0  0  0  0  0  0  0
  -11.2772   -1.2501    1.3135 O   0  0  0  0  0  0  0  0  0  0  0  0
  -10.5783   -1.4991    0.1262 C   0  0  0  0  0  0  0  0  0  0  0  0
  -10.7892   -0.2051   -0.6982 C   0  0  0  0  0  0  0  0  0  0  0  0
   -1.4846    2.8022   -0.8998 H   0  0  0  0  0  0  0  0  0  0  0  0
   -2.3496    4.0767    0.1161 H   0  0  0  0  0  0  0  0  0  0  0  0
   -1.8816    2.5171    0.7951 H   0  0  0  0  0  0  0  0  0  0  0  0
   -1.4112    0.7444   -0.3430 H   0  0  0  0  0  0  0  0  0  0  0  0
    1.3249   -2.3763    1.4293 H   0  0  0  0  0  0  0  0  0  0  0  0
    3.6810   -1.7794    1.9335 H   0  0  0  0  0  0  0  0  0  0  0  0
    5.6232   -1.1734    0.7457 H   0  0  0  0  0  0  0  0  0  0  0  0
    8.0508    1.3332    0.3007 H   0  0  0  0  0  0  0  0  0  0  0  0
    9.6550    0.3822    2.2731 H   0  0  0  0  0  0  0  0  0  0  0  0
    8.4090   -3.2072    1.7900 H   0  0  0  0  0  0  0  0  0  0  0  0
    9.6816   -3.6428    0.5338 H   0  0  0  0  0  0  0  0  0  0  0  0
   12.9200    0.6334   -2.1080 H   0  0  0  0  0  0  0  0  0  0  0  0
   14.0264    2.4898   -0.8946 H   0  0  0  0  0  0  0  0  0  0  0  0
   13.1651    3.0775    1.2959 H   0  0  0  0  0  0  0  0  0  0  0  0
    3.5401    1.3689   -0.8834 H   0  0  0  0  0  0  0  0  0  0  0  0
   -0.4702   -3.7029   -0.4864 H   0  0  0  0  0  0  0  0  0  0  0  0
   -2.5588   -4.8609   -0.9580 H   0  0  0  0  0  0  0  0  0  0  0  0
   -5.7145   -1.4468   -1.4286 H   0  0  0  0  0  0  0  0  0  0  0  0
   -7.1766    2.7863   -1.2132 H   0  0  0  0  0  0  0  0  0  0  0  0
   -7.2999    1.5392   -2.4362 H   0  0  0  0  0  0  0  0  0  0  0  0
   -7.8189    1.1508    0.5232 H   0  0  0  0  0  0  0  0  0  0  0  0
   -8.1395   -0.0826   -0.7312 H   0  0  0  0  0  0  0  0  0  0  0  0
   -9.4438    2.7458   -0.3744 H   0  0  0  0  0  0  0  0  0  0  0  0
   -9.7365    1.7328   -1.8349 H   0  0  0  0  0  0  0  0  0  0  0  0
   -9.4092    1.4116    1.6762 H   0  0  0  0  0  0  0  0  0  0  0  0
  -11.1717    1.6910    1.7974 H   0  0  0  0  0  0  0  0  0  0  0  0
  -11.0292   -0.2220    3.0664 H   0  0  0  0  0  0  0  0  0  0  0  0
   -9.5588   -0.7804    2.1817 H   0  0  0  0  0  0  0  0  0  0  0  0
  -11.0295   -2.3278   -0.4273 H   0  0  0  0  0  0  0  0  0  0  0  0
   -9.5307   -1.6645    0.3851 H   0  0  0  0  0  0  0  0  0  0  0  0
  -11.9014   -0.2670   -0.9407 H   0  0  0  0  0  0  0  0  0  0  0  0
  -10.3096   -0.4281   -1.6696 H   0  0  0  0  0  0  0  0  0  0  0  0
  1  2  1  0
  2  3  1  0
  3  4  2  0
  4  5  1  0
  5  6  2  0
  6  7  1  0
  7  8  1  0
  8  9  2  0
  9 10  1  0
 10 11  2  0
 11 12  1  0
 12 13  1  0
 13 14  2  0
 13 15  1  0
 15 16  1  0
 16 17  1  0
 17 18  1  0
 18 19  1  0
 19 20  1  0
 20 21  2  0
 17 22  1  0
 22 23  2  0
 23 24  1  0
 23 25  1  0
 25 26  2  0
 26 27  1  0
 27 28  2  0
 28 29  1  0
 11 30  1  0
 30 31  2  0
 31 32  1  0
  6 33  1  0
 33 34  2  0
 34 35  1  0
 35 36  2  0
 36 37  1  0
 37 38  2  0
 38 39  1  0
 39 40  1  0
 40 41  1  0
 41 42  1  0
 42 43  1  0
 43 44  1  0
 44 45  1  0
 45 46  1  0
 46 47  1  0
 47 48  1  0
 38  3  1  0
 48 43  1  0
 36  5  1  0
 31  8  1  0
 20 16  1  0
 28 22  1  0
  1 49  1  0
  1 50  1  0
  1 51  1  0
  4 52  1  0
  9 53  1  0
 10 54  1  0
 12 55  1  0
 15 56  1  0
 17 57  1  0
 19 58  1  0
 19 59  1  0
 25 60  1  0
 26 61  1  0
 27 62  1  0
 30 63  1  0
 33 64  1  0
 34 65  1  0
 37 66  1  0
 40 67  1  0
 40 68  1  0
 41 69  1  0
 41 70  1  0
 42 71  1  0
 42 72  1  0
 44 73  1  0
 44 74  1  0
 45 75  1  0
 45 76  1  0
 47 77  1  0
 47 78  1  0
 48 79  1  0
 48 80  1  0
M  END
$$$$
[H]C1=C(C(=O)[O-])N2C(=O)/C(=C(\[H])c3sc4c(c3[H])C(=O)N([H])C4([H])[H])[C@@]2([H])S1
     RDKit          3D

 28 31  0  0  0  0  0  0  0  0999 V2000
   -5.8153   -1.6639   -1.2331 O   0  0  0  0  0  0  0  0  0  0  0  0
   -5.4852   -0.9589   -0.0832 C   0  0  0  0  0  0  0  0  0  0  0  0
   -6.3915   -0.9237    0.8099 O   0  0  0  0  0  0  0  0  0  0  0  0
   -4.1899   -0.2932    0.1119 C   0  0  0  0  0  0  0  0  0  0  0  0
   -3.9030    0.3728    1.2154 C   0  0  0  0  0  0  0  0  0  0  0  0
   -2.2003    0.9789    0.9379 S   0  0  0  0  0  0  0  0  0  0  0  0
   -1.8333   -0.3985   -0.2413 C   0  0  1  0  0  0  0  0  0  0  0  0
   -3.1816   -0.2960   -0.8766 N   0  0  0  0  0  0  0  0  0  0  0  0
   -2.5266   -0.2563   -2.1318 C   0  0  0  0  0  0  0  0  0  0  0  0
   -2.8688   -0.3217   -3.3316 O   0  0  0  0  0  0  0  0  0  0  0  0
   -1.1979   -0.0999   -1.4839 C   0  0  0  0  0  0  0  0  0  0  0  0
    0.0180    0.1517   -1.9184 C   0  0  0  0  0  0  0  0  0  0  0  0
    1.2263    0.1947   -1.1039 C   0  0  0  0  0  0  0  0  0  0  0  0
    1.5420    0.8090    0.0685 C   0  0  0  0  0  0  0  0  0  0  0  0
    2.7731    0.5992    0.5898 C   0  0  0  0  0  0  0  0  0  0  0  0
    3.5324    1.0239    1.7999 C   0  0  0  0  0  0  0  0  0  0  0  0
    3.1723    1.7782    2.7353 O   0  0  0  0  0  0  0  0  0  0  0  0
    4.8242    0.4305    1.7808 N   0  0  0  0  0  0  0  0  0  0  0  0
    4.9478   -0.3540    0.5977 C   0  0  0  0  0  0  0  0  0  0  0  0
    3.6159   -0.2169   -0.1025 C   0  0  0  0  0  0  0  0  0  0  0  0
    2.6947   -0.6751   -1.4515 S   0  0  0  0  0  0  0  0  0  0  0  0
   -4.4634    0.5682    2.1131 H   0  0  0  0  0  0  0  0  0  0  0  0
   -1.6798   -1.3616    0.2600 H   0  0  0  0  0  0  0  0  0  0  0  0
    0.1401    0.3492   -2.9910 H   0  0  0  0  0  0  0  0  0  0  0  0
    0.7665    1.4720    0.5282 H   0  0  0  0  0  0  0  0  0  0  0  0
    5.5677    0.5377    2.4990 H   0  0  0  0  0  0  0  0  0  0  0  0
    5.7823   -0.0041   -0.0281 H   0  0  0  0  0  0  0  0  0  0  0  0
    5.1333   -1.4421    0.8005 H   0  0  0  0  0  0  0  0  0  0  0  0
  1  2  1  0
  2  3  2  0
  2  4  1  0
  4  5  2  0
  5  6  1  0
  6  7  1  0
  7  8  1  0
  8  9  1  0
  9 10  2  0
  9 11  1  0
 11 12  2  0
 12 13  1  0
 13 14  2  0
 14 15  1  0
 15 16  1  0
 16 17  2  0
 16 18  1  0
 18 19  1  0
 19 20  1  0
 20 21  1  0
  8  4  1  0
 21 13  1  0
 11  7  1  0
 20 15  2  0
  5 22  1  0
  7 23  1  1
 12 24  1  0
 14 25  1  0
 18 26  1  0
 19 27  1  0
 19 28  1  0
M  CHG  1   1  -1
M  END
$$$$
[H]c1nc(N([H])c2c([H])c([H])c(N3C([H])([H])C([H])([H])N(C([H])([H])[H])C([H])([H])C3([H])[H])c([H])c2OC([H])([H])[H])nc(N([H])c2c([H])c([H])c([H])c([H])c2S(=O)(=O)C([H])(C([H])([H])[H])C([H])([H])[H])c1Cl
     RDKit          3D

 67 70  0  0  0  0  0  0  0  0999 V2000
    2.7980   -3.3310   -1.2288 C   0  0  0  0  0  0  0  0  0  0  0  0
    1.9415   -2.2352   -0.9986 O   0  0  0  0  0  0  0  0  0  0  0  0
    2.4816   -1.0407   -0.5265 C   0  0  0  0  0  0  0  0  0  0  0  0
    3.8274   -0.9244   -0.2865 C   0  0  0  0  0  0  0  0  0  0  0  0
    4.4213    0.2145    0.1751 C   0  0  0  0  0  0  0  0  0  0  0  0
    3.5861    1.2917    0.4024 C   0  0  0  0  0  0  0  0  0  0  0  0
    2.2085    1.1836    0.1606 C   0  0  0  0  0  0  0  0  0  0  0  0
    1.6255    0.0523   -0.2972 C   0  0  0  0  0  0  0  0  0  0  0  0
    0.2667   -0.0963   -0.5497 N   0  0  0  0  0  0  0  0  0  0  0  0
   -0.7485    0.8732   -0.3847 C   0  0  0  0  0  0  0  0  0  0  0  0
   -0.5976    2.1249    0.0475 N   0  0  0  0  0  0  0  0  0  0  0  0
   -1.5696    3.0148    0.1930 C   0  0  0  0  0  0  0  0  0  0  0  0
   -2.8553    2.6370   -0.1234 C   0  0  0  0  0  0  0  0  0  0  0  0
   -4.1874    3.7633    0.0449 Cl  0  0  0  0  0  0  0  0  0  0  0  0
   -3.1059    1.3214   -0.5915 C   0  0  0  0  0  0  0  0  0  0  0  0
   -4.4442    0.9705   -0.8839 N   0  0  0  0  0  0  0  0  0  0  0  0
   -4.8563   -0.2771   -1.3763 C   0  0  0  0  0  0  0  0  0  0  0  0
   -4.0250   -1.2445   -1.8945 C   0  0  0  0  0  0  0  0  0  0  0  0
   -4.4990   -2.4531   -2.4340 C   0  0  0  0  0  0  0  0  0  0  0  0
   -5.8636   -2.6532   -2.4324 C   0  0  0  0  0  0  0  0  0  0  0  0
   -6.7143   -1.7053   -1.9218 C   0  0  0  0  0  0  0  0  0  0  0  0
   -6.2437   -0.5196   -1.3917 C   0  0  0  0  0  0  0  0  0  0  0  0
   -7.3164    0.6608   -0.6987 S   0  0  0  0  0  0  0  0  0  0  0  0
   -7.3933    1.9371   -1.4847 O   0  0  0  0  0  0  0  0  0  0  0  0
   -8.7283    0.0574   -0.8397 O   0  0  0  0  0  0  0  0  0  0  0  0
   -7.0890    0.8939    1.0249 C   0  0  0  0  0  0  0  0  0  0  0  0
   -7.3480   -0.4235    1.7701 C   0  0  0  0  0  0  0  0  0  0  0  0
   -8.1301    1.8608    1.6013 C   0  0  0  0  0  0  0  0  0  0  0  0
   -2.0417    0.5457   -0.6857 N   0  0  0  0  0  0  0  0  0  0  0  0
    5.8136    0.2932    0.3958 N   0  0  0  0  0  0  0  0  0  0  0  0
    6.4498    1.3219    1.2076 C   0  0  0  0  0  0  0  0  0  0  0  0
    7.4716    0.7173    2.1500 C   0  0  0  0  0  0  0  0  0  0  0  0
    8.2281   -0.3570    1.5914 N   0  0  0  0  0  0  0  0  0  0  0  0
    9.2895    0.0606    0.7233 C   0  0  0  0  0  0  0  0  0  0  0  0
    7.3758   -1.3808    0.9847 C   0  0  0  0  0  0  0  0  0  0  0  0
    6.7127   -0.6643   -0.2033 C   0  0  0  0  0  0  0  0  0  0  0  0
    2.1978   -4.1742   -1.5940 H   0  0  0  0  0  0  0  0  0  0  0  0
    3.3465   -3.6080   -0.3147 H   0  0  0  0  0  0  0  0  0  0  0  0
    3.5586   -2.9887   -1.9679 H   0  0  0  0  0  0  0  0  0  0  0  0
    4.4382   -1.8245   -0.4810 H   0  0  0  0  0  0  0  0  0  0  0  0
    4.0232    2.2148    0.7675 H   0  0  0  0  0  0  0  0  0  0  0  0
    1.6829    2.0994    0.3817 H   0  0  0  0  0  0  0  0  0  0  0  0
   -0.0953   -1.0472   -0.9152 H   0  0  0  0  0  0  0  0  0  0  0  0
   -1.3686    4.0319    0.5559 H   0  0  0  0  0  0  0  0  0  0  0  0
   -5.1553    1.7451   -0.7241 H   0  0  0  0  0  0  0  0  0  0  0  0
   -2.9519   -1.1300   -1.9331 H   0  0  0  0  0  0  0  0  0  0  0  0
   -3.8051   -3.1751   -2.8254 H   0  0  0  0  0  0  0  0  0  0  0  0
   -6.2117   -3.5899   -2.8525 H   0  0  0  0  0  0  0  0  0  0  0  0
   -7.7729   -1.8830   -1.9315 H   0  0  0  0  0  0  0  0  0  0  0  0
   -6.0945    1.2164    1.2893 H   0  0  0  0  0  0  0  0  0  0  0  0
   -7.0459   -0.2515    2.8164 H   0  0  0  0  0  0  0  0  0  0  0  0
   -6.7761   -1.2538    1.3513 H   0  0  0  0  0  0  0  0  0  0  0  0
   -8.4409   -0.6809    1.6975 H   0  0  0  0  0  0  0  0  0  0  0  0
   -8.1469    1.6683    2.6953 H   0  0  0  0  0  0  0  0  0  0  0  0
   -7.8558    2.8834    1.3399 H   0  0  0  0  0  0  0  0  0  0  0  0
   -9.1318    1.5480    1.2224 H   0  0  0  0  0  0  0  0  0  0  0  0
    5.6986    1.8496    1.8178 H   0  0  0  0  0  0  0  0  0  0  0  0
    6.9306    2.0340    0.5190 H   0  0  0  0  0  0  0  0  0  0  0  0
    6.9661    0.3984    3.0955 H   0  0  0  0  0  0  0  0  0  0  0  0
    8.1853    1.5113    2.4512 H   0  0  0  0  0  0  0  0  0  0  0  0
    9.0845    1.0803    0.3255 H   0  0  0  0  0  0  0  0  0  0  0  0
   10.2479    0.0559    1.3173 H   0  0  0  0  0  0  0  0  0  0  0  0
    9.3924   -0.6645   -0.1011 H   0  0  0  0  0  0  0  0  0  0  0  0
    6.5706   -1.6106    1.6897 H   0  0  0  0  0  0  0  0  0  0  0  0
    7.9791   -2.2304    0.6689 H   0  0  0  0  0  0  0  0  0  0  0  0
    6.2815   -1.3420   -0.9293 H   0  0  0  0  0  0  0  0  0  0  0  0
    7.5281   -0.0532   -0.6714 H   0  0  0  0  0  0  0  0  0  0  0  0
  1  2  1  0
  2  3  1  0
  3  4  2  0
  4  5  1  0
  5  6  2  0
  6  7  1  0
  7  8  2  0
  8  9  1  0
  9 10  1  0
 10 11  2  0
 11 12  1  0
 12 13  2  0
 13 14  1  0
 13 15  1  0
 15 16  1  0
 16 17  1  0
 17 18  2  0
 18 19  1  0
 19 20  2  0
 20 21  1  0
 21 22  2  0
 22 23  1  0
 23 24  2  0
 23 25  2  0
 23 26  1  0
 26 27  1  0
 26 28  1  0
 15 29  2  0
  5 30  1  0
 30 31  1  0
 31 32  1  0
 32 33  1  0
 33 34  1  0
 33 35  1  0
 35 36  1  0
  8  3  1  0
 29 10  1  0
 36 30  1  0
 22 17  1  0
  1 37  1  0
  1 38  1  0
  1 39  1  0
  4 40  1  0
  6 41  1  0
  7 42  1  0
  9 43  1  0
 12 44  1  0
 16 45  1  0
 18 46  1  0
 19 47  1  0
 20 48  1  0
 21 49  1  0
 26 50  1  0
 27 51  1  0
 27 52  1  0
 27 53  1  0
 28 54  1  0
 28 55  1  0
 28 56  1  0
 31 57  1  0
 31 58  1  0
 32 59  1  0
 32 60  1  0
 34 61  1  0
 34 62  1  0
 34 63  1  0
 35 64  1  0
 35 65  1  0
 36 66  1  0
 36 67  1  0
M  END
$$$$
[H]C1=C(C(=O)[O-])N2C(=O)/C(=C(\[H])c3nn4c(c3[H])C([H])([H])C([H])([H])C([H])([H])C4([H])[H])[C@@]2([H])S1
     RDKit          3D

 33 36  0  0  0  0  0  0  0  0999 V2000
    6.6143   -1.0096    1.7922 O   0  0  0  0  0  0  0  0  0  0  0  0
    5.9670   -0.6239    0.6323 C   0  0  0  0  0  0  0  0  0  0  0  0
    6.6594   -0.4854   -0.4027 O   0  0  0  0  0  0  0  0  0  0  0  0
    4.5144   -0.4021    0.6861 C   0  0  0  0  0  0  0  0  0  0  0  0
    3.8146   -0.5547    1.7792 C   0  0  0  0  0  0  0  0  0  0  0  0
    2.1219   -0.1727    1.3491 S   0  0  0  0  0  0  0  0  0  0  0  0
    2.5752    0.7092   -0.2061 C   0  0  1  0  0  0  0  0  0  0  0  0
    3.8002   -0.0271   -0.4625 N   0  0  0  0  0  0  0  0  0  0  0  0
    3.4642    0.1087   -1.8639 C   0  0  0  0  0  0  0  0  0  0  0  0
    4.0887    0.1881   -2.9557 O   0  0  0  0  0  0  0  0  0  0  0  0
    2.0511    0.1103   -1.4189 C   0  0  0  0  0  0  0  0  0  0  0  0
    0.9194   -0.2887   -1.9758 C   0  0  0  0  0  0  0  0  0  0  0  0
   -0.3018   -0.1232   -1.2026 C   0  0  0  0  0  0  0  0  0  0  0  0
   -1.3506   -1.0228   -1.1858 C   0  0  0  0  0  0  0  0  0  0  0  0
   -2.3238   -0.5234   -0.3453 C   0  0  0  0  0  0  0  0  0  0  0  0
   -3.6299   -1.1185    0.0009 C   0  0  0  0  0  0  0  0  0  0  0  0
   -4.5190   -0.1865    0.7534 C   0  0  0  0  0  0  0  0  0  0  0  0
   -4.0859    1.2489    0.6864 C   0  0  0  0  0  0  0  0  0  0  0  0
   -2.6306    1.4348    1.0323 C   0  0  0  0  0  0  0  0  0  0  0  0
   -1.8608    0.6295    0.1152 N   0  0  0  0  0  0  0  0  0  0  0  0
   -0.6465    0.8686   -0.4004 N   0  0  0  0  0  0  0  0  0  0  0  0
    4.1279   -0.8436    2.7568 H   0  0  0  0  0  0  0  0  0  0  0  0
    2.6398    1.7858   -0.1150 H   0  0  0  0  0  0  0  0  0  0  0  0
    0.9339   -0.7173   -2.9666 H   0  0  0  0  0  0  0  0  0  0  0  0
   -1.3579   -1.9422   -1.7524 H   0  0  0  0  0  0  0  0  0  0  0  0
   -3.4117   -2.0193    0.6393 H   0  0  0  0  0  0  0  0  0  0  0  0
   -4.1383   -1.4798   -0.9180 H   0  0  0  0  0  0  0  0  0  0  0  0
   -5.5577   -0.2291    0.3313 H   0  0  0  0  0  0  0  0  0  0  0  0
   -4.6308   -0.4522    1.8234 H   0  0  0  0  0  0  0  0  0  0  0  0
   -4.2967    1.7184   -0.3004 H   0  0  0  0  0  0  0  0  0  0  0  0
   -4.6818    1.8128    1.4317 H   0  0  0  0  0  0  0  0  0  0  0  0
   -2.4114    2.5136    0.9066 H   0  0  0  0  0  0  0  0  0  0  0  0
   -2.4568    1.0933    2.0833 H   0  0  0  0  0  0  0  0  0  0  0  0
  1  2  1  0
  2  3  2  0
  2  4  1  0
  4  5  2  0
  5  6  1  0
  6  7  1  0
  7  8  1  0
  8  9  1  0
  9 10  2  0
  9 11  1  0
 11 12  2  0
 12 13  1  0
 13 14  1  0
 14 15  2  0
 15 16  1  0
 16 17  1  0
 17 18  1  0
 18 19  1  0
 19 20  1  0
 20 21  1  0
  8  4  1  0
 21 13  2  0
 11  7  1  0
 20 15  1  0
  5 22  1  0
  7 23  1  1
 12 24  1  0
 14 25  1  0
 16 26  1  0
 16 27  1  0
 17 28  1  0
 17 29  1  0
 18 30  1  0
 18 31  1  0
 19 32  1  0
 19 33  1  0
M  CHG  1   1  -1
M  END
$$$$
[H]c1c([H])c([H])c2c(c1[H])N=C(N1C([H])([H])C([H])([H])N(C([H])([H])[H])C([H])([H])C1([H])[H])c1c([H])c(Cl)c([H])c([H])c1S2
     RDKit          3D

 41 44  0  0  0  0  0  0  0  0999 V2000
   -4.5906   -1.2271    0.8185 C   0  0  0  0  0  0  0  0  0  0  0  0
   -3.3001   -0.7419    0.4143 N   0  0  0  0  0  0  0  0  0  0  0  0
   -2.9400    0.3952    1.2379 C   0  0  0  0  0  0  0  0  0  0  0  0
   -1.8317    1.1931    0.5793 C   0  0  0  0  0  0  0  0  0  0  0  0
   -1.1177    0.3561   -0.3511 N   0  0  0  0  0  0  0  0  0  0  0  0
   -1.8372   -0.2245   -1.4520 C   0  0  0  0  0  0  0  0  0  0  0  0
   -3.2677   -0.4626   -1.0008 C   0  0  0  0  0  0  0  0  0  0  0  0
    0.2660    0.1191   -0.1485 C   0  0  0  0  0  0  0  0  0  0  0  0
    0.6629   -1.0794    0.0483 N   0  0  0  0  0  0  0  0  0  0  0  0
    1.9226   -1.6392    0.2753 C   0  0  0  0  0  0  0  0  0  0  0  0
    1.9780   -2.9653   -0.1661 C   0  0  0  0  0  0  0  0  0  0  0  0
    3.1114   -3.7206   -0.0465 C   0  0  0  0  0  0  0  0  0  0  0  0
    4.2325   -3.1613    0.5251 C   0  0  0  0  0  0  0  0  0  0  0  0
    4.2114   -1.8683    0.9665 C   0  0  0  0  0  0  0  0  0  0  0  0
    3.0554   -1.1324    0.8325 C   0  0  0  0  0  0  0  0  0  0  0  0
    3.2402    0.5394    1.4700 S   0  0  0  0  0  0  0  0  0  0  0  0
    2.3074    1.6298    0.4029 C   0  0  0  0  0  0  0  0  0  0  0  0
    2.9641    2.8304    0.2510 C   0  0  0  0  0  0  0  0  0  0  0  0
    2.3886    3.7929   -0.5499 C   0  0  0  0  0  0  0  0  0  0  0  0
    1.1939    3.5209   -1.1602 C   0  0  0  0  0  0  0  0  0  0  0  0
    0.3895    4.6944   -2.2002 Cl  0  0  0  0  0  0  0  0  0  0  0  0
    0.5559    2.2988   -0.9867 C   0  0  0  0  0  0  0  0  0  0  0  0
    1.1117    1.3149   -0.1878 C   0  0  0  0  0  0  0  0  0  0  0  0
   -5.3218   -0.3837    0.9816 H   0  0  0  0  0  0  0  0  0  0  0  0
   -4.9745   -1.9360    0.0488 H   0  0  0  0  0  0  0  0  0  0  0  0
   -4.5231   -1.7443    1.7883 H   0  0  0  0  0  0  0  0  0  0  0  0
   -2.5640    0.0436    2.2043 H   0  0  0  0  0  0  0  0  0  0  0  0
   -3.7960    1.0853    1.4108 H   0  0  0  0  0  0  0  0  0  0  0  0
   -1.2121    1.6269    1.3671 H   0  0  0  0  0  0  0  0  0  0  0  0
   -2.2604    2.0486   -0.0030 H   0  0  0  0  0  0  0  0  0  0  0  0
   -1.4008   -1.1957   -1.7673 H   0  0  0  0  0  0  0  0  0  0  0  0
   -1.8659    0.4292   -2.3217 H   0  0  0  0  0  0  0  0  0  0  0  0
   -3.6937   -1.3460   -1.5131 H   0  0  0  0  0  0  0  0  0  0  0  0
   -3.8638    0.4163   -1.2807 H   0  0  0  0  0  0  0  0  0  0  0  0
    1.1048   -3.4193   -0.6174 H   0  0  0  0  0  0  0  0  0  0  0  0
    3.1061   -4.7599   -0.4088 H   0  0  0  0  0  0  0  0  0  0  0  0
    5.1182   -3.7898    0.6053 H   0  0  0  0  0  0  0  0  0  0  0  0
    5.0934   -1.4468    1.4097 H   0  0  0  0  0  0  0  0  0  0  0  0
    3.9031    3.0539    0.7261 H   0  0  0  0  0  0  0  0  0  0  0  0
    2.8361    4.7626   -0.7236 H   0  0  0  0  0  0  0  0  0  0  0  0
   -0.3922    2.0929   -1.4780 H   0  0  0  0  0  0  0  0  0  0  0  0
  1  2  1  0
  2  3  1  0
  3  4  1  0
  4  5  1  0
  5  6  1  0
  6  7  1  0
  5  8  1  0
  8  9  2  0
  9 10  1  0
 10 11  2  0
 11 12  1  0
 12 13  2  0
 13 14  1  0
 14 15  2  0
 15 16  1  0
 16 17  1  0
 17 18  2  0
 18 19  1  0
 19 20  2  0
 20 21  1  0
 20 22  1  0
 22 23  2  0
  7  2  1  0
 23  8  1  0
 15 10  1  0
 23 17  1  0
  1 24  1  0
  1 25  1  0
  1 26  1  0
  3 27  1  0
  3 28  1  0
  4 29  1  0
  4 30  1  0
  6 31  1  0
  6 32  1  0
  7 33  1  0
  7 34  1  0
 11 35  1  0
 12 36  1  0
 13 37  1  0
 14 38  1  0
 18 39  1  0
 19 40  1  0
 22 41  1  0
M  END
$$$$
[H]OC(=O)c1c([H])nc(-c2c([H])nc(C([H])([H])[H])nc2OC([H])([H])[C@@]2([H])C([H])([H])[C@]2([H])c2nc([H])c(OC([H])([H])[H])c([H])c2[H])c([H])c1[H]
     RDKit          3D

 49 52  0  0  0  0  0  0  0  0999 V2000
    7.0852   -1.1026   -2.6909 C   0  0  0  0  0  0  0  0  0  0  0  0
    7.1144   -0.4545   -1.4355 O   0  0  0  0  0  0  0  0  0  0  0  0
    5.9610    0.0427   -0.8519 C   0  0  0  0  0  0  0  0  0  0  0  0
    4.7413   -0.0782   -1.4799 C   0  0  0  0  0  0  0  0  0  0  0  0
    3.6160    0.4427   -0.8409 C   0  0  0  0  0  0  0  0  0  0  0  0
    3.6952    1.0650    0.3842 C   0  0  0  0  0  0  0  0  0  0  0  0
    4.8997    1.1644    0.9657 N   0  0  0  0  0  0  0  0  0  0  0  0
    6.0129    0.6731    0.3794 C   0  0  0  0  0  0  0  0  0  0  0  0
    2.4368    1.5785    0.9664 C   0  0  1  0  0  0  0  0  0  0  0  0
    1.5442    2.2755   -0.0638 C   0  0  0  0  0  0  0  0  0  0  0  0
    1.1308    0.9847    0.6118 C   0  0  2  0  0  0  0  0  0  0  0  0
    0.0194    1.1456    1.6207 C   0  0  0  0  0  0  0  0  0  0  0  0
   -1.1924    0.5758    1.2528 O   0  0  0  0  0  0  0  0  0  0  0  0
   -1.4656   -0.7389    0.9775 C   0  0  0  0  0  0  0  0  0  0  0  0
   -0.4514   -1.6537    1.0608 N   0  0  0  0  0  0  0  0  0  0  0  0
   -0.6381   -2.9471    0.8068 C   0  0  0  0  0  0  0  0  0  0  0  0
    0.4959   -3.9278    0.9073 C   0  0  0  0  0  0  0  0  0  0  0  0
   -1.8668   -3.3560    0.4583 N   0  0  0  0  0  0  0  0  0  0  0  0
   -2.8805   -2.4981    0.3661 C   0  0  0  0  0  0  0  0  0  0  0  0
   -2.7208   -1.1220    0.6276 C   0  0  0  0  0  0  0  0  0  0  0  0
   -3.8866   -0.2489    0.4845 C   0  0  0  0  0  0  0  0  0  0  0  0
   -3.9297    1.0578    0.8457 C   0  0  0  0  0  0  0  0  0  0  0  0
   -5.0785    1.8489    0.7047 C   0  0  0  0  0  0  0  0  0  0  0  0
   -6.2012    1.2752    0.1809 C   0  0  0  0  0  0  0  0  0  0  0  0
   -6.1150   -0.0438   -0.1696 C   0  0  0  0  0  0  0  0  0  0  0  0
   -5.0310   -0.7909   -0.0370 N   0  0  0  0  0  0  0  0  0  0  0  0
   -7.4349    2.0533    0.0094 C   0  0  0  0  0  0  0  0  0  0  0  0
   -8.5759    1.4968   -0.5166 O   0  0  0  0  0  0  0  0  0  0  0  0
   -7.4395    3.2615    0.3558 O   0  0  0  0  0  0  0  0  0  0  0  0
    6.6880   -2.1248   -2.5751 H   0  0  0  0  0  0  0  0  0  0  0  0
    6.4539   -0.5465   -3.3929 H   0  0  0  0  0  0  0  0  0  0  0  0
    8.1285   -1.1890   -3.1060 H   0  0  0  0  0  0  0  0  0  0  0  0
    4.6504   -0.5672   -2.4505 H   0  0  0  0  0  0  0  0  0  0  0  0
    2.6802    0.3303   -1.3610 H   0  0  0  0  0  0  0  0  0  0  0  0
    6.9910    0.7442    0.8312 H   0  0  0  0  0  0  0  0  0  0  0  0
    2.5480    2.0489    1.9513 H   0  0  0  0  0  0  0  0  0  0  0  0
    1.1209    3.2287    0.2975 H   0  0  0  0  0  0  0  0  0  0  0  0
    1.8131    2.2244   -1.1173 H   0  0  0  0  0  0  0  0  0  0  0  0
    1.0478    0.1146   -0.0604 H   0  0  0  0  0  0  0  0  0  0  0  0
    0.4058    0.7729    2.5963 H   0  0  0  0  0  0  0  0  0  0  0  0
   -0.1888    2.2392    1.8173 H   0  0  0  0  0  0  0  0  0  0  0  0
    0.5166   -4.3459    1.9317 H   0  0  0  0  0  0  0  0  0  0  0  0
    1.4360   -3.4076    0.6993 H   0  0  0  0  0  0  0  0  0  0  0  0
    0.3063   -4.7155    0.1776 H   0  0  0  0  0  0  0  0  0  0  0  0
   -3.8899   -2.8162    0.0837 H   0  0  0  0  0  0  0  0  0  0  0  0
   -3.0755    1.5801    1.2821 H   0  0  0  0  0  0  0  0  0  0  0  0
   -5.0842    2.8817    0.9990 H   0  0  0  0  0  0  0  0  0  0  0  0
   -7.0249   -0.4818   -0.5858 H   0  0  0  0  0  0  0  0  0  0  0  0
   -9.3687    2.0506   -0.7317 H   0  0  0  0  0  0  0  0  0  0  0  0
  1  2  1  0
  2  3  1  0
  3  4  2  0
  4  5  1  0
  5  6  2  0
  6  7  1  0
  7  8  2  0
  6  9  1  0
  9 10  1  0
 10 11  1  0
 11 12  1  0
 12 13  1  0
 13 14  1  0
 14 15  2  0
 15 16  1  0
 16 17  1  0
 16 18  2  0
 18 19  1  0
 19 20  2  0
 20 21  1  0
 21 22  2  0
 22 23  1  0
 23 24  2  0
 24 25  1  0
 25 26  2  0
 24 27  1  0
 27 28  1  0
 27 29  2  0
  8  3  1  0
 11  9  1  0
 20 14  1  0
 26 21  1  0
  1 30  1  0
  1 31  1  0
  1 32  1  0
  4 33  1  0
  5 34  1  0
  8 35  1  0
  9 36  1  1
 10 37  1  0
 10 38  1  0
 11 39  1  6
 12 40  1  0
 12 41  1  0
 17 42  1  0
 17 43  1  0
 17 44  1  0
 19 45  1  0
 22 46  1  0
 23 47  1  0
 25 48  1  0
 28 49  1  0
M  END
$$$$
[H]c1nc(N([H])c2c([H])c([H])c(C(F)(F)F)c([H])c2OC([H])(C([H])([H])[H])C([H])([H])[H])nc(N([H])c2c([H])c([H])c([H])c([H])c2S(=O)(=O)C([H])(C([H])([H])[H])C([H])([H])[H])c1Cl
     RDKit          3D

 59 61  0  0  0  0  0  0  0  0999 V2000
   -6.1155   -2.0494   -1.3889 C   0  0  0  0  0  0  0  0  0  0  0  0
   -4.6062   -1.7723   -1.7454 C   0  0  0  0  0  0  0  0  0  0  0  0
   -3.9100   -3.0972   -1.6737 C   0  0  0  0  0  0  0  0  0  0  0  0
   -4.0879   -0.8073   -0.9322 O   0  0  0  0  0  0  0  0  0  0  0  0
   -4.4205    0.4357   -0.5382 C   0  0  0  0  0  0  0  0  0  0  0  0
   -5.5770    1.1106   -0.8049 C   0  0  0  0  0  0  0  0  0  0  0  0
   -5.8869    2.3820   -0.3699 C   0  0  0  0  0  0  0  0  0  0  0  0
   -4.9232    2.9964    0.4003 C   0  0  0  0  0  0  0  0  0  0  0  0
   -3.7300    2.3535    0.6958 C   0  0  0  0  0  0  0  0  0  0  0  0
   -3.4319    1.0987    0.2586 C   0  0  0  0  0  0  0  0  0  0  0  0
   -2.1760    0.4934    0.3880 N   0  0  0  0  0  0  0  0  0  0  0  0
   -1.1769    0.8089    1.3256 C   0  0  0  0  0  0  0  0  0  0  0  0
   -1.2379    1.6538    2.3462 N   0  0  0  0  0  0  0  0  0  0  0  0
   -0.1778    1.9725    3.1044 C   0  0  0  0  0  0  0  0  0  0  0  0
    1.0647    1.4286    2.8566 C   0  0  0  0  0  0  0  0  0  0  0  0
    2.4608    1.8265    3.8207 Cl  0  0  0  0  0  0  0  0  0  0  0  0
    1.1606    0.5373    1.7847 C   0  0  0  0  0  0  0  0  0  0  0  0
    2.4528    0.0697    1.4191 N   0  0  0  0  0  0  0  0  0  0  0  0
    2.7717   -0.8179    0.3752 C   0  0  0  0  0  0  0  0  0  0  0  0
    1.8760   -1.6893   -0.2412 C   0  0  0  0  0  0  0  0  0  0  0  0
    2.2277   -2.5381   -1.2712 C   0  0  0  0  0  0  0  0  0  0  0  0
    3.5268   -2.5278   -1.7135 C   0  0  0  0  0  0  0  0  0  0  0  0
    4.4455   -1.6588   -1.1021 C   0  0  0  0  0  0  0  0  0  0  0  0
    4.0857   -0.8257   -0.0877 C   0  0  0  0  0  0  0  0  0  0  0  0
    5.2851    0.2337    0.6122 S   0  0  0  0  0  0  0  0  0  0  0  0
    5.5509   -0.1708    2.0636 O   0  0  0  0  0  0  0  0  0  0  0  0
    4.8596    1.6534    0.6021 O   0  0  0  0  0  0  0  0  0  0  0  0
    6.8637    0.1141   -0.2075 C   0  0  0  0  0  0  0  0  0  0  0  0
    7.5980   -1.1099    0.2528 C   0  0  0  0  0  0  0  0  0  0  0  0
    7.7106    1.3036    0.3217 C   0  0  0  0  0  0  0  0  0  0  0  0
    0.0747    0.2716    1.0909 N   0  0  0  0  0  0  0  0  0  0  0  0
   -7.1722    3.0705   -0.7214 C   0  0  0  0  0  0  0  0  0  0  0  0
   -7.0374    3.4177   -2.0767 F   0  0  0  0  0  0  0  0  0  0  0  0
   -8.2778    2.3015   -0.4916 F   0  0  0  0  0  0  0  0  0  0  0  0
   -7.2315    4.2833   -0.0541 F   0  0  0  0  0  0  0  0  0  0  0  0
   -6.2280   -1.6630   -0.3589 H   0  0  0  0  0  0  0  0  0  0  0  0
   -6.2473   -3.1678   -1.3693 H   0  0  0  0  0  0  0  0  0  0  0  0
   -6.7612   -1.5535   -2.1316 H   0  0  0  0  0  0  0  0  0  0  0  0
   -4.6471   -1.3877   -2.7801 H   0  0  0  0  0  0  0  0  0  0  0  0
   -2.8840   -2.9084   -1.2121 H   0  0  0  0  0  0  0  0  0  0  0  0
   -4.4396   -3.7558   -0.9117 H   0  0  0  0  0  0  0  0  0  0  0  0
   -3.8002   -3.6344   -2.6294 H   0  0  0  0  0  0  0  0  0  0  0  0
   -6.3579    0.6269   -1.4170 H   0  0  0  0  0  0  0  0  0  0  0  0
   -5.0975    4.0011    0.7765 H   0  0  0  0  0  0  0  0  0  0  0  0
   -3.0035    2.9304    1.3099 H   0  0  0  0  0  0  0  0  0  0  0  0
   -1.9591   -0.2998   -0.3140 H   0  0  0  0  0  0  0  0  0  0  0  0
   -0.3125    2.6670    3.9269 H   0  0  0  0  0  0  0  0  0  0  0  0
    3.2482    0.4354    1.9938 H   0  0  0  0  0  0  0  0  0  0  0  0
    0.8671   -1.7409    0.0905 H   0  0  0  0  0  0  0  0  0  0  0  0
    1.5243   -3.1992   -1.7313 H   0  0  0  0  0  0  0  0  0  0  0  0
    3.8736   -3.1629   -2.5091 H   0  0  0  0  0  0  0  0  0  0  0  0
    5.4490   -1.6867   -1.4989 H   0  0  0  0  0  0  0  0  0  0  0  0
    6.7266    0.2411   -1.2796 H   0  0  0  0  0  0  0  0  0  0  0  0
    7.4198   -1.2065    1.3497 H   0  0  0  0  0  0  0  0  0  0  0  0
    8.7200   -0.9487    0.1404 H   0  0  0  0  0  0  0  0  0  0  0  0
    7.4129   -2.0245   -0.3076 H   0  0  0  0  0  0  0  0  0  0  0  0
    7.3965    1.4582    1.3470 H   0  0  0  0  0  0  0  0  0  0  0  0
    7.4770    2.2073   -0.2880 H   0  0  0  0  0  0  0  0  0  0  0  0
    8.7850    1.0195    0.2947 H   0  0  0  0  0  0  0  0  0  0  0  0
  1  2  1  0
  2  3  1  0
  2  4  1  0
  4  5  1  0
  5  6  2  0
  6  7  1  0
  7  8  2  0
  8  9  1  0
  9 10  2  0
 10 11  1  0
 11 12  1  0
 12 13  2  0
 13 14  1  0
 14 15  2  0
 15 16  1  0
 15 17  1  0
 17 18  1  0
 18 19  1  0
 19 20  2  0
 20 21  1  0
 21 22  2  0
 22 23  1  0
 23 24  2  0
 24 25  1  0
 25 26  2  0
 25 27  2  0
 25 28  1  0
 28 29  1  0
 28 30  1  0
 17 31  2  0
  7 32  1  0
 32 33  1  0
 32 34  1  0
 32 35  1  0
 10  5  1  0
 31 12  1  0
 24 19  1  0
  1 36  1  0
  1 37  1  0
  1 38  1  0
  2 39  1  0
  3 40  1  0
  3 41  1  0
  3 42  1  0
  6 43  1  0
  8 44  1  0
  9 45  1  0
 11 46  1  0
 14 47  1  0
 18 48  1  0
 20 49  1  0
 21 50  1  0
 22 51  1  0
 23 52  1  0
 28 53  1  0
 29 54  1  0
 29 55  1  0
 29 56  1  0
 30 57  1  0
 30 58  1  0
 30 59  1  0
M  END
$$$$
