[H]c1c(-c2nc3c([H])c(OC([H])([H])C([H])([H])C([H])([H])N4C([H])([H])C([H])([H])C([H])([H])C4([H])[H])c(OC([H])([H])[H])c([H])c3c(N([H])C([H])([H])C3([H])C([H])([H])C([H])([H])N(C([H])([H])[H])C([H])([H])C3([H])[H])c2[H])oc(C([H])([H])[H])c1[H]
     RDKit          3D

 76 80  0  0  0  0  0  0  0  0999 V2000
   -1.4344   -4.2979   -1.8339 C   0  0  0  0  0  0  0  0  0  0  0  0
   -2.0539   -3.0672   -1.6189 O   0  0  0  0  0  0  0  0  0  0  0  0
   -1.4667   -1.9786   -0.9843 C   0  0  0  0  0  0  0  0  0  0  0  0
   -0.1777   -2.1022   -0.5247 C   0  0  0  0  0  0  0  0  0  0  0  0
    0.4795   -1.0703    0.1171 C   0  0  0  0  0  0  0  0  0  0  0  0
    1.7706   -1.2031    0.5776 C   0  0  0  0  0  0  0  0  0  0  0  0
    2.4905   -2.4160    0.4767 N   0  0  0  0  0  0  0  0  0  0  0  0
    3.8883   -2.6141    0.7219 C   0  0  0  0  0  0  0  0  0  0  0  0
    4.8056   -2.3037   -0.4210 C   0  0  0  0  0  0  0  0  0  0  0  0
    4.8032   -0.9087   -0.9379 C   0  0  0  0  0  0  0  0  0  0  0  0
    5.9667   -0.8276   -1.9314 C   0  0  0  0  0  0  0  0  0  0  0  0
    7.2322   -0.8282   -1.2275 N   0  0  0  0  0  0  0  0  0  0  0  0
    7.7544    0.5144   -1.0533 C   0  0  0  0  0  0  0  0  0  0  0  0
    7.1182   -1.4202    0.0821 C   0  0  0  0  0  0  0  0  0  0  0  0
    6.2309   -2.6170    0.0311 C   0  0  0  0  0  0  0  0  0  0  0  0
    2.3189   -0.0805    1.2117 C   0  0  0  0  0  0  0  0  0  0  0  0
    1.6051    1.0930    1.3657 C   0  0  0  0  0  0  0  0  0  0  0  0
    0.3546    1.1505    0.8937 N   0  0  0  0  0  0  0  0  0  0  0  0
   -0.2364    0.1130    0.2754 C   0  0  0  0  0  0  0  0  0  0  0  0
   -1.5415    0.2446   -0.1880 C   0  0  0  0  0  0  0  0  0  0  0  0
   -2.1927   -0.7824   -0.8240 C   0  0  0  0  0  0  0  0  0  0  0  0
   -3.4546   -0.7706   -1.3087 O   0  0  0  0  0  0  0  0  0  0  0  0
   -4.4646    0.1511   -1.3292 C   0  0  0  0  0  0  0  0  0  0  0  0
   -4.9679    0.5517    0.0218 C   0  0  0  0  0  0  0  0  0  0  0  0
   -6.1030    1.5752   -0.0899 C   0  0  0  0  0  0  0  0  0  0  0  0
   -7.2097    0.9636   -0.8412 N   0  0  0  0  0  0  0  0  0  0  0  0
   -7.7626   -0.0792   -0.0373 C   0  0  0  0  0  0  0  0  0  0  0  0
   -9.2549    0.0145   -0.0377 C   0  0  0  0  0  0  0  0  0  0  0  0
   -9.5500    1.2358   -0.8679 C   0  0  0  0  0  0  0  0  0  0  0  0
   -8.2405    1.9012   -1.1592 C   0  0  0  0  0  0  0  0  0  0  0  0
    2.1998    2.2459    2.0285 C   0  0  0  0  0  0  0  0  0  0  0  0
    3.4725    2.3287    2.5550 C   0  0  0  0  0  0  0  0  0  0  0  0
    3.6106    3.5780    3.0765 C   0  0  0  0  0  0  0  0  0  0  0  0
    2.4238    4.2402    2.8625 C   0  0  0  0  0  0  0  0  0  0  0  0
    2.1714    5.6363    3.2876 C   0  0  0  0  0  0  0  0  0  0  0  0
    1.6223    3.4079    2.2387 O   0  0  0  0  0  0  0  0  0  0  0  0
   -0.7473   -4.1882   -2.7089 H   0  0  0  0  0  0  0  0  0  0  0  0
   -2.2543   -5.0114   -2.1510 H   0  0  0  0  0  0  0  0  0  0  0  0
   -0.9282   -4.7322   -0.9513 H   0  0  0  0  0  0  0  0  0  0  0  0
    0.3155   -3.0517   -0.6923 H   0  0  0  0  0  0  0  0  0  0  0  0
    1.9263   -3.2732    0.1966 H   0  0  0  0  0  0  0  0  0  0  0  0
    4.1697   -2.0305    1.6319 H   0  0  0  0  0  0  0  0  0  0  0  0
    4.0520   -3.6987    0.9566 H   0  0  0  0  0  0  0  0  0  0  0  0
    4.5526   -2.9707   -1.2978 H   0  0  0  0  0  0  0  0  0  0  0  0
    5.1022   -0.1801   -0.1339 H   0  0  0  0  0  0  0  0  0  0  0  0
    3.9063   -0.5922   -1.4694 H   0  0  0  0  0  0  0  0  0  0  0  0
    5.9182   -1.7869   -2.4939 H   0  0  0  0  0  0  0  0  0  0  0  0
    5.8898    0.0321   -2.5987 H   0  0  0  0  0  0  0  0  0  0  0  0
    7.5386    0.8929   -0.0121 H   0  0  0  0  0  0  0  0  0  0  0  0
    7.3788    1.1793   -1.8403 H   0  0  0  0  0  0  0  0  0  0  0  0
    8.8517    0.4540   -1.1465 H   0  0  0  0  0  0  0  0  0  0  0  0
    8.1512   -1.8180    0.3192 H   0  0  0  0  0  0  0  0  0  0  0  0
    6.8887   -0.7250    0.8883 H   0  0  0  0  0  0  0  0  0  0  0  0
    6.2222   -3.0458    1.0753 H   0  0  0  0  0  0  0  0  0  0  0  0
    6.6198   -3.4157   -0.6099 H   0  0  0  0  0  0  0  0  0  0  0  0
    3.3180   -0.1327    1.6070 H   0  0  0  0  0  0  0  0  0  0  0  0
   -2.0550    1.1832   -0.0584 H   0  0  0  0  0  0  0  0  0  0  0  0
   -5.3337   -0.2750   -1.9195 H   0  0  0  0  0  0  0  0  0  0  0  0
   -4.2301    1.0907   -1.8826 H   0  0  0  0  0  0  0  0  0  0  0  0
   -4.2058    0.9660    0.6681 H   0  0  0  0  0  0  0  0  0  0  0  0
   -5.3804   -0.3921    0.4843 H   0  0  0  0  0  0  0  0  0  0  0  0
   -5.7586    2.4676   -0.6339 H   0  0  0  0  0  0  0  0  0  0  0  0
   -6.3960    1.8286    0.9483 H   0  0  0  0  0  0  0  0  0  0  0  0
   -7.4014    0.0391    1.0151 H   0  0  0  0  0  0  0  0  0  0  0  0
   -7.4468   -1.0911   -0.4241 H   0  0  0  0  0  0  0  0  0  0  0  0
   -9.6156    0.1345    1.0081 H   0  0  0  0  0  0  0  0  0  0  0  0
   -9.7297   -0.8925   -0.4848 H   0  0  0  0  0  0  0  0  0  0  0  0
  -10.0795    0.9622   -1.8068 H   0  0  0  0  0  0  0  0  0  0  0  0
  -10.2181    1.8958   -0.2499 H   0  0  0  0  0  0  0  0  0  0  0  0
   -8.0848    2.8212   -0.5325 H   0  0  0  0  0  0  0  0  0  0  0  0
   -8.2276    2.2423   -2.2133 H   0  0  0  0  0  0  0  0  0  0  0  0
    4.2086    1.5277    2.5418 H   0  0  0  0  0  0  0  0  0  0  0  0
    4.4952    3.9674    3.5649 H   0  0  0  0  0  0  0  0  0  0  0  0
    2.8773    5.9129    4.0944 H   0  0  0  0  0  0  0  0  0  0  0  0
    2.3549    6.3533    2.4530 H   0  0  0  0  0  0  0  0  0  0  0  0
    1.1471    5.7749    3.6826 H   0  0  0  0  0  0  0  0  0  0  0  0
  1  2  1  0
  2  3  1  0
  3  4  2  0
  4  5  1  0
  5  6  2  0
  6  7  1  0
  7  8  1  0
  8  9  1  0
  9 10  1  0
 10 11  1  0
 11 12  1  0
 12 13  1  0
 12 14  1  0
 14 15  1  0
  6 16  1  0
 16 17  2  0
 17 18  1  0
 18 19  2  0
 19 20  1  0
 20 21  2  0
 21 22  1  0
 22 23  1  0
 23 24  1  0
 24 25  1  0
 25 26  1  0
 26 27  1  0
 27 28  1  0
 28 29  1  0
 29 30  1  0
 17 31  1  0
 31 32  2  0
 32 33  1  0
 33 34  2  0
 34 35  1  0
 34 36  1  0
 21  3  1  0
 30 26  1  0
 36 31  1  0
 19  5  1  0
 15  9  1  0
  1 37  1  0
  1 38  1  0
  1 39  1  0
  4 40  1  0
  7 41  1  0
  8 42  1  0
  8 43  1  0
  9 44  1  0
 10 45  1  0
 10 46  1  0
 11 47  1  0
 11 48  1  0
 13 49  1  0
 13 50  1  0
 13 51  1  0
 14 52  1  0
 14 53  1  0
 15 54  1  0
 15 55  1  0
 16 56  1  0
 20 57  1  0
 23 58  1  0
 23 59  1  0
 24 60  1  0
 24 61  1  0
 25 62  1  0
 25 63  1  0
 27 64  1  0
 27 65  1  0
 28 66  1  0
 28 67  1  0
 29 68  1  0
 29 69  1  0
 30 70  1  0
 30 71  1  0
 32 72  1  0
 33 73  1  0
 35 74  1  0
 35 75  1  0
 35 76  1  0
M  END
$$$$
[H]c1c2c(c([H])c(OC([H])([H])[H])c1OC([H])([H])C([H])([H])C([H])([H])N1C([H])([H])C([H])([H])[C@@]([H])(F)C1([H])[H])C1(C(N([H])[H])=N2)C([H])([H])C([H])([H])C1([H])[H]
     RDKit          3D

 51 54  0  0  0  0  0  0  0  0999 V2000
   -1.9331   -4.0492   -1.1021 C   0  0  0  0  0  0  0  0  0  0  0  0
   -1.1730   -2.9402   -0.7345 O   0  0  0  0  0  0  0  0  0  0  0  0
   -1.6601   -1.6949   -0.3774 C   0  0  0  0  0  0  0  0  0  0  0  0
   -2.9903   -1.3544   -0.3400 C   0  0  0  0  0  0  0  0  0  0  0  0
   -3.4108   -0.0727    0.0320 C   0  0  0  0  0  0  0  0  0  0  0  0
   -2.4773    0.8799    0.3713 C   0  0  0  0  0  0  0  0  0  0  0  0
   -1.1365    0.5190    0.3283 C   0  0  0  0  0  0  0  0  0  0  0  0
   -0.6994   -0.7339   -0.0338 C   0  0  0  0  0  0  0  0  0  0  0  0
    0.6522   -1.0616   -0.0651 O   0  0  0  0  0  0  0  0  0  0  0  0
    1.5909   -0.0806    0.2856 C   0  0  0  0  0  0  0  0  0  0  0  0
    3.0161   -0.6167    0.1991 C   0  0  0  0  0  0  0  0  0  0  0  0
    3.9726    0.4695    0.5829 C   0  0  0  0  0  0  0  0  0  0  0  0
    5.3579    0.0291    0.5234 N   0  0  0  0  0  0  0  0  0  0  0  0
    5.7324   -0.2134   -0.8368 C   0  0  0  0  0  0  0  0  0  0  0  0
    6.9929    0.5204   -1.1539 C   0  0  0  0  0  0  0  0  0  0  0  0
    7.2865    1.3202    0.0674 C   0  0  1  0  0  0  0  0  0  0  0  0
    7.4329    2.6707   -0.2410 F   0  0  0  0  0  0  0  0  0  0  0  0
    6.1876    1.0810    1.0509 C   0  0  0  0  0  0  0  0  0  0  0  0
   -3.1726    2.0736    0.6992 N   0  0  0  0  0  0  0  0  0  0  0  0
   -4.4479    1.9304    0.5892 C   0  0  0  0  0  0  0  0  0  0  0  0
   -5.4588    2.9167    0.8371 N   0  0  0  0  0  0  0  0  0  0  0  0
   -4.7230    0.5648    0.1618 C   0  0  0  0  0  0  0  0  0  0  0  0
   -5.7472   -0.1947    0.9646 C   0  0  0  0  0  0  0  0  0  0  0  0
   -6.7873    0.1828   -0.0642 C   0  0  0  0  0  0  0  0  0  0  0  0
   -5.6349    0.4208   -1.0378 C   0  0  0  0  0  0  0  0  0  0  0  0
   -2.2551   -4.0502   -2.1716 H   0  0  0  0  0  0  0  0  0  0  0  0
   -1.4104   -5.0171   -0.8667 H   0  0  0  0  0  0  0  0  0  0  0  0
   -2.8514   -4.0648   -0.4467 H   0  0  0  0  0  0  0  0  0  0  0  0
   -3.7264   -2.1044   -0.6070 H   0  0  0  0  0  0  0  0  0  0  0  0
   -0.4289    1.2986    0.6036 H   0  0  0  0  0  0  0  0  0  0  0  0
    1.5257    0.8183   -0.3430 H   0  0  0  0  0  0  0  0  0  0  0  0
    1.4068    0.2031    1.3527 H   0  0  0  0  0  0  0  0  0  0  0  0
    3.0745   -1.4333    0.9679 H   0  0  0  0  0  0  0  0  0  0  0  0
    3.2304   -1.0769   -0.7719 H   0  0  0  0  0  0  0  0  0  0  0  0
    3.8859    1.3498   -0.0740 H   0  0  0  0  0  0  0  0  0  0  0  0
    3.7655    0.7676    1.6443 H   0  0  0  0  0  0  0  0  0  0  0  0
    5.9135   -1.2911   -1.0494 H   0  0  0  0  0  0  0  0  0  0  0  0
    4.9361    0.2008   -1.5040 H   0  0  0  0  0  0  0  0  0  0  0  0
    7.8533   -0.1808   -1.3580 H   0  0  0  0  0  0  0  0  0  0  0  0
    6.8848    1.1766   -2.0617 H   0  0  0  0  0  0  0  0  0  0  0  0
    8.2753    1.0196    0.5012 H   0  0  0  0  0  0  0  0  0  0  0  0
    6.6101    0.8488    2.0495 H   0  0  0  0  0  0  0  0  0  0  0  0
    5.6315    2.0351    1.1721 H   0  0  0  0  0  0  0  0  0  0  0  0
   -5.4678    3.8008    0.3062 H   0  0  0  0  0  0  0  0  0  0  0  0
   -6.1799    2.7411    1.5509 H   0  0  0  0  0  0  0  0  0  0  0  0
   -5.9390    0.2011    1.9809 H   0  0  0  0  0  0  0  0  0  0  0  0
   -5.5722   -1.2872    0.9439 H   0  0  0  0  0  0  0  0  0  0  0  0
   -7.4686   -0.6340   -0.3801 H   0  0  0  0  0  0  0  0  0  0  0  0
   -7.3037    1.1587    0.1173 H   0  0  0  0  0  0  0  0  0  0  0  0
   -5.6940    1.3968   -1.5712 H   0  0  0  0  0  0  0  0  0  0  0  0
   -5.4658   -0.4442   -1.6859 H   0  0  0  0  0  0  0  0  0  0  0  0
  1  2  1  0
  2  3  1  0
  3  4  2  0
  4  5  1  0
  5  6  2  0
  6  7  1  0
  7  8  2  0
  8  9  1  0
  9 10  1  0
 10 11  1  0
 11 12  1  0
 12 13  1  0
 13 14  1  0
 14 15  1  0
 15 16  1  0
 16 17  1  0
 16 18  1  0
  6 19  1  0
 19 20  2  0
 20 21  1  0
 20 22  1  0
 22 23  1  0
 23 24  1  0
 24 25  1  0
  8  3  1  0
 18 13  1  0
 25 22  1  0
 22  5  1  0
  1 26  1  0
  1 27  1  0
  1 28  1  0
  4 29  1  0
  7 30  1  0
 10 31  1  0
 10 32  1  0
 11 33  1  0
 11 34  1  0
 12 35  1  0
 12 36  1  0
 14 37  1  0
 14 38  1  0
 15 39  1  0
 15 40  1  0
 16 41  1  1
 18 42  1  0
 18 43  1  0
 21 44  1  0
 21 45  1  0
 23 46  1  0
 23 47  1  0
 24 48  1  0
 24 49  1  0
 25 50  1  0
 25 51  1  0
M  END
$$$$
[H]c1c(-c2nc3c([H])c(OC([H])([H])C([H])([H])C([H])([H])N4C([H])([H])C([H])([H])C([H])([H])C4([H])[H])c(OC([H])([H])[H])c([H])c3c(N([H])C3([H])C([H])([H])C([H])([H])N(C4([H])C([H])([H])C4([H])[H])C([H])([H])C3([H])[H])c2[H])oc(C([H])([H])[H])c1[H]
     RDKit          3D

 77 82  0  0  0  0  0  0  0  0999 V2000
    0.4670   -3.3439    1.7887 C   0  0  0  0  0  0  0  0  0  0  0  0
    1.4686   -2.5164    1.2045 O   0  0  0  0  0  0  0  0  0  0  0  0
    1.1174   -1.2557    0.7431 C   0  0  0  0  0  0  0  0  0  0  0  0
   -0.2009   -0.7977    0.8469 C   0  0  0  0  0  0  0  0  0  0  0  0
   -0.6012    0.4482    0.4027 C   0  0  0  0  0  0  0  0  0  0  0  0
   -1.9004    0.9204    0.4986 C   0  0  0  0  0  0  0  0  0  0  0  0
   -2.8906    0.1139    1.0839 N   0  0  0  0  0  0  0  0  0  0  0  0
   -4.2908    0.4963    1.1974 C   0  0  0  0  0  0  0  0  0  0  0  0
   -4.9880    0.6508   -0.1198 C   0  0  0  0  0  0  0  0  0  0  0  0
   -6.2178   -0.2705   -0.1804 C   0  0  0  0  0  0  0  0  0  0  0  0
   -5.7114   -1.6174   -0.0229 N   0  0  0  0  0  0  0  0  0  0  0  0
   -5.2654   -1.8029    1.3123 C   0  0  0  0  0  0  0  0  0  0  0  0
   -5.0539   -0.4940    2.0521 C   0  0  0  0  0  0  0  0  0  0  0  0
   -6.6171   -2.5844   -0.5460 C   0  0  0  0  0  0  0  0  0  0  0  0
   -6.3713   -4.0366   -0.4467 C   0  0  0  0  0  0  0  0  0  0  0  0
   -7.5721   -3.3509    0.2495 C   0  0  0  0  0  0  0  0  0  0  0  0
   -2.2024    2.2039    0.0179 C   0  0  0  0  0  0  0  0  0  0  0  0
   -1.2541    3.0206   -0.5504 C   0  0  0  0  0  0  0  0  0  0  0  0
   -0.0064    2.5354   -0.6289 N   0  0  0  0  0  0  0  0  0  0  0  0
    0.3251    1.3031   -0.1764 C   0  0  0  0  0  0  0  0  0  0  0  0
    1.6224    0.8448   -0.2754 C   0  0  0  0  0  0  0  0  0  0  0  0
    2.0228   -0.3980    0.1679 C   0  0  0  0  0  0  0  0  0  0  0  0
    3.3650   -0.7890    0.0304 O   0  0  0  0  0  0  0  0  0  0  0  0
    4.3168    0.0799   -0.5600 C   0  0  0  0  0  0  0  0  0  0  0  0
    5.6822   -0.6205   -0.5636 C   0  0  0  0  0  0  0  0  0  0  0  0
    6.0653   -0.9285    0.8518 C   0  0  0  0  0  0  0  0  0  0  0  0
    7.3306   -1.5813    0.9574 N   0  0  0  0  0  0  0  0  0  0  0  0
    8.4471   -0.7670    0.6060 C   0  0  0  0  0  0  0  0  0  0  0  0
    9.4601   -1.7402    0.0190 C   0  0  0  0  0  0  0  0  0  0  0  0
    8.5559   -2.7110   -0.7187 C   0  0  0  0  0  0  0  0  0  0  0  0
    7.3753   -2.8040    0.2254 C   0  0  0  0  0  0  0  0  0  0  0  0
   -1.5918    4.3591   -1.0499 C   0  0  0  0  0  0  0  0  0  0  0  0
   -2.8435    4.9293   -1.0097 C   0  0  0  0  0  0  0  0  0  0  0  0
   -2.7500    6.1827   -1.5714 C   0  0  0  0  0  0  0  0  0  0  0  0
   -1.4135    6.3141   -1.9329 C   0  0  0  0  0  0  0  0  0  0  0  0
   -0.8056    7.5001   -2.5827 C   0  0  0  0  0  0  0  0  0  0  0  0
   -0.7747    5.2166   -1.6057 O   0  0  0  0  0  0  0  0  0  0  0  0
   -0.3258   -3.6105    1.0661 H   0  0  0  0  0  0  0  0  0  0  0  0
    0.9110   -4.2588    2.2290 H   0  0  0  0  0  0  0  0  0  0  0  0
   -0.0412   -2.8032    2.6142 H   0  0  0  0  0  0  0  0  0  0  0  0
   -0.9216   -1.4684    1.2980 H   0  0  0  0  0  0  0  0  0  0  0  0
   -2.6500   -0.8169    1.4718 H   0  0  0  0  0  0  0  0  0  0  0  0
   -4.3215    1.4632    1.7236 H   0  0  0  0  0  0  0  0  0  0  0  0
   -5.3339    1.6851   -0.3371 H   0  0  0  0  0  0  0  0  0  0  0  0
   -4.2978    0.2546   -0.9019 H   0  0  0  0  0  0  0  0  0  0  0  0
   -6.7359   -0.1082   -1.1448 H   0  0  0  0  0  0  0  0  0  0  0  0
   -6.9526   -0.0017    0.6062 H   0  0  0  0  0  0  0  0  0  0  0  0
   -4.2422   -2.2788    1.2583 H   0  0  0  0  0  0  0  0  0  0  0  0
   -5.9537   -2.4144    1.8876 H   0  0  0  0  0  0  0  0  0  0  0  0
   -6.0022   -0.0451    2.4109 H   0  0  0  0  0  0  0  0  0  0  0  0
   -4.4596   -0.7463    2.9593 H   0  0  0  0  0  0  0  0  0  0  0  0
   -7.0120   -2.2729   -1.5628 H   0  0  0  0  0  0  0  0  0  0  0  0
   -6.6346   -4.7104   -1.2991 H   0  0  0  0  0  0  0  0  0  0  0  0
   -5.6316   -4.4866    0.2257 H   0  0  0  0  0  0  0  0  0  0  0  0
   -7.6090   -3.4112    1.3427 H   0  0  0  0  0  0  0  0  0  0  0  0
   -8.5761   -3.6142   -0.1971 H   0  0  0  0  0  0  0  0  0  0  0  0
   -3.1912    2.5835    0.0903 H   0  0  0  0  0  0  0  0  0  0  0  0
    2.3344    1.5414   -0.7378 H   0  0  0  0  0  0  0  0  0  0  0  0
    4.4339    1.0262    0.0057 H   0  0  0  0  0  0  0  0  0  0  0  0
    4.0933    0.3295   -1.5971 H   0  0  0  0  0  0  0  0  0  0  0  0
    6.3905    0.1314   -1.0027 H   0  0  0  0  0  0  0  0  0  0  0  0
    5.6583   -1.4873   -1.2363 H   0  0  0  0  0  0  0  0  0  0  0  0
    6.1390    0.0372    1.3949 H   0  0  0  0  0  0  0  0  0  0  0  0
    5.2523   -1.5585    1.2883 H   0  0  0  0  0  0  0  0  0  0  0  0
    8.2286   -0.0163   -0.1715 H   0  0  0  0  0  0  0  0  0  0  0  0
    8.8892   -0.2355    1.4800 H   0  0  0  0  0  0  0  0  0  0  0  0
   10.1067   -1.1990   -0.7007 H   0  0  0  0  0  0  0  0  0  0  0  0
   10.0363   -2.2239    0.8310 H   0  0  0  0  0  0  0  0  0  0  0  0
    9.1144   -3.6660   -0.7806 H   0  0  0  0  0  0  0  0  0  0  0  0
    8.2902   -2.2664   -1.6767 H   0  0  0  0  0  0  0  0  0  0  0  0
    6.4310   -3.0929   -0.2749 H   0  0  0  0  0  0  0  0  0  0  0  0
    7.6094   -3.6524    0.9136 H   0  0  0  0  0  0  0  0  0  0  0  0
   -3.7549    4.5009   -0.6173 H   0  0  0  0  0  0  0  0  0  0  0  0
   -3.5624    6.8646   -1.6809 H   0  0  0  0  0  0  0  0  0  0  0  0
   -1.5993    7.9581   -3.2354 H   0  0  0  0  0  0  0  0  0  0  0  0
   -0.4452    8.2219   -1.8112 H   0  0  0  0  0  0  0  0  0  0  0  0
    0.0374    7.1387   -3.2057 H   0  0  0  0  0  0  0  0  0  0  0  0
  1  2  1  0
  2  3  1  0
  3  4  2  0
  4  5  1  0
  5  6  2  0
  6  7  1  0
  7  8  1  0
  8  9  1  0
  9 10  1  0
 10 11  1  0
 11 12  1  0
 12 13  1  0
 11 14  1  0
 14 15  1  0
 15 16  1  0
  6 17  1  0
 17 18  2  0
 18 19  1  0
 19 20  2  0
 20 21  1  0
 21 22  2  0
 22 23  1  0
 23 24  1  0
 24 25  1  0
 25 26  1  0
 26 27  1  0
 27 28  1  0
 28 29  1  0
 29 30  1  0
 30 31  1  0
 18 32  1  0
 32 33  2  0
 33 34  1  0
 34 35  2  0
 35 36  1  0
 35 37  1  0
 22  3  1  0
 31 27  1  0
 37 32  1  0
 20  5  1  0
 13  8  1  0
 16 14  1  0
  1 38  1  0
  1 39  1  0
  1 40  1  0
  4 41  1  0
  7 42  1  0
  8 43  1  0
  9 44  1  0
  9 45  1  0
 10 46  1  0
 10 47  1  0
 12 48  1  0
 12 49  1  0
 13 50  1  0
 13 51  1  0
 14 52  1  0
 15 53  1  0
 15 54  1  0
 16 55  1  0
 16 56  1  0
 17 57  1  0
 21 58  1  0
 24 59  1  0
 24 60  1  0
 25 61  1  0
 25 62  1  0
 26 63  1  0
 26 64  1  0
 28 65  1  0
 28 66  1  0
 29 67  1  0
 29 68  1  0
 30 69  1  0
 30 70  1  0
 31 71  1  0
 31 72  1  0
 33 73  1  0
 34 74  1  0
 36 75  1  0
 36 76  1  0
 36 77  1  0
M  END
$$$$
[H]c1c(-c2nc3c([H])c(OC([H])([H])C([H])([H])C([H])([H])N4C([H])([H])C([H])([H])C([H])([H])C4([H])[H])c(OC([H])([H])[H])c([H])c3c(N([H])C3([H])C([H])([H])C([H])([H])N([H])C([H])([H])C3([H])[H])c2[H])oc(C([H])([H])[H])c1[H]
     RDKit          3D

 70 74  0  0  0  0  0  0  0  0999 V2000
    1.4656    3.7592    0.1804 C   0  0  0  0  0  0  0  0  0  0  0  0
    2.0374    2.4792    0.3835 O   0  0  0  0  0  0  0  0  0  0  0  0
    1.1932    1.3731    0.3927 C   0  0  0  0  0  0  0  0  0  0  0  0
   -0.1828    1.5158    0.2067 C   0  0  0  0  0  0  0  0  0  0  0  0
   -1.0709    0.4709    0.2042 C   0  0  0  0  0  0  0  0  0  0  0  0
   -2.4482    0.6723    0.0118 C   0  0  0  0  0  0  0  0  0  0  0  0
   -2.9863    1.9581   -0.1841 N   0  0  0  0  0  0  0  0  0  0  0  0
   -4.3342    2.3510   -0.4107 C   0  0  0  0  0  0  0  0  0  0  0  0
   -5.0003    1.8050   -1.6281 C   0  0  0  0  0  0  0  0  0  0  0  0
   -6.0074    2.8715   -2.1025 C   0  0  0  0  0  0  0  0  0  0  0  0
   -6.6391    3.3865   -0.9023 N   0  0  0  0  0  0  0  0  0  0  0  0
   -6.6768    2.4583    0.1883 C   0  0  0  0  0  0  0  0  0  0  0  0
   -5.2736    2.1949    0.7629 C   0  0  0  0  0  0  0  0  0  0  0  0
   -3.2472   -0.4509    0.0282 C   0  0  0  0  0  0  0  0  0  0  0  0
   -2.7045   -1.7103    0.2259 C   0  0  0  0  0  0  0  0  0  0  0  0
   -1.3829   -1.8428    0.4043 N   0  0  0  0  0  0  0  0  0  0  0  0
   -0.5507   -0.7917    0.3994 C   0  0  0  0  0  0  0  0  0  0  0  0
    0.8183   -0.9659    0.5878 C   0  0  0  0  0  0  0  0  0  0  0  0
    1.6833    0.1021    0.5850 C   0  0  0  0  0  0  0  0  0  0  0  0
    3.0300   -0.1350    0.7770 O   0  0  0  0  0  0  0  0  0  0  0  0
    3.4994   -1.4511    0.9704 C   0  0  0  0  0  0  0  0  0  0  0  0
    5.0058   -1.4516    1.1581 C   0  0  0  0  0  0  0  0  0  0  0  0
    5.6967   -0.8767   -0.0423 C   0  0  0  0  0  0  0  0  0  0  0  0
    7.1252   -0.8895    0.1590 N   0  0  0  0  0  0  0  0  0  0  0  0
    7.8578   -0.3531   -0.9446 C   0  0  0  0  0  0  0  0  0  0  0  0
    8.6051    0.8554   -0.4434 C   0  0  0  0  0  0  0  0  0  0  0  0
    8.8046    0.5419    1.0156 C   0  0  0  0  0  0  0  0  0  0  0  0
    7.5236   -0.2000    1.3445 C   0  0  0  0  0  0  0  0  0  0  0  0
   -3.6047   -2.8590    0.2325 C   0  0  0  0  0  0  0  0  0  0  0  0
   -4.9634   -2.8617    0.0644 C   0  0  0  0  0  0  0  0  0  0  0  0
   -5.3555   -4.1846    0.1519 C   0  0  0  0  0  0  0  0  0  0  0  0
   -4.2208   -4.9202    0.3683 C   0  0  0  0  0  0  0  0  0  0  0  0
   -4.1886   -6.3992    0.5245 C   0  0  0  0  0  0  0  0  0  0  0  0
   -3.2241   -4.0896    0.4064 O   0  0  0  0  0  0  0  0  0  0  0  0
    2.2065    4.5610    0.2692 H   0  0  0  0  0  0  0  0  0  0  0  0
    0.6946    3.9712    0.9789 H   0  0  0  0  0  0  0  0  0  0  0  0
    0.8907    3.7962   -0.7835 H   0  0  0  0  0  0  0  0  0  0  0  0
   -0.5331    2.5104    0.0595 H   0  0  0  0  0  0  0  0  0  0  0  0
   -2.2919    2.7544   -0.1581 H   0  0  0  0  0  0  0  0  0  0  0  0
   -4.3545    3.5027   -0.5846 H   0  0  0  0  0  0  0  0  0  0  0  0
   -4.3330    1.4973   -2.4353 H   0  0  0  0  0  0  0  0  0  0  0  0
   -5.6549    0.9425   -1.3076 H   0  0  0  0  0  0  0  0  0  0  0  0
   -6.7015    2.4606   -2.8340 H   0  0  0  0  0  0  0  0  0  0  0  0
   -5.3987    3.6586   -2.5743 H   0  0  0  0  0  0  0  0  0  0  0  0
   -6.3045    4.3094   -0.6159 H   0  0  0  0  0  0  0  0  0  0  0  0
   -7.1879    1.5465   -0.1213 H   0  0  0  0  0  0  0  0  0  0  0  0
   -7.3090    2.9217    0.9857 H   0  0  0  0  0  0  0  0  0  0  0  0
   -5.0733    2.9976    1.5343 H   0  0  0  0  0  0  0  0  0  0  0  0
   -5.2939    1.2220    1.2307 H   0  0  0  0  0  0  0  0  0  0  0  0
   -4.3167   -0.4076   -0.1081 H   0  0  0  0  0  0  0  0  0  0  0  0
    1.1794   -1.9730    0.7368 H   0  0  0  0  0  0  0  0  0  0  0  0
    2.9926   -1.9435    1.7998 H   0  0  0  0  0  0  0  0  0  0  0  0
    3.2791   -2.0130    0.0164 H   0  0  0  0  0  0  0  0  0  0  0  0
    5.2939   -2.5206    1.3015 H   0  0  0  0  0  0  0  0  0  0  0  0
    5.2923   -0.8548    2.0333 H   0  0  0  0  0  0  0  0  0  0  0  0
    5.4037    0.2118   -0.1028 H   0  0  0  0  0  0  0  0  0  0  0  0
    5.3970   -1.3562   -0.9883 H   0  0  0  0  0  0  0  0  0  0  0  0
    8.5245   -1.1267   -1.3805 H   0  0  0  0  0  0  0  0  0  0  0  0
    7.1089    0.0262   -1.6863 H   0  0  0  0  0  0  0  0  0  0  0  0
    8.0241    1.7838   -0.6028 H   0  0  0  0  0  0  0  0  0  0  0  0
    9.6129    0.9254   -0.9424 H   0  0  0  0  0  0  0  0  0  0  0  0
    9.7037   -0.0962    1.1349 H   0  0  0  0  0  0  0  0  0  0  0  0
    8.9527    1.4378    1.6435 H   0  0  0  0  0  0  0  0  0  0  0  0
    6.7591    0.6036    1.5537 H   0  0  0  0  0  0  0  0  0  0  0  0
    7.6021   -0.8245    2.2442 H   0  0  0  0  0  0  0  0  0  0  0  0
   -5.5869   -1.9923   -0.1023 H   0  0  0  0  0  0  0  0  0  0  0  0
   -6.3564   -4.5433    0.0648 H   0  0  0  0  0  0  0  0  0  0  0  0
   -3.8133   -6.8437   -0.4321 H   0  0  0  0  0  0  0  0  0  0  0  0
   -5.2079   -6.8000    0.6618 H   0  0  0  0  0  0  0  0  0  0  0  0
   -3.4846   -6.7079    1.3351 H   0  0  0  0  0  0  0  0  0  0  0  0
  1  2  1  0
  2  3  1  0
  3  4  2  0
  4  5  1  0
  5  6  2  0
  6  7  1  0
  7  8  1  0
  8  9  1  0
  9 10  1  0
 10 11  1  0
 11 12  1  0
 12 13  1  0
  6 14  1  0
 14 15  2  0
 15 16  1  0
 16 17  2  0
 17 18  1  0
 18 19  2  0
 19 20  1  0
 20 21  1  0
 21 22  1  0
 22 23  1  0
 23 24  1  0
 24 25  1  0
 25 26  1  0
 26 27  1  0
 27 28  1  0
 15 29  1  0
 29 30  2  0
 30 31  1  0
 31 32  2  0
 32 33  1  0
 32 34  1  0
 19  3  1  0
 28 24  1  0
 34 29  1  0
 17  5  1  0
 13  8  1  0
  1 35  1  0
  1 36  1  0
  1 37  1  0
  4 38  1  0
  7 39  1  0
  8 40  1  0
  9 41  1  0
  9 42  1  0
 10 43  1  0
 10 44  1  0
 11 45  1  0
 12 46  1  0
 12 47  1  0
 13 48  1  0
 13 49  1  0
 14 50  1  0
 18 51  1  0
 21 52  1  0
 21 53  1  0
 22 54  1  0
 22 55  1  0
 23 56  1  0
 23 57  1  0
 25 58  1  0
 25 59  1  0
 26 60  1  0
 26 61  1  0
 27 62  1  0
 27 63  1  0
 28 64  1  0
 28 65  1  0
 30 66  1  0
 31 67  1  0
 33 68  1  0
 33 69  1  0
 33 70  1  0
M  END
$$$$
[H]c1c(-c2nc3c([H])c(OC([H])([H])C([H])([H])C([H])([H])N4C([H])([H])C([H])([H])C([H])([H])C4([H])[H])c(OC([H])([H])[H])c([H])c3c(N([H])C3([H])C([H])([H])C([H])([H])N(C([H])([H])[H])C([H])([H])C3([H])[H])c2[H])oc(C([H])([H])N([H])C([H])([H])C([H])([H])[H])c1[H]
     RDKit          3D

 81 85  0  0  0  0  0  0  0  0999 V2000
   -5.9063   -7.1425    0.7164 C   0  0  0  0  0  0  0  0  0  0  0  0
   -5.4361   -6.4449   -0.5397 C   0  0  0  0  0  0  0  0  0  0  0  0
   -5.1256   -5.0721   -0.2059 N   0  0  0  0  0  0  0  0  0  0  0  0
   -4.6665   -4.3480   -1.3824 C   0  0  0  0  0  0  0  0  0  0  0  0
   -4.3467   -2.9405   -1.0585 C   0  0  0  0  0  0  0  0  0  0  0  0
   -5.2422   -1.8870   -1.0618 C   0  0  0  0  0  0  0  0  0  0  0  0
   -4.5652   -0.7545   -0.7102 C   0  0  0  0  0  0  0  0  0  0  0  0
   -3.2584   -1.1532   -0.4992 C   0  0  0  0  0  0  0  0  0  0  0  0
   -3.1915   -2.4414   -0.7179 O   0  0  0  0  0  0  0  0  0  0  0  0
   -2.1365   -0.2802   -0.0980 C   0  0  0  0  0  0  0  0  0  0  0  0
   -2.3597    1.0632    0.1054 C   0  0  0  0  0  0  0  0  0  0  0  0
   -1.3361    1.9254    0.4825 C   0  0  0  0  0  0  0  0  0  0  0  0
   -1.5766    3.3067    0.7116 N   0  0  0  0  0  0  0  0  0  0  0  0
   -2.9016    3.8146    0.4155 C   0  0  0  0  0  0  0  0  0  0  0  0
   -3.0437    5.2659    0.9019 C   0  0  0  0  0  0  0  0  0  0  0  0
   -4.5101    5.5825    0.7749 C   0  0  0  0  0  0  0  0  0  0  0  0
   -5.0896    5.3275   -0.4919 N   0  0  0  0  0  0  0  0  0  0  0  0
   -5.4180    6.4666   -1.2785 C   0  0  0  0  0  0  0  0  0  0  0  0
   -4.6572    4.1785   -1.1995 C   0  0  0  0  0  0  0  0  0  0  0  0
   -3.1655    3.9214   -1.0776 C   0  0  0  0  0  0  0  0  0  0  0  0
   -0.0907    1.3311    0.6352 C   0  0  0  0  0  0  0  0  0  0  0  0
    0.9936    2.0807    1.0026 C   0  0  0  0  0  0  0  0  0  0  0  0
    2.2381    1.4835    1.1531 C   0  0  0  0  0  0  0  0  0  0  0  0
    3.3394    2.2395    1.5254 O   0  0  0  0  0  0  0  0  0  0  0  0
    3.1783    3.6346    1.7511 C   0  0  0  0  0  0  0  0  0  0  0  0
    2.4510    0.1372    0.9475 C   0  0  0  0  0  0  0  0  0  0  0  0
    3.7153   -0.4384    1.1061 O   0  0  0  0  0  0  0  0  0  0  0  0
    3.8499   -1.8266    0.8754 C   0  0  0  0  0  0  0  0  0  0  0  0
    5.3066   -2.2365    1.1041 C   0  0  0  0  0  0  0  0  0  0  0  0
    6.1501   -1.4537    0.1359 C   0  0  0  0  0  0  0  0  0  0  0  0
    7.5638   -1.7742    0.2776 N   0  0  0  0  0  0  0  0  0  0  0  0
    7.7915   -3.1394   -0.1627 C   0  0  0  0  0  0  0  0  0  0  0  0
    9.2774   -3.1859   -0.4720 C   0  0  0  0  0  0  0  0  0  0  0  0
    9.5502   -1.8019   -1.0080 C   0  0  0  0  0  0  0  0  0  0  0  0
    8.3781   -0.9424   -0.5819 C   0  0  0  0  0  0  0  0  0  0  0  0
    1.3613   -0.6191    0.5775 C   0  0  0  0  0  0  0  0  0  0  0  0
    0.1212   -0.0151    0.4291 C   0  0  0  0  0  0  0  0  0  0  0  0
   -0.9188   -0.7754    0.0672 N   0  0  0  0  0  0  0  0  0  0  0  0
   -5.0686   -7.6868    1.1739 H   0  0  0  0  0  0  0  0  0  0  0  0
   -6.7027   -7.8929    0.4613 H   0  0  0  0  0  0  0  0  0  0  0  0
   -6.2648   -6.3844    1.4310 H   0  0  0  0  0  0  0  0  0  0  0  0
   -4.5172   -6.9708   -0.9196 H   0  0  0  0  0  0  0  0  0  0  0  0
   -6.1765   -6.5140   -1.3545 H   0  0  0  0  0  0  0  0  0  0  0  0
   -4.3684   -5.0536    0.4969 H   0  0  0  0  0  0  0  0  0  0  0  0
   -5.4419   -4.4028   -2.1520 H   0  0  0  0  0  0  0  0  0  0  0  0
   -3.7552   -4.8643   -1.7652 H   0  0  0  0  0  0  0  0  0  0  0  0
   -6.2936   -1.9538   -1.3017 H   0  0  0  0  0  0  0  0  0  0  0  0
   -4.9095    0.2490   -0.6028 H   0  0  0  0  0  0  0  0  0  0  0  0
   -3.3611    1.4500   -0.0239 H   0  0  0  0  0  0  0  0  0  0  0  0
   -0.8218    3.9030    1.0780 H   0  0  0  0  0  0  0  0  0  0  0  0
   -3.7083    3.2441    0.8777 H   0  0  0  0  0  0  0  0  0  0  0  0
   -2.4665    5.9548    0.2498 H   0  0  0  0  0  0  0  0  0  0  0  0
   -2.7570    5.2924    1.9522 H   0  0  0  0  0  0  0  0  0  0  0  0
   -4.6862    6.6536    1.0308 H   0  0  0  0  0  0  0  0  0  0  0  0
   -5.0333    4.9829    1.5731 H   0  0  0  0  0  0  0  0  0  0  0  0
   -5.3402    6.3414   -2.3578 H   0  0  0  0  0  0  0  0  0  0  0  0
   -4.7824    7.3264   -0.9189 H   0  0  0  0  0  0  0  0  0  0  0  0
   -6.4656    6.7796   -1.0001 H   0  0  0  0  0  0  0  0  0  0  0  0
   -5.1618    3.2518   -0.8604 H   0  0  0  0  0  0  0  0  0  0  0  0
   -4.9129    4.2975   -2.2713 H   0  0  0  0  0  0  0  0  0  0  0  0
   -2.6590    4.8606   -1.4259 H   0  0  0  0  0  0  0  0  0  0  0  0
   -2.8882    3.0523   -1.6606 H   0  0  0  0  0  0  0  0  0  0  0  0
    0.9244    3.1335    1.1825 H   0  0  0  0  0  0  0  0  0  0  0  0
    2.4812    3.7510    2.6000 H   0  0  0  0  0  0  0  0  0  0  0  0
    2.6988    4.0783    0.8427 H   0  0  0  0  0  0  0  0  0  0  0  0
    4.1364    4.1428    1.8959 H   0  0  0  0  0  0  0  0  0  0  0  0
    3.1758   -2.4361    1.5020 H   0  0  0  0  0  0  0  0  0  0  0  0
    3.5635   -2.0270   -0.1836 H   0  0  0  0  0  0  0  0  0  0  0  0
    5.5756   -2.0519    2.1437 H   0  0  0  0  0  0  0  0  0  0  0  0
    5.4123   -3.3127    0.8415 H   0  0  0  0  0  0  0  0  0  0  0  0
    5.8482   -1.6507   -0.9098 H   0  0  0  0  0  0  0  0  0  0  0  0
    6.0574   -0.3566    0.2995 H   0  0  0  0  0  0  0  0  0  0  0  0
    7.5200   -3.8832    0.5871 H   0  0  0  0  0  0  0  0  0  0  0  0
    7.2734   -3.3701   -1.1159 H   0  0  0  0  0  0  0  0  0  0  0  0
    9.8497   -3.3494    0.4868 H   0  0  0  0  0  0  0  0  0  0  0  0
    9.5173   -3.9910   -1.1924 H   0  0  0  0  0  0  0  0  0  0  0  0
    9.7105   -1.8061   -2.0938 H   0  0  0  0  0  0  0  0  0  0  0  0
   10.5094   -1.4589   -0.5484 H   0  0  0  0  0  0  0  0  0  0  0  0
    8.7020   -0.0042   -0.1231 H   0  0  0  0  0  0  0  0  0  0  0  0
    7.7520   -0.7307   -1.4871 H   0  0  0  0  0  0  0  0  0  0  0  0
    1.5116   -1.6790    0.4119 H   0  0  0  0  0  0  0  0  0  0  0  0
  1  2  1  0
  2  3  1  0
  3  4  1  0
  4  5  1  0
  5  6  2  0
  6  7  1  0
  7  8  2  0
  8  9  1  0
  8 10  1  0
 10 11  2  0
 11 12  1  0
 12 13  1  0
 13 14  1  0
 14 15  1  0
 15 16  1  0
 16 17  1  0
 17 18  1  0
 17 19  1  0
 19 20  1  0
 12 21  2  0
 21 22  1  0
 22 23  2  0
 23 24  1  0
 24 25  1  0
 23 26  1  0
 26 27  1  0
 27 28  1  0
 28 29  1  0
 29 30  1  0
 30 31  1  0
 31 32  1  0
 32 33  1  0
 33 34  1  0
 34 35  1  0
 26 36  2  0
 36 37  1  0
 37 38  2  0
  9  5  1  0
 38 10  1  0
 20 14  1  0
 37 21  1  0
 35 31  1  0
  1 39  1  0
  1 40  1  0
  1 41  1  0
  2 42  1  0
  2 43  1  0
  3 44  1  0
  4 45  1  0
  4 46  1  0
  6 47  1  0
  7 48  1  0
 11 49  1  0
 13 50  1  0
 14 51  1  0
 15 52  1  0
 15 53  1  0
 16 54  1  0
 16 55  1  0
 18 56  1  0
 18 57  1  0
 18 58  1  0
 19 59  1  0
 19 60  1  0
 20 61  1  0
 20 62  1  0
 22 63  1  0
 25 64  1  0
 25 65  1  0
 25 66  1  0
 28 67  1  0
 28 68  1  0
 29 69  1  0
 29 70  1  0
 30 71  1  0
 30 72  1  0
 32 73  1  0
 32 74  1  0
 33 75  1  0
 33 76  1  0
 34 77  1  0
 34 78  1  0
 35 79  1  0
 35 80  1  0
 36 81  1  0
M  END
$$$$
[H]c1c(C2([H])C([H])([H])C([H])([H])C([H])([H])C([H])([H])C2([H])[H])nc2c([H])c(OC([H])([H])C([H])([H])C([H])([H])N3C([H])([H])C([H])([H])C([H])([H])C3([H])[H])c(OC([H])([H])[H])c([H])c2c1N([H])C1([H])C([H])([H])C([H])([H])N(C([H])([H])[H])C([H])([H])C1([H])[H]
     RDKit          3D

 79 83  0  0  0  0  0  0  0  0999 V2000
    1.9582   -4.5820   -1.0065 C   0  0  0  0  0  0  0  0  0  0  0  0
    2.4226   -3.4979   -0.2834 O   0  0  0  0  0  0  0  0  0  0  0  0
    1.7879   -2.3773    0.1346 C   0  0  0  0  0  0  0  0  0  0  0  0
    0.4537   -2.1078   -0.1012 C   0  0  0  0  0  0  0  0  0  0  0  0
   -0.1814   -0.9646    0.3299 C   0  0  0  0  0  0  0  0  0  0  0  0
   -1.5089   -0.6851    0.1062 C   0  0  0  0  0  0  0  0  0  0  0  0
   -2.3279   -1.6061   -0.5871 N   0  0  0  0  0  0  0  0  0  0  0  0
   -3.7030   -1.3279   -0.9662 C   0  0  0  0  0  0  0  0  0  0  0  0
   -3.8244   -0.3257   -2.0778 C   0  0  0  0  0  0  0  0  0  0  0  0
   -5.2670   -0.4257   -2.5794 C   0  0  0  0  0  0  0  0  0  0  0  0
   -6.1219   -0.9691   -1.5319 N   0  0  0  0  0  0  0  0  0  0  0  0
   -7.5089   -0.6542   -1.7357 C   0  0  0  0  0  0  0  0  0  0  0  0
   -5.8960   -2.4029   -1.4707 C   0  0  0  0  0  0  0  0  0  0  0  0
   -4.3860   -2.6023   -1.4476 C   0  0  0  0  0  0  0  0  0  0  0  0
   -2.0270    0.5066    0.6013 C   0  0  0  0  0  0  0  0  0  0  0  0
   -1.2418    1.3869    1.2952 C   0  0  0  0  0  0  0  0  0  0  0  0
    0.0489    1.0900    1.4989 N   0  0  0  0  0  0  0  0  0  0  0  0
    0.5904   -0.0582    1.0344 C   0  0  0  0  0  0  0  0  0  0  0  0
    1.9233   -0.2711    1.2993 C   0  0  0  0  0  0  0  0  0  0  0  0
    2.5122   -1.4411    0.8410 C   0  0  0  0  0  0  0  0  0  0  0  0
    3.8567   -1.6269    1.1217 O   0  0  0  0  0  0  0  0  0  0  0  0
    4.5978   -0.6567    1.8423 C   0  0  0  0  0  0  0  0  0  0  0  0
    6.0224   -1.1294    1.9918 C   0  0  0  0  0  0  0  0  0  0  0  0
    6.7287   -1.3752    0.7125 C   0  0  0  0  0  0  0  0  0  0  0  0
    6.9182   -0.3823   -0.2107 N   0  0  0  0  0  0  0  0  0  0  0  0
    5.8848    0.2030   -0.9588 C   0  0  0  0  0  0  0  0  0  0  0  0
    6.6708    0.6182   -2.2267 C   0  0  0  0  0  0  0  0  0  0  0  0
    7.9849    1.0886   -1.5940 C   0  0  0  0  0  0  0  0  0  0  0  0
    7.9560    0.5580   -0.1507 C   0  0  0  0  0  0  0  0  0  0  0  0
   -1.7692    2.6658    1.8345 C   0  0  0  0  0  0  0  0  0  0  0  0
   -2.1895    3.6082    0.7297 C   0  0  0  0  0  0  0  0  0  0  0  0
   -3.6606    3.9036    0.7203 C   0  0  0  0  0  0  0  0  0  0  0  0
   -4.1537    4.4319    2.0471 C   0  0  0  0  0  0  0  0  0  0  0  0
   -3.4269    3.8026    3.2141 C   0  0  0  0  0  0  0  0  0  0  0  0
   -2.9323    2.4421    2.7725 C   0  0  0  0  0  0  0  0  0  0  0  0
    2.2383   -5.5684   -0.5748 H   0  0  0  0  0  0  0  0  0  0  0  0
    2.3370   -4.6113   -2.0613 H   0  0  0  0  0  0  0  0  0  0  0  0
    0.8547   -4.5736   -1.0452 H   0  0  0  0  0  0  0  0  0  0  0  0
   -0.0874   -2.8373   -0.6488 H   0  0  0  0  0  0  0  0  0  0  0  0
   -1.9437   -2.5377   -0.8431 H   0  0  0  0  0  0  0  0  0  0  0  0
   -4.2786   -0.9929   -0.0758 H   0  0  0  0  0  0  0  0  0  0  0  0
   -3.5801    0.7021   -1.7795 H   0  0  0  0  0  0  0  0  0  0  0  0
   -3.1750   -0.6756   -2.9146 H   0  0  0  0  0  0  0  0  0  0  0  0
   -5.2796   -1.1666   -3.3895 H   0  0  0  0  0  0  0  0  0  0  0  0
   -5.6000    0.5772   -2.8546 H   0  0  0  0  0  0  0  0  0  0  0  0
   -7.7998    0.1317   -1.0192 H   0  0  0  0  0  0  0  0  0  0  0  0
   -8.1035   -1.5796   -1.5437 H   0  0  0  0  0  0  0  0  0  0  0  0
   -7.6988   -0.3427   -2.7842 H   0  0  0  0  0  0  0  0  0  0  0  0
   -6.2859   -2.9277   -2.3619 H   0  0  0  0  0  0  0  0  0  0  0  0
   -6.3465   -2.7808   -0.5498 H   0  0  0  0  0  0  0  0  0  0  0  0
   -4.0435   -2.8475   -2.4692 H   0  0  0  0  0  0  0  0  0  0  0  0
   -4.1544   -3.4591   -0.7664 H   0  0  0  0  0  0  0  0  0  0  0  0
   -3.0692    0.7765    0.4701 H   0  0  0  0  0  0  0  0  0  0  0  0
    2.4805    0.4700    1.8543 H   0  0  0  0  0  0  0  0  0  0  0  0
    4.1305   -0.5759    2.8747 H   0  0  0  0  0  0  0  0  0  0  0  0
    4.5479    0.3309    1.3873 H   0  0  0  0  0  0  0  0  0  0  0  0
    6.5862   -0.4956    2.7087 H   0  0  0  0  0  0  0  0  0  0  0  0
    5.9483   -2.1263    2.5229 H   0  0  0  0  0  0  0  0  0  0  0  0
    7.7273   -1.8829    0.9261 H   0  0  0  0  0  0  0  0  0  0  0  0
    6.1594   -2.2343    0.2163 H   0  0  0  0  0  0  0  0  0  0  0  0
    5.0322   -0.4289   -1.2325 H   0  0  0  0  0  0  0  0  0  0  0  0
    5.5342    1.1968   -0.5617 H   0  0  0  0  0  0  0  0  0  0  0  0
    6.1573    1.3978   -2.7828 H   0  0  0  0  0  0  0  0  0  0  0  0
    6.8366   -0.3221   -2.7860 H   0  0  0  0  0  0  0  0  0  0  0  0
    8.0885    2.1741   -1.6390 H   0  0  0  0  0  0  0  0  0  0  0  0
    8.8245    0.5785   -2.0991 H   0  0  0  0  0  0  0  0  0  0  0  0
    8.9321    0.1076    0.0977 H   0  0  0  0  0  0  0  0  0  0  0  0
    7.7416    1.4614    0.4689 H   0  0  0  0  0  0  0  0  0  0  0  0
   -0.9799    3.1911    2.4070 H   0  0  0  0  0  0  0  0  0  0  0  0
   -1.6314    4.5521    0.7471 H   0  0  0  0  0  0  0  0  0  0  0  0
   -1.9571    3.1029   -0.2433 H   0  0  0  0  0  0  0  0  0  0  0  0
   -4.2697    3.0301    0.3778 H   0  0  0  0  0  0  0  0  0  0  0  0
   -3.8277    4.7002   -0.0332 H   0  0  0  0  0  0  0  0  0  0  0  0
   -5.2283    4.1760    2.1399 H   0  0  0  0  0  0  0  0  0  0  0  0
   -4.0618    5.5486    2.0427 H   0  0  0  0  0  0  0  0  0  0  0  0
   -4.0683    3.7560    4.1039 H   0  0  0  0  0  0  0  0  0  0  0  0
   -2.5230    4.3944    3.4748 H   0  0  0  0  0  0  0  0  0  0  0  0
   -2.5728    1.8494    3.6413 H   0  0  0  0  0  0  0  0  0  0  0  0
   -3.7818    1.9253    2.2683 H   0  0  0  0  0  0  0  0  0  0  0  0
  1  2  1  0
  2  3  1  0
  3  4  2  0
  4  5  1  0
  5  6  2  0
  6  7  1  0
  7  8  1  0
  8  9  1  0
  9 10  1  0
 10 11  1  0
 11 12  1  0
 11 13  1  0
 13 14  1  0
  6 15  1  0
 15 16  2  0
 16 17  1  0
 17 18  2  0
 18 19  1  0
 19 20  2  0
 20 21  1  0
 21 22  1  0
 22 23  1  0
 23 24  1  0
 24 25  1  0
 25 26  1  0
 26 27  1  0
 27 28  1  0
 28 29  1  0
 16 30  1  0
 30 31  1  0
 31 32  1  0
 32 33  1  0
 33 34  1  0
 34 35  1  0
 20  3  1  0
 29 25  1  0
 35 30  1  0
 18  5  1  0
 14  8  1  0
  1 36  1  0
  1 37  1  0
  1 38  1  0
  4 39  1  0
  7 40  1  0
  8 41  1  0
  9 42  1  0
  9 43  1  0
 10 44  1  0
 10 45  1  0
 12 46  1  0
 12 47  1  0
 12 48  1  0
 13 49  1  0
 13 50  1  0
 14 51  1  0
 14 52  1  0
 15 53  1  0
 19 54  1  0
 22 55  1  0
 22 56  1  0
 23 57  1  0
 23 58  1  0
 24 59  1  0
 24 60  1  0
 26 61  1  0
 26 62  1  0
 27 63  1  0
 27 64  1  0
 28 65  1  0
 28 66  1  0
 29 67  1  0
 29 68  1  0
 30 69  1  0
 31 70  1  0
 31 71  1  0
 32 72  1  0
 32 73  1  0
 33 74  1  0
 33 75  1  0
 34 76  1  0
 34 77  1  0
 35 78  1  0
 35 79  1  0
M  END
$$$$
[H]c1c(-c2nc3c([H])c(OC([H])([H])C([H])([H])C([H])([H])N4C([H])([H])C([H])([H])C([H])([H])C4([H])[H])c(OC([H])([H])[H])c([H])c3c(N([H])C([H])([H])C3([H])C4([H])C([H])([H])N(C([H])([H])[H])C([H])([H])C3([H])C([H])([H])C4([H])[H])c2[H])oc(C([H])([H])C([H])([H])[H])c1[H]
     RDKit          3D

 83 88  0  0  0  0  0  0  0  0999 V2000
   -4.1557    6.7292    2.7800 C   0  0  0  0  0  0  0  0  0  0  0  0
   -3.8519    6.6709    1.3006 C   0  0  0  0  0  0  0  0  0  0  0  0
   -2.5753    5.9540    1.1234 C   0  0  0  0  0  0  0  0  0  0  0  0
   -1.2978    6.4821    1.0953 C   0  0  0  0  0  0  0  0  0  0  0  0
   -0.4417    5.4197    0.9069 C   0  0  0  0  0  0  0  0  0  0  0  0
   -1.2172    4.2933    0.8275 C   0  0  0  0  0  0  0  0  0  0  0  0
   -2.4658    4.6582    0.9604 O   0  0  0  0  0  0  0  0  0  0  0  0
   -0.7769    2.9170    0.6312 C   0  0  0  0  0  0  0  0  0  0  0  0
   -1.6897    1.8718    0.5574 C   0  0  0  0  0  0  0  0  0  0  0  0
   -1.2961    0.5635    0.3757 C   0  0  0  0  0  0  0  0  0  0  0  0
   -2.2708   -0.4819    0.3085 N   0  0  0  0  0  0  0  0  0  0  0  0
   -3.6888   -0.1883    0.4125 C   0  0  0  0  0  0  0  0  0  0  0  0
   -4.4667   -1.4504    0.3387 C   0  0  0  0  0  0  0  0  0  0  0  0
   -4.2929   -2.2443   -0.9215 C   0  0  0  0  0  0  0  0  0  0  0  0
   -5.3499   -3.3353   -0.7117 C   0  0  0  0  0  0  0  0  0  0  0  0
   -6.4137   -2.7132    0.1716 C   0  0  0  0  0  0  0  0  0  0  0  0
   -5.9648   -1.2561    0.3585 C   0  0  0  0  0  0  0  0  0  0  0  0
   -6.4828   -0.4913   -0.8131 C   0  0  0  0  0  0  0  0  0  0  0  0
   -5.9973   -0.8867   -2.0786 N   0  0  0  0  0  0  0  0  0  0  0  0
   -6.9614   -1.4615   -2.9673 C   0  0  0  0  0  0  0  0  0  0  0  0
   -4.7013   -1.4571   -2.1199 C   0  0  0  0  0  0  0  0  0  0  0  0
    0.0520    0.3114    0.2667 C   0  0  0  0  0  0  0  0  0  0  0  0
    0.5496   -0.9639    0.0824 C   0  0  0  0  0  0  0  0  0  0  0  0
    1.8995   -1.2223   -0.0282 C   0  0  0  0  0  0  0  0  0  0  0  0
    2.3598   -2.5224   -0.2135 O   0  0  0  0  0  0  0  0  0  0  0  0
    1.4387   -3.5826   -0.2884 C   0  0  0  0  0  0  0  0  0  0  0  0
    2.8222   -0.1837    0.0441 C   0  0  0  0  0  0  0  0  0  0  0  0
    4.1467   -0.5046   -0.0727 O   0  0  0  0  0  0  0  0  0  0  0  0
    5.2439    0.3512   -0.0307 C   0  0  0  0  0  0  0  0  0  0  0  0
    6.5053   -0.5029   -0.2137 C   0  0  0  0  0  0  0  0  0  0  0  0
    6.5540   -1.5132    0.9167 C   0  0  0  0  0  0  0  0  0  0  0  0
    7.6839   -2.3820    0.8646 N   0  0  0  0  0  0  0  0  0  0  0  0
    7.7006   -3.3116   -0.2193 C   0  0  0  0  0  0  0  0  0  0  0  0
    8.8541   -2.9322   -1.1204 C   0  0  0  0  0  0  0  0  0  0  0  0
    9.5963   -1.8179   -0.4116 C   0  0  0  0  0  0  0  0  0  0  0  0
    8.9631   -1.7552    0.9443 C   0  0  0  0  0  0  0  0  0  0  0  0
    2.3374    1.0828    0.2267 C   0  0  0  0  0  0  0  0  0  0  0  0
    0.9865    1.3423    0.3375 C   0  0  0  0  0  0  0  0  0  0  0  0
    0.5228    2.6018    0.5174 N   0  0  0  0  0  0  0  0  0  0  0  0
   -4.5446    5.7236    3.0615 H   0  0  0  0  0  0  0  0  0  0  0  0
   -4.9262    7.5123    2.9304 H   0  0  0  0  0  0  0  0  0  0  0  0
   -3.2299    6.9324    3.3256 H   0  0  0  0  0  0  0  0  0  0  0  0
   -3.7366    7.6990    0.8794 H   0  0  0  0  0  0  0  0  0  0  0  0
   -4.6734    6.1466    0.7778 H   0  0  0  0  0  0  0  0  0  0  0  0
   -1.0701    7.5474    1.2061 H   0  0  0  0  0  0  0  0  0  0  0  0
    0.6479    5.5055    0.8389 H   0  0  0  0  0  0  0  0  0  0  0  0
   -2.7243    2.1515    0.6510 H   0  0  0  0  0  0  0  0  0  0  0  0
   -2.0093   -1.4729    0.1848 H   0  0  0  0  0  0  0  0  0  0  0  0
   -3.9830    0.5644   -0.3477 H   0  0  0  0  0  0  0  0  0  0  0  0
   -3.8559    0.2638    1.4048 H   0  0  0  0  0  0  0  0  0  0  0  0
   -4.2092   -2.0702    1.2238 H   0  0  0  0  0  0  0  0  0  0  0  0
   -3.2920   -2.6509   -1.0735 H   0  0  0  0  0  0  0  0  0  0  0  0
   -5.7291   -3.7178   -1.6581 H   0  0  0  0  0  0  0  0  0  0  0  0
   -4.8239   -4.1563   -0.1491 H   0  0  0  0  0  0  0  0  0  0  0  0
   -6.3260   -3.1600    1.2008 H   0  0  0  0  0  0  0  0  0  0  0  0
   -7.4260   -2.7980   -0.2159 H   0  0  0  0  0  0  0  0  0  0  0  0
   -6.3394   -0.8239    1.2838 H   0  0  0  0  0  0  0  0  0  0  0  0
   -7.5953   -0.5942   -0.8103 H   0  0  0  0  0  0  0  0  0  0  0  0
   -6.3004    0.6154   -0.6948 H   0  0  0  0  0  0  0  0  0  0  0  0
   -7.4734   -2.3479   -2.5733 H   0  0  0  0  0  0  0  0  0  0  0  0
   -6.4887   -1.7072   -3.9165 H   0  0  0  0  0  0  0  0  0  0  0  0
   -7.7784   -0.6997   -3.1388 H   0  0  0  0  0  0  0  0  0  0  0  0
   -3.9381   -0.6868   -2.3284 H   0  0  0  0  0  0  0  0  0  0  0  0
   -4.6675   -2.1429   -3.0182 H   0  0  0  0  0  0  0  0  0  0  0  0
   -0.1197   -1.8173    0.0177 H   0  0  0  0  0  0  0  0  0  0  0  0
    1.0086   -3.7641    0.7044 H   0  0  0  0  0  0  0  0  0  0  0  0
    1.9940   -4.4654   -0.6775 H   0  0  0  0  0  0  0  0  0  0  0  0
    0.6381   -3.3839   -1.0491 H   0  0  0  0  0  0  0  0  0  0  0  0
    5.2421    1.0832   -0.8871 H   0  0  0  0  0  0  0  0  0  0  0  0
    5.3669    0.8859    0.9156 H   0  0  0  0  0  0  0  0  0  0  0  0
    6.4760   -0.9803   -1.1984 H   0  0  0  0  0  0  0  0  0  0  0  0
    7.3728    0.1871   -0.1815 H   0  0  0  0  0  0  0  0  0  0  0  0
    5.6416   -2.1355    0.8398 H   0  0  0  0  0  0  0  0  0  0  0  0
    6.5942   -0.9551    1.8719 H   0  0  0  0  0  0  0  0  0  0  0  0
    6.7532   -3.4107   -0.7635 H   0  0  0  0  0  0  0  0  0  0  0  0
    7.8935   -4.3299    0.2303 H   0  0  0  0  0  0  0  0  0  0  0  0
    8.4727   -2.6063   -2.0994 H   0  0  0  0  0  0  0  0  0  0  0  0
    9.5227   -3.8099   -1.2487 H   0  0  0  0  0  0  0  0  0  0  0  0
    9.5288   -0.8645   -0.9521 H   0  0  0  0  0  0  0  0  0  0  0  0
   10.6809   -2.0983   -0.3283 H   0  0  0  0  0  0  0  0  0  0  0  0
    8.9559   -0.7648    1.4101 H   0  0  0  0  0  0  0  0  0  0  0  0
    9.5945   -2.4064    1.6189 H   0  0  0  0  0  0  0  0  0  0  0  0
    3.0182    1.9146    0.2879 H   0  0  0  0  0  0  0  0  0  0  0  0
  1  2  1  0
  2  3  1  0
  3  4  2  0
  4  5  1  0
  5  6  2  0
  6  7  1  0
  6  8  1  0
  8  9  2  0
  9 10  1  0
 10 11  1  0
 11 12  1  0
 12 13  1  0
 13 14  1  0
 14 15  1  0
 15 16  1  0
 16 17  1  0
 17 18  1  0
 18 19  1  0
 19 20  1  0
 19 21  1  0
 10 22  2  0
 22 23  1  0
 23 24  2  0
 24 25  1  0
 25 26  1  0
 24 27  1  0
 27 28  1  0
 28 29  1  0
 29 30  1  0
 30 31  1  0
 31 32  1  0
 32 33  1  0
 33 34  1  0
 34 35  1  0
 35 36  1  0
 27 37  2  0
 37 38  1  0
 38 39  2  0
  7  3  1  0
 39  8  1  0
 17 13  1  0
 38 22  1  0
 21 14  1  0
 36 32  1  0
  1 40  1  0
  1 41  1  0
  1 42  1  0
  2 43  1  0
  2 44  1  0
  4 45  1  0
  5 46  1  0
  9 47  1  0
 11 48  1  0
 12 49  1  0
 12 50  1  0
 13 51  1  0
 14 52  1  0
 15 53  1  0
 15 54  1  0
 16 55  1  0
 16 56  1  0
 17 57  1  0
 18 58  1  0
 18 59  1  0
 20 60  1  0
 20 61  1  0
 20 62  1  0
 21 63  1  0
 21 64  1  0
 23 65  1  0
 26 66  1  0
 26 67  1  0
 26 68  1  0
 29 69  1  0
 29 70  1  0
 30 71  1  0
 30 72  1  0
 31 73  1  0
 31 74  1  0
 33 75  1  0
 33 76  1  0
 34 77  1  0
 34 78  1  0
 35 79  1  0
 35 80  1  0
 36 81  1  0
 36 82  1  0
 37 83  1  0
M  END
$$$$
[H]c1c(-c2nc3c([H])c(OC([H])([H])C([H])([H])C([H])([H])N4C([H])([H])C([H])([H])C([H])([H])C4([H])[H])c(OC([H])([H])[H])c([H])c3c(N([H])C3([H])C([H])([H])C([H])([H])N(C([H])([H])[H])C([H])([H])C3([H])[H])c2[H])sc(C([H])([H])[H])c1[H]
     RDKit          3D

 73 77  0  0  0  0  0  0  0  0999 V2000
    0.6897   -4.0400   -1.4644 C   0  0  0  0  0  0  0  0  0  0  0  0
    1.4720   -2.8778   -1.6493 O   0  0  0  0  0  0  0  0  0  0  0  0
    1.0210   -1.6265   -1.2710 C   0  0  0  0  0  0  0  0  0  0  0  0
   -0.2430   -1.5517   -0.6970 C   0  0  0  0  0  0  0  0  0  0  0  0
   -0.7740   -0.3406   -0.2885 C   0  0  0  0  0  0  0  0  0  0  0  0
   -2.0214   -0.2168    0.2824 C   0  0  0  0  0  0  0  0  0  0  0  0
   -2.8325   -1.3487    0.4991 N   0  0  0  0  0  0  0  0  0  0  0  0
   -4.1927   -1.2417    1.0405 C   0  0  0  0  0  0  0  0  0  0  0  0
   -5.1396   -0.5225    0.1573 C   0  0  0  0  0  0  0  0  0  0  0  0
   -6.2254   -1.2909   -0.4800 C   0  0  0  0  0  0  0  0  0  0  0  0
   -6.2647   -2.6913   -0.3398 N   0  0  0  0  0  0  0  0  0  0  0  0
   -7.5226   -3.2034    0.1685 C   0  0  0  0  0  0  0  0  0  0  0  0
   -5.1266   -3.3676    0.1608 C   0  0  0  0  0  0  0  0  0  0  0  0
   -4.6548   -2.6370    1.4038 C   0  0  0  0  0  0  0  0  0  0  0  0
   -2.4322    1.0657    0.6444 C   0  0  0  0  0  0  0  0  0  0  0  0
   -1.6288    2.1408    0.4381 C   0  0  0  0  0  0  0  0  0  0  0  0
   -0.4235    1.9851   -0.1185 N   0  0  0  0  0  0  0  0  0  0  0  0
    0.0369    0.7841   -0.4908 C   0  0  0  0  0  0  0  0  0  0  0  0
    1.2883    0.6891   -1.0622 C   0  0  0  0  0  0  0  0  0  0  0  0
    1.7969   -0.5243   -1.4609 C   0  0  0  0  0  0  0  0  0  0  0  0
    3.0664   -0.5726   -2.0340 O   0  0  0  0  0  0  0  0  0  0  0  0
    3.8291    0.6061   -2.2041 C   0  0  0  0  0  0  0  0  0  0  0  0
    5.1453    0.2281   -2.8525 C   0  0  0  0  0  0  0  0  0  0  0  0
    5.9269   -0.7418   -2.0155 C   0  0  0  0  0  0  0  0  0  0  0  0
    6.2112   -0.1907   -0.7331 N   0  0  0  0  0  0  0  0  0  0  0  0
    6.9241   -1.1836    0.0769 C   0  0  0  0  0  0  0  0  0  0  0  0
    8.3784   -0.9227   -0.1606 C   0  0  0  0  0  0  0  0  0  0  0  0
    8.4631    0.5102   -0.5876 C   0  0  0  0  0  0  0  0  0  0  0  0
    7.0257    0.9807   -0.7088 C   0  0  0  0  0  0  0  0  0  0  0  0
   -2.0815    3.4982    0.8272 C   0  0  0  0  0  0  0  0  0  0  0  0
   -1.3902    4.6739    0.6848 C   0  0  0  0  0  0  0  0  0  0  0  0
   -1.9921    5.7911    1.1057 C   0  0  0  0  0  0  0  0  0  0  0  0
   -3.2462    5.6679    1.6430 C   0  0  0  0  0  0  0  0  0  0  0  0
   -4.1059    6.7862    2.1787 C   0  0  0  0  0  0  0  0  0  0  0  0
   -3.5445    3.9946    1.5428 S   0  0  0  0  0  0  0  0  0  0  0  0
   -0.2556   -3.8674   -2.0373 H   0  0  0  0  0  0  0  0  0  0  0  0
    1.2153   -4.9310   -1.8238 H   0  0  0  0  0  0  0  0  0  0  0  0
    0.4051   -4.1122   -0.3840 H   0  0  0  0  0  0  0  0  0  0  0  0
   -0.8170   -2.4526   -0.5706 H   0  0  0  0  0  0  0  0  0  0  0  0
   -2.4625   -2.2898    0.2739 H   0  0  0  0  0  0  0  0  0  0  0  0
   -4.0883   -0.6811    1.9920 H   0  0  0  0  0  0  0  0  0  0  0  0
   -5.5609    0.3886    0.6837 H   0  0  0  0  0  0  0  0  0  0  0  0
   -4.5135   -0.0552   -0.6620 H   0  0  0  0  0  0  0  0  0  0  0  0
   -7.2058   -0.9020   -0.0483 H   0  0  0  0  0  0  0  0  0  0  0  0
   -6.3330   -0.9968   -1.5700 H   0  0  0  0  0  0  0  0  0  0  0  0
   -7.8961   -2.6271    1.0397 H   0  0  0  0  0  0  0  0  0  0  0  0
   -7.4620   -4.2841    0.4067 H   0  0  0  0  0  0  0  0  0  0  0  0
   -8.2790   -3.0933   -0.6361 H   0  0  0  0  0  0  0  0  0  0  0  0
   -5.4392   -4.3830    0.4937 H   0  0  0  0  0  0  0  0  0  0  0  0
   -4.3119   -3.3970   -0.5681 H   0  0  0  0  0  0  0  0  0  0  0  0
   -3.7845   -3.1911    1.8075 H   0  0  0  0  0  0  0  0  0  0  0  0
   -5.4300   -2.6210    2.1892 H   0  0  0  0  0  0  0  0  0  0  0  0
   -3.3890    1.2283    1.0988 H   0  0  0  0  0  0  0  0  0  0  0  0
    1.8749    1.6062   -1.1938 H   0  0  0  0  0  0  0  0  0  0  0  0
    3.3178    1.3715   -2.8162 H   0  0  0  0  0  0  0  0  0  0  0  0
    4.0629    1.0855   -1.2169 H   0  0  0  0  0  0  0  0  0  0  0  0
    4.8512   -0.2878   -3.8189 H   0  0  0  0  0  0  0  0  0  0  0  0
    5.7793    1.0885   -3.1088 H   0  0  0  0  0  0  0  0  0  0  0  0
    6.9089   -0.8931   -2.5306 H   0  0  0  0  0  0  0  0  0  0  0  0
    5.3912   -1.7222   -1.9141 H   0  0  0  0  0  0  0  0  0  0  0  0
    6.6383   -1.0936    1.1307 H   0  0  0  0  0  0  0  0  0  0  0  0
    6.6613   -2.2040   -0.3178 H   0  0  0  0  0  0  0  0  0  0  0  0
    9.0137   -1.1430    0.7246 H   0  0  0  0  0  0  0  0  0  0  0  0
    8.7801   -1.5350   -1.0136 H   0  0  0  0  0  0  0  0  0  0  0  0
    9.0227    1.0797    0.1750 H   0  0  0  0  0  0  0  0  0  0  0  0
    8.9532    0.6456   -1.5675 H   0  0  0  0  0  0  0  0  0  0  0  0
    6.8745    1.6304   -1.5657 H   0  0  0  0  0  0  0  0  0  0  0  0
    6.8281    1.6035    0.2070 H   0  0  0  0  0  0  0  0  0  0  0  0
   -0.3689    4.6696    0.2325 H   0  0  0  0  0  0  0  0  0  0  0  0
   -1.5144    6.7988    1.0341 H   0  0  0  0  0  0  0  0  0  0  0  0
   -5.1675    6.5792    1.9687 H   0  0  0  0  0  0  0  0  0  0  0  0
   -3.8858    6.9625    3.2402 H   0  0  0  0  0  0  0  0  0  0  0  0
   -3.8459    7.7160    1.6306 H   0  0  0  0  0  0  0  0  0  0  0  0
  1  2  1  0
  2  3  1  0
  3  4  2  0
  4  5  1  0
  5  6  2  0
  6  7  1  0
  7  8  1  0
  8  9  1  0
  9 10  1  0
 10 11  1  0
 11 12  1  0
 11 13  1  0
 13 14  1  0
  6 15  1  0
 15 16  2  0
 16 17  1  0
 17 18  2  0
 18 19  1  0
 19 20  2  0
 20 21  1  0
 21 22  1  0
 22 23  1  0
 23 24  1  0
 24 25  1  0
 25 26  1  0
 26 27  1  0
 27 28  1  0
 28 29  1  0
 16 30  1  0
 30 31  2  0
 31 32  1  0
 32 33  2  0
 33 34  1  0
 33 35  1  0
 20  3  1  0
 29 25  1  0
 35 30  1  0
 18  5  1  0
 14  8  1  0
  1 36  1  0
  1 37  1  0
  1 38  1  0
  4 39  1  0
  7 40  1  0
  8 41  1  0
  9 42  1  0
  9 43  1  0
 10 44  1  0
 10 45  1  0
 12 46  1  0
 12 47  1  0
 12 48  1  0
 13 49  1  0
 13 50  1  0
 14 51  1  0
 14 52  1  0
 15 53  1  0
 19 54  1  0
 22 55  1  0
 22 56  1  0
 23 57  1  0
 23 58  1  0
 24 59  1  0
 24 60  1  0
 26 61  1  0
 26 62  1  0
 27 63  1  0
 27 64  1  0
 28 65  1  0
 28 66  1  0
 29 67  1  0
 29 68  1  0
 31 69  1  0
 32 70  1  0
 34 71  1  0
 34 72  1  0
 34 73  1  0
M  END
$$$$
[H]c1c(OC([H])([H])C([H])([H])C([H])([H])N2C([H])([H])C([H])([H])C([H])([H])C2([H])[H])c(OC([H])([H])[H])c([H])c2c(N([H])C3([H])C([H])([H])C([H])([H])N(C([H])(C([H])([H])[H])C([H])([H])[H])C([H])([H])C3([H])[H])nc(N3C([H])([H])C([H])([H])N(C([H])([H])[H])C([H])([H])C([H])([H])C3([H])[H])nc12
     RDKit          3D

 88 92  0  0  0  0  0  0  0  0999 V2000
    2.3244   -3.1702    2.7905 C   0  0  0  0  0  0  0  0  0  0  0  0
    2.9499   -2.0180    2.2748 O   0  0  0  0  0  0  0  0  0  0  0  0
    2.2578   -0.9946    1.6548 C   0  0  0  0  0  0  0  0  0  0  0  0
    0.9002   -1.0549    1.5094 C   0  0  0  0  0  0  0  0  0  0  0  0
    0.1510   -0.0708    0.9023 C   0  0  0  0  0  0  0  0  0  0  0  0
   -1.2074   -0.1397    0.7617 C   0  0  0  0  0  0  0  0  0  0  0  0
   -1.9519   -1.2212    1.2291 N   0  0  0  0  0  0  0  0  0  0  0  0
   -3.3982   -1.3146    1.0754 C   0  0  0  0  0  0  0  0  0  0  0  0
   -3.6862   -1.3730   -0.4045 C   0  0  0  0  0  0  0  0  0  0  0  0
   -4.7471   -2.3898   -0.7491 C   0  0  0  0  0  0  0  0  0  0  0  0
   -4.5092   -3.6656   -0.2234 N   0  0  0  0  0  0  0  0  0  0  0  0
   -3.6260   -3.7123    0.8662 C   0  0  0  0  0  0  0  0  0  0  0  0
   -3.8813   -2.5358    1.7966 C   0  0  0  0  0  0  0  0  0  0  0  0
   -5.4485   -4.6917   -0.4131 C   0  0  0  0  0  0  0  0  0  0  0  0
   -6.8004   -4.4200    0.2037 C   0  0  0  0  0  0  0  0  0  0  0  0
   -5.6162   -5.1198   -1.8573 C   0  0  0  0  0  0  0  0  0  0  0  0
   -1.8407    0.8948    0.1453 N   0  0  0  0  0  0  0  0  0  0  0  0
   -1.1674    1.9619   -0.3183 C   0  0  0  0  0  0  0  0  0  0  0  0
    0.1661    2.0098   -0.1707 N   0  0  0  0  0  0  0  0  0  0  0  0
    0.8690    1.0325    0.4250 C   0  0  0  0  0  0  0  0  0  0  0  0
    2.2323    1.1421    0.5459 C   0  0  0  0  0  0  0  0  0  0  0  0
    2.9380    0.1369    1.1568 C   0  0  0  0  0  0  0  0  0  0  0  0
    4.2924    0.0874    1.3500 O   0  0  0  0  0  0  0  0  0  0  0  0
    5.2369    0.9781    0.9294 C   0  0  0  0  0  0  0  0  0  0  0  0
    5.3808    1.0116   -0.5563 C   0  0  0  0  0  0  0  0  0  0  0  0
    5.8031   -0.2883   -1.1474 C   0  0  0  0  0  0  0  0  0  0  0  0
    7.0204   -0.8660   -0.8473 N   0  0  0  0  0  0  0  0  0  0  0  0
    7.3876   -1.4480    0.3562 C   0  0  0  0  0  0  0  0  0  0  0  0
    8.6968   -0.8432    0.8343 C   0  0  0  0  0  0  0  0  0  0  0  0
    9.0680    0.1403   -0.2352 C   0  0  0  0  0  0  0  0  0  0  0  0
    8.1823   -0.1962   -1.4185 C   0  0  0  0  0  0  0  0  0  0  0  0
   -1.8515    3.0478   -0.9577 N   0  0  0  0  0  0  0  0  0  0  0  0
   -1.0272    4.1193   -1.4086 C   0  0  0  0  0  0  0  0  0  0  0  0
   -1.6947    5.0541   -2.3577 C   0  0  0  0  0  0  0  0  0  0  0  0
   -3.0007    5.5935   -1.9125 C   0  0  0  0  0  0  0  0  0  0  0  0
   -3.4133    5.3182   -0.6055 N   0  0  0  0  0  0  0  0  0  0  0  0
   -3.1415    6.2384    0.4248 C   0  0  0  0  0  0  0  0  0  0  0  0
   -3.8938    4.0385   -0.2713 C   0  0  0  0  0  0  0  0  0  0  0  0
   -3.2695    2.8934   -1.0453 C   0  0  0  0  0  0  0  0  0  0  0  0
    1.9349   -3.8241    2.0001 H   0  0  0  0  0  0  0  0  0  0  0  0
    1.4443   -2.8394    3.4061 H   0  0  0  0  0  0  0  0  0  0  0  0
    2.9750   -3.7226    3.4854 H   0  0  0  0  0  0  0  0  0  0  0  0
    0.3524   -1.9352    1.8939 H   0  0  0  0  0  0  0  0  0  0  0  0
   -1.5081   -2.0230    1.7141 H   0  0  0  0  0  0  0  0  0  0  0  0
   -3.8315   -0.4125    1.5064 H   0  0  0  0  0  0  0  0  0  0  0  0
   -2.7744   -1.5507   -1.0094 H   0  0  0  0  0  0  0  0  0  0  0  0
   -4.0761   -0.3976   -0.7252 H   0  0  0  0  0  0  0  0  0  0  0  0
   -5.7589   -2.0347   -0.3851 H   0  0  0  0  0  0  0  0  0  0  0  0
   -4.8356   -2.3538   -1.8643 H   0  0  0  0  0  0  0  0  0  0  0  0
   -2.5403   -3.5926    0.5674 H   0  0  0  0  0  0  0  0  0  0  0  0
   -3.6458   -4.6730    1.4278 H   0  0  0  0  0  0  0  0  0  0  0  0
   -3.2998   -2.7089    2.7355 H   0  0  0  0  0  0  0  0  0  0  0  0
   -4.9327   -2.5316    2.0892 H   0  0  0  0  0  0  0  0  0  0  0  0
   -5.0420   -5.6136    0.1071 H   0  0  0  0  0  0  0  0  0  0  0  0
   -7.2402   -5.3276    0.6728 H   0  0  0  0  0  0  0  0  0  0  0  0
   -6.7196   -3.6643    0.9998 H   0  0  0  0  0  0  0  0  0  0  0  0
   -7.4867   -3.9908   -0.5633 H   0  0  0  0  0  0  0  0  0  0  0  0
   -6.1365   -4.3862   -2.4722 H   0  0  0  0  0  0  0  0  0  0  0  0
   -6.2592   -6.0361   -1.8275 H   0  0  0  0  0  0  0  0  0  0  0  0
   -4.6345   -5.4526   -2.2466 H   0  0  0  0  0  0  0  0  0  0  0  0
    2.7445    2.0096    0.1984 H   0  0  0  0  0  0  0  0  0  0  0  0
    4.9218    2.0593    1.1941 H   0  0  0  0  0  0  0  0  0  0  0  0
    6.2179    0.9138    1.4560 H   0  0  0  0  0  0  0  0  0  0  0  0
    6.1443    1.8214   -0.7617 H   0  0  0  0  0  0  0  0  0  0  0  0
    4.4206    1.3126   -1.0259 H   0  0  0  0  0  0  0  0  0  0  0  0
    4.9892   -1.0648   -0.9363 H   0  0  0  0  0  0  0  0  0  0  0  0
    5.7334   -0.2306   -2.2939 H   0  0  0  0  0  0  0  0  0  0  0  0
    6.6444   -1.3582    1.1539 H   0  0  0  0  0  0  0  0  0  0  0  0
    7.5245   -2.5805    0.2457 H   0  0  0  0  0  0  0  0  0  0  0  0
    9.4435   -1.6599    0.8712 H   0  0  0  0  0  0  0  0  0  0  0  0
    8.5491   -0.3566    1.8213 H   0  0  0  0  0  0  0  0  0  0  0  0
   10.1509    0.1128   -0.4779 H   0  0  0  0  0  0  0  0  0  0  0  0
    8.8123    1.1779    0.0593 H   0  0  0  0  0  0  0  0  0  0  0  0
    7.8694    0.6953   -1.9869 H   0  0  0  0  0  0  0  0  0  0  0  0
    8.7140   -0.9124   -2.0524 H   0  0  0  0  0  0  0  0  0  0  0  0
   -0.5518    4.6603   -0.5380 H   0  0  0  0  0  0  0  0  0  0  0  0
   -0.1520    3.6623   -1.9532 H   0  0  0  0  0  0  0  0  0  0  0  0
   -0.9744    5.9046   -2.5385 H   0  0  0  0  0  0  0  0  0  0  0  0
   -1.7550    4.5378   -3.3605 H   0  0  0  0  0  0  0  0  0  0  0  0
   -3.7898    5.2126   -2.6271 H   0  0  0  0  0  0  0  0  0  0  0  0
   -3.0185    6.7130   -2.0661 H   0  0  0  0  0  0  0  0  0  0  0  0
   -4.0841    6.8269    0.6230 H   0  0  0  0  0  0  0  0  0  0  0  0
   -2.9184    5.7344    1.4101 H   0  0  0  0  0  0  0  0  0  0  0  0
   -2.3693    6.9731    0.1906 H   0  0  0  0  0  0  0  0  0  0  0  0
   -3.7311    3.8632    0.8077 H   0  0  0  0  0  0  0  0  0  0  0  0
   -5.0018    3.9586   -0.4501 H   0  0  0  0  0  0  0  0  0  0  0  0
   -3.6617    1.9449   -0.6800 H   0  0  0  0  0  0  0  0  0  0  0  0
   -3.5409    2.9749   -2.1276 H   0  0  0  0  0  0  0  0  0  0  0  0
  1  2  1  0
  2  3  1  0
  3  4  2  0
  4  5  1  0
  5  6  2  0
  6  7  1  0
  7  8  1  0
  8  9  1  0
  9 10  1  0
 10 11  1  0
 11 12  1  0
 12 13  1  0
 11 14  1  0
 14 15  1  0
 14 16  1  0
  6 17  1  0
 17 18  2  0
 18 19  1  0
 19 20  2  0
 20 21  1  0
 21 22  2  0
 22 23  1  0
 23 24  1  0
 24 25  1  0
 25 26  1  0
 26 27  1  0
 27 28  1  0
 28 29  1  0
 29 30  1  0
 30 31  1  0
 18 32  1  0
 32 33  1  0
 33 34  1  0
 34 35  1  0
 35 36  1  0
 36 37  1  0
 36 38  1  0
 38 39  1  0
 22  3  1  0
 31 27  1  0
 39 32  1  0
 20  5  1  0
 13  8  1  0
  1 40  1  0
  1 41  1  0
  1 42  1  0
  4 43  1  0
  7 44  1  0
  8 45  1  0
  9 46  1  0
  9 47  1  0
 10 48  1  0
 10 49  1  0
 12 50  1  0
 12 51  1  0
 13 52  1  0
 13 53  1  0
 14 54  1  0
 15 55  1  0
 15 56  1  0
 15 57  1  0
 16 58  1  0
 16 59  1  0
 16 60  1  0
 21 61  1  0
 24 62  1  0
 24 63  1  0
 25 64  1  0
 25 65  1  0
 26 66  1  0
 26 67  1  0
 28 68  1  0
 28 69  1  0
 29 70  1  0
 29 71  1  0
 30 72  1  0
 30 73  1  0
 31 74  1  0
 31 75  1  0
 33 76  1  0
 33 77  1  0
 34 78  1  0
 34 79  1  0
 35 80  1  0
 35 81  1  0
 37 82  1  0
 37 83  1  0
 37 84  1  0
 38 85  1  0
 38 86  1  0
 39 87  1  0
 39 88  1  0
M  END
$$$$
[H]c1c(-c2nc3c([H])c(OC([H])([H])C([H])([H])C([H])([H])N4C([H])([H])C([H])([H])C([H])([H])C4([H])[H])c(OC([H])([H])[H])c([H])c3c(N([H])C3([H])C([H])([H])C([H])([H])C34C([H])([H])C([H])([H])N(C([H])([H])[H])C([H])([H])C4([H])[H])c2[H])oc(C([H])([H])[H])c1[H]
     RDKit          3D

 80 85  0  0  0  0  0  0  0  0999 V2000
    0.4243   -3.4389   -1.6975 C   0  0  0  0  0  0  0  0  0  0  0  0
    1.4678   -2.7029   -1.1141 O   0  0  0  0  0  0  0  0  0  0  0  0
    1.1874   -1.5081   -0.4392 C   0  0  0  0  0  0  0  0  0  0  0  0
   -0.1552   -1.0992   -0.3794 C   0  0  0  0  0  0  0  0  0  0  0  0
   -0.5271    0.0565    0.2598 C   0  0  0  0  0  0  0  0  0  0  0  0
   -1.8397    0.4704    0.3248 C   0  0  0  0  0  0  0  0  0  0  0  0
   -2.8591   -0.3099   -0.2456 N   0  0  0  0  0  0  0  0  0  0  0  0
   -4.2061    0.2600   -0.2822 C   0  0  0  0  0  0  0  0  0  0  0  0
   -4.4014    1.4194   -1.2202 C   0  0  0  0  0  0  0  0  0  0  0  0
   -5.7956    0.8244   -1.5052 C   0  0  0  0  0  0  0  0  0  0  0  0
   -5.1749   -0.5201   -1.1380 C   0  0  0  0  0  0  0  0  0  0  0  0
   -4.6338   -1.1629   -2.3713 C   0  0  0  0  0  0  0  0  0  0  0  0
   -5.8125   -1.9213   -3.0047 C   0  0  0  0  0  0  0  0  0  0  0  0
   -6.1674   -3.0625   -2.1746 N   0  0  0  0  0  0  0  0  0  0  0  0
   -7.5590   -3.3984   -2.2663 C   0  0  0  0  0  0  0  0  0  0  0  0
   -5.8029   -2.8553   -0.8006 C   0  0  0  0  0  0  0  0  0  0  0  0
   -6.0767   -1.4327   -0.3494 C   0  0  0  0  0  0  0  0  0  0  0  0
   -2.0982    1.6552    0.9952 C   0  0  0  0  0  0  0  0  0  0  0  0
   -1.1004    2.4063    1.5800 C   0  0  0  0  0  0  0  0  0  0  0  0
    0.1519    1.9571    1.4854 N   0  0  0  0  0  0  0  0  0  0  0  0
    0.4911    0.8195    0.8550 C   0  0  0  0  0  0  0  0  0  0  0  0
    1.8063    0.3956    0.7821 C   0  0  0  0  0  0  0  0  0  0  0  0
    2.1766   -0.7582    0.1440 C   0  0  0  0  0  0  0  0  0  0  0  0
    3.4790   -1.1373    0.0965 O   0  0  0  0  0  0  0  0  0  0  0  0
    4.5551   -0.4288    0.6653 C   0  0  0  0  0  0  0  0  0  0  0  0
    5.8272   -1.1969    0.3827 C   0  0  0  0  0  0  0  0  0  0  0  0
    7.0377   -0.4928    0.9647 C   0  0  0  0  0  0  0  0  0  0  0  0
    8.2495   -1.2328    0.6925 N   0  0  0  0  0  0  0  0  0  0  0  0
    8.6232   -1.2626   -0.6677 C   0  0  0  0  0  0  0  0  0  0  0  0
    9.7939   -0.3473   -0.8802 C   0  0  0  0  0  0  0  0  0  0  0  0
   10.4204   -0.3084    0.4887 C   0  0  0  0  0  0  0  0  0  0  0  0
    9.3226   -0.6840    1.4355 C   0  0  0  0  0  0  0  0  0  0  0  0
   -1.4371    3.6589    2.2798 C   0  0  0  0  0  0  0  0  0  0  0  0
   -0.5789    4.5238    2.9116 C   0  0  0  0  0  0  0  0  0  0  0  0
   -1.3477    5.5481    3.4165 C   0  0  0  0  0  0  0  0  0  0  0  0
   -2.6547    5.2680    3.0717 C   0  0  0  0  0  0  0  0  0  0  0  0
   -3.8689    6.0695    3.3832 C   0  0  0  0  0  0  0  0  0  0  0  0
   -2.6371    4.1585    2.4135 O   0  0  0  0  0  0  0  0  0  0  0  0
   -0.3788   -3.7005   -0.9797 H   0  0  0  0  0  0  0  0  0  0  0  0
   -0.0780   -2.8754   -2.5178 H   0  0  0  0  0  0  0  0  0  0  0  0
    0.8055   -4.3775   -2.1488 H   0  0  0  0  0  0  0  0  0  0  0  0
   -0.9124   -1.7111   -0.8523 H   0  0  0  0  0  0  0  0  0  0  0  0
   -2.7350   -1.2660   -0.6390 H   0  0  0  0  0  0  0  0  0  0  0  0
   -4.5596    0.4373    0.7313 H   0  0  0  0  0  0  0  0  0  0  0  0
   -3.7968    1.3757   -2.1487 H   0  0  0  0  0  0  0  0  0  0  0  0
   -4.4360    2.4086   -0.7792 H   0  0  0  0  0  0  0  0  0  0  0  0
   -6.5210    1.1783   -0.7473 H   0  0  0  0  0  0  0  0  0  0  0  0
   -6.0667    0.9473   -2.5559 H   0  0  0  0  0  0  0  0  0  0  0  0
   -3.8347   -1.9149   -2.2010 H   0  0  0  0  0  0  0  0  0  0  0  0
   -4.3406   -0.3822   -3.0886 H   0  0  0  0  0  0  0  0  0  0  0  0
   -6.7113   -1.2525   -3.0230 H   0  0  0  0  0  0  0  0  0  0  0  0
   -5.6036   -2.2224   -4.0347 H   0  0  0  0  0  0  0  0  0  0  0  0
   -8.2296   -2.6174   -1.8497 H   0  0  0  0  0  0  0  0  0  0  0  0
   -7.7799   -3.5631   -3.3582 H   0  0  0  0  0  0  0  0  0  0  0  0
   -7.6982   -4.3619   -1.7222 H   0  0  0  0  0  0  0  0  0  0  0  0
   -4.7105   -3.0779   -0.6304 H   0  0  0  0  0  0  0  0  0  0  0  0
   -6.3788   -3.5381   -0.1641 H   0  0  0  0  0  0  0  0  0  0  0  0
   -5.8260   -1.3667    0.7170 H   0  0  0  0  0  0  0  0  0  0  0  0
   -7.1484   -1.2268   -0.5227 H   0  0  0  0  0  0  0  0  0  0  0  0
   -3.1232    1.9704    1.0602 H   0  0  0  0  0  0  0  0  0  0  0  0
    2.5332    1.0505    1.2731 H   0  0  0  0  0  0  0  0  0  0  0  0
    4.6322    0.5806    0.2151 H   0  0  0  0  0  0  0  0  0  0  0  0
    4.4062   -0.2597    1.7645 H   0  0  0  0  0  0  0  0  0  0  0  0
    5.7255   -2.1763    0.9049 H   0  0  0  0  0  0  0  0  0  0  0  0
    5.9018   -1.2982   -0.7076 H   0  0  0  0  0  0  0  0  0  0  0  0
    6.9151   -0.2528    2.0224 H   0  0  0  0  0  0  0  0  0  0  0  0
    7.1374    0.4928    0.4301 H   0  0  0  0  0  0  0  0  0  0  0  0
    7.8026   -0.9893   -1.3761 H   0  0  0  0  0  0  0  0  0  0  0  0
    8.9356   -2.3181   -0.9178 H   0  0  0  0  0  0  0  0  0  0  0  0
   10.4870   -0.7187   -1.6647 H   0  0  0  0  0  0  0  0  0  0  0  0
    9.4940    0.6765   -1.1709 H   0  0  0  0  0  0  0  0  0  0  0  0
   11.2407   -1.0540    0.5645 H   0  0  0  0  0  0  0  0  0  0  0  0
   10.8290    0.7104    0.6880 H   0  0  0  0  0  0  0  0  0  0  0  0
    9.6796   -1.4371    2.1877 H   0  0  0  0  0  0  0  0  0  0  0  0
    9.0325    0.2511    1.9734 H   0  0  0  0  0  0  0  0  0  0  0  0
    0.5053    4.3935    2.9824 H   0  0  0  0  0  0  0  0  0  0  0  0
   -0.9830    6.3965    3.9710 H   0  0  0  0  0  0  0  0  0  0  0  0
   -4.0264    6.7747    2.5329 H   0  0  0  0  0  0  0  0  0  0  0  0
   -3.7399    6.6909    4.2860 H   0  0  0  0  0  0  0  0  0  0  0  0
   -4.7243    5.3933    3.4034 H   0  0  0  0  0  0  0  0  0  0  0  0
  1  2  1  0
  2  3  1  0
  3  4  2  0
  4  5  1  0
  5  6  2  0
  6  7  1  0
  7  8  1  0
  8  9  1  0
  9 10  1  0
 10 11  1  0
 11 12  1  0
 12 13  1  0
 13 14  1  0
 14 15  1  0
 14 16  1  0
 16 17  1  0
  6 18  1  0
 18 19  2  0
 19 20  1  0
 20 21  2  0
 21 22  1  0
 22 23  2  0
 23 24  1  0
 24 25  1  0
 25 26  1  0
 26 27  1  0
 27 28  1  0
 28 29  1  0
 29 30  1  0
 30 31  1  0
 31 32  1  0
 19 33  1  0
 33 34  2  0
 34 35  1  0
 35 36  2  0
 36 37  1  0
 36 38  1  0
 23  3  1  0
 32 28  1  0
 38 33  1  0
 21  5  1  0
 11  8  1  0
 17 11  1  0
  1 39  1  0
  1 40  1  0
  1 41  1  0
  4 42  1  0
  7 43  1  0
  8 44  1  0
  9 45  1  0
  9 46  1  0
 10 47  1  0
 10 48  1  0
 12 49  1  0
 12 50  1  0
 13 51  1  0
 13 52  1  0
 15 53  1  0
 15 54  1  0
 15 55  1  0
 16 56  1  0
 16 57  1  0
 17 58  1  0
 17 59  1  0
 18 60  1  0
 22 61  1  0
 25 62  1  0
 25 63  1  0
 26 64  1  0
 26 65  1  0
 27 66  1  0
 27 67  1  0
 29 68  1  0
 29 69  1  0
 30 70  1  0
 30 71  1  0
 31 72  1  0
 31 73  1  0
 32 74  1  0
 32 75  1  0
 34 76  1  0
 35 77  1  0
 37 78  1  0
 37 79  1  0
 37 80  1  0
M  END
$$$$
[H]c1c(N2C([H])([H])C([H])([H])OC([H])([H])C2([H])[H])nc2c([H])c(OC([H])([H])[H])c(OC([H])([H])[H])c([H])c2c1N([H])C1([H])C([H])([H])C([H])([H])N(C([H])([H])[H])C([H])([H])C1([H])[H]
     RDKit          3D

 58 61  0  0  0  0  0  0  0  0999 V2000
   -4.4858    5.0093   -0.9639 C   0  0  0  0  0  0  0  0  0  0  0  0
   -3.0979    4.9570   -1.0236 O   0  0  0  0  0  0  0  0  0  0  0  0
   -2.3336    3.8419   -0.7184 C   0  0  0  0  0  0  0  0  0  0  0  0
   -2.8464    2.6301   -0.3130 C   0  0  0  0  0  0  0  0  0  0  0  0
   -2.0436    1.5462   -0.0195 C   0  0  0  0  0  0  0  0  0  0  0  0
   -2.5878    0.3802    0.3727 N   0  0  0  0  0  0  0  0  0  0  0  0
   -1.8433   -0.6997    0.6675 C   0  0  0  0  0  0  0  0  0  0  0  0
   -0.4775   -0.6322    0.5719 C   0  0  0  0  0  0  0  0  0  0  0  0
    0.1240    0.5401    0.1744 C   0  0  0  0  0  0  0  0  0  0  0  0
    1.5331    0.6024    0.0918 N   0  0  0  0  0  0  0  0  0  0  0  0
    2.3439   -0.5812    0.3433 C   0  0  0  0  0  0  0  0  0  0  0  0
    3.8398   -0.2454    0.3201 C   0  0  0  0  0  0  0  0  0  0  0  0
    4.5916   -1.5296    0.4742 C   0  0  0  0  0  0  0  0  0  0  0  0
    4.4643   -2.3138   -0.7393 N   0  0  0  0  0  0  0  0  0  0  0  0
    5.7227   -2.3726   -1.4128 C   0  0  0  0  0  0  0  0  0  0  0  0
    3.3870   -1.8267   -1.5793 C   0  0  0  0  0  0  0  0  0  0  0  0
    2.1564   -1.6241   -0.7434 C   0  0  0  0  0  0  0  0  0  0  0  0
   -0.6524    1.6492   -0.1277 C   0  0  0  0  0  0  0  0  0  0  0  0
   -0.1163    2.8498   -0.5310 C   0  0  0  0  0  0  0  0  0  0  0  0
   -0.9485    3.9313   -0.8221 C   0  0  0  0  0  0  0  0  0  0  0  0
   -0.3575    5.1154   -1.2231 O   0  0  0  0  0  0  0  0  0  0  0  0
    1.0327    5.2013   -1.3261 C   0  0  0  0  0  0  0  0  0  0  0  0
   -2.5204   -1.9053    1.0805 N   0  0  0  0  0  0  0  0  0  0  0  0
   -1.7106   -3.0707    1.3619 C   0  0  0  0  0  0  0  0  0  0  0  0
   -2.5008   -4.3361    1.5165 C   0  0  0  0  0  0  0  0  0  0  0  0
   -3.7615   -4.1786    2.0355 O   0  0  0  0  0  0  0  0  0  0  0  0
   -4.5422   -3.2929    1.2971 C   0  0  0  0  0  0  0  0  0  0  0  0
   -3.9453   -1.9312    1.2044 C   0  0  0  0  0  0  0  0  0  0  0  0
   -4.7874    6.0869   -0.9969 H   0  0  0  0  0  0  0  0  0  0  0  0
   -4.9249    4.5568   -1.8932 H   0  0  0  0  0  0  0  0  0  0  0  0
   -4.9279    4.5906   -0.0506 H   0  0  0  0  0  0  0  0  0  0  0  0
   -3.9050    2.5223   -0.2214 H   0  0  0  0  0  0  0  0  0  0  0  0
    0.0674   -1.5390    0.8320 H   0  0  0  0  0  0  0  0  0  0  0  0
    2.0811    1.4564   -0.1423 H   0  0  0  0  0  0  0  0  0  0  0  0
    2.1236   -0.9985    1.3359 H   0  0  0  0  0  0  0  0  0  0  0  0
    4.1209    0.3163   -0.5741 H   0  0  0  0  0  0  0  0  0  0  0  0
    4.0127    0.3639    1.2505 H   0  0  0  0  0  0  0  0  0  0  0  0
    4.1287   -2.1297    1.2846 H   0  0  0  0  0  0  0  0  0  0  0  0
    5.6619   -1.3679    0.7156 H   0  0  0  0  0  0  0  0  0  0  0  0
    5.9452   -3.4022   -1.7635 H   0  0  0  0  0  0  0  0  0  0  0  0
    5.8130   -1.6637   -2.2697 H   0  0  0  0  0  0  0  0  0  0  0  0
    6.5210   -2.0976   -0.6931 H   0  0  0  0  0  0  0  0  0  0  0  0
    3.6315   -0.9120   -2.1265 H   0  0  0  0  0  0  0  0  0  0  0  0
    3.1638   -2.6096   -2.3155 H   0  0  0  0  0  0  0  0  0  0  0  0
    1.3151   -1.3807   -1.4205 H   0  0  0  0  0  0  0  0  0  0  0  0
    1.9137   -2.6132   -0.2605 H   0  0  0  0  0  0  0  0  0  0  0  0
    0.9657    2.9552   -0.6239 H   0  0  0  0  0  0  0  0  0  0  0  0
    1.3742    4.4614   -2.0741 H   0  0  0  0  0  0  0  0  0  0  0  0
    1.5357    5.0532   -0.3354 H   0  0  0  0  0  0  0  0  0  0  0  0
    1.2797    6.2449   -1.6246 H   0  0  0  0  0  0  0  0  0  0  0  0
   -1.0320   -3.2067    0.4775 H   0  0  0  0  0  0  0  0  0  0  0  0
   -1.1081   -2.8422    2.2852 H   0  0  0  0  0  0  0  0  0  0  0  0
   -2.4904   -4.9253    0.5717 H   0  0  0  0  0  0  0  0  0  0  0  0
   -1.9316   -4.9756    2.2520 H   0  0  0  0  0  0  0  0  0  0  0  0
   -5.5296   -3.2397    1.8356 H   0  0  0  0  0  0  0  0  0  0  0  0
   -4.7794   -3.7201    0.2987 H   0  0  0  0  0  0  0  0  0  0  0  0
   -4.2083   -1.3272    2.1221 H   0  0  0  0  0  0  0  0  0  0  0  0
   -4.4543   -1.3713    0.3686 H   0  0  0  0  0  0  0  0  0  0  0  0
  1  2  1  0
  2  3  1  0
  3  4  2  0
  4  5  1  0
  5  6  2  0
  6  7  1  0
  7  8  2  0
  8  9  1  0
  9 10  1  0
 10 11  1  0
 11 12  1  0
 12 13  1  0
 13 14  1  0
 14 15  1  0
 14 16  1  0
 16 17  1  0
  9 18  2  0
 18 19  1  0
 19 20  2  0
 20 21  1  0
 21 22  1  0
  7 23  1  0
 23 24  1  0
 24 25  1  0
 25 26  1  0
 26 27  1  0
 27 28  1  0
 20  3  1  0
 28 23  1  0
 18  5  1  0
 17 11  1  0
  1 29  1  0
  1 30  1  0
  1 31  1  0
  4 32  1  0
  8 33  1  0
 10 34  1  0
 11 35  1  0
 12 36  1  0
 12 37  1  0
 13 38  1  0
 13 39  1  0
 15 40  1  0
 15 41  1  0
 15 42  1  0
 16 43  1  0
 16 44  1  0
 17 45  1  0
 17 46  1  0
 19 47  1  0
 22 48  1  0
 22 49  1  0
 22 50  1  0
 24 51  1  0
 24 52  1  0
 25 53  1  0
 25 54  1  0
 27 55  1  0
 27 56  1  0
 28 57  1  0
 28 58  1  0
M  END
$$$$
[H]c1c(OC([H])([H])C([H])([H])C([H])([H])N2C([H])([H])C([H])([H])C([H])([H])C([H])([H])C2([H])[H])c(OC([H])([H])[H])c([H])c2c(N([H])C3([H])C([H])([H])C([H])([H])N(C4([H])C([H])([H])C([H])([H])C([H])([H])C([H])([H])C4([H])[H])C([H])([H])C3([H])[H])nc(N3C([H])([H])C([H])([H])N(C([H])([H])[H])C([H])([H])C([H])([H])C3([H])[H])nc12
     RDKit          3D

 98103  0  0  0  0  0  0  0  0999 V2000
    0.8366    2.8367    3.0605 C   0  0  0  0  0  0  0  0  0  0  0  0
    1.8501    2.2614    2.2525 O   0  0  0  0  0  0  0  0  0  0  0  0
    1.5102    1.2132    1.4163 C   0  0  0  0  0  0  0  0  0  0  0  0
    0.2032    0.6966    1.3352 C   0  0  0  0  0  0  0  0  0  0  0  0
   -0.1022   -0.3447    0.4948 C   0  0  0  0  0  0  0  0  0  0  0  0
   -1.3703   -0.8608    0.3954 C   0  0  0  0  0  0  0  0  0  0  0  0
   -2.4078   -0.3236    1.1828 N   0  0  0  0  0  0  0  0  0  0  0  0
   -3.7934   -0.8178    1.1045 C   0  0  0  0  0  0  0  0  0  0  0  0
   -4.3976   -0.5737   -0.2371 C   0  0  0  0  0  0  0  0  0  0  0  0
   -5.1306    0.7542   -0.3119 C   0  0  0  0  0  0  0  0  0  0  0  0
   -6.0076    0.9717    0.7611 N   0  0  0  0  0  0  0  0  0  0  0  0
   -6.0534    0.0484    1.8197 C   0  0  0  0  0  0  0  0  0  0  0  0
   -4.6342   -0.3045    2.2208 C   0  0  0  0  0  0  0  0  0  0  0  0
   -6.8850    2.0616    0.7549 C   0  0  0  0  0  0  0  0  0  0  0  0
   -6.1322    3.3740    0.7388 C   0  0  0  0  0  0  0  0  0  0  0  0
   -7.0522    4.5010    1.1623 C   0  0  0  0  0  0  0  0  0  0  0  0
   -8.3258    4.4442    0.3685 C   0  0  0  0  0  0  0  0  0  0  0  0
   -8.1970    3.4840   -0.8165 C   0  0  0  0  0  0  0  0  0  0  0  0
   -7.9030    2.0824   -0.3424 C   0  0  0  0  0  0  0  0  0  0  0  0
   -1.6169   -1.8985   -0.4648 N   0  0  0  0  0  0  0  0  0  0  0  0
   -0.6668   -2.4453   -1.2279 C   0  0  0  0  0  0  0  0  0  0  0  0
    0.5745   -1.9417   -1.1326 N   0  0  0  0  0  0  0  0  0  0  0  0
    0.8830   -0.9248   -0.3089 C   0  0  0  0  0  0  0  0  0  0  0  0
    2.1545   -0.4038   -0.2134 C   0  0  0  0  0  0  0  0  0  0  0  0
    2.4838    0.6440    0.6256 C   0  0  0  0  0  0  0  0  0  0  0  0
    3.7685    1.1497    0.7006 O   0  0  0  0  0  0  0  0  0  0  0  0
    4.8614    0.6995   -0.0331 C   0  0  0  0  0  0  0  0  0  0  0  0
    6.0755    1.5451    0.3697 C   0  0  0  0  0  0  0  0  0  0  0  0
    7.2970    1.1339   -0.3934 C   0  0  0  0  0  0  0  0  0  0  0  0
    8.4008    1.9657    0.0231 N   0  0  0  0  0  0  0  0  0  0  0  0
    8.7658    1.6616    1.3645 C   0  0  0  0  0  0  0  0  0  0  0  0
   10.1572    2.1466    1.7144 C   0  0  0  0  0  0  0  0  0  0  0  0
   10.4899    3.3884    0.8974 C   0  0  0  0  0  0  0  0  0  0  0  0
   10.5572    2.9496   -0.5595 C   0  0  0  0  0  0  0  0  0  0  0  0
    9.4712    1.9909   -0.9243 C   0  0  0  0  0  0  0  0  0  0  0  0
   -0.9435   -3.5343   -2.1223 N   0  0  0  0  0  0  0  0  0  0  0  0
    0.1807   -4.0178   -2.8572 C   0  0  0  0  0  0  0  0  0  0  0  0
    0.8282   -5.2290   -2.2428 C   0  0  0  0  0  0  0  0  0  0  0  0
   -0.0865   -5.7851   -1.1463 C   0  0  0  0  0  0  0  0  0  0  0  0
   -1.3377   -6.1041   -1.7533 N   0  0  0  0  0  0  0  0  0  0  0  0
   -1.6767   -7.4898   -1.7953 C   0  0  0  0  0  0  0  0  0  0  0  0
   -2.4355   -5.2589   -1.3413 C   0  0  0  0  0  0  0  0  0  0  0  0
   -2.3195   -3.9659   -2.1346 C   0  0  0  0  0  0  0  0  0  0  0  0
    0.3289    2.0147    3.6084 H   0  0  0  0  0  0  0  0  0  0  0  0
    0.0705    3.3306    2.4340 H   0  0  0  0  0  0  0  0  0  0  0  0
    1.2590    3.5153    3.8293 H   0  0  0  0  0  0  0  0  0  0  0  0
   -0.5291    1.1676    1.9670 H   0  0  0  0  0  0  0  0  0  0  0  0
   -2.2677    0.4383    1.8555 H   0  0  0  0  0  0  0  0  0  0  0  0
   -3.7093   -1.9372    1.2271 H   0  0  0  0  0  0  0  0  0  0  0  0
   -5.1767   -1.3515   -0.4477 H   0  0  0  0  0  0  0  0  0  0  0  0
   -3.7039   -0.5802   -1.0886 H   0  0  0  0  0  0  0  0  0  0  0  0
   -5.6709    0.7466   -1.2778 H   0  0  0  0  0  0  0  0  0  0  0  0
   -4.3692    1.5722   -0.3934 H   0  0  0  0  0  0  0  0  0  0  0  0
   -6.6258   -0.8815    1.5942 H   0  0  0  0  0  0  0  0  0  0  0  0
   -6.4883    0.5674    2.7261 H   0  0  0  0  0  0  0  0  0  0  0  0
   -4.1438    0.6253    2.6025 H   0  0  0  0  0  0  0  0  0  0  0  0
   -4.6419   -1.0223    3.0613 H   0  0  0  0  0  0  0  0  0  0  0  0
   -7.4535    2.0483    1.7329 H   0  0  0  0  0  0  0  0  0  0  0  0
   -5.8041    3.6036   -0.2957 H   0  0  0  0  0  0  0  0  0  0  0  0
   -5.2329    3.3184    1.3875 H   0  0  0  0  0  0  0  0  0  0  0  0
   -7.3206    4.4536    2.2343 H   0  0  0  0  0  0  0  0  0  0  0  0
   -6.4990    5.4661    0.9842 H   0  0  0  0  0  0  0  0  0  0  0  0
   -8.4843    5.4545   -0.0850 H   0  0  0  0  0  0  0  0  0  0  0  0
   -9.1855    4.1182    0.9849 H   0  0  0  0  0  0  0  0  0  0  0  0
   -9.1969    3.5043   -1.3301 H   0  0  0  0  0  0  0  0  0  0  0  0
   -7.4159    3.8786   -1.5106 H   0  0  0  0  0  0  0  0  0  0  0  0
   -8.8699    1.6760    0.0407 H   0  0  0  0  0  0  0  0  0  0  0  0
   -7.5439    1.5023   -1.2172 H   0  0  0  0  0  0  0  0  0  0  0  0
    2.9098   -0.8607   -0.8400 H   0  0  0  0  0  0  0  0  0  0  0  0
    5.1431   -0.3457    0.1315 H   0  0  0  0  0  0  0  0  0  0  0  0
    4.7433    0.8607   -1.1243 H   0  0  0  0  0  0  0  0  0  0  0  0
    5.8989    2.6144    0.2307 H   0  0  0  0  0  0  0  0  0  0  0  0
    6.2976    1.3784    1.4472 H   0  0  0  0  0  0  0  0  0  0  0  0
    7.1051    1.3874   -1.4726 H   0  0  0  0  0  0  0  0  0  0  0  0
    7.5234    0.0510   -0.2978 H   0  0  0  0  0  0  0  0  0  0  0  0
    8.7164    0.5682    1.5993 H   0  0  0  0  0  0  0  0  0  0  0  0
    8.0692    2.1653    2.0571 H   0  0  0  0  0  0  0  0  0  0  0  0
   10.8776    1.3707    1.3909 H   0  0  0  0  0  0  0  0  0  0  0  0
   10.2762    2.4127    2.7839 H   0  0  0  0  0  0  0  0  0  0  0  0
   11.4610    3.7908    1.2043 H   0  0  0  0  0  0  0  0  0  0  0  0
    9.6608    4.1103    1.0583 H   0  0  0  0  0  0  0  0  0  0  0  0
   11.5804    2.5019   -0.6843 H   0  0  0  0  0  0  0  0  0  0  0  0
   10.4583    3.8823   -1.1605 H   0  0  0  0  0  0  0  0  0  0  0  0
    9.8823    0.9433   -1.0118 H   0  0  0  0  0  0  0  0  0  0  0  0
    9.0751    2.2656   -1.9445 H   0  0  0  0  0  0  0  0  0  0  0  0
   -0.1628   -4.3105   -3.8817 H   0  0  0  0  0  0  0  0  0  0  0  0
    0.9746   -3.2389   -3.0007 H   0  0  0  0  0  0  0  0  0  0  0  0
    0.9227   -6.0408   -2.9906 H   0  0  0  0  0  0  0  0  0  0  0  0
    1.8451   -5.0391   -1.8448 H   0  0  0  0  0  0  0  0  0  0  0  0
    0.3863   -6.6698   -0.6638 H   0  0  0  0  0  0  0  0  0  0  0  0
   -0.1774   -5.0112   -0.3320 H   0  0  0  0  0  0  0  0  0  0  0  0
   -2.6115   -7.5672   -2.4162 H   0  0  0  0  0  0  0  0  0  0  0  0
   -0.8995   -8.0299   -2.3661 H   0  0  0  0  0  0  0  0  0  0  0  0
   -1.7894   -7.9684   -0.8074 H   0  0  0  0  0  0  0  0  0  0  0  0
   -2.3981   -5.0138   -0.2609 H   0  0  0  0  0  0  0  0  0  0  0  0
   -3.4022   -5.7694   -1.5242 H   0  0  0  0  0  0  0  0  0  0  0  0
   -2.5591   -4.2531   -3.1981 H   0  0  0  0  0  0  0  0  0  0  0  0
   -3.0063   -3.1940   -1.7564 H   0  0  0  0  0  0  0  0  0  0  0  0
  1  2  1  0
  2  3  1  0
  3  4  2  0
  4  5  1  0
  5  6  2  0
  6  7  1  0
  7  8  1  0
  8  9  1  0
  9 10  1  0
 10 11  1  0
 11 12  1  0
 12 13  1  0
 11 14  1  0
 14 15  1  0
 15 16  1  0
 16 17  1  0
 17 18  1  0
 18 19  1  0
  6 20  1  0
 20 21  2  0
 21 22  1  0
 22 23  2  0
 23 24  1  0
 24 25  2  0
 25 26  1  0
 26 27  1  0
 27 28  1  0
 28 29  1  0
 29 30  1  0
 30 31  1  0
 31 32  1  0
 32 33  1  0
 33 34  1  0
 34 35  1  0
 21 36  1  0
 36 37  1  0
 37 38  1  0
 38 39  1  0
 39 40  1  0
 40 41  1  0
 40 42  1  0
 42 43  1  0
 25  3  1  0
 35 30  1  0
 43 36  1  0
 23  5  1  0
 13  8  1  0
 19 14  1  0
  1 44  1  0
  1 45  1  0
  1 46  1  0
  4 47  1  0
  7 48  1  0
  8 49  1  0
  9 50  1  0
  9 51  1  0
 10 52  1  0
 10 53  1  0
 12 54  1  0
 12 55  1  0
 13 56  1  0
 13 57  1  0
 14 58  1  0
 15 59  1  0
 15 60  1  0
 16 61  1  0
 16 62  1  0
 17 63  1  0
 17 64  1  0
 18 65  1  0
 18 66  1  0
 19 67  1  0
 19 68  1  0
 24 69  1  0
 27 70  1  0
 27 71  1  0
 28 72  1  0
 28 73  1  0
 29 74  1  0
 29 75  1  0
 31 76  1  0
 31 77  1  0
 32 78  1  0
 32 79  1  0
 33 80  1  0
 33 81  1  0
 34 82  1  0
 34 83  1  0
 35 84  1  0
 35 85  1  0
 37 86  1  0
 37 87  1  0
 38 88  1  0
 38 89  1  0
 39 90  1  0
 39 91  1  0
 41 92  1  0
 41 93  1  0
 41 94  1  0
 42 95  1  0
 42 96  1  0
 43 97  1  0
 43 98  1  0
M  END
$$$$
[H]c1oc([H])c(-c2nc3c([H])c(OC([H])([H])C([H])([H])C([H])([H])N4C([H])([H])C([H])([H])C([H])([H])C4([H])[H])c(OC([H])([H])[H])c([H])c3c(N([H])C3([H])C([H])([H])C([H])([H])N(C([H])([H])[H])C([H])([H])C3([H])[H])c2[H])c1[H]
     RDKit          3D

 70 74  0  0  0  0  0  0  0  0999 V2000
   -1.7594    1.7222    2.3734 C   0  0  0  0  0  0  0  0  0  0  0  0
   -2.3725    1.0985    1.2536 O   0  0  0  0  0  0  0  0  0  0  0  0
   -1.5757    0.6925    0.1861 C   0  0  0  0  0  0  0  0  0  0  0  0
   -0.1977    0.9009    0.2291 C   0  0  0  0  0  0  0  0  0  0  0  0
    0.6263    0.5155   -0.8038 C   0  0  0  0  0  0  0  0  0  0  0  0
    1.9833    0.7240   -0.7515 C   0  0  0  0  0  0  0  0  0  0  0  0
    2.6073    1.3600    0.3273 N   0  0  0  0  0  0  0  0  0  0  0  0
    4.0508    1.4830    0.4608 C   0  0  0  0  0  0  0  0  0  0  0  0
    4.6309    0.1178    0.7425 C   0  0  0  0  0  0  0  0  0  0  0  0
    4.3845   -0.1759    2.2282 C   0  0  0  0  0  0  0  0  0  0  0  0
    5.3503    0.5782    2.9857 N   0  0  0  0  0  0  0  0  0  0  0  0
    6.5631   -0.2037    3.1069 C   0  0  0  0  0  0  0  0  0  0  0  0
    5.5686    1.8645    2.3995 C   0  0  0  0  0  0  0  0  0  0  0  0
    4.3418    2.3654    1.6494 C   0  0  0  0  0  0  0  0  0  0  0  0
    2.7320    0.2935   -1.8521 C   0  0  0  0  0  0  0  0  0  0  0  0
    2.1248   -0.3093   -2.9290 C   0  0  0  0  0  0  0  0  0  0  0  0
    0.8074   -0.5048   -2.9661 N   0  0  0  0  0  0  0  0  0  0  0  0
    0.0415   -0.1032   -1.9219 C   0  0  0  0  0  0  0  0  0  0  0  0
   -1.3250   -0.3080   -1.9608 C   0  0  0  0  0  0  0  0  0  0  0  0
   -2.1292    0.0852   -0.9179 C   0  0  0  0  0  0  0  0  0  0  0  0
   -3.5022   -0.1347   -0.9878 O   0  0  0  0  0  0  0  0  0  0  0  0
   -4.0960   -0.7472   -2.0988 C   0  0  0  0  0  0  0  0  0  0  0  0
   -5.5786   -0.8491   -1.8878 C   0  0  0  0  0  0  0  0  0  0  0  0
   -5.8470   -1.6680   -0.6630 C   0  0  0  0  0  0  0  0  0  0  0  0
   -5.2879   -1.0579    0.5233 N   0  0  0  0  0  0  0  0  0  0  0  0
   -6.0194    0.1237    0.8364 C   0  0  0  0  0  0  0  0  0  0  0  0
   -6.3843    0.0659    2.3028 C   0  0  0  0  0  0  0  0  0  0  0  0
   -5.7288   -1.1602    2.8436 C   0  0  0  0  0  0  0  0  0  0  0  0
   -5.3814   -1.9667    1.6392 C   0  0  0  0  0  0  0  0  0  0  0  0
    2.9358   -0.7475   -4.0566 C   0  0  0  0  0  0  0  0  0  0  0  0
    2.5297   -1.3683   -5.2239 C   0  0  0  0  0  0  0  0  0  0  0  0
    3.6558   -1.5906   -5.9906 C   0  0  0  0  0  0  0  0  0  0  0  0
    4.6983   -1.1346   -5.3375 O   0  0  0  0  0  0  0  0  0  0  0  0
    4.3182   -0.6250   -4.1836 C   0  0  0  0  0  0  0  0  0  0  0  0
   -1.1684    2.6201    2.0530 H   0  0  0  0  0  0  0  0  0  0  0  0
   -1.0421    1.0588    2.8931 H   0  0  0  0  0  0  0  0  0  0  0  0
   -2.5180    2.0292    3.1131 H   0  0  0  0  0  0  0  0  0  0  0  0
    0.2312    1.3789    1.1085 H   0  0  0  0  0  0  0  0  0  0  0  0
    2.0335    1.7789    1.0831 H   0  0  0  0  0  0  0  0  0  0  0  0
    4.4961    1.8998   -0.4791 H   0  0  0  0  0  0  0  0  0  0  0  0
    4.2231   -0.7013    0.1584 H   0  0  0  0  0  0  0  0  0  0  0  0
    5.7465    0.1863    0.6123 H   0  0  0  0  0  0  0  0  0  0  0  0
    3.3481   -0.0023    2.5216 H   0  0  0  0  0  0  0  0  0  0  0  0
    4.5838   -1.2726    2.4102 H   0  0  0  0  0  0  0  0  0  0  0  0
    6.3557   -1.1078    3.7310 H   0  0  0  0  0  0  0  0  0  0  0  0
    6.9202   -0.5595    2.1215 H   0  0  0  0  0  0  0  0  0  0  0  0
    7.3353    0.4517    3.5673 H   0  0  0  0  0  0  0  0  0  0  0  0
    6.4293    1.8531    1.6884 H   0  0  0  0  0  0  0  0  0  0  0  0
    5.7733    2.6128    3.1923 H   0  0  0  0  0  0  0  0  0  0  0  0
    4.5798    3.4055    1.3449 H   0  0  0  0  0  0  0  0  0  0  0  0
    3.5136    2.4226    2.3684 H   0  0  0  0  0  0  0  0  0  0  0  0
    3.7941    0.4765   -1.7996 H   0  0  0  0  0  0  0  0  0  0  0  0
   -1.7442   -0.7886   -2.8389 H   0  0  0  0  0  0  0  0  0  0  0  0
   -3.7105   -1.7997   -2.1792 H   0  0  0  0  0  0  0  0  0  0  0  0
   -3.8325   -0.2500   -3.0564 H   0  0  0  0  0  0  0  0  0  0  0  0
   -6.0957   -1.2516   -2.7844 H   0  0  0  0  0  0  0  0  0  0  0  0
   -5.9391    0.2032   -1.6989 H   0  0  0  0  0  0  0  0  0  0  0  0
   -5.4323   -2.6899   -0.7238 H   0  0  0  0  0  0  0  0  0  0  0  0
   -6.9600   -1.7962   -0.5532 H   0  0  0  0  0  0  0  0  0  0  0  0
   -5.4724    1.0604    0.6769 H   0  0  0  0  0  0  0  0  0  0  0  0
   -6.9980    0.1808    0.2735 H   0  0  0  0  0  0  0  0  0  0  0  0
   -5.9587    0.9431    2.8629 H   0  0  0  0  0  0  0  0  0  0  0  0
   -7.4667    0.0941    2.4771 H   0  0  0  0  0  0  0  0  0  0  0  0
   -6.4288   -1.7449    3.4764 H   0  0  0  0  0  0  0  0  0  0  0  0
   -4.8017   -0.9076    3.4194 H   0  0  0  0  0  0  0  0  0  0  0  0
   -4.4424   -2.5437    1.7954 H   0  0  0  0  0  0  0  0  0  0  0  0
   -6.1991   -2.7188    1.4551 H   0  0  0  0  0  0  0  0  0  0  0  0
    1.5063   -1.6172   -5.4558 H   0  0  0  0  0  0  0  0  0  0  0  0
    3.6676   -2.0702   -6.9817 H   0  0  0  0  0  0  0  0  0  0  0  0
    4.9080   -0.1699   -3.4079 H   0  0  0  0  0  0  0  0  0  0  0  0
  1  2  1  0
  2  3  1  0
  3  4  2  0
  4  5  1  0
  5  6  2  0
  6  7  1  0
  7  8  1  0
  8  9  1  0
  9 10  1  0
 10 11  1  0
 11 12  1  0
 11 13  1  0
 13 14  1  0
  6 15  1  0
 15 16  2  0
 16 17  1  0
 17 18  2  0
 18 19  1  0
 19 20  2  0
 20 21  1  0
 21 22  1  0
 22 23  1  0
 23 24  1  0
 24 25  1  0
 25 26  1  0
 26 27  1  0
 27 28  1  0
 28 29  1  0
 16 30  1  0
 30 31  1  0
 31 32  2  0
 32 33  1  0
 33 34  1  0
 20  3  1  0
 29 25  1  0
 34 30  2  0
 18  5  1  0
 14  8  1  0
  1 35  1  0
  1 36  1  0
  1 37  1  0
  4 38  1  0
  7 39  1  0
  8 40  1  0
  9 41  1  0
  9 42  1  0
 10 43  1  0
 10 44  1  0
 12 45  1  0
 12 46  1  0
 12 47  1  0
 13 48  1  0
 13 49  1  0
 14 50  1  0
 14 51  1  0
 15 52  1  0
 19 53  1  0
 22 54  1  0
 22 55  1  0
 23 56  1  0
 23 57  1  0
 24 58  1  0
 24 59  1  0
 26 60  1  0
 26 61  1  0
 27 62  1  0
 27 63  1  0
 28 64  1  0
 28 65  1  0
 29 66  1  0
 29 67  1  0
 31 68  1  0
 32 69  1  0
 34 70  1  0
M  END
$$$$
[H]c1c(-c2nc3c([H])c(OC([H])([H])C([H])([H])C([H])([H])N4C([H])([H])C([H])([H])C([H])([H])C4([H])[H])c(OC([H])([H])[H])c([H])c3c(N([H])C3([H])C([H])([H])C([H])([H])N(C([H])(C([H])([H])[H])C([H])([H])[H])C([H])([H])C3([H])[H])c2[H])oc(C([H])([H])C([H])([H])[H])c1[H]
     RDKit          3D

 82 86  0  0  0  0  0  0  0  0999 V2000
   -4.9488   -5.0457   -3.4671 C   0  0  0  0  0  0  0  0  0  0  0  0
   -4.5987   -5.4335   -2.0431 C   0  0  0  0  0  0  0  0  0  0  0  0
   -3.2599   -4.8528   -1.7611 C   0  0  0  0  0  0  0  0  0  0  0  0
   -2.0896   -5.5525   -2.0190 C   0  0  0  0  0  0  0  0  0  0  0  0
   -1.0792   -4.7026   -1.6342 C   0  0  0  0  0  0  0  0  0  0  0  0
   -1.6398   -3.5563   -1.1718 C   0  0  0  0  0  0  0  0  0  0  0  0
   -2.9513   -3.6973   -1.2693 O   0  0  0  0  0  0  0  0  0  0  0  0
   -0.9886   -2.3489   -0.6478 C   0  0  0  0  0  0  0  0  0  0  0  0
   -1.7278   -1.2621   -0.2061 C   0  0  0  0  0  0  0  0  0  0  0  0
   -1.1739   -0.1033    0.2963 C   0  0  0  0  0  0  0  0  0  0  0  0
   -1.9373    0.9951    0.7305 N   0  0  0  0  0  0  0  0  0  0  0  0
   -3.3518    1.1446    0.8101 C   0  0  0  0  0  0  0  0  0  0  0  0
   -4.0691    0.1979    1.7185 C   0  0  0  0  0  0  0  0  0  0  0  0
   -5.3933    0.9097    2.0771 C   0  0  0  0  0  0  0  0  0  0  0  0
   -6.0996    1.1510    0.8649 N   0  0  0  0  0  0  0  0  0  0  0  0
   -5.4369    1.9158   -0.1314 C   0  0  0  0  0  0  0  0  0  0  0  0
   -4.0969    1.2300   -0.4873 C   0  0  0  0  0  0  0  0  0  0  0  0
   -7.5031    1.3627    0.9833 C   0  0  0  0  0  0  0  0  0  0  0  0
   -7.8940    2.5582    1.7791 C   0  0  0  0  0  0  0  0  0  0  0  0
   -8.1668    0.1421    1.5808 C   0  0  0  0  0  0  0  0  0  0  0  0
    0.2042   -0.0589    0.3472 C   0  0  0  0  0  0  0  0  0  0  0  0
    0.9206    1.0074    0.8165 C   0  0  0  0  0  0  0  0  0  0  0  0
    2.2678    1.0549    0.8697 C   0  0  0  0  0  0  0  0  0  0  0  0
    2.9154    2.1710    1.3582 O   0  0  0  0  0  0  0  0  0  0  0  0
    2.1551    3.2662    1.8031 C   0  0  0  0  0  0  0  0  0  0  0  0
    3.0580   -0.0225    0.4330 C   0  0  0  0  0  0  0  0  0  0  0  0
    4.3487    0.0280    0.4860 O   0  0  0  0  0  0  0  0  0  0  0  0
    5.6324    0.0509    0.5270 C   0  0  0  0  0  0  0  0  0  0  0  0
    6.3672   -0.0991   -0.8136 C   0  0  0  0  0  0  0  0  0  0  0  0
    7.8462   -0.0596   -0.6414 C   0  0  0  0  0  0  0  0  0  0  0  0
    8.2944    1.1646   -0.0575 N   0  0  0  0  0  0  0  0  0  0  0  0
    9.7323    1.1912    0.1349 C   0  0  0  0  0  0  0  0  0  0  0  0
   10.0849    2.6690    0.0991 C   0  0  0  0  0  0  0  0  0  0  0  0
    9.0931    3.1976   -0.8950 C   0  0  0  0  0  0  0  0  0  0  0  0
    7.9009    2.3260   -0.7714 C   0  0  0  0  0  0  0  0  0  0  0  0
    2.3277   -1.1163   -0.0481 C   0  0  0  0  0  0  0  0  0  0  0  0
    0.9615   -1.1536   -0.0974 C   0  0  0  0  0  0  0  0  0  0  0  0
    0.3365   -2.2447   -0.5728 N   0  0  0  0  0  0  0  0  0  0  0  0
   -5.3040   -4.0082   -3.4846 H   0  0  0  0  0  0  0  0  0  0  0  0
   -5.6855   -5.7503   -3.9165 H   0  0  0  0  0  0  0  0  0  0  0  0
   -4.0050   -5.1711   -4.0535 H   0  0  0  0  0  0  0  0  0  0  0  0
   -5.3321   -5.0446   -1.3181 H   0  0  0  0  0  0  0  0  0  0  0  0
   -4.6188   -6.5314   -1.9618 H   0  0  0  0  0  0  0  0  0  0  0  0
   -1.9970   -6.5536   -2.4339 H   0  0  0  0  0  0  0  0  0  0  0  0
   -0.0120   -4.9166   -1.6921 H   0  0  0  0  0  0  0  0  0  0  0  0
   -2.7899   -1.3826   -0.2867 H   0  0  0  0  0  0  0  0  0  0  0  0
   -1.3771    1.8612    1.0462 H   0  0  0  0  0  0  0  0  0  0  0  0
   -3.5435    2.1854    1.2854 H   0  0  0  0  0  0  0  0  0  0  0  0
   -3.4984   -0.0161    2.6238 H   0  0  0  0  0  0  0  0  0  0  0  0
   -4.3830   -0.6986    1.1691 H   0  0  0  0  0  0  0  0  0  0  0  0
   -5.9695    0.1273    2.6427 H   0  0  0  0  0  0  0  0  0  0  0  0
   -5.2126    1.7919    2.7067 H   0  0  0  0  0  0  0  0  0  0  0  0
   -5.2471    2.9692    0.1322 H   0  0  0  0  0  0  0  0  0  0  0  0
   -6.0363    1.8683   -1.0600 H   0  0  0  0  0  0  0  0  0  0  0  0
   -3.5995    1.8810   -1.2318 H   0  0  0  0  0  0  0  0  0  0  0  0
   -4.3330    0.2309   -0.8525 H   0  0  0  0  0  0  0  0  0  0  0  0
   -7.9079    1.4435   -0.0610 H   0  0  0  0  0  0  0  0  0  0  0  0
   -8.3971    2.2796    2.7523 H   0  0  0  0  0  0  0  0  0  0  0  0
   -8.6674    3.1227    1.2191 H   0  0  0  0  0  0  0  0  0  0  0  0
   -7.0735    3.2787    1.9697 H   0  0  0  0  0  0  0  0  0  0  0  0
   -7.7847   -0.7337    1.0396 H   0  0  0  0  0  0  0  0  0  0  0  0
   -9.2574    0.2169    1.3510 H   0  0  0  0  0  0  0  0  0  0  0  0
   -8.0853    0.0865    2.6743 H   0  0  0  0  0  0  0  0  0  0  0  0
    0.3826    1.8839    1.1769 H   0  0  0  0  0  0  0  0  0  0  0  0
    1.4931    3.5881    0.9538 H   0  0  0  0  0  0  0  0  0  0  0  0
    1.4695    2.9483    2.6134 H   0  0  0  0  0  0  0  0  0  0  0  0
    2.7940    4.1013    2.1602 H   0  0  0  0  0  0  0  0  0  0  0  0
    6.1526   -0.6669    1.2545 H   0  0  0  0  0  0  0  0  0  0  0  0
    6.0297    1.0570    0.9130 H   0  0  0  0  0  0  0  0  0  0  0  0
    6.0482    0.6743   -1.5273 H   0  0  0  0  0  0  0  0  0  0  0  0
    6.0920   -1.1097   -1.1966 H   0  0  0  0  0  0  0  0  0  0  0  0
    8.1366   -0.8838    0.0614 H   0  0  0  0  0  0  0  0  0  0  0  0
    8.3027   -0.2715   -1.6302 H   0  0  0  0  0  0  0  0  0  0  0  0
   10.2615    0.6338   -0.6623 H   0  0  0  0  0  0  0  0  0  0  0  0
   10.0021    0.7797    1.1096 H   0  0  0  0  0  0  0  0  0  0  0  0
   11.1287    2.8346   -0.2318 H   0  0  0  0  0  0  0  0  0  0  0  0
    9.9220    3.1442    1.0832 H   0  0  0  0  0  0  0  0  0  0  0  0
    8.8314    4.2559   -0.6484 H   0  0  0  0  0  0  0  0  0  0  0  0
    9.4854    3.1412   -1.9340 H   0  0  0  0  0  0  0  0  0  0  0  0
    7.0874    2.8947   -0.2644 H   0  0  0  0  0  0  0  0  0  0  0  0
    7.5529    1.9905   -1.7840 H   0  0  0  0  0  0  0  0  0  0  0  0
    2.9051   -1.9557   -0.3889 H   0  0  0  0  0  0  0  0  0  0  0  0
  1  2  1  0
  2  3  1  0
  3  4  2  0
  4  5  1  0
  5  6  2  0
  6  7  1  0
  6  8  1  0
  8  9  2  0
  9 10  1  0
 10 11  1  0
 11 12  1  0
 12 13  1  0
 13 14  1  0
 14 15  1  0
 15 16  1  0
 16 17  1  0
 15 18  1  0
 18 19  1  0
 18 20  1  0
 10 21  2  0
 21 22  1  0
 22 23  2  0
 23 24  1  0
 24 25  1  0
 23 26  1  0
 26 27  1  0
 27 28  1  0
 28 29  1  0
 29 30  1  0
 30 31  1  0
 31 32  1  0
 32 33  1  0
 33 34  1  0
 34 35  1  0
 26 36  2  0
 36 37  1  0
 37 38  2  0
  7  3  1  0
 38  8  1  0
 17 12  1  0
 37 21  1  0
 35 31  1  0
  1 39  1  0
  1 40  1  0
  1 41  1  0
  2 42  1  0
  2 43  1  0
  4 44  1  0
  5 45  1  0
  9 46  1  0
 11 47  1  0
 12 48  1  0
 13 49  1  0
 13 50  1  0
 14 51  1  0
 14 52  1  0
 16 53  1  0
 16 54  1  0
 17 55  1  0
 17 56  1  0
 18 57  1  0
 19 58  1  0
 19 59  1  0
 19 60  1  0
 20 61  1  0
 20 62  1  0
 20 63  1  0
 22 64  1  0
 25 65  1  0
 25 66  1  0
 25 67  1  0
 28 68  1  0
 28 69  1  0
 29 70  1  0
 29 71  1  0
 30 72  1  0
 30 73  1  0
 32 74  1  0
 32 75  1  0
 33 76  1  0
 33 77  1  0
 34 78  1  0
 34 79  1  0
 35 80  1  0
 35 81  1  0
 36 82  1  0
M  END
$$$$
[H]c1c(OC([H])([H])C([H])([H])OC([H])([H])C([H])([H])N(C([H])([H])[H])C([H])([H])[H])c(OC([H])([H])[H])c([H])c2c(N([H])C3([H])C([H])([H])C([H])([H])N(C([H])(C([H])([H])[H])C([H])([H])[H])C([H])([H])C3([H])[H])nc(C3([H])C([H])([H])C([H])([H])C([H])([H])C([H])([H])C3([H])[H])nc12
     RDKit          3D

 84 87  0  0  0  0  0  0  0  0999 V2000
    2.7779   -1.9667    3.1960 C   0  0  0  0  0  0  0  0  0  0  0  0
    3.3305   -0.9223    2.4242 O   0  0  0  0  0  0  0  0  0  0  0  0
    2.5781   -0.0766    1.6603 C   0  0  0  0  0  0  0  0  0  0  0  0
    1.2053   -0.1971    1.5983 C   0  0  0  0  0  0  0  0  0  0  0  0
    0.3780    0.5997    0.8653 C   0  0  0  0  0  0  0  0  0  0  0  0
   -0.9772    0.4333    0.8419 C   0  0  0  0  0  0  0  0  0  0  0  0
   -1.6186   -0.5696    1.5846 N   0  0  0  0  0  0  0  0  0  0  0  0
   -3.0520   -0.7951    1.5738 C   0  0  0  0  0  0  0  0  0  0  0  0
   -3.5418   -1.2255    0.2348 C   0  0  0  0  0  0  0  0  0  0  0  0
   -4.8571   -1.8935    0.1821 C   0  0  0  0  0  0  0  0  0  0  0  0
   -5.2518   -2.6193    1.3366 N   0  0  0  0  0  0  0  0  0  0  0  0
   -4.8804   -2.0187    2.5870 C   0  0  0  0  0  0  0  0  0  0  0  0
   -3.3720   -1.8888    2.5632 C   0  0  0  0  0  0  0  0  0  0  0  0
   -6.5651   -3.1567    1.3099 C   0  0  0  0  0  0  0  0  0  0  0  0
   -6.8031   -4.1667    0.2304 C   0  0  0  0  0  0  0  0  0  0  0  0
   -7.5660   -2.0257    1.3029 C   0  0  0  0  0  0  0  0  0  0  0  0
   -1.6935    1.3060    0.0620 N   0  0  0  0  0  0  0  0  0  0  0  0
   -1.1235    2.2811   -0.6513 C   0  0  0  0  0  0  0  0  0  0  0  0
    0.2132    2.4099   -0.6004 N   0  0  0  0  0  0  0  0  0  0  0  0
    1.0095    1.6089    0.1314 C   0  0  0  0  0  0  0  0  0  0  0  0
    2.3833    1.7832    0.1511 C   0  0  0  0  0  0  0  0  0  0  0  0
    3.1596    0.9558    0.9011 C   0  0  0  0  0  0  0  0  0  0  0  0
    4.4960    1.0537    0.9698 O   0  0  0  0  0  0  0  0  0  0  0  0
    5.3402    1.9122    0.3036 C   0  0  0  0  0  0  0  0  0  0  0  0
    5.3363    1.6354   -1.1769 C   0  0  0  0  0  0  0  0  0  0  0  0
    5.7535    0.3240   -1.4478 O   0  0  0  0  0  0  0  0  0  0  0  0
    7.0195    0.0327   -1.0195 C   0  0  0  0  0  0  0  0  0  0  0  0
    7.3200   -1.4102   -1.4222 C   0  0  0  0  0  0  0  0  0  0  0  0
    8.6537   -1.7933   -0.9983 N   0  0  0  0  0  0  0  0  0  0  0  0
    8.9060   -3.1637   -1.3940 C   0  0  0  0  0  0  0  0  0  0  0  0
    9.6574   -0.9556   -1.6277 C   0  0  0  0  0  0  0  0  0  0  0  0
   -1.8982    3.2354   -1.4901 C   0  0  0  0  0  0  0  0  0  0  0  0
   -2.6997    4.1917   -0.6175 C   0  0  0  0  0  0  0  0  0  0  0  0
   -4.1825    4.0641   -0.8186 C   0  0  0  0  0  0  0  0  0  0  0  0
   -4.5817    4.2590   -2.2625 C   0  0  0  0  0  0  0  0  0  0  0  0
   -3.5855    3.6184   -3.1983 C   0  0  0  0  0  0  0  0  0  0  0  0
   -2.7849    2.5497   -2.4839 C   0  0  0  0  0  0  0  0  0  0  0  0
    2.0507   -2.5838    2.5925 H   0  0  0  0  0  0  0  0  0  0  0  0
    3.5500   -2.6434    3.5804 H   0  0  0  0  0  0  0  0  0  0  0  0
    2.1780   -1.5147    4.0169 H   0  0  0  0  0  0  0  0  0  0  0  0
    0.7746   -0.9932    2.1855 H   0  0  0  0  0  0  0  0  0  0  0  0
   -1.0689   -1.2031    2.1863 H   0  0  0  0  0  0  0  0  0  0  0  0
   -3.5851    0.1506    1.8361 H   0  0  0  0  0  0  0  0  0  0  0  0
   -3.5863   -0.3230   -0.4295 H   0  0  0  0  0  0  0  0  0  0  0  0
   -2.7123   -1.8386   -0.2276 H   0  0  0  0  0  0  0  0  0  0  0  0
   -4.8969   -2.5606   -0.7064 H   0  0  0  0  0  0  0  0  0  0  0  0
   -5.6515   -1.1102    0.0012 H   0  0  0  0  0  0  0  0  0  0  0  0
   -5.2599   -2.6167    3.4129 H   0  0  0  0  0  0  0  0  0  0  0  0
   -5.2846   -0.9683    2.5786 H   0  0  0  0  0  0  0  0  0  0  0  0
   -2.9080   -2.8278    2.2113 H   0  0  0  0  0  0  0  0  0  0  0  0
   -2.9691   -1.6206    3.5629 H   0  0  0  0  0  0  0  0  0  0  0  0
   -6.7235   -3.6965    2.2898 H   0  0  0  0  0  0  0  0  0  0  0  0
   -6.4479   -3.8841   -0.7599 H   0  0  0  0  0  0  0  0  0  0  0  0
   -7.8962   -4.4215    0.2498 H   0  0  0  0  0  0  0  0  0  0  0  0
   -6.2835   -5.1165    0.5042 H   0  0  0  0  0  0  0  0  0  0  0  0
   -7.0865   -1.0646    1.5887 H   0  0  0  0  0  0  0  0  0  0  0  0
   -8.0586   -1.9704    0.3099 H   0  0  0  0  0  0  0  0  0  0  0  0
   -8.4031   -2.2128    2.0344 H   0  0  0  0  0  0  0  0  0  0  0  0
    2.7502    2.6055   -0.4277 H   0  0  0  0  0  0  0  0  0  0  0  0
    5.0287    2.9875    0.4791 H   0  0  0  0  0  0  0  0  0  0  0  0
    6.3700    1.8513    0.7304 H   0  0  0  0  0  0  0  0  0  0  0  0
    6.0680    2.3643   -1.6157 H   0  0  0  0  0  0  0  0  0  0  0  0
    4.3604    1.7311   -1.6633 H   0  0  0  0  0  0  0  0  0  0  0  0
    7.0610    0.1152    0.0986 H   0  0  0  0  0  0  0  0  0  0  0  0
    7.7318    0.7484   -1.4295 H   0  0  0  0  0  0  0  0  0  0  0  0
    6.5793   -2.0683   -0.9466 H   0  0  0  0  0  0  0  0  0  0  0  0
    7.2021   -1.5045   -2.5182 H   0  0  0  0  0  0  0  0  0  0  0  0
    9.3418   -3.7007   -0.5142 H   0  0  0  0  0  0  0  0  0  0  0  0
    7.9677   -3.7091   -1.6546 H   0  0  0  0  0  0  0  0  0  0  0  0
    9.6208   -3.2431   -2.2230 H   0  0  0  0  0  0  0  0  0  0  0  0
   10.6604   -1.4198   -1.5303 H   0  0  0  0  0  0  0  0  0  0  0  0
    9.4621   -0.8841   -2.7321 H   0  0  0  0  0  0  0  0  0  0  0  0
    9.7028    0.0336   -1.1562 H   0  0  0  0  0  0  0  0  0  0  0  0
   -1.1935    3.8837   -2.0487 H   0  0  0  0  0  0  0  0  0  0  0  0
   -2.5021    3.9124    0.4559 H   0  0  0  0  0  0  0  0  0  0  0  0
   -2.3845    5.2430   -0.7142 H   0  0  0  0  0  0  0  0  0  0  0  0
   -4.5243    3.1183   -0.3829 H   0  0  0  0  0  0  0  0  0  0  0  0
   -4.6504    4.8861   -0.2224 H   0  0  0  0  0  0  0  0  0  0  0  0
   -4.7438    5.3370   -2.4734 H   0  0  0  0  0  0  0  0  0  0  0  0
   -5.5512    3.7382   -2.4002 H   0  0  0  0  0  0  0  0  0  0  0  0
   -4.0934    3.2636   -4.0991 H   0  0  0  0  0  0  0  0  0  0  0  0
   -2.8578    4.4073   -3.5286 H   0  0  0  0  0  0  0  0  0  0  0  0
   -2.1373    2.0825   -3.2663 H   0  0  0  0  0  0  0  0  0  0  0  0
   -3.4839    1.8308   -2.0361 H   0  0  0  0  0  0  0  0  0  0  0  0
  1  2  1  0
  2  3  1  0
  3  4  2  0
  4  5  1  0
  5  6  2  0
  6  7  1  0
  7  8  1  0
  8  9  1  0
  9 10  1  0
 10 11  1  0
 11 12  1  0
 12 13  1  0
 11 14  1  0
 14 15  1  0
 14 16  1  0
  6 17  1  0
 17 18  2  0
 18 19  1  0
 19 20  2  0
 20 21  1  0
 21 22  2  0
 22 23  1  0
 23 24  1  0
 24 25  1  0
 25 26  1  0
 26 27  1  0
 27 28  1  0
 28 29  1  0
 29 30  1  0
 29 31  1  0
 18 32  1  0
 32 33  1  0
 33 34  1  0
 34 35  1  0
 35 36  1  0
 36 37  1  0
 22  3  1  0
 37 32  1  0
 20  5  1  0
 13  8  1  0
  1 38  1  0
  1 39  1  0
  1 40  1  0
  4 41  1  0
  7 42  1  0
  8 43  1  0
  9 44  1  0
  9 45  1  0
 10 46  1  0
 10 47  1  0
 12 48  1  0
 12 49  1  0
 13 50  1  0
 13 51  1  0
 14 52  1  0
 15 53  1  0
 15 54  1  0
 15 55  1  0
 16 56  1  0
 16 57  1  0
 16 58  1  0
 21 59  1  0
 24 60  1  0
 24 61  1  0
 25 62  1  0
 25 63  1  0
 27 64  1  0
 27 65  1  0
 28 66  1  0
 28 67  1  0
 30 68  1  0
 30 69  1  0
 30 70  1  0
 31 71  1  0
 31 72  1  0
 31 73  1  0
 32 74  1  0
 33 75  1  0
 33 76  1  0
 34 77  1  0
 34 78  1  0
 35 79  1  0
 35 80  1  0
 36 81  1  0
 36 82  1  0
 37 83  1  0
 37 84  1  0
M  END
$$$$
[H]c1c2c(c([H])c(OC([H])([H])[H])c1OC([H])([H])C1([H])C([H])([H])N(C([H])([H])[H])C([H])([H])C1([H])[H])C1(C(N([H])[H])=N2)C([H])([H])C([H])([H])C1([H])[H]
     RDKit          3D

 48 51  0  0  0  0  0  0  0  0999 V2000
   -1.4466    1.5634   -3.6365 C   0  0  0  0  0  0  0  0  0  0  0  0
   -0.5192    0.9968   -2.7308 O   0  0  0  0  0  0  0  0  0  0  0  0
   -0.8907    0.4003   -1.5485 C   0  0  0  0  0  0  0  0  0  0  0  0
   -2.1987    0.3271   -1.1902 C   0  0  0  0  0  0  0  0  0  0  0  0
   -2.5599   -0.2724   -0.0038 C   0  0  0  0  0  0  0  0  0  0  0  0
   -1.5781   -0.7908    0.8031 C   0  0  0  0  0  0  0  0  0  0  0  0
   -0.2526   -0.7217    0.4490 C   0  0  0  0  0  0  0  0  0  0  0  0
    0.1651   -0.1189   -0.7523 C   0  0  0  0  0  0  0  0  0  0  0  0
    1.4074   -0.0482   -1.0927 O   0  0  0  0  0  0  0  0  0  0  0  0
    2.6569   -0.0528   -1.2902 C   0  0  0  0  0  0  0  0  0  0  0  0
    3.4790    0.7116   -0.2280 C   0  0  0  0  0  0  0  0  0  0  0  0
    3.3056    0.1431    1.1380 C   0  0  0  0  0  0  0  0  0  0  0  0
    4.6813    0.1476    1.7453 C   0  0  0  0  0  0  0  0  0  0  0  0
    5.6256    0.5017    0.7386 N   0  0  0  0  0  0  0  0  0  0  0  0
    6.6897   -0.4950    0.5795 C   0  0  0  0  0  0  0  0  0  0  0  0
    4.9641    0.6282   -0.5290 C   0  0  0  0  0  0  0  0  0  0  0  0
   -2.2182   -1.3570    1.9767 N   0  0  0  0  0  0  0  0  0  0  0  0
   -3.4839   -1.2017    1.9007 C   0  0  0  0  0  0  0  0  0  0  0  0
   -4.4136   -1.6366    2.8769 N   0  0  0  0  0  0  0  0  0  0  0  0
   -3.8252   -0.5156    0.6683 C   0  0  0  0  0  0  0  0  0  0  0  0
   -4.8713   -1.2764   -0.1065 C   0  0  0  0  0  0  0  0  0  0  0  0
   -5.9108   -0.3534    0.4893 C   0  0  0  0  0  0  0  0  0  0  0  0
   -4.7895    0.6299    0.7568 C   0  0  0  0  0  0  0  0  0  0  0  0
   -2.0868    0.7658   -4.1002 H   0  0  0  0  0  0  0  0  0  0  0  0
   -2.1819    2.2225   -3.1008 H   0  0  0  0  0  0  0  0  0  0  0  0
   -0.9487    2.2025   -4.3742 H   0  0  0  0  0  0  0  0  0  0  0  0
   -2.9590    0.7557   -1.8664 H   0  0  0  0  0  0  0  0  0  0  0  0
    0.4971   -1.1585    1.1314 H   0  0  0  0  0  0  0  0  0  0  0  0
    3.1008   -1.1192   -1.2807 H   0  0  0  0  0  0  0  0  0  0  0  0
    3.0093    0.3286   -2.3076 H   0  0  0  0  0  0  0  0  0  0  0  0
    3.1201    1.7605   -0.3068 H   0  0  0  0  0  0  0  0  0  0  0  0
    2.8753   -0.8843    1.1058 H   0  0  0  0  0  0  0  0  0  0  0  0
    2.5817    0.7786    1.6936 H   0  0  0  0  0  0  0  0  0  0  0  0
    4.6532    0.9187    2.5675 H   0  0  0  0  0  0  0  0  0  0  0  0
    4.9011   -0.8179    2.2459 H   0  0  0  0  0  0  0  0  0  0  0  0
    7.0844   -0.8439    1.5417 H   0  0  0  0  0  0  0  0  0  0  0  0
    7.4689   -0.0054   -0.0501 H   0  0  0  0  0  0  0  0  0  0  0  0
    6.2513   -1.3070   -0.0490 H   0  0  0  0  0  0  0  0  0  0  0  0
    5.1576   -0.2704   -1.1580 H   0  0  0  0  0  0  0  0  0  0  0  0
    5.3195    1.5332   -1.0525 H   0  0  0  0  0  0  0  0  0  0  0  0
   -4.6664   -1.0443    3.6971 H   0  0  0  0  0  0  0  0  0  0  0  0
   -4.8781   -2.5847    2.7942 H   0  0  0  0  0  0  0  0  0  0  0  0
   -4.7926   -1.2185   -1.1912 H   0  0  0  0  0  0  0  0  0  0  0  0
   -4.9850   -2.3444    0.2120 H   0  0  0  0  0  0  0  0  0  0  0  0
   -6.3699   -0.6880    1.4393 H   0  0  0  0  0  0  0  0  0  0  0  0
   -6.6658   -0.0205   -0.2321 H   0  0  0  0  0  0  0  0  0  0  0  0
   -4.8404    1.1674    1.7144 H   0  0  0  0  0  0  0  0  0  0  0  0
   -4.6620    1.3445   -0.0868 H   0  0  0  0  0  0  0  0  0  0  0  0
  1  2  1  0
  2  3  1  0
  3  4  2  0
  4  5  1  0
  5  6  2  0
  6  7  1  0
  7  8  2  0
  8  9  1  0
  9 10  1  0
 10 11  1  0
 11 12  1  0
 12 13  1  0
 13 14  1  0
 14 15  1  0
 14 16  1  0
  6 17  1  0
 17 18  2  0
 18 19  1  0
 18 20  1  0
 20 21  1  0
 21 22  1  0
 22 23  1  0
  8  3  1  0
 16 11  1  0
 23 20  1  0
 20  5  1  0
  1 24  1  0
  1 25  1  0
  1 26  1  0
  4 27  1  0
  7 28  1  0
 10 29  1  0
 10 30  1  0
 11 31  1  0
 12 32  1  0
 12 33  1  0
 13 34  1  0
 13 35  1  0
 15 36  1  0
 15 37  1  0
 15 38  1  0
 16 39  1  0
 16 40  1  0
 19 41  1  0
 19 42  1  0
 21 43  1  0
 21 44  1  0
 22 45  1  0
 22 46  1  0
 23 47  1  0
 23 48  1  0
M  END
$$$$
[H]c1c(-c2nc3c([H])c(OC([H])([H])C([H])([H])C([H])([H])N4C([H])([H])C([H])([H])C([H])([H])C4([H])[H])c(OC([H])([H])[H])c([H])c3c(N([H])C([H])([H])C3([H])C([H])([H])C([H])([H])N(C([H])([H])[H])C([H])([H])C3([H])[H])c2[H])oc(C([H])([H])C([H])([H])[H])c1[H]
     RDKit          3D

 79 83  0  0  0  0  0  0  0  0999 V2000
   -0.6962    7.1094    3.4395 C   0  0  0  0  0  0  0  0  0  0  0  0
   -0.9771    7.0283    1.9581 C   0  0  0  0  0  0  0  0  0  0  0  0
   -1.6450    5.7453    1.6508 C   0  0  0  0  0  0  0  0  0  0  0  0
   -2.9987    5.4984    1.6388 C   0  0  0  0  0  0  0  0  0  0  0  0
   -3.1206    4.1685    1.2985 C   0  0  0  0  0  0  0  0  0  0  0  0
   -1.8653    3.6598    1.1182 C   0  0  0  0  0  0  0  0  0  0  0  0
   -1.0214    4.6335    1.3385 O   0  0  0  0  0  0  0  0  0  0  0  0
   -1.5676    2.2691    0.7459 C   0  0  0  0  0  0  0  0  0  0  0  0
   -2.5895    1.3726    0.5499 C   0  0  0  0  0  0  0  0  0  0  0  0
   -2.2596    0.0536    0.1951 C   0  0  0  0  0  0  0  0  0  0  0  0
   -3.3219   -0.8659   -0.0066 N   0  0  0  0  0  0  0  0  0  0  0  0
   -4.7136   -0.4668    0.1519 C   0  0  0  0  0  0  0  0  0  0  0  0
   -5.6151   -1.6226   -0.1229 C   0  0  0  0  0  0  0  0  0  0  0  0
   -5.4146   -2.8007    0.7654 C   0  0  0  0  0  0  0  0  0  0  0  0
   -5.3442   -4.1094    0.0442 C   0  0  0  0  0  0  0  0  0  0  0  0
   -6.2627   -4.2707   -1.0204 N   0  0  0  0  0  0  0  0  0  0  0  0
   -7.4670   -4.9889   -0.6849 C   0  0  0  0  0  0  0  0  0  0  0  0
   -6.4840   -3.1140   -1.8327 C   0  0  0  0  0  0  0  0  0  0  0  0
   -5.4622   -2.0263   -1.5727 C   0  0  0  0  0  0  0  0  0  0  0  0
   -0.9441   -0.3302    0.0477 C   0  0  0  0  0  0  0  0  0  0  0  0
   -0.5692   -1.6018   -0.2961 C   0  0  0  0  0  0  0  0  0  0  0  0
    0.7627   -1.9132   -0.4247 C   0  0  0  0  0  0  0  0  0  0  0  0
    1.1095   -3.2029   -0.7723 O   0  0  0  0  0  0  0  0  0  0  0  0
    0.1595   -4.2129   -1.0007 C   0  0  0  0  0  0  0  0  0  0  0  0
    1.7627   -0.9844   -0.2193 C   0  0  0  0  0  0  0  0  0  0  0  0
    3.0941   -1.3387   -0.3588 O   0  0  0  0  0  0  0  0  0  0  0  0
    4.0869   -0.3624   -0.1401 C   0  0  0  0  0  0  0  0  0  0  0  0
    5.4829   -0.9101   -0.3319 C   0  0  0  0  0  0  0  0  0  0  0  0
    6.4371    0.2330   -0.0678 C   0  0  0  0  0  0  0  0  0  0  0  0
    7.8154   -0.1262   -0.2097 N   0  0  0  0  0  0  0  0  0  0  0  0
    8.6046    1.0616    0.0736 C   0  0  0  0  0  0  0  0  0  0  0  0
    9.8844    0.7788   -0.6729 C   0  0  0  0  0  0  0  0  0  0  0  0
    9.3661    0.2131   -1.9811 C   0  0  0  0  0  0  0  0  0  0  0  0
    8.1662   -0.5679   -1.5264 C   0  0  0  0  0  0  0  0  0  0  0  0
    1.4068    0.2949    0.1257 C   0  0  0  0  0  0  0  0  0  0  0  0
    0.0604    0.6211    0.2587 C   0  0  0  0  0  0  0  0  0  0  0  0
   -0.2924    1.8679    0.5955 N   0  0  0  0  0  0  0  0  0  0  0  0
   -1.4285    7.7847    3.9209 H   0  0  0  0  0  0  0  0  0  0  0  0
   -0.7804    6.1215    3.9413 H   0  0  0  0  0  0  0  0  0  0  0  0
    0.3254    7.5415    3.6408 H   0  0  0  0  0  0  0  0  0  0  0  0
   -1.5766    7.8882    1.5844 H   0  0  0  0  0  0  0  0  0  0  0  0
   -0.0175    7.0591    1.4184 H   0  0  0  0  0  0  0  0  0  0  0  0
   -3.7598    6.2254    1.8567 H   0  0  0  0  0  0  0  0  0  0  0  0
   -4.0455    3.6142    1.1902 H   0  0  0  0  0  0  0  0  0  0  0  0
   -3.6177    1.6818    0.6674 H   0  0  0  0  0  0  0  0  0  0  0  0
   -3.1274   -1.8348   -0.2696 H   0  0  0  0  0  0  0  0  0  0  0  0
   -4.8898    0.0093    1.1370 H   0  0  0  0  0  0  0  0  0  0  0  0
   -4.9018    0.3030   -0.6258 H   0  0  0  0  0  0  0  0  0  0  0  0
   -6.6826   -1.2791    0.0071 H   0  0  0  0  0  0  0  0  0  0  0  0
   -4.4194   -2.6588    1.2800 H   0  0  0  0  0  0  0  0  0  0  0  0
   -6.1580   -2.8130    1.5844 H   0  0  0  0  0  0  0  0  0  0  0  0
   -5.5547   -4.9166    0.8029 H   0  0  0  0  0  0  0  0  0  0  0  0
   -4.3159   -4.3096   -0.3331 H   0  0  0  0  0  0  0  0  0  0  0  0
   -8.2339   -4.2333   -0.3974 H   0  0  0  0  0  0  0  0  0  0  0  0
   -7.8633   -5.5248   -1.5576 H   0  0  0  0  0  0  0  0  0  0  0  0
   -7.3086   -5.6278    0.2024 H   0  0  0  0  0  0  0  0  0  0  0  0
   -7.4762   -2.6804   -1.5102 H   0  0  0  0  0  0  0  0  0  0  0  0
   -6.5350   -3.3534   -2.8968 H   0  0  0  0  0  0  0  0  0  0  0  0
   -5.7556   -1.1567   -2.1884 H   0  0  0  0  0  0  0  0  0  0  0  0
   -4.4402   -2.3725   -1.7334 H   0  0  0  0  0  0  0  0  0  0  0  0
   -1.3221   -2.3536   -0.4644 H   0  0  0  0  0  0  0  0  0  0  0  0
   -0.5340   -3.8450   -1.7884 H   0  0  0  0  0  0  0  0  0  0  0  0
    0.6999   -5.0759   -1.4482 H   0  0  0  0  0  0  0  0  0  0  0  0
   -0.3503   -4.4909   -0.0698 H   0  0  0  0  0  0  0  0  0  0  0  0
    3.9864    0.1041    0.8675 H   0  0  0  0  0  0  0  0  0  0  0  0
    3.9441    0.4190   -0.9215 H   0  0  0  0  0  0  0  0  0  0  0  0
    5.6149   -1.7294    0.3962 H   0  0  0  0  0  0  0  0  0  0  0  0
    5.5788   -1.3186   -1.3433 H   0  0  0  0  0  0  0  0  0  0  0  0
    6.1893    1.0323   -0.7881 H   0  0  0  0  0  0  0  0  0  0  0  0
    6.2752    0.5396    0.9881 H   0  0  0  0  0  0  0  0  0  0  0  0
    8.7584    1.2130    1.1554 H   0  0  0  0  0  0  0  0  0  0  0  0
    8.1034    1.9186   -0.4088 H   0  0  0  0  0  0  0  0  0  0  0  0
   10.4926    1.6931   -0.8302 H   0  0  0  0  0  0  0  0  0  0  0  0
   10.4814    0.0256   -0.1226 H   0  0  0  0  0  0  0  0  0  0  0  0
    9.0645    1.0633   -2.6327 H   0  0  0  0  0  0  0  0  0  0  0  0
   10.1324   -0.4391   -2.4639 H   0  0  0  0  0  0  0  0  0  0  0  0
    7.3209   -0.4330   -2.2160 H   0  0  0  0  0  0  0  0  0  0  0  0
    8.4303   -1.6630   -1.5357 H   0  0  0  0  0  0  0  0  0  0  0  0
    2.1294    1.0790    0.3034 H   0  0  0  0  0  0  0  0  0  0  0  0
  1  2  1  0
  2  3  1  0
  3  4  2  0
  4  5  1  0
  5  6  2  0
  6  7  1  0
  6  8  1  0
  8  9  2  0
  9 10  1  0
 10 11  1  0
 11 12  1  0
 12 13  1  0
 13 14  1  0
 14 15  1  0
 15 16  1  0
 16 17  1  0
 16 18  1  0
 18 19  1  0
 10 20  2  0
 20 21  1  0
 21 22  2  0
 22 23  1  0
 23 24  1  0
 22 25  1  0
 25 26  1  0
 26 27  1  0
 27 28  1  0
 28 29  1  0
 29 30  1  0
 30 31  1  0
 31 32  1  0
 32 33  1  0
 33 34  1  0
 25 35  2  0
 35 36  1  0
 36 37  2  0
  7  3  1  0
 37  8  1  0
 19 13  1  0
 36 20  1  0
 34 30  1  0
  1 38  1  0
  1 39  1  0
  1 40  1  0
  2 41  1  0
  2 42  1  0
  4 43  1  0
  5 44  1  0
  9 45  1  0
 11 46  1  0
 12 47  1  0
 12 48  1  0
 13 49  1  0
 14 50  1  0
 14 51  1  0
 15 52  1  0
 15 53  1  0
 17 54  1  0
 17 55  1  0
 17 56  1  0
 18 57  1  0
 18 58  1  0
 19 59  1  0
 19 60  1  0
 21 61  1  0
 24 62  1  0
 24 63  1  0
 24 64  1  0
 27 65  1  0
 27 66  1  0
 28 67  1  0
 28 68  1  0
 29 69  1  0
 29 70  1  0
 31 71  1  0
 31 72  1  0
 32 73  1  0
 32 74  1  0
 33 75  1  0
 33 76  1  0
 34 77  1  0
 34 78  1  0
 35 79  1  0
M  END
$$$$
[H]c1c2c(c([H])c(OC([H])([H])[H])c1OC([H])([H])C([H])([H])C([H])([H])N1C([H])([H])C([H])([H])[C@]([H])(F)C1([H])[H])C1(C(N([H])[H])=N2)C([H])([H])C([H])([H])C1([H])[H]
     RDKit          3D

 51 54  0  0  0  0  0  0  0  0999 V2000
   -1.9399   -4.1196   -1.0751 C   0  0  0  0  0  0  0  0  0  0  0  0
   -1.1884   -3.0098   -0.6949 O   0  0  0  0  0  0  0  0  0  0  0  0
   -1.6611   -1.7631   -0.3540 C   0  0  0  0  0  0  0  0  0  0  0  0
   -2.9769   -1.3735   -0.3201 C   0  0  0  0  0  0  0  0  0  0  0  0
   -3.3880   -0.0921    0.0360 C   0  0  0  0  0  0  0  0  0  0  0  0
   -2.4374    0.8436    0.3762 C   0  0  0  0  0  0  0  0  0  0  0  0
   -1.1045    0.4507    0.3422 C   0  0  0  0  0  0  0  0  0  0  0  0
   -0.6924   -0.8111   -0.0092 C   0  0  0  0  0  0  0  0  0  0  0  0
    0.6522   -1.1676   -0.0361 O   0  0  0  0  0  0  0  0  0  0  0  0
    1.5996   -0.1984    0.3119 C   0  0  0  0  0  0  0  0  0  0  0  0
    3.0201   -0.7146    0.2044 C   0  0  0  0  0  0  0  0  0  0  0  0
    3.9367    0.4115    0.5995 C   0  0  0  0  0  0  0  0  0  0  0  0
    5.3390    0.0534    0.5231 N   0  0  0  0  0  0  0  0  0  0  0  0
    5.6911   -0.1263   -0.8634 C   0  0  0  0  0  0  0  0  0  0  0  0
    6.9432    0.6282   -1.1470 C   0  0  0  0  0  0  0  0  0  0  0  0
    7.2199    1.4372    0.0879 C   0  0  2  0  0  0  0  0  0  0  0  0
    8.4395    1.0738    0.6326 F   0  0  0  0  0  0  0  0  0  0  0  0
    6.0956    1.1632    1.0354 C   0  0  0  0  0  0  0  0  0  0  0  0
   -3.1041    2.0550    0.6986 N   0  0  0  0  0  0  0  0  0  0  0  0
   -4.3779    1.9368    0.5831 C   0  0  0  0  0  0  0  0  0  0  0  0
   -5.3742    2.9444    0.8240 N   0  0  0  0  0  0  0  0  0  0  0  0
   -4.6828    0.5776    0.1485 C   0  0  0  0  0  0  0  0  0  0  0  0
   -5.7462   -0.1504    0.9281 C   0  0  0  0  0  0  0  0  0  0  0  0
   -6.7456    0.2870   -0.1313 C   0  0  0  0  0  0  0  0  0  0  0  0
   -5.5755    0.4806   -1.0727 C   0  0  0  0  0  0  0  0  0  0  0  0
   -2.0982   -4.2340   -2.1644 H   0  0  0  0  0  0  0  0  0  0  0  0
   -1.3995   -5.0547   -0.7352 H   0  0  0  0  0  0  0  0  0  0  0  0
   -2.8932   -4.1216   -0.4961 H   0  0  0  0  0  0  0  0  0  0  0  0
   -3.7243   -2.1329   -0.5916 H   0  0  0  0  0  0  0  0  0  0  0  0
   -0.3836    1.2289    0.6193 H   0  0  0  0  0  0  0  0  0  0  0  0
    1.4399    0.7395   -0.2534 H   0  0  0  0  0  0  0  0  0  0  0  0
    1.4052    0.0644    1.3872 H   0  0  0  0  0  0  0  0  0  0  0  0
    3.1367   -1.5606    0.9075 H   0  0  0  0  0  0  0  0  0  0  0  0
    3.2401   -1.1066   -0.8044 H   0  0  0  0  0  0  0  0  0  0  0  0
    3.7169    1.2722   -0.0788 H   0  0  0  0  0  0  0  0  0  0  0  0
    3.6620    0.6890    1.6494 H   0  0  0  0  0  0  0  0  0  0  0  0
    5.8695   -1.1913   -1.1093 H   0  0  0  0  0  0  0  0  0  0  0  0
    4.8805    0.3117   -1.5122 H   0  0  0  0  0  0  0  0  0  0  0  0
    7.8003   -0.0424   -1.3938 H   0  0  0  0  0  0  0  0  0  0  0  0
    6.8333    1.2900   -2.0528 H   0  0  0  0  0  0  0  0  0  0  0  0
    7.3023    2.5352   -0.1503 H   0  0  0  0  0  0  0  0  0  0  0  0
    6.5183    0.9803    2.0565 H   0  0  0  0  0  0  0  0  0  0  0  0
    5.4756    2.0954    1.1226 H   0  0  0  0  0  0  0  0  0  0  0  0
   -5.3699    3.8314    0.3030 H   0  0  0  0  0  0  0  0  0  0  0  0
   -6.0964    2.7635    1.5327 H   0  0  0  0  0  0  0  0  0  0  0  0
   -5.9538    0.2683    1.9319 H   0  0  0  0  0  0  0  0  0  0  0  0
   -5.6055   -1.2484    0.8750 H   0  0  0  0  0  0  0  0  0  0  0  0
   -7.4283   -0.5298   -0.4524 H   0  0  0  0  0  0  0  0  0  0  0  0
   -7.2555    1.2467    0.1007 H   0  0  0  0  0  0  0  0  0  0  0  0
   -5.5995    1.4729   -1.5890 H   0  0  0  0  0  0  0  0  0  0  0  0
   -5.4147   -0.3836   -1.7243 H   0  0  0  0  0  0  0  0  0  0  0  0
  1  2  1  0
  2  3  1  0
  3  4  2  0
  4  5  1  0
  5  6  2  0
  6  7  1  0
  7  8  2  0
  8  9  1  0
  9 10  1  0
 10 11  1  0
 11 12  1  0
 12 13  1  0
 13 14  1  0
 14 15  1  0
 15 16  1  0
 16 17  1  0
 16 18  1  0
  6 19  1  0
 19 20  2  0
 20 21  1  0
 20 22  1  0
 22 23  1  0
 23 24  1  0
 24 25  1  0
  8  3  1  0
 18 13  1  0
 25 22  1  0
 22  5  1  0
  1 26  1  0
  1 27  1  0
  1 28  1  0
  4 29  1  0
  7 30  1  0
 10 31  1  0
 10 32  1  0
 11 33  1  0
 11 34  1  0
 12 35  1  0
 12 36  1  0
 14 37  1  0
 14 38  1  0
 15 39  1  0
 15 40  1  0
 16 41  1  6
 18 42  1  0
 18 43  1  0
 21 44  1  0
 21 45  1  0
 23 46  1  0
 23 47  1  0
 24 48  1  0
 24 49  1  0
 25 50  1  0
 25 51  1  0
M  END
$$$$
[H]c1c(-c2nc3c([H])c(OC([H])([H])C([H])([H])C([H])([H])N4C([H])([H])C([H])([H])C([H])([H])C4([H])[H])c(OC([H])([H])[H])c([H])c3c(N([H])C3([H])C([H])([H])C4(C([H])([H])C([H])([H])N(C([H])([H])[H])C([H])([H])C4([H])[H])C3([H])[H])c2[H])oc(C([H])([H])[H])c1[H]
     RDKit          3D

 80 85  0  0  0  0  0  0  0  0999 V2000
    1.6262   -1.9639   -3.0486 C   0  0  0  0  0  0  0  0  0  0  0  0
    2.3732   -1.1915   -2.1288 O   0  0  0  0  0  0  0  0  0  0  0  0
    1.7925   -0.1966   -1.3522 C   0  0  0  0  0  0  0  0  0  0  0  0
    0.4214    0.0596   -1.4752 C   0  0  0  0  0  0  0  0  0  0  0  0
   -0.2070    1.0340   -0.7304 C   0  0  0  0  0  0  0  0  0  0  0  0
   -1.5622    1.3209   -0.8191 C   0  0  0  0  0  0  0  0  0  0  0  0
   -2.3585    0.5931   -1.7310 N   0  0  0  0  0  0  0  0  0  0  0  0
   -3.7890    0.7836   -1.8269 C   0  0  0  0  0  0  0  0  0  0  0  0
   -4.5056    0.3675   -0.5685 C   0  0  0  0  0  0  0  0  0  0  0  0
   -5.1044   -0.7982   -1.3544 C   0  0  0  0  0  0  0  0  0  0  0  0
   -4.4909   -0.2946   -2.6233 C   0  0  0  0  0  0  0  0  0  0  0  0
   -6.6005   -0.8200   -1.3386 C   0  0  0  0  0  0  0  0  0  0  0  0
   -7.1651   -2.0532   -0.6972 C   0  0  0  0  0  0  0  0  0  0  0  0
   -6.6576   -3.2728   -1.2606 N   0  0  0  0  0  0  0  0  0  0  0  0
   -6.8756   -4.3284   -0.2726 C   0  0  0  0  0  0  0  0  0  0  0  0
   -5.2608   -3.2299   -1.5910 C   0  0  0  0  0  0  0  0  0  0  0  0
   -4.5833   -2.1178   -0.8554 C   0  0  0  0  0  0  0  0  0  0  0  0
   -2.1169    2.3258   -0.0247 C   0  0  0  0  0  0  0  0  0  0  0  0
   -1.3417    3.0444    0.8525 C   0  0  0  0  0  0  0  0  0  0  0  0
   -0.0394    2.7412    0.9120 N   0  0  0  0  0  0  0  0  0  0  0  0
    0.5514    1.7861    0.1735 C   0  0  0  0  0  0  0  0  0  0  0  0
    1.9030    1.5179    0.2803 C   0  0  0  0  0  0  0  0  0  0  0  0
    2.5362    0.5439   -0.4630 C   0  0  0  0  0  0  0  0  0  0  0  0
    3.8803    0.3071   -0.3288 O   0  0  0  0  0  0  0  0  0  0  0  0
    4.7303    0.9945    0.5392 C   0  0  0  0  0  0  0  0  0  0  0  0
    6.1339    0.4014    0.3570 C   0  0  0  0  0  0  0  0  0  0  0  0
    6.0736   -1.0864    0.7034 C   0  0  0  0  0  0  0  0  0  0  0  0
    7.4104   -1.6126    0.5213 N   0  0  0  0  0  0  0  0  0  0  0  0
    7.4779   -3.0303    0.8233 C   0  0  0  0  0  0  0  0  0  0  0  0
    8.9873   -3.2700    0.7044 C   0  0  0  0  0  0  0  0  0  0  0  0
    9.5759   -1.9640    1.2175 C   0  0  0  0  0  0  0  0  0  0  0  0
    8.3682   -1.0622    1.4348 C   0  0  0  0  0  0  0  0  0  0  0  0
   -1.9227    4.1095    1.6971 C   0  0  0  0  0  0  0  0  0  0  0  0
   -3.2144    4.5340    1.7551 C   0  0  0  0  0  0  0  0  0  0  0  0
   -3.2481    5.5490    2.6966 C   0  0  0  0  0  0  0  0  0  0  0  0
   -1.9722    5.6874    3.1614 C   0  0  0  0  0  0  0  0  0  0  0  0
   -1.4874    6.6511    4.1911 C   0  0  0  0  0  0  0  0  0  0  0  0
   -1.2367    4.8227    2.5450 O   0  0  0  0  0  0  0  0  0  0  0  0
    1.3192   -1.3448   -3.9350 H   0  0  0  0  0  0  0  0  0  0  0  0
    2.3153   -2.7810   -3.4003 H   0  0  0  0  0  0  0  0  0  0  0  0
    0.7286   -2.4065   -2.5768 H   0  0  0  0  0  0  0  0  0  0  0  0
   -0.1304   -0.5316   -2.1720 H   0  0  0  0  0  0  0  0  0  0  0  0
   -1.9477   -0.1012   -2.3674 H   0  0  0  0  0  0  0  0  0  0  0  0
   -4.0523    1.7956   -2.2017 H   0  0  0  0  0  0  0  0  0  0  0  0
   -5.2989    1.0396   -0.2223 H   0  0  0  0  0  0  0  0  0  0  0  0
   -3.8377    0.0319    0.2673 H   0  0  0  0  0  0  0  0  0  0  0  0
   -3.8043   -0.9891   -3.1429 H   0  0  0  0  0  0  0  0  0  0  0  0
   -5.2244    0.1243   -3.3603 H   0  0  0  0  0  0  0  0  0  0  0  0
   -6.9611    0.0521   -0.7347 H   0  0  0  0  0  0  0  0  0  0  0  0
   -7.0460   -0.6995   -2.3407 H   0  0  0  0  0  0  0  0  0  0  0  0
   -6.9334   -2.0411    0.3764 H   0  0  0  0  0  0  0  0  0  0  0  0
   -8.2756   -2.0278   -0.8498 H   0  0  0  0  0  0  0  0  0  0  0  0
   -6.7146   -5.3387   -0.7099 H   0  0  0  0  0  0  0  0  0  0  0  0
   -6.1734   -4.1120    0.5665 H   0  0  0  0  0  0  0  0  0  0  0  0
   -7.9211   -4.2137    0.0988 H   0  0  0  0  0  0  0  0  0  0  0  0
   -5.0947   -3.0739   -2.6801 H   0  0  0  0  0  0  0  0  0  0  0  0
   -4.7422   -4.1784   -1.3322 H   0  0  0  0  0  0  0  0  0  0  0  0
   -3.4828   -2.1495   -0.9758 H   0  0  0  0  0  0  0  0  0  0  0  0
   -4.7904   -2.2222    0.2310 H   0  0  0  0  0  0  0  0  0  0  0  0
   -3.1727    2.5624   -0.0920 H   0  0  0  0  0  0  0  0  0  0  0  0
    2.4861    2.1071    0.9853 H   0  0  0  0  0  0  0  0  0  0  0  0
    4.7169    2.0607    0.2521 H   0  0  0  0  0  0  0  0  0  0  0  0
    4.4338    0.9362    1.5905 H   0  0  0  0  0  0  0  0  0  0  0  0
    6.5050    0.5513   -0.6578 H   0  0  0  0  0  0  0  0  0  0  0  0
    6.7915    0.9470    1.0563 H   0  0  0  0  0  0  0  0  0  0  0  0
    5.3984   -1.6099    0.0092 H   0  0  0  0  0  0  0  0  0  0  0  0
    5.6850   -1.2350    1.7310 H   0  0  0  0  0  0  0  0  0  0  0  0
    6.9139   -3.5795    0.0523 H   0  0  0  0  0  0  0  0  0  0  0  0
    7.1376   -3.2382    1.8591 H   0  0  0  0  0  0  0  0  0  0  0  0
    9.1979   -3.3372   -0.3971 H   0  0  0  0  0  0  0  0  0  0  0  0
    9.3179   -4.1439    1.2640 H   0  0  0  0  0  0  0  0  0  0  0  0
   10.1331   -2.1205    2.1641 H   0  0  0  0  0  0  0  0  0  0  0  0
   10.1976   -1.4631    0.4448 H   0  0  0  0  0  0  0  0  0  0  0  0
    8.0043   -1.1270    2.4847 H   0  0  0  0  0  0  0  0  0  0  0  0
    8.5839   -0.0174    1.1763 H   0  0  0  0  0  0  0  0  0  0  0  0
   -4.0364    4.1313    1.1621 H   0  0  0  0  0  0  0  0  0  0  0  0
   -4.1355    6.1156    2.9940 H   0  0  0  0  0  0  0  0  0  0  0  0
   -2.2025    6.6378    5.0415 H   0  0  0  0  0  0  0  0  0  0  0  0
   -0.4644    6.4311    4.4998 H   0  0  0  0  0  0  0  0  0  0  0  0
   -1.5251    7.6766    3.7660 H   0  0  0  0  0  0  0  0  0  0  0  0
  1  2  1  0
  2  3  1  0
  3  4  2  0
  4  5  1  0
  5  6  2  0
  6  7  1  0
  7  8  1  0
  8  9  1  0
  9 10  1  0
 10 11  1  0
 10 12  1  0
 12 13  1  0
 13 14  1  0
 14 15  1  0
 14 16  1  0
 16 17  1  0
  6 18  1  0
 18 19  2  0
 19 20  1  0
 20 21  2  0
 21 22  1  0
 22 23  2  0
 23 24  1  0
 24 25  1  0
 25 26  1  0
 26 27  1  0
 27 28  1  0
 28 29  1  0
 29 30  1  0
 30 31  1  0
 31 32  1  0
 19 33  1  0
 33 34  2  0
 34 35  1  0
 35 36  2  0
 36 37  1  0
 36 38  1  0
 23  3  1  0
 32 28  1  0
 38 33  1  0
 21  5  1  0
 11  8  1  0
 17 10  1  0
  1 39  1  0
  1 40  1  0
  1 41  1  0
  4 42  1  0
  7 43  1  0
  8 44  1  0
  9 45  1  0
  9 46  1  0
 11 47  1  0
 11 48  1  0
 12 49  1  0
 12 50  1  0
 13 51  1  0
 13 52  1  0
 15 53  1  0
 15 54  1  0
 15 55  1  0
 16 56  1  0
 16 57  1  0
 17 58  1  0
 17 59  1  0
 18 60  1  0
 22 61  1  0
 25 62  1  0
 25 63  1  0
 26 64  1  0
 26 65  1  0
 27 66  1  0
 27 67  1  0
 29 68  1  0
 29 69  1  0
 30 70  1  0
 30 71  1  0
 31 72  1  0
 31 73  1  0
 32 74  1  0
 32 75  1  0
 34 76  1  0
 35 77  1  0
 37 78  1  0
 37 79  1  0
 37 80  1  0
M  END
$$$$
[H]c1c(OC([H])([H])C([H])([H])C([H])([H])N2C([H])([H])C([H])([H])C([H])([H])C2([H])[H])c(OC([H])([H])[H])c([H])c2c(N([H])C3([H])C([H])([H])C([H])([H])N(C([H])(C([H])([H])[H])C([H])([H])[H])C([H])([H])C3([H])[H])nc(N3C([H])([H])C([H])([H])C([H])([H])C([H])([H])C([H])([H])C3([H])[H])nc12
     RDKit          3D

 86 90  0  0  0  0  0  0  0  0999 V2000
   -1.7427   -4.6463   -0.2918 C   0  0  0  0  0  0  0  0  0  0  0  0
   -2.5674   -3.5793   -0.6709 O   0  0  0  0  0  0  0  0  0  0  0  0
   -2.0253   -2.2977   -0.7451 C   0  0  0  0  0  0  0  0  0  0  0  0
   -0.6885   -2.0909   -0.4454 C   0  0  0  0  0  0  0  0  0  0  0  0
   -0.1258   -0.8391   -0.5098 C   0  0  0  0  0  0  0  0  0  0  0  0
    1.2062   -0.6489   -0.2087 C   0  0  0  0  0  0  0  0  0  0  0  0
    2.0748   -1.6857    0.1809 N   0  0  0  0  0  0  0  0  0  0  0  0
    3.4569   -1.5578    0.5037 C   0  0  0  0  0  0  0  0  0  0  0  0
    3.7650   -0.6350    1.6668 C   0  0  0  0  0  0  0  0  0  0  0  0
    5.2971   -0.5948    1.7381 C   0  0  0  0  0  0  0  0  0  0  0  0
    5.8970   -1.5779    0.9030 N   0  0  0  0  0  0  0  0  0  0  0  0
    5.7150   -1.2417   -0.4775 C   0  0  0  0  0  0  0  0  0  0  0  0
    4.2120   -0.9949   -0.6848 C   0  0  0  0  0  0  0  0  0  0  0  0
    7.2315   -1.9384    1.2462 C   0  0  0  0  0  0  0  0  0  0  0  0
    7.3781   -2.5615    2.5933 C   0  0  0  0  0  0  0  0  0  0  0  0
    7.7913   -2.9030    0.2258 C   0  0  0  0  0  0  0  0  0  0  0  0
    1.6436    0.6270   -0.3086 N   0  0  0  0  0  0  0  0  0  0  0  0
    0.8885    1.6598   -0.6660 C   0  0  0  0  0  0  0  0  0  0  0  0
   -0.4022    1.4356   -0.9512 N   0  0  0  0  0  0  0  0  0  0  0  0
   -0.9528    0.2126   -0.8883 C   0  0  0  0  0  0  0  0  0  0  0  0
   -2.2824   -0.0015   -1.1850 C   0  0  0  0  0  0  0  0  0  0  0  0
   -2.8558   -1.2406   -1.1253 C   0  0  0  0  0  0  0  0  0  0  0  0
   -4.1864   -1.4901   -1.4162 O   0  0  0  0  0  0  0  0  0  0  0  0
   -5.0754   -0.4633   -1.8075 C   0  0  0  0  0  0  0  0  0  0  0  0
   -6.4631   -0.9793   -2.0649 C   0  0  0  0  0  0  0  0  0  0  0  0
   -7.0390   -1.6260   -0.8072 C   0  0  0  0  0  0  0  0  0  0  0  0
   -7.0722   -0.6249    0.2155 N   0  0  0  0  0  0  0  0  0  0  0  0
   -8.0323    0.3810   -0.1069 C   0  0  0  0  0  0  0  0  0  0  0  0
   -9.0265    0.4346    1.0393 C   0  0  0  0  0  0  0  0  0  0  0  0
   -8.8521   -0.9534    1.6496 C   0  0  0  0  0  0  0  0  0  0  0  0
   -7.3628   -1.1376    1.5161 C   0  0  0  0  0  0  0  0  0  0  0  0
    1.3856    2.9979   -0.7615 N   0  0  0  0  0  0  0  0  0  0  0  0
    2.7834    3.2082   -0.4902 C   0  0  0  0  0  0  0  0  0  0  0  0
    3.3036    4.4777   -1.0876 C   0  0  0  0  0  0  0  0  0  0  0  0
    2.5524    5.7049   -0.7025 C   0  0  0  0  0  0  0  0  0  0  0  0
    1.6330    5.5361    0.4618 C   0  0  0  0  0  0  0  0  0  0  0  0
    0.2867    4.9575    0.0672 C   0  0  0  0  0  0  0  0  0  0  0  0
    0.4253    4.0232   -1.1231 C   0  0  0  0  0  0  0  0  0  0  0  0
   -0.9216   -4.8323   -1.0330 H   0  0  0  0  0  0  0  0  0  0  0  0
   -2.2828   -5.6008   -0.1935 H   0  0  0  0  0  0  0  0  0  0  0  0
   -1.2273   -4.4703    0.6823 H   0  0  0  0  0  0  0  0  0  0  0  0
   -0.1315   -2.9755   -0.1623 H   0  0  0  0  0  0  0  0  0  0  0  0
    1.6879   -2.6769    0.2507 H   0  0  0  0  0  0  0  0  0  0  0  0
    3.9124   -2.5458    0.8126 H   0  0  0  0  0  0  0  0  0  0  0  0
    3.3453    0.3689    1.5762 H   0  0  0  0  0  0  0  0  0  0  0  0
    3.4195   -1.1280    2.5968 H   0  0  0  0  0  0  0  0  0  0  0  0
    5.6361    0.4420    1.5331 H   0  0  0  0  0  0  0  0  0  0  0  0
    5.5693   -0.7966    2.7896 H   0  0  0  0  0  0  0  0  0  0  0  0
    6.3073   -0.3133   -0.7281 H   0  0  0  0  0  0  0  0  0  0  0  0
    6.0654   -2.0079   -1.1752 H   0  0  0  0  0  0  0  0  0  0  0  0
    3.9386   -1.5100   -1.6143 H   0  0  0  0  0  0  0  0  0  0  0  0
    4.1024    0.1058   -0.7734 H   0  0  0  0  0  0  0  0  0  0  0  0
    7.9225   -1.0461    1.2254 H   0  0  0  0  0  0  0  0  0  0  0  0
    7.1423   -1.9200    3.4415 H   0  0  0  0  0  0  0  0  0  0  0  0
    6.8204   -3.5371    2.6277 H   0  0  0  0  0  0  0  0  0  0  0  0
    8.4611   -2.8616    2.6953 H   0  0  0  0  0  0  0  0  0  0  0  0
    7.0345   -3.6329   -0.1315 H   0  0  0  0  0  0  0  0  0  0  0  0
    8.2337   -2.3917   -0.6501 H   0  0  0  0  0  0  0  0  0  0  0  0
    8.6281   -3.5173    0.6602 H   0  0  0  0  0  0  0  0  0  0  0  0
   -2.8932    0.8391   -1.4748 H   0  0  0  0  0  0  0  0  0  0  0  0
   -4.7254    0.0724   -2.7052 H   0  0  0  0  0  0  0  0  0  0  0  0
   -5.1505    0.2695   -0.9776 H   0  0  0  0  0  0  0  0  0  0  0  0
   -6.4969   -1.6977   -2.9223 H   0  0  0  0  0  0  0  0  0  0  0  0
   -7.0953   -0.1188   -2.3608 H   0  0  0  0  0  0  0  0  0  0  0  0
   -6.3293   -2.4434   -0.5152 H   0  0  0  0  0  0  0  0  0  0  0  0
   -8.0193   -2.0828   -1.0008 H   0  0  0  0  0  0  0  0  0  0  0  0
   -7.5866    1.3933   -0.2271 H   0  0  0  0  0  0  0  0  0  0  0  0
   -8.6041    0.1554   -1.0152 H   0  0  0  0  0  0  0  0  0  0  0  0
   -8.7626    1.1773    1.8011 H   0  0  0  0  0  0  0  0  0  0  0  0
  -10.0550    0.5626    0.7051 H   0  0  0  0  0  0  0  0  0  0  0  0
   -9.3434   -1.7152    1.0024 H   0  0  0  0  0  0  0  0  0  0  0  0
   -9.1970   -0.9777    2.6830 H   0  0  0  0  0  0  0  0  0  0  0  0
   -6.8437   -0.5405    2.2920 H   0  0  0  0  0  0  0  0  0  0  0  0
   -7.0674   -2.2079    1.5602 H   0  0  0  0  0  0  0  0  0  0  0  0
    3.3333    2.3674   -0.9823 H   0  0  0  0  0  0  0  0  0  0  0  0
    2.9566    3.1198    0.6007 H   0  0  0  0  0  0  0  0  0  0  0  0
    4.3833    4.5580   -0.8366 H   0  0  0  0  0  0  0  0  0  0  0  0
    3.2337    4.3693   -2.2000 H   0  0  0  0  0  0  0  0  0  0  0  0
    1.9601    6.1422   -1.5370 H   0  0  0  0  0  0  0  0  0  0  0  0
    3.2984    6.5027   -0.4258 H   0  0  0  0  0  0  0  0  0  0  0  0
    1.4125    6.5613    0.8701 H   0  0  0  0  0  0  0  0  0  0  0  0
    2.0914    4.9724    1.3076 H   0  0  0  0  0  0  0  0  0  0  0  0
   -0.0759    4.3337    0.9162 H   0  0  0  0  0  0  0  0  0  0  0  0
   -0.4521    5.7406   -0.1393 H   0  0  0  0  0  0  0  0  0  0  0  0
    0.7759    4.5404   -2.0235 H   0  0  0  0  0  0  0  0  0  0  0  0
   -0.5856    3.6076   -1.3061 H   0  0  0  0  0  0  0  0  0  0  0  0
  1  2  1  0
  2  3  1  0
  3  4  2  0
  4  5  1  0
  5  6  2  0
  6  7  1  0
  7  8  1  0
  8  9  1  0
  9 10  1  0
 10 11  1  0
 11 12  1  0
 12 13  1  0
 11 14  1  0
 14 15  1  0
 14 16  1  0
  6 17  1  0
 17 18  2  0
 18 19  1  0
 19 20  2  0
 20 21  1  0
 21 22  2  0
 22 23  1  0
 23 24  1  0
 24 25  1  0
 25 26  1  0
 26 27  1  0
 27 28  1  0
 28 29  1  0
 29 30  1  0
 30 31  1  0
 18 32  1  0
 32 33  1  0
 33 34  1  0
 34 35  1  0
 35 36  1  0
 36 37  1  0
 37 38  1  0
 22  3  1  0
 31 27  1  0
 38 32  1  0
 20  5  1  0
 13  8  1  0
  1 39  1  0
  1 40  1  0
  1 41  1  0
  4 42  1  0
  7 43  1  0
  8 44  1  0
  9 45  1  0
  9 46  1  0
 10 47  1  0
 10 48  1  0
 12 49  1  0
 12 50  1  0
 13 51  1  0
 13 52  1  0
 14 53  1  0
 15 54  1  0
 15 55  1  0
 15 56  1  0
 16 57  1  0
 16 58  1  0
 16 59  1  0
 21 60  1  0
 24 61  1  0
 24 62  1  0
 25 63  1  0
 25 64  1  0
 26 65  1  0
 26 66  1  0
 28 67  1  0
 28 68  1  0
 29 69  1  0
 29 70  1  0
 30 71  1  0
 30 72  1  0
 31 73  1  0
 31 74  1  0
 33 75  1  0
 33 76  1  0
 34 77  1  0
 34 78  1  0
 35 79  1  0
 35 80  1  0
 36 81  1  0
 36 82  1  0
 37 83  1  0
 37 84  1  0
 38 85  1  0
 38 86  1  0
M  END
$$$$
[H]c1c(OC([H])([H])C([H])([H])C([H])([H])N2C([H])([H])C([H])([H])C([H])([H])C2([H])[H])c(OC([H])([H])[H])c([H])c2c(N([H])C3([H])C([H])([H])C([H])([H])N(C([H])(C([H])([H])[H])C([H])([H])[H])C([H])([H])C3([H])[H])nc(C3([H])C([H])([H])C([H])([H])OC([H])([H])C3([H])[H])nc12
     RDKit          3D

 82 86  0  0  0  0  0  0  0  0999 V2000
    0.8688   -2.7786    3.2199 C   0  0  0  0  0  0  0  0  0  0  0  0
    1.8728   -1.9444    2.6444 O   0  0  0  0  0  0  0  0  0  0  0  0
    1.5455   -0.8161    1.9100 C   0  0  0  0  0  0  0  0  0  0  0  0
    0.2107   -0.4607    1.7106 C   0  0  0  0  0  0  0  0  0  0  0  0
   -0.1675    0.6461    0.9923 C   0  0  0  0  0  0  0  0  0  0  0  0
   -1.4803    1.0098    0.7893 C   0  0  0  0  0  0  0  0  0  0  0  0
   -2.5219    0.2544    1.3238 N   0  0  0  0  0  0  0  0  0  0  0  0
   -3.9316    0.5669    1.1435 C   0  0  0  0  0  0  0  0  0  0  0  0
   -4.8034   -0.3900    1.9661 C   0  0  0  0  0  0  0  0  0  0  0  0
   -5.6599   -1.2627    1.0791 C   0  0  0  0  0  0  0  0  0  0  0  0
   -4.8281   -1.8535    0.0730 N   0  0  0  0  0  0  0  0  0  0  0  0
   -4.3129   -0.8720   -0.8656 C   0  0  0  0  0  0  0  0  0  0  0  0
   -4.3839    0.5245   -0.2830 C   0  0  0  0  0  0  0  0  0  0  0  0
   -5.4347   -2.9924   -0.5707 C   0  0  0  0  0  0  0  0  0  0  0  0
   -6.6960   -2.6586   -1.3137 C   0  0  0  0  0  0  0  0  0  0  0  0
   -5.7363   -4.0204    0.4975 C   0  0  0  0  0  0  0  0  0  0  0  0
   -1.7156    2.1192    0.0682 N   0  0  0  0  0  0  0  0  0  0  0  0
   -0.7532    2.8781   -0.4558 C   0  0  0  0  0  0  0  0  0  0  0  0
    0.5201    2.5030   -0.2444 N   0  0  0  0  0  0  0  0  0  0  0  0
    0.8782    1.4137    0.4602 C   0  0  0  0  0  0  0  0  0  0  0  0
    2.1974    1.0676    0.6536 C   0  0  0  0  0  0  0  0  0  0  0  0
    2.5521   -0.0456    1.3769 C   0  0  0  0  0  0  0  0  0  0  0  0
    3.8836   -0.4086    1.5813 O   0  0  0  0  0  0  0  0  0  0  0  0
    4.9326    0.3719    1.0349 C   0  0  0  0  0  0  0  0  0  0  0  0
    6.2855   -0.2064    1.3910 C   0  0  0  0  0  0  0  0  0  0  0  0
    6.4739   -1.5929    0.8948 C   0  0  0  0  0  0  0  0  0  0  0  0
    6.3695   -1.7600   -0.5300 N   0  0  0  0  0  0  0  0  0  0  0  0
    6.5165   -3.1539   -0.9141 C   0  0  0  0  0  0  0  0  0  0  0  0
    7.6557   -3.2508   -1.8892 C   0  0  0  0  0  0  0  0  0  0  0  0
    8.4431   -1.9893   -1.6285 C   0  0  0  0  0  0  0  0  0  0  0  0
    7.3254   -1.0202   -1.2857 C   0  0  0  0  0  0  0  0  0  0  0  0
   -1.0349    4.0970   -1.2434 C   0  0  0  0  0  0  0  0  0  0  0  0
   -1.9123    3.8508   -2.4379 C   0  0  0  0  0  0  0  0  0  0  0  0
   -2.2095    5.2027   -3.0701 C   0  0  0  0  0  0  0  0  0  0  0  0
   -2.9107    5.9999   -2.1810 O   0  0  0  0  0  0  0  0  0  0  0  0
   -2.0737    6.3351   -1.1110 C   0  0  0  0  0  0  0  0  0  0  0  0
   -1.7551    5.0671   -0.3282 C   0  0  0  0  0  0  0  0  0  0  0  0
    0.2274   -3.2300    2.4611 H   0  0  0  0  0  0  0  0  0  0  0  0
    0.2130   -2.0866    3.8182 H   0  0  0  0  0  0  0  0  0  0  0  0
    1.3161   -3.4944    3.9357 H   0  0  0  0  0  0  0  0  0  0  0  0
   -0.5308   -1.1047    2.1527 H   0  0  0  0  0  0  0  0  0  0  0  0
   -2.3384   -0.5917    1.8924 H   0  0  0  0  0  0  0  0  0  0  0  0
   -4.0988    1.5740    1.5602 H   0  0  0  0  0  0  0  0  0  0  0  0
   -4.1755   -1.0637    2.5872 H   0  0  0  0  0  0  0  0  0  0  0  0
   -5.4466    0.1641    2.6850 H   0  0  0  0  0  0  0  0  0  0  0  0
   -6.4904   -0.6477    0.6759 H   0  0  0  0  0  0  0  0  0  0  0  0
   -6.0361   -2.0918    1.7236 H   0  0  0  0  0  0  0  0  0  0  0  0
   -4.8382   -0.8636   -1.8180 H   0  0  0  0  0  0  0  0  0  0  0  0
   -3.2397   -1.1090   -1.0183 H   0  0  0  0  0  0  0  0  0  0  0  0
   -5.4542    0.8650   -0.3284 H   0  0  0  0  0  0  0  0  0  0  0  0
   -3.8391    1.1984   -0.9554 H   0  0  0  0  0  0  0  0  0  0  0  0
   -4.7426   -3.4733   -1.2831 H   0  0  0  0  0  0  0  0  0  0  0  0
   -6.5110   -1.9715   -2.1568 H   0  0  0  0  0  0  0  0  0  0  0  0
   -7.0479   -3.6179   -1.7796 H   0  0  0  0  0  0  0  0  0  0  0  0
   -7.5269   -2.3200   -0.6702 H   0  0  0  0  0  0  0  0  0  0  0  0
   -5.6319   -5.0545    0.1094 H   0  0  0  0  0  0  0  0  0  0  0  0
   -6.7424   -3.8206    0.8996 H   0  0  0  0  0  0  0  0  0  0  0  0
   -5.0138   -3.8991    1.3440 H   0  0  0  0  0  0  0  0  0  0  0  0
    3.0006    1.6646    0.2392 H   0  0  0  0  0  0  0  0  0  0  0  0
    4.8442    1.3912    1.4575 H   0  0  0  0  0  0  0  0  0  0  0  0
    4.7895    0.4547   -0.0605 H   0  0  0  0  0  0  0  0  0  0  0  0
    7.1117    0.4376    1.0491 H   0  0  0  0  0  0  0  0  0  0  0  0
    6.3381   -0.1709    2.5193 H   0  0  0  0  0  0  0  0  0  0  0  0
    7.5292   -1.8939    1.1632 H   0  0  0  0  0  0  0  0  0  0  0  0
    5.8351   -2.3164    1.4509 H   0  0  0  0  0  0  0  0  0  0  0  0
    6.6525   -3.7754   -0.0217 H   0  0  0  0  0  0  0  0  0  0  0  0
    5.5980   -3.4834   -1.4654 H   0  0  0  0  0  0  0  0  0  0  0  0
    7.2935   -3.1847   -2.9389 H   0  0  0  0  0  0  0  0  0  0  0  0
    8.2811   -4.1536   -1.7293 H   0  0  0  0  0  0  0  0  0  0  0  0
    9.0211   -1.6775   -2.5128 H   0  0  0  0  0  0  0  0  0  0  0  0
    9.0670   -2.0772   -0.7041 H   0  0  0  0  0  0  0  0  0  0  0  0
    7.6738   -0.1277   -0.7610 H   0  0  0  0  0  0  0  0  0  0  0  0
    6.8943   -0.7154   -2.2841 H   0  0  0  0  0  0  0  0  0  0  0  0
   -0.1056    4.5619   -1.5775 H   0  0  0  0  0  0  0  0  0  0  0  0
   -2.9077    3.4326   -2.1478 H   0  0  0  0  0  0  0  0  0  0  0  0
   -1.4041    3.2412   -3.2011 H   0  0  0  0  0  0  0  0  0  0  0  0
   -1.2630    5.7297   -3.3634 H   0  0  0  0  0  0  0  0  0  0  0  0
   -2.8143    5.0692   -3.9977 H   0  0  0  0  0  0  0  0  0  0  0  0
   -1.1462    6.8546   -1.4472 H   0  0  0  0  0  0  0  0  0  0  0  0
   -2.6263    7.0036   -0.4243 H   0  0  0  0  0  0  0  0  0  0  0  0
   -1.1903    5.3392    0.5615 H   0  0  0  0  0  0  0  0  0  0  0  0
   -2.7343    4.6038   -0.0972 H   0  0  0  0  0  0  0  0  0  0  0  0
  1  2  1  0
  2  3  1  0
  3  4  2  0
  4  5  1  0
  5  6  2  0
  6  7  1  0
  7  8  1  0
  8  9  1  0
  9 10  1  0
 10 11  1  0
 11 12  1  0
 12 13  1  0
 11 14  1  0
 14 15  1  0
 14 16  1  0
  6 17  1  0
 17 18  2  0
 18 19  1  0
 19 20  2  0
 20 21  1  0
 21 22  2  0
 22 23  1  0
 23 24  1  0
 24 25  1  0
 25 26  1  0
 26 27  1  0
 27 28  1  0
 28 29  1  0
 29 30  1  0
 30 31  1  0
 18 32  1  0
 32 33  1  0
 33 34  1  0
 34 35  1  0
 35 36  1  0
 36 37  1  0
 22  3  1  0
 31 27  1  0
 37 32  1  0
 20  5  1  0
 13  8  1  0
  1 38  1  0
  1 39  1  0
  1 40  1  0
  4 41  1  0
  7 42  1  0
  8 43  1  0
  9 44  1  0
  9 45  1  0
 10 46  1  0
 10 47  1  0
 12 48  1  0
 12 49  1  0
 13 50  1  0
 13 51  1  0
 14 52  1  0
 15 53  1  0
 15 54  1  0
 15 55  1  0
 16 56  1  0
 16 57  1  0
 16 58  1  0
 21 59  1  0
 24 60  1  0
 24 61  1  0
 25 62  1  0
 25 63  1  0
 26 64  1  0
 26 65  1  0
 28 66  1  0
 28 67  1  0
 29 68  1  0
 29 69  1  0
 30 70  1  0
 30 71  1  0
 31 72  1  0
 31 73  1  0
 32 74  1  0
 33 75  1  0
 33 76  1  0
 34 77  1  0
 34 78  1  0
 36 79  1  0
 36 80  1  0
 37 81  1  0
 37 82  1  0
M  END
$$$$
[H]c1c(-c2nc3c([H])c(OC([H])([H])C([H])([H])C([H])([H])N4C([H])([H])C([H])([H])C([H])([H])C4([H])[H])c(OC([H])([H])[H])c([H])c3c(N([H])C3([H])C([H])([H])C4(C([H])([H])C([H])([H])N(C([H])(C([H])([H])[H])C([H])([H])[H])C([H])([H])C4([H])[H])C3([H])[H])c2[H])oc(C([H])([H])[H])c1[H]
     RDKit          3D

 86 91  0  0  0  0  0  0  0  0999 V2000
   -2.2828   -3.5657    1.6294 C   0  0  0  0  0  0  0  0  0  0  0  0
   -3.1232   -2.4402    1.5500 O   0  0  0  0  0  0  0  0  0  0  0  0
   -2.6704   -1.2337    1.0622 C   0  0  0  0  0  0  0  0  0  0  0  0
   -1.3553   -1.0930    0.6303 C   0  0  0  0  0  0  0  0  0  0  0  0
   -0.9222    0.1128    0.1484 C   0  0  0  0  0  0  0  0  0  0  0  0
    0.3701    0.3012   -0.2864 C   0  0  0  0  0  0  0  0  0  0  0  0
    1.3232   -0.7332   -0.2802 N   0  0  0  0  0  0  0  0  0  0  0  0
    2.7138   -0.4995   -0.6720 C   0  0  0  0  0  0  0  0  0  0  0  0
    3.4851    0.4343    0.2260 C   0  0  0  0  0  0  0  0  0  0  0  0
    4.5824   -0.6176    0.4071 C   0  0  0  0  0  0  0  0  0  0  0  0
    3.6317   -1.6075   -0.2014 C   0  0  0  0  0  0  0  0  0  0  0  0
    4.9515   -0.8144    1.8404 C   0  0  0  0  0  0  0  0  0  0  0  0
    6.1076   -1.7865    1.9407 C   0  0  0  0  0  0  0  0  0  0  0  0
    7.2070   -1.2534    1.1934 N   0  0  0  0  0  0  0  0  0  0  0  0
    6.9407   -1.1726   -0.2280 C   0  0  0  0  0  0  0  0  0  0  0  0
    5.7709   -0.2622   -0.4568 C   0  0  0  0  0  0  0  0  0  0  0  0
    8.4598   -1.9221    1.4813 C   0  0  0  0  0  0  0  0  0  0  0  0
    8.4510   -3.3830    1.1127 C   0  0  0  0  0  0  0  0  0  0  0  0
    9.5759   -1.2548    0.7295 C   0  0  0  0  0  0  0  0  0  0  0  0
    0.7019    1.5711   -0.7532 C   0  0  0  0  0  0  0  0  0  0  0  0
   -0.2251    2.6069   -0.7814 C   0  0  0  0  0  0  0  0  0  0  0  0
   -1.4660    2.3845   -0.3518 N   0  0  0  0  0  0  0  0  0  0  0  0
   -1.8312    1.1764    0.1067 C   0  0  0  0  0  0  0  0  0  0  0  0
   -3.1397    1.0534    0.5314 C   0  0  0  0  0  0  0  0  0  0  0  0
   -3.5435   -0.1715    1.0104 C   0  0  0  0  0  0  0  0  0  0  0  0
   -4.8387   -0.3250    1.4415 O   0  0  0  0  0  0  0  0  0  0  0  0
   -5.7271    0.7554    1.3901 C   0  0  0  0  0  0  0  0  0  0  0  0
   -7.0689    0.2742    1.9422 C   0  0  0  0  0  0  0  0  0  0  0  0
   -7.5706   -0.8533    1.1043 C   0  0  0  0  0  0  0  0  0  0  0  0
   -7.7611   -0.4898   -0.2691 N   0  0  0  0  0  0  0  0  0  0  0  0
   -8.1937   -1.6377   -1.0654 C   0  0  0  0  0  0  0  0  0  0  0  0
   -9.6792   -1.6198   -1.1258 C   0  0  0  0  0  0  0  0  0  0  0  0
  -10.0789   -0.3844   -0.3665 C   0  0  0  0  0  0  0  0  0  0  0  0
   -8.8325    0.4609   -0.3865 C   0  0  0  0  0  0  0  0  0  0  0  0
    0.1383    3.9290   -1.2696 C   0  0  0  0  0  0  0  0  0  0  0  0
   -0.6440    5.0511   -1.3709 C   0  0  0  0  0  0  0  0  0  0  0  0
    0.1396    6.0533   -1.8868 C   0  0  0  0  0  0  0  0  0  0  0  0
    1.3747    5.5126   -2.0843 C   0  0  0  0  0  0  0  0  0  0  0  0
    2.5438    6.2394   -2.6307 C   0  0  0  0  0  0  0  0  0  0  0  0
    1.3443    4.2551   -1.7105 O   0  0  0  0  0  0  0  0  0  0  0  0
   -1.7602   -3.6811    0.6649 H   0  0  0  0  0  0  0  0  0  0  0  0
   -1.4933   -3.3668    2.4009 H   0  0  0  0  0  0  0  0  0  0  0  0
   -2.8550   -4.4705    1.9214 H   0  0  0  0  0  0  0  0  0  0  0  0
   -0.6895   -1.9221    0.6767 H   0  0  0  0  0  0  0  0  0  0  0  0
    1.0737   -1.7090    0.0010 H   0  0  0  0  0  0  0  0  0  0  0  0
    2.8322   -0.3178   -1.7591 H   0  0  0  0  0  0  0  0  0  0  0  0
    3.8547    1.3567   -0.2817 H   0  0  0  0  0  0  0  0  0  0  0  0
    2.9629    0.7092    1.1438 H   0  0  0  0  0  0  0  0  0  0  0  0
    3.1792   -2.2456    0.5734 H   0  0  0  0  0  0  0  0  0  0  0  0
    4.1074   -2.1790   -1.0414 H   0  0  0  0  0  0  0  0  0  0  0  0
    5.2109    0.1581    2.3267 H   0  0  0  0  0  0  0  0  0  0  0  0
    4.0909   -1.2592    2.3776 H   0  0  0  0  0  0  0  0  0  0  0  0
    5.7599   -2.7709    1.5665 H   0  0  0  0  0  0  0  0  0  0  0  0
    6.4096   -1.8214    3.0045 H   0  0  0  0  0  0  0  0  0  0  0  0
    7.8278   -0.7056   -0.7002 H   0  0  0  0  0  0  0  0  0  0  0  0
    6.7924   -2.1526   -0.7066 H   0  0  0  0  0  0  0  0  0  0  0  0
    6.0040    0.7955   -0.3181 H   0  0  0  0  0  0  0  0  0  0  0  0
    5.4403   -0.3983   -1.5285 H   0  0  0  0  0  0  0  0  0  0  0  0
    8.6629   -1.8302    2.5595 H   0  0  0  0  0  0  0  0  0  0  0  0
    8.0642   -4.0290    1.9255 H   0  0  0  0  0  0  0  0  0  0  0  0
    9.5272   -3.6896    0.9725 H   0  0  0  0  0  0  0  0  0  0  0  0
    7.9501   -3.5949    0.1533 H   0  0  0  0  0  0  0  0  0  0  0  0
   10.5371   -1.5703    1.2161 H   0  0  0  0  0  0  0  0  0  0  0  0
    9.6465   -1.6118   -0.3273 H   0  0  0  0  0  0  0  0  0  0  0  0
    9.4785   -0.1669    0.8247 H   0  0  0  0  0  0  0  0  0  0  0  0
    1.6801    1.8095   -1.1181 H   0  0  0  0  0  0  0  0  0  0  0  0
   -3.8186    1.8957    0.4860 H   0  0  0  0  0  0  0  0  0  0  0  0
   -5.3150    1.5802    2.0084 H   0  0  0  0  0  0  0  0  0  0  0  0
   -5.8193    1.0862    0.3446 H   0  0  0  0  0  0  0  0  0  0  0  0
   -7.7604    1.1074    2.0224 H   0  0  0  0  0  0  0  0  0  0  0  0
   -6.8095   -0.1354    2.9743 H   0  0  0  0  0  0  0  0  0  0  0  0
   -8.5733   -1.1508    1.5292 H   0  0  0  0  0  0  0  0  0  0  0  0
   -6.8982   -1.7388    1.1266 H   0  0  0  0  0  0  0  0  0  0  0  0
   -7.7418   -1.5847   -2.0846 H   0  0  0  0  0  0  0  0  0  0  0  0
   -7.8610   -2.5587   -0.5394 H   0  0  0  0  0  0  0  0  0  0  0  0
  -10.1241   -2.5391   -0.6786 H   0  0  0  0  0  0  0  0  0  0  0  0
   -9.9926   -1.5017   -2.1902 H   0  0  0  0  0  0  0  0  0  0  0  0
  -10.9270    0.1134   -0.8890 H   0  0  0  0  0  0  0  0  0  0  0  0
  -10.3420   -0.6603    0.6751 H   0  0  0  0  0  0  0  0  0  0  0  0
   -8.8963    1.2051    0.4168 H   0  0  0  0  0  0  0  0  0  0  0  0
   -8.7796    0.9387   -1.3923 H   0  0  0  0  0  0  0  0  0  0  0  0
   -1.6795    5.1470   -1.1019 H   0  0  0  0  0  0  0  0  0  0  0  0
   -0.1957    7.0567   -2.0818 H   0  0  0  0  0  0  0  0  0  0  0  0
    3.4542    5.6163   -2.6307 H   0  0  0  0  0  0  0  0  0  0  0  0
    2.2646    6.5638   -3.6619 H   0  0  0  0  0  0  0  0  0  0  0  0
    2.6617    7.1715   -2.0345 H   0  0  0  0  0  0  0  0  0  0  0  0
  1  2  1  0
  2  3  1  0
  3  4  2  0
  4  5  1  0
  5  6  2  0
  6  7  1  0
  7  8  1  0
  8  9  1  0
  9 10  1  0
 10 11  1  0
 10 12  1  0
 12 13  1  0
 13 14  1  0
 14 15  1  0
 15 16  1  0
 14 17  1  0
 17 18  1  0
 17 19  1  0
  6 20  1  0
 20 21  2  0
 21 22  1  0
 22 23  2  0
 23 24  1  0
 24 25  2  0
 25 26  1  0
 26 27  1  0
 27 28  1  0
 28 29  1  0
 29 30  1  0
 30 31  1  0
 31 32  1  0
 32 33  1  0
 33 34  1  0
 21 35  1  0
 35 36  2  0
 36 37  1  0
 37 38  2  0
 38 39  1  0
 38 40  1  0
 25  3  1  0
 34 30  1  0
 40 35  1  0
 23  5  1  0
 11  8  1  0
 16 10  1  0
  1 41  1  0
  1 42  1  0
  1 43  1  0
  4 44  1  0
  7 45  1  0
  8 46  1  0
  9 47  1  0
  9 48  1  0
 11 49  1  0
 11 50  1  0
 12 51  1  0
 12 52  1  0
 13 53  1  0
 13 54  1  0
 15 55  1  0
 15 56  1  0
 16 57  1  0
 16 58  1  0
 17 59  1  0
 18 60  1  0
 18 61  1  0
 18 62  1  0
 19 63  1  0
 19 64  1  0
 19 65  1  0
 20 66  1  0
 24 67  1  0
 27 68  1  0
 27 69  1  0
 28 70  1  0
 28 71  1  0
 29 72  1  0
 29 73  1  0
 31 74  1  0
 31 75  1  0
 32 76  1  0
 32 77  1  0
 33 78  1  0
 33 79  1  0
 34 80  1  0
 34 81  1  0
 36 82  1  0
 37 83  1  0
 39 84  1  0
 39 85  1  0
 39 86  1  0
M  END
$$$$
[H]c1c([H])c([H])c(C([H])([H])N2C([H])([H])C([H])([H])N(c3nc(N([H])C4([H])C([H])([H])C([H])([H])N(C([H])(C([H])([H])[H])C([H])([H])[H])C([H])([H])C4([H])[H])c4c([H])c(OC([H])([H])[H])c(OC([H])([H])C([H])([H])C([H])([H])N5C([H])([H])C([H])([H])C([H])([H])C5([H])[H])c([H])c4n3)C([H])([H])C([H])([H])C2([H])[H])c([H])c1[H]
     RDKit          3D

 98103  0  0  0  0  0  0  0  0999 V2000
    4.7924    2.4143    1.5047 C   0  0  0  0  0  0  0  0  0  0  0  0
    4.7683    1.0435    1.1092 O   0  0  0  0  0  0  0  0  0  0  0  0
    3.5727    0.5287    0.6159 C   0  0  0  0  0  0  0  0  0  0  0  0
    2.4292    1.3194    0.5108 C   0  0  0  0  0  0  0  0  0  0  0  0
    1.2200    0.8730    0.0326 C   0  0  0  0  0  0  0  0  0  0  0  0
    0.1076    1.6780   -0.0632 C   0  0  0  0  0  0  0  0  0  0  0  0
    0.1519    3.0173    0.3350 N   0  0  0  0  0  0  0  0  0  0  0  0
   -0.9941    3.9100    0.2478 C   0  0  0  0  0  0  0  0  0  0  0  0
   -0.6897    5.2980    0.7570 C   0  0  0  0  0  0  0  0  0  0  0  0
   -1.9985    6.0406    0.9233 C   0  0  0  0  0  0  0  0  0  0  0  0
   -2.7856    5.8560   -0.2484 N   0  0  0  0  0  0  0  0  0  0  0  0
   -2.1044    5.3726   -1.3967 C   0  0  0  0  0  0  0  0  0  0  0  0
   -1.5593    3.9910   -1.1238 C   0  0  0  0  0  0  0  0  0  0  0  0
   -3.7257    6.9109   -0.5058 C   0  0  0  0  0  0  0  0  0  0  0  0
   -4.7045    6.9467    0.6488 C   0  0  0  0  0  0  0  0  0  0  0  0
   -3.0718    8.2470   -0.7131 C   0  0  0  0  0  0  0  0  0  0  0  0
   -1.0321    1.1177   -0.5574 N   0  0  0  0  0  0  0  0  0  0  0  0
   -1.1090   -0.1626   -0.9462 C   0  0  0  0  0  0  0  0  0  0  0  0
   -0.0105   -0.9275   -0.8428 N   0  0  0  0  0  0  0  0  0  0  0  0
    1.1691   -0.4718   -0.3669 C   0  0  0  0  0  0  0  0  0  0  0  0
    2.2696   -1.2719   -0.2767 C   0  0  0  0  0  0  0  0  0  0  0  0
    3.4613   -0.7798    0.2093 C   0  0  0  0  0  0  0  0  0  0  0  0
    4.5716   -1.6143    0.2915 O   0  0  0  0  0  0  0  0  0  0  0  0
    4.4803   -2.9692   -0.1208 C   0  0  0  0  0  0  0  0  0  0  0  0
    5.8073   -3.6605    0.0539 C   0  0  0  0  0  0  0  0  0  0  0  0
    6.8034   -2.9186   -0.8077 C   0  0  0  0  0  0  0  0  0  0  0  0
    8.1234   -3.4493   -0.7680 N   0  0  0  0  0  0  0  0  0  0  0  0
    8.2681   -4.7403   -1.3651 C   0  0  0  0  0  0  0  0  0  0  0  0
    9.5477   -5.2660   -0.7921 C   0  0  0  0  0  0  0  0  0  0  0  0
    9.5053   -4.7493    0.6421 C   0  0  0  0  0  0  0  0  0  0  0  0
    8.7551   -3.4335    0.5132 C   0  0  0  0  0  0  0  0  0  0  0  0
   -2.2793   -0.7615   -1.4625 N   0  0  0  0  0  0  0  0  0  0  0  0
   -3.4891    0.0386   -1.5456 C   0  0  0  0  0  0  0  0  0  0  0  0
   -4.2969   -0.0713   -0.2705 C   0  0  0  0  0  0  0  0  0  0  0  0
   -4.1384   -1.4193    0.3912 C   0  0  0  0  0  0  0  0  0  0  0  0
   -4.1685   -2.5172   -0.4758 N   0  0  0  0  0  0  0  0  0  0  0  0
   -5.3775   -3.1554   -0.7801 C   0  0  0  0  0  0  0  0  0  0  0  0
   -6.1012   -3.7676    0.3642 C   0  0  0  0  0  0  0  0  0  0  0  0
   -7.4494   -4.1077    0.2440 C   0  0  0  0  0  0  0  0  0  0  0  0
   -8.1639   -4.6867    1.2749 C   0  0  0  0  0  0  0  0  0  0  0  0
   -7.5504   -4.9472    2.4694 C   0  0  0  0  0  0  0  0  0  0  0  0
   -6.2158   -4.6168    2.6058 C   0  0  0  0  0  0  0  0  0  0  0  0
   -5.5121   -4.0453    1.5874 C   0  0  0  0  0  0  0  0  0  0  0  0
   -2.9581   -3.0510   -0.9649 C   0  0  0  0  0  0  0  0  0  0  0  0
   -2.1962   -2.1561   -1.8861 C   0  0  0  0  0  0  0  0  0  0  0  0
    4.5536    3.0670    0.6355 H   0  0  0  0  0  0  0  0  0  0  0  0
    5.8077    2.6771    1.8645 H   0  0  0  0  0  0  0  0  0  0  0  0
    4.0299    2.6404    2.2756 H   0  0  0  0  0  0  0  0  0  0  0  0
    2.5232    2.3392    0.8299 H   0  0  0  0  0  0  0  0  0  0  0  0
    1.0016    3.4531    0.7155 H   0  0  0  0  0  0  0  0  0  0  0  0
   -1.7910    3.4967    0.9249 H   0  0  0  0  0  0  0  0  0  0  0  0
   -0.0326    5.8155    0.0086 H   0  0  0  0  0  0  0  0  0  0  0  0
   -0.1336    5.2323    1.7234 H   0  0  0  0  0  0  0  0  0  0  0  0
   -2.5298    5.5183    1.7733 H   0  0  0  0  0  0  0  0  0  0  0  0
   -1.8302    7.1104    1.1808 H   0  0  0  0  0  0  0  0  0  0  0  0
   -2.8113    5.3776   -2.2551 H   0  0  0  0  0  0  0  0  0  0  0  0
   -1.2234    6.0433   -1.6154 H   0  0  0  0  0  0  0  0  0  0  0  0
   -2.3872    3.2599   -1.2937 H   0  0  0  0  0  0  0  0  0  0  0  0
   -0.7670    3.7130   -1.8497 H   0  0  0  0  0  0  0  0  0  0  0  0
   -4.3069    6.6103   -1.4106 H   0  0  0  0  0  0  0  0  0  0  0  0
   -4.8263    5.9067    1.0306 H   0  0  0  0  0  0  0  0  0  0  0  0
   -4.3383    7.6524    1.4234 H   0  0  0  0  0  0  0  0  0  0  0  0
   -5.6752    7.2844    0.2445 H   0  0  0  0  0  0  0  0  0  0  0  0
   -3.8068    8.9180   -1.2209 H   0  0  0  0  0  0  0  0  0  0  0  0
   -2.1033    8.1909   -1.2153 H   0  0  0  0  0  0  0  0  0  0  0  0
   -2.9367    8.6867    0.3190 H   0  0  0  0  0  0  0  0  0  0  0  0
    2.1711   -2.2965   -0.5981 H   0  0  0  0  0  0  0  0  0  0  0  0
    3.7308   -3.5220    0.4852 H   0  0  0  0  0  0  0  0  0  0  0  0
    4.1639   -3.0380   -1.1815 H   0  0  0  0  0  0  0  0  0  0  0  0
    6.0880   -3.6763    1.1234 H   0  0  0  0  0  0  0  0  0  0  0  0
    5.7189   -4.7177   -0.2988 H   0  0  0  0  0  0  0  0  0  0  0  0
    6.4426   -2.9666   -1.8537 H   0  0  0  0  0  0  0  0  0  0  0  0
    6.8499   -1.8552   -0.4440 H   0  0  0  0  0  0  0  0  0  0  0  0
    7.4197   -5.4234   -1.1648 H   0  0  0  0  0  0  0  0  0  0  0  0
    8.4253   -4.6228   -2.4625 H   0  0  0  0  0  0  0  0  0  0  0  0
    9.5952   -6.3652   -0.8242 H   0  0  0  0  0  0  0  0  0  0  0  0
   10.3997   -4.7772   -1.2975 H   0  0  0  0  0  0  0  0  0  0  0  0
    8.9951   -5.4650    1.3086 H   0  0  0  0  0  0  0  0  0  0  0  0
   10.5553   -4.6044    0.9684 H   0  0  0  0  0  0  0  0  0  0  0  0
    9.5527   -2.6324    0.4909 H   0  0  0  0  0  0  0  0  0  0  0  0
    8.0582   -3.2465    1.3458 H   0  0  0  0  0  0  0  0  0  0  0  0
   -3.2838    1.0970   -1.8052 H   0  0  0  0  0  0  0  0  0  0  0  0
   -4.1637   -0.3346   -2.3679 H   0  0  0  0  0  0  0  0  0  0  0  0
   -3.8877    0.6839    0.4323 H   0  0  0  0  0  0  0  0  0  0  0  0
   -5.3606    0.1952   -0.4335 H   0  0  0  0  0  0  0  0  0  0  0  0
   -4.9640   -1.4871    1.1349 H   0  0  0  0  0  0  0  0  0  0  0  0
   -3.1691   -1.4056    0.9388 H   0  0  0  0  0  0  0  0  0  0  0  0
   -5.1402   -4.0254   -1.4629 H   0  0  0  0  0  0  0  0  0  0  0  0
   -6.1123   -2.5490   -1.3474 H   0  0  0  0  0  0  0  0  0  0  0  0
   -7.9108   -3.8880   -0.7182 H   0  0  0  0  0  0  0  0  0  0  0  0
   -9.2163   -4.9213    1.0967 H   0  0  0  0  0  0  0  0  0  0  0  0
   -8.0831   -5.4008    3.2975 H   0  0  0  0  0  0  0  0  0  0  0  0
   -5.7506   -4.8312    3.5576 H   0  0  0  0  0  0  0  0  0  0  0  0
   -4.4497   -3.7838    1.6982 H   0  0  0  0  0  0  0  0  0  0  0  0
   -3.1993   -3.9818   -1.5435 H   0  0  0  0  0  0  0  0  0  0  0  0
   -2.2869   -3.3433   -0.1254 H   0  0  0  0  0  0  0  0  0  0  0  0
   -2.6072   -2.2301   -2.9078 H   0  0  0  0  0  0  0  0  0  0  0  0
   -1.1197   -2.4636   -1.8621 H   0  0  0  0  0  0  0  0  0  0  0  0
  1  2  1  0
  2  3  1  0
  3  4  2  0
  4  5  1  0
  5  6  2  0
  6  7  1  0
  7  8  1  0
  8  9  1  0
  9 10  1  0
 10 11  1  0
 11 12  1  0
 12 13  1  0
 11 14  1  0
 14 15  1  0
 14 16  1  0
  6 17  1  0
 17 18  2  0
 18 19  1  0
 19 20  2  0
 20 21  1  0
 21 22  2  0
 22 23  1  0
 23 24  1  0
 24 25  1  0
 25 26  1  0
 26 27  1  0
 27 28  1  0
 28 29  1  0
 29 30  1  0
 30 31  1  0
 18 32  1  0
 32 33  1  0
 33 34  1  0
 34 35  1  0
 35 36  1  0
 36 37  1  0
 37 38  1  0
 38 39  2  0
 39 40  1  0
 40 41  2  0
 41 42  1  0
 42 43  2  0
 36 44  1  0
 44 45  1  0
 22  3  1  0
 31 27  1  0
 45 32  1  0
 20  5  1  0
 43 38  1  0
 13  8  1  0
  1 46  1  0
  1 47  1  0
  1 48  1  0
  4 49  1  0
  7 50  1  0
  8 51  1  0
  9 52  1  0
  9 53  1  0
 10 54  1  0
 10 55  1  0
 12 56  1  0
 12 57  1  0
 13 58  1  0
 13 59  1  0
 14 60  1  0
 15 61  1  0
 15 62  1  0
 15 63  1  0
 16 64  1  0
 16 65  1  0
 16 66  1  0
 21 67  1  0
 24 68  1  0
 24 69  1  0
 25 70  1  0
 25 71  1  0
 26 72  1  0
 26 73  1  0
 28 74  1  0
 28 75  1  0
 29 76  1  0
 29 77  1  0
 30 78  1  0
 30 79  1  0
 31 80  1  0
 31 81  1  0
 33 82  1  0
 33 83  1  0
 34 84  1  0
 34 85  1  0
 35 86  1  0
 35 87  1  0
 37 88  1  0
 37 89  1  0
 39 90  1  0
 40 91  1  0
 41 92  1  0
 42 93  1  0
 43 94  1  0
 44 95  1  0
 44 96  1  0
 45 97  1  0
 45 98  1  0
M  END
$$$$
[H]c1c(-c2nc3c([H])c(OC([H])([H])C([H])([H])C([H])([H])N4C([H])([H])C([H])([H])C([H])([H])C4([H])[H])c(OC([H])([H])[H])c([H])c3c(N([H])C3([H])C([H])([H])C([H])([H])N(C([H])([H])[H])C([H])([H])C3([H])[H])c2[H])oc(C([H])([H])[H])c1[H]
     RDKit          3D

 73 77  0  0  0  0  0  0  0  0999 V2000
    0.4202   -4.4652   -1.4639 C   0  0  0  0  0  0  0  0  0  0  0  0
    1.3545   -3.4714   -1.1431 O   0  0  0  0  0  0  0  0  0  0  0  0
    0.9918   -2.2438   -0.5962 C   0  0  0  0  0  0  0  0  0  0  0  0
   -0.3745   -2.0349   -0.3729 C   0  0  0  0  0  0  0  0  0  0  0  0
   -0.8226   -0.8513    0.1640 C   0  0  0  0  0  0  0  0  0  0  0  0
   -2.1547   -0.5968    0.4024 C   0  0  0  0  0  0  0  0  0  0  0  0
   -3.1342   -1.5567    0.1208 N   0  0  0  0  0  0  0  0  0  0  0  0
   -4.5772   -1.2695    0.2937 C   0  0  0  0  0  0  0  0  0  0  0  0
   -4.9838   -0.2204   -0.6836 C   0  0  0  0  0  0  0  0  0  0  0  0
   -6.0325   -0.6774   -1.6677 C   0  0  0  0  0  0  0  0  0  0  0  0
   -7.0703   -1.3198   -0.8451 N   0  0  0  0  0  0  0  0  0  0  0  0
   -8.3600   -1.2960   -1.4585 C   0  0  0  0  0  0  0  0  0  0  0  0
   -6.5582   -2.6188   -0.5416 C   0  0  0  0  0  0  0  0  0  0  0  0
   -5.3085   -2.5429    0.2523 C   0  0  0  0  0  0  0  0  0  0  0  0
   -2.4813    0.6401    0.9488 C   0  0  0  0  0  0  0  0  0  0  0  0
   -1.5164    1.5919    1.2479 C   0  0  0  0  0  0  0  0  0  0  0  0
   -0.2321    1.2993    0.9986 N   0  0  0  0  0  0  0  0  0  0  0  0
    0.1506    0.1142    0.4683 C   0  0  0  0  0  0  0  0  0  0  0  0
    1.4899   -0.1175    0.2381 C   0  0  0  0  0  0  0  0  0  0  0  0
    1.9449   -1.2985   -0.2983 C   0  0  0  0  0  0  0  0  0  0  0  0
    3.2952   -1.5340   -0.5308 O   0  0  0  0  0  0  0  0  0  0  0  0
    4.2981   -0.5842   -0.2374 C   0  0  0  0  0  0  0  0  0  0  0  0
    5.6246   -1.2166   -0.6315 C   0  0  0  0  0  0  0  0  0  0  0  0
    6.7761   -0.3017   -0.3692 C   0  0  0  0  0  0  0  0  0  0  0  0
    6.7299    0.9445   -1.0658 N   0  0  0  0  0  0  0  0  0  0  0  0
    7.8841    1.7287   -0.7076 C   0  0  0  0  0  0  0  0  0  0  0  0
    8.9662    1.1743   -1.5990 C   0  0  0  0  0  0  0  0  0  0  0  0
    8.2388    0.9216   -2.8920 C   0  0  0  0  0  0  0  0  0  0  0  0
    6.7975    0.7618   -2.4801 C   0  0  0  0  0  0  0  0  0  0  0  0
   -1.8753    2.8870    1.8228 C   0  0  0  0  0  0  0  0  0  0  0  0
   -0.9935    3.8936    2.1533 C   0  0  0  0  0  0  0  0  0  0  0  0
   -1.7077    4.9553    2.6666 C   0  0  0  0  0  0  0  0  0  0  0  0
   -3.0240    4.5397    2.6257 C   0  0  0  0  0  0  0  0  0  0  0  0
   -4.1508    5.3995    3.0963 C   0  0  0  0  0  0  0  0  0  0  0  0
   -3.0678    3.3268    2.1255 O   0  0  0  0  0  0  0  0  0  0  0  0
   -0.1839   -4.6587   -0.5500 H   0  0  0  0  0  0  0  0  0  0  0  0
   -0.2601   -4.0743   -2.2574 H   0  0  0  0  0  0  0  0  0  0  0  0
    0.8837   -5.4213   -1.7383 H   0  0  0  0  0  0  0  0  0  0  0  0
   -1.0776   -2.8275   -0.6347 H   0  0  0  0  0  0  0  0  0  0  0  0
   -2.8528   -2.5010   -0.2166 H   0  0  0  0  0  0  0  0  0  0  0  0
   -4.6465   -0.8145    1.3087 H   0  0  0  0  0  0  0  0  0  0  0  0
   -5.4123    0.6867   -0.2018 H   0  0  0  0  0  0  0  0  0  0  0  0
   -4.1140    0.1247   -1.2774 H   0  0  0  0  0  0  0  0  0  0  0  0
   -6.4309    0.1860   -2.2102 H   0  0  0  0  0  0  0  0  0  0  0  0
   -5.5772   -1.4589   -2.3096 H   0  0  0  0  0  0  0  0  0  0  0  0
   -9.0294   -0.6823   -0.7861 H   0  0  0  0  0  0  0  0  0  0  0  0
   -8.7729   -2.3443   -1.3781 H   0  0  0  0  0  0  0  0  0  0  0  0
   -8.3827   -0.9633   -2.4984 H   0  0  0  0  0  0  0  0  0  0  0  0
   -7.3384   -3.2241   -0.0371 H   0  0  0  0  0  0  0  0  0  0  0  0
   -6.3919   -3.1347   -1.5326 H   0  0  0  0  0  0  0  0  0  0  0  0
   -4.6473   -3.3792   -0.1341 H   0  0  0  0  0  0  0  0  0  0  0  0
   -5.5542   -2.8962    1.2991 H   0  0  0  0  0  0  0  0  0  0  0  0
   -3.4962    0.9269    1.1764 H   0  0  0  0  0  0  0  0  0  0  0  0
    2.1826    0.6795    0.5005 H   0  0  0  0  0  0  0  0  0  0  0  0
    4.1749    0.3586   -0.8076 H   0  0  0  0  0  0  0  0  0  0  0  0
    4.2969   -0.2960    0.8336 H   0  0  0  0  0  0  0  0  0  0  0  0
    5.7845   -2.1512   -0.0252 H   0  0  0  0  0  0  0  0  0  0  0  0
    5.5489   -1.5690   -1.6772 H   0  0  0  0  0  0  0  0  0  0  0  0
    7.7096   -0.8692   -0.6540 H   0  0  0  0  0  0  0  0  0  0  0  0
    6.8497   -0.1784    0.7399 H   0  0  0  0  0  0  0  0  0  0  0  0
    7.7295    2.7991   -1.0073 H   0  0  0  0  0  0  0  0  0  0  0  0
    8.1349    1.6557    0.3731 H   0  0  0  0  0  0  0  0  0  0  0  0
    9.3513    0.1944   -1.2242 H   0  0  0  0  0  0  0  0  0  0  0  0
    9.8003    1.8918   -1.7423 H   0  0  0  0  0  0  0  0  0  0  0  0
    8.6182    0.0160   -3.4205 H   0  0  0  0  0  0  0  0  0  0  0  0
    8.4167    1.7882   -3.5527 H   0  0  0  0  0  0  0  0  0  0  0  0
    6.2356    1.6025   -2.9609 H   0  0  0  0  0  0  0  0  0  0  0  0
    6.4182   -0.1830   -2.8686 H   0  0  0  0  0  0  0  0  0  0  0  0
    0.0799    3.8566    2.0304 H   0  0  0  0  0  0  0  0  0  0  0  0
   -1.3316    5.9024    3.0230 H   0  0  0  0  0  0  0  0  0  0  0  0
   -5.1226    4.9023    3.0316 H   0  0  0  0  0  0  0  0  0  0  0  0
   -3.9392    5.8007    4.1196 H   0  0  0  0  0  0  0  0  0  0  0  0
   -4.1901    6.2940    2.4261 H   0  0  0  0  0  0  0  0  0  0  0  0
  1  2  1  0
  2  3  1  0
  3  4  2  0
  4  5  1  0
  5  6  2  0
  6  7  1  0
  7  8  1  0
  8  9  1  0
  9 10  1  0
 10 11  1  0
 11 12  1  0
 11 13  1  0
 13 14  1  0
  6 15  1  0
 15 16  2  0
 16 17  1  0
 17 18  2  0
 18 19  1  0
 19 20  2  0
 20 21  1  0
 21 22  1  0
 22 23  1  0
 23 24  1  0
 24 25  1  0
 25 26  1  0
 26 27  1  0
 27 28  1  0
 28 29  1  0
 16 30  1  0
 30 31  2  0
 31 32  1  0
 32 33  2  0
 33 34  1  0
 33 35  1  0
 20  3  1  0
 29 25  1  0
 35 30  1  0
 18  5  1  0
 14  8  1  0
  1 36  1  0
  1 37  1  0
  1 38  1  0
  4 39  1  0
  7 40  1  0
  8 41  1  0
  9 42  1  0
  9 43  1  0
 10 44  1  0
 10 45  1  0
 12 46  1  0
 12 47  1  0
 12 48  1  0
 13 49  1  0
 13 50  1  0
 14 51  1  0
 14 52  1  0
 15 53  1  0
 19 54  1  0
 22 55  1  0
 22 56  1  0
 23 57  1  0
 23 58  1  0
 24 59  1  0
 24 60  1  0
 26 61  1  0
 26 62  1  0
 27 63  1  0
 27 64  1  0
 28 65  1  0
 28 66  1  0
 29 67  1  0
 29 68  1  0
 31 69  1  0
 32 70  1  0
 34 71  1  0
 34 72  1  0
 34 73  1  0
M  END
$$$$
[H]c1c(N2C([H])([H])C([H])([H])N(C([H])([H])[H])C([H])([H])C2([H])[H])nc2c([H])c(OC([H])([H])C([H])([H])C([H])([H])N3C([H])([H])C([H])([H])C([H])([H])C3([H])[H])c(OC([H])([H])[H])c([H])c2c1N([H])C1([H])C([H])([H])C([H])([H])N(C([H])([H])[H])C([H])([H])C1([H])[H]
     RDKit          3D

 80 84  0  0  0  0  0  0  0  0999 V2000
    1.5655   -3.4191   -2.7306 C   0  0  0  0  0  0  0  0  0  0  0  0
    2.1098   -2.1209   -2.6353 O   0  0  0  0  0  0  0  0  0  0  0  0
    1.4783   -1.1788   -1.8589 C   0  0  0  0  0  0  0  0  0  0  0  0
    0.3285   -1.5026   -1.1840 C   0  0  0  0  0  0  0  0  0  0  0  0
   -0.3583   -0.6189   -0.3905 C   0  0  0  0  0  0  0  0  0  0  0  0
   -1.5065   -0.9369    0.2782 C   0  0  0  0  0  0  0  0  0  0  0  0
   -2.0484   -2.2351    0.2126 N   0  0  0  0  0  0  0  0  0  0  0  0
   -3.3527   -2.5593    0.8264 C   0  0  0  0  0  0  0  0  0  0  0  0
   -3.5209   -4.0642    0.6926 C   0  0  0  0  0  0  0  0  0  0  0  0
   -3.7652   -4.3153   -0.7812 C   0  0  0  0  0  0  0  0  0  0  0  0
   -5.1070   -3.8870   -1.0555 N   0  0  0  0  0  0  0  0  0  0  0  0
   -6.0552   -4.9307   -0.7167 C   0  0  0  0  0  0  0  0  0  0  0  0
   -5.4681   -2.6174   -0.5820 C   0  0  0  0  0  0  0  0  0  0  0  0
   -4.4586   -1.8161    0.1364 C   0  0  0  0  0  0  0  0  0  0  0  0
   -2.0961    0.0723    1.0426 C   0  0  0  0  0  0  0  0  0  0  0  0
   -1.5628    1.3392    1.1334 C   0  0  0  0  0  0  0  0  0  0  0  0
   -0.4390    1.5715    0.4505 N   0  0  0  0  0  0  0  0  0  0  0  0
    0.1632    0.6585   -0.2874 C   0  0  0  0  0  0  0  0  0  0  0  0
    1.3384    1.0400   -0.9593 C   0  0  0  0  0  0  0  0  0  0  0  0
    2.0034    0.1244   -1.7485 C   0  0  0  0  0  0  0  0  0  0  0  0
    3.1363    0.3559   -2.4417 O   0  0  0  0  0  0  0  0  0  0  0  0
    4.0026    1.3789   -2.6296 C   0  0  0  0  0  0  0  0  0  0  0  0
    4.7073    1.7658   -1.3524 C   0  0  0  0  0  0  0  0  0  0  0  0
    5.4604    0.5299   -0.8914 C   0  0  0  0  0  0  0  0  0  0  0  0
    6.1987    0.7243    0.3258 N   0  0  0  0  0  0  0  0  0  0  0  0
    6.7982   -0.5498    0.6893 C   0  0  0  0  0  0  0  0  0  0  0  0
    8.2079   -0.2103    1.1888 C   0  0  0  0  0  0  0  0  0  0  0  0
    8.5823    0.8607    0.1822 C   0  0  0  0  0  0  0  0  0  0  0  0
    7.2714    1.6396    0.1012 C   0  0  0  0  0  0  0  0  0  0  0  0
   -2.1577    2.3701    1.9027 N   0  0  0  0  0  0  0  0  0  0  0  0
   -1.5200    3.6647    1.9929 C   0  0  0  0  0  0  0  0  0  0  0  0
   -2.4379    4.6479    1.2585 C   0  0  0  0  0  0  0  0  0  0  0  0
   -3.8112    4.1888    1.3133 N   0  0  0  0  0  0  0  0  0  0  0  0
   -4.6939    5.3004    1.0840 C   0  0  0  0  0  0  0  0  0  0  0  0
   -4.0897    3.5532    2.5867 C   0  0  0  0  0  0  0  0  0  0  0  0
   -3.3993    2.1796    2.6115 C   0  0  0  0  0  0  0  0  0  0  0  0
    1.4249   -3.8610   -1.7233 H   0  0  0  0  0  0  0  0  0  0  0  0
    0.5339   -3.3743   -3.1769 H   0  0  0  0  0  0  0  0  0  0  0  0
    2.1887   -4.0979   -3.3397 H   0  0  0  0  0  0  0  0  0  0  0  0
   -0.0385   -2.5056   -1.2971 H   0  0  0  0  0  0  0  0  0  0  0  0
   -1.5095   -2.9811   -0.2739 H   0  0  0  0  0  0  0  0  0  0  0  0
   -3.2746   -2.3402    1.9023 H   0  0  0  0  0  0  0  0  0  0  0  0
   -4.3321   -4.4384    1.3248 H   0  0  0  0  0  0  0  0  0  0  0  0
   -2.5782   -4.5575    0.9604 H   0  0  0  0  0  0  0  0  0  0  0  0
   -3.7129   -5.4091   -0.9692 H   0  0  0  0  0  0  0  0  0  0  0  0
   -3.0019   -3.8022   -1.3612 H   0  0  0  0  0  0  0  0  0  0  0  0
   -5.6434   -5.9252   -0.9687 H   0  0  0  0  0  0  0  0  0  0  0  0
   -6.9996   -4.7251   -1.2532 H   0  0  0  0  0  0  0  0  0  0  0  0
   -6.2241   -4.8342    0.3893 H   0  0  0  0  0  0  0  0  0  0  0  0
   -6.4103   -2.7446    0.0328 H   0  0  0  0  0  0  0  0  0  0  0  0
   -5.8318   -2.0042   -1.4611 H   0  0  0  0  0  0  0  0  0  0  0  0
   -5.0136   -1.2453    0.9419 H   0  0  0  0  0  0  0  0  0  0  0  0
   -3.9885   -1.0299   -0.4902 H   0  0  0  0  0  0  0  0  0  0  0  0
   -2.9990   -0.1737    1.5831 H   0  0  0  0  0  0  0  0  0  0  0  0
    1.6961    2.0583   -0.8563 H   0  0  0  0  0  0  0  0  0  0  0  0
    4.7632    1.0600   -3.4139 H   0  0  0  0  0  0  0  0  0  0  0  0
    3.5642    2.3064   -3.0762 H   0  0  0  0  0  0  0  0  0  0  0  0
    5.3943    2.6265   -1.5296 H   0  0  0  0  0  0  0  0  0  0  0  0
    3.9551    2.0178   -0.5933 H   0  0  0  0  0  0  0  0  0  0  0  0
    4.7640   -0.3191   -0.7545 H   0  0  0  0  0  0  0  0  0  0  0  0
    6.1842    0.1933   -1.6846 H   0  0  0  0  0  0  0  0  0  0  0  0
    6.8900   -1.2097   -0.1943 H   0  0  0  0  0  0  0  0  0  0  0  0
    6.2543   -1.0451    1.5128 H   0  0  0  0  0  0  0  0  0  0  0  0
    8.8636   -1.0790    1.1451 H   0  0  0  0  0  0  0  0  0  0  0  0
    8.1456    0.2608    2.1708 H   0  0  0  0  0  0  0  0  0  0  0  0
    8.7740    0.3628   -0.8028 H   0  0  0  0  0  0  0  0  0  0  0  0
    9.4001    1.5044    0.5185 H   0  0  0  0  0  0  0  0  0  0  0  0
    7.2156    2.1886   -0.8568 H   0  0  0  0  0  0  0  0  0  0  0  0
    7.3382    2.3935    0.9295 H   0  0  0  0  0  0  0  0  0  0  0  0
   -0.5383    3.7195    1.5088 H   0  0  0  0  0  0  0  0  0  0  0  0
   -1.3888    3.9814    3.0489 H   0  0  0  0  0  0  0  0  0  0  0  0
   -2.1344    4.5884    0.1799 H   0  0  0  0  0  0  0  0  0  0  0  0
   -2.3144    5.6785    1.6402 H   0  0  0  0  0  0  0  0  0  0  0  0
   -4.7623    5.9034    1.9987 H   0  0  0  0  0  0  0  0  0  0  0  0
   -4.3096    5.9442    0.2660 H   0  0  0  0  0  0  0  0  0  0  0  0
   -5.6843    4.9235    0.7281 H   0  0  0  0  0  0  0  0  0  0  0  0
   -3.6917    4.2152    3.3804 H   0  0  0  0  0  0  0  0  0  0  0  0
   -5.1632    3.4108    2.7443 H   0  0  0  0  0  0  0  0  0  0  0  0
   -3.2692    1.8537    3.6468 H   0  0  0  0  0  0  0  0  0  0  0  0
   -4.0394    1.5079    2.0143 H   0  0  0  0  0  0  0  0  0  0  0  0
  1  2  1  0
  2  3  1  0
  3  4  2  0
  4  5  1  0
  5  6  2  0
  6  7  1  0
  7  8  1  0
  8  9  1  0
  9 10  1  0
 10 11  1  0
 11 12  1  0
 11 13  1  0
 13 14  1  0
  6 15  1  0
 15 16  2  0
 16 17  1  0
 17 18  2  0
 18 19  1  0
 19 20  2  0
 20 21  1  0
 21 22  1  0
 22 23  1  0
 23 24  1  0
 24 25  1  0
 25 26  1  0
 26 27  1  0
 27 28  1  0
 28 29  1  0
 16 30  1  0
 30 31  1  0
 31 32  1  0
 32 33  1  0
 33 34  1  0
 33 35  1  0
 35 36  1  0
 20  3  1  0
 29 25  1  0
 36 30  1  0
 18  5  1  0
 14  8  1  0
  1 37  1  0
  1 38  1  0
  1 39  1  0
  4 40  1  0
  7 41  1  0
  8 42  1  0
  9 43  1  0
  9 44  1  0
 10 45  1  0
 10 46  1  0
 12 47  1  0
 12 48  1  0
 12 49  1  0
 13 50  1  0
 13 51  1  0
 14 52  1  0
 14 53  1  0
 15 54  1  0
 19 55  1  0
 22 56  1  0
 22 57  1  0
 23 58  1  0
 23 59  1  0
 24 60  1  0
 24 61  1  0
 26 62  1  0
 26 63  1  0
 27 64  1  0
 27 65  1  0
 28 66  1  0
 28 67  1  0
 29 68  1  0
 29 69  1  0
 31 70  1  0
 31 71  1  0
 32 72  1  0
 32 73  1  0
 34 74  1  0
 34 75  1  0
 34 76  1  0
 35 77  1  0
 35 78  1  0
 36 79  1  0
 36 80  1  0
M  END
$$$$
[H]c1c(OC([H])([H])C([H])([H])C([H])([H])N2C([H])([H])C([H])([H])C([H])([H])C2([H])[H])c(OC([H])([H])[H])c([H])c2c(N([H])C3([H])C([H])([H])C([H])([H])N(C([H])(C([H])([H])[H])C([H])([H])[H])C([H])([H])C3([H])[H])nc(C3([H])C([H])([H])C([H])([H])C([H])([H])C([H])([H])C3([H])[H])nc12
     RDKit          3D

 84 88  0  0  0  0  0  0  0  0999 V2000
    1.5667   -3.5694   -1.3775 C   0  0  0  0  0  0  0  0  0  0  0  0
    2.2869   -2.3789   -1.1332 O   0  0  0  0  0  0  0  0  0  0  0  0
    1.6951   -1.1531   -0.9522 C   0  0  0  0  0  0  0  0  0  0  0  0
    0.3250   -1.0386   -1.0042 C   0  0  0  0  0  0  0  0  0  0  0  0
   -0.2979    0.1933   -0.8245 C   0  0  0  0  0  0  0  0  0  0  0  0
   -1.6710    0.3233   -0.8724 C   0  0  0  0  0  0  0  0  0  0  0  0
   -2.5296   -0.7652   -1.1227 N   0  0  0  0  0  0  0  0  0  0  0  0
   -3.9618   -0.5750   -1.1293 C   0  0  0  0  0  0  0  0  0  0  0  0
   -4.6300   -1.8498   -1.6207 C   0  0  0  0  0  0  0  0  0  0  0  0
   -5.9374   -2.1248   -0.9068 C   0  0  0  0  0  0  0  0  0  0  0  0
   -5.7388   -2.2944    0.5180 N   0  0  0  0  0  0  0  0  0  0  0  0
   -4.4676   -1.7543    0.9506 C   0  0  0  0  0  0  0  0  0  0  0  0
   -4.3607   -0.3642    0.3411 C   0  0  0  0  0  0  0  0  0  0  0  0
   -5.9103   -3.6736    0.9244 C   0  0  0  0  0  0  0  0  0  0  0  0
   -7.3418   -4.0648    0.6256 C   0  0  0  0  0  0  0  0  0  0  0  0
   -5.6873   -3.8471    2.4059 C   0  0  0  0  0  0  0  0  0  0  0  0
   -2.1793    1.5630   -0.6842 N   0  0  0  0  0  0  0  0  0  0  0  0
   -1.4493    2.6516   -0.4587 C   0  0  0  0  0  0  0  0  0  0  0  0
   -0.1168    2.5026   -0.4160 N   0  0  0  0  0  0  0  0  0  0  0  0
    0.4685    1.3208   -0.5900 C   0  0  0  0  0  0  0  0  0  0  0  0
    1.8620    1.1882   -0.5396 C   0  0  0  0  0  0  0  0  0  0  0  0
    2.4703   -0.0457   -0.7205 C   0  0  0  0  0  0  0  0  0  0  0  0
    3.8485   -0.0990   -0.6570 O   0  0  0  0  0  0  0  0  0  0  0  0
    4.6240    1.0546   -0.4155 C   0  0  0  0  0  0  0  0  0  0  0  0
    6.0965    0.7540   -0.3956 C   0  0  0  0  0  0  0  0  0  0  0  0
    6.4654   -0.2414    0.6714 C   0  0  0  0  0  0  0  0  0  0  0  0
    7.8779   -0.5300    0.6873 N   0  0  0  0  0  0  0  0  0  0  0  0
    8.1929   -1.2454   -0.5205 C   0  0  0  0  0  0  0  0  0  0  0  0
    8.8478   -2.5331   -0.1439 C   0  0  0  0  0  0  0  0  0  0  0  0
    8.3498   -2.7642    1.2624 C   0  0  0  0  0  0  0  0  0  0  0  0
    8.2396   -1.3535    1.7979 C   0  0  0  0  0  0  0  0  0  0  0  0
   -2.0963    3.9620   -0.2710 C   0  0  0  0  0  0  0  0  0  0  0  0
   -1.5877    5.0167   -1.1973 C   0  0  0  0  0  0  0  0  0  0  0  0
   -1.1892    6.2855   -0.4803 C   0  0  0  0  0  0  0  0  0  0  0  0
   -2.2723    6.7777    0.4521 C   0  0  0  0  0  0  0  0  0  0  0  0
   -2.8693    5.6609    1.2710 C   0  0  0  0  0  0  0  0  0  0  0  0
   -1.9460    4.4450    1.1758 C   0  0  0  0  0  0  0  0  0  0  0  0
    2.2859   -4.2918   -1.8102 H   0  0  0  0  0  0  0  0  0  0  0  0
    1.2325   -3.9980   -0.3997 H   0  0  0  0  0  0  0  0  0  0  0  0
    0.7547   -3.4512   -2.1045 H   0  0  0  0  0  0  0  0  0  0  0  0
   -0.2642   -1.9116   -1.1846 H   0  0  0  0  0  0  0  0  0  0  0  0
   -2.1576   -1.7027   -1.3041 H   0  0  0  0  0  0  0  0  0  0  0  0
   -4.2076    0.3122   -1.7438 H   0  0  0  0  0  0  0  0  0  0  0  0
   -3.9884   -2.7378   -1.5114 H   0  0  0  0  0  0  0  0  0  0  0  0
   -4.8622   -1.7051   -2.6911 H   0  0  0  0  0  0  0  0  0  0  0  0
   -6.6917   -1.3454   -1.0704 H   0  0  0  0  0  0  0  0  0  0  0  0
   -6.3314   -3.0676   -1.3238 H   0  0  0  0  0  0  0  0  0  0  0  0
   -4.4738   -1.7359    2.0582 H   0  0  0  0  0  0  0  0  0  0  0  0
   -3.6099   -2.3273    0.5944 H   0  0  0  0  0  0  0  0  0  0  0  0
   -3.5385    0.1314    0.8811 H   0  0  0  0  0  0  0  0  0  0  0  0
   -5.3287    0.1353    0.4221 H   0  0  0  0  0  0  0  0  0  0  0  0
   -5.2298   -4.3601    0.3764 H   0  0  0  0  0  0  0  0  0  0  0  0
   -7.4826   -4.4683   -0.3885 H   0  0  0  0  0  0  0  0  0  0  0  0
   -7.6981   -4.7807    1.4006 H   0  0  0  0  0  0  0  0  0  0  0  0
   -7.9632   -3.1393    0.7414 H   0  0  0  0  0  0  0  0  0  0  0  0
   -6.0028   -4.8808    2.6758 H   0  0  0  0  0  0  0  0  0  0  0  0
   -4.6294   -3.7427    2.6919 H   0  0  0  0  0  0  0  0  0  0  0  0
   -6.3342   -3.1416    2.9683 H   0  0  0  0  0  0  0  0  0  0  0  0
    2.4356    2.0709   -0.3563 H   0  0  0  0  0  0  0  0  0  0  0  0
    4.3178    1.5182    0.5651 H   0  0  0  0  0  0  0  0  0  0  0  0
    4.3968    1.7786   -1.2222 H   0  0  0  0  0  0  0  0  0  0  0  0
    6.6996    1.6751   -0.3185 H   0  0  0  0  0  0  0  0  0  0  0  0
    6.3593    0.3007   -1.3931 H   0  0  0  0  0  0  0  0  0  0  0  0
    5.8371   -1.1532    0.5289 H   0  0  0  0  0  0  0  0  0  0  0  0
    6.1700    0.1800    1.6480 H   0  0  0  0  0  0  0  0  0  0  0  0
    7.2703   -1.5078   -1.1086 H   0  0  0  0  0  0  0  0  0  0  0  0
    8.8140   -0.6280   -1.2079 H   0  0  0  0  0  0  0  0  0  0  0  0
    9.9608   -2.4762   -0.1588 H   0  0  0  0  0  0  0  0  0  0  0  0
    8.4878   -3.3840   -0.7611 H   0  0  0  0  0  0  0  0  0  0  0  0
    7.3591   -3.2680    1.2161 H   0  0  0  0  0  0  0  0  0  0  0  0
    9.0779   -3.3333    1.8758 H   0  0  0  0  0  0  0  0  0  0  0  0
    9.2202   -1.0668    2.2450 H   0  0  0  0  0  0  0  0  0  0  0  0
    7.4111   -1.3216    2.5302 H   0  0  0  0  0  0  0  0  0  0  0  0
   -3.1949    3.8621   -0.4186 H   0  0  0  0  0  0  0  0  0  0  0  0
   -2.2451    5.2202   -2.0680 H   0  0  0  0  0  0  0  0  0  0  0  0
   -0.6334    4.6143   -1.6501 H   0  0  0  0  0  0  0  0  0  0  0  0
   -0.2183    6.1687    0.0428 H   0  0  0  0  0  0  0  0  0  0  0  0
   -1.0433    7.0663   -1.2537 H   0  0  0  0  0  0  0  0  0  0  0  0
   -3.0517    7.3577   -0.0593 H   0  0  0  0  0  0  0  0  0  0  0  0
   -1.7800    7.4798    1.1718 H   0  0  0  0  0  0  0  0  0  0  0  0
   -3.0749    5.9215    2.3118 H   0  0  0  0  0  0  0  0  0  0  0  0
   -3.8085    5.3548    0.7249 H   0  0  0  0  0  0  0  0  0  0  0  0
   -2.3300    3.6398    1.8147 H   0  0  0  0  0  0  0  0  0  0  0  0
   -0.8929    4.7052    1.3729 H   0  0  0  0  0  0  0  0  0  0  0  0
  1  2  1  0
  2  3  1  0
  3  4  2  0
  4  5  1  0
  5  6  2  0
  6  7  1  0
  7  8  1  0
  8  9  1  0
  9 10  1  0
 10 11  1  0
 11 12  1  0
 12 13  1  0
 11 14  1  0
 14 15  1  0
 14 16  1  0
  6 17  1  0
 17 18  2  0
 18 19  1  0
 19 20  2  0
 20 21  1  0
 21 22  2  0
 22 23  1  0
 23 24  1  0
 24 25  1  0
 25 26  1  0
 26 27  1  0
 27 28  1  0
 28 29  1  0
 29 30  1  0
 30 31  1  0
 18 32  1  0
 32 33  1  0
 33 34  1  0
 34 35  1  0
 35 36  1  0
 36 37  1  0
 22  3  1  0
 31 27  1  0
 37 32  1  0
 20  5  1  0
 13  8  1  0
  1 38  1  0
  1 39  1  0
  1 40  1  0
  4 41  1  0
  7 42  1  0
  8 43  1  0
  9 44  1  0
  9 45  1  0
 10 46  1  0
 10 47  1  0
 12 48  1  0
 12 49  1  0
 13 50  1  0
 13 51  1  0
 14 52  1  0
 15 53  1  0
 15 54  1  0
 15 55  1  0
 16 56  1  0
 16 57  1  0
 16 58  1  0
 21 59  1  0
 24 60  1  0
 24 61  1  0
 25 62  1  0
 25 63  1  0
 26 64  1  0
 26 65  1  0
 28 66  1  0
 28 67  1  0
 29 68  1  0
 29 69  1  0
 30 70  1  0
 30 71  1  0
 31 72  1  0
 31 73  1  0
 32 74  1  0
 33 75  1  0
 33 76  1  0
 34 77  1  0
 34 78  1  0
 35 79  1  0
 35 80  1  0
 36 81  1  0
 36 82  1  0
 37 83  1  0
 37 84  1  0
M  END
$$$$
[H]c1c(OC([H])([H])C([H])([H])C([H])([H])N2C([H])([H])C([H])([H])C([H])([H])C2([H])[H])c(OC([H])([H])[H])c([H])c2c(N([H])C3([H])C([H])([H])C([H])([H])N(C([H])(C([H])([H])[H])C([H])([H])[H])C([H])([H])C3([H])[H])nc(N3C([H])([H])C([H])([H])N(C([H])([H])C([H])([H])[H])C([H])([H])C([H])([H])C3([H])[H])nc12
     RDKit          3D

 91 95  0  0  0  0  0  0  0  0999 V2000
   -5.1688    6.3496   -1.1726 C   0  0  0  0  0  0  0  0  0  0  0  0
   -4.6988    4.9638   -0.7111 C   0  0  0  0  0  0  0  0  0  0  0  0
   -3.3600    4.7065   -1.1183 N   0  0  0  0  0  0  0  0  0  0  0  0
   -2.3418    5.4840   -0.5031 C   0  0  0  0  0  0  0  0  0  0  0  0
   -1.8462    4.9518    0.8148 C   0  0  0  0  0  0  0  0  0  0  0  0
   -0.8273    3.8457    0.6295 C   0  0  0  0  0  0  0  0  0  0  0  0
   -1.5057    2.5975    0.2931 N   0  0  0  0  0  0  0  0  0  0  0  0
   -2.8298    2.4632   -0.2208 C   0  0  0  0  0  0  0  0  0  0  0  0
   -3.0369    3.3554   -1.4270 C   0  0  0  0  0  0  0  0  0  0  0  0
   -0.7109    1.4206    0.5167 C   0  0  0  0  0  0  0  0  0  0  0  0
   -1.1990    0.1882    0.3579 N   0  0  0  0  0  0  0  0  0  0  0  0
   -0.4770   -0.9551    0.5533 C   0  0  0  0  0  0  0  0  0  0  0  0
   -1.0454   -2.2249    0.3708 N   0  0  0  0  0  0  0  0  0  0  0  0
   -2.4055   -2.4701   -0.0200 C   0  0  0  0  0  0  0  0  0  0  0  0
   -3.4454   -1.9623    0.9201 C   0  0  0  0  0  0  0  0  0  0  0  0
   -4.8099   -2.4212    0.4605 C   0  0  0  0  0  0  0  0  0  0  0  0
   -4.8565   -2.9641   -0.8241 N   0  0  0  0  0  0  0  0  0  0  0  0
   -4.0061   -2.4966   -1.8343 C   0  0  0  0  0  0  0  0  0  0  0  0
   -2.6916   -1.9001   -1.3796 C   0  0  0  0  0  0  0  0  0  0  0  0
   -5.5828   -4.1511   -1.0587 C   0  0  0  0  0  0  0  0  0  0  0  0
   -7.0533   -3.8381   -0.7377 C   0  0  0  0  0  0  0  0  0  0  0  0
   -5.1969   -5.2708   -0.1203 C   0  0  0  0  0  0  0  0  0  0  0  0
    0.8346   -0.8102    0.9374 C   0  0  0  0  0  0  0  0  0  0  0  0
    1.6705   -1.8763    1.1633 C   0  0  0  0  0  0  0  0  0  0  0  0
    3.0075   -1.7277    1.5510 C   0  0  0  0  0  0  0  0  0  0  0  0
    3.7800   -2.8562    1.7575 O   0  0  0  0  0  0  0  0  0  0  0  0
    3.2122   -4.1356    1.5740 C   0  0  0  0  0  0  0  0  0  0  0  0
    3.5447   -0.4492    1.7242 C   0  0  0  0  0  0  0  0  0  0  0  0
    4.8594   -0.3810    2.1011 O   0  0  0  0  0  0  0  0  0  0  0  0
    5.7024    0.6675    2.3388 C   0  0  0  0  0  0  0  0  0  0  0  0
    6.0472    1.6137    1.2699 C   0  0  0  0  0  0  0  0  0  0  0  0
    6.8236    1.0954    0.1221 C   0  0  0  0  0  0  0  0  0  0  0  0
    6.2867   -0.0233   -0.6160 N   0  0  0  0  0  0  0  0  0  0  0  0
    6.8379   -0.0056   -1.9888 C   0  0  0  0  0  0  0  0  0  0  0  0
    8.1788   -0.6604   -1.9303 C   0  0  0  0  0  0  0  0  0  0  0  0
    7.9378   -1.7650   -0.9187 C   0  0  0  0  0  0  0  0  0  0  0  0
    6.8101   -1.2851   -0.0678 C   0  0  0  0  0  0  0  0  0  0  0  0
    2.6917    0.5954    1.4941 C   0  0  0  0  0  0  0  0  0  0  0  0
    1.3847    0.4689    1.1150 C   0  0  0  0  0  0  0  0  0  0  0  0
    0.5733    1.5116    0.8926 N   0  0  0  0  0  0  0  0  0  0  0  0
   -4.5968    6.7042   -2.0493 H   0  0  0  0  0  0  0  0  0  0  0  0
   -6.2709    6.3487   -1.3511 H   0  0  0  0  0  0  0  0  0  0  0  0
   -4.9890    7.1012   -0.3672 H   0  0  0  0  0  0  0  0  0  0  0  0
   -5.3693    4.2424   -1.1867 H   0  0  0  0  0  0  0  0  0  0  0  0
   -4.8550    4.9471    0.3889 H   0  0  0  0  0  0  0  0  0  0  0  0
   -2.7192    6.5239   -0.4031 H   0  0  0  0  0  0  0  0  0  0  0  0
   -1.4553    5.4968   -1.1887 H   0  0  0  0  0  0  0  0  0  0  0  0
   -2.6336    4.5633    1.4727 H   0  0  0  0  0  0  0  0  0  0  0  0
   -1.3306    5.7746    1.3518 H   0  0  0  0  0  0  0  0  0  0  0  0
   -0.0969    4.1052   -0.1644 H   0  0  0  0  0  0  0  0  0  0  0  0
   -0.3483    3.6783    1.6142 H   0  0  0  0  0  0  0  0  0  0  0  0
   -2.9904    1.4100   -0.5869 H   0  0  0  0  0  0  0  0  0  0  0  0
   -3.5590    2.7279    0.5731 H   0  0  0  0  0  0  0  0  0  0  0  0
   -3.8787    2.9403   -2.0322 H   0  0  0  0  0  0  0  0  0  0  0  0
   -2.1104    3.3264   -2.0424 H   0  0  0  0  0  0  0  0  0  0  0  0
   -0.4635   -3.0774    0.5218 H   0  0  0  0  0  0  0  0  0  0  0  0
   -2.5563   -3.5708   -0.1001 H   0  0  0  0  0  0  0  0  0  0  0  0
   -3.4236   -0.8613    1.0095 H   0  0  0  0  0  0  0  0  0  0  0  0
   -3.2051   -2.3624    1.9477 H   0  0  0  0  0  0  0  0  0  0  0  0
   -5.5096   -1.5464    0.5211 H   0  0  0  0  0  0  0  0  0  0  0  0
   -5.1798   -3.1515    1.2026 H   0  0  0  0  0  0  0  0  0  0  0  0
   -4.5271   -1.7769   -2.4881 H   0  0  0  0  0  0  0  0  0  0  0  0
   -3.7404   -3.3667   -2.5035 H   0  0  0  0  0  0  0  0  0  0  0  0
   -2.7570   -0.8152   -1.4344 H   0  0  0  0  0  0  0  0  0  0  0  0
   -1.8620   -2.2081   -2.0560 H   0  0  0  0  0  0  0  0  0  0  0  0
   -5.5780   -4.5160   -2.0888 H   0  0  0  0  0  0  0  0  0  0  0  0
   -7.5502   -4.7757   -0.3954 H   0  0  0  0  0  0  0  0  0  0  0  0
   -7.5925   -3.4895   -1.6181 H   0  0  0  0  0  0  0  0  0  0  0  0
   -7.1233   -3.1145    0.1008 H   0  0  0  0  0  0  0  0  0  0  0  0
   -4.1079   -5.4134   -0.0537 H   0  0  0  0  0  0  0  0  0  0  0  0
   -5.6884   -5.1242    0.8613 H   0  0  0  0  0  0  0  0  0  0  0  0
   -5.6110   -6.2130   -0.5582 H   0  0  0  0  0  0  0  0  0  0  0  0
    1.2929   -2.8875    1.0404 H   0  0  0  0  0  0  0  0  0  0  0  0
    2.3213   -4.2636    2.2430 H   0  0  0  0  0  0  0  0  0  0  0  0
    2.8857   -4.2218    0.5355 H   0  0  0  0  0  0  0  0  0  0  0  0
    3.9963   -4.8956    1.8116 H   0  0  0  0  0  0  0  0  0  0  0  0
    6.6172    0.2427    2.8469 H   0  0  0  0  0  0  0  0  0  0  0  0
    5.2216    1.2735    3.1827 H   0  0  0  0  0  0  0  0  0  0  0  0
    6.6843    2.4416    1.7335 H   0  0  0  0  0  0  0  0  0  0  0  0
    5.1567    2.1967    0.8997 H   0  0  0  0  0  0  0  0  0  0  0  0
    7.8581    0.7431    0.4418 H   0  0  0  0  0  0  0  0  0  0  0  0
    7.0965    1.9377   -0.5980 H   0  0  0  0  0  0  0  0  0  0  0  0
    6.9737    1.0585   -2.2717 H   0  0  0  0  0  0  0  0  0  0  0  0
    6.1718   -0.5354   -2.6852 H   0  0  0  0  0  0  0  0  0  0  0  0
    8.9821    0.0052   -1.5960 H   0  0  0  0  0  0  0  0  0  0  0  0
    8.4438   -1.1237   -2.8922 H   0  0  0  0  0  0  0  0  0  0  0  0
    8.8803   -1.9511   -0.3727 H   0  0  0  0  0  0  0  0  0  0  0  0
    7.6348   -2.7146   -1.4324 H   0  0  0  0  0  0  0  0  0  0  0  0
    7.2881   -1.0227    0.9244 H   0  0  0  0  0  0  0  0  0  0  0  0
    6.0269   -2.0336    0.0964 H   0  0  0  0  0  0  0  0  0  0  0  0
    3.0596    1.5944    1.6279 H   0  0  0  0  0  0  0  0  0  0  0  0
  1  2  1  0
  2  3  1  0
  3  4  1  0
  4  5  1  0
  5  6  1  0
  6  7  1  0
  7  8  1  0
  8  9  1  0
  7 10  1  0
 10 11  2  0
 11 12  1  0
 12 13  1  0
 13 14  1  0
 14 15  1  0
 15 16  1  0
 16 17  1  0
 17 18  1  0
 18 19  1  0
 17 20  1  0
 20 21  1  0
 20 22  1  0
 12 23  2  0
 23 24  1  0
 24 25  2  0
 25 26  1  0
 26 27  1  0
 25 28  1  0
 28 29  1  0
 29 30  1  0
 30 31  1  0
 31 32  1  0
 32 33  1  0
 33 34  1  0
 34 35  1  0
 35 36  1  0
 36 37  1  0
 28 38  2  0
 38 39  1  0
 39 40  2  0
  9  3  1  0
 40 10  1  0
 19 14  1  0
 39 23  1  0
 37 33  1  0
  1 41  1  0
  1 42  1  0
  1 43  1  0
  2 44  1  0
  2 45  1  0
  4 46  1  0
  4 47  1  0
  5 48  1  0
  5 49  1  0
  6 50  1  0
  6 51  1  0
  8 52  1  0
  8 53  1  0
  9 54  1  0
  9 55  1  0
 13 56  1  0
 14 57  1  0
 15 58  1  0
 15 59  1  0
 16 60  1  0
 16 61  1  0
 18 62  1  0
 18 63  1  0
 19 64  1  0
 19 65  1  0
 20 66  1  0
 21 67  1  0
 21 68  1  0
 21 69  1  0
 22 70  1  0
 22 71  1  0
 22 72  1  0
 24 73  1  0
 27 74  1  0
 27 75  1  0
 27 76  1  0
 30 77  1  0
 30 78  1  0
 31 79  1  0
 31 80  1  0
 32 81  1  0
 32 82  1  0
 34 83  1  0
 34 84  1  0
 35 85  1  0
 35 86  1  0
 36 87  1  0
 36 88  1  0
 37 89  1  0
 37 90  1  0
 38 91  1  0
M  END
$$$$
[H]c1c(-c2nc3c([H])c(OC([H])([H])C([H])([H])C([H])([H])N4C([H])([H])C([H])([H])C([H])([H])C4([H])[H])c(OC([H])([H])[H])c([H])c3c(N([H])C3([H])C([H])([H])C([H])([H])C34C([H])([H])N(C([H])([H])[H])C([H])([H])C4([H])[H])c2[H])oc(C([H])([H])[H])c1[H]
     RDKit          3D

 77 82  0  0  0  0  0  0  0  0999 V2000
    1.3569   -3.4470   -0.6665 C   0  0  0  0  0  0  0  0  0  0  0  0
    2.1009   -2.4186   -0.0507 O   0  0  0  0  0  0  0  0  0  0  0  0
    1.4876   -1.2367    0.2759 C   0  0  0  0  0  0  0  0  0  0  0  0
    0.1502   -1.0738   -0.0036 C   0  0  0  0  0  0  0  0  0  0  0  0
   -0.4820    0.1042    0.3161 C   0  0  0  0  0  0  0  0  0  0  0  0
   -1.8453    0.2746    0.0351 C   0  0  0  0  0  0  0  0  0  0  0  0
   -2.6333   -0.7184   -0.5971 N   0  0  0  0  0  0  0  0  0  0  0  0
   -4.0322   -0.5257   -0.7638 C   0  0  0  0  0  0  0  0  0  0  0  0
   -4.7800   -0.5047    0.5761 C   0  0  0  0  0  0  0  0  0  0  0  0
   -5.2193   -1.9297    0.3127 C   0  0  0  0  0  0  0  0  0  0  0  0
   -4.8484   -1.7317   -1.1164 C   0  0  0  0  0  0  0  0  0  0  0  0
   -5.9683   -1.5184   -2.0974 C   0  0  0  0  0  0  0  0  0  0  0  0
   -6.3192   -2.9590   -2.4663 C   0  0  0  0  0  0  0  0  0  0  0  0
   -5.1005   -3.7044   -2.3904 N   0  0  0  0  0  0  0  0  0  0  0  0
   -5.3518   -4.8929   -1.5745 C   0  0  0  0  0  0  0  0  0  0  0  0
   -4.0920   -2.8629   -1.7663 C   0  0  0  0  0  0  0  0  0  0  0  0
   -2.4001    1.4955    0.3950 C   0  0  0  0  0  0  0  0  0  0  0  0
   -1.6557    2.4798    0.9928 C   0  0  0  0  0  0  0  0  0  0  0  0
   -0.3587    2.2793    1.2444 N   0  0  0  0  0  0  0  0  0  0  0  0
    0.2387    1.1246    0.9222 C   0  0  0  0  0  0  0  0  0  0  0  0
    1.5985    0.9602    1.2074 C   0  0  0  0  0  0  0  0  0  0  0  0
    2.2357   -0.2136    0.8898 C   0  0  0  0  0  0  0  0  0  0  0  0
    3.5369   -0.4925    1.1100 O   0  0  0  0  0  0  0  0  0  0  0  0
    4.5936    0.1916    1.6384 C   0  0  0  0  0  0  0  0  0  0  0  0
    5.0455    1.4314    0.9414 C   0  0  0  0  0  0  0  0  0  0  0  0
    5.4500    1.0111   -0.4780 C   0  0  0  0  0  0  0  0  0  0  0  0
    6.5035    0.0500   -0.3867 N   0  0  0  0  0  0  0  0  0  0  0  0
    7.7526    0.5483    0.1015 C   0  0  0  0  0  0  0  0  0  0  0  0
    8.8411   -0.3193   -0.4831 C   0  0  0  0  0  0  0  0  0  0  0  0
    8.1776   -1.1541   -1.5538 C   0  0  0  0  0  0  0  0  0  0  0  0
    6.7596   -0.6513   -1.6194 C   0  0  0  0  0  0  0  0  0  0  0  0
   -2.2750    3.7671    1.3661 C   0  0  0  0  0  0  0  0  0  0  0  0
   -3.5778    4.1670    1.1944 C   0  0  0  0  0  0  0  0  0  0  0  0
   -3.6878    5.4474    1.6972 C   0  0  0  0  0  0  0  0  0  0  0  0
   -2.4271    5.7738    2.1593 C   0  0  0  0  0  0  0  0  0  0  0  0
   -2.0497    7.0721    2.7956 C   0  0  0  0  0  0  0  0  0  0  0  0
   -1.6442    4.7504    1.9375 O   0  0  0  0  0  0  0  0  0  0  0  0
    1.0905   -3.1102   -1.6948 H   0  0  0  0  0  0  0  0  0  0  0  0
    0.4568   -3.7079   -0.0713 H   0  0  0  0  0  0  0  0  0  0  0  0
    2.0144   -4.3400   -0.8172 H   0  0  0  0  0  0  0  0  0  0  0  0
   -0.4168   -1.8642   -0.4728 H   0  0  0  0  0  0  0  0  0  0  0  0
   -2.2112   -1.5846   -0.9460 H   0  0  0  0  0  0  0  0  0  0  0  0
   -4.2805    0.3379   -1.4151 H   0  0  0  0  0  0  0  0  0  0  0  0
   -5.6802    0.1612    0.5095 H   0  0  0  0  0  0  0  0  0  0  0  0
   -4.1496   -0.3521    1.4536 H   0  0  0  0  0  0  0  0  0  0  0  0
   -4.5650   -2.6994    0.7800 H   0  0  0  0  0  0  0  0  0  0  0  0
   -6.3088   -2.1184    0.4227 H   0  0  0  0  0  0  0  0  0  0  0  0
   -6.8100   -0.9636   -1.6825 H   0  0  0  0  0  0  0  0  0  0  0  0
   -5.5278   -1.0296   -3.0031 H   0  0  0  0  0  0  0  0  0  0  0  0
   -6.7954   -3.0030   -3.4704 H   0  0  0  0  0  0  0  0  0  0  0  0
   -7.0442   -3.2952   -1.6983 H   0  0  0  0  0  0  0  0  0  0  0  0
   -5.5478   -5.7705   -2.2172 H   0  0  0  0  0  0  0  0  0  0  0  0
   -6.2811   -4.7590   -0.9598 H   0  0  0  0  0  0  0  0  0  0  0  0
   -4.5384   -5.0555   -0.8357 H   0  0  0  0  0  0  0  0  0  0  0  0
   -3.3918   -2.5292   -2.5467 H   0  0  0  0  0  0  0  0  0  0  0  0
   -3.5654   -3.4810   -1.0155 H   0  0  0  0  0  0  0  0  0  0  0  0
   -3.4451    1.6762    0.1877 H   0  0  0  0  0  0  0  0  0  0  0  0
    2.1343    1.7629    1.6897 H   0  0  0  0  0  0  0  0  0  0  0  0
    5.5001   -0.4392    1.8118 H   0  0  0  0  0  0  0  0  0  0  0  0
    4.3005    0.5069    2.6893 H   0  0  0  0  0  0  0  0  0  0  0  0
    5.9294    1.8989    1.4245 H   0  0  0  0  0  0  0  0  0  0  0  0
    4.2321    2.1560    0.8289 H   0  0  0  0  0  0  0  0  0  0  0  0
    4.5952    0.5360   -0.9959 H   0  0  0  0  0  0  0  0  0  0  0  0
    5.7983    1.8859   -1.0591 H   0  0  0  0  0  0  0  0  0  0  0  0
    7.9026    1.5733   -0.2398 H   0  0  0  0  0  0  0  0  0  0  0  0
    7.8440    0.4744    1.2053 H   0  0  0  0  0  0  0  0  0  0  0  0
    9.6641    0.2986   -0.8939 H   0  0  0  0  0  0  0  0  0  0  0  0
    9.3151   -0.9795    0.2937 H   0  0  0  0  0  0  0  0  0  0  0  0
    8.7061   -1.0299   -2.5024 H   0  0  0  0  0  0  0  0  0  0  0  0
    8.1424   -2.2325   -1.2649 H   0  0  0  0  0  0  0  0  0  0  0  0
    6.7147    0.1195   -2.4368 H   0  0  0  0  0  0  0  0  0  0  0  0
    6.0196   -1.4169   -1.8665 H   0  0  0  0  0  0  0  0  0  0  0  0
   -4.3742    3.5903    0.7489 H   0  0  0  0  0  0  0  0  0  0  0  0
   -4.5570    6.0916    1.7394 H   0  0  0  0  0  0  0  0  0  0  0  0
   -2.9590    7.4694    3.3171 H   0  0  0  0  0  0  0  0  0  0  0  0
   -1.2964    6.8975    3.5836 H   0  0  0  0  0  0  0  0  0  0  0  0
   -1.6952    7.7514    2.0046 H   0  0  0  0  0  0  0  0  0  0  0  0
  1  2  1  0
  2  3  1  0
  3  4  2  0
  4  5  1  0
  5  6  2  0
  6  7  1  0
  7  8  1  0
  8  9  1  0
  9 10  1  0
 10 11  1  0
 11 12  1  0
 12 13  1  0
 13 14  1  0
 14 15  1  0
 14 16  1  0
  6 17  1  0
 17 18  2  0
 18 19  1  0
 19 20  2  0
 20 21  1  0
 21 22  2  0
 22 23  1  0
 23 24  1  0
 24 25  1  0
 25 26  1  0
 26 27  1  0
 27 28  1  0
 28 29  1  0
 29 30  1  0
 30 31  1  0
 18 32  1  0
 32 33  2  0
 33 34  1  0
 34 35  2  0
 35 36  1  0
 35 37  1  0
 22  3  1  0
 31 27  1  0
 37 32  1  0
 20  5  1  0
 11  8  1  0
 16 11  1  0
  1 38  1  0
  1 39  1  0
  1 40  1  0
  4 41  1  0
  7 42  1  0
  8 43  1  0
  9 44  1  0
  9 45  1  0
 10 46  1  0
 10 47  1  0
 12 48  1  0
 12 49  1  0
 13 50  1  0
 13 51  1  0
 15 52  1  0
 15 53  1  0
 15 54  1  0
 16 55  1  0
 16 56  1  0
 17 57  1  0
 21 58  1  0
 24 59  1  0
 24 60  1  0
 25 61  1  0
 25 62  1  0
 26 63  1  0
 26 64  1  0
 28 65  1  0
 28 66  1  0
 29 67  1  0
 29 68  1  0
 30 69  1  0
 30 70  1  0
 31 71  1  0
 31 72  1  0
 33 73  1  0
 34 74  1  0
 36 75  1  0
 36 76  1  0
 36 77  1  0
M  END
$$$$
[H]c1c(C2([H])OC([H])(C([H])([H])[H])C([H])([H])C2([H])[H])nc2c([H])c(OC([H])([H])C([H])([H])C([H])([H])N3C([H])([H])C([H])([H])C([H])([H])C3([H])[H])c(OC([H])([H])[H])c([H])c2c1N([H])C1([H])C([H])([H])C([H])([H])N(C([H])([H])[H])C([H])([H])C1([H])[H]
     RDKit          3D

 77 81  0  0  0  0  0  0  0  0999 V2000
    1.4156   -4.3339   -0.0182 C   0  0  0  0  0  0  0  0  0  0  0  0
    2.1112   -3.1992   -0.4345 O   0  0  0  0  0  0  0  0  0  0  0  0
    1.4894   -1.9651   -0.4353 C   0  0  0  0  0  0  0  0  0  0  0  0
    0.1620   -1.8420   -0.0205 C   0  0  0  0  0  0  0  0  0  0  0  0
   -0.4612   -0.6051   -0.0213 C   0  0  0  0  0  0  0  0  0  0  0  0
   -1.7646   -0.4430    0.3779 C   0  0  0  0  0  0  0  0  0  0  0  0
   -2.5280   -1.5387    0.8384 N   0  0  0  0  0  0  0  0  0  0  0  0
   -3.9554   -1.4181    1.1377 C   0  0  0  0  0  0  0  0  0  0  0  0
   -4.7081   -1.2455   -0.1599 C   0  0  0  0  0  0  0  0  0  0  0  0
   -6.1499   -0.9682    0.2175 C   0  0  0  0  0  0  0  0  0  0  0  0
   -6.7174   -2.1313    0.8733 N   0  0  0  0  0  0  0  0  0  0  0  0
   -7.6533   -2.7281   -0.0899 C   0  0  0  0  0  0  0  0  0  0  0  0
   -5.7658   -3.1411    1.2147 C   0  0  0  0  0  0  0  0  0  0  0  0
   -4.4824   -2.6449    1.8020 C   0  0  0  0  0  0  0  0  0  0  0  0
   -2.2879    0.8450    0.3345 C   0  0  0  0  0  0  0  0  0  0  0  0
   -1.5706    1.9361   -0.0827 C   0  0  0  0  0  0  0  0  0  0  0  0
   -0.3011    1.7262   -0.4630 N   0  0  0  0  0  0  0  0  0  0  0  0
    0.2869    0.4999   -0.4503 C   0  0  0  0  0  0  0  0  0  0  0  0
    1.5931    0.3324   -0.8509 C   0  0  0  0  0  0  0  0  0  0  0  0
    2.2234   -0.8856   -0.8553 C   0  0  0  0  0  0  0  0  0  0  0  0
    3.5613   -1.0243   -1.2710 O   0  0  0  0  0  0  0  0  0  0  0  0
    4.2558    0.1348   -1.6918 C   0  0  0  0  0  0  0  0  0  0  0  0
    5.6503   -0.2939   -2.0793 C   0  0  0  0  0  0  0  0  0  0  0  0
    6.3708   -0.9197   -0.9221 C   0  0  0  0  0  0  0  0  0  0  0  0
    6.5044   -0.0109    0.2022 N   0  0  0  0  0  0  0  0  0  0  0  0
    7.4004    1.0881   -0.0994 C   0  0  0  0  0  0  0  0  0  0  0  0
    8.7622    0.4318    0.0681 C   0  0  0  0  0  0  0  0  0  0  0  0
    8.5541   -0.3274    1.3678 C   0  0  0  0  0  0  0  0  0  0  0  0
    7.1210   -0.7432    1.2828 C   0  0  0  0  0  0  0  0  0  0  0  0
   -2.1239    3.2983   -0.1268 C   0  0  0  0  0  0  0  0  0  0  0  0
   -3.1028    3.4816   -1.2754 C   0  0  0  0  0  0  0  0  0  0  0  0
   -3.9583    4.6099   -0.7617 C   0  0  0  0  0  0  0  0  0  0  0  0
   -3.5164    4.7588    0.6588 C   0  0  0  0  0  0  0  0  0  0  0  0
   -2.7542    6.0351    0.9128 C   0  0  0  0  0  0  0  0  0  0  0  0
   -2.8265    3.6302    1.0254 O   0  0  0  0  0  0  0  0  0  0  0  0
    0.8979   -4.1655    0.9314 H   0  0  0  0  0  0  0  0  0  0  0  0
    2.1795   -5.1410    0.1818 H   0  0  0  0  0  0  0  0  0  0  0  0
    0.7152   -4.7461   -0.7729 H   0  0  0  0  0  0  0  0  0  0  0  0
   -0.3814   -2.7105    0.2995 H   0  0  0  0  0  0  0  0  0  0  0  0
   -2.1489   -2.4925    1.0012 H   0  0  0  0  0  0  0  0  0  0  0  0
   -4.1506   -0.5400    1.7893 H   0  0  0  0  0  0  0  0  0  0  0  0
   -4.6978   -2.2470   -0.6651 H   0  0  0  0  0  0  0  0  0  0  0  0
   -4.3654   -0.4450   -0.8085 H   0  0  0  0  0  0  0  0  0  0  0  0
   -6.7514   -0.6342   -0.6533 H   0  0  0  0  0  0  0  0  0  0  0  0
   -6.1374   -0.1339    0.9463 H   0  0  0  0  0  0  0  0  0  0  0  0
   -8.6980   -2.5667    0.2268 H   0  0  0  0  0  0  0  0  0  0  0  0
   -7.5001   -3.8282   -0.1719 H   0  0  0  0  0  0  0  0  0  0  0  0
   -7.5019   -2.3185   -1.1100 H   0  0  0  0  0  0  0  0  0  0  0  0
   -5.6263   -3.8224    0.3494 H   0  0  0  0  0  0  0  0  0  0  0  0
   -6.2526   -3.7832    2.0067 H   0  0  0  0  0  0  0  0  0  0  0  0
   -4.5832   -2.4965    2.9068 H   0  0  0  0  0  0  0  0  0  0  0  0
   -3.7291   -3.4794    1.6967 H   0  0  0  0  0  0  0  0  0  0  0  0
   -3.2897    1.0141    0.6484 H   0  0  0  0  0  0  0  0  0  0  0  0
    2.1352    1.2132   -1.1749 H   0  0  0  0  0  0  0  0  0  0  0  0
    3.7423    0.5954   -2.5481 H   0  0  0  0  0  0  0  0  0  0  0  0
    4.2834    0.8832   -0.8775 H   0  0  0  0  0  0  0  0  0  0  0  0
    6.2256    0.5121   -2.5654 H   0  0  0  0  0  0  0  0  0  0  0  0
    5.5381   -1.0946   -2.8564 H   0  0  0  0  0  0  0  0  0  0  0  0
    7.3039   -1.3863   -1.2338 H   0  0  0  0  0  0  0  0  0  0  0  0
    5.7104   -1.7554   -0.5518 H   0  0  0  0  0  0  0  0  0  0  0  0
    7.2433    1.5015   -1.0996 H   0  0  0  0  0  0  0  0  0  0  0  0
    7.2927    1.8456    0.6889 H   0  0  0  0  0  0  0  0  0  0  0  0
    8.9587   -0.2974   -0.7459 H   0  0  0  0  0  0  0  0  0  0  0  0
    9.5662    1.1923    0.1693 H   0  0  0  0  0  0  0  0  0  0  0  0
    8.6976    0.4080    2.2019 H   0  0  0  0  0  0  0  0  0  0  0  0
    9.2662   -1.1708    1.4473 H   0  0  0  0  0  0  0  0  0  0  0  0
    7.0993   -1.8442    1.1156 H   0  0  0  0  0  0  0  0  0  0  0  0
    6.6002   -0.5773    2.2488 H   0  0  0  0  0  0  0  0  0  0  0  0
   -1.3215    4.0488   -0.2707 H   0  0  0  0  0  0  0  0  0  0  0  0
   -2.5559    3.7597   -2.1985 H   0  0  0  0  0  0  0  0  0  0  0  0
   -3.6806    2.5447   -1.4057 H   0  0  0  0  0  0  0  0  0  0  0  0
   -3.7580    5.5317   -1.3733 H   0  0  0  0  0  0  0  0  0  0  0  0
   -5.0224    4.2957   -0.8253 H   0  0  0  0  0  0  0  0  0  0  0  0
   -4.4378    4.8005    1.3029 H   0  0  0  0  0  0  0  0  0  0  0  0
   -1.6676    5.9199    0.8911 H   0  0  0  0  0  0  0  0  0  0  0  0
   -3.0171    6.7595    0.0951 H   0  0  0  0  0  0  0  0  0  0  0  0
   -3.0151    6.4519    1.9179 H   0  0  0  0  0  0  0  0  0  0  0  0
  1  2  1  0
  2  3  1  0
  3  4  2  0
  4  5  1  0
  5  6  2  0
  6  7  1  0
  7  8  1  0
  8  9  1  0
  9 10  1  0
 10 11  1  0
 11 12  1  0
 11 13  1  0
 13 14  1  0
  6 15  1  0
 15 16  2  0
 16 17  1  0
 17 18  2  0
 18 19  1  0
 19 20  2  0
 20 21  1  0
 21 22  1  0
 22 23  1  0
 23 24  1  0
 24 25  1  0
 25 26  1  0
 26 27  1  0
 27 28  1  0
 28 29  1  0
 16 30  1  0
 30 31  1  0
 31 32  1  0
 32 33  1  0
 33 34  1  0
 33 35  1  0
 20  3  1  0
 29 25  1  0
 35 30  1  0
 18  5  1  0
 14  8  1  0
  1 36  1  0
  1 37  1  0
  1 38  1  0
  4 39  1  0
  7 40  1  0
  8 41  1  0
  9 42  1  0
  9 43  1  0
 10 44  1  0
 10 45  1  0
 12 46  1  0
 12 47  1  0
 12 48  1  0
 13 49  1  0
 13 50  1  0
 14 51  1  0
 14 52  1  0
 15 53  1  0
 19 54  1  0
 22 55  1  0
 22 56  1  0
 23 57  1  0
 23 58  1  0
 24 59  1  0
 24 60  1  0
 26 61  1  0
 26 62  1  0
 27 63  1  0
 27 64  1  0
 28 65  1  0
 28 66  1  0
 29 67  1  0
 29 68  1  0
 30 69  1  0
 31 70  1  0
 31 71  1  0
 32 72  1  0
 32 73  1  0
 33 74  1  0
 34 75  1  0
 34 76  1  0
 34 77  1  0
M  END
$$$$
[H]c1c(OC([H])([H])C([H])([H])C([H])([H])N(C([H])([H])[H])C([H])([H])[H])c(OC([H])([H])[H])c([H])c2c(N([H])C3([H])C([H])([H])C([H])([H])N(C([H])([H])[H])C([H])([H])C3([H])[H])nc(N3C([H])([H])C([H])([H])N(C([H])([H])[H])C([H])([H])C([H])([H])C3([H])[H])nc12
     RDKit          3D

 78 81  0  0  0  0  0  0  0  0999 V2000
    3.5227    3.9448   -1.0467 C   0  0  0  0  0  0  0  0  0  0  0  0
    3.7866    2.5820   -0.8408 O   0  0  0  0  0  0  0  0  0  0  0  0
    2.8257    1.6381   -0.5667 C   0  0  0  0  0  0  0  0  0  0  0  0
    1.4813    2.0409   -0.4818 C   0  0  0  0  0  0  0  0  0  0  0  0
    0.4883    1.1282   -0.2094 C   0  0  0  0  0  0  0  0  0  0  0  0
   -0.8310    1.5081   -0.1239 C   0  0  0  0  0  0  0  0  0  0  0  0
   -1.2481    2.8536   -0.2982 N   0  0  0  0  0  0  0  0  0  0  0  0
   -2.6554    3.1872   -0.2086 C   0  0  0  0  0  0  0  0  0  0  0  0
   -2.8247    4.6991   -0.3145 C   0  0  0  0  0  0  0  0  0  0  0  0
   -4.2514    5.0948   -0.2619 C   0  0  0  0  0  0  0  0  0  0  0  0
   -5.2119    4.0848   -0.3953 N   0  0  0  0  0  0  0  0  0  0  0  0
   -6.2930    4.0700    0.5188 C   0  0  0  0  0  0  0  0  0  0  0  0
   -4.9071    2.8976   -1.0724 C   0  0  0  0  0  0  0  0  0  0  0  0
   -3.4627    2.6481   -1.3819 C   0  0  0  0  0  0  0  0  0  0  0  0
   -1.7591    0.5451    0.1494 N   0  0  0  0  0  0  0  0  0  0  0  0
   -1.4390   -0.7385    0.3351 C   0  0  0  0  0  0  0  0  0  0  0  0
   -0.1331   -1.0682    0.2425 N   0  0  0  0  0  0  0  0  0  0  0  0
    0.8563   -0.2025   -0.0210 C   0  0  0  0  0  0  0  0  0  0  0  0
    2.1780   -0.5706   -0.1092 C   0  0  0  0  0  0  0  0  0  0  0  0
    3.1894    0.3240   -0.3807 C   0  0  0  0  0  0  0  0  0  0  0  0
    4.5312   -0.0030   -0.4784 O   0  0  0  0  0  0  0  0  0  0  0  0
    5.0688   -1.2790   -0.3190 C   0  0  0  0  0  0  0  0  0  0  0  0
    6.5814   -1.1537   -0.5152 C   0  0  0  0  0  0  0  0  0  0  0  0
    7.1809   -2.5151   -0.3483 C   0  0  0  0  0  0  0  0  0  0  0  0
    8.6086   -2.5159   -0.5129 N   0  0  0  0  0  0  0  0  0  0  0  0
    9.0605   -3.8978   -0.3252 C   0  0  0  0  0  0  0  0  0  0  0  0
    9.2935   -1.6487    0.4134 C   0  0  0  0  0  0  0  0  0  0  0  0
   -2.4382   -1.7146    0.6190 N   0  0  0  0  0  0  0  0  0  0  0  0
   -1.9549   -3.0413    0.7894 C   0  0  0  0  0  0  0  0  0  0  0  0
   -3.0344   -4.0907    0.7731 C   0  0  0  0  0  0  0  0  0  0  0  0
   -4.1998   -3.7552    1.6391 C   0  0  0  0  0  0  0  0  0  0  0  0
   -5.2402   -3.0757    0.9340 N   0  0  0  0  0  0  0  0  0  0  0  0
   -6.2782   -3.9182    0.4292 C   0  0  0  0  0  0  0  0  0  0  0  0
   -4.7866   -2.0816    0.0070 C   0  0  0  0  0  0  0  0  0  0  0  0
   -3.7744   -1.1905    0.6858 C   0  0  0  0  0  0  0  0  0  0  0  0
    2.9772    4.0299   -2.0264 H   0  0  0  0  0  0  0  0  0  0  0  0
    2.8821    4.3983   -0.2768 H   0  0  0  0  0  0  0  0  0  0  0  0
    4.4597    4.5040   -1.1767 H   0  0  0  0  0  0  0  0  0  0  0  0
    1.2468    3.0824   -0.6358 H   0  0  0  0  0  0  0  0  0  0  0  0
   -0.5739    3.5938   -0.4858 H   0  0  0  0  0  0  0  0  0  0  0  0
   -3.1138    2.8062    0.7215 H   0  0  0  0  0  0  0  0  0  0  0  0
   -2.2590    5.2243    0.4791 H   0  0  0  0  0  0  0  0  0  0  0  0
   -2.3447    4.9981   -1.2792 H   0  0  0  0  0  0  0  0  0  0  0  0
   -4.4202    5.8502   -1.0863 H   0  0  0  0  0  0  0  0  0  0  0  0
   -4.4360    5.6939    0.6730 H   0  0  0  0  0  0  0  0  0  0  0  0
   -6.2108    4.8978    1.2302 H   0  0  0  0  0  0  0  0  0  0  0  0
   -6.2533    3.1292    1.1180 H   0  0  0  0  0  0  0  0  0  0  0  0
   -7.2578    4.0534   -0.0302 H   0  0  0  0  0  0  0  0  0  0  0  0
   -5.2866    1.9761   -0.5418 H   0  0  0  0  0  0  0  0  0  0  0  0
   -5.4614    2.8862   -2.0567 H   0  0  0  0  0  0  0  0  0  0  0  0
   -3.3176    1.5914   -1.5710 H   0  0  0  0  0  0  0  0  0  0  0  0
   -3.1815    3.2938   -2.2508 H   0  0  0  0  0  0  0  0  0  0  0  0
    2.4337   -1.6092    0.0415 H   0  0  0  0  0  0  0  0  0  0  0  0
    4.8287   -1.6859    0.6771 H   0  0  0  0  0  0  0  0  0  0  0  0
    4.7253   -1.9801   -1.1254 H   0  0  0  0  0  0  0  0  0  0  0  0
    6.9336   -0.4563    0.2598 H   0  0  0  0  0  0  0  0  0  0  0  0
    6.7488   -0.7642   -1.5419 H   0  0  0  0  0  0  0  0  0  0  0  0
    6.9520   -2.8719    0.6764 H   0  0  0  0  0  0  0  0  0  0  0  0
    6.7555   -3.2130   -1.0865 H   0  0  0  0  0  0  0  0  0  0  0  0
    8.4108   -4.5141   -0.9721 H   0  0  0  0  0  0  0  0  0  0  0  0
   10.1225   -4.0212   -0.5479 H   0  0  0  0  0  0  0  0  0  0  0  0
    8.9140   -4.1209    0.7445 H   0  0  0  0  0  0  0  0  0  0  0  0
    9.0616   -1.8952    1.4705 H   0  0  0  0  0  0  0  0  0  0  0  0
   10.3863   -1.8094    0.2553 H   0  0  0  0  0  0  0  0  0  0  0  0
    8.9782   -0.6199    0.2211 H   0  0  0  0  0  0  0  0  0  0  0  0
   -1.2108   -3.2481   -0.0051 H   0  0  0  0  0  0  0  0  0  0  0  0
   -1.3861   -3.0841    1.7592 H   0  0  0  0  0  0  0  0  0  0  0  0
   -3.3290   -4.2959   -0.2754 H   0  0  0  0  0  0  0  0  0  0  0  0
   -2.5709   -5.0355    1.1580 H   0  0  0  0  0  0  0  0  0  0  0  0
   -4.6353   -4.7288    2.0107 H   0  0  0  0  0  0  0  0  0  0  0  0
   -3.8602   -3.2278    2.5515 H   0  0  0  0  0  0  0  0  0  0  0  0
   -5.9027   -4.9202    0.1348 H   0  0  0  0  0  0  0  0  0  0  0  0
   -7.0076   -4.1026    1.2674 H   0  0  0  0  0  0  0  0  0  0  0  0
   -6.7874   -3.4111   -0.4004 H   0  0  0  0  0  0  0  0  0  0  0  0
   -5.6468   -1.4605   -0.2796 H   0  0  0  0  0  0  0  0  0  0  0  0
   -4.3514   -2.5009   -0.9218 H   0  0  0  0  0  0  0  0  0  0  0  0
   -4.1173   -1.0171    1.7257 H   0  0  0  0  0  0  0  0  0  0  0  0
   -3.8246   -0.2005    0.1553 H   0  0  0  0  0  0  0  0  0  0  0  0
  1  2  1  0
  2  3  1  0
  3  4  2  0
  4  5  1  0
  5  6  2  0
  6  7  1  0
  7  8  1  0
  8  9  1  0
  9 10  1  0
 10 11  1  0
 11 12  1  0
 11 13  1  0
 13 14  1  0
  6 15  1  0
 15 16  2  0
 16 17  1  0
 17 18  2  0
 18 19  1  0
 19 20  2  0
 20 21  1  0
 21 22  1  0
 22 23  1  0
 23 24  1  0
 24 25  1  0
 25 26  1  0
 25 27  1  0
 16 28  1  0
 28 29  1  0
 29 30  1  0
 30 31  1  0
 31 32  1  0
 32 33  1  0
 32 34  1  0
 34 35  1  0
 20  3  1  0
 35 28  1  0
 18  5  1  0
 14  8  1  0
  1 36  1  0
  1 37  1  0
  1 38  1  0
  4 39  1  0
  7 40  1  0
  8 41  1  0
  9 42  1  0
  9 43  1  0
 10 44  1  0
 10 45  1  0
 12 46  1  0
 12 47  1  0
 12 48  1  0
 13 49  1  0
 13 50  1  0
 14 51  1  0
 14 52  1  0
 19 53  1  0
 22 54  1  0
 22 55  1  0
 23 56  1  0
 23 57  1  0
 24 58  1  0
 24 59  1  0
 26 60  1  0
 26 61  1  0
 26 62  1  0
 27 63  1  0
 27 64  1  0
 27 65  1  0
 29 66  1  0
 29 67  1  0
 30 68  1  0
 30 69  1  0
 31 70  1  0
 31 71  1  0
 33 72  1  0
 33 73  1  0
 33 74  1  0
 34 75  1  0
 34 76  1  0
 35 77  1  0
 35 78  1  0
M  END
$$$$
[H]c1c(C2([H])C([H])([H])C([H])([H])OC([H])([H])C2([H])[H])nc2c([H])c(OC([H])([H])C([H])([H])C([H])([H])N3C([H])([H])C([H])([H])C([H])([H])C3([H])[H])c(OC([H])([H])[H])c([H])c2c1N([H])C1([H])C([H])([H])C([H])([H])N(C([H])([H])[H])C([H])([H])C1([H])[H]
     RDKit          3D

 77 81  0  0  0  0  0  0  0  0999 V2000
    1.2261   -3.7195   -1.0016 C   0  0  0  0  0  0  0  0  0  0  0  0
    1.8233   -2.4625   -0.9643 O   0  0  0  0  0  0  0  0  0  0  0  0
    1.2479   -1.2833   -0.6064 C   0  0  0  0  0  0  0  0  0  0  0  0
   -0.0910   -1.2008   -0.2120 C   0  0  0  0  0  0  0  0  0  0  0  0
   -0.7049   -0.0321    0.1551 C   0  0  0  0  0  0  0  0  0  0  0  0
   -2.0219    0.0311    0.5394 C   0  0  0  0  0  0  0  0  0  0  0  0
   -2.8082   -1.1279    0.5911 N   0  0  0  0  0  0  0  0  0  0  0  0
   -4.2251   -1.1280    0.9182 C   0  0  0  0  0  0  0  0  0  0  0  0
   -4.7076   -2.5817    1.0248 C   0  0  0  0  0  0  0  0  0  0  0  0
   -4.9031   -3.1676   -0.3458 C   0  0  0  0  0  0  0  0  0  0  0  0
   -5.9556   -2.5213   -1.0837 N   0  0  0  0  0  0  0  0  0  0  0  0
   -7.0919   -3.4067   -1.1538 C   0  0  0  0  0  0  0  0  0  0  0  0
   -6.3158   -1.3131   -0.4089 C   0  0  0  0  0  0  0  0  0  0  0  0
   -5.0643   -0.4629   -0.1590 C   0  0  0  0  0  0  0  0  0  0  0  0
   -2.5261    1.2827    0.8879 C   0  0  0  0  0  0  0  0  0  0  0  0
   -1.7815    2.4338    0.8652 C   0  0  0  0  0  0  0  0  0  0  0  0
   -0.5006    2.3132    0.4817 N   0  0  0  0  0  0  0  0  0  0  0  0
    0.0645    1.1419    0.1293 C   0  0  0  0  0  0  0  0  0  0  0  0
    1.3844    1.0559   -0.2603 C   0  0  0  0  0  0  0  0  0  0  0  0
    1.9829   -0.1276   -0.6252 C   0  0  0  0  0  0  0  0  0  0  0  0
    3.3369   -0.1677   -1.0166 O   0  0  0  0  0  0  0  0  0  0  0  0
    4.1428    0.9673   -1.0588 C   0  0  0  0  0  0  0  0  0  0  0  0
    5.5212    0.5382   -1.5193 C   0  0  0  0  0  0  0  0  0  0  0  0
    6.0421   -0.4696   -0.5130 C   0  0  0  0  0  0  0  0  0  0  0  0
    7.3622   -0.9129   -0.9095 N   0  0  0  0  0  0  0  0  0  0  0  0
    8.3486    0.1701   -0.7904 C   0  0  0  0  0  0  0  0  0  0  0  0
    9.6298   -0.6163   -1.0598 C   0  0  0  0  0  0  0  0  0  0  0  0
    9.3473   -1.9042   -0.2981 C   0  0  0  0  0  0  0  0  0  0  0  0
    7.8785   -1.8352    0.1007 C   0  0  0  0  0  0  0  0  0  0  0  0
   -2.2854    3.7585    1.2282 C   0  0  0  0  0  0  0  0  0  0  0  0
   -3.3452    4.1326    0.1838 C   0  0  0  0  0  0  0  0  0  0  0  0
   -4.0090    5.3980    0.6651 C   0  0  0  0  0  0  0  0  0  0  0  0
   -4.7287    5.2036    1.8180 O   0  0  0  0  0  0  0  0  0  0  0  0
   -4.4334    4.0221    2.4675 C   0  0  0  0  0  0  0  0  0  0  0  0
   -2.9188    3.8578    2.5675 C   0  0  0  0  0  0  0  0  0  0  0  0
    0.4310   -3.8666   -0.2484 H   0  0  0  0  0  0  0  0  0  0  0  0
    2.0269   -4.4670   -0.7248 H   0  0  0  0  0  0  0  0  0  0  0  0
    0.8468   -4.0321   -1.9730 H   0  0  0  0  0  0  0  0  0  0  0  0
   -0.6251   -2.1228   -0.2140 H   0  0  0  0  0  0  0  0  0  0  0  0
   -2.3958   -2.0577    0.3942 H   0  0  0  0  0  0  0  0  0  0  0  0
   -4.4689   -0.6459    1.8752 H   0  0  0  0  0  0  0  0  0  0  0  0
   -5.5411   -2.7103    1.7115 H   0  0  0  0  0  0  0  0  0  0  0  0
   -3.8288   -3.1349    1.4716 H   0  0  0  0  0  0  0  0  0  0  0  0
   -5.0271   -4.2557   -0.2503 H   0  0  0  0  0  0  0  0  0  0  0  0
   -3.9317   -3.0074   -0.8952 H   0  0  0  0  0  0  0  0  0  0  0  0
   -7.9946   -2.8760   -0.7840 H   0  0  0  0  0  0  0  0  0  0  0  0
   -6.8840   -4.3291   -0.5996 H   0  0  0  0  0  0  0  0  0  0  0  0
   -7.2588   -3.7187   -2.2175 H   0  0  0  0  0  0  0  0  0  0  0  0
   -6.7711   -1.5316    0.5942 H   0  0  0  0  0  0  0  0  0  0  0  0
   -7.0739   -0.7020   -0.9404 H   0  0  0  0  0  0  0  0  0  0  0  0
   -4.5181   -0.3464   -1.0999 H   0  0  0  0  0  0  0  0  0  0  0  0
   -5.4595    0.5288    0.1389 H   0  0  0  0  0  0  0  0  0  0  0  0
   -3.5369    1.3697    1.1954 H   0  0  0  0  0  0  0  0  0  0  0  0
    1.9764    1.9654   -0.2792 H   0  0  0  0  0  0  0  0  0  0  0  0
    3.7161    1.7636   -1.6858 H   0  0  0  0  0  0  0  0  0  0  0  0
    4.2183    1.3727   -0.0153 H   0  0  0  0  0  0  0  0  0  0  0  0
    6.2103    1.3734   -1.6740 H   0  0  0  0  0  0  0  0  0  0  0  0
    5.4174    0.0087   -2.4985 H   0  0  0  0  0  0  0  0  0  0  0  0
    5.3947   -1.3652   -0.5171 H   0  0  0  0  0  0  0  0  0  0  0  0
    6.0309   -0.0583    0.5152 H   0  0  0  0  0  0  0  0  0  0  0  0
    8.2134    0.9205   -1.5901 H   0  0  0  0  0  0  0  0  0  0  0  0
    8.3018    0.5676    0.2261 H   0  0  0  0  0  0  0  0  0  0  0  0
   10.5279   -0.0941   -0.6936 H   0  0  0  0  0  0  0  0  0  0  0  0
    9.6485   -0.7930   -2.1668 H   0  0  0  0  0  0  0  0  0  0  0  0
    9.4453   -2.7640   -0.9817 H   0  0  0  0  0  0  0  0  0  0  0  0
   10.0042   -1.9499    0.5815 H   0  0  0  0  0  0  0  0  0  0  0  0
    7.8014   -1.2996    1.0681 H   0  0  0  0  0  0  0  0  0  0  0  0
    7.3856   -2.8045    0.0911 H   0  0  0  0  0  0  0  0  0  0  0  0
   -1.4898    4.5203    1.1106 H   0  0  0  0  0  0  0  0  0  0  0  0
   -2.8730    4.3690   -0.7967 H   0  0  0  0  0  0  0  0  0  0  0  0
   -4.0412    3.2838    0.0826 H   0  0  0  0  0  0  0  0  0  0  0  0
   -3.2142    6.1643    0.7732 H   0  0  0  0  0  0  0  0  0  0  0  0
   -4.6668    5.7532   -0.1509 H   0  0  0  0  0  0  0  0  0  0  0  0
   -4.7698    4.1533    3.5371 H   0  0  0  0  0  0  0  0  0  0  0  0
   -4.9234    3.1506    2.0350 H   0  0  0  0  0  0  0  0  0  0  0  0
   -2.6708    3.0222    3.2524 H   0  0  0  0  0  0  0  0  0  0  0  0
   -2.5527    4.7804    3.0656 H   0  0  0  0  0  0  0  0  0  0  0  0
  1  2  1  0
  2  3  1  0
  3  4  2  0
  4  5  1  0
  5  6  2  0
  6  7  1  0
  7  8  1  0
  8  9  1  0
  9 10  1  0
 10 11  1  0
 11 12  1  0
 11 13  1  0
 13 14  1  0
  6 15  1  0
 15 16  2  0
 16 17  1  0
 17 18  2  0
 18 19  1  0
 19 20  2  0
 20 21  1  0
 21 22  1  0
 22 23  1  0
 23 24  1  0
 24 25  1  0
 25 26  1  0
 26 27  1  0
 27 28  1  0
 28 29  1  0
 16 30  1  0
 30 31  1  0
 31 32  1  0
 32 33  1  0
 33 34  1  0
 34 35  1  0
 20  3  1  0
 29 25  1  0
 35 30  1  0
 18  5  1  0
 14  8  1  0
  1 36  1  0
  1 37  1  0
  1 38  1  0
  4 39  1  0
  7 40  1  0
  8 41  1  0
  9 42  1  0
  9 43  1  0
 10 44  1  0
 10 45  1  0
 12 46  1  0
 12 47  1  0
 12 48  1  0
 13 49  1  0
 13 50  1  0
 14 51  1  0
 14 52  1  0
 15 53  1  0
 19 54  1  0
 22 55  1  0
 22 56  1  0
 23 57  1  0
 23 58  1  0
 24 59  1  0
 24 60  1  0
 26 61  1  0
 26 62  1  0
 27 63  1  0
 27 64  1  0
 28 65  1  0
 28 66  1  0
 29 67  1  0
 29 68  1  0
 30 69  1  0
 31 70  1  0
 31 71  1  0
 32 72  1  0
 32 73  1  0
 34 74  1  0
 34 75  1  0
 35 76  1  0
 35 77  1  0
M  END
$$$$
[H]c1c(OC([H])([H])C([H])([H])C([H])([H])N2C([H])([H])C([H])([H])C([H])([H])C([H])([H])C2([H])[H])c(OC([H])([H])[H])c([H])c2c(N([H])C3([H])C([H])([H])C([H])([H])N(C([H])([H])C4([H])C([H])([H])C([H])([H])C([H])([H])C([H])([H])C4([H])[H])C([H])([H])C3([H])[H])nc(N3C([H])([H])C([H])([H])N(C([H])(C([H])([H])[H])C([H])([H])[H])C([H])([H])C([H])([H])C3([H])[H])nc12
     RDKit          3D

107112  0  0  0  0  0  0  0  0999 V2000
   -1.7174    4.6445   -1.3770 C   0  0  0  0  0  0  0  0  0  0  0  0
   -2.6904    3.6448   -1.5936 O   0  0  0  0  0  0  0  0  0  0  0  0
   -2.3532    2.3105   -1.4195 C   0  0  0  0  0  0  0  0  0  0  0  0
   -1.0883    1.9487   -1.0398 C   0  0  0  0  0  0  0  0  0  0  0  0
   -0.7317    0.6328   -0.8621 C   0  0  0  0  0  0  0  0  0  0  0  0
    0.5181    0.2067   -0.4878 C   0  0  0  0  0  0  0  0  0  0  0  0
    1.5409    1.1491   -0.2330 N   0  0  0  0  0  0  0  0  0  0  0  0
    2.8854    0.8839    0.1499 C   0  0  0  0  0  0  0  0  0  0  0  0
    3.0669    0.0696    1.4161 C   0  0  0  0  0  0  0  0  0  0  0  0
    4.5399    0.0816    1.8112 C   0  0  0  0  0  0  0  0  0  0  0  0
    5.2049    1.0002    0.8379 N   0  0  0  0  0  0  0  0  0  0  0  0
    6.4559    1.3895    1.3705 C   0  0  0  0  0  0  0  0  0  0  0  0
    7.1230    2.6038    0.8322 C   0  0  0  0  0  0  0  0  0  0  0  0
    7.4404    2.5392   -0.6030 C   0  0  0  0  0  0  0  0  0  0  0  0
    8.2976    3.7196   -1.0660 C   0  0  0  0  0  0  0  0  0  0  0  0
    9.4230    4.0398   -0.1436 C   0  0  0  0  0  0  0  0  0  0  0  0
    8.9265    4.2007    1.2600 C   0  0  0  0  0  0  0  0  0  0  0  0
    8.3546    2.8507    1.7010 C   0  0  0  0  0  0  0  0  0  0  0  0
    5.1807    0.2494   -0.3804 C   0  0  0  0  0  0  0  0  0  0  0  0
    3.7527    0.3995   -0.9614 C   0  0  0  0  0  0  0  0  0  0  0  0
    0.7642   -1.1093   -0.3486 N   0  0  0  0  0  0  0  0  0  0  0  0
   -0.1587   -2.0616   -0.5569 C   0  0  0  0  0  0  0  0  0  0  0  0
   -1.3804   -1.6359   -0.9220 N   0  0  0  0  0  0  0  0  0  0  0  0
   -1.7105   -0.3446   -1.0835 C   0  0  0  0  0  0  0  0  0  0  0  0
   -2.9765    0.0567   -1.4650 C   0  0  0  0  0  0  0  0  0  0  0  0
   -3.3638    1.3622   -1.6500 C   0  0  0  0  0  0  0  0  0  0  0  0
   -4.6007    1.8029   -2.0202 O   0  0  0  0  0  0  0  0  0  0  0  0
   -5.7875    1.1955   -2.2820 C   0  0  0  0  0  0  0  0  0  0  0  0
   -6.4326    0.4533   -1.1399 C   0  0  0  0  0  0  0  0  0  0  0  0
   -6.6433    1.4910   -0.0312 C   0  0  0  0  0  0  0  0  0  0  0  0
   -7.4831    2.5336   -0.5400 N   0  0  0  0  0  0  0  0  0  0  0  0
   -8.8216    2.0987   -0.7731 C   0  0  0  0  0  0  0  0  0  0  0  0
   -9.8052    3.2224   -1.0075 C   0  0  0  0  0  0  0  0  0  0  0  0
   -9.7235    4.2889    0.0524 C   0  0  0  0  0  0  0  0  0  0  0  0
   -8.7245    3.8371    1.0894 C   0  0  0  0  0  0  0  0  0  0  0  0
   -7.4034    3.6516    0.3749 C   0  0  0  0  0  0  0  0  0  0  0  0
    0.1184   -3.4690   -0.4028 N   0  0  0  0  0  0  0  0  0  0  0  0
   -0.9119   -4.3824   -0.8547 C   0  0  0  0  0  0  0  0  0  0  0  0
   -1.7261   -4.7880    0.3557 C   0  0  0  0  0  0  0  0  0  0  0  0
   -0.7871   -5.4914    1.3167 C   0  0  0  0  0  0  0  0  0  0  0  0
    0.3449   -5.9549    0.5963 N   0  0  0  0  0  0  0  0  0  0  0  0
    1.5203   -5.1514    0.6766 C   0  0  0  0  0  0  0  0  0  0  0  0
    1.3953   -3.7513    0.1882 C   0  0  0  0  0  0  0  0  0  0  0  0
    0.6344   -7.3542    0.7080 C   0  0  0  0  0  0  0  0  0  0  0  0
    0.9623   -7.8038    2.1029 C   0  0  0  0  0  0  0  0  0  0  0  0
   -0.5440   -8.1335    0.1636 C   0  0  0  0  0  0  0  0  0  0  0  0
   -1.3588    4.6404   -0.3241 H   0  0  0  0  0  0  0  0  0  0  0  0
   -2.1928    5.6092   -1.5769 H   0  0  0  0  0  0  0  0  0  0  0  0
   -0.8536    4.4341   -2.0290 H   0  0  0  0  0  0  0  0  0  0  0  0
   -0.3656    2.7513   -0.8830 H   0  0  0  0  0  0  0  0  0  0  0  0
    1.2637    2.1805   -0.3426 H   0  0  0  0  0  0  0  0  0  0  0  0
    3.3353    1.9004    0.4385 H   0  0  0  0  0  0  0  0  0  0  0  0
    2.8418   -0.9812    1.1708 H   0  0  0  0  0  0  0  0  0  0  0  0
    2.4214    0.4013    2.2310 H   0  0  0  0  0  0  0  0  0  0  0  0
    4.6159    0.5873    2.7812 H   0  0  0  0  0  0  0  0  0  0  0  0
    5.0133   -0.8865    1.8516 H   0  0  0  0  0  0  0  0  0  0  0  0
    6.3531    1.4791    2.5065 H   0  0  0  0  0  0  0  0  0  0  0  0
    7.1852    0.5074    1.3015 H   0  0  0  0  0  0  0  0  0  0  0  0
    6.4418    3.4676    1.0907 H   0  0  0  0  0  0  0  0  0  0  0  0
    7.9147    1.5892   -0.8988 H   0  0  0  0  0  0  0  0  0  0  0  0
    6.4990    2.6550   -1.1792 H   0  0  0  0  0  0  0  0  0  0  0  0
    8.7269    3.4195   -2.0443 H   0  0  0  0  0  0  0  0  0  0  0  0
    7.6733    4.6234   -1.2581 H   0  0  0  0  0  0  0  0  0  0  0  0
    9.8290    5.0375   -0.4847 H   0  0  0  0  0  0  0  0  0  0  0  0
   10.2690    3.3343   -0.2268 H   0  0  0  0  0  0  0  0  0  0  0  0
    8.1149    4.9615    1.2617 H   0  0  0  0  0  0  0  0  0  0  0  0
    9.7299    4.5372    1.9414 H   0  0  0  0  0  0  0  0  0  0  0  0
    7.9999    2.9801    2.7379 H   0  0  0  0  0  0  0  0  0  0  0  0
    9.1146    2.0787    1.6015 H   0  0  0  0  0  0  0  0  0  0  0  0
    5.3166   -0.8480   -0.1010 H   0  0  0  0  0  0  0  0  0  0  0  0
    5.9281    0.4347   -1.1275 H   0  0  0  0  0  0  0  0  0  0  0  0
    3.8424    1.0890   -1.8013 H   0  0  0  0  0  0  0  0  0  0  0  0
    3.4311   -0.6147   -1.2400 H   0  0  0  0  0  0  0  0  0  0  0  0
   -3.6993   -0.7267   -1.6366 H   0  0  0  0  0  0  0  0  0  0  0  0
   -5.6073    0.4113   -3.0785 H   0  0  0  0  0  0  0  0  0  0  0  0
   -6.4936    1.9073   -2.7626 H   0  0  0  0  0  0  0  0  0  0  0  0
   -5.8370   -0.3847   -0.8019 H   0  0  0  0  0  0  0  0  0  0  0  0
   -7.4323    0.0690   -1.3944 H   0  0  0  0  0  0  0  0  0  0  0  0
   -7.0227    1.0277    0.8921 H   0  0  0  0  0  0  0  0  0  0  0  0
   -5.6271    1.9406    0.1300 H   0  0  0  0  0  0  0  0  0  0  0  0
   -8.9065    1.4278   -1.6557 H   0  0  0  0  0  0  0  0  0  0  0  0
   -9.1358    1.4973    0.1089 H   0  0  0  0  0  0  0  0  0  0  0  0
   -9.6130    3.6351   -2.0125 H   0  0  0  0  0  0  0  0  0  0  0  0
  -10.8201    2.7267   -1.0109 H   0  0  0  0  0  0  0  0  0  0  0  0
   -9.3353    5.2263   -0.3998 H   0  0  0  0  0  0  0  0  0  0  0  0
  -10.7253    4.4038    0.5113 H   0  0  0  0  0  0  0  0  0  0  0  0
   -8.9932    2.9033    1.5801 H   0  0  0  0  0  0  0  0  0  0  0  0
   -8.5847    4.6626    1.8339 H   0  0  0  0  0  0  0  0  0  0  0  0
   -7.1546    4.6031   -0.1791 H   0  0  0  0  0  0  0  0  0  0  0  0
   -6.6236    3.4811    1.1625 H   0  0  0  0  0  0  0  0  0  0  0  0
   -1.5520   -3.9364   -1.6608 H   0  0  0  0  0  0  0  0  0  0  0  0
   -0.3916   -5.2588   -1.3063 H   0  0  0  0  0  0  0  0  0  0  0  0
   -2.5591   -5.4776    0.0741 H   0  0  0  0  0  0  0  0  0  0  0  0
   -2.1653   -3.8596    0.7882 H   0  0  0  0  0  0  0  0  0  0  0  0
   -1.3803   -6.2834    1.8210 H   0  0  0  0  0  0  0  0  0  0  0  0
   -0.5384   -4.7697    2.1283 H   0  0  0  0  0  0  0  0  0  0  0  0
    1.8487   -5.0973    1.7565 H   0  0  0  0  0  0  0  0  0  0  0  0
    2.3551   -5.6867    0.1487 H   0  0  0  0  0  0  0  0  0  0  0  0
    2.1573   -3.5923   -0.6208 H   0  0  0  0  0  0  0  0  0  0  0  0
    1.6458   -3.0039    0.9833 H   0  0  0  0  0  0  0  0  0  0  0  0
    1.5265   -7.5847    0.0545 H   0  0  0  0  0  0  0  0  0  0  0  0
    1.2408   -6.9207    2.7370 H   0  0  0  0  0  0  0  0  0  0  0  0
    1.8430   -8.4600    2.0954 H   0  0  0  0  0  0  0  0  0  0  0  0
    0.1108   -8.3312    2.5953 H   0  0  0  0  0  0  0  0  0  0  0  0
   -1.4525   -8.0074    0.7481 H   0  0  0  0  0  0  0  0  0  0  0  0
   -0.3313   -9.2240    0.1122 H   0  0  0  0  0  0  0  0  0  0  0  0
   -0.7211   -7.8127   -0.8975 H   0  0  0  0  0  0  0  0  0  0  0  0
  1  2  1  0
  2  3  1  0
  3  4  2  0
  4  5  1  0
  5  6  2  0
  6  7  1  0
  7  8  1  0
  8  9  1  0
  9 10  1  0
 10 11  1  0
 11 12  1  0
 12 13  1  0
 13 14  1  0
 14 15  1  0
 15 16  1  0
 16 17  1  0
 17 18  1  0
 11 19  1  0
 19 20  1  0
  6 21  1  0
 21 22  2  0
 22 23  1  0
 23 24  2  0
 24 25  1  0
 25 26  2  0
 26 27  1  0
 27 28  1  0
 28 29  1  0
 29 30  1  0
 30 31  1  0
 31 32  1  0
 32 33  1  0
 33 34  1  0
 34 35  1  0
 35 36  1  0
 22 37  1  0
 37 38  1  0
 38 39  1  0
 39 40  1  0
 40 41  1  0
 41 42  1  0
 42 43  1  0
 41 44  1  0
 44 45  1  0
 44 46  1  0
 26  3  1  0
 36 31  1  0
 43 37  1  0
 24  5  1  0
 20  8  1  0
 18 13  1  0
  1 47  1  0
  1 48  1  0
  1 49  1  0
  4 50  1  0
  7 51  1  0
  8 52  1  0
  9 53  1  0
  9 54  1  0
 10 55  1  0
 10 56  1  0
 12 57  1  0
 12 58  1  0
 13 59  1  0
 14 60  1  0
 14 61  1  0
 15 62  1  0
 15 63  1  0
 16 64  1  0
 16 65  1  0
 17 66  1  0
 17 67  1  0
 18 68  1  0
 18 69  1  0
 19 70  1  0
 19 71  1  0
 20 72  1  0
 20 73  1  0
 25 74  1  0
 28 75  1  0
 28 76  1  0
 29 77  1  0
 29 78  1  0
 30 79  1  0
 30 80  1  0
 32 81  1  0
 32 82  1  0
 33 83  1  0
 33 84  1  0
 34 85  1  0
 34 86  1  0
 35 87  1  0
 35 88  1  0
 36 89  1  0
 36 90  1  0
 38 91  1  0
 38 92  1  0
 39 93  1  0
 39 94  1  0
 40 95  1  0
 40 96  1  0
 42 97  1  0
 42 98  1  0
 43 99  1  0
 43100  1  0
 44101  1  0
 45102  1  0
 45103  1  0
 45104  1  0
 46105  1  0
 46106  1  0
 46107  1  0
M  END
$$$$
[H]c1c(-c2nc3c([H])c(OC([H])([H])C([H])([H])C([H])([H])N4C([H])([H])C([H])([H])C([H])([H])C4([H])[H])c(OC([H])([H])[H])c([H])c3c(N([H])C3([H])C([H])([H])C([H])([H])N(C([H])([H])[H])C([H])([H])C3([H])[H])c2[H])oc(C([H])([H])C([H])([H])[H])c1[H]
     RDKit          3D

 76 80  0  0  0  0  0  0  0  0999 V2000
   -5.6231    6.2784   -0.8842 C   0  0  0  0  0  0  0  0  0  0  0  0
   -5.4297    5.3297   -2.0592 C   0  0  0  0  0  0  0  0  0  0  0  0
   -4.1108    4.6115   -1.9237 C   0  0  0  0  0  0  0  0  0  0  0  0
   -2.9035    5.0455   -2.4302 C   0  0  0  0  0  0  0  0  0  0  0  0
   -1.9665    4.1185   -2.0935 C   0  0  0  0  0  0  0  0  0  0  0  0
   -2.6183    3.1386   -1.3895 C   0  0  0  0  0  0  0  0  0  0  0  0
   -3.8740    3.4824   -1.3217 O   0  0  0  0  0  0  0  0  0  0  0  0
   -2.0024    1.9330   -0.8238 C   0  0  0  0  0  0  0  0  0  0  0  0
   -2.7626    1.0100   -0.1315 C   0  0  0  0  0  0  0  0  0  0  0  0
   -2.2245   -0.1357    0.4171 C   0  0  0  0  0  0  0  0  0  0  0  0
   -2.9849   -1.0825    1.1438 N   0  0  0  0  0  0  0  0  0  0  0  0
   -4.4306   -1.0149    1.2711 C   0  0  0  0  0  0  0  0  0  0  0  0
   -4.8879   -2.0508    2.2852 C   0  0  0  0  0  0  0  0  0  0  0  0
   -5.3480   -3.3258    1.6633 C   0  0  0  0  0  0  0  0  0  0  0  0
   -4.6689   -3.6937    0.4553 N   0  0  0  0  0  0  0  0  0  0  0  0
   -5.3897   -4.8360   -0.1207 C   0  0  0  0  0  0  0  0  0  0  0  0
   -4.6379   -2.6774   -0.5497 C   0  0  0  0  0  0  0  0  0  0  0  0
   -5.1354   -1.3417   -0.0335 C   0  0  0  0  0  0  0  0  0  0  0  0
   -0.8658   -0.3162    0.2373 C   0  0  0  0  0  0  0  0  0  0  0  0
   -0.1735   -1.4060    0.7215 C   0  0  0  0  0  0  0  0  0  0  0  0
    1.1924   -1.5872    0.5398 C   0  0  0  0  0  0  0  0  0  0  0  0
    1.8510   -2.7092    1.0495 O   0  0  0  0  0  0  0  0  0  0  0  0
    1.0696   -3.6509    1.7576 C   0  0  0  0  0  0  0  0  0  0  0  0
    1.9035   -0.6403   -0.1560 C   0  0  0  0  0  0  0  0  0  0  0  0
    3.2704   -0.8380   -0.3284 O   0  0  0  0  0  0  0  0  0  0  0  0
    3.9925    0.1323   -1.0425 C   0  0  0  0  0  0  0  0  0  0  0  0
    5.4550   -0.1929   -1.1584 C   0  0  0  0  0  0  0  0  0  0  0  0
    6.1179   -0.3039    0.1989 C   0  0  0  0  0  0  0  0  0  0  0  0
    7.5282   -0.6183    0.0770 N   0  0  0  0  0  0  0  0  0  0  0  0
    8.2128    0.5180   -0.5035 C   0  0  0  0  0  0  0  0  0  0  0  0
    9.5924    0.5393    0.1163 C   0  0  0  0  0  0  0  0  0  0  0  0
    9.2917    0.0827    1.5276 C   0  0  0  0  0  0  0  0  0  0  0  0
    8.0564   -0.7708    1.4172 C   0  0  0  0  0  0  0  0  0  0  0  0
    1.2584    0.4677   -0.6605 C   0  0  0  0  0  0  0  0  0  0  0  0
   -0.0792    0.6030   -0.4583 C   0  0  0  0  0  0  0  0  0  0  0  0
   -0.6962    1.6835   -0.9533 N   0  0  0  0  0  0  0  0  0  0  0  0
   -5.9222    7.2698   -1.2665 H   0  0  0  0  0  0  0  0  0  0  0  0
   -6.4223    5.8109   -0.2585 H   0  0  0  0  0  0  0  0  0  0  0  0
   -4.6665    6.3760   -0.3438 H   0  0  0  0  0  0  0  0  0  0  0  0
   -6.2485    4.5915   -2.1487 H   0  0  0  0  0  0  0  0  0  0  0  0
   -5.3912    5.9185   -2.9795 H   0  0  0  0  0  0  0  0  0  0  0  0
   -2.7286    5.9565   -2.9941 H   0  0  0  0  0  0  0  0  0  0  0  0
   -0.8948    4.0912   -2.3055 H   0  0  0  0  0  0  0  0  0  0  0  0
   -3.8208    1.2201   -0.0161 H   0  0  0  0  0  0  0  0  0  0  0  0
   -2.5343   -1.8826    1.6296 H   0  0  0  0  0  0  0  0  0  0  0  0
   -4.7050    0.0096    1.5553 H   0  0  0  0  0  0  0  0  0  0  0  0
   -4.0842   -2.2561    3.0347 H   0  0  0  0  0  0  0  0  0  0  0  0
   -5.7335   -1.6142    2.8591 H   0  0  0  0  0  0  0  0  0  0  0  0
   -5.1364   -4.1477    2.4069 H   0  0  0  0  0  0  0  0  0  0  0  0
   -6.4368   -3.3828    1.4770 H   0  0  0  0  0  0  0  0  0  0  0  0
   -6.4092   -4.4973   -0.3879 H   0  0  0  0  0  0  0  0  0  0  0  0
   -5.4931   -5.5797    0.6922 H   0  0  0  0  0  0  0  0  0  0  0  0
   -4.8257   -5.2146   -0.9965 H   0  0  0  0  0  0  0  0  0  0  0  0
   -5.2714   -2.9252   -1.4484 H   0  0  0  0  0  0  0  0  0  0  0  0
   -3.6005   -2.6052   -0.9317 H   0  0  0  0  0  0  0  0  0  0  0  0
   -6.1983   -1.4656    0.1935 H   0  0  0  0  0  0  0  0  0  0  0  0
   -4.9851   -0.6216   -0.8243 H   0  0  0  0  0  0  0  0  0  0  0  0
   -0.6825   -2.1670    1.2661 H   0  0  0  0  0  0  0  0  0  0  0  0
    1.7268   -4.4560    2.0995 H   0  0  0  0  0  0  0  0  0  0  0  0
    0.6066   -3.1923    2.6596 H   0  0  0  0  0  0  0  0  0  0  0  0
    0.2326   -4.0493    1.1301 H   0  0  0  0  0  0  0  0  0  0  0  0
    3.8248    1.1676   -0.6884 H   0  0  0  0  0  0  0  0  0  0  0  0
    3.5865    0.1014   -2.0966 H   0  0  0  0  0  0  0  0  0  0  0  0
    5.9149    0.6348   -1.7538 H   0  0  0  0  0  0  0  0  0  0  0  0
    5.5839   -1.1238   -1.7114 H   0  0  0  0  0  0  0  0  0  0  0  0
    6.0484    0.6430    0.7708 H   0  0  0  0  0  0  0  0  0  0  0  0
    5.6415   -1.1580    0.7337 H   0  0  0  0  0  0  0  0  0  0  0  0
    8.3051    0.4816   -1.5904 H   0  0  0  0  0  0  0  0  0  0  0  0
    7.7119    1.4413   -0.2081 H   0  0  0  0  0  0  0  0  0  0  0  0
   10.0311    1.5511    0.1765 H   0  0  0  0  0  0  0  0  0  0  0  0
   10.2881   -0.1639   -0.3470 H   0  0  0  0  0  0  0  0  0  0  0  0
    9.1184    0.9763    2.1714 H   0  0  0  0  0  0  0  0  0  0  0  0
   10.1518   -0.4728    1.9161 H   0  0  0  0  0  0  0  0  0  0  0  0
    7.3314   -0.4058    2.1878 H   0  0  0  0  0  0  0  0  0  0  0  0
    8.2620   -1.8282    1.6807 H   0  0  0  0  0  0  0  0  0  0  0  0
    1.8464    1.1864   -1.1995 H   0  0  0  0  0  0  0  0  0  0  0  0
  1  2  1  0
  2  3  1  0
  3  4  2  0
  4  5  1  0
  5  6  2  0
  6  7  1  0
  6  8  1  0
  8  9  2  0
  9 10  1  0
 10 11  1  0
 11 12  1  0
 12 13  1  0
 13 14  1  0
 14 15  1  0
 15 16  1  0
 15 17  1  0
 17 18  1  0
 10 19  2  0
 19 20  1  0
 20 21  2  0
 21 22  1  0
 22 23  1  0
 21 24  1  0
 24 25  1  0
 25 26  1  0
 26 27  1  0
 27 28  1  0
 28 29  1  0
 29 30  1  0
 30 31  1  0
 31 32  1  0
 32 33  1  0
 24 34  2  0
 34 35  1  0
 35 36  2  0
  7  3  1  0
 36  8  1  0
 18 12  1  0
 35 19  1  0
 33 29  1  0
  1 37  1  0
  1 38  1  0
  1 39  1  0
  2 40  1  0
  2 41  1  0
  4 42  1  0
  5 43  1  0
  9 44  1  0
 11 45  1  0
 12 46  1  0
 13 47  1  0
 13 48  1  0
 14 49  1  0
 14 50  1  0
 16 51  1  0
 16 52  1  0
 16 53  1  0
 17 54  1  0
 17 55  1  0
 18 56  1  0
 18 57  1  0
 20 58  1  0
 23 59  1  0
 23 60  1  0
 23 61  1  0
 26 62  1  0
 26 63  1  0
 27 64  1  0
 27 65  1  0
 28 66  1  0
 28 67  1  0
 30 68  1  0
 30 69  1  0
 31 70  1  0
 31 71  1  0
 32 72  1  0
 32 73  1  0
 33 74  1  0
 33 75  1  0
 34 76  1  0
M  END
$$$$
[H]c1c([H])c([H])c(C([H])([H])[H])c(-c2nc3c([H])c(OC([H])([H])C([H])([H])C([H])([H])N4C([H])([H])C([H])([H])C([H])([H])C4([H])[H])c(OC([H])([H])[H])c([H])c3c(N([H])C3([H])C([H])([H])C([H])([H])N(C([H])([H])[H])C([H])([H])C3([H])[H])c2[H])c1[H]
     RDKit          3D

 76 80  0  0  0  0  0  0  0  0999 V2000
    1.5168   -2.8683    2.0816 C   0  0  0  0  0  0  0  0  0  0  0  0
    2.0319   -1.9513    1.1654 O   0  0  0  0  0  0  0  0  0  0  0  0
    1.2651   -0.9574    0.6024 C   0  0  0  0  0  0  0  0  0  0  0  0
   -0.0801   -0.8858    0.9799 C   0  0  0  0  0  0  0  0  0  0  0  0
   -0.9070    0.0838    0.4572 C   0  0  0  0  0  0  0  0  0  0  0  0
   -2.2366    0.2083    0.7840 C   0  0  0  0  0  0  0  0  0  0  0  0
   -2.8136   -0.6650    1.7238 N   0  0  0  0  0  0  0  0  0  0  0  0
   -4.2507   -0.6667    1.9544 C   0  0  0  0  0  0  0  0  0  0  0  0
   -4.9676   -1.2692    0.7959 C   0  0  0  0  0  0  0  0  0  0  0  0
   -6.3042   -1.8116    1.2701 C   0  0  0  0  0  0  0  0  0  0  0  0
   -6.1347   -2.9693    2.1022 N   0  0  0  0  0  0  0  0  0  0  0  0
   -6.1353   -4.1734    1.2969 C   0  0  0  0  0  0  0  0  0  0  0  0
   -4.8930   -2.9277    2.8476 C   0  0  0  0  0  0  0  0  0  0  0  0
   -4.6115   -1.4742    3.1864 C   0  0  0  0  0  0  0  0  0  0  0  0
   -2.9847    1.2279    0.1931 C   0  0  0  0  0  0  0  0  0  0  0  0
   -2.4245    2.1079   -0.7071 C   0  0  0  0  0  0  0  0  0  0  0  0
   -1.1264    1.9150   -0.9682 N   0  0  0  0  0  0  0  0  0  0  0  0
   -0.3409    0.9806   -0.4579 C   0  0  0  0  0  0  0  0  0  0  0  0
    0.9955    0.9030   -0.8280 C   0  0  0  0  0  0  0  0  0  0  0  0
    1.8053   -0.0607   -0.3043 C   0  0  0  0  0  0  0  0  0  0  0  0
    3.1458   -0.2056   -0.6209 O   0  0  0  0  0  0  0  0  0  0  0  0
    3.8395    0.6222   -1.5222 C   0  0  0  0  0  0  0  0  0  0  0  0
    5.2799    0.0927   -1.5600 C   0  0  0  0  0  0  0  0  0  0  0  0
    5.8087    0.1990   -0.1526 C   0  0  0  0  0  0  0  0  0  0  0  0
    7.1448   -0.2499    0.0103 N   0  0  0  0  0  0  0  0  0  0  0  0
    8.1503    0.5393   -0.6126 C   0  0  0  0  0  0  0  0  0  0  0  0
    9.3186   -0.3776   -0.8883 C   0  0  0  0  0  0  0  0  0  0  0  0
    8.8159   -1.7860   -0.6948 C   0  0  0  0  0  0  0  0  0  0  0  0
    7.3674   -1.6289   -0.2853 C   0  0  0  0  0  0  0  0  0  0  0  0
   -3.2080    3.1684   -1.3283 C   0  0  0  0  0  0  0  0  0  0  0  0
   -4.5384    3.3550   -1.0126 C   0  0  0  0  0  0  0  0  0  0  0  0
   -5.3390    4.3500   -1.5775 C   0  0  0  0  0  0  0  0  0  0  0  0
   -4.8089    5.2104   -2.5022 C   0  0  0  0  0  0  0  0  0  0  0  0
   -3.4902    5.0402   -2.8276 C   0  0  0  0  0  0  0  0  0  0  0  0
   -2.6802    4.0394   -2.2614 C   0  0  0  0  0  0  0  0  0  0  0  0
   -1.2549    3.9361   -2.6846 C   0  0  0  0  0  0  0  0  0  0  0  0
    2.2350   -3.7045    2.2487 H   0  0  0  0  0  0  0  0  0  0  0  0
    0.5831   -3.3532    1.7140 H   0  0  0  0  0  0  0  0  0  0  0  0
    1.3062   -2.3459    3.0342 H   0  0  0  0  0  0  0  0  0  0  0  0
   -0.4790   -1.6018    1.6890 H   0  0  0  0  0  0  0  0  0  0  0  0
   -2.2636   -1.3490    2.3088 H   0  0  0  0  0  0  0  0  0  0  0  0
   -4.6044    0.3657    2.1591 H   0  0  0  0  0  0  0  0  0  0  0  0
   -4.3532   -2.1153    0.3841 H   0  0  0  0  0  0  0  0  0  0  0  0
   -5.1614   -0.6018   -0.0475 H   0  0  0  0  0  0  0  0  0  0  0  0
   -6.8403   -1.0263    1.8152 H   0  0  0  0  0  0  0  0  0  0  0  0
   -6.9133   -2.0569    0.3682 H   0  0  0  0  0  0  0  0  0  0  0  0
   -5.5750   -4.9526    1.8574 H   0  0  0  0  0  0  0  0  0  0  0  0
   -7.2060   -4.4509    1.1403 H   0  0  0  0  0  0  0  0  0  0  0  0
   -5.6177   -4.0146    0.3348 H   0  0  0  0  0  0  0  0  0  0  0  0
   -5.0596   -3.4570    3.7989 H   0  0  0  0  0  0  0  0  0  0  0  0
   -4.0820   -3.4040    2.2810 H   0  0  0  0  0  0  0  0  0  0  0  0
   -3.8155   -1.4536    3.9576 H   0  0  0  0  0  0  0  0  0  0  0  0
   -5.5370   -1.0639    3.6289 H   0  0  0  0  0  0  0  0  0  0  0  0
   -4.0162    1.3093    0.4824 H   0  0  0  0  0  0  0  0  0  0  0  0
    1.4177    1.6041   -1.5358 H   0  0  0  0  0  0  0  0  0  0  0  0
    3.4336    0.6143   -2.5372 H   0  0  0  0  0  0  0  0  0  0  0  0
    3.8979    1.6667   -1.1338 H   0  0  0  0  0  0  0  0  0  0  0  0
    5.2088   -0.9447   -1.8953 H   0  0  0  0  0  0  0  0  0  0  0  0
    5.8115    0.7546   -2.2729 H   0  0  0  0  0  0  0  0  0  0  0  0
    5.1512   -0.4407    0.4830 H   0  0  0  0  0  0  0  0  0  0  0  0
    5.7089    1.2270    0.1956 H   0  0  0  0  0  0  0  0  0  0  0  0
    8.4741    1.3209    0.1204 H   0  0  0  0  0  0  0  0  0  0  0  0
    7.8312    1.0840   -1.5121 H   0  0  0  0  0  0  0  0  0  0  0  0
    9.7282   -0.2469   -1.9105 H   0  0  0  0  0  0  0  0  0  0  0  0
   10.1507   -0.1840   -0.1622 H   0  0  0  0  0  0  0  0  0  0  0  0
    8.9093   -2.3542   -1.6491 H   0  0  0  0  0  0  0  0  0  0  0  0
    9.3951   -2.2904    0.1282 H   0  0  0  0  0  0  0  0  0  0  0  0
    6.7461   -2.0239   -1.1113 H   0  0  0  0  0  0  0  0  0  0  0  0
    7.2009   -2.2402    0.6399 H   0  0  0  0  0  0  0  0  0  0  0  0
   -4.9922    2.6968   -0.2857 H   0  0  0  0  0  0  0  0  0  0  0  0
   -6.3890    4.4384   -1.2789 H   0  0  0  0  0  0  0  0  0  0  0  0
   -5.4276    5.9823   -2.9410 H   0  0  0  0  0  0  0  0  0  0  0  0
   -3.0724    5.7213   -3.5576 H   0  0  0  0  0  0  0  0  0  0  0  0
   -1.0560    2.9772   -3.1988 H   0  0  0  0  0  0  0  0  0  0  0  0
   -1.1304    4.7147   -3.5168 H   0  0  0  0  0  0  0  0  0  0  0  0
   -0.5529    4.1483   -1.8780 H   0  0  0  0  0  0  0  0  0  0  0  0
  1  2  1  0
  2  3  1  0
  3  4  2  0
  4  5  1  0
  5  6  2  0
  6  7  1  0
  7  8  1  0
  8  9  1  0
  9 10  1  0
 10 11  1  0
 11 12  1  0
 11 13  1  0
 13 14  1  0
  6 15  1  0
 15 16  2  0
 16 17  1  0
 17 18  2  0
 18 19  1  0
 19 20  2  0
 20 21  1  0
 21 22  1  0
 22 23  1  0
 23 24  1  0
 24 25  1  0
 25 26  1  0
 26 27  1  0
 27 28  1  0
 28 29  1  0
 16 30  1  0
 30 31  2  0
 31 32  1  0
 32 33  2  0
 33 34  1  0
 34 35  2  0
 35 36  1  0
 20  3  1  0
 29 25  1  0
 35 30  1  0
 18  5  1  0
 14  8  1  0
  1 37  1  0
  1 38  1  0
  1 39  1  0
  4 40  1  0
  7 41  1  0
  8 42  1  0
  9 43  1  0
  9 44  1  0
 10 45  1  0
 10 46  1  0
 12 47  1  0
 12 48  1  0
 12 49  1  0
 13 50  1  0
 13 51  1  0
 14 52  1  0
 14 53  1  0
 15 54  1  0
 19 55  1  0
 22 56  1  0
 22 57  1  0
 23 58  1  0
 23 59  1  0
 24 60  1  0
 24 61  1  0
 26 62  1  0
 26 63  1  0
 27 64  1  0
 27 65  1  0
 28 66  1  0
 28 67  1  0
 29 68  1  0
 29 69  1  0
 31 70  1  0
 32 71  1  0
 33 72  1  0
 34 73  1  0
 36 74  1  0
 36 75  1  0
 36 76  1  0
M  END
$$$$
[H]OC([H])([H])c1oc(-c2nc3c([H])c(OC([H])([H])C([H])([H])C([H])([H])N4C([H])([H])C([H])([H])C([H])([H])C4([H])[H])c(OC([H])([H])[H])c([H])c3c(N([H])C3([H])C([H])([H])C([H])([H])N(C([H])([H])[H])C([H])([H])C3([H])[H])c2[H])c([H])c1[H]
     RDKit          3D

 74 78  0  0  0  0  0  0  0  0999 V2000
    0.6624   -4.3166   -1.2248 C   0  0  0  0  0  0  0  0  0  0  0  0
    1.4336   -3.1847   -0.9317 O   0  0  0  0  0  0  0  0  0  0  0  0
    0.8760   -1.9146   -0.7447 C   0  0  0  0  0  0  0  0  0  0  0  0
   -0.5048   -1.7248   -0.8457 C   0  0  0  0  0  0  0  0  0  0  0  0
   -1.0980   -0.4988   -0.6708 C   0  0  0  0  0  0  0  0  0  0  0  0
   -2.4613   -0.2754   -0.7631 C   0  0  0  0  0  0  0  0  0  0  0  0
   -3.3183   -1.3593   -1.0699 N   0  0  0  0  0  0  0  0  0  0  0  0
   -4.7708   -1.2432   -1.1159 C   0  0  0  0  0  0  0  0  0  0  0  0
   -5.3620   -0.9355    0.2519 C   0  0  0  0  0  0  0  0  0  0  0  0
   -5.9347   -2.1878    0.8334 C   0  0  0  0  0  0  0  0  0  0  0  0
   -7.0807   -2.6387    0.0667 N   0  0  0  0  0  0  0  0  0  0  0  0
   -7.4817   -3.9258    0.5837 C   0  0  0  0  0  0  0  0  0  0  0  0
   -6.7997   -2.7193   -1.3431 C   0  0  0  0  0  0  0  0  0  0  0  0
   -5.3379   -2.5349   -1.5971 C   0  0  0  0  0  0  0  0  0  0  0  0
   -2.9841    0.9953   -0.5722 C   0  0  0  0  0  0  0  0  0  0  0  0
   -2.1302    2.0260   -0.2905 C   0  0  0  0  0  0  0  0  0  0  0  0
   -0.8152    1.7872   -0.2059 N   0  0  0  0  0  0  0  0  0  0  0  0
   -0.2588    0.5778   -0.3819 C   0  0  0  0  0  0  0  0  0  0  0  0
    1.1086    0.3784   -0.2841 C   0  0  0  0  0  0  0  0  0  0  0  0
    1.7019   -0.8508   -0.4597 C   0  0  0  0  0  0  0  0  0  0  0  0
    3.0648   -1.0878   -0.3695 O   0  0  0  0  0  0  0  0  0  0  0  0
    3.9699   -0.0179   -0.0750 C   0  0  0  0  0  0  0  0  0  0  0  0
    5.3837   -0.4934   -0.0262 C   0  0  0  0  0  0  0  0  0  0  0  0
    6.2855    0.6716    0.2868 C   0  0  0  0  0  0  0  0  0  0  0  0
    7.6548    0.1877    0.3289 N   0  0  0  0  0  0  0  0  0  0  0  0
    7.8454   -0.6868    1.4706 C   0  0  0  0  0  0  0  0  0  0  0  0
    9.3078   -0.5781    1.7823 C   0  0  0  0  0  0  0  0  0  0  0  0
    9.6278    0.8483    1.4792 C   0  0  0  0  0  0  0  0  0  0  0  0
    8.6080    1.2566    0.4656 C   0  0  0  0  0  0  0  0  0  0  0  0
   -2.6623    3.3874   -0.0836 C   0  0  0  0  0  0  0  0  0  0  0  0
   -3.9524    3.8055   -0.1294 C   0  0  0  0  0  0  0  0  0  0  0  0
   -3.9115    5.1728    0.1344 C   0  0  0  0  0  0  0  0  0  0  0  0
   -2.5937    5.5048    0.3255 C   0  0  0  0  0  0  0  0  0  0  0  0
   -2.0486    6.8334    0.6310 C   0  0  0  0  0  0  0  0  0  0  0  0
   -1.7740    7.4822   -0.5618 O   0  0  0  0  0  0  0  0  0  0  0  0
   -1.9164    4.4064    0.1826 O   0  0  0  0  0  0  0  0  0  0  0  0
   -0.2584   -4.4019   -0.6093 H   0  0  0  0  0  0  0  0  0  0  0  0
    0.3526   -4.3467   -2.3072 H   0  0  0  0  0  0  0  0  0  0  0  0
    1.2647   -5.2340   -1.0332 H   0  0  0  0  0  0  0  0  0  0  0  0
   -1.0900   -2.5843   -1.0665 H   0  0  0  0  0  0  0  0  0  0  0  0
   -2.9252   -2.2851   -1.2771 H   0  0  0  0  0  0  0  0  0  0  0  0
   -5.0225   -0.3910   -1.8242 H   0  0  0  0  0  0  0  0  0  0  0  0
   -6.0954   -0.1267    0.1410 H   0  0  0  0  0  0  0  0  0  0  0  0
   -4.5725   -0.5585    0.9345 H   0  0  0  0  0  0  0  0  0  0  0  0
   -5.1453   -2.9747    0.8254 H   0  0  0  0  0  0  0  0  0  0  0  0
   -6.3004   -2.0297    1.8747 H   0  0  0  0  0  0  0  0  0  0  0  0
   -7.7285   -3.8656    1.6628 H   0  0  0  0  0  0  0  0  0  0  0  0
   -8.4024   -4.3053    0.0838 H   0  0  0  0  0  0  0  0  0  0  0  0
   -6.6639   -4.6869    0.4922 H   0  0  0  0  0  0  0  0  0  0  0  0
   -7.4162   -1.9979   -1.9315 H   0  0  0  0  0  0  0  0  0  0  0  0
   -7.0717   -3.7360   -1.6969 H   0  0  0  0  0  0  0  0  0  0  0  0
   -5.1930   -2.6308   -2.6983 H   0  0  0  0  0  0  0  0  0  0  0  0
   -4.7929   -3.3856   -1.1305 H   0  0  0  0  0  0  0  0  0  0  0  0
   -4.0395    1.1444   -0.6552 H   0  0  0  0  0  0  0  0  0  0  0  0
    1.7404    1.2302   -0.0588 H   0  0  0  0  0  0  0  0  0  0  0  0
    3.6804    0.4896    0.8735 H   0  0  0  0  0  0  0  0  0  0  0  0
    3.8623    0.7483   -0.8719 H   0  0  0  0  0  0  0  0  0  0  0  0
    5.6674   -0.8611   -1.0385 H   0  0  0  0  0  0  0  0  0  0  0  0
    5.4992   -1.3260    0.6950 H   0  0  0  0  0  0  0  0  0  0  0  0
    6.0001    1.1783    1.2329 H   0  0  0  0  0  0  0  0  0  0  0  0
    6.2039    1.3913   -0.5556 H   0  0  0  0  0  0  0  0  0  0  0  0
    7.6226   -1.7388    1.2111 H   0  0  0  0  0  0  0  0  0  0  0  0
    7.2719   -0.3100    2.3365 H   0  0  0  0  0  0  0  0  0  0  0  0
    9.5543   -0.8547    2.8268 H   0  0  0  0  0  0  0  0  0  0  0  0
    9.8489   -1.2521    1.0779 H   0  0  0  0  0  0  0  0  0  0  0  0
    9.5849    1.4877    2.4019 H   0  0  0  0  0  0  0  0  0  0  0  0
   10.6608    0.9693    1.0392 H   0  0  0  0  0  0  0  0  0  0  0  0
    9.0874    1.4032   -0.5164 H   0  0  0  0  0  0  0  0  0  0  0  0
    8.0949    2.2027    0.7683 H   0  0  0  0  0  0  0  0  0  0  0  0
   -4.8037    3.1748   -0.3317 H   0  0  0  0  0  0  0  0  0  0  0  0
   -4.7795    5.8148    0.1725 H   0  0  0  0  0  0  0  0  0  0  0  0
   -2.7508    7.3673    1.2718 H   0  0  0  0  0  0  0  0  0  0  0  0
   -1.0938    6.7496    1.1881 H   0  0  0  0  0  0  0  0  0  0  0  0
   -2.1841    8.3843   -0.5201 H   0  0  0  0  0  0  0  0  0  0  0  0
  1  2  1  0
  2  3  1  0
  3  4  2  0
  4  5  1  0
  5  6  2  0
  6  7  1  0
  7  8  1  0
  8  9  1  0
  9 10  1  0
 10 11  1  0
 11 12  1  0
 11 13  1  0
 13 14  1  0
  6 15  1  0
 15 16  2  0
 16 17  1  0
 17 18  2  0
 18 19  1  0
 19 20  2  0
 20 21  1  0
 21 22  1  0
 22 23  1  0
 23 24  1  0
 24 25  1  0
 25 26  1  0
 26 27  1  0
 27 28  1  0
 28 29  1  0
 16 30  1  0
 30 31  2  0
 31 32  1  0
 32 33  2  0
 33 34  1  0
 34 35  1  0
 33 36  1  0
 20  3  1  0
 29 25  1  0
 36 30  1  0
 18  5  1  0
 14  8  1  0
  1 37  1  0
  1 38  1  0
  1 39  1  0
  4 40  1  0
  7 41  1  0
  8 42  1  0
  9 43  1  0
  9 44  1  0
 10 45  1  0
 10 46  1  0
 12 47  1  0
 12 48  1  0
 12 49  1  0
 13 50  1  0
 13 51  1  0
 14 52  1  0
 14 53  1  0
 15 54  1  0
 19 55  1  0
 22 56  1  0
 22 57  1  0
 23 58  1  0
 23 59  1  0
 24 60  1  0
 24 61  1  0
 26 62  1  0
 26 63  1  0
 27 64  1  0
 27 65  1  0
 28 66  1  0
 28 67  1  0
 29 68  1  0
 29 69  1  0
 31 70  1  0
 32 71  1  0
 34 72  1  0
 34 73  1  0
 35 74  1  0
M  END
$$$$
[H]c1c(-c2nc3c([H])c(OC([H])([H])C([H])([H])C([H])([H])N4C([H])([H])C([H])([H])C([H])([H])C4([H])[H])c(OC([H])([H])[H])c([H])c3c(N([H])C([H])([H])C3([H])C4([H])C([H])([H])N(C([H])([H])[H])C([H])([H])C3([H])C([H])([H])C4([H])[H])c2[H])oc(C([H])([H])[H])c1[H]
     RDKit          3D

 80 85  0  0  0  0  0  0  0  0999 V2000
    2.9184   -3.7382   -1.1938 C   0  0  0  0  0  0  0  0  0  0  0  0
    3.3793   -2.4264   -1.2793 O   0  0  0  0  0  0  0  0  0  0  0  0
    2.5583   -1.3130   -1.3489 C   0  0  0  0  0  0  0  0  0  0  0  0
    1.1847   -1.4362   -1.3375 C   0  0  0  0  0  0  0  0  0  0  0  0
    0.3575   -0.3421   -1.4081 C   0  0  0  0  0  0  0  0  0  0  0  0
   -1.0167   -0.5110   -1.3842 C   0  0  0  0  0  0  0  0  0  0  0  0
   -1.6395   -1.7682   -1.3541 N   0  0  0  0  0  0  0  0  0  0  0  0
   -3.0258   -2.0850   -1.1014 C   0  0  0  0  0  0  0  0  0  0  0  0
   -3.2242   -2.4172    0.3194 C   0  0  0  0  0  0  0  0  0  0  0  0
   -4.6057   -2.8553    0.7328 C   0  0  0  0  0  0  0  0  0  0  0  0
   -4.4216   -3.1005    2.2132 C   0  0  0  0  0  0  0  0  0  0  0  0
   -3.2926   -2.2169    2.6261 C   0  0  0  0  0  0  0  0  0  0  0  0
   -2.9767   -1.3675    1.3525 C   0  0  0  0  0  0  0  0  0  0  0  0
   -3.9928   -0.2938    1.3572 C   0  0  0  0  0  0  0  0  0  0  0  0
   -5.2048   -0.4923    0.7029 N   0  0  0  0  0  0  0  0  0  0  0  0
   -5.9357    0.5719    0.1719 C   0  0  0  0  0  0  0  0  0  0  0  0
   -5.6705   -1.8215    0.5531 C   0  0  0  0  0  0  0  0  0  0  0  0
   -1.7386    0.6799   -1.4535 C   0  0  0  0  0  0  0  0  0  0  0  0
   -1.1879    1.9247   -1.5389 C   0  0  0  0  0  0  0  0  0  0  0  0
    0.1690    2.0221   -1.5572 N   0  0  0  0  0  0  0  0  0  0  0  0
    0.9303    0.9200   -1.4928 C   0  0  0  0  0  0  0  0  0  0  0  0
    2.3112    1.0755   -1.5070 C   0  0  0  0  0  0  0  0  0  0  0  0
    3.1169   -0.0260   -1.4352 C   0  0  0  0  0  0  0  0  0  0  0  0
    4.4805    0.0233   -1.4374 O   0  0  0  0  0  0  0  0  0  0  0  0
    5.3838    1.0319   -1.4758 C   0  0  0  0  0  0  0  0  0  0  0  0
    5.5199    1.9989   -0.3933 C   0  0  0  0  0  0  0  0  0  0  0  0
    6.0626    1.5623    0.9004 C   0  0  0  0  0  0  0  0  0  0  0  0
    5.4559    0.5546    1.6253 N   0  0  0  0  0  0  0  0  0  0  0  0
    5.5439   -0.8040    1.3125 C   0  0  0  0  0  0  0  0  0  0  0  0
    6.0611   -1.5183    2.5681 C   0  0  0  0  0  0  0  0  0  0  0  0
    5.7403   -0.5804    3.6948 C   0  0  0  0  0  0  0  0  0  0  0  0
    5.5947    0.7532    3.0403 C   0  0  0  0  0  0  0  0  0  0  0  0
   -1.9631    3.1520   -1.6127 C   0  0  0  0  0  0  0  0  0  0  0  0
   -1.5017    4.4460   -1.7010 C   0  0  0  0  0  0  0  0  0  0  0  0
   -2.6070    5.2541   -1.7445 C   0  0  0  0  0  0  0  0  0  0  0  0
   -3.6934    4.4227   -1.6812 C   0  0  0  0  0  0  0  0  0  0  0  0
   -5.1338    4.8139   -1.6946 C   0  0  0  0  0  0  0  0  0  0  0  0
   -3.2756    3.1895   -1.6040 O   0  0  0  0  0  0  0  0  0  0  0  0
    3.7917   -4.4067   -1.4138 H   0  0  0  0  0  0  0  0  0  0  0  0
    2.1304   -3.9425   -1.9504 H   0  0  0  0  0  0  0  0  0  0  0  0
    2.5312   -4.0096   -0.1705 H   0  0  0  0  0  0  0  0  0  0  0  0
    0.7956   -2.4426   -1.2650 H   0  0  0  0  0  0  0  0  0  0  0  0
   -1.0268   -2.6156   -1.5546 H   0  0  0  0  0  0  0  0  0  0  0  0
   -3.6839   -1.2636   -1.4726 H   0  0  0  0  0  0  0  0  0  0  0  0
   -3.2882   -2.9910   -1.7077 H   0  0  0  0  0  0  0  0  0  0  0  0
   -2.5488   -3.2897    0.6158 H   0  0  0  0  0  0  0  0  0  0  0  0
   -4.8797   -3.8031    0.2093 H   0  0  0  0  0  0  0  0  0  0  0  0
   -4.0800   -4.1631    2.3640 H   0  0  0  0  0  0  0  0  0  0  0  0
   -5.3538   -2.9252    2.7892 H   0  0  0  0  0  0  0  0  0  0  0  0
   -3.6389   -1.5612    3.4454 H   0  0  0  0  0  0  0  0  0  0  0  0
   -2.3876   -2.7256    2.9584 H   0  0  0  0  0  0  0  0  0  0  0  0
   -1.9621   -0.9816    1.4011 H   0  0  0  0  0  0  0  0  0  0  0  0
   -3.5443    0.7050    1.0429 H   0  0  0  0  0  0  0  0  0  0  0  0
   -4.2395   -0.0628    2.4488 H   0  0  0  0  0  0  0  0  0  0  0  0
   -6.4306    0.2370   -0.7824 H   0  0  0  0  0  0  0  0  0  0  0  0
   -6.8129    0.8332    0.8371 H   0  0  0  0  0  0  0  0  0  0  0  0
   -5.3372    1.4614   -0.0562 H   0  0  0  0  0  0  0  0  0  0  0  0
   -6.1407   -1.9409   -0.4401 H   0  0  0  0  0  0  0  0  0  0  0  0
   -6.4561   -2.0161    1.3120 H   0  0  0  0  0  0  0  0  0  0  0  0
   -2.8288    0.5889   -1.4360 H   0  0  0  0  0  0  0  0  0  0  0  0
    2.7590    2.0546   -1.5878 H   0  0  0  0  0  0  0  0  0  0  0  0
    6.4030    0.5525   -1.7411 H   0  0  0  0  0  0  0  0  0  0  0  0
    5.1261    1.6526   -2.4137 H   0  0  0  0  0  0  0  0  0  0  0  0
    6.1587    2.8991   -0.7163 H   0  0  0  0  0  0  0  0  0  0  0  0
    4.4813    2.4453   -0.1664 H   0  0  0  0  0  0  0  0  0  0  0  0
    7.1891    1.2975    0.7101 H   0  0  0  0  0  0  0  0  0  0  0  0
    6.1801    2.5243    1.5349 H   0  0  0  0  0  0  0  0  0  0  0  0
    4.5498   -1.2885    1.0812 H   0  0  0  0  0  0  0  0  0  0  0  0
    6.2218   -1.0846    0.4809 H   0  0  0  0  0  0  0  0  0  0  0  0
    7.1434   -1.6492    2.4366 H   0  0  0  0  0  0  0  0  0  0  0  0
    5.5300   -2.4926    2.6688 H   0  0  0  0  0  0  0  0  0  0  0  0
    4.7808   -0.8853    4.1798 H   0  0  0  0  0  0  0  0  0  0  0  0
    6.5629   -0.5413    4.4662 H   0  0  0  0  0  0  0  0  0  0  0  0
    4.6886    1.2601    3.4859 H   0  0  0  0  0  0  0  0  0  0  0  0
    6.4801    1.3796    3.2941 H   0  0  0  0  0  0  0  0  0  0  0  0
   -0.4442    4.7482   -1.7300 H   0  0  0  0  0  0  0  0  0  0  0  0
   -2.6277    6.3235   -1.8139 H   0  0  0  0  0  0  0  0  0  0  0  0
   -5.2790    5.6322   -0.9466 H   0  0  0  0  0  0  0  0  0  0  0  0
   -5.7760    3.9511   -1.4992 H   0  0  0  0  0  0  0  0  0  0  0  0
   -5.3974    5.2537   -2.6911 H   0  0  0  0  0  0  0  0  0  0  0  0
  1  2  1  0
  2  3  1  0
  3  4  2  0
  4  5  1  0
  5  6  2  0
  6  7  1  0
  7  8  1  0
  8  9  1  0
  9 10  1  0
 10 11  1  0
 11 12  1  0
 12 13  1  0
 13 14  1  0
 14 15  1  0
 15 16  1  0
 15 17  1  0
  6 18  1  0
 18 19  2  0
 19 20  1  0
 20 21  2  0
 21 22  1  0
 22 23  2  0
 23 24  1  0
 24 25  1  0
 25 26  1  0
 26 27  1  0
 27 28  1  0
 28 29  1  0
 29 30  1  0
 30 31  1  0
 31 32  1  0
 19 33  1  0
 33 34  2  0
 34 35  1  0
 35 36  2  0
 36 37  1  0
 36 38  1  0
 23  3  1  0
 32 28  1  0
 38 33  1  0
 21  5  1  0
 13  9  1  0
 17 10  1  0
  1 39  1  0
  1 40  1  0
  1 41  1  0
  4 42  1  0
  7 43  1  0
  8 44  1  0
  8 45  1  0
  9 46  1  0
 10 47  1  0
 11 48  1  0
 11 49  1  0
 12 50  1  0
 12 51  1  0
 13 52  1  0
 14 53  1  0
 14 54  1  0
 16 55  1  0
 16 56  1  0
 16 57  1  0
 17 58  1  0
 17 59  1  0
 18 60  1  0
 22 61  1  0
 25 62  1  0
 25 63  1  0
 26 64  1  0
 26 65  1  0
 27 66  1  0
 27 67  1  0
 29 68  1  0
 29 69  1  0
 30 70  1  0
 30 71  1  0
 31 72  1  0
 31 73  1  0
 32 74  1  0
 32 75  1  0
 34 76  1  0
 35 77  1  0
 37 78  1  0
 37 79  1  0
 37 80  1  0
M  END
$$$$
[H]c1c2c(c([H])c(OC([H])([H])[H])c1OC([H])([H])C([H])([H])C([H])([H])N1C([H])([H])C([H])([H])C([H])([H])C1([H])[H])C1(C(N([H])[H])=N2)C([H])([H])C([H])([H])C1([H])[H]
     RDKit          3D

 51 54  0  0  0  0  0  0  0  0999 V2000
   -1.5086   -3.7007   -0.5426 C   0  0  0  0  0  0  0  0  0  0  0  0
   -0.8321   -2.5118   -0.2687 O   0  0  0  0  0  0  0  0  0  0  0  0
   -1.4070   -1.2772   -0.0490 C   0  0  0  0  0  0  0  0  0  0  0  0
   -2.7734   -1.0867   -0.0778 C   0  0  0  0  0  0  0  0  0  0  0  0
   -3.3515    0.1635    0.1445 C   0  0  0  0  0  0  0  0  0  0  0  0
   -2.5138    1.2263    0.3979 C   0  0  0  0  0  0  0  0  0  0  0  0
   -1.1371    1.0103    0.4223 C   0  0  0  0  0  0  0  0  0  0  0  0
   -0.5600   -0.2155    0.2052 C   0  0  0  0  0  0  0  0  0  0  0  0
    0.8376   -0.3896    0.2389 O   0  0  0  0  0  0  0  0  0  0  0  0
    1.5981    0.7523    0.4929 C   0  0  0  0  0  0  0  0  0  0  0  0
    3.0701    0.5616    0.5487 C   0  0  0  0  0  0  0  0  0  0  0  0
    3.6953    0.0182   -0.6967 C   0  0  0  0  0  0  0  0  0  0  0  0
    5.1212   -0.1394   -0.5906 N   0  0  0  0  0  0  0  0  0  0  0  0
    5.5466   -1.1565    0.3249 C   0  0  0  0  0  0  0  0  0  0  0  0
    7.0501   -0.9326    0.3853 C   0  0  0  0  0  0  0  0  0  0  0  0
    7.2535    0.5085   -0.0285 C   0  0  0  0  0  0  0  0  0  0  0  0
    5.8182    1.0249   -0.1495 C   0  0  0  0  0  0  0  0  0  0  0  0
   -3.3211    2.3787    0.5901 N   0  0  0  0  0  0  0  0  0  0  0  0
   -4.5689    2.1070    0.4760 C   0  0  0  0  0  0  0  0  0  0  0  0
   -5.6810    3.0131    0.6042 N   0  0  0  0  0  0  0  0  0  0  0  0
   -4.7140    0.6876    0.1857 C   0  0  0  0  0  0  0  0  0  0  0  0
   -5.6847   -0.0720    1.0589 C   0  0  0  0  0  0  0  0  0  0  0  0
   -6.7287    0.1190   -0.0305 C   0  0  0  0  0  0  0  0  0  0  0  0
   -5.5864    0.3429   -1.0029 C   0  0  0  0  0  0  0  0  0  0  0  0
   -1.4517   -3.8504   -1.6584 H   0  0  0  0  0  0  0  0  0  0  0  0
   -0.8887   -4.5395   -0.1273 H   0  0  0  0  0  0  0  0  0  0  0  0
   -2.5387   -3.7373   -0.1747 H   0  0  0  0  0  0  0  0  0  0  0  0
   -3.4362   -1.9088   -0.2760 H   0  0  0  0  0  0  0  0  0  0  0  0
   -0.5168    1.8765    0.6264 H   0  0  0  0  0  0  0  0  0  0  0  0
    1.3078    1.5729   -0.2135 H   0  0  0  0  0  0  0  0  0  0  0  0
    1.2846    1.1322    1.5018 H   0  0  0  0  0  0  0  0  0  0  0  0
    3.2838   -0.1348    1.3896 H   0  0  0  0  0  0  0  0  0  0  0  0
    3.5054    1.5804    0.7854 H   0  0  0  0  0  0  0  0  0  0  0  0
    3.4807    0.6011   -1.6065 H   0  0  0  0  0  0  0  0  0  0  0  0
    3.2736   -1.0017   -0.8715 H   0  0  0  0  0  0  0  0  0  0  0  0
    5.3032   -2.1867    0.0033 H   0  0  0  0  0  0  0  0  0  0  0  0
    5.1408   -0.9165    1.3260 H   0  0  0  0  0  0  0  0  0  0  0  0
    7.4404   -1.1217    1.4119 H   0  0  0  0  0  0  0  0  0  0  0  0
    7.4990   -1.5716   -0.3762 H   0  0  0  0  0  0  0  0  0  0  0  0
    7.7831    1.0367    0.8179 H   0  0  0  0  0  0  0  0  0  0  0  0
    7.8215    0.6177   -0.9670 H   0  0  0  0  0  0  0  0  0  0  0  0
    5.7587    1.8465   -0.8957 H   0  0  0  0  0  0  0  0  0  0  0  0
    5.5488    1.3699    0.8714 H   0  0  0  0  0  0  0  0  0  0  0  0
   -6.1970    3.1107    1.5065 H   0  0  0  0  0  0  0  0  0  0  0  0
   -6.0107    3.6006   -0.1925 H   0  0  0  0  0  0  0  0  0  0  0  0
   -5.4156   -1.1229    1.1553 H   0  0  0  0  0  0  0  0  0  0  0  0
   -5.9568    0.4220    2.0201 H   0  0  0  0  0  0  0  0  0  0  0  0
   -7.3028    1.0726    0.0736 H   0  0  0  0  0  0  0  0  0  0  0  0
   -7.3516   -0.7740   -0.2265 H   0  0  0  0  0  0  0  0  0  0  0  0
   -5.7283    1.2029   -1.7056 H   0  0  0  0  0  0  0  0  0  0  0  0
   -5.2591   -0.6088   -1.4762 H   0  0  0  0  0  0  0  0  0  0  0  0
  1  2  1  0
  2  3  1  0
  3  4  2  0
  4  5  1  0
  5  6  2  0
  6  7  1  0
  7  8  2  0
  8  9  1  0
  9 10  1  0
 10 11  1  0
 11 12  1  0
 12 13  1  0
 13 14  1  0
 14 15  1  0
 15 16  1  0
 16 17  1  0
  6 18  1  0
 18 19  2  0
 19 20  1  0
 19 21  1  0
 21 22  1  0
 22 23  1  0
 23 24  1  0
  8  3  1  0
 17 13  1  0
 24 21  1  0
 21  5  1  0
  1 25  1  0
  1 26  1  0
  1 27  1  0
  4 28  1  0
  7 29  1  0
 10 30  1  0
 10 31  1  0
 11 32  1  0
 11 33  1  0
 12 34  1  0
 12 35  1  0
 14 36  1  0
 14 37  1  0
 15 38  1  0
 15 39  1  0
 16 40  1  0
 16 41  1  0
 17 42  1  0
 17 43  1  0
 20 44  1  0
 20 45  1  0
 22 46  1  0
 22 47  1  0
 23 48  1  0
 23 49  1  0
 24 50  1  0
 24 51  1  0
M  END
$$$$
[H]c1c(-c2nc3c([H])c(OC([H])([H])C([H])([H])C([H])([H])N4C([H])([H])C([H])([H])C([H])([H])C4([H])[H])c(OC([H])([H])[H])c([H])c3c(N([H])C3([H])C([H])([H])C4(C([H])([H])N(C([H])([H])[H])C([H])([H])C4([H])[H])C3([H])[H])c2[H])oc(C([H])([H])[H])c1[H]
     RDKit          3D

 77 82  0  0  0  0  0  0  0  0999 V2000
    1.3115    0.4575   -3.6338 C   0  0  0  0  0  0  0  0  0  0  0  0
    2.1371    0.0237   -2.5713 O   0  0  0  0  0  0  0  0  0  0  0  0
    1.5500   -0.0679   -1.2995 C   0  0  0  0  0  0  0  0  0  0  0  0
    0.2343    0.2462   -1.0815 C   0  0  0  0  0  0  0  0  0  0  0  0
   -0.3135    0.1470    0.1742 C   0  0  0  0  0  0  0  0  0  0  0  0
   -1.6396    0.4546    0.4395 C   0  0  0  0  0  0  0  0  0  0  0  0
   -2.4991    0.8919   -0.5944 N   0  0  0  0  0  0  0  0  0  0  0  0
   -3.8931    1.2168   -0.3226 C   0  0  0  0  0  0  0  0  0  0  0  0
   -4.6726    1.6669   -1.5363 C   0  0  0  0  0  0  0  0  0  0  0  0
   -5.6888    0.5984   -1.3092 C   0  0  0  0  0  0  0  0  0  0  0  0
   -4.8031    0.0075   -0.2510 C   0  0  0  0  0  0  0  0  0  0  0  0
   -7.0321    1.0776   -0.8580 C   0  0  0  0  0  0  0  0  0  0  0  0
   -8.0407    0.2963   -1.6351 C   0  0  0  0  0  0  0  0  0  0  0  0
   -7.3431   -0.6916   -2.4130 N   0  0  0  0  0  0  0  0  0  0  0  0
   -7.9302   -0.8925   -3.7160 C   0  0  0  0  0  0  0  0  0  0  0  0
   -5.9588   -0.3177   -2.4684 C   0  0  0  0  0  0  0  0  0  0  0  0
   -2.1663    0.3441    1.7231 C   0  0  0  0  0  0  0  0  0  0  0  0
   -1.3222   -0.0817    2.7194 C   0  0  0  0  0  0  0  0  0  0  0  0
   -0.0387   -0.3848    2.4904 N   0  0  0  0  0  0  0  0  0  0  0  0
    0.4781   -0.2780    1.2392 C   0  0  0  0  0  0  0  0  0  0  0  0
    1.7874   -0.5840    0.9886 C   0  0  0  0  0  0  0  0  0  0  0  0
    2.3332   -0.4879   -0.2486 C   0  0  0  0  0  0  0  0  0  0  0  0
    3.6529   -0.7973   -0.4961 O   0  0  0  0  0  0  0  0  0  0  0  0
    4.5559   -1.2381    0.4946 C   0  0  0  0  0  0  0  0  0  0  0  0
    5.8936   -1.4597   -0.2229 C   0  0  0  0  0  0  0  0  0  0  0  0
    6.2816   -0.1221   -0.8114 C   0  0  0  0  0  0  0  0  0  0  0  0
    7.5453   -0.2433   -1.5135 N   0  0  0  0  0  0  0  0  0  0  0  0
    7.9639    0.9955   -2.0928 C   0  0  0  0  0  0  0  0  0  0  0  0
    9.1644    1.4850   -1.3055 C   0  0  0  0  0  0  0  0  0  0  0  0
    9.7819    0.1749   -0.8586 C   0  0  0  0  0  0  0  0  0  0  0  0
    8.5569   -0.6674   -0.5759 C   0  0  0  0  0  0  0  0  0  0  0  0
   -1.8383   -0.2146    4.0999 C   0  0  0  0  0  0  0  0  0  0  0  0
   -3.1196    0.0467    4.5333 C   0  0  0  0  0  0  0  0  0  0  0  0
   -3.1758   -0.2054    5.8871 C   0  0  0  0  0  0  0  0  0  0  0  0
   -1.9061   -0.6176    6.2342 C   0  0  0  0  0  0  0  0  0  0  0  0
   -1.4801   -1.0077    7.6256 C   0  0  0  0  0  0  0  0  0  0  0  0
   -1.1680   -0.6045    5.1556 O   0  0  0  0  0  0  0  0  0  0  0  0
    0.4557   -0.2650   -3.6785 H   0  0  0  0  0  0  0  0  0  0  0  0
    1.8492    0.4904   -4.5943 H   0  0  0  0  0  0  0  0  0  0  0  0
    0.8372    1.4400   -3.3803 H   0  0  0  0  0  0  0  0  0  0  0  0
   -0.3729    0.5724   -1.8992 H   0  0  0  0  0  0  0  0  0  0  0  0
   -2.2090    1.0076   -1.5805 H   0  0  0  0  0  0  0  0  0  0  0  0
   -4.0505    1.9020    0.5360 H   0  0  0  0  0  0  0  0  0  0  0  0
   -4.0713    1.4333   -2.4581 H   0  0  0  0  0  0  0  0  0  0  0  0
   -5.0389    2.7092   -1.5101 H   0  0  0  0  0  0  0  0  0  0  0  0
   -4.3356   -0.9314   -0.6106 H   0  0  0  0  0  0  0  0  0  0  0  0
   -5.3297   -0.0929    0.7077 H   0  0  0  0  0  0  0  0  0  0  0  0
   -7.1354    2.1547   -1.1274 H   0  0  0  0  0  0  0  0  0  0  0  0
   -7.1714    1.0191    0.2380 H   0  0  0  0  0  0  0  0  0  0  0  0
   -8.6290    0.9249   -2.3370 H   0  0  0  0  0  0  0  0  0  0  0  0
   -8.7677   -0.1354   -0.9176 H   0  0  0  0  0  0  0  0  0  0  0  0
   -8.0873   -1.9974   -3.8333 H   0  0  0  0  0  0  0  0  0  0  0  0
   -8.9207   -0.3908   -3.7211 H   0  0  0  0  0  0  0  0  0  0  0  0
   -7.2862   -0.5420   -4.5468 H   0  0  0  0  0  0  0  0  0  0  0  0
   -5.3496   -1.2363   -2.3401 H   0  0  0  0  0  0  0  0  0  0  0  0
   -5.6531    0.1281   -3.4340 H   0  0  0  0  0  0  0  0  0  0  0  0
   -3.2029    0.5973    1.8656 H   0  0  0  0  0  0  0  0  0  0  0  0
    2.3901   -0.9128    1.8256 H   0  0  0  0  0  0  0  0  0  0  0  0
    4.7449   -0.4973    1.2823 H   0  0  0  0  0  0  0  0  0  0  0  0
    4.1981   -2.2195    0.9031 H   0  0  0  0  0  0  0  0  0  0  0  0
    6.6491   -1.8643    0.4633 H   0  0  0  0  0  0  0  0  0  0  0  0
    5.6678   -2.2015   -1.0243 H   0  0  0  0  0  0  0  0  0  0  0  0
    6.4151    0.5976    0.0105 H   0  0  0  0  0  0  0  0  0  0  0  0
    5.4731    0.1686   -1.5191 H   0  0  0  0  0  0  0  0  0  0  0  0
    8.2297    0.8156   -3.1583 H   0  0  0  0  0  0  0  0  0  0  0  0
    7.1435    1.7634   -2.0983 H   0  0  0  0  0  0  0  0  0  0  0  0
    9.8234    2.0666   -1.9703 H   0  0  0  0  0  0  0  0  0  0  0  0
    8.8183    2.0819   -0.4295 H   0  0  0  0  0  0  0  0  0  0  0  0
   10.3600    0.2595    0.0621 H   0  0  0  0  0  0  0  0  0  0  0  0
   10.3442   -0.2491   -1.7124 H   0  0  0  0  0  0  0  0  0  0  0  0
    8.8060   -1.7245   -0.8068 H   0  0  0  0  0  0  0  0  0  0  0  0
    8.2182   -0.5609    0.4777 H   0  0  0  0  0  0  0  0  0  0  0  0
   -3.9320    0.3948    3.8845 H   0  0  0  0  0  0  0  0  0  0  0  0
   -4.0514   -0.0912    6.5092 H   0  0  0  0  0  0  0  0  0  0  0  0
   -2.3164   -0.8374    8.3225 H   0  0  0  0  0  0  0  0  0  0  0  0
   -1.0446   -2.0081    7.6583 H   0  0  0  0  0  0  0  0  0  0  0  0
   -0.6661   -0.2960    7.9522 H   0  0  0  0  0  0  0  0  0  0  0  0
  1  2  1  0
  2  3  1  0
  3  4  2  0
  4  5  1  0
  5  6  2  0
  6  7  1  0
  7  8  1  0
  8  9  1  0
  9 10  1  0
 10 11  1  0
 10 12  1  0
 12 13  1  0
 13 14  1  0
 14 15  1  0
 14 16  1  0
  6 17  1  0
 17 18  2  0
 18 19  1  0
 19 20  2  0
 20 21  1  0
 21 22  2  0
 22 23  1  0
 23 24  1  0
 24 25  1  0
 25 26  1  0
 26 27  1  0
 27 28  1  0
 28 29  1  0
 29 30  1  0
 30 31  1  0
 18 32  1  0
 32 33  2  0
 33 34  1  0
 34 35  2  0
 35 36  1  0
 35 37  1  0
 22  3  1  0
 31 27  1  0
 37 32  1  0
 20  5  1  0
 11  8  1  0
 16 10  1  0
  1 38  1  0
  1 39  1  0
  1 40  1  0
  4 41  1  0
  7 42  1  0
  8 43  1  0
  9 44  1  0
  9 45  1  0
 11 46  1  0
 11 47  1  0
 12 48  1  0
 12 49  1  0
 13 50  1  0
 13 51  1  0
 15 52  1  0
 15 53  1  0
 15 54  1  0
 16 55  1  0
 16 56  1  0
 17 57  1  0
 21 58  1  0
 24 59  1  0
 24 60  1  0
 25 61  1  0
 25 62  1  0
 26 63  1  0
 26 64  1  0
 28 65  1  0
 28 66  1  0
 29 67  1  0
 29 68  1  0
 30 69  1  0
 30 70  1  0
 31 71  1  0
 31 72  1  0
 33 73  1  0
 34 74  1  0
 36 75  1  0
 36 76  1  0
 36 77  1  0
M  END
$$$$
[H]c1c(-c2nc3c([H])c(OC([H])([H])C([H])([H])C([H])([H])N4C([H])([H])C([H])([H])C([H])([H])C4([H])[H])c(OC([H])([H])[H])c([H])c3c(N([H])C3([H])C([H])([H])C([H])([H])N(C4([H])C([H])([H])C4([H])[H])C([H])([H])C3([H])[H])c2[H])oc(C([H])([H])C([H])([H])[H])c1[H]
     RDKit          3D

 80 85  0  0  0  0  0  0  0  0999 V2000
   -0.8649    7.7122    0.3232 C   0  0  0  0  0  0  0  0  0  0  0  0
   -0.9833    7.1685   -1.0848 C   0  0  0  0  0  0  0  0  0  0  0  0
   -1.5696    5.7877   -1.0946 C   0  0  0  0  0  0  0  0  0  0  0  0
   -2.8874    5.4723   -1.1800 C   0  0  0  0  0  0  0  0  0  0  0  0
   -2.9745    4.0941   -1.1548 C   0  0  0  0  0  0  0  0  0  0  0  0
   -1.6799    3.6390   -1.0535 C   0  0  0  0  0  0  0  0  0  0  0  0
   -0.8918    4.6859   -1.0219 O   0  0  0  0  0  0  0  0  0  0  0  0
   -1.2519    2.2244   -0.9913 C   0  0  0  0  0  0  0  0  0  0  0  0
   -2.1661    1.2076   -1.0312 C   0  0  0  0  0  0  0  0  0  0  0  0
   -1.7795   -0.1394   -0.9742 C   0  0  0  0  0  0  0  0  0  0  0  0
   -2.7493   -1.1593   -1.0405 N   0  0  0  0  0  0  0  0  0  0  0  0
   -4.1898   -0.8582   -1.0432 C   0  0  0  0  0  0  0  0  0  0  0  0
   -4.9013   -2.1642   -1.3358 C   0  0  0  0  0  0  0  0  0  0  0  0
   -6.1597   -2.3392   -0.5244 C   0  0  0  0  0  0  0  0  0  0  0  0
   -5.9327   -2.2601    0.8898 N   0  0  0  0  0  0  0  0  0  0  0  0
   -4.6276   -1.7525    1.1668 C   0  0  0  0  0  0  0  0  0  0  0  0
   -4.4986   -0.4248    0.4019 C   0  0  0  0  0  0  0  0  0  0  0  0
   -6.2176   -3.4998    1.5828 C   0  0  0  0  0  0  0  0  0  0  0  0
   -7.6350   -4.0160    1.5500 C   0  0  0  0  0  0  0  0  0  0  0  0
   -7.1259   -3.3398    2.7853 C   0  0  0  0  0  0  0  0  0  0  0  0
   -0.4477   -0.4242   -0.8763 C   0  0  0  0  0  0  0  0  0  0  0  0
    0.0006   -1.7235   -0.8135 C   0  0  0  0  0  0  0  0  0  0  0  0
    1.3331   -2.0283   -0.7119 C   0  0  0  0  0  0  0  0  0  0  0  0
    1.7382   -3.3369   -0.6521 O   0  0  0  0  0  0  0  0  0  0  0  0
    0.7738   -4.3616   -0.6962 C   0  0  0  0  0  0  0  0  0  0  0  0
    2.2711   -0.9691   -0.6708 C   0  0  0  0  0  0  0  0  0  0  0  0
    3.5609   -1.3701   -0.5649 O   0  0  0  0  0  0  0  0  0  0  0  0
    4.7210   -0.6467   -0.4535 C   0  0  0  0  0  0  0  0  0  0  0  0
    4.8928    0.1775    0.7869 C   0  0  0  0  0  0  0  0  0  0  0  0
    6.1382    0.9655    0.8016 C   0  0  0  0  0  0  0  0  0  0  0  0
    7.3984    0.4246    0.7364 N   0  0  0  0  0  0  0  0  0  0  0  0
    7.9906   -0.1649   -0.3659 C   0  0  0  0  0  0  0  0  0  0  0  0
    8.5889   -1.5068    0.0574 C   0  0  0  0  0  0  0  0  0  0  0  0
    8.4714   -1.5212    1.5569 C   0  0  0  0  0  0  0  0  0  0  0  0
    7.9110   -0.1742    1.9494 C   0  0  0  0  0  0  0  0  0  0  0  0
    1.8177    0.3234   -0.7348 C   0  0  0  0  0  0  0  0  0  0  0  0
    0.4801    0.6326   -0.8363 C   0  0  0  0  0  0  0  0  0  0  0  0
    0.0424    1.8939   -0.8949 N   0  0  0  0  0  0  0  0  0  0  0  0
    0.0953    7.4027    0.7459 H   0  0  0  0  0  0  0  0  0  0  0  0
   -0.9238    8.8199    0.2587 H   0  0  0  0  0  0  0  0  0  0  0  0
   -1.6838    7.2872    0.9555 H   0  0  0  0  0  0  0  0  0  0  0  0
    0.0130    7.1789   -1.5289 H   0  0  0  0  0  0  0  0  0  0  0  0
   -1.6251    7.8536   -1.7099 H   0  0  0  0  0  0  0  0  0  0  0  0
   -3.7490    6.1424   -1.2555 H   0  0  0  0  0  0  0  0  0  0  0  0
   -3.8432    3.4763   -1.2018 H   0  0  0  0  0  0  0  0  0  0  0  0
   -3.2064    1.4448   -1.1121 H   0  0  0  0  0  0  0  0  0  0  0  0
   -2.5160   -2.1688   -1.0926 H   0  0  0  0  0  0  0  0  0  0  0  0
   -4.4177   -0.0531   -1.7311 H   0  0  0  0  0  0  0  0  0  0  0  0
   -4.2422   -3.0399   -1.2330 H   0  0  0  0  0  0  0  0  0  0  0  0
   -5.2114   -2.1197   -2.4015 H   0  0  0  0  0  0  0  0  0  0  0  0
   -6.9285   -1.6284   -0.8373 H   0  0  0  0  0  0  0  0  0  0  0  0
   -6.5239   -3.3767   -0.7476 H   0  0  0  0  0  0  0  0  0  0  0  0
   -4.4226   -1.6270    2.2373 H   0  0  0  0  0  0  0  0  0  0  0  0
   -3.8835   -2.4676    0.7362 H   0  0  0  0  0  0  0  0  0  0  0  0
   -5.5033    0.0458    0.3709 H   0  0  0  0  0  0  0  0  0  0  0  0
   -3.7366    0.2115    0.8380 H   0  0  0  0  0  0  0  0  0  0  0  0
   -5.4607   -4.3016    1.6101 H   0  0  0  0  0  0  0  0  0  0  0  0
   -7.8196   -5.1026    1.6514 H   0  0  0  0  0  0  0  0  0  0  0  0
   -8.3890   -3.4883    0.9604 H   0  0  0  0  0  0  0  0  0  0  0  0
   -6.9362   -3.9511    3.6922 H   0  0  0  0  0  0  0  0  0  0  0  0
   -7.5477   -2.3466    3.0202 H   0  0  0  0  0  0  0  0  0  0  0  0
   -0.6939   -2.5586   -0.8409 H   0  0  0  0  0  0  0  0  0  0  0  0
    1.2239   -5.3653   -0.6700 H   0  0  0  0  0  0  0  0  0  0  0  0
    0.2242   -4.2560   -1.6706 H   0  0  0  0  0  0  0  0  0  0  0  0
    0.0338   -4.2731    0.1396 H   0  0  0  0  0  0  0  0  0  0  0  0
    4.8523    0.0718   -1.3174 H   0  0  0  0  0  0  0  0  0  0  0  0
    5.5766   -1.3657   -0.5916 H   0  0  0  0  0  0  0  0  0  0  0  0
    4.0360    0.8725    0.8755 H   0  0  0  0  0  0  0  0  0  0  0  0
    4.7808   -0.4663    1.7134 H   0  0  0  0  0  0  0  0  0  0  0  0
    6.0524    1.7613   -0.0263 H   0  0  0  0  0  0  0  0  0  0  0  0
    6.1122    1.6563    1.7212 H   0  0  0  0  0  0  0  0  0  0  0  0
    8.9019    0.4738   -0.6670 H   0  0  0  0  0  0  0  0  0  0  0  0
    7.4673   -0.3120   -1.2963 H   0  0  0  0  0  0  0  0  0  0  0  0
    9.6152   -1.6161   -0.3061 H   0  0  0  0  0  0  0  0  0  0  0  0
    7.9498   -2.3538   -0.3289 H   0  0  0  0  0  0  0  0  0  0  0  0
    9.4931   -1.6979    1.9724 H   0  0  0  0  0  0  0  0  0  0  0  0
    7.8337   -2.3438    1.9389 H   0  0  0  0  0  0  0  0  0  0  0  0
    8.7280    0.4784    2.3280 H   0  0  0  0  0  0  0  0  0  0  0  0
    7.1613   -0.2582    2.7438 H   0  0  0  0  0  0  0  0  0  0  0  0
    2.5173    1.1324   -0.7301 H   0  0  0  0  0  0  0  0  0  0  0  0
  1  2  1  0
  2  3  1  0
  3  4  2  0
  4  5  1  0
  5  6  2  0
  6  7  1  0
  6  8  1  0
  8  9  2  0
  9 10  1  0
 10 11  1  0
 11 12  1  0
 12 13  1  0
 13 14  1  0
 14 15  1  0
 15 16  1  0
 16 17  1  0
 15 18  1  0
 18 19  1  0
 19 20  1  0
 10 21  2  0
 21 22  1  0
 22 23  2  0
 23 24  1  0
 24 25  1  0
 23 26  1  0
 26 27  1  0
 27 28  1  0
 28 29  1  0
 29 30  1  0
 30 31  1  0
 31 32  1  0
 32 33  1  0
 33 34  1  0
 34 35  1  0
 26 36  2  0
 36 37  1  0
 37 38  2  0
  7  3  1  0
 38  8  1  0
 17 12  1  0
 20 18  1  0
 37 21  1  0
 35 31  1  0
  1 39  1  0
  1 40  1  0
  1 41  1  0
  2 42  1  0
  2 43  1  0
  4 44  1  0
  5 45  1  0
  9 46  1  0
 11 47  1  0
 12 48  1  0
 13 49  1  0
 13 50  1  0
 14 51  1  0
 14 52  1  0
 16 53  1  0
 16 54  1  0
 17 55  1  0
 17 56  1  0
 18 57  1  0
 19 58  1  0
 19 59  1  0
 20 60  1  0
 20 61  1  0
 22 62  1  0
 25 63  1  0
 25 64  1  0
 25 65  1  0
 28 66  1  0
 28 67  1  0
 29 68  1  0
 29 69  1  0
 30 70  1  0
 30 71  1  0
 32 72  1  0
 32 73  1  0
 33 74  1  0
 33 75  1  0
 34 76  1  0
 34 77  1  0
 35 78  1  0
 35 79  1  0
 36 80  1  0
M  END
$$$$
[H]c1c(OC([H])([H])C([H])([H])C([H])([H])N2C([H])([H])C([H])([H])C([H])([H])C2([H])[H])c(OC([H])([H])[H])c([H])c2c(N([H])C3([H])C([H])([H])C([H])([H])N(C([H])(C([H])([H])[H])C([H])([H])[H])C([H])([H])C3([H])[H])nc(N3C([H])([H])C([H])([H])S(=O)(=O)C([H])([H])C3([H])[H])nc12
     RDKit          3D

 83 87  0  0  0  0  0  0  0  0999 V2000
    1.6569   -3.3228   -0.0138 C   0  0  0  0  0  0  0  0  0  0  0  0
    2.4428   -2.1525   -0.1206 O   0  0  0  0  0  0  0  0  0  0  0  0
    1.8317   -0.9141   -0.1096 C   0  0  0  0  0  0  0  0  0  0  0  0
    0.4647   -0.8384    0.0064 C   0  0  0  0  0  0  0  0  0  0  0  0
   -0.2034    0.3469    0.0263 C   0  0  0  0  0  0  0  0  0  0  0  0
   -1.5752    0.4042    0.1167 C   0  0  0  0  0  0  0  0  0  0  0  0
   -2.3544   -0.7485    0.2649 N   0  0  0  0  0  0  0  0  0  0  0  0
   -3.7340   -0.9604    0.2592 C   0  0  0  0  0  0  0  0  0  0  0  0
   -4.6506   -0.1433    1.1217 C   0  0  0  0  0  0  0  0  0  0  0  0
   -6.0961   -0.6080    0.8056 C   0  0  0  0  0  0  0  0  0  0  0  0
   -6.0739   -1.8773    0.1714 N   0  0  0  0  0  0  0  0  0  0  0  0
   -5.4504   -1.9889   -1.0969 C   0  0  0  0  0  0  0  0  0  0  0  0
   -4.3079   -0.9615   -1.1553 C   0  0  0  0  0  0  0  0  0  0  0  0
   -6.8308   -2.9309    0.6500 C   0  0  0  0  0  0  0  0  0  0  0  0
   -7.5492   -3.6360   -0.4892 C   0  0  0  0  0  0  0  0  0  0  0  0
   -6.1323   -3.9899    1.4664 C   0  0  0  0  0  0  0  0  0  0  0  0
   -2.1360    1.6503    0.1021 N   0  0  0  0  0  0  0  0  0  0  0  0
   -1.4170    2.7760    0.0052 C   0  0  0  0  0  0  0  0  0  0  0  0
   -0.0566    2.6866   -0.0837 N   0  0  0  0  0  0  0  0  0  0  0  0
    0.5729    1.5030   -0.0772 C   0  0  0  0  0  0  0  0  0  0  0  0
    1.9414    1.4660   -0.1946 C   0  0  0  0  0  0  0  0  0  0  0  0
    2.6151    0.2446   -0.2160 C   0  0  0  0  0  0  0  0  0  0  0  0
    3.8874    0.1786   -0.3300 O   0  0  0  0  0  0  0  0  0  0  0  0
    5.1829    0.2053   -0.4491 C   0  0  0  0  0  0  0  0  0  0  0  0
    5.7503   -1.2113   -0.4428 C   0  0  0  0  0  0  0  0  0  0  0  0
    7.2082   -1.2968   -0.6655 C   0  0  0  0  0  0  0  0  0  0  0  0
    8.0808   -0.6399    0.2356 N   0  0  0  0  0  0  0  0  0  0  0  0
    8.1453   -1.2202    1.5303 C   0  0  0  0  0  0  0  0  0  0  0  0
    9.0921   -2.4088    1.4729 C   0  0  0  0  0  0  0  0  0  0  0  0
    9.7561   -2.2765    0.1254 C   0  0  0  0  0  0  0  0  0  0  0  0
    9.4507   -0.8555   -0.2834 C   0  0  0  0  0  0  0  0  0  0  0  0
   -1.9256    4.0955    0.0323 N   0  0  0  0  0  0  0  0  0  0  0  0
   -1.3744    5.0817   -0.8486 C   0  0  0  0  0  0  0  0  0  0  0  0
   -2.4132    5.9689   -1.5033 C   0  0  0  0  0  0  0  0  0  0  0  0
   -3.3167    6.8068   -0.2198 S   0  0  0  0  0  0  0  0  0  0  0  0
   -2.9053    8.2289   -0.0428 O   0  0  0  0  0  0  0  0  0  0  0  0
   -4.8052    6.6972   -0.4812 O   0  0  0  0  0  0  0  0  0  0  0  0
   -2.9383    5.9256    1.2933 C   0  0  0  0  0  0  0  0  0  0  0  0
   -2.9407    4.4344    0.9865 C   0  0  0  0  0  0  0  0  0  0  0  0
    0.8917   -3.4140   -0.8262 H   0  0  0  0  0  0  0  0  0  0  0  0
    1.0838   -3.2999    0.9470 H   0  0  0  0  0  0  0  0  0  0  0  0
    2.2825   -4.2350   -0.0662 H   0  0  0  0  0  0  0  0  0  0  0  0
   -0.0826   -1.7727    0.0780 H   0  0  0  0  0  0  0  0  0  0  0  0
   -1.7656   -1.6544    0.4361 H   0  0  0  0  0  0  0  0  0  0  0  0
   -3.9596   -2.0475    0.6105 H   0  0  0  0  0  0  0  0  0  0  0  0
   -4.5153   -0.3213    2.2042 H   0  0  0  0  0  0  0  0  0  0  0  0
   -4.6152    0.9277    0.8957 H   0  0  0  0  0  0  0  0  0  0  0  0
   -6.6586   -0.6244    1.7351 H   0  0  0  0  0  0  0  0  0  0  0  0
   -6.5108    0.1231    0.1071 H   0  0  0  0  0  0  0  0  0  0  0  0
   -4.9060   -2.9872   -1.1701 H   0  0  0  0  0  0  0  0  0  0  0  0
   -6.0947   -1.9324   -1.9821 H   0  0  0  0  0  0  0  0  0  0  0  0
   -4.7078    0.0455   -1.4365 H   0  0  0  0  0  0  0  0  0  0  0  0
   -3.5794   -1.3372   -1.8742 H   0  0  0  0  0  0  0  0  0  0  0  0
   -7.6656   -2.5008    1.2852 H   0  0  0  0  0  0  0  0  0  0  0  0
   -8.4879   -4.1036   -0.1128 H   0  0  0  0  0  0  0  0  0  0  0  0
   -6.9292   -4.5297   -0.8117 H   0  0  0  0  0  0  0  0  0  0  0  0
   -7.7159   -2.9564   -1.3244 H   0  0  0  0  0  0  0  0  0  0  0  0
   -5.8088   -4.8032    0.7508 H   0  0  0  0  0  0  0  0  0  0  0  0
   -5.2452   -3.6141    2.0162 H   0  0  0  0  0  0  0  0  0  0  0  0
   -6.8912   -4.4486    2.1198 H   0  0  0  0  0  0  0  0  0  0  0  0
    2.4958    2.4116   -0.2724 H   0  0  0  0  0  0  0  0  0  0  0  0
    5.5836    0.7331   -1.3685 H   0  0  0  0  0  0  0  0  0  0  0  0
    5.6542    0.7746    0.4210 H   0  0  0  0  0  0  0  0  0  0  0  0
    5.4247   -1.6616    0.5209 H   0  0  0  0  0  0  0  0  0  0  0  0
    5.2456   -1.7500   -1.2741 H   0  0  0  0  0  0  0  0  0  0  0  0
    7.4976   -0.9668   -1.7076 H   0  0  0  0  0  0  0  0  0  0  0  0
    7.4738   -2.3968   -0.6275 H   0  0  0  0  0  0  0  0  0  0  0  0
    7.1540   -1.5974    1.8371 H   0  0  0  0  0  0  0  0  0  0  0  0
    8.5743   -0.4890    2.2648 H   0  0  0  0  0  0  0  0  0  0  0  0
    9.9242   -2.2829    2.2214 H   0  0  0  0  0  0  0  0  0  0  0  0
    8.5921   -3.3715    1.5324 H   0  0  0  0  0  0  0  0  0  0  0  0
    9.3882   -3.0160   -0.6261 H   0  0  0  0  0  0  0  0  0  0  0  0
   10.8613   -2.4731    0.1831 H   0  0  0  0  0  0  0  0  0  0  0  0
    9.3987   -0.8358   -1.4037 H   0  0  0  0  0  0  0  0  0  0  0  0
   10.1649   -0.1456    0.1445 H   0  0  0  0  0  0  0  0  0  0  0  0
   -0.6838    5.7775   -0.2748 H   0  0  0  0  0  0  0  0  0  0  0  0
   -0.7233    4.6121   -1.6374 H   0  0  0  0  0  0  0  0  0  0  0  0
   -1.8803    6.7178   -2.1335 H   0  0  0  0  0  0  0  0  0  0  0  0
   -3.0616    5.3294   -2.1262 H   0  0  0  0  0  0  0  0  0  0  0  0
   -1.9273    6.2465    1.5896 H   0  0  0  0  0  0  0  0  0  0  0  0
   -3.6370    6.1862    2.0859 H   0  0  0  0  0  0  0  0  0  0  0  0
   -3.9269    4.0396    0.7456 H   0  0  0  0  0  0  0  0  0  0  0  0
   -2.6037    3.9255    1.9523 H   0  0  0  0  0  0  0  0  0  0  0  0
  1  2  1  0
  2  3  1  0
  3  4  2  0
  4  5  1  0
  5  6  2  0
  6  7  1  0
  7  8  1  0
  8  9  1  0
  9 10  1  0
 10 11  1  0
 11 12  1  0
 12 13  1  0
 11 14  1  0
 14 15  1  0
 14 16  1  0
  6 17  1  0
 17 18  2  0
 18 19  1  0
 19 20  2  0
 20 21  1  0
 21 22  2  0
 22 23  1  0
 23 24  1  0
 24 25  1  0
 25 26  1  0
 26 27  1  0
 27 28  1  0
 28 29  1  0
 29 30  1  0
 30 31  1  0
 18 32  1  0
 32 33  1  0
 33 34  1  0
 34 35  1  0
 35 36  2  0
 35 37  2  0
 35 38  1  0
 38 39  1  0
 22  3  1  0
 31 27  1  0
 39 32  1  0
 20  5  1  0
 13  8  1  0
  1 40  1  0
  1 41  1  0
  1 42  1  0
  4 43  1  0
  7 44  1  0
  8 45  1  0
  9 46  1  0
  9 47  1  0
 10 48  1  0
 10 49  1  0
 12 50  1  0
 12 51  1  0
 13 52  1  0
 13 53  1  0
 14 54  1  0
 15 55  1  0
 15 56  1  0
 15 57  1  0
 16 58  1  0
 16 59  1  0
 16 60  1  0
 21 61  1  0
 24 62  1  0
 24 63  1  0
 25 64  1  0
 25 65  1  0
 26 66  1  0
 26 67  1  0
 28 68  1  0
 28 69  1  0
 29 70  1  0
 29 71  1  0
 30 72  1  0
 30 73  1  0
 31 74  1  0
 31 75  1  0
 33 76  1  0
 33 77  1  0
 34 78  1  0
 34 79  1  0
 38 80  1  0
 38 81  1  0
 39 82  1  0
 39 83  1  0
M  END
$$$$
[H]c1c(OC([H])([H])C([H])([H])C([H])([H])N2C([H])([H])C([H])([H])C([H])([H])C2([H])[H])c(OC([H])([H])[H])c([H])c2c(N([H])C3([H])C([H])([H])C([H])([H])N(C4([H])C([H])([H])C4([H])[H])C([H])([H])C3([H])[H])nc(N3C([H])([H])C([H])([H])S(=O)(=O)C([H])([H])C3([H])[H])nc12
     RDKit          3D

 81 86  0  0  0  0  0  0  0  0999 V2000
    2.0565   -3.0296   -1.8242 C   0  0  0  0  0  0  0  0  0  0  0  0
    2.7647   -1.9108   -1.3053 O   0  0  0  0  0  0  0  0  0  0  0  0
    2.1082   -0.7850   -0.8361 C   0  0  0  0  0  0  0  0  0  0  0  0
    0.7124   -0.7201   -0.8613 C   0  0  0  0  0  0  0  0  0  0  0  0
    0.0409    0.3831   -0.4026 C   0  0  0  0  0  0  0  0  0  0  0  0
   -1.3340    0.5024   -0.4014 C   0  0  0  0  0  0  0  0  0  0  0  0
   -2.1260   -0.5763   -0.9194 N   0  0  0  0  0  0  0  0  0  0  0  0
   -3.5917   -0.4605   -0.9068 C   0  0  0  0  0  0  0  0  0  0  0  0
   -4.1921   -1.6542   -1.6142 C   0  0  0  0  0  0  0  0  0  0  0  0
   -5.6589   -1.7788   -1.2930 C   0  0  0  0  0  0  0  0  0  0  0  0
   -5.9235   -2.0200    0.0849 N   0  0  0  0  0  0  0  0  0  0  0  0
   -4.8948   -1.5349    0.9725 C   0  0  0  0  0  0  0  0  0  0  0  0
   -4.1380   -0.3465    0.4983 C   0  0  0  0  0  0  0  0  0  0  0  0
   -6.2489   -3.3727    0.4309 C   0  0  0  0  0  0  0  0  0  0  0  0
   -7.4502   -4.0525   -0.1155 C   0  0  0  0  0  0  0  0  0  0  0  0
   -6.0273   -4.5255   -0.4403 C   0  0  0  0  0  0  0  0  0  0  0  0
   -1.9218    1.6180    0.0676 N   0  0  0  0  0  0  0  0  0  0  0  0
   -1.1950    2.6391    0.5437 C   0  0  0  0  0  0  0  0  0  0  0  0
    0.1346    2.5206    0.5411 N   0  0  0  0  0  0  0  0  0  0  0  0
    0.7820    1.4539    0.0961 C   0  0  0  0  0  0  0  0  0  0  0  0
    2.1632    1.3591    0.1075 C   0  0  0  0  0  0  0  0  0  0  0  0
    2.8464    0.2641   -0.3470 C   0  0  0  0  0  0  0  0  0  0  0  0
    4.2193    0.2665   -0.2932 O   0  0  0  0  0  0  0  0  0  0  0  0
    4.9436    1.3658    0.2157 C   0  0  0  0  0  0  0  0  0  0  0  0
    6.4383    1.1120    0.1634 C   0  0  0  0  0  0  0  0  0  0  0  0
    6.7529   -0.0995    0.9905 C   0  0  0  0  0  0  0  0  0  0  0  0
    6.0690   -1.2730    0.5114 N   0  0  0  0  0  0  0  0  0  0  0  0
    6.5750   -1.6927   -0.7507 C   0  0  0  0  0  0  0  0  0  0  0  0
    7.5619   -2.8168   -0.4577 C   0  0  0  0  0  0  0  0  0  0  0  0
    6.9680   -3.4716    0.7437 C   0  0  0  0  0  0  0  0  0  0  0  0
    6.2428   -2.3639    1.4414 C   0  0  0  0  0  0  0  0  0  0  0  0
   -1.8405    3.8307    1.0436 N   0  0  0  0  0  0  0  0  0  0  0  0
   -3.2659    3.8966    1.0357 C   0  0  0  0  0  0  0  0  0  0  0  0
   -3.8015    4.9196    0.0588 C   0  0  0  0  0  0  0  0  0  0  0  0
   -2.5466    6.1372   -0.2313 S   0  0  0  0  0  0  0  0  0  0  0  0
   -1.5970    5.6995   -1.3181 O   0  0  0  0  0  0  0  0  0  0  0  0
   -3.1463    7.4774   -0.5731 O   0  0  0  0  0  0  0  0  0  0  0  0
   -1.5826    6.2568    1.2817 C   0  0  0  0  0  0  0  0  0  0  0  0
   -0.9970    4.8865    1.5213 C   0  0  0  0  0  0  0  0  0  0  0  0
    1.4470   -3.5126   -1.0413 H   0  0  0  0  0  0  0  0  0  0  0  0
    1.3610   -2.6923   -2.6202 H   0  0  0  0  0  0  0  0  0  0  0  0
    2.7688   -3.7870   -2.1997 H   0  0  0  0  0  0  0  0  0  0  0  0
    0.1567   -1.5577   -1.2497 H   0  0  0  0  0  0  0  0  0  0  0  0
   -1.7484   -1.4402   -1.3064 H   0  0  0  0  0  0  0  0  0  0  0  0
   -3.8361    0.4798   -1.4343 H   0  0  0  0  0  0  0  0  0  0  0  0
   -3.6021   -2.5393   -1.3836 H   0  0  0  0  0  0  0  0  0  0  0  0
   -4.1132   -1.4604   -2.7066 H   0  0  0  0  0  0  0  0  0  0  0  0
   -6.1289   -0.8040   -1.6146 H   0  0  0  0  0  0  0  0  0  0  0  0
   -6.1029   -2.5536   -1.9374 H   0  0  0  0  0  0  0  0  0  0  0  0
   -5.3956   -1.2548    1.9221 H   0  0  0  0  0  0  0  0  0  0  0  0
   -4.1955   -2.3779    1.2493 H   0  0  0  0  0  0  0  0  0  0  0  0
   -3.2408   -0.2593    1.1831 H   0  0  0  0  0  0  0  0  0  0  0  0
   -4.7239    0.5599    0.6680 H   0  0  0  0  0  0  0  0  0  0  0  0
   -6.1014   -3.5744    1.5345 H   0  0  0  0  0  0  0  0  0  0  0  0
   -8.0515   -3.6113   -0.9383 H   0  0  0  0  0  0  0  0  0  0  0  0
   -8.0465   -4.7341    0.5250 H   0  0  0  0  0  0  0  0  0  0  0  0
   -5.8023   -4.5036   -1.5052 H   0  0  0  0  0  0  0  0  0  0  0  0
   -5.7376   -5.5064    0.0286 H   0  0  0  0  0  0  0  0  0  0  0  0
    2.6844    2.2387    0.5130 H   0  0  0  0  0  0  0  0  0  0  0  0
    4.6595    2.2718   -0.3602 H   0  0  0  0  0  0  0  0  0  0  0  0
    4.6569    1.4895    1.2796 H   0  0  0  0  0  0  0  0  0  0  0  0
    6.8112    1.0079   -0.8658 H   0  0  0  0  0  0  0  0  0  0  0  0
    6.9613    1.9687    0.6627 H   0  0  0  0  0  0  0  0  0  0  0  0
    7.8411   -0.2942    0.8820 H   0  0  0  0  0  0  0  0  0  0  0  0
    6.5204    0.1159    2.0536 H   0  0  0  0  0  0  0  0  0  0  0  0
    7.0784   -0.9243   -1.3532 H   0  0  0  0  0  0  0  0  0  0  0  0
    5.7631   -2.1649   -1.3750 H   0  0  0  0  0  0  0  0  0  0  0  0
    7.6483   -3.5166   -1.3229 H   0  0  0  0  0  0  0  0  0  0  0  0
    8.5484   -2.3406   -0.2085 H   0  0  0  0  0  0  0  0  0  0  0  0
    7.7478   -3.8594    1.4311 H   0  0  0  0  0  0  0  0  0  0  0  0
    6.2554   -4.2620    0.4295 H   0  0  0  0  0  0  0  0  0  0  0  0
    6.7805   -2.0183    2.3558 H   0  0  0  0  0  0  0  0  0  0  0  0
    5.2508   -2.7672    1.7832 H   0  0  0  0  0  0  0  0  0  0  0  0
   -3.7088    2.9238    0.7796 H   0  0  0  0  0  0  0  0  0  0  0  0
   -3.5816    4.1450    2.0905 H   0  0  0  0  0  0  0  0  0  0  0  0
   -4.6681    5.4542    0.5320 H   0  0  0  0  0  0  0  0  0  0  0  0
   -4.1837    4.4661   -0.8581 H   0  0  0  0  0  0  0  0  0  0  0  0
   -0.7630    6.9670    1.1481 H   0  0  0  0  0  0  0  0  0  0  0  0
   -2.2642    6.5097    2.1292 H   0  0  0  0  0  0  0  0  0  0  0  0
   -0.8326    4.7692    2.6072 H   0  0  0  0  0  0  0  0  0  0  0  0
   -0.0124    4.8451    1.0353 H   0  0  0  0  0  0  0  0  0  0  0  0
  1  2  1  0
  2  3  1  0
  3  4  2  0
  4  5  1  0
  5  6  2  0
  6  7  1  0
  7  8  1  0
  8  9  1  0
  9 10  1  0
 10 11  1  0
 11 12  1  0
 12 13  1  0
 11 14  1  0
 14 15  1  0
 15 16  1  0
  6 17  1  0
 17 18  2  0
 18 19  1  0
 19 20  2  0
 20 21  1  0
 21 22  2  0
 22 23  1  0
 23 24  1  0
 24 25  1  0
 25 26  1  0
 26 27  1  0
 27 28  1  0
 28 29  1  0
 29 30  1  0
 30 31  1  0
 18 32  1  0
 32 33  1  0
 33 34  1  0
 34 35  1  0
 35 36  2  0
 35 37  2  0
 35 38  1  0
 38 39  1  0
 22  3  1  0
 31 27  1  0
 39 32  1  0
 20  5  1  0
 13  8  1  0
 16 14  1  0
  1 40  1  0
  1 41  1  0
  1 42  1  0
  4 43  1  0
  7 44  1  0
  8 45  1  0
  9 46  1  0
  9 47  1  0
 10 48  1  0
 10 49  1  0
 12 50  1  0
 12 51  1  0
 13 52  1  0
 13 53  1  0
 14 54  1  0
 15 55  1  0
 15 56  1  0
 16 57  1  0
 16 58  1  0
 21 59  1  0
 24 60  1  0
 24 61  1  0
 25 62  1  0
 25 63  1  0
 26 64  1  0
 26 65  1  0
 28 66  1  0
 28 67  1  0
 29 68  1  0
 29 69  1  0
 30 70  1  0
 30 71  1  0
 31 72  1  0
 31 73  1  0
 33 74  1  0
 33 75  1  0
 34 76  1  0
 34 77  1  0
 38 78  1  0
 38 79  1  0
 39 80  1  0
 39 81  1  0
M  END
$$$$
[H]c1c(-c2nn(C([H])([H])[H])c([H])c2[H])nc2c([H])c(OC([H])([H])C([H])([H])C([H])([H])N3C([H])([H])C([H])([H])C([H])([H])C3([H])[H])c(OC([H])([H])[H])c([H])c2c1N([H])C1([H])C([H])([H])C([H])([H])N(C([H])([H])[H])C([H])([H])C1([H])[H]
     RDKit          3D

 73 77  0  0  0  0  0  0  0  0999 V2000
    0.4340   -4.4993   -1.4329 C   0  0  0  0  0  0  0  0  0  0  0  0
    1.3652   -3.4909   -1.1310 O   0  0  0  0  0  0  0  0  0  0  0  0
    1.0064   -2.2628   -0.5979 C   0  0  0  0  0  0  0  0  0  0  0  0
   -0.3599   -2.0602   -0.3648 C   0  0  0  0  0  0  0  0  0  0  0  0
   -0.8096   -0.8688    0.1638 C   0  0  0  0  0  0  0  0  0  0  0  0
   -2.1405   -0.6194    0.4114 C   0  0  0  0  0  0  0  0  0  0  0  0
   -3.1153   -1.5895    0.1516 N   0  0  0  0  0  0  0  0  0  0  0  0
   -4.5588   -1.3129    0.3370 C   0  0  0  0  0  0  0  0  0  0  0  0
   -4.9898   -0.2822   -0.6480 C   0  0  0  0  0  0  0  0  0  0  0  0
   -6.0678   -0.7633   -1.5925 C   0  0  0  0  0  0  0  0  0  0  0  0
   -7.0758   -1.3813   -0.7223 N   0  0  0  0  0  0  0  0  0  0  0  0
   -8.3887   -1.3690   -1.2797 C   0  0  0  0  0  0  0  0  0  0  0  0
   -6.5686   -2.6758   -0.4022 C   0  0  0  0  0  0  0  0  0  0  0  0
   -5.2814   -2.5933    0.3280 C   0  0  0  0  0  0  0  0  0  0  0  0
   -2.4624    0.6259    0.9468 C   0  0  0  0  0  0  0  0  0  0  0  0
   -1.5011    1.5779    1.2222 C   0  0  0  0  0  0  0  0  0  0  0  0
   -0.2151    1.2954    0.9664 N   0  0  0  0  0  0  0  0  0  0  0  0
    0.1635    0.1042    0.4466 C   0  0  0  0  0  0  0  0  0  0  0  0
    1.5052   -0.1260    0.2051 C   0  0  0  0  0  0  0  0  0  0  0  0
    1.9571   -1.3108   -0.3207 C   0  0  0  0  0  0  0  0  0  0  0  0
    3.3093   -1.5419   -0.5625 O   0  0  0  0  0  0  0  0  0  0  0  0
    4.2971   -0.5720   -0.2808 C   0  0  0  0  0  0  0  0  0  0  0  0
    5.6342   -1.1703   -0.6670 C   0  0  0  0  0  0  0  0  0  0  0  0
    6.7744   -0.2389   -0.4152 C   0  0  0  0  0  0  0  0  0  0  0  0
    6.6923    1.0018   -1.1351 N   0  0  0  0  0  0  0  0  0  0  0  0
    7.8441    1.8180   -0.8005 C   0  0  0  0  0  0  0  0  0  0  0  0
    8.9132    1.2564   -1.7017 C   0  0  0  0  0  0  0  0  0  0  0  0
    8.1830    0.9634   -2.9735 C   0  0  0  0  0  0  0  0  0  0  0  0
    6.7328    0.8628   -2.5626 C   0  0  0  0  0  0  0  0  0  0  0  0
   -1.8609    2.8824    1.7873 C   0  0  0  0  0  0  0  0  0  0  0  0
   -0.9835    3.8971    2.0993 C   0  0  0  0  0  0  0  0  0  0  0  0
   -1.6765    4.9648    2.6061 C   0  0  0  0  0  0  0  0  0  0  0  0
   -2.9754    4.5857    2.5970 N   0  0  0  0  0  0  0  0  0  0  0  0
   -4.0387    5.4653    3.0693 C   0  0  0  0  0  0  0  0  0  0  0  0
   -3.0808    3.3465    2.1092 N   0  0  0  0  0  0  0  0  0  0  0  0
   -0.2015   -4.6982   -0.5339 H   0  0  0  0  0  0  0  0  0  0  0  0
   -0.2580   -4.1636   -2.2432 H   0  0  0  0  0  0  0  0  0  0  0  0
    0.9059   -5.4578   -1.6963 H   0  0  0  0  0  0  0  0  0  0  0  0
   -1.0604   -2.8524   -0.6074 H   0  0  0  0  0  0  0  0  0  0  0  0
   -2.8335   -2.5349   -0.1779 H   0  0  0  0  0  0  0  0  0  0  0  0
   -4.6153   -0.8530    1.3513 H   0  0  0  0  0  0  0  0  0  0  0  0
   -5.4049    0.6351   -0.1792 H   0  0  0  0  0  0  0  0  0  0  0  0
   -4.1340    0.0468   -1.2710 H   0  0  0  0  0  0  0  0  0  0  0  0
   -6.4759    0.0659   -2.1667 H   0  0  0  0  0  0  0  0  0  0  0  0
   -5.6482   -1.5663   -2.2286 H   0  0  0  0  0  0  0  0  0  0  0  0
   -8.9788   -0.5889   -0.7240 H   0  0  0  0  0  0  0  0  0  0  0  0
   -8.8875   -2.3445   -0.9995 H   0  0  0  0  0  0  0  0  0  0  0  0
   -8.4379   -1.2598   -2.3615 H   0  0  0  0  0  0  0  0  0  0  0  0
   -7.3365   -3.2461    0.1564 H   0  0  0  0  0  0  0  0  0  0  0  0
   -6.4493   -3.2303   -1.3773 H   0  0  0  0  0  0  0  0  0  0  0  0
   -4.6254   -3.4213   -0.0840 H   0  0  0  0  0  0  0  0  0  0  0  0
   -5.4760   -2.9498    1.3852 H   0  0  0  0  0  0  0  0  0  0  0  0
   -3.4772    0.9008    1.1770 H   0  0  0  0  0  0  0  0  0  0  0  0
    2.2042    0.6703    0.4471 H   0  0  0  0  0  0  0  0  0  0  0  0
    4.1087    0.3448   -0.8748 H   0  0  0  0  0  0  0  0  0  0  0  0
    4.2902   -0.2760    0.7925 H   0  0  0  0  0  0  0  0  0  0  0  0
    5.8165   -2.1016   -0.0660 H   0  0  0  0  0  0  0  0  0  0  0  0
    5.5729   -1.5020   -1.7097 H   0  0  0  0  0  0  0  0  0  0  0  0
    7.7025   -0.7598   -0.7409 H   0  0  0  0  0  0  0  0  0  0  0  0
    6.8795   -0.0652    0.6657 H   0  0  0  0  0  0  0  0  0  0  0  0
    7.6739    2.8773   -1.0907 H   0  0  0  0  0  0  0  0  0  0  0  0
    8.0946    1.7374    0.2787 H   0  0  0  0  0  0  0  0  0  0  0  0
    9.3406    0.3048   -1.3037 H   0  0  0  0  0  0  0  0  0  0  0  0
    9.7375    1.9822   -1.8628 H   0  0  0  0  0  0  0  0  0  0  0  0
    8.5398    0.0188   -3.4536 H   0  0  0  0  0  0  0  0  0  0  0  0
    8.3503    1.8068   -3.6796 H   0  0  0  0  0  0  0  0  0  0  0  0
    6.1805    1.7102   -3.0305 H   0  0  0  0  0  0  0  0  0  0  0  0
    6.3439   -0.0876   -2.9468 H   0  0  0  0  0  0  0  0  0  0  0  0
    0.0842    3.8476    1.9620 H   0  0  0  0  0  0  0  0  0  0  0  0
   -1.2909    5.9149    2.9462 H   0  0  0  0  0  0  0  0  0  0  0  0
   -4.9997    5.2034    2.5929 H   0  0  0  0  0  0  0  0  0  0  0  0
   -4.0936    5.4526    4.1918 H   0  0  0  0  0  0  0  0  0  0  0  0
   -3.8023    6.5206    2.8065 H   0  0  0  0  0  0  0  0  0  0  0  0
  1  2  1  0
  2  3  1  0
  3  4  2  0
  4  5  1  0
  5  6  2  0
  6  7  1  0
  7  8  1  0
  8  9  1  0
  9 10  1  0
 10 11  1  0
 11 12  1  0
 11 13  1  0
 13 14  1  0
  6 15  1  0
 15 16  2  0
 16 17  1  0
 17 18  2  0
 18 19  1  0
 19 20  2  0
 20 21  1  0
 21 22  1  0
 22 23  1  0
 23 24  1  0
 24 25  1  0
 25 26  1  0
 26 27  1  0
 27 28  1  0
 28 29  1  0
 16 30  1  0
 30 31  1  0
 31 32  2  0
 32 33  1  0
 33 34  1  0
 33 35  1  0
 20  3  1  0
 29 25  1  0
 35 30  2  0
 18  5  1  0
 14  8  1  0
  1 36  1  0
  1 37  1  0
  1 38  1  0
  4 39  1  0
  7 40  1  0
  8 41  1  0
  9 42  1  0
  9 43  1  0
 10 44  1  0
 10 45  1  0
 12 46  1  0
 12 47  1  0
 12 48  1  0
 13 49  1  0
 13 50  1  0
 14 51  1  0
 14 52  1  0
 15 53  1  0
 19 54  1  0
 22 55  1  0
 22 56  1  0
 23 57  1  0
 23 58  1  0
 24 59  1  0
 24 60  1  0
 26 61  1  0
 26 62  1  0
 27 63  1  0
 27 64  1  0
 28 65  1  0
 28 66  1  0
 29 67  1  0
 29 68  1  0
 31 69  1  0
 32 70  1  0
 34 71  1  0
 34 72  1  0
 34 73  1  0
M  END
$$$$
[H]c1c(-c2nc3c([H])c(OC([H])([H])C([H])([H])C([H])([H])N4C([H])([H])C([H])([H])C([H])([H])C4([H])[H])c(OC([H])([H])[H])c([H])c3c(N([H])C([H])([H])C3([H])C([H])([H])C([H])([H])N(C([H])(C([H])([H])[H])C([H])([H])[H])C([H])([H])C3([H])[H])c2[H])oc(C([H])([H])[H])c1[H]
     RDKit          3D

 82 86  0  0  0  0  0  0  0  0999 V2000
    0.6764   -2.9352    1.2924 C   0  0  0  0  0  0  0  0  0  0  0  0
    1.7680   -2.0456    1.1557 O   0  0  0  0  0  0  0  0  0  0  0  0
    1.5419   -0.7183    0.8235 C   0  0  0  0  0  0  0  0  0  0  0  0
    0.2447   -0.2570    0.6237 C   0  0  0  0  0  0  0  0  0  0  0  0
    0.0101    1.0701    0.2913 C   0  0  0  0  0  0  0  0  0  0  0  0
   -1.2736    1.5368    0.0914 C   0  0  0  0  0  0  0  0  0  0  0  0
   -2.4241    0.7268    0.2029 N   0  0  0  0  0  0  0  0  0  0  0  0
   -3.7190    1.3032   -0.0226 C   0  0  0  0  0  0  0  0  0  0  0  0
   -4.8409    0.3120    0.1255 C   0  0  0  0  0  0  0  0  0  0  0  0
   -4.9087   -0.3025    1.4840 C   0  0  0  0  0  0  0  0  0  0  0  0
   -6.0642   -1.2199    1.6273 C   0  0  0  0  0  0  0  0  0  0  0  0
   -6.4756   -1.9598    0.4972 N   0  0  0  0  0  0  0  0  0  0  0  0
   -6.0310   -1.5970   -0.7666 C   0  0  0  0  0  0  0  0  0  0  0  0
   -4.7297   -0.8329   -0.8572 C   0  0  0  0  0  0  0  0  0  0  0  0
   -6.8409   -3.3186    0.7379 C   0  0  0  0  0  0  0  0  0  0  0  0
   -8.0228   -3.4547    1.6687 C   0  0  0  0  0  0  0  0  0  0  0  0
   -7.2471   -3.9896   -0.5567 C   0  0  0  0  0  0  0  0  0  0  0  0
   -1.3924    2.8934   -0.2394 C   0  0  0  0  0  0  0  0  0  0  0  0
   -0.3178    3.7345   -0.3651 C   0  0  0  0  0  0  0  0  0  0  0  0
    0.8958    3.2315   -0.1616 N   0  0  0  0  0  0  0  0  0  0  0  0
    1.0889    1.9321    0.1607 C   0  0  0  0  0  0  0  0  0  0  0  0
    2.3620    1.4277    0.3691 C   0  0  0  0  0  0  0  0  0  0  0  0
    2.6278    0.1181    0.6995 C   0  0  0  0  0  0  0  0  0  0  0  0
    3.9190   -0.3435    0.8987 O   0  0  0  0  0  0  0  0  0  0  0  0
    5.0624    0.4471    0.7867 C   0  0  0  0  0  0  0  0  0  0  0  0
    6.3302   -0.3624    1.0699 C   0  0  0  0  0  0  0  0  0  0  0  0
    6.3686   -1.4755    0.0543 C   0  0  0  0  0  0  0  0  0  0  0  0
    7.5023   -2.3378    0.1776 N   0  0  0  0  0  0  0  0  0  0  0  0
    7.4251   -3.3525   -0.8349 C   0  0  0  0  0  0  0  0  0  0  0  0
    8.7319   -3.3120   -1.6049 C   0  0  0  0  0  0  0  0  0  0  0  0
    9.6707   -2.7665   -0.5348 C   0  0  0  0  0  0  0  0  0  0  0  0
    8.7694   -1.6861    0.0791 C   0  0  0  0  0  0  0  0  0  0  0  0
   -0.5253    5.1411   -0.7125 C   0  0  0  0  0  0  0  0  0  0  0  0
   -1.7241    5.7434   -0.9383 C   0  0  0  0  0  0  0  0  0  0  0  0
   -1.4736    7.0489   -1.2300 C   0  0  0  0  0  0  0  0  0  0  0  0
   -0.0986    7.2048   -1.1716 C   0  0  0  0  0  0  0  0  0  0  0  0
    0.5772    8.5013   -1.4316 C   0  0  0  0  0  0  0  0  0  0  0  0
    0.4020    6.0431   -0.8618 O   0  0  0  0  0  0  0  0  0  0  0  0
    0.1002   -2.6635    2.2002 H   0  0  0  0  0  0  0  0  0  0  0  0
   -0.0026   -2.8532    0.4261 H   0  0  0  0  0  0  0  0  0  0  0  0
    1.0207   -3.9966    1.3226 H   0  0  0  0  0  0  0  0  0  0  0  0
   -0.5807   -0.9178    0.7237 H   0  0  0  0  0  0  0  0  0  0  0  0
   -2.3816   -0.2705    0.4411 H   0  0  0  0  0  0  0  0  0  0  0  0
   -3.8235    1.7628   -1.0286 H   0  0  0  0  0  0  0  0  0  0  0  0
   -3.8913    2.1048    0.7237 H   0  0  0  0  0  0  0  0  0  0  0  0
   -5.7975    0.8315   -0.0834 H   0  0  0  0  0  0  0  0  0  0  0  0
   -5.0248    0.5374    2.2292 H   0  0  0  0  0  0  0  0  0  0  0  0
   -3.9304   -0.7635    1.7420 H   0  0  0  0  0  0  0  0  0  0  0  0
   -6.9459   -0.6116    1.9875 H   0  0  0  0  0  0  0  0  0  0  0  0
   -5.8427   -1.8992    2.5033 H   0  0  0  0  0  0  0  0  0  0  0  0
   -6.7989   -0.9219   -1.2507 H   0  0  0  0  0  0  0  0  0  0  0  0
   -5.9664   -2.4639   -1.4546 H   0  0  0  0  0  0  0  0  0  0  0  0
   -3.8588   -1.4541   -0.5587 H   0  0  0  0  0  0  0  0  0  0  0  0
   -4.5961   -0.4980   -1.9023 H   0  0  0  0  0  0  0  0  0  0  0  0
   -5.9733   -3.8691    1.1667 H   0  0  0  0  0  0  0  0  0  0  0  0
   -8.5011   -4.4335    1.4645 H   0  0  0  0  0  0  0  0  0  0  0  0
   -8.7416   -2.6610    1.4205 H   0  0  0  0  0  0  0  0  0  0  0  0
   -7.7198   -3.4727    2.7358 H   0  0  0  0  0  0  0  0  0  0  0  0
   -6.3857   -4.4117   -1.1179 H   0  0  0  0  0  0  0  0  0  0  0  0
   -7.7913   -3.3151   -1.2488 H   0  0  0  0  0  0  0  0  0  0  0  0
   -7.9507   -4.8337   -0.3666 H   0  0  0  0  0  0  0  0  0  0  0  0
   -2.3749    3.3171   -0.4079 H   0  0  0  0  0  0  0  0  0  0  0  0
    3.1962    2.1095    0.2644 H   0  0  0  0  0  0  0  0  0  0  0  0
    4.9957    1.3190    1.4892 H   0  0  0  0  0  0  0  0  0  0  0  0
    5.1146    0.8832   -0.2422 H   0  0  0  0  0  0  0  0  0  0  0  0
    6.1990   -0.7972    2.0810 H   0  0  0  0  0  0  0  0  0  0  0  0
    7.2212    0.2597    1.0730 H   0  0  0  0  0  0  0  0  0  0  0  0
    6.3437   -1.0709   -0.9830 H   0  0  0  0  0  0  0  0  0  0  0  0
    5.4576   -2.0990    0.1598 H   0  0  0  0  0  0  0  0  0  0  0  0
    7.3834   -4.3522   -0.3272 H   0  0  0  0  0  0  0  0  0  0  0  0
    6.5576   -3.2127   -1.5322 H   0  0  0  0  0  0  0  0  0  0  0  0
    8.7066   -2.5523   -2.4177 H   0  0  0  0  0  0  0  0  0  0  0  0
    9.0390   -4.3091   -1.9651 H   0  0  0  0  0  0  0  0  0  0  0  0
   10.5797   -2.3419   -0.9562 H   0  0  0  0  0  0  0  0  0  0  0  0
    9.8424   -3.5990    0.1850 H   0  0  0  0  0  0  0  0  0  0  0  0
    8.7987   -0.8437   -0.6386 H   0  0  0  0  0  0  0  0  0  0  0  0
    9.2222   -1.4461    1.0622 H   0  0  0  0  0  0  0  0  0  0  0  0
   -2.7319    5.2999   -0.9030 H   0  0  0  0  0  0  0  0  0  0  0  0
   -2.2210    7.8117   -1.4623 H   0  0  0  0  0  0  0  0  0  0  0  0
    1.4525    8.5528   -0.7552 H   0  0  0  0  0  0  0  0  0  0  0  0
    0.8337    8.6486   -2.4902 H   0  0  0  0  0  0  0  0  0  0  0  0
   -0.0969    9.3483   -1.1306 H   0  0  0  0  0  0  0  0  0  0  0  0
  1  2  1  0
  2  3  1  0
  3  4  2  0
  4  5  1  0
  5  6  2  0
  6  7  1  0
  7  8  1  0
  8  9  1  0
  9 10  1  0
 10 11  1  0
 11 12  1  0
 12 13  1  0
 13 14  1  0
 12 15  1  0
 15 16  1  0
 15 17  1  0
  6 18  1  0
 18 19  2  0
 19 20  1  0
 20 21  2  0
 21 22  1  0
 22 23  2  0
 23 24  1  0
 24 25  1  0
 25 26  1  0
 26 27  1  0
 27 28  1  0
 28 29  1  0
 29 30  1  0
 30 31  1  0
 31 32  1  0
 19 33  1  0
 33 34  2  0
 34 35  1  0
 35 36  2  0
 36 37  1  0
 36 38  1  0
 23  3  1  0
 32 28  1  0
 38 33  1  0
 21  5  1  0
 14  9  1  0
  1 39  1  0
  1 40  1  0
  1 41  1  0
  4 42  1  0
  7 43  1  0
  8 44  1  0
  8 45  1  0
  9 46  1  0
 10 47  1  0
 10 48  1  0
 11 49  1  0
 11 50  1  0
 13 51  1  0
 13 52  1  0
 14 53  1  0
 14 54  1  0
 15 55  1  0
 16 56  1  0
 16 57  1  0
 16 58  1  0
 17 59  1  0
 17 60  1  0
 17 61  1  0
 18 62  1  0
 22 63  1  0
 25 64  1  0
 25 65  1  0
 26 66  1  0
 26 67  1  0
 27 68  1  0
 27 69  1  0
 29 70  1  0
 29 71  1  0
 30 72  1  0
 30 73  1  0
 31 74  1  0
 31 75  1  0
 32 76  1  0
 32 77  1  0
 34 78  1  0
 35 79  1  0
 37 80  1  0
 37 81  1  0
 37 82  1  0
M  END
$$$$
[H]c1c(OC([H])([H])C([H])([H])C([H])([H])N2C([H])([H])C([H])([H])C([H])([H])C([H])([H])C2([H])[H])c(OC([H])([H])[H])c([H])c2c(N([H])C3([H])C([H])([H])C([H])([H])N(C4([H])C([H])([H])C([H])([H])C([H])([H])C([H])([H])C4([H])[H])C([H])([H])C3([H])[H])nc(N3C([H])([H])C([H])([H])N(C([H])(C([H])([H])[H])C([H])([H])[H])C([H])([H])C([H])([H])C3([H])[H])nc12
     RDKit          3D

104109  0  0  0  0  0  0  0  0999 V2000
   -1.9324   -4.8103    0.2822 C   0  0  0  0  0  0  0  0  0  0  0  0
   -2.8702   -3.7726    0.0694 O   0  0  0  0  0  0  0  0  0  0  0  0
   -2.4265   -2.4704   -0.1154 C   0  0  0  0  0  0  0  0  0  0  0  0
   -1.0542   -2.1951   -0.0898 C   0  0  0  0  0  0  0  0  0  0  0  0
   -0.5285   -0.9444   -0.2624 C   0  0  0  0  0  0  0  0  0  0  0  0
    0.8242   -0.6906   -0.2308 C   0  0  0  0  0  0  0  0  0  0  0  0
    1.7519   -1.7144   -0.0346 N   0  0  0  0  0  0  0  0  0  0  0  0
    3.1789   -1.5505    0.0328 C   0  0  0  0  0  0  0  0  0  0  0  0
    3.5762   -0.7084    1.2574 C   0  0  0  0  0  0  0  0  0  0  0  0
    5.1021   -0.6685    1.3125 C   0  0  0  0  0  0  0  0  0  0  0  0
    5.6817   -1.4521    0.2793 N   0  0  0  0  0  0  0  0  0  0  0  0
    5.3353   -1.0962   -1.0272 C   0  0  0  0  0  0  0  0  0  0  0  0
    3.8268   -0.9086   -1.1388 C   0  0  0  0  0  0  0  0  0  0  0  0
    6.9532   -1.9873    0.5647 C   0  0  0  0  0  0  0  0  0  0  0  0
    6.9623   -2.9607    1.7202 C   0  0  0  0  0  0  0  0  0  0  0  0
    8.1421   -3.8723    1.6071 C   0  0  0  0  0  0  0  0  0  0  0  0
    9.3807   -3.1394    1.1318 C   0  0  0  0  0  0  0  0  0  0  0  0
    9.1444   -2.6830   -0.2696 C   0  0  0  0  0  0  0  0  0  0  0  0
    7.6504   -2.5871   -0.6007 C   0  0  0  0  0  0  0  0  0  0  0  0
    1.2158    0.6066   -0.4136 N   0  0  0  0  0  0  0  0  0  0  0  0
    0.3676    1.6212   -0.6179 C   0  0  0  0  0  0  0  0  0  0  0  0
   -0.9417    1.3239   -0.6405 N   0  0  0  0  0  0  0  0  0  0  0  0
   -1.4519    0.0915   -0.4740 C   0  0  0  0  0  0  0  0  0  0  0  0
   -2.8023   -0.1374   -0.5059 C   0  0  0  0  0  0  0  0  0  0  0  0
   -3.2764   -1.4145   -0.3265 C   0  0  0  0  0  0  0  0  0  0  0  0
   -4.6465   -1.6288   -0.3608 O   0  0  0  0  0  0  0  0  0  0  0  0
   -5.5262   -0.5465   -0.5745 C   0  0  0  0  0  0  0  0  0  0  0  0
   -6.9428   -1.0842   -0.5565 C   0  0  0  0  0  0  0  0  0  0  0  0
   -7.1944   -1.7217    0.7837 C   0  0  0  0  0  0  0  0  0  0  0  0
   -8.5393   -2.2230    0.8258 N   0  0  0  0  0  0  0  0  0  0  0  0
   -9.5071   -1.1809    0.8407 C   0  0  0  0  0  0  0  0  0  0  0  0
  -10.5853   -1.4785   -0.2092 C   0  0  0  0  0  0  0  0  0  0  0  0
  -11.2230   -2.8174    0.1606 C   0  0  0  0  0  0  0  0  0  0  0  0
  -10.1658   -3.8841    0.0696 C   0  0  0  0  0  0  0  0  0  0  0  0
   -8.7788   -3.2867   -0.0940 C   0  0  0  0  0  0  0  0  0  0  0  0
    0.8262    2.9681   -0.8076 N   0  0  0  0  0  0  0  0  0  0  0  0
   -0.2136    3.9204   -1.0502 C   0  0  0  0  0  0  0  0  0  0  0  0
    0.1427    4.9686   -2.0871 C   0  0  0  0  0  0  0  0  0  0  0  0
    0.9062    6.0991   -1.4174 C   0  0  0  0  0  0  0  0  0  0  0  0
    1.5954    5.5143   -0.2783 N   0  0  0  0  0  0  0  0  0  0  0  0
    2.6170    4.6007   -0.6577 C   0  0  0  0  0  0  0  0  0  0  0  0
    2.2433    3.1653   -0.7284 C   0  0  0  0  0  0  0  0  0  0  0  0
    1.9356    6.4488    0.7431 C   0  0  0  0  0  0  0  0  0  0  0  0
    0.7046    7.0910    1.3597 C   0  0  0  0  0  0  0  0  0  0  0  0
    2.8356    7.5381    0.1727 C   0  0  0  0  0  0  0  0  0  0  0  0
   -2.4516   -5.7507    0.5538 H   0  0  0  0  0  0  0  0  0  0  0  0
   -1.3302   -5.0242   -0.6124 H   0  0  0  0  0  0  0  0  0  0  0  0
   -1.2958   -4.5388    1.1524 H   0  0  0  0  0  0  0  0  0  0  0  0
   -0.3886   -3.0281    0.0781 H   0  0  0  0  0  0  0  0  0  0  0  0
    1.4087   -2.7041    0.0758 H   0  0  0  0  0  0  0  0  0  0  0  0
    3.7110   -2.5345    0.1865 H   0  0  0  0  0  0  0  0  0  0  0  0
    3.2357    0.3260    1.1060 H   0  0  0  0  0  0  0  0  0  0  0  0
    3.1283   -1.0882    2.1763 H   0  0  0  0  0  0  0  0  0  0  0  0
    5.4067    0.3839    1.1725 H   0  0  0  0  0  0  0  0  0  0  0  0
    5.3810   -0.9672    2.3296 H   0  0  0  0  0  0  0  0  0  0  0  0
    5.5918   -1.9571   -1.7118 H   0  0  0  0  0  0  0  0  0  0  0  0
    5.8742   -0.2098   -1.4372 H   0  0  0  0  0  0  0  0  0  0  0  0
    3.4409   -1.3860   -2.0799 H   0  0  0  0  0  0  0  0  0  0  0  0
    3.6025    0.1746   -1.2393 H   0  0  0  0  0  0  0  0  0  0  0  0
    7.6007   -1.1247    0.9131 H   0  0  0  0  0  0  0  0  0  0  0  0
    7.0421   -2.4346    2.7132 H   0  0  0  0  0  0  0  0  0  0  0  0
    6.0384   -3.6014    1.6755 H   0  0  0  0  0  0  0  0  0  0  0  0
    8.4167   -4.3484    2.5754 H   0  0  0  0  0  0  0  0  0  0  0  0
    7.9736   -4.7084    0.8861 H   0  0  0  0  0  0  0  0  0  0  0  0
    9.6659   -2.3247    1.8294 H   0  0  0  0  0  0  0  0  0  0  0  0
   10.2151   -3.8672    1.1503 H   0  0  0  0  0  0  0  0  0  0  0  0
    9.6467   -1.6986   -0.3921 H   0  0  0  0  0  0  0  0  0  0  0  0
    9.6203   -3.4103   -0.9620 H   0  0  0  0  0  0  0  0  0  0  0  0
    7.6013   -1.9466   -1.5094 H   0  0  0  0  0  0  0  0  0  0  0  0
    7.2807   -3.6086   -0.8086 H   0  0  0  0  0  0  0  0  0  0  0  0
   -3.4514    0.7165   -0.6752 H   0  0  0  0  0  0  0  0  0  0  0  0
   -5.3247   -0.0422   -1.5626 H   0  0  0  0  0  0  0  0  0  0  0  0
   -5.4452    0.2268    0.1923 H   0  0  0  0  0  0  0  0  0  0  0  0
   -7.6448   -0.2783   -0.7701 H   0  0  0  0  0  0  0  0  0  0  0  0
   -6.9888   -1.8751   -1.3559 H   0  0  0  0  0  0  0  0  0  0  0  0
   -6.5033   -2.5862    0.9231 H   0  0  0  0  0  0  0  0  0  0  0  0
   -6.9817   -0.9953    1.5968 H   0  0  0  0  0  0  0  0  0  0  0  0
   -9.0575   -0.2090    0.6467 H   0  0  0  0  0  0  0  0  0  0  0  0
  -10.0084   -1.2266    1.8460 H   0  0  0  0  0  0  0  0  0  0  0  0
  -11.3272   -0.6501   -0.1475 H   0  0  0  0  0  0  0  0  0  0  0  0
  -10.1359   -1.5345   -1.1995 H   0  0  0  0  0  0  0  0  0  0  0  0
  -11.5740   -2.7801    1.2248 H   0  0  0  0  0  0  0  0  0  0  0  0
  -12.0566   -3.0115   -0.5132 H   0  0  0  0  0  0  0  0  0  0  0  0
  -10.3639   -4.4378   -0.8858 H   0  0  0  0  0  0  0  0  0  0  0  0
  -10.2436   -4.5620    0.9156 H   0  0  0  0  0  0  0  0  0  0  0  0
   -8.6811   -2.9590   -1.1386 H   0  0  0  0  0  0  0  0  0  0  0  0
   -8.0451   -4.0923    0.1228 H   0  0  0  0  0  0  0  0  0  0  0  0
   -1.1739    3.4491   -1.3535 H   0  0  0  0  0  0  0  0  0  0  0  0
   -0.3582    4.4873   -0.0832 H   0  0  0  0  0  0  0  0  0  0  0  0
   -0.8111    5.3888   -2.4557 H   0  0  0  0  0  0  0  0  0  0  0  0
    0.6870    4.5458   -2.9361 H   0  0  0  0  0  0  0  0  0  0  0  0
    1.6819    6.4637   -2.1205 H   0  0  0  0  0  0  0  0  0  0  0  0
    0.2166    6.8956   -1.1469 H   0  0  0  0  0  0  0  0  0  0  0  0
    3.1074    4.9373   -1.6219 H   0  0  0  0  0  0  0  0  0  0  0  0
    3.4496    4.7085    0.0997 H   0  0  0  0  0  0  0  0  0  0  0  0
    2.5769    2.6717    0.2366 H   0  0  0  0  0  0  0  0  0  0  0  0
    2.7828    2.6535   -1.5763 H   0  0  0  0  0  0  0  0  0  0  0  0
    2.4925    5.9452    1.5294 H   0  0  0  0  0  0  0  0  0  0  0  0
   -0.0020    6.2813    1.6149 H   0  0  0  0  0  0  0  0  0  0  0  0
    1.0155    7.5612    2.3138 H   0  0  0  0  0  0  0  0  0  0  0  0
    0.2605    7.8773    0.7234 H   0  0  0  0  0  0  0  0  0  0  0  0
    3.6077    7.0874   -0.4757 H   0  0  0  0  0  0  0  0  0  0  0  0
    2.2319    8.2860   -0.3963 H   0  0  0  0  0  0  0  0  0  0  0  0
    3.3589    8.0924    0.9636 H   0  0  0  0  0  0  0  0  0  0  0  0
  1  2  1  0
  2  3  1  0
  3  4  2  0
  4  5  1  0
  5  6  2  0
  6  7  1  0
  7  8  1  0
  8  9  1  0
  9 10  1  0
 10 11  1  0
 11 12  1  0
 12 13  1  0
 11 14  1  0
 14 15  1  0
 15 16  1  0
 16 17  1  0
 17 18  1  0
 18 19  1  0
  6 20  1  0
 20 21  2  0
 21 22  1  0
 22 23  2  0
 23 24  1  0
 24 25  2  0
 25 26  1  0
 26 27  1  0
 27 28  1  0
 28 29  1  0
 29 30  1  0
 30 31  1  0
 31 32  1  0
 32 33  1  0
 33 34  1  0
 34 35  1  0
 21 36  1  0
 36 37  1  0
 37 38  1  0
 38 39  1  0
 39 40  1  0
 40 41  1  0
 41 42  1  0
 40 43  1  0
 43 44  1  0
 43 45  1  0
 25  3  1  0
 35 30  1  0
 42 36  1  0
 23  5  1  0
 13  8  1  0
 19 14  1  0
  1 46  1  0
  1 47  1  0
  1 48  1  0
  4 49  1  0
  7 50  1  0
  8 51  1  0
  9 52  1  0
  9 53  1  0
 10 54  1  0
 10 55  1  0
 12 56  1  0
 12 57  1  0
 13 58  1  0
 13 59  1  0
 14 60  1  0
 15 61  1  0
 15 62  1  0
 16 63  1  0
 16 64  1  0
 17 65  1  0
 17 66  1  0
 18 67  1  0
 18 68  1  0
 19 69  1  0
 19 70  1  0
 24 71  1  0
 27 72  1  0
 27 73  1  0
 28 74  1  0
 28 75  1  0
 29 76  1  0
 29 77  1  0
 31 78  1  0
 31 79  1  0
 32 80  1  0
 32 81  1  0
 33 82  1  0
 33 83  1  0
 34 84  1  0
 34 85  1  0
 35 86  1  0
 35 87  1  0
 37 88  1  0
 37 89  1  0
 38 90  1  0
 38 91  1  0
 39 92  1  0
 39 93  1  0
 41 94  1  0
 41 95  1  0
 42 96  1  0
 42 97  1  0
 43 98  1  0
 44 99  1  0
 44100  1  0
 44101  1  0
 45102  1  0
 45103  1  0
 45104  1  0
M  END
$$$$
[H]c1c(OC([H])([H])C([H])([H])C([H])([H])N2C([H])([H])C([H])([H])C([H])([H])C([H])([H])C2([H])[H])c(OC([H])([H])[H])c([H])c2c(N([H])C3([H])C([H])([H])C([H])([H])N(C([H])(C([H])([H])[H])C([H])([H])[H])C([H])([H])C3([H])[H])nc(N3C([H])([H])C([H])([H])C([H])([H])C([H])([H])C([H])([H])C3([H])[H])nc12
     RDKit          3D

 89 93  0  0  0  0  0  0  0  0999 V2000
    1.8709   -3.8253   -2.2694 C   0  0  0  0  0  0  0  0  0  0  0  0
    2.4247   -2.5539   -2.0649 O   0  0  0  0  0  0  0  0  0  0  0  0
    1.7970   -1.4414   -1.5707 C   0  0  0  0  0  0  0  0  0  0  0  0
    0.4731   -1.4594   -1.1894 C   0  0  0  0  0  0  0  0  0  0  0  0
   -0.1742   -0.3374   -0.6920 C   0  0  0  0  0  0  0  0  0  0  0  0
   -1.4944   -0.3182   -0.3302 C   0  0  0  0  0  0  0  0  0  0  0  0
   -2.2778   -1.4735   -0.3617 N   0  0  0  0  0  0  0  0  0  0  0  0
   -3.6552   -1.6077   -0.0196 C   0  0  0  0  0  0  0  0  0  0  0  0
   -4.0625   -1.1518    1.3447 C   0  0  0  0  0  0  0  0  0  0  0  0
   -5.5556   -1.4250    1.4803 C   0  0  0  0  0  0  0  0  0  0  0  0
   -6.1498   -1.9411    0.3254 N   0  0  0  0  0  0  0  0  0  0  0  0
   -5.9748   -1.2651   -0.8713 C   0  0  0  0  0  0  0  0  0  0  0  0
   -4.5059   -0.8904   -1.0429 C   0  0  0  0  0  0  0  0  0  0  0  0
   -6.7623   -3.1977    0.3651 C   0  0  0  0  0  0  0  0  0  0  0  0
   -6.7263   -3.8859   -0.9847 C   0  0  0  0  0  0  0  0  0  0  0  0
   -8.2054   -3.1539    0.8575 C   0  0  0  0  0  0  0  0  0  0  0  0
   -2.0207    0.8332    0.1058 N   0  0  0  0  0  0  0  0  0  0  0  0
   -1.3469    1.9642    0.2146 C   0  0  0  0  0  0  0  0  0  0  0  0
   -0.0541    1.9355   -0.1367 N   0  0  0  0  0  0  0  0  0  0  0  0
    0.5743    0.8347   -0.5876 C   0  0  0  0  0  0  0  0  0  0  0  0
    1.8979    0.8390   -0.9697 C   0  0  0  0  0  0  0  0  0  0  0  0
    2.5501   -0.2664   -1.4642 C   0  0  0  0  0  0  0  0  0  0  0  0
    3.8745   -0.2802   -1.8490 O   0  0  0  0  0  0  0  0  0  0  0  0
    4.7589    0.8124   -1.7689 C   0  0  0  0  0  0  0  0  0  0  0  0
    6.1162    0.4204   -2.3233 C   0  0  0  0  0  0  0  0  0  0  0  0
    6.7033   -0.7496   -1.6159 C   0  0  0  0  0  0  0  0  0  0  0  0
    6.9306   -0.5995   -0.2149 N   0  0  0  0  0  0  0  0  0  0  0  0
    7.4260   -1.9108    0.2453 C   0  0  0  0  0  0  0  0  0  0  0  0
    7.5250   -1.9869    1.7321 C   0  0  0  0  0  0  0  0  0  0  0  0
    8.3300   -0.7998    2.2179 C   0  0  0  0  0  0  0  0  0  0  0  0
    8.9653   -0.1544    1.0063 C   0  0  0  0  0  0  0  0  0  0  0  0
    7.9159    0.4239    0.0862 C   0  0  0  0  0  0  0  0  0  0  0  0
   -1.9812    3.2167    0.6497 N   0  0  0  0  0  0  0  0  0  0  0  0
   -1.0432    4.0602    1.2399 C   0  0  0  0  0  0  0  0  0  0  0  0
   -1.3041    5.0905    2.2799 C   0  0  0  0  0  0  0  0  0  0  0  0
   -2.4178    6.1119    1.8411 C   0  0  0  0  0  0  0  0  0  0  0  0
   -3.2862    5.3604    1.0260 C   0  0  0  0  0  0  0  0  0  0  0  0
   -4.0676    4.5367    0.2048 C   0  0  0  0  0  0  0  0  0  0  0  0
   -3.4031    3.1191    0.2771 C   0  0  0  0  0  0  0  0  0  0  0  0
    2.1177   -4.4632   -1.4059 H   0  0  0  0  0  0  0  0  0  0  0  0
    0.7621   -3.7801   -2.4563 H   0  0  0  0  0  0  0  0  0  0  0  0
    2.3871   -4.2985   -3.1432 H   0  0  0  0  0  0  0  0  0  0  0  0
   -0.0592   -2.3827   -1.2863 H   0  0  0  0  0  0  0  0  0  0  0  0
   -1.8141   -2.3850   -0.6720 H   0  0  0  0  0  0  0  0  0  0  0  0
   -3.9912   -2.6968   -0.0952 H   0  0  0  0  0  0  0  0  0  0  0  0
   -3.5480   -1.7603    2.1212 H   0  0  0  0  0  0  0  0  0  0  0  0
   -3.8500   -0.0866    1.5155 H   0  0  0  0  0  0  0  0  0  0  0  0
   -6.0253   -0.4565    1.8222 H   0  0  0  0  0  0  0  0  0  0  0  0
   -5.7400   -2.1430    2.3294 H   0  0  0  0  0  0  0  0  0  0  0  0
   -6.2344   -1.8763   -1.7788 H   0  0  0  0  0  0  0  0  0  0  0  0
   -6.5973   -0.3291   -0.9809 H   0  0  0  0  0  0  0  0  0  0  0  0
   -4.4249    0.1981   -0.8287 H   0  0  0  0  0  0  0  0  0  0  0  0
   -4.1543   -1.0375   -2.0728 H   0  0  0  0  0  0  0  0  0  0  0  0
   -6.2442   -3.8746    1.0897 H   0  0  0  0  0  0  0  0  0  0  0  0
   -6.9128   -4.9833   -0.7882 H   0  0  0  0  0  0  0  0  0  0  0  0
   -5.6955   -3.7992   -1.4175 H   0  0  0  0  0  0  0  0  0  0  0  0
   -7.5008   -3.4958   -1.6737 H   0  0  0  0  0  0  0  0  0  0  0  0
   -8.6343   -2.1724    0.5913 H   0  0  0  0  0  0  0  0  0  0  0  0
   -8.2393   -3.2666    1.9561 H   0  0  0  0  0  0  0  0  0  0  0  0
   -8.7564   -3.9708    0.3634 H   0  0  0  0  0  0  0  0  0  0  0  0
    2.4439    1.7635   -0.8707 H   0  0  0  0  0  0  0  0  0  0  0  0
    4.3366    1.6632   -2.3379 H   0  0  0  0  0  0  0  0  0  0  0  0
    4.8831    1.1632   -0.7051 H   0  0  0  0  0  0  0  0  0  0  0  0
    5.9425    0.1108   -3.3911 H   0  0  0  0  0  0  0  0  0  0  0  0
    6.8178    1.2526   -2.3485 H   0  0  0  0  0  0  0  0  0  0  0  0
    6.1269   -1.6898   -1.7648 H   0  0  0  0  0  0  0  0  0  0  0  0
    7.7040   -0.9503   -2.0849 H   0  0  0  0  0  0  0  0  0  0  0  0
    8.3241   -2.2361   -0.3064 H   0  0  0  0  0  0  0  0  0  0  0  0
    6.6155   -2.6252   -0.1072 H   0  0  0  0  0  0  0  0  0  0  0  0
    8.0630   -2.9428    1.9678 H   0  0  0  0  0  0  0  0  0  0  0  0
    6.5261   -2.0433    2.2120 H   0  0  0  0  0  0  0  0  0  0  0  0
    7.6431   -0.0839    2.7316 H   0  0  0  0  0  0  0  0  0  0  0  0
    9.1036   -1.1845    2.8939 H   0  0  0  0  0  0  0  0  0  0  0  0
    9.6084   -0.8895    0.4901 H   0  0  0  0  0  0  0  0  0  0  0  0
    9.5685    0.7026    1.3866 H   0  0  0  0  0  0  0  0  0  0  0  0
    7.4306    1.2552    0.6268 H   0  0  0  0  0  0  0  0  0  0  0  0
    8.4223    0.7738   -0.8445 H   0  0  0  0  0  0  0  0  0  0  0  0
   -0.2029    3.4450    1.6950 H   0  0  0  0  0  0  0  0  0  0  0  0
   -0.4862    4.5866    0.3983 H   0  0  0  0  0  0  0  0  0  0  0  0
   -1.6001    4.6506    3.2672 H   0  0  0  0  0  0  0  0  0  0  0  0
   -0.3854    5.6569    2.4396 H   0  0  0  0  0  0  0  0  0  0  0  0
   -2.8539    6.4990    2.8043 H   0  0  0  0  0  0  0  0  0  0  0  0
   -1.9360    7.0205    1.4152 H   0  0  0  0  0  0  0  0  0  0  0  0
   -2.4338    5.2384    0.2748 H   0  0  0  0  0  0  0  0  0  0  0  0
   -3.4168    4.6063    1.8784 H   0  0  0  0  0  0  0  0  0  0  0  0
   -5.1510    4.4178    0.5283 H   0  0  0  0  0  0  0  0  0  0  0  0
   -4.1948    4.7931   -0.8728 H   0  0  0  0  0  0  0  0  0  0  0  0
   -3.9781    2.5356    1.0079 H   0  0  0  0  0  0  0  0  0  0  0  0
   -3.4305    2.6876   -0.7458 H   0  0  0  0  0  0  0  0  0  0  0  0
  1  2  1  0
  2  3  1  0
  3  4  2  0
  4  5  1  0
  5  6  2  0
  6  7  1  0
  7  8  1  0
  8  9  1  0
  9 10  1  0
 10 11  1  0
 11 12  1  0
 12 13  1  0
 11 14  1  0
 14 15  1  0
 14 16  1  0
  6 17  1  0
 17 18  2  0
 18 19  1  0
 19 20  2  0
 20 21  1  0
 21 22  2  0
 22 23  1  0
 23 24  1  0
 24 25  1  0
 25 26  1  0
 26 27  1  0
 27 28  1  0
 28 29  1  0
 29 30  1  0
 30 31  1  0
 31 32  1  0
 18 33  1  0
 33 34  1  0
 34 35  1  0
 35 36  1  0
 36 37  1  0
 37 38  1  0
 38 39  1  0
 22  3  1  0
 32 27  1  0
 39 33  1  0
 20  5  1  0
 13  8  1  0
  1 40  1  0
  1 41  1  0
  1 42  1  0
  4 43  1  0
  7 44  1  0
  8 45  1  0
  9 46  1  0
  9 47  1  0
 10 48  1  0
 10 49  1  0
 12 50  1  0
 12 51  1  0
 13 52  1  0
 13 53  1  0
 14 54  1  0
 15 55  1  0
 15 56  1  0
 15 57  1  0
 16 58  1  0
 16 59  1  0
 16 60  1  0
 21 61  1  0
 24 62  1  0
 24 63  1  0
 25 64  1  0
 25 65  1  0
 26 66  1  0
 26 67  1  0
 28 68  1  0
 28 69  1  0
 29 70  1  0
 29 71  1  0
 30 72  1  0
 30 73  1  0
 31 74  1  0
 31 75  1  0
 32 76  1  0
 32 77  1  0
 34 78  1  0
 34 79  1  0
 35 80  1  0
 35 81  1  0
 36 82  1  0
 36 83  1  0
 37 84  1  0
 37 85  1  0
 38 86  1  0
 38 87  1  0
 39 88  1  0
 39 89  1  0
M  END
$$$$
[H]c1c(-c2nc3c([H])c(OC([H])([H])C([H])([H])C([H])([H])N4C([H])([H])C([H])([H])C([H])([H])C4([H])[H])c(OC([H])([H])[H])c([H])c3c(N([H])C3([H])C([H])([H])C([H])([H])C34C([H])([H])C([H])([H])N(C([H])([H])[H])C([H])([H])C4([H])[H])c2[H])oc(C([H])([H])C([H])([H])[H])c1[H]
     RDKit          3D

 83 88  0  0  0  0  0  0  0  0999 V2000
    2.4436    8.3530    0.0764 C   0  0  0  0  0  0  0  0  0  0  0  0
    2.9634    6.9499   -0.1104 C   0  0  0  0  0  0  0  0  0  0  0  0
    1.9094    5.9459    0.1809 C   0  0  0  0  0  0  0  0  0  0  0  0
    0.6293    6.2686    0.5670 C   0  0  0  0  0  0  0  0  0  0  0  0
   -0.0645    5.0819    0.7477 C   0  0  0  0  0  0  0  0  0  0  0  0
    0.8410    4.0854    0.4585 C   0  0  0  0  0  0  0  0  0  0  0  0
    1.9767    4.6421    0.1336 O   0  0  0  0  0  0  0  0  0  0  0  0
    0.5255    2.6472    0.5219 C   0  0  0  0  0  0  0  0  0  0  0  0
    1.5301    1.7667    0.2086 C   0  0  0  0  0  0  0  0  0  0  0  0
    1.2299    0.3984    0.2695 C   0  0  0  0  0  0  0  0  0  0  0  0
    2.2298   -0.5552   -0.0593 N   0  0  0  0  0  0  0  0  0  0  0  0
    3.6085   -0.1938   -0.3767 C   0  0  0  0  0  0  0  0  0  0  0  0
    4.3412    0.4272    0.8016 C   0  0  0  0  0  0  0  0  0  0  0  0
    4.7311   -1.0036    1.2000 C   0  0  0  0  0  0  0  0  0  0  0  0
    4.5871   -1.3435   -0.2812 C   0  0  0  0  0  0  0  0  0  0  0  0
    3.9955   -2.6971   -0.5615 C   0  0  0  0  0  0  0  0  0  0  0  0
    5.0319   -3.7551   -0.7626 C   0  0  0  0  0  0  0  0  0  0  0  0
    6.0422   -3.4219   -1.7244 N   0  0  0  0  0  0  0  0  0  0  0  0
    7.3399   -3.5548   -1.0674 C   0  0  0  0  0  0  0  0  0  0  0  0
    5.9538   -2.0479   -2.1776 C   0  0  0  0  0  0  0  0  0  0  0  0
    5.8699   -1.0807   -1.0180 C   0  0  0  0  0  0  0  0  0  0  0  0
   -0.0231   -0.0455    0.6292 C   0  0  0  0  0  0  0  0  0  0  0  0
   -0.3880   -1.3783    0.7114 C   0  0  0  0  0  0  0  0  0  0  0  0
   -1.6613   -1.7761    1.0790 C   0  0  0  0  0  0  0  0  0  0  0  0
   -1.9691   -3.1231    1.1441 O   0  0  0  0  0  0  0  0  0  0  0  0
   -0.9671   -4.0636    0.8312 C   0  0  0  0  0  0  0  0  0  0  0  0
   -2.6450   -0.8225    1.3869 C   0  0  0  0  0  0  0  0  0  0  0  0
   -3.8599   -1.2939    1.7329 O   0  0  0  0  0  0  0  0  0  0  0  0
   -5.0533   -0.7143    2.0681 C   0  0  0  0  0  0  0  0  0  0  0  0
   -5.6216    0.0911    0.9291 C   0  0  0  0  0  0  0  0  0  0  0  0
   -5.8410   -0.8369   -0.2536 C   0  0  0  0  0  0  0  0  0  0  0  0
   -6.7612   -1.8797    0.1213 N   0  0  0  0  0  0  0  0  0  0  0  0
   -6.9587   -2.7759   -1.0300 C   0  0  0  0  0  0  0  0  0  0  0  0
   -7.7255   -1.8903   -1.9885 C   0  0  0  0  0  0  0  0  0  0  0  0
   -8.4723   -0.9240   -1.0711 C   0  0  0  0  0  0  0  0  0  0  0  0
   -8.1199   -1.4012    0.3042 C   0  0  0  0  0  0  0  0  0  0  0  0
   -2.2484    0.4846    1.2956 C   0  0  0  0  0  0  0  0  0  0  0  0
   -0.9755    0.9048    0.9284 C   0  0  0  0  0  0  0  0  0  0  0  0
   -0.6981    2.2356    0.8736 N   0  0  0  0  0  0  0  0  0  0  0  0
    3.3147    9.0168    0.2584 H   0  0  0  0  0  0  0  0  0  0  0  0
    1.8146    8.7009   -0.7679 H   0  0  0  0  0  0  0  0  0  0  0  0
    1.7909    8.4364    0.9890 H   0  0  0  0  0  0  0  0  0  0  0  0
    3.2017    6.8521   -1.2042 H   0  0  0  0  0  0  0  0  0  0  0  0
    3.8747    6.8027    0.5034 H   0  0  0  0  0  0  0  0  0  0  0  0
    0.1699    7.2271    0.7233 H   0  0  0  0  0  0  0  0  0  0  0  0
   -1.0958    4.9652    1.0510 H   0  0  0  0  0  0  0  0  0  0  0  0
    2.5202    2.0780   -0.0836 H   0  0  0  0  0  0  0  0  0  0  0  0
    2.0280   -1.5655   -0.0947 H   0  0  0  0  0  0  0  0  0  0  0  0
    3.7228    0.3503   -1.3347 H   0  0  0  0  0  0  0  0  0  0  0  0
    3.7207    0.8493    1.5898 H   0  0  0  0  0  0  0  0  0  0  0  0
    5.2009    1.0326    0.4526 H   0  0  0  0  0  0  0  0  0  0  0  0
    5.7516   -1.1052    1.5896 H   0  0  0  0  0  0  0  0  0  0  0  0
    3.9222   -1.4798    1.7543 H   0  0  0  0  0  0  0  0  0  0  0  0
    3.4144   -2.9896    0.3617 H   0  0  0  0  0  0  0  0  0  0  0  0
    3.2592   -2.6491   -1.3807 H   0  0  0  0  0  0  0  0  0  0  0  0
    4.5032   -4.6692   -1.1588 H   0  0  0  0  0  0  0  0  0  0  0  0
    5.4567   -4.0497    0.2344 H   0  0  0  0  0  0  0  0  0  0  0  0
    7.2953   -3.1717   -0.0205 H   0  0  0  0  0  0  0  0  0  0  0  0
    7.6791   -4.5973   -1.0229 H   0  0  0  0  0  0  0  0  0  0  0  0
    8.1261   -2.9587   -1.5854 H   0  0  0  0  0  0  0  0  0  0  0  0
    6.8809   -1.8196   -2.7248 H   0  0  0  0  0  0  0  0  0  0  0  0
    5.0872   -1.8646   -2.8267 H   0  0  0  0  0  0  0  0  0  0  0  0
    5.8454   -0.0557   -1.4641 H   0  0  0  0  0  0  0  0  0  0  0  0
    6.7696   -1.1874   -0.3833 H   0  0  0  0  0  0  0  0  0  0  0  0
    0.3460   -2.1284    0.4827 H   0  0  0  0  0  0  0  0  0  0  0  0
   -0.5901   -3.9506   -0.2070 H   0  0  0  0  0  0  0  0  0  0  0  0
   -1.3412   -5.1040    0.9135 H   0  0  0  0  0  0  0  0  0  0  0  0
   -0.0935   -3.8650    1.4909 H   0  0  0  0  0  0  0  0  0  0  0  0
   -5.8401   -1.4988    2.2898 H   0  0  0  0  0  0  0  0  0  0  0  0
   -5.0125   -0.0859    2.9956 H   0  0  0  0  0  0  0  0  0  0  0  0
   -5.0163    0.9238    0.5773 H   0  0  0  0  0  0  0  0  0  0  0  0
   -6.6109    0.5188    1.2381 H   0  0  0  0  0  0  0  0  0  0  0  0
   -4.8716   -1.3085   -0.4718 H   0  0  0  0  0  0  0  0  0  0  0  0
   -6.1414   -0.2703   -1.1457 H   0  0  0  0  0  0  0  0  0  0  0  0
   -7.6431   -3.5660   -0.6823 H   0  0  0  0  0  0  0  0  0  0  0  0
   -6.0071   -3.1341   -1.4309 H   0  0  0  0  0  0  0  0  0  0  0  0
   -7.0686   -1.3216   -2.6609 H   0  0  0  0  0  0  0  0  0  0  0  0
   -8.4478   -2.4429   -2.5942 H   0  0  0  0  0  0  0  0  0  0  0  0
   -8.1434    0.1153   -1.2183 H   0  0  0  0  0  0  0  0  0  0  0  0
   -9.5647   -0.9925   -1.2500 H   0  0  0  0  0  0  0  0  0  0  0  0
   -8.7235   -2.3228    0.5499 H   0  0  0  0  0  0  0  0  0  0  0  0
   -8.2472   -0.6768    1.1053 H   0  0  0  0  0  0  0  0  0  0  0  0
   -2.9634    1.2588    1.5378 H   0  0  0  0  0  0  0  0  0  0  0  0
  1  2  1  0
  2  3  1  0
  3  4  2  0
  4  5  1  0
  5  6  2  0
  6  7  1  0
  6  8  1  0
  8  9  2  0
  9 10  1  0
 10 11  1  0
 11 12  1  0
 12 13  1  0
 13 14  1  0
 14 15  1  0
 15 16  1  0
 16 17  1  0
 17 18  1  0
 18 19  1  0
 18 20  1  0
 20 21  1  0
 10 22  2  0
 22 23  1  0
 23 24  2  0
 24 25  1  0
 25 26  1  0
 24 27  1  0
 27 28  1  0
 28 29  1  0
 29 30  1  0
 30 31  1  0
 31 32  1  0
 32 33  1  0
 33 34  1  0
 34 35  1  0
 35 36  1  0
 27 37  2  0
 37 38  1  0
 38 39  2  0
  7  3  1  0
 39  8  1  0
 15 12  1  0
 21 15  1  0
 38 22  1  0
 36 32  1  0
  1 40  1  0
  1 41  1  0
  1 42  1  0
  2 43  1  0
  2 44  1  0
  4 45  1  0
  5 46  1  0
  9 47  1  0
 11 48  1  0
 12 49  1  0
 13 50  1  0
 13 51  1  0
 14 52  1  0
 14 53  1  0
 16 54  1  0
 16 55  1  0
 17 56  1  0
 17 57  1  0
 19 58  1  0
 19 59  1  0
 19 60  1  0
 20 61  1  0
 20 62  1  0
 21 63  1  0
 21 64  1  0
 23 65  1  0
 26 66  1  0
 26 67  1  0
 26 68  1  0
 29 69  1  0
 29 70  1  0
 30 71  1  0
 30 72  1  0
 31 73  1  0
 31 74  1  0
 33 75  1  0
 33 76  1  0
 34 77  1  0
 34 78  1  0
 35 79  1  0
 35 80  1  0
 36 81  1  0
 36 82  1  0
 37 83  1  0
M  END
$$$$
[H]c1c2c(c([H])c(OC([H])([H])[H])c1OC([H])([H])C1([H])N(C([H])([H])[H])C([H])([H])C([H])([H])C1([H])[H])C1(C(N([H])[H])=N2)C([H])([H])C([H])([H])C1([H])[H]
     RDKit          3D

 48 51  0  0  0  0  0  0  0  0999 V2000
   -0.6095    0.6904    3.6383 C   0  0  0  0  0  0  0  0  0  0  0  0
    0.0999    0.2736    2.4820 O   0  0  0  0  0  0  0  0  0  0  0  0
   -0.6044    0.0470    1.3089 C   0  0  0  0  0  0  0  0  0  0  0  0
   -1.9712    0.2047    1.1976 C   0  0  0  0  0  0  0  0  0  0  0  0
   -2.5978   -0.0459   -0.0238 C   0  0  0  0  0  0  0  0  0  0  0  0
   -1.8974   -0.4494   -1.1364 C   0  0  0  0  0  0  0  0  0  0  0  0
   -0.5211   -0.6016   -1.0007 C   0  0  0  0  0  0  0  0  0  0  0  0
    0.1151   -0.3562    0.2069 C   0  0  0  0  0  0  0  0  0  0  0  0
    1.4648   -0.5150    0.3053 O   0  0  0  0  0  0  0  0  0  0  0  0
    2.3328   -0.9145   -0.7089 C   0  0  0  0  0  0  0  0  0  0  0  0
    3.7230   -0.9530   -0.1538 C   0  0  0  0  0  0  0  0  0  0  0  0
    4.7671   -1.3136   -1.1846 C   0  0  0  0  0  0  0  0  0  0  0  0
    6.0418   -0.8348   -0.4895 C   0  0  0  0  0  0  0  0  0  0  0  0
    5.5794   -0.0341    0.7098 C   0  0  0  0  0  0  0  0  0  0  0  0
    4.1920    0.2989    0.3464 N   0  0  0  0  0  0  0  0  0  0  0  0
    4.2674    1.3427   -0.6369 C   0  0  0  0  0  0  0  0  0  0  0  0
   -2.8153   -0.6178   -2.2055 N   0  0  0  0  0  0  0  0  0  0  0  0
   -4.0240   -0.3501   -1.8389 C   0  0  0  0  0  0  0  0  0  0  0  0
   -5.2072   -0.4075   -2.6382 N   0  0  0  0  0  0  0  0  0  0  0  0
   -4.0092    0.0363   -0.4308 C   0  0  0  0  0  0  0  0  0  0  0  0
   -4.9770   -0.7172    0.4576 C   0  0  0  0  0  0  0  0  0  0  0  0
   -5.8591    0.5203    0.4455 C   0  0  0  0  0  0  0  0  0  0  0  0
   -4.6961    1.3412   -0.0962 C   0  0  0  0  0  0  0  0  0  0  0  0
   -1.3430    1.5132    3.3914 H   0  0  0  0  0  0  0  0  0  0  0  0
   -1.2188   -0.1246    4.0796 H   0  0  0  0  0  0  0  0  0  0  0  0
    0.0771    1.1429    4.3973 H   0  0  0  0  0  0  0  0  0  0  0  0
   -2.5402    0.5228    2.0663 H   0  0  0  0  0  0  0  0  0  0  0  0
    0.0327   -0.9196   -1.8768 H   0  0  0  0  0  0  0  0  0  0  0  0
    2.3082   -0.2630   -1.6058 H   0  0  0  0  0  0  0  0  0  0  0  0
    2.1043   -1.9444   -1.0855 H   0  0  0  0  0  0  0  0  0  0  0  0
    3.7839   -1.6969    0.6545 H   0  0  0  0  0  0  0  0  0  0  0  0
    4.5932   -0.7422   -2.1240 H   0  0  0  0  0  0  0  0  0  0  0  0
    4.8008   -2.4082   -1.3663 H   0  0  0  0  0  0  0  0  0  0  0  0
    6.6233   -1.7434   -0.1742 H   0  0  0  0  0  0  0  0  0  0  0  0
    6.6325   -0.2265   -1.1910 H   0  0  0  0  0  0  0  0  0  0  0  0
    5.6117   -0.6874    1.6036 H   0  0  0  0  0  0  0  0  0  0  0  0
    6.1756    0.8806    0.8667 H   0  0  0  0  0  0  0  0  0  0  0  0
    4.4954    2.2906   -0.0849 H   0  0  0  0  0  0  0  0  0  0  0  0
    5.0994    1.1762   -1.3690 H   0  0  0  0  0  0  0  0  0  0  0  0
    3.3426    1.4490   -1.2046 H   0  0  0  0  0  0  0  0  0  0  0  0
   -5.3684   -1.1778   -3.2978 H   0  0  0  0  0  0  0  0  0  0  0  0
   -5.9012    0.3472   -2.5375 H   0  0  0  0  0  0  0  0  0  0  0  0
   -5.4667   -1.5303   -0.0899 H   0  0  0  0  0  0  0  0  0  0  0  0
   -4.5630   -0.9760    1.4497 H   0  0  0  0  0  0  0  0  0  0  0  0
   -6.2002    0.8311    1.4454 H   0  0  0  0  0  0  0  0  0  0  0  0
   -6.7098    0.4714   -0.2652 H   0  0  0  0  0  0  0  0  0  0  0  0
   -4.9620    1.9546   -0.9643 H   0  0  0  0  0  0  0  0  0  0  0  0
   -4.2016    1.8967    0.7282 H   0  0  0  0  0  0  0  0  0  0  0  0
  1  2  1  0
  2  3  1  0
  3  4  2  0
  4  5  1  0
  5  6  2  0
  6  7  1  0
  7  8  2  0
  8  9  1  0
  9 10  1  0
 10 11  1  0
 11 12  1  0
 12 13  1  0
 13 14  1  0
 14 15  1  0
 15 16  1  0
  6 17  1  0
 17 18  2  0
 18 19  1  0
 18 20  1  0
 20 21  1  0
 21 22  1  0
 22 23  1  0
  8  3  1  0
 15 11  1  0
 23 20  1  0
 20  5  1  0
  1 24  1  0
  1 25  1  0
  1 26  1  0
  4 27  1  0
  7 28  1  0
 10 29  1  0
 10 30  1  0
 11 31  1  0
 12 32  1  0
 12 33  1  0
 13 34  1  0
 13 35  1  0
 14 36  1  0
 14 37  1  0
 16 38  1  0
 16 39  1  0
 16 40  1  0
 19 41  1  0
 19 42  1  0
 21 43  1  0
 21 44  1  0
 22 45  1  0
 22 46  1  0
 23 47  1  0
 23 48  1  0
M  END
$$$$
[H]c1c(-c2nc3c([H])c(OC([H])([H])C([H])([H])C([H])([H])N4C([H])([H])C([H])([H])C([H])([H])C4([H])[H])c(OC([H])([H])[H])c([H])c3c(N([H])C3([H])C4([H])C([H])([H])N(C([H])([H])[H])C([H])([H])C3([H])C([H])([H])C4([H])[H])c2[H])oc(C([H])([H])[H])c1[H]
     RDKit          3D

 77 82  0  0  0  0  0  0  0  0999 V2000
    1.3419   -3.6386    0.5400 C   0  0  0  0  0  0  0  0  0  0  0  0
    2.0084   -2.5118    1.0738 O   0  0  0  0  0  0  0  0  0  0  0  0
    1.4011   -1.2487    0.9545 C   0  0  0  0  0  0  0  0  0  0  0  0
    0.1842   -1.1220    0.3295 C   0  0  0  0  0  0  0  0  0  0  0  0
   -0.4660    0.0783    0.1780 C   0  0  0  0  0  0  0  0  0  0  0  0
   -1.6887    0.1698   -0.4539 C   0  0  0  0  0  0  0  0  0  0  0  0
   -2.3378   -0.9666   -1.0078 N   0  0  0  0  0  0  0  0  0  0  0  0
   -3.6583   -0.8415   -1.5858 C   0  0  0  0  0  0  0  0  0  0  0  0
   -4.1025   -2.1198   -2.2629 C   0  0  0  0  0  0  0  0  0  0  0  0
   -5.5852   -1.8536   -2.4755 C   0  0  0  0  0  0  0  0  0  0  0  0
   -5.9957   -0.8900   -1.4059 C   0  0  0  0  0  0  0  0  0  0  0  0
   -4.7511   -0.7539   -0.5158 C   0  0  0  0  0  0  0  0  0  0  0  0
   -4.7022   -1.8825    0.4605 C   0  0  0  0  0  0  0  0  0  0  0  0
   -4.4004   -3.1628   -0.0417 N   0  0  0  0  0  0  0  0  0  0  0  0
   -5.3577   -4.1894    0.3040 C   0  0  0  0  0  0  0  0  0  0  0  0
   -3.8861   -3.2727   -1.3561 C   0  0  0  0  0  0  0  0  0  0  0  0
   -2.2509    1.4335   -0.5450 C   0  0  0  0  0  0  0  0  0  0  0  0
   -1.5961    2.5235   -0.0203 C   0  0  0  0  0  0  0  0  0  0  0  0
   -0.4096    2.3745    0.5825 N   0  0  0  0  0  0  0  0  0  0  0  0
    0.1831    1.1787    0.7003 C   0  0  0  0  0  0  0  0  0  0  0  0
    1.4245    1.0681    1.3412 C   0  0  0  0  0  0  0  0  0  0  0  0
    2.0618   -0.1208    1.4866 C   0  0  0  0  0  0  0  0  0  0  0  0
    3.2672   -0.3580    2.0830 O   0  0  0  0  0  0  0  0  0  0  0  0
    4.1483    0.5318    2.6535 C   0  0  0  0  0  0  0  0  0  0  0  0
    4.7800    1.5548    1.7956 C   0  0  0  0  0  0  0  0  0  0  0  0
    5.5967    1.0727    0.6640 C   0  0  0  0  0  0  0  0  0  0  0  0
    6.7677    0.3099    0.9679 N   0  0  0  0  0  0  0  0  0  0  0  0
    7.4745    0.1891   -0.3418 C   0  0  0  0  0  0  0  0  0  0  0  0
    8.5119   -0.8403    0.0368 C   0  0  0  0  0  0  0  0  0  0  0  0
    7.6671   -1.8883    0.7008 C   0  0  0  0  0  0  0  0  0  0  0  0
    6.5666   -1.0490    1.3586 C   0  0  0  0  0  0  0  0  0  0  0  0
   -2.1935    3.8618   -0.1144 C   0  0  0  0  0  0  0  0  0  0  0  0
   -3.4046    4.1487   -0.7065 C   0  0  0  0  0  0  0  0  0  0  0  0
   -3.6162    5.5121   -0.5924 C   0  0  0  0  0  0  0  0  0  0  0  0
   -2.5030    5.9830    0.0732 C   0  0  0  0  0  0  0  0  0  0  0  0
   -2.3096    7.4103    0.4114 C   0  0  0  0  0  0  0  0  0  0  0  0
   -1.6958    4.9775    0.3330 O   0  0  0  0  0  0  0  0  0  0  0  0
    2.0581   -4.4826    0.5972 H   0  0  0  0  0  0  0  0  0  0  0  0
    0.4541   -3.9158    1.1503 H   0  0  0  0  0  0  0  0  0  0  0  0
    1.0830   -3.5032   -0.5286 H   0  0  0  0  0  0  0  0  0  0  0  0
   -0.2642   -2.0487   -0.0546 H   0  0  0  0  0  0  0  0  0  0  0  0
   -1.8698   -1.8758   -1.0016 H   0  0  0  0  0  0  0  0  0  0  0  0
   -3.7428    0.0325   -2.2229 H   0  0  0  0  0  0  0  0  0  0  0  0
   -3.5682   -2.3012   -3.2107 H   0  0  0  0  0  0  0  0  0  0  0  0
   -6.1792   -2.7735   -2.4988 H   0  0  0  0  0  0  0  0  0  0  0  0
   -5.6993   -1.3534   -3.4707 H   0  0  0  0  0  0  0  0  0  0  0  0
   -6.2216    0.1264   -1.8451 H   0  0  0  0  0  0  0  0  0  0  0  0
   -6.8713   -1.1797   -0.8285 H   0  0  0  0  0  0  0  0  0  0  0  0
   -4.7585    0.1828    0.0341 H   0  0  0  0  0  0  0  0  0  0  0  0
   -5.7215   -1.9286    0.9457 H   0  0  0  0  0  0  0  0  0  0  0  0
   -4.0065   -1.6358    1.3029 H   0  0  0  0  0  0  0  0  0  0  0  0
   -5.9564   -3.9377    1.1841 H   0  0  0  0  0  0  0  0  0  0  0  0
   -6.0359   -4.4406   -0.5246 H   0  0  0  0  0  0  0  0  0  0  0  0
   -4.7803   -5.1126    0.5430 H   0  0  0  0  0  0  0  0  0  0  0  0
   -4.4343   -4.1507   -1.8303 H   0  0  0  0  0  0  0  0  0  0  0  0
   -2.8161   -3.5968   -1.4224 H   0  0  0  0  0  0  0  0  0  0  0  0
   -3.1981    1.5488   -1.0367 H   0  0  0  0  0  0  0  0  0  0  0  0
    1.8468    1.9653    1.7305 H   0  0  0  0  0  0  0  0  0  0  0  0
    3.6100    1.1475    3.4813 H   0  0  0  0  0  0  0  0  0  0  0  0
    4.8887   -0.0653    3.2594 H   0  0  0  0  0  0  0  0  0  0  0  0
    5.4790    2.1415    2.5143 H   0  0  0  0  0  0  0  0  0  0  0  0
    4.0486    2.3408    1.5010 H   0  0  0  0  0  0  0  0  0  0  0  0
    5.9277    1.9916    0.0928 H   0  0  0  0  0  0  0  0  0  0  0  0
    4.9346    0.5061   -0.0755 H   0  0  0  0  0  0  0  0  0  0  0  0
    6.7317   -0.1581   -1.0623 H   0  0  0  0  0  0  0  0  0  0  0  0
    7.9348    1.1720   -0.5807 H   0  0  0  0  0  0  0  0  0  0  0  0
    9.1711   -0.3933    0.7890 H   0  0  0  0  0  0  0  0  0  0  0  0
    9.0603   -1.2272   -0.8466 H   0  0  0  0  0  0  0  0  0  0  0  0
    7.2103   -2.5830   -0.0500 H   0  0  0  0  0  0  0  0  0  0  0  0
    8.2156   -2.4566    1.4648 H   0  0  0  0  0  0  0  0  0  0  0  0
    5.6008   -1.4702    1.0678 H   0  0  0  0  0  0  0  0  0  0  0  0
    6.7415   -1.1353    2.4614 H   0  0  0  0  0  0  0  0  0  0  0  0
   -4.1094    3.4595   -1.1924 H   0  0  0  0  0  0  0  0  0  0  0  0
   -4.4771    6.0894   -0.9519 H   0  0  0  0  0  0  0  0  0  0  0  0
   -2.7003    7.6477    1.4263 H   0  0  0  0  0  0  0  0  0  0  0  0
   -2.8366    8.0788   -0.2862 H   0  0  0  0  0  0  0  0  0  0  0  0
   -1.2235    7.6273    0.3972 H   0  0  0  0  0  0  0  0  0  0  0  0
  1  2  1  0
  2  3  1  0
  3  4  2  0
  4  5  1  0
  5  6  2  0
  6  7  1  0
  7  8  1  0
  8  9  1  0
  9 10  1  0
 10 11  1  0
 11 12  1  0
 12 13  1  0
 13 14  1  0
 14 15  1  0
 14 16  1  0
  6 17  1  0
 17 18  2  0
 18 19  1  0
 19 20  2  0
 20 21  1  0
 21 22  2  0
 22 23  1  0
 23 24  1  0
 24 25  1  0
 25 26  1  0
 26 27  1  0
 27 28  1  0
 28 29  1  0
 29 30  1  0
 30 31  1  0
 18 32  1  0
 32 33  2  0
 33 34  1  0
 34 35  2  0
 35 36  1  0
 35 37  1  0
 22  3  1  0
 31 27  1  0
 37 32  1  0
 20  5  1  0
 12  8  1  0
 16  9  1  0
  1 38  1  0
  1 39  1  0
  1 40  1  0
  4 41  1  0
  7 42  1  0
  8 43  1  0
  9 44  1  0
 10 45  1  0
 10 46  1  0
 11 47  1  0
 11 48  1  0
 12 49  1  0
 13 50  1  0
 13 51  1  0
 15 52  1  0
 15 53  1  0
 15 54  1  0
 16 55  1  0
 16 56  1  0
 17 57  1  0
 21 58  1  0
 24 59  1  0
 24 60  1  0
 25 61  1  0
 25 62  1  0
 26 63  1  0
 26 64  1  0
 28 65  1  0
 28 66  1  0
 29 67  1  0
 29 68  1  0
 30 69  1  0
 30 70  1  0
 31 71  1  0
 31 72  1  0
 33 73  1  0
 34 74  1  0
 36 75  1  0
 36 76  1  0
 36 77  1  0
M  END
$$$$
[H]c1c(-c2nc3c([H])c(OC([H])([H])C([H])([H])C([H])([H])N4C([H])([H])C([H])([H])C([H])([H])C4([H])[H])c(OC([H])([H])[H])c([H])c3c(N([H])C3([H])C([H])([H])C([H])([H])N(C([H])(C([H])([H])[H])C([H])([H])[H])C([H])([H])C3([H])[H])c2[H])oc(C([H])([H])[H])c1[H]
     RDKit          3D

 79 83  0  0  0  0  0  0  0  0999 V2000
   -0.3599   -3.8499   -0.2320 C   0  0  0  0  0  0  0  0  0  0  0  0
   -1.4189   -3.0274    0.2245 O   0  0  0  0  0  0  0  0  0  0  0  0
   -1.2225   -1.6502    0.2866 C   0  0  0  0  0  0  0  0  0  0  0  0
   -0.0114   -1.1511   -0.1122 C   0  0  0  0  0  0  0  0  0  0  0  0
    0.2443    0.1773   -0.0755 C   0  0  0  0  0  0  0  0  0  0  0  0
    1.4735    0.7068   -0.4568 C   0  0  0  0  0  0  0  0  0  0  0  0
    2.4634   -0.1367   -1.0073 N   0  0  0  0  0  0  0  0  0  0  0  0
    3.8400    0.3051   -1.1504 C   0  0  0  0  0  0  0  0  0  0  0  0
    4.5569   -0.6489   -2.0592 C   0  0  0  0  0  0  0  0  0  0  0  0
    5.8122   -1.1227   -1.3654 C   0  0  0  0  0  0  0  0  0  0  0  0
    5.4034   -1.9002   -0.2210 N   0  0  0  0  0  0  0  0  0  0  0  0
    4.6727   -1.0915    0.7311 C   0  0  0  0  0  0  0  0  0  0  0  0
    4.4981    0.3266    0.2296 C   0  0  0  0  0  0  0  0  0  0  0  0
    6.3947   -2.7196    0.3757 C   0  0  0  0  0  0  0  0  0  0  0  0
    7.5711   -1.9715    0.9402 C   0  0  0  0  0  0  0  0  0  0  0  0
    6.8913   -3.7431   -0.6109 C   0  0  0  0  0  0  0  0  0  0  0  0
    1.6298    2.0736   -0.3558 C   0  0  0  0  0  0  0  0  0  0  0  0
    0.6444    2.9246    0.0925 C   0  0  0  0  0  0  0  0  0  0  0  0
   -0.5135    2.3566    0.4422 N   0  0  0  0  0  0  0  0  0  0  0  0
   -0.7424    1.0302    0.3746 C   0  0  0  0  0  0  0  0  0  0  0  0
   -1.9823    0.5241    0.7832 C   0  0  0  0  0  0  0  0  0  0  0  0
   -2.2623   -0.8206    0.7547 C   0  0  0  0  0  0  0  0  0  0  0  0
   -3.3646   -1.3685    1.1112 O   0  0  0  0  0  0  0  0  0  0  0  0
   -4.4753   -1.9156    1.4709 C   0  0  0  0  0  0  0  0  0  0  0  0
   -5.7828   -1.5778    0.7644 C   0  0  0  0  0  0  0  0  0  0  0  0
   -6.0409   -0.1174    0.9008 C   0  0  0  0  0  0  0  0  0  0  0  0
   -7.2886    0.3011    0.2822 N   0  0  0  0  0  0  0  0  0  0  0  0
   -8.4252   -0.2264    1.0013 C   0  0  0  0  0  0  0  0  0  0  0  0
   -9.0651   -1.3020    0.1733 C   0  0  0  0  0  0  0  0  0  0  0  0
   -8.3682   -1.2137   -1.1663 C   0  0  0  0  0  0  0  0  0  0  0  0
   -7.4227   -0.0565   -1.0843 C   0  0  0  0  0  0  0  0  0  0  0  0
    0.8764    4.3639    0.1356 C   0  0  0  0  0  0  0  0  0  0  0  0
   -0.0580    5.2847    0.5670 C   0  0  0  0  0  0  0  0  0  0  0  0
    0.5265    6.5521    0.4593 C   0  0  0  0  0  0  0  0  0  0  0  0
    1.7866    6.3241   -0.0338 C   0  0  0  0  0  0  0  0  0  0  0  0
    2.8044    7.3639   -0.3257 C   0  0  0  0  0  0  0  0  0  0  0  0
    1.9517    5.0260   -0.2090 O   0  0  0  0  0  0  0  0  0  0  0  0
   -0.0280   -3.6171   -1.2576 H   0  0  0  0  0  0  0  0  0  0  0  0
   -0.7409   -4.8919   -0.2562 H   0  0  0  0  0  0  0  0  0  0  0  0
    0.5379   -3.7339    0.4157 H   0  0  0  0  0  0  0  0  0  0  0  0
    0.7767   -1.8355   -0.4597 H   0  0  0  0  0  0  0  0  0  0  0  0
    2.2162   -1.1025   -1.3415 H   0  0  0  0  0  0  0  0  0  0  0  0
    3.8610    1.3155   -1.5550 H   0  0  0  0  0  0  0  0  0  0  0  0
    4.7767   -0.1336   -3.0181 H   0  0  0  0  0  0  0  0  0  0  0  0
    3.9117   -1.5405   -2.2118 H   0  0  0  0  0  0  0  0  0  0  0  0
    6.3727   -1.7378   -2.0794 H   0  0  0  0  0  0  0  0  0  0  0  0
    6.4405   -0.2548   -1.0888 H   0  0  0  0  0  0  0  0  0  0  0  0
    5.2393   -1.0480    1.6705 H   0  0  0  0  0  0  0  0  0  0  0  0
    3.6936   -1.5494    0.9332 H   0  0  0  0  0  0  0  0  0  0  0  0
    3.7843    0.8285    0.9033 H   0  0  0  0  0  0  0  0  0  0  0  0
    5.4430    0.8917    0.2502 H   0  0  0  0  0  0  0  0  0  0  0  0
    5.9323   -3.2709    1.2421 H   0  0  0  0  0  0  0  0  0  0  0  0
    8.0322   -2.6112    1.7352 H   0  0  0  0  0  0  0  0  0  0  0  0
    8.3468   -1.7641    0.1976 H   0  0  0  0  0  0  0  0  0  0  0  0
    7.2541   -1.0309    1.4454 H   0  0  0  0  0  0  0  0  0  0  0  0
    5.9941   -4.2856   -1.0120 H   0  0  0  0  0  0  0  0  0  0  0  0
    7.4313   -3.2548   -1.4419 H   0  0  0  0  0  0  0  0  0  0  0  0
    7.5822   -4.4854   -0.1040 H   0  0  0  0  0  0  0  0  0  0  0  0
    2.5817    2.5201   -0.6435 H   0  0  0  0  0  0  0  0  0  0  0  0
   -2.7149    1.2363    1.1217 H   0  0  0  0  0  0  0  0  0  0  0  0
   -4.3684   -3.0675    1.4587 H   0  0  0  0  0  0  0  0  0  0  0  0
   -4.6455   -1.7664    2.6054 H   0  0  0  0  0  0  0  0  0  0  0  0
   -6.5472   -2.2115    1.2854 H   0  0  0  0  0  0  0  0  0  0  0  0
   -5.6711   -1.8432   -0.2903 H   0  0  0  0  0  0  0  0  0  0  0  0
   -5.2374    0.4278    0.3704 H   0  0  0  0  0  0  0  0  0  0  0  0
   -6.0097    0.1995    1.9575 H   0  0  0  0  0  0  0  0  0  0  0  0
   -8.0770   -0.6216    1.9860 H   0  0  0  0  0  0  0  0  0  0  0  0
   -9.1360    0.6114    1.1721 H   0  0  0  0  0  0  0  0  0  0  0  0
   -8.8554   -2.3175    0.5956 H   0  0  0  0  0  0  0  0  0  0  0  0
  -10.1579   -1.1126    0.0998 H   0  0  0  0  0  0  0  0  0  0  0  0
   -7.8507   -2.1619   -1.4395 H   0  0  0  0  0  0  0  0  0  0  0  0
   -9.1585   -1.0586   -1.9265 H   0  0  0  0  0  0  0  0  0  0  0  0
   -7.9483    0.8033   -1.5921 H   0  0  0  0  0  0  0  0  0  0  0  0
   -6.4838   -0.1932   -1.6510 H   0  0  0  0  0  0  0  0  0  0  0  0
   -1.0680    5.1393    0.9385 H   0  0  0  0  0  0  0  0  0  0  0  0
    0.0979    7.5270    0.7150 H   0  0  0  0  0  0  0  0  0  0  0  0
    3.2257    7.8430    0.5679 H   0  0  0  0  0  0  0  0  0  0  0  0
    2.3372    8.1836   -0.9240 H   0  0  0  0  0  0  0  0  0  0  0  0
    3.5926    6.9453   -1.0097 H   0  0  0  0  0  0  0  0  0  0  0  0
  1  2  1  0
  2  3  1  0
  3  4  2  0
  4  5  1  0
  5  6  2  0
  6  7  1  0
  7  8  1  0
  8  9  1  0
  9 10  1  0
 10 11  1  0
 11 12  1  0
 12 13  1  0
 11 14  1  0
 14 15  1  0
 14 16  1  0
  6 17  1  0
 17 18  2  0
 18 19  1  0
 19 20  2  0
 20 21  1  0
 21 22  2  0
 22 23  1  0
 23 24  1  0
 24 25  1  0
 25 26  1  0
 26 27  1  0
 27 28  1  0
 28 29  1  0
 29 30  1  0
 30 31  1  0
 18 32  1  0
 32 33  2  0
 33 34  1  0
 34 35  2  0
 35 36  1  0
 35 37  1  0
 22  3  1  0
 31 27  1  0
 37 32  1  0
 20  5  1  0
 13  8  1  0
  1 38  1  0
  1 39  1  0
  1 40  1  0
  4 41  1  0
  7 42  1  0
  8 43  1  0
  9 44  1  0
  9 45  1  0
 10 46  1  0
 10 47  1  0
 12 48  1  0
 12 49  1  0
 13 50  1  0
 13 51  1  0
 14 52  1  0
 15 53  1  0
 15 54  1  0
 15 55  1  0
 16 56  1  0
 16 57  1  0
 16 58  1  0
 17 59  1  0
 21 60  1  0
 24 61  1  0
 24 62  1  0
 25 63  1  0
 25 64  1  0
 26 65  1  0
 26 66  1  0
 28 67  1  0
 28 68  1  0
 29 69  1  0
 29 70  1  0
 30 71  1  0
 30 72  1  0
 31 73  1  0
 31 74  1  0
 33 75  1  0
 34 76  1  0
 36 77  1  0
 36 78  1  0
 36 79  1  0
M  END
$$$$
[H]c1c(-c2c([H])c([H])c(C([H])([H])[H])n2[H])nc2c([H])c(OC([H])([H])C([H])([H])C([H])([H])N3C([H])([H])C([H])([H])C([H])([H])C3([H])[H])c(OC([H])([H])[H])c([H])c2c1N([H])C1([H])C([H])([H])C([H])([H])N(C([H])([H])[H])C([H])([H])C1([H])[H]
     RDKit          3D

 74 78  0  0  0  0  0  0  0  0999 V2000
    0.3812   -4.4222   -0.7233 C   0  0  0  0  0  0  0  0  0  0  0  0
    1.2516   -3.4535   -0.1822 O   0  0  0  0  0  0  0  0  0  0  0  0
    0.8343   -2.1319   -0.1151 C   0  0  0  0  0  0  0  0  0  0  0  0
   -0.4283   -1.7405   -0.5726 C   0  0  0  0  0  0  0  0  0  0  0  0
   -0.8812   -0.4450   -0.5247 C   0  0  0  0  0  0  0  0  0  0  0  0
   -2.1348   -0.0622   -0.9693 C   0  0  0  0  0  0  0  0  0  0  0  0
   -3.0067   -1.0125   -1.5181 N   0  0  0  0  0  0  0  0  0  0  0  0
   -4.3815   -0.6849   -1.9110 C   0  0  0  0  0  0  0  0  0  0  0  0
   -5.0471   -1.8958   -2.5567 C   0  0  0  0  0  0  0  0  0  0  0  0
   -5.0537   -3.0765   -1.6133 C   0  0  0  0  0  0  0  0  0  0  0  0
   -5.3692   -2.6602   -0.2630 N   0  0  0  0  0  0  0  0  0  0  0  0
   -6.1916   -3.6428    0.4252 C   0  0  0  0  0  0  0  0  0  0  0  0
   -6.1260   -1.4233   -0.3345 C   0  0  0  0  0  0  0  0  0  0  0  0
   -5.1967   -0.3079   -0.6752 C   0  0  0  0  0  0  0  0  0  0  0  0
   -2.4767    1.2751   -0.8576 C   0  0  0  0  0  0  0  0  0  0  0  0
   -1.6158    2.2039   -0.3268 C   0  0  0  0  0  0  0  0  0  0  0  0
   -0.4214    1.7645    0.0819 N   0  0  0  0  0  0  0  0  0  0  0  0
    0.0030    0.4940    0.0170 C   0  0  0  0  0  0  0  0  0  0  0  0
    1.2594    0.1270    0.4764 C   0  0  0  0  0  0  0  0  0  0  0  0
    1.6796   -1.1821    0.4135 C   0  0  0  0  0  0  0  0  0  0  0  0
    2.9211   -1.5796    0.8635 O   0  0  0  0  0  0  0  0  0  0  0  0
    3.9027   -0.7610    1.4272 C   0  0  0  0  0  0  0  0  0  0  0  0
    5.1366   -1.5791    1.8153 C   0  0  0  0  0  0  0  0  0  0  0  0
    6.1438   -0.6328    2.4160 C   0  0  0  0  0  0  0  0  0  0  0  0
    6.4951    0.3615    1.4178 N   0  0  0  0  0  0  0  0  0  0  0  0
    7.3958    1.3168    1.9740 C   0  0  0  0  0  0  0  0  0  0  0  0
    8.7363    1.0258    1.3663 C   0  0  0  0  0  0  0  0  0  0  0  0
    8.3322    0.5759   -0.0407 C   0  0  0  0  0  0  0  0  0  0  0  0
    7.0360   -0.2033    0.2277 C   0  0  0  0  0  0  0  0  0  0  0  0
   -2.0138    3.6223   -0.2259 C   0  0  0  0  0  0  0  0  0  0  0  0
   -1.2419    4.6371    0.2787 C   0  0  0  0  0  0  0  0  0  0  0  0
   -1.9717    5.8282    0.2006 C   0  0  0  0  0  0  0  0  0  0  0  0
   -3.1841    5.5029   -0.3565 C   0  0  0  0  0  0  0  0  0  0  0  0
   -4.3197    6.4434   -0.6480 C   0  0  0  0  0  0  0  0  0  0  0  0
   -3.1722    4.1754   -0.5981 N   0  0  0  0  0  0  0  0  0  0  0  0
   -0.6413   -4.3903   -0.2954 H   0  0  0  0  0  0  0  0  0  0  0  0
    0.8074   -5.4575   -0.5722 H   0  0  0  0  0  0  0  0  0  0  0  0
    0.2597   -4.3286   -1.8223 H   0  0  0  0  0  0  0  0  0  0  0  0
   -1.0444   -2.5179   -0.9716 H   0  0  0  0  0  0  0  0  0  0  0  0
   -2.7142   -1.9803   -1.6714 H   0  0  0  0  0  0  0  0  0  0  0  0
   -4.4522    0.1432   -2.6133 H   0  0  0  0  0  0  0  0  0  0  0  0
   -6.0608   -1.6283   -2.8987 H   0  0  0  0  0  0  0  0  0  0  0  0
   -4.4736   -2.2058   -3.4518 H   0  0  0  0  0  0  0  0  0  0  0  0
   -5.8305   -3.7643   -1.9527 H   0  0  0  0  0  0  0  0  0  0  0  0
   -4.0756   -3.5634   -1.6672 H   0  0  0  0  0  0  0  0  0  0  0  0
   -6.1045   -3.5039    1.5104 H   0  0  0  0  0  0  0  0  0  0  0  0
   -5.7967   -4.6436    0.1542 H   0  0  0  0  0  0  0  0  0  0  0  0
   -7.2369   -3.5017    0.0631 H   0  0  0  0  0  0  0  0  0  0  0  0
   -7.0076   -1.4906   -0.9983 H   0  0  0  0  0  0  0  0  0  0  0  0
   -6.5691   -1.2582    0.6916 H   0  0  0  0  0  0  0  0  0  0  0  0
   -4.4556   -0.2450    0.1714 H   0  0  0  0  0  0  0  0  0  0  0  0
   -5.7070    0.6598   -0.8216 H   0  0  0  0  0  0  0  0  0  0  0  0
   -3.4442    1.5707   -1.2065 H   0  0  0  0  0  0  0  0  0  0  0  0
    1.8904    0.9077    0.8854 H   0  0  0  0  0  0  0  0  0  0  0  0
    3.5564   -0.1785    2.2844 H   0  0  0  0  0  0  0  0  0  0  0  0
    4.2576   -0.0577    0.6387 H   0  0  0  0  0  0  0  0  0  0  0  0
    5.5459   -2.0429    0.9196 H   0  0  0  0  0  0  0  0  0  0  0  0
    4.8566   -2.3643    2.5519 H   0  0  0  0  0  0  0  0  0  0  0  0
    7.0254   -1.1597    2.8214 H   0  0  0  0  0  0  0  0  0  0  0  0
    5.6320   -0.1455    3.2771 H   0  0  0  0  0  0  0  0  0  0  0  0
    7.0680    2.3509    1.6968 H   0  0  0  0  0  0  0  0  0  0  0  0
    7.4125    1.2427    3.0832 H   0  0  0  0  0  0  0  0  0  0  0  0
    9.2567    0.2102    1.8825 H   0  0  0  0  0  0  0  0  0  0  0  0
    9.3726    1.9316    1.2816 H   0  0  0  0  0  0  0  0  0  0  0  0
    8.1214    1.4161   -0.7072 H   0  0  0  0  0  0  0  0  0  0  0  0
    9.1371   -0.1003   -0.3814 H   0  0  0  0  0  0  0  0  0  0  0  0
    6.3783   -0.1964   -0.6514 H   0  0  0  0  0  0  0  0  0  0  0  0
    7.3129   -1.2794    0.4286 H   0  0  0  0  0  0  0  0  0  0  0  0
   -0.2392    4.5854    0.6774 H   0  0  0  0  0  0  0  0  0  0  0  0
   -1.6636    6.8105    0.5089 H   0  0  0  0  0  0  0  0  0  0  0  0
   -5.0898    5.9423   -1.2722 H   0  0  0  0  0  0  0  0  0  0  0  0
   -3.8628    7.3166   -1.1754 H   0  0  0  0  0  0  0  0  0  0  0  0
   -4.7514    6.8361    0.2940 H   0  0  0  0  0  0  0  0  0  0  0  0
   -3.9445    3.6234   -1.0168 H   0  0  0  0  0  0  0  0  0  0  0  0
  1  2  1  0
  2  3  1  0
  3  4  2  0
  4  5  1  0
  5  6  2  0
  6  7  1  0
  7  8  1  0
  8  9  1  0
  9 10  1  0
 10 11  1  0
 11 12  1  0
 11 13  1  0
 13 14  1  0
  6 15  1  0
 15 16  2  0
 16 17  1  0
 17 18  2  0
 18 19  1  0
 19 20  2  0
 20 21  1  0
 21 22  1  0
 22 23  1  0
 23 24  1  0
 24 25  1  0
 25 26  1  0
 26 27  1  0
 27 28  1  0
 28 29  1  0
 16 30  1  0
 30 31  2  0
 31 32  1  0
 32 33  2  0
 33 34  1  0
 33 35  1  0
 20  3  1  0
 29 25  1  0
 35 30  1  0
 18  5  1  0
 14  8  1  0
  1 36  1  0
  1 37  1  0
  1 38  1  0
  4 39  1  0
  7 40  1  0
  8 41  1  0
  9 42  1  0
  9 43  1  0
 10 44  1  0
 10 45  1  0
 12 46  1  0
 12 47  1  0
 12 48  1  0
 13 49  1  0
 13 50  1  0
 14 51  1  0
 14 52  1  0
 15 53  1  0
 19 54  1  0
 22 55  1  0
 22 56  1  0
 23 57  1  0
 23 58  1  0
 24 59  1  0
 24 60  1  0
 26 61  1  0
 26 62  1  0
 27 63  1  0
 27 64  1  0
 28 65  1  0
 28 66  1  0
 29 67  1  0
 29 68  1  0
 31 69  1  0
 32 70  1  0
 34 71  1  0
 34 72  1  0
 34 73  1  0
 35 74  1  0
M  END
$$$$
[H]C1=C(c2nc3c([H])c(OC([H])([H])C([H])([H])C([H])([H])N4C([H])([H])C([H])([H])C([H])([H])C4([H])[H])c(OC([H])([H])[H])c([H])c3c(N([H])C3([H])C([H])([H])C([H])([H])N(C([H])([H])[H])C([H])([H])C3([H])[H])c2[H])C([H])([H])C([H])([H])OC1([H])[H]
     RDKit          3D

 75 79  0  0  0  0  0  0  0  0999 V2000
    1.1316   -4.3248   -0.6517 C   0  0  0  0  0  0  0  0  0  0  0  0
    1.7884   -3.1286   -0.9876 O   0  0  0  0  0  0  0  0  0  0  0  0
    1.2719   -1.8767   -0.8319 C   0  0  0  0  0  0  0  0  0  0  0  0
    0.0070   -1.6276   -0.3099 C   0  0  0  0  0  0  0  0  0  0  0  0
   -0.5181   -0.3607   -0.1518 C   0  0  0  0  0  0  0  0  0  0  0  0
   -1.7730   -0.1267    0.3666 C   0  0  0  0  0  0  0  0  0  0  0  0
   -2.5947   -1.2017    0.7823 N   0  0  0  0  0  0  0  0  0  0  0  0
   -3.9524   -0.9926    1.2775 C   0  0  0  0  0  0  0  0  0  0  0  0
   -4.4791   -2.3412    1.7229 C   0  0  0  0  0  0  0  0  0  0  0  0
   -5.9633   -2.3193    2.0126 C   0  0  0  0  0  0  0  0  0  0  0  0
   -6.7170   -1.7943    0.8885 N   0  0  0  0  0  0  0  0  0  0  0  0
   -7.8082   -2.6512    0.5080 C   0  0  0  0  0  0  0  0  0  0  0  0
   -5.8528   -1.5022   -0.2408 C   0  0  0  0  0  0  0  0  0  0  0  0
   -4.8685   -0.4525    0.1752 C   0  0  0  0  0  0  0  0  0  0  0  0
   -2.1901    1.1949    0.4757 C   0  0  0  0  0  0  0  0  0  0  0  0
   -1.3840    2.2079    0.0835 C   0  0  0  0  0  0  0  0  0  0  0  0
   -0.1552    1.9691   -0.4236 N   0  0  0  0  0  0  0  0  0  0  0  0
    0.2778    0.7151   -0.5427 C   0  0  0  0  0  0  0  0  0  0  0  0
    1.5570    0.5043   -1.0725 C   0  0  0  0  0  0  0  0  0  0  0  0
    2.0221   -0.7823   -1.2039 C   0  0  0  0  0  0  0  0  0  0  0  0
    3.2856   -0.9948   -1.7259 O   0  0  0  0  0  0  0  0  0  0  0  0
    4.0721    0.0911   -2.1141 C   0  0  0  0  0  0  0  0  0  0  0  0
    5.4052   -0.3889   -2.6432 C   0  0  0  0  0  0  0  0  0  0  0  0
    6.2210   -1.1581   -1.6674 C   0  0  0  0  0  0  0  0  0  0  0  0
    6.6388   -0.5845   -0.4917 N   0  0  0  0  0  0  0  0  0  0  0  0
    5.7866   -0.2266    0.5530 C   0  0  0  0  0  0  0  0  0  0  0  0
    6.6928   -0.4329    1.7856 C   0  0  0  0  0  0  0  0  0  0  0  0
    7.9894    0.1390    1.2285 C   0  0  0  0  0  0  0  0  0  0  0  0
    7.9274   -0.1145   -0.2687 C   0  0  0  0  0  0  0  0  0  0  0  0
   -1.8168    3.6057    0.1962 C   0  0  0  0  0  0  0  0  0  0  0  0
   -1.0109    4.5859   -0.1896 C   0  0  0  0  0  0  0  0  0  0  0  0
   -1.5014    5.9765   -0.0515 C   0  0  0  0  0  0  0  0  0  0  0  0
   -2.8124    6.1647   -0.3886 O   0  0  0  0  0  0  0  0  0  0  0  0
   -3.6532    5.0981   -0.2228 C   0  0  0  0  0  0  0  0  0  0  0  0
   -3.1318    4.0310    0.7246 C   0  0  0  0  0  0  0  0  0  0  0  0
    0.5913   -4.1528    0.3059 H   0  0  0  0  0  0  0  0  0  0  0  0
    0.4478   -4.6957   -1.4264 H   0  0  0  0  0  0  0  0  0  0  0  0
    1.9287   -5.0717   -0.3968 H   0  0  0  0  0  0  0  0  0  0  0  0
   -0.5480   -2.4884   -0.0334 H   0  0  0  0  0  0  0  0  0  0  0  0
   -2.2176   -2.1666    0.7352 H   0  0  0  0  0  0  0  0  0  0  0  0
   -4.0170   -0.2918    2.1167 H   0  0  0  0  0  0  0  0  0  0  0  0
   -3.9536   -2.6004    2.6632 H   0  0  0  0  0  0  0  0  0  0  0  0
   -4.2342   -3.1388    0.9858 H   0  0  0  0  0  0  0  0  0  0  0  0
   -6.1224   -1.7348    2.9451 H   0  0  0  0  0  0  0  0  0  0  0  0
   -6.2720   -3.3795    2.1444 H   0  0  0  0  0  0  0  0  0  0  0  0
   -8.7944   -2.1154    0.5282 H   0  0  0  0  0  0  0  0  0  0  0  0
   -7.5971   -3.0467   -0.5189 H   0  0  0  0  0  0  0  0  0  0  0  0
   -7.8543   -3.5521    1.1760 H   0  0  0  0  0  0  0  0  0  0  0  0
   -5.3641   -2.4161   -0.6297 H   0  0  0  0  0  0  0  0  0  0  0  0
   -6.4914   -1.0754   -1.0424 H   0  0  0  0  0  0  0  0  0  0  0  0
   -4.2025   -0.1636   -0.6620 H   0  0  0  0  0  0  0  0  0  0  0  0
   -5.4521    0.4280    0.5350 H   0  0  0  0  0  0  0  0  0  0  0  0
   -3.1541    1.4029    0.8801 H   0  0  0  0  0  0  0  0  0  0  0  0
    2.1666    1.3621   -1.3745 H   0  0  0  0  0  0  0  0  0  0  0  0
    3.6085    0.6505   -2.9849 H   0  0  0  0  0  0  0  0  0  0  0  0
    4.1333    0.8212   -1.3093 H   0  0  0  0  0  0  0  0  0  0  0  0
    5.9454    0.4435   -3.1337 H   0  0  0  0  0  0  0  0  0  0  0  0
    5.1497   -1.0892   -3.4942 H   0  0  0  0  0  0  0  0  0  0  0  0
    7.1147   -1.5984   -2.2039 H   0  0  0  0  0  0  0  0  0  0  0  0
    5.6167   -2.0867   -1.4221 H   0  0  0  0  0  0  0  0  0  0  0  0
    5.6066    0.8768    0.5538 H   0  0  0  0  0  0  0  0  0  0  0  0
    4.8573   -0.8143    0.6773 H   0  0  0  0  0  0  0  0  0  0  0  0
    6.3289    0.0879    2.6681 H   0  0  0  0  0  0  0  0  0  0  0  0
    6.7823   -1.5278    1.8837 H   0  0  0  0  0  0  0  0  0  0  0  0
    8.8748   -0.2702    1.7167 H   0  0  0  0  0  0  0  0  0  0  0  0
    7.9600    1.2366    1.4518 H   0  0  0  0  0  0  0  0  0  0  0  0
    8.2102    0.8370   -0.7606 H   0  0  0  0  0  0  0  0  0  0  0  0
    8.6958   -0.9060   -0.4663 H   0  0  0  0  0  0  0  0  0  0  0  0
   -0.0258    4.4134   -0.5944 H   0  0  0  0  0  0  0  0  0  0  0  0
   -0.8675    6.6792   -0.6406 H   0  0  0  0  0  0  0  0  0  0  0  0
   -1.3844    6.3276    1.0125 H   0  0  0  0  0  0  0  0  0  0  0  0
   -4.6505    5.4722    0.1489 H   0  0  0  0  0  0  0  0  0  0  0  0
   -3.8728    4.6499   -1.2123 H   0  0  0  0  0  0  0  0  0  0  0  0
   -3.8918    3.2582    0.7798 H   0  0  0  0  0  0  0  0  0  0  0  0
   -2.9428    4.5344    1.7101 H   0  0  0  0  0  0  0  0  0  0  0  0
  1  2  1  0
  2  3  1  0
  3  4  2  0
  4  5  1  0
  5  6  2  0
  6  7  1  0
  7  8  1  0
  8  9  1  0
  9 10  1  0
 10 11  1  0
 11 12  1  0
 11 13  1  0
 13 14  1  0
  6 15  1  0
 15 16  2  0
 16 17  1  0
 17 18  2  0
 18 19  1  0
 19 20  2  0
 20 21  1  0
 21 22  1  0
 22 23  1  0
 23 24  1  0
 24 25  1  0
 25 26  1  0
 26 27  1  0
 27 28  1  0
 28 29  1  0
 16 30  1  0
 30 31  2  0
 31 32  1  0
 32 33  1  0
 33 34  1  0
 34 35  1  0
 20  3  1  0
 29 25  1  0
 35 30  1  0
 18  5  1  0
 14  8  1  0
  1 36  1  0
  1 37  1  0
  1 38  1  0
  4 39  1  0
  7 40  1  0
  8 41  1  0
  9 42  1  0
  9 43  1  0
 10 44  1  0
 10 45  1  0
 12 46  1  0
 12 47  1  0
 12 48  1  0
 13 49  1  0
 13 50  1  0
 14 51  1  0
 14 52  1  0
 15 53  1  0
 19 54  1  0
 22 55  1  0
 22 56  1  0
 23 57  1  0
 23 58  1  0
 24 59  1  0
 24 60  1  0
 26 61  1  0
 26 62  1  0
 27 63  1  0
 27 64  1  0
 28 65  1  0
 28 66  1  0
 29 67  1  0
 29 68  1  0
 31 69  1  0
 32 70  1  0
 32 71  1  0
 34 72  1  0
 34 73  1  0
 35 74  1  0
 35 75  1  0
M  END
$$$$
[H]c1nc([H])c(-c2nc3c([H])c(OC([H])([H])C([H])([H])C([H])([H])N4C([H])([H])C([H])([H])C([H])([H])C4([H])[H])c(OC([H])([H])[H])c([H])c3c(N([H])C3([H])C([H])([H])C([H])([H])N(C([H])([H])[H])C([H])([H])C3([H])[H])c2[H])c([H])c1[H]
     RDKit          3D

 72 76  0  0  0  0  0  0  0  0999 V2000
   -0.1485   -0.7162   -4.7336 C   0  0  0  0  0  0  0  0  0  0  0  0
    0.9042   -0.5720   -3.8075 O   0  0  0  0  0  0  0  0  0  0  0  0
    0.6553   -0.5065   -2.4298 C   0  0  0  0  0  0  0  0  0  0  0  0
   -0.6499   -0.5867   -2.0004 C   0  0  0  0  0  0  0  0  0  0  0  0
   -0.9518   -0.5281   -0.6580 C   0  0  0  0  0  0  0  0  0  0  0  0
   -2.2479   -0.6009   -0.1886 C   0  0  0  0  0  0  0  0  0  0  0  0
   -3.3350   -0.7725   -1.0797 N   0  0  0  0  0  0  0  0  0  0  0  0
   -4.7109   -0.7262   -0.5465 C   0  0  0  0  0  0  0  0  0  0  0  0
   -5.6840   -1.1735   -1.6381 C   0  0  0  0  0  0  0  0  0  0  0  0
   -7.0686   -0.6090   -1.3627 C   0  0  0  0  0  0  0  0  0  0  0  0
   -7.0545    0.8481   -1.4757 N   0  0  0  0  0  0  0  0  0  0  0  0
   -7.9256    1.4429   -0.5060 C   0  0  0  0  0  0  0  0  0  0  0  0
   -5.7125    1.3648   -1.3451 C   0  0  0  0  0  0  0  0  0  0  0  0
   -5.0478    0.6987   -0.1412 C   0  0  0  0  0  0  0  0  0  0  0  0
   -2.4393   -0.5268    1.1911 C   0  0  0  0  0  0  0  0  0  0  0  0
   -1.3983   -0.3865    2.0752 C   0  0  0  0  0  0  0  0  0  0  0  0
   -0.1583   -0.3218    1.5470 N   0  0  0  0  0  0  0  0  0  0  0  0
    0.1135   -0.3851    0.2376 C   0  0  0  0  0  0  0  0  0  0  0  0
    1.4095   -0.3081   -0.2342 C   0  0  0  0  0  0  0  0  0  0  0  0
    1.7181   -0.3659   -1.5710 C   0  0  0  0  0  0  0  0  0  0  0  0
    3.0150   -0.2885   -2.0430 O   0  0  0  0  0  0  0  0  0  0  0  0
    4.1340   -0.1406   -1.1445 C   0  0  0  0  0  0  0  0  0  0  0  0
    5.3858   -0.0893   -1.9622 C   0  0  0  0  0  0  0  0  0  0  0  0
    6.6777    0.0164   -1.2710 C   0  0  0  0  0  0  0  0  0  0  0  0
    6.9996    1.1028   -0.4496 N   0  0  0  0  0  0  0  0  0  0  0  0
    6.3846    1.2876    0.8052 C   0  0  0  0  0  0  0  0  0  0  0  0
    6.7446    0.0128    1.5544 C   0  0  0  0  0  0  0  0  0  0  0  0
    8.1673   -0.2049    1.0217 C   0  0  0  0  0  0  0  0  0  0  0  0
    8.4051    0.8742   -0.0135 C   0  0  0  0  0  0  0  0  0  0  0  0
   -1.5785   -0.3083    3.5150 C   0  0  0  0  0  0  0  0  0  0  0  0
   -0.5069   -0.1668    4.3790 C   0  0  0  0  0  0  0  0  0  0  0  0
   -0.7264   -0.0980    5.7283 C   0  0  0  0  0  0  0  0  0  0  0  0
   -2.0015   -0.1671    6.2496 C   0  0  0  0  0  0  0  0  0  0  0  0
   -3.0311   -0.3036    5.4108 N   0  0  0  0  0  0  0  0  0  0  0  0
   -2.8253   -0.3725    4.0786 C   0  0  0  0  0  0  0  0  0  0  0  0
   -0.8122    0.1818   -4.5854 H   0  0  0  0  0  0  0  0  0  0  0  0
   -0.7530   -1.6069   -4.5061 H   0  0  0  0  0  0  0  0  0  0  0  0
    0.2530   -0.7040   -5.7570 H   0  0  0  0  0  0  0  0  0  0  0  0
   -1.4637   -0.6973   -2.7357 H   0  0  0  0  0  0  0  0  0  0  0  0
   -3.2366   -0.9324   -2.0834 H   0  0  0  0  0  0  0  0  0  0  0  0
   -4.8549   -1.3991    0.3095 H   0  0  0  0  0  0  0  0  0  0  0  0
   -5.3303   -0.8710   -2.6181 H   0  0  0  0  0  0  0  0  0  0  0  0
   -5.7917   -2.2794   -1.5946 H   0  0  0  0  0  0  0  0  0  0  0  0
   -7.7487   -1.0041   -2.1224 H   0  0  0  0  0  0  0  0  0  0  0  0
   -7.3136   -0.9211   -0.3214 H   0  0  0  0  0  0  0  0  0  0  0  0
   -8.4034    0.6591    0.1058 H   0  0  0  0  0  0  0  0  0  0  0  0
   -8.7346    2.0137   -1.0438 H   0  0  0  0  0  0  0  0  0  0  0  0
   -7.3794    2.1239    0.2055 H   0  0  0  0  0  0  0  0  0  0  0  0
   -5.1199    1.1078   -2.2310 H   0  0  0  0  0  0  0  0  0  0  0  0
   -5.7853    2.4637   -1.2214 H   0  0  0  0  0  0  0  0  0  0  0  0
   -5.6555    0.7702    0.7618 H   0  0  0  0  0  0  0  0  0  0  0  0
   -4.0720    1.2047    0.0740 H   0  0  0  0  0  0  0  0  0  0  0  0
   -3.4474   -0.5897    1.5264 H   0  0  0  0  0  0  0  0  0  0  0  0
    2.2002   -0.1976    0.4983 H   0  0  0  0  0  0  0  0  0  0  0  0
    4.1636   -0.9770   -0.4246 H   0  0  0  0  0  0  0  0  0  0  0  0
    3.9068    0.7847   -0.5804 H   0  0  0  0  0  0  0  0  0  0  0  0
    5.2801    0.6718   -2.8058 H   0  0  0  0  0  0  0  0  0  0  0  0
    5.3917   -1.0692   -2.5494 H   0  0  0  0  0  0  0  0  0  0  0  0
    7.5152   -0.0373   -2.0595 H   0  0  0  0  0  0  0  0  0  0  0  0
    6.8550   -0.9897   -0.7452 H   0  0  0  0  0  0  0  0  0  0  0  0
    7.0107    2.0815    1.3410 H   0  0  0  0  0  0  0  0  0  0  0  0
    5.3663    1.6052    0.8841 H   0  0  0  0  0  0  0  0  0  0  0  0
    6.7612    0.1849    2.6502 H   0  0  0  0  0  0  0  0  0  0  0  0
    6.0744   -0.8167    1.3379 H   0  0  0  0  0  0  0  0  0  0  0  0
    8.8772   -0.0182    1.8575 H   0  0  0  0  0  0  0  0  0  0  0  0
    8.3216   -1.2213    0.6478 H   0  0  0  0  0  0  0  0  0  0  0  0
    8.8442    1.7844    0.3924 H   0  0  0  0  0  0  0  0  0  0  0  0
    8.9132    0.4540   -0.9018 H   0  0  0  0  0  0  0  0  0  0  0  0
    0.4787   -0.1163    3.9273 H   0  0  0  0  0  0  0  0  0  0  0  0
    0.1157    0.0115    6.3861 H   0  0  0  0  0  0  0  0  0  0  0  0
   -2.2173   -0.1170    7.3058 H   0  0  0  0  0  0  0  0  0  0  0  0
   -3.7210   -0.4825    3.4845 H   0  0  0  0  0  0  0  0  0  0  0  0
  1  2  1  0
  2  3  1  0
  3  4  2  0
  4  5  1  0
  5  6  2  0
  6  7  1  0
  7  8  1  0
  8  9  1  0
  9 10  1  0
 10 11  1  0
 11 12  1  0
 11 13  1  0
 13 14  1  0
  6 15  1  0
 15 16  2  0
 16 17  1  0
 17 18  2  0
 18 19  1  0
 19 20  2  0
 20 21  1  0
 21 22  1  0
 22 23  1  0
 23 24  1  0
 24 25  1  0
 25 26  1  0
 26 27  1  0
 27 28  1  0
 28 29  1  0
 16 30  1  0
 30 31  2  0
 31 32  1  0
 32 33  2  0
 33 34  1  0
 34 35  2  0
 20  3  1  0
 29 25  1  0
 35 30  1  0
 18  5  1  0
 14  8  1  0
  1 36  1  0
  1 37  1  0
  1 38  1  0
  4 39  1  0
  7 40  1  0
  8 41  1  0
  9 42  1  0
  9 43  1  0
 10 44  1  0
 10 45  1  0
 12 46  1  0
 12 47  1  0
 12 48  1  0
 13 49  1  0
 13 50  1  0
 14 51  1  0
 14 52  1  0
 15 53  1  0
 19 54  1  0
 22 55  1  0
 22 56  1  0
 23 57  1  0
 23 58  1  0
 24 59  1  0
 24 60  1  0
 26 61  1  0
 26 62  1  0
 27 63  1  0
 27 64  1  0
 28 65  1  0
 28 66  1  0
 29 67  1  0
 29 68  1  0
 31 69  1  0
 32 70  1  0
 33 71  1  0
 35 72  1  0
M  END
$$$$
[H]c1c([H])c([H])c(-c2nc3c([H])c(OC([H])([H])C([H])([H])C([H])([H])N4C([H])([H])C([H])([H])C([H])([H])C4([H])[H])c(OC([H])([H])[H])c([H])c3c(N([H])C3([H])C([H])([H])C([H])([H])N(C([H])([H])[H])C([H])([H])C3([H])[H])c2[H])c([H])c1[H]
     RDKit          3D

 73 77  0  0  0  0  0  0  0  0999 V2000
    0.4509    5.0234    0.0121 C   0  0  0  0  0  0  0  0  0  0  0  0
    1.3419    4.0263   -0.4387 O   0  0  0  0  0  0  0  0  0  0  0  0
    1.0106    2.6892   -0.5310 C   0  0  0  0  0  0  0  0  0  0  0  0
   -0.2430    2.2648   -0.1733 C   0  0  0  0  0  0  0  0  0  0  0  0
   -0.6248    0.9472   -0.2451 C   0  0  0  0  0  0  0  0  0  0  0  0
   -1.8790    0.5577    0.1327 C   0  0  0  0  0  0  0  0  0  0  0  0
   -2.8912    1.4484    0.6316 N   0  0  0  0  0  0  0  0  0  0  0  0
   -4.2364    1.0261    0.8647 C   0  0  0  0  0  0  0  0  0  0  0  0
   -4.9721    0.7809   -0.4136 C   0  0  0  0  0  0  0  0  0  0  0  0
   -6.3577    0.2224   -0.1365 C   0  0  0  0  0  0  0  0  0  0  0  0
   -7.1044    1.0807    0.7442 N   0  0  0  0  0  0  0  0  0  0  0  0
   -7.9687    1.9938    0.0295 C   0  0  0  0  0  0  0  0  0  0  0  0
   -6.4160    1.6505    1.8339 C   0  0  0  0  0  0  0  0  0  0  0  0
   -5.0042    2.1155    1.5813 C   0  0  0  0  0  0  0  0  0  0  0  0
   -2.1686   -0.8145    0.0380 C   0  0  0  0  0  0  0  0  0  0  0  0
   -1.2419   -1.7164   -0.4120 C   0  0  0  0  0  0  0  0  0  0  0  0
   -0.0113   -1.2503   -0.7727 N   0  0  0  0  0  0  0  0  0  0  0  0
    0.3242    0.0298   -0.7058 C   0  0  0  0  0  0  0  0  0  0  0  0
    1.5840    0.4614   -1.0665 C   0  0  0  0  0  0  0  0  0  0  0  0
    1.9703    1.7779   -0.9942 C   0  0  0  0  0  0  0  0  0  0  0  0
    3.1690    2.2869   -1.3173 O   0  0  0  0  0  0  0  0  0  0  0  0
    4.3076    1.7011   -1.7670 C   0  0  0  0  0  0  0  0  0  0  0  0
    4.9505    0.7560   -0.7846 C   0  0  0  0  0  0  0  0  0  0  0  0
    6.2088    0.1379   -1.3544 C   0  0  0  0  0  0  0  0  0  0  0  0
    6.8750   -0.7723   -0.4891 N   0  0  0  0  0  0  0  0  0  0  0  0
    7.4887   -0.2300    0.6734 C   0  0  0  0  0  0  0  0  0  0  0  0
    7.8855   -1.4438    1.4803 C   0  0  0  0  0  0  0  0  0  0  0  0
    6.9588   -2.5184    1.0149 C   0  0  0  0  0  0  0  0  0  0  0  0
    6.0613   -1.8619   -0.0358 C   0  0  0  0  0  0  0  0  0  0  0  0
   -1.4793   -3.1537   -0.5268 C   0  0  0  0  0  0  0  0  0  0  0  0
   -2.6848   -3.6733   -0.1670 C   0  0  0  0  0  0  0  0  0  0  0  0
   -2.9583   -5.0336   -0.2548 C   0  0  0  0  0  0  0  0  0  0  0  0
   -1.9534   -5.8534   -0.7244 C   0  0  0  0  0  0  0  0  0  0  0  0
   -0.7267   -5.3357   -1.0924 C   0  0  0  0  0  0  0  0  0  0  0  0
   -0.4772   -3.9991   -0.9995 C   0  0  0  0  0  0  0  0  0  0  0  0
   -0.2560    5.2110   -0.8118 H   0  0  0  0  0  0  0  0  0  0  0  0
   -0.0817    4.6854    0.9289 H   0  0  0  0  0  0  0  0  0  0  0  0
    1.0048    5.9518    0.2924 H   0  0  0  0  0  0  0  0  0  0  0  0
   -0.9777    3.0181    0.1837 H   0  0  0  0  0  0  0  0  0  0  0  0
   -2.6251    2.4423    0.8375 H   0  0  0  0  0  0  0  0  0  0  0  0
   -4.2954    0.0859    1.4618 H   0  0  0  0  0  0  0  0  0  0  0  0
   -5.1286    1.7180   -0.9945 H   0  0  0  0  0  0  0  0  0  0  0  0
   -4.4348    0.0956   -1.0531 H   0  0  0  0  0  0  0  0  0  0  0  0
   -6.3025   -0.7955    0.2761 H   0  0  0  0  0  0  0  0  0  0  0  0
   -6.8881    0.1721   -1.1026 H   0  0  0  0  0  0  0  0  0  0  0  0
   -7.5713    2.2161   -0.9851 H   0  0  0  0  0  0  0  0  0  0  0  0
   -8.1476    2.9458    0.5683 H   0  0  0  0  0  0  0  0  0  0  0  0
   -8.9661    1.5101   -0.0661 H   0  0  0  0  0  0  0  0  0  0  0  0
   -6.4672    0.9891    2.7346 H   0  0  0  0  0  0  0  0  0  0  0  0
   -6.9887    2.5712    2.1444 H   0  0  0  0  0  0  0  0  0  0  0  0
   -5.0601    2.9832    0.9157 H   0  0  0  0  0  0  0  0  0  0  0  0
   -4.5062    2.3218    2.5185 H   0  0  0  0  0  0  0  0  0  0  0  0
   -3.1275   -1.1469    0.3435 H   0  0  0  0  0  0  0  0  0  0  0  0
    2.2743   -0.2840   -1.4443 H   0  0  0  0  0  0  0  0  0  0  0  0
    5.0575    2.4892   -2.0934 H   0  0  0  0  0  0  0  0  0  0  0  0
    4.1418    1.1141   -2.7381 H   0  0  0  0  0  0  0  0  0  0  0  0
    4.2540   -0.0238   -0.4884 H   0  0  0  0  0  0  0  0  0  0  0  0
    5.1728    1.3376    0.1405 H   0  0  0  0  0  0  0  0  0  0  0  0
    6.9363    0.9347   -1.6442 H   0  0  0  0  0  0  0  0  0  0  0  0
    5.9576   -0.4077   -2.2911 H   0  0  0  0  0  0  0  0  0  0  0  0
    6.8514    0.4545    1.2689 H   0  0  0  0  0  0  0  0  0  0  0  0
    8.4578    0.2953    0.4383 H   0  0  0  0  0  0  0  0  0  0  0  0
    7.7887   -1.2134    2.5607 H   0  0  0  0  0  0  0  0  0  0  0  0
    8.9412   -1.7241    1.2804 H   0  0  0  0  0  0  0  0  0  0  0  0
    6.3302   -2.8370    1.8910 H   0  0  0  0  0  0  0  0  0  0  0  0
    7.5253   -3.3462    0.5837 H   0  0  0  0  0  0  0  0  0  0  0  0
    5.1044   -1.5872    0.4172 H   0  0  0  0  0  0  0  0  0  0  0  0
    5.9377   -2.5428   -0.9143 H   0  0  0  0  0  0  0  0  0  0  0  0
   -3.5260   -3.0689    0.2157 H   0  0  0  0  0  0  0  0  0  0  0  0
   -3.9272   -5.4186    0.0389 H   0  0  0  0  0  0  0  0  0  0  0  0
   -2.1703   -6.9203   -0.7927 H   0  0  0  0  0  0  0  0  0  0  0  0
    0.0604   -6.0090   -1.4661 H   0  0  0  0  0  0  0  0  0  0  0  0
    0.4637   -3.5387   -1.2724 H   0  0  0  0  0  0  0  0  0  0  0  0
  1  2  1  0
  2  3  1  0
  3  4  2  0
  4  5  1  0
  5  6  2  0
  6  7  1  0
  7  8  1  0
  8  9  1  0
  9 10  1  0
 10 11  1  0
 11 12  1  0
 11 13  1  0
 13 14  1  0
  6 15  1  0
 15 16  2  0
 16 17  1  0
 17 18  2  0
 18 19  1  0
 19 20  2  0
 20 21  1  0
 21 22  1  0
 22 23  1  0
 23 24  1  0
 24 25  1  0
 25 26  1  0
 26 27  1  0
 27 28  1  0
 28 29  1  0
 16 30  1  0
 30 31  2  0
 31 32  1  0
 32 33  2  0
 33 34  1  0
 34 35  2  0
 20  3  1  0
 29 25  1  0
 35 30  1  0
 18  5  1  0
 14  8  1  0
  1 36  1  0
  1 37  1  0
  1 38  1  0
  4 39  1  0
  7 40  1  0
  8 41  1  0
  9 42  1  0
  9 43  1  0
 10 44  1  0
 10 45  1  0
 12 46  1  0
 12 47  1  0
 12 48  1  0
 13 49  1  0
 13 50  1  0
 14 51  1  0
 14 52  1  0
 15 53  1  0
 19 54  1  0
 22 55  1  0
 22 56  1  0
 23 57  1  0
 23 58  1  0
 24 59  1  0
 24 60  1  0
 26 61  1  0
 26 62  1  0
 27 63  1  0
 27 64  1  0
 28 65  1  0
 28 66  1  0
 29 67  1  0
 29 68  1  0
 31 69  1  0
 32 70  1  0
 33 71  1  0
 34 72  1  0
 35 73  1  0
M  END
$$$$
[H]c1c(C([H])([H])[H])nc2c([H])c(OC([H])([H])C([H])([H])C([H])([H])N3C([H])([H])C([H])([H])C([H])([H])C3([H])[H])c(OC([H])([H])[H])c([H])c2c1N([H])C1([H])C([H])([H])C([H])([H])N(C([H])([H])[H])C([H])([H])C1([H])[H]
     RDKit          3D

 66 69  0  0  0  0  0  0  0  0999 V2000
   -0.3577    3.9979    0.6596 C   0  0  0  0  0  0  0  0  0  0  0  0
    0.6755    3.1148    0.2698 O   0  0  0  0  0  0  0  0  0  0  0  0
    0.4159    1.7638    0.0866 C   0  0  0  0  0  0  0  0  0  0  0  0
   -0.8377    1.2278    0.2724 C   0  0  0  0  0  0  0  0  0  0  0  0
   -1.1275   -0.1111    0.0982 C   0  0  0  0  0  0  0  0  0  0  0  0
   -2.3773   -0.6666    0.2796 C   0  0  0  0  0  0  0  0  0  0  0  0
   -3.4647    0.1673    0.6895 N   0  0  0  0  0  0  0  0  0  0  0  0
   -4.7987   -0.4105    0.8072 C   0  0  0  0  0  0  0  0  0  0  0  0
   -5.7023    0.6602    1.3915 C   0  0  0  0  0  0  0  0  0  0  0  0
   -7.1472    0.3197    1.1909 C   0  0  0  0  0  0  0  0  0  0  0  0
   -7.5234    0.3226   -0.1994 N   0  0  0  0  0  0  0  0  0  0  0  0
   -8.4606   -0.7542   -0.4195 C   0  0  0  0  0  0  0  0  0  0  0  0
   -6.3631    0.2227   -1.0637 C   0  0  0  0  0  0  0  0  0  0  0  0
   -5.3534   -0.7797   -0.5549 C   0  0  0  0  0  0  0  0  0  0  0  0
   -2.5794   -2.0207    0.0826 C   0  0  0  0  0  0  0  0  0  0  0  0
   -1.5393   -2.8556   -0.3010 C   0  0  0  0  0  0  0  0  0  0  0  0
   -1.7730   -4.3267   -0.5120 C   0  0  0  0  0  0  0  0  0  0  0  0
   -0.3335   -2.2968   -0.4719 N   0  0  0  0  0  0  0  0  0  0  0  0
   -0.1193   -0.9718   -0.2825 C   0  0  0  0  0  0  0  0  0  0  0  0
    1.1476   -0.4269   -0.4701 C   0  0  0  0  0  0  0  0  0  0  0  0
    1.4554    0.8985   -0.3014 C   0  0  0  0  0  0  0  0  0  0  0  0
    2.6836    1.4748   -0.4701 O   0  0  0  0  0  0  0  0  0  0  0  0
    3.8739    0.8602   -0.8054 C   0  0  0  0  0  0  0  0  0  0  0  0
    4.4295   -0.1259    0.1666 C   0  0  0  0  0  0  0  0  0  0  0  0
    5.7445   -0.7000   -0.3830 C   0  0  0  0  0  0  0  0  0  0  0  0
    6.7086    0.3684   -0.5847 N   0  0  0  0  0  0  0  0  0  0  0  0
    7.9550   -0.1029   -1.0965 C   0  0  0  0  0  0  0  0  0  0  0  0
    9.0508    0.2433   -0.1412 C   0  0  0  0  0  0  0  0  0  0  0  0
    8.4351    1.3179    0.7282 C   0  0  0  0  0  0  0  0  0  0  0  0
    6.9498    1.0389    0.6675 C   0  0  0  0  0  0  0  0  0  0  0  0
    0.0249    5.0043    0.8355 H   0  0  0  0  0  0  0  0  0  0  0  0
   -0.8592    3.5476    1.5452 H   0  0  0  0  0  0  0  0  0  0  0  0
   -1.1285    3.9778   -0.1525 H   0  0  0  0  0  0  0  0  0  0  0  0
   -1.6357    1.9097    0.5723 H   0  0  0  0  0  0  0  0  0  0  0  0
   -3.3567    1.1605    0.9092 H   0  0  0  0  0  0  0  0  0  0  0  0
   -4.7692   -1.3040    1.4462 H   0  0  0  0  0  0  0  0  0  0  0  0
   -5.5275    0.7092    2.4969 H   0  0  0  0  0  0  0  0  0  0  0  0
   -5.4780    1.6016    0.8882 H   0  0  0  0  0  0  0  0  0  0  0  0
   -7.4299   -0.6432    1.6637 H   0  0  0  0  0  0  0  0  0  0  0  0
   -7.7467    1.1002    1.7100 H   0  0  0  0  0  0  0  0  0  0  0  0
   -8.4323   -1.1336   -1.4586 H   0  0  0  0  0  0  0  0  0  0  0  0
   -8.2425   -1.6052    0.2777 H   0  0  0  0  0  0  0  0  0  0  0  0
   -9.4708   -0.3839   -0.1360 H   0  0  0  0  0  0  0  0  0  0  0  0
   -6.6442   -0.1066   -2.0858 H   0  0  0  0  0  0  0  0  0  0  0  0
   -5.8728    1.2173   -1.0743 H   0  0  0  0  0  0  0  0  0  0  0  0
   -5.8795   -1.7449   -0.4607 H   0  0  0  0  0  0  0  0  0  0  0  0
   -4.5638   -0.8697   -1.3238 H   0  0  0  0  0  0  0  0  0  0  0  0
   -3.5419   -2.4934    0.2221 H   0  0  0  0  0  0  0  0  0  0  0  0
   -0.8667   -4.7482   -0.9636 H   0  0  0  0  0  0  0  0  0  0  0  0
   -2.6964   -4.5056   -1.0997 H   0  0  0  0  0  0  0  0  0  0  0  0
   -1.9252   -4.8384    0.4653 H   0  0  0  0  0  0  0  0  0  0  0  0
    1.9006   -1.1246   -0.7863 H   0  0  0  0  0  0  0  0  0  0  0  0
    3.7702    0.2900   -1.7849 H   0  0  0  0  0  0  0  0  0  0  0  0
    4.6327    1.6768   -0.9448 H   0  0  0  0  0  0  0  0  0  0  0  0
    4.6945    0.4374    1.0956 H   0  0  0  0  0  0  0  0  0  0  0  0
    3.8154   -0.9983    0.4011 H   0  0  0  0  0  0  0  0  0  0  0  0
    5.5609   -1.1667   -1.3758 H   0  0  0  0  0  0  0  0  0  0  0  0
    6.1035   -1.4236    0.3731 H   0  0  0  0  0  0  0  0  0  0  0  0
    7.9334   -1.2125   -1.1976 H   0  0  0  0  0  0  0  0  0  0  0  0
    8.1835    0.2941   -2.1204 H   0  0  0  0  0  0  0  0  0  0  0  0
    9.3606   -0.6240    0.4973 H   0  0  0  0  0  0  0  0  0  0  0  0
    9.9375    0.6329   -0.7166 H   0  0  0  0  0  0  0  0  0  0  0  0
    8.6590    2.3410    0.3599 H   0  0  0  0  0  0  0  0  0  0  0  0
    8.8046    1.2286    1.7518 H   0  0  0  0  0  0  0  0  0  0  0  0
    6.3345    1.9556    0.7502 H   0  0  0  0  0  0  0  0  0  0  0  0
    6.6845    0.3926    1.5339 H   0  0  0  0  0  0  0  0  0  0  0  0
  1  2  1  0
  2  3  1  0
  3  4  2  0
  4  5  1  0
  5  6  2  0
  6  7  1  0
  7  8  1  0
  8  9  1  0
  9 10  1  0
 10 11  1  0
 11 12  1  0
 11 13  1  0
 13 14  1  0
  6 15  1  0
 15 16  2  0
 16 17  1  0
 16 18  1  0
 18 19  2  0
 19 20  1  0
 20 21  2  0
 21 22  1  0
 22 23  1  0
 23 24  1  0
 24 25  1  0
 25 26  1  0
 26 27  1  0
 27 28  1  0
 28 29  1  0
 29 30  1  0
 21  3  1  0
 30 26  1  0
 19  5  1  0
 14  8  1  0
  1 31  1  0
  1 32  1  0
  1 33  1  0
  4 34  1  0
  7 35  1  0
  8 36  1  0
  9 37  1  0
  9 38  1  0
 10 39  1  0
 10 40  1  0
 12 41  1  0
 12 42  1  0
 12 43  1  0
 13 44  1  0
 13 45  1  0
 14 46  1  0
 14 47  1  0
 15 48  1  0
 17 49  1  0
 17 50  1  0
 17 51  1  0
 20 52  1  0
 23 53  1  0
 23 54  1  0
 24 55  1  0
 24 56  1  0
 25 57  1  0
 25 58  1  0
 27 59  1  0
 27 60  1  0
 28 61  1  0
 28 62  1  0
 29 63  1  0
 29 64  1  0
 30 65  1  0
 30 66  1  0
M  END
$$$$
[H]c1c(OC([H])([H])C([H])([H])C([H])([H])N2C([H])([H])C([H])([H])C([H])([H])C2([H])[H])c(OC([H])([H])[H])c([H])c2c(N([H])C3([H])C([H])([H])C([H])([H])N(C([H])(C([H])([H])[H])C([H])([H])[H])C([H])([H])C3([H])[H])nc(N3C([H])([H])C([H])([H])C(F)(F)C([H])([H])C3([H])[H])nc12
     RDKit          3D

 83 87  0  0  0  0  0  0  0  0999 V2000
    2.3090   -3.5814    0.3289 C   0  0  0  0  0  0  0  0  0  0  0  0
    2.9493   -2.3640    0.0084 O   0  0  0  0  0  0  0  0  0  0  0  0
    2.2270   -1.1922   -0.1301 C   0  0  0  0  0  0  0  0  0  0  0  0
    0.8618   -1.2415    0.0510 C   0  0  0  0  0  0  0  0  0  0  0  0
    0.0564   -0.1444   -0.0619 C   0  0  0  0  0  0  0  0  0  0  0  0
   -1.2996   -0.2054    0.1189 C   0  0  0  0  0  0  0  0  0  0  0  0
   -1.9634   -1.4074    0.4319 N   0  0  0  0  0  0  0  0  0  0  0  0
   -3.3769   -1.5351    0.6379 C   0  0  0  0  0  0  0  0  0  0  0  0
   -3.9475   -0.7420    1.7702 C   0  0  0  0  0  0  0  0  0  0  0  0
   -5.4708   -0.7658    1.7270 C   0  0  0  0  0  0  0  0  0  0  0  0
   -5.9359   -1.8798    0.9197 N   0  0  0  0  0  0  0  0  0  0  0  0
   -5.5588   -1.7674   -0.4661 C   0  0  0  0  0  0  0  0  0  0  0  0
   -4.1523   -1.1580   -0.6023 C   0  0  0  0  0  0  0  0  0  0  0  0
   -7.3082   -2.1545    1.1401 C   0  0  0  0  0  0  0  0  0  0  0  0
   -8.2741   -1.0775    0.7730 C   0  0  0  0  0  0  0  0  0  0  0  0
   -7.7677   -3.4462    0.4841 C   0  0  0  0  0  0  0  0  0  0  0  0
   -1.9979    0.9599   -0.0215 N   0  0  0  0  0  0  0  0  0  0  0  0
   -1.4137    2.1340   -0.3236 C   0  0  0  0  0  0  0  0  0  0  0  0
   -0.0835    2.1565   -0.4940 N   0  0  0  0  0  0  0  0  0  0  0  0
    0.6958    1.0541   -0.3759 C   0  0  0  0  0  0  0  0  0  0  0  0
    2.0545    1.1364   -0.5627 C   0  0  0  0  0  0  0  0  0  0  0  0
    2.8670    0.0012   -0.4436 C   0  0  0  0  0  0  0  0  0  0  0  0
    4.1335    0.0730   -0.6178 O   0  0  0  0  0  0  0  0  0  0  0  0
    5.4076    0.2225   -0.8080 C   0  0  0  0  0  0  0  0  0  0  0  0
    6.1460   -1.1104   -0.6422 C   0  0  0  0  0  0  0  0  0  0  0  0
    7.6186   -0.9916   -0.8558 C   0  0  0  0  0  0  0  0  0  0  0  0
    8.2966   -0.0942    0.0305 N   0  0  0  0  0  0  0  0  0  0  0  0
    8.3215   -0.5713    1.4062 C   0  0  0  0  0  0  0  0  0  0  0  0
    9.2928   -1.7281    1.4336 C   0  0  0  0  0  0  0  0  0  0  0  0
   10.2037   -1.4700    0.2630 C   0  0  0  0  0  0  0  0  0  0  0  0
    9.7156   -0.1581   -0.2981 C   0  0  0  0  0  0  0  0  0  0  0  0
   -2.1433    3.3348   -0.4698 N   0  0  0  0  0  0  0  0  0  0  0  0
   -1.4797    4.5804   -0.7259 C   0  0  0  0  0  0  0  0  0  0  0  0
   -2.4265    5.4898   -1.5201 C   0  0  0  0  0  0  0  0  0  0  0  0
   -3.6622    5.7744   -0.7092 C   0  0  0  0  0  0  0  0  0  0  0  0
   -3.4922    6.8888    0.1053 F   0  0  0  0  0  0  0  0  0  0  0  0
   -4.7089    6.0156   -1.5771 F   0  0  0  0  0  0  0  0  0  0  0  0
   -4.0386    4.6333    0.1827 C   0  0  0  0  0  0  0  0  0  0  0  0
   -3.5770    3.2960   -0.3611 C   0  0  0  0  0  0  0  0  0  0  0  0
    1.5125   -3.8276   -0.3998 H   0  0  0  0  0  0  0  0  0  0  0  0
    1.8794   -3.5817    1.3415 H   0  0  0  0  0  0  0  0  0  0  0  0
    3.0815   -4.3849    0.2941 H   0  0  0  0  0  0  0  0  0  0  0  0
    0.4050   -2.1967    0.2950 H   0  0  0  0  0  0  0  0  0  0  0  0
   -1.3951   -2.2889    0.5243 H   0  0  0  0  0  0  0  0  0  0  0  0
   -3.6702   -2.6071    0.8405 H   0  0  0  0  0  0  0  0  0  0  0  0
   -3.5942   -1.2039    2.7218 H   0  0  0  0  0  0  0  0  0  0  0  0
   -3.6643    0.3225    1.7942 H   0  0  0  0  0  0  0  0  0  0  0  0
   -5.8195   -0.9391    2.7598 H   0  0  0  0  0  0  0  0  0  0  0  0
   -5.9081    0.1551    1.3432 H   0  0  0  0  0  0  0  0  0  0  0  0
   -5.5022   -2.7920   -0.8870 H   0  0  0  0  0  0  0  0  0  0  0  0
   -6.2233   -1.1375   -1.0580 H   0  0  0  0  0  0  0  0  0  0  0  0
   -4.2377   -0.0504   -0.7244 H   0  0  0  0  0  0  0  0  0  0  0  0
   -3.6936   -1.5871   -1.5042 H   0  0  0  0  0  0  0  0  0  0  0  0
   -7.4523   -2.3324    2.2495 H   0  0  0  0  0  0  0  0  0  0  0  0
   -9.2215   -1.2606    1.3605 H   0  0  0  0  0  0  0  0  0  0  0  0
   -8.6175   -1.1688   -0.2951 H   0  0  0  0  0  0  0  0  0  0  0  0
   -7.9649   -0.0550    1.0088 H   0  0  0  0  0  0  0  0  0  0  0  0
   -8.2438   -3.2789   -0.5060 H   0  0  0  0  0  0  0  0  0  0  0  0
   -6.8770   -4.0933    0.3102 H   0  0  0  0  0  0  0  0  0  0  0  0
   -8.5313   -3.9694    1.1008 H   0  0  0  0  0  0  0  0  0  0  0  0
    2.5118    2.0780   -0.8030 H   0  0  0  0  0  0  0  0  0  0  0  0
    5.6620    0.6374   -1.8342 H   0  0  0  0  0  0  0  0  0  0  0  0
    5.8574    0.9789   -0.1007 H   0  0  0  0  0  0  0  0  0  0  0  0
    5.9048   -1.5051    0.3445 H   0  0  0  0  0  0  0  0  0  0  0  0
    5.7515   -1.7529   -1.4668 H   0  0  0  0  0  0  0  0  0  0  0  0
    7.8899   -0.7454   -1.8945 H   0  0  0  0  0  0  0  0  0  0  0  0
    8.0509   -2.0136   -0.6747 H   0  0  0  0  0  0  0  0  0  0  0  0
    7.3380   -0.9583    1.6837 H   0  0  0  0  0  0  0  0  0  0  0  0
    8.6519    0.2747    2.0573 H   0  0  0  0  0  0  0  0  0  0  0  0
    9.8843   -1.6754    2.3547 H   0  0  0  0  0  0  0  0  0  0  0  0
    8.7616   -2.6993    1.3337 H   0  0  0  0  0  0  0  0  0  0  0  0
   10.0674   -2.3031   -0.4783 H   0  0  0  0  0  0  0  0  0  0  0  0
   11.2633   -1.4436    0.5543 H   0  0  0  0  0  0  0  0  0  0  0  0
    9.8624   -0.2107   -1.3987 H   0  0  0  0  0  0  0  0  0  0  0  0
   10.2608    0.6957    0.1550 H   0  0  0  0  0  0  0  0  0  0  0  0
   -1.2756    5.1543    0.2268 H   0  0  0  0  0  0  0  0  0  0  0  0
   -0.5184    4.4636   -1.2570 H   0  0  0  0  0  0  0  0  0  0  0  0
   -1.8944    6.4418   -1.7783 H   0  0  0  0  0  0  0  0  0  0  0  0
   -2.6880    4.9218   -2.4288 H   0  0  0  0  0  0  0  0  0  0  0  0
   -3.6486    4.8003    1.1971 H   0  0  0  0  0  0  0  0  0  0  0  0
   -5.1485    4.5839    0.2500 H   0  0  0  0  0  0  0  0  0  0  0  0
   -4.0644    3.0428   -1.3128 H   0  0  0  0  0  0  0  0  0  0  0  0
   -3.8199    2.5474    0.4324 H   0  0  0  0  0  0  0  0  0  0  0  0
  1  2  1  0
  2  3  1  0
  3  4  2  0
  4  5  1  0
  5  6  2  0
  6  7  1  0
  7  8  1  0
  8  9  1  0
  9 10  1  0
 10 11  1  0
 11 12  1  0
 12 13  1  0
 11 14  1  0
 14 15  1  0
 14 16  1  0
  6 17  1  0
 17 18  2  0
 18 19  1  0
 19 20  2  0
 20 21  1  0
 21 22  2  0
 22 23  1  0
 23 24  1  0
 24 25  1  0
 25 26  1  0
 26 27  1  0
 27 28  1  0
 28 29  1  0
 29 30  1  0
 30 31  1  0
 18 32  1  0
 32 33  1  0
 33 34  1  0
 34 35  1  0
 35 36  1  0
 35 37  1  0
 35 38  1  0
 38 39  1  0
 22  3  1  0
 31 27  1  0
 39 32  1  0
 20  5  1  0
 13  8  1  0
  1 40  1  0
  1 41  1  0
  1 42  1  0
  4 43  1  0
  7 44  1  0
  8 45  1  0
  9 46  1  0
  9 47  1  0
 10 48  1  0
 10 49  1  0
 12 50  1  0
 12 51  1  0
 13 52  1  0
 13 53  1  0
 14 54  1  0
 15 55  1  0
 15 56  1  0
 15 57  1  0
 16 58  1  0
 16 59  1  0
 16 60  1  0
 21 61  1  0
 24 62  1  0
 24 63  1  0
 25 64  1  0
 25 65  1  0
 26 66  1  0
 26 67  1  0
 28 68  1  0
 28 69  1  0
 29 70  1  0
 29 71  1  0
 30 72  1  0
 30 73  1  0
 31 74  1  0
 31 75  1  0
 33 76  1  0
 33 77  1  0
 34 78  1  0
 34 79  1  0
 38 80  1  0
 38 81  1  0
 39 82  1  0
 39 83  1  0
M  END
$$$$
[H]c1c(-c2nc3c([H])c(OC([H])([H])C([H])([H])C([H])([H])N4C([H])([H])C([H])([H])C([H])([H])C4([H])[H])c(OC([H])([H])[H])c([H])c3c(N([H])C3([H])C([H])([H])C4([H])N(C([H])([H])[H])C([H])(C([H])([H])C4([H])[H])C3([H])[H])c2[H])oc(C([H])([H])[H])c1[H]
     RDKit          3D

 77 82  0  0  0  0  0  0  0  0999 V2000
    1.0343    2.0251    3.6730 C   0  0  0  0  0  0  0  0  0  0  0  0
    1.8189    1.0492    3.0282 O   0  0  0  0  0  0  0  0  0  0  0  0
    1.2905    0.4077    1.9125 C   0  0  0  0  0  0  0  0  0  0  0  0
    0.0133    0.7293    1.4502 C   0  0  0  0  0  0  0  0  0  0  0  0
   -0.4993    0.1028    0.3627 C   0  0  0  0  0  0  0  0  0  0  0  0
   -1.7525    0.3767   -0.1416 C   0  0  0  0  0  0  0  0  0  0  0  0
   -2.5817    1.3621    0.4373 N   0  0  0  0  0  0  0  0  0  0  0  0
   -3.9485    1.5512   -0.0866 C   0  0  0  0  0  0  0  0  0  0  0  0
   -4.7415    0.3426    0.2579 C   0  0  0  0  0  0  0  0  0  0  0  0
   -5.8231    0.6103    1.2841 C   0  0  0  0  0  0  0  0  0  0  0  0
   -5.1347    1.0524    2.5568 C   0  0  0  0  0  0  0  0  0  0  0  0
   -5.3471    2.5705    2.6384 C   0  0  0  0  0  0  0  0  0  0  0  0
   -5.7189    2.8559    1.1743 C   0  0  0  0  0  0  0  0  0  0  0  0
   -4.4638    2.8527    0.3899 C   0  0  0  0  0  0  0  0  0  0  0  0
   -6.6196    1.7601    0.9453 N   0  0  0  0  0  0  0  0  0  0  0  0
   -7.1618    1.7234   -0.3819 C   0  0  0  0  0  0  0  0  0  0  0  0
   -2.1495   -0.3346   -1.2537 C   0  0  0  0  0  0  0  0  0  0  0  0
   -1.3385   -1.2862   -1.8511 C   0  0  0  0  0  0  0  0  0  0  0  0
   -0.1389   -1.5299   -1.3464 N   0  0  0  0  0  0  0  0  0  0  0  0
    0.2951   -0.8629   -0.2630 C   0  0  0  0  0  0  0  0  0  0  0  0
    1.5509   -1.1807    0.1898 C   0  0  0  0  0  0  0  0  0  0  0  0
    2.0669   -0.5422    1.2931 C   0  0  0  0  0  0  0  0  0  0  0  0
    3.3505   -0.8457    1.7802 O   0  0  0  0  0  0  0  0  0  0  0  0
    4.0975   -1.8197    1.1097 C   0  0  0  0  0  0  0  0  0  0  0  0
    5.4348   -1.9770    1.8017 C   0  0  0  0  0  0  0  0  0  0  0  0
    6.1862   -0.6435    1.7795 C   0  0  0  0  0  0  0  0  0  0  0  0
    6.4029   -0.2263    0.4124 N   0  0  0  0  0  0  0  0  0  0  0  0
    7.3180   -1.0442   -0.3177 C   0  0  0  0  0  0  0  0  0  0  0  0
    8.3985   -0.1862   -0.8951 C   0  0  0  0  0  0  0  0  0  0  0  0
    7.8169    1.2064   -0.8264 C   0  0  0  0  0  0  0  0  0  0  0  0
    6.9323    1.1238    0.4005 C   0  0  0  0  0  0  0  0  0  0  0  0
   -1.7745   -2.0297   -3.0331 C   0  0  0  0  0  0  0  0  0  0  0  0
   -2.9865   -1.8970   -3.6775 C   0  0  0  0  0  0  0  0  0  0  0  0
   -2.9584   -2.7869   -4.7287 C   0  0  0  0  0  0  0  0  0  0  0  0
   -1.7370   -3.4261   -4.6866 C   0  0  0  0  0  0  0  0  0  0  0  0
   -1.2489   -4.4862   -5.6376 C   0  0  0  0  0  0  0  0  0  0  0  0
   -1.0810   -2.9402   -3.6673 O   0  0  0  0  0  0  0  0  0  0  0  0
    1.6607    2.4653    4.4793 H   0  0  0  0  0  0  0  0  0  0  0  0
    0.1486    1.5393    4.1140 H   0  0  0  0  0  0  0  0  0  0  0  0
    0.7343    2.7802    2.9361 H   0  0  0  0  0  0  0  0  0  0  0  0
   -0.5700    1.4839    1.9665 H   0  0  0  0  0  0  0  0  0  0  0  0
   -2.2509    1.9622    1.2243 H   0  0  0  0  0  0  0  0  0  0  0  0
   -3.7678    1.6426   -1.2015 H   0  0  0  0  0  0  0  0  0  0  0  0
   -4.1193   -0.4809    0.6617 H   0  0  0  0  0  0  0  0  0  0  0  0
   -5.2121   -0.0699   -0.6835 H   0  0  0  0  0  0  0  0  0  0  0  0
   -6.4267   -0.2859    1.4432 H   0  0  0  0  0  0  0  0  0  0  0  0
   -4.0646    0.8260    2.5851 H   0  0  0  0  0  0  0  0  0  0  0  0
   -5.7071    0.5727    3.4020 H   0  0  0  0  0  0  0  0  0  0  0  0
   -4.4542    3.1026    2.9610 H   0  0  0  0  0  0  0  0  0  0  0  0
   -6.2644    2.7913    3.2200 H   0  0  0  0  0  0  0  0  0  0  0  0
   -6.2426    3.8339    1.0791 H   0  0  0  0  0  0  0  0  0  0  0  0
   -4.5920    3.5829   -0.4662 H   0  0  0  0  0  0  0  0  0  0  0  0
   -3.6861    3.3758    1.0268 H   0  0  0  0  0  0  0  0  0  0  0  0
   -8.1870    2.1694   -0.3393 H   0  0  0  0  0  0  0  0  0  0  0  0
   -6.5612    2.4467   -1.0009 H   0  0  0  0  0  0  0  0  0  0  0  0
   -7.2588    0.7373   -0.8294 H   0  0  0  0  0  0  0  0  0  0  0  0
   -3.1045   -0.2009   -1.7408 H   0  0  0  0  0  0  0  0  0  0  0  0
    2.1679   -1.9415   -0.3094 H   0  0  0  0  0  0  0  0  0  0  0  0
    4.2968   -1.4524    0.0641 H   0  0  0  0  0  0  0  0  0  0  0  0
    3.6066   -2.7875    1.0087 H   0  0  0  0  0  0  0  0  0  0  0  0
    5.9992   -2.7381    1.2452 H   0  0  0  0  0  0  0  0  0  0  0  0
    5.2719   -2.3019    2.8306 H   0  0  0  0  0  0  0  0  0  0  0  0
    7.1632   -0.7572    2.2666 H   0  0  0  0  0  0  0  0  0  0  0  0
    5.5630    0.1267    2.2819 H   0  0  0  0  0  0  0  0  0  0  0  0
    7.7632   -1.8679    0.2794 H   0  0  0  0  0  0  0  0  0  0  0  0
    6.7775   -1.5212   -1.1744 H   0  0  0  0  0  0  0  0  0  0  0  0
    8.5990   -0.4532   -1.9744 H   0  0  0  0  0  0  0  0  0  0  0  0
    9.3395   -0.2346   -0.3176 H   0  0  0  0  0  0  0  0  0  0  0  0
    7.1902    1.3673   -1.7296 H   0  0  0  0  0  0  0  0  0  0  0  0
    8.5986    1.9715   -0.6976 H   0  0  0  0  0  0  0  0  0  0  0  0
    6.1124    1.8411    0.4029 H   0  0  0  0  0  0  0  0  0  0  0  0
    7.5792    1.2510    1.3147 H   0  0  0  0  0  0  0  0  0  0  0  0
   -3.7927   -1.2298   -3.4096 H   0  0  0  0  0  0  0  0  0  0  0  0
   -3.7421   -2.9751   -5.4756 H   0  0  0  0  0  0  0  0  0  0  0  0
   -1.3294   -4.1512   -6.6812 H   0  0  0  0  0  0  0  0  0  0  0  0
   -0.1986   -4.6775   -5.4193 H   0  0  0  0  0  0  0  0  0  0  0  0
   -1.8414   -5.3997   -5.4259 H   0  0  0  0  0  0  0  0  0  0  0  0
  1  2  1  0
  2  3  1  0
  3  4  2  0
  4  5  1  0
  5  6  2  0
  6  7  1  0
  7  8  1  0
  8  9  1  0
  9 10  1  0
 10 11  1  0
 11 12  1  0
 12 13  1  0
 13 14  1  0
 13 15  1  0
 15 16  1  0
  6 17  1  0
 17 18  2  0
 18 19  1  0
 19 20  2  0
 20 21  1  0
 21 22  2  0
 22 23  1  0
 23 24  1  0
 24 25  1  0
 25 26  1  0
 26 27  1  0
 27 28  1  0
 28 29  1  0
 29 30  1  0
 30 31  1  0
 18 32  1  0
 32 33  2  0
 33 34  1  0
 34 35  2  0
 35 36  1  0
 35 37  1  0
 22  3  1  0
 31 27  1  0
 37 32  1  0
 20  5  1  0
 14  8  1  0
 15 10  1  0
  1 38  1  0
  1 39  1  0
  1 40  1  0
  4 41  1  0
  7 42  1  0
  8 43  1  0
  9 44  1  0
  9 45  1  0
 10 46  1  0
 11 47  1  0
 11 48  1  0
 12 49  1  0
 12 50  1  0
 13 51  1  0
 14 52  1  0
 14 53  1  0
 16 54  1  0
 16 55  1  0
 16 56  1  0
 17 57  1  0
 21 58  1  0
 24 59  1  0
 24 60  1  0
 25 61  1  0
 25 62  1  0
 26 63  1  0
 26 64  1  0
 28 65  1  0
 28 66  1  0
 29 67  1  0
 29 68  1  0
 30 69  1  0
 30 70  1  0
 31 71  1  0
 31 72  1  0
 33 73  1  0
 34 74  1  0
 36 75  1  0
 36 76  1  0
 36 77  1  0
M  END
$$$$
[H]c1c(OC([H])([H])C([H])([H])C([H])([H])N2C([H])([H])C([H])([H])C([H])([H])C2([H])[H])c(OC([H])([H])[H])c([H])c2c(N([H])C3([H])C([H])([H])C([H])([H])N(C([H])(C([H])([H])[H])C([H])([H])[H])C([H])([H])C3([H])[H])nc(N3C([H])([H])C([H])([H])N(C4([H])C([H])([H])C([H])([H])C([H])([H])C([H])([H])C4([H])[H])C([H])([H])C([H])([H])C3([H])[H])nc12
     RDKit          3D

101106  0  0  0  0  0  0  0  0999 V2000
    5.7069    1.4517    0.2575 C   0  0  0  0  0  0  0  0  0  0  0  0
    5.1493    0.1664    0.0427 O   0  0  0  0  0  0  0  0  0  0  0  0
    3.7633    0.0425    0.0706 C   0  0  0  0  0  0  0  0  0  0  0  0
    2.9391    1.1393    0.3025 C   0  0  0  0  0  0  0  0  0  0  0  0
    1.5684    0.9757    0.3220 C   0  0  0  0  0  0  0  0  0  0  0  0
    0.7144    2.0336    0.5364 C   0  0  0  0  0  0  0  0  0  0  0  0
    1.1773    3.3456    0.7743 N   0  0  0  0  0  0  0  0  0  0  0  0
    0.3073    4.4729    1.0116 C   0  0  0  0  0  0  0  0  0  0  0  0
   -0.5722    4.7328   -0.1752 C   0  0  0  0  0  0  0  0  0  0  0  0
   -0.9431    6.1957   -0.3176 C   0  0  0  0  0  0  0  0  0  0  0  0
    0.1591    7.0896   -0.2364 N   0  0  0  0  0  0  0  0  0  0  0  0
    1.3820    6.4753    0.1454 C   0  0  0  0  0  0  0  0  0  0  0  0
    1.1166    5.6856    1.4160 C   0  0  0  0  0  0  0  0  0  0  0  0
    0.2372    8.0988   -1.2398 C   0  0  0  0  0  0  0  0  0  0  0  0
    0.3951    7.5606   -2.6478 C   0  0  0  0  0  0  0  0  0  0  0  0
    1.4107    9.0042   -0.9798 C   0  0  0  0  0  0  0  0  0  0  0  0
   -0.6222    1.8229    0.5341 N   0  0  0  0  0  0  0  0  0  0  0  0
   -1.1620    0.6040    0.3284 C   0  0  0  0  0  0  0  0  0  0  0  0
   -0.3050   -0.4123    0.1231 N   0  0  0  0  0  0  0  0  0  0  0  0
    1.0364   -0.2790    0.1107 C   0  0  0  0  0  0  0  0  0  0  0  0
    1.8565   -1.3513   -0.1162 C   0  0  0  0  0  0  0  0  0  0  0  0
    3.2157   -1.1932   -0.1369 C   0  0  0  0  0  0  0  0  0  0  0  0
    4.0530   -2.3009   -0.3723 O   0  0  0  0  0  0  0  0  0  0  0  0
    3.4512   -3.5666   -0.5785 C   0  0  0  0  0  0  0  0  0  0  0  0
    4.4660   -4.6532   -0.8268 C   0  0  0  0  0  0  0  0  0  0  0  0
    5.4272   -4.8393    0.3086 C   0  0  0  0  0  0  0  0  0  0  0  0
    6.3497   -5.9021   -0.0268 N   0  0  0  0  0  0  0  0  0  0  0  0
    7.2729   -6.1319    1.0525 C   0  0  0  0  0  0  0  0  0  0  0  0
    7.7328   -7.5572    0.8922 C   0  0  0  0  0  0  0  0  0  0  0  0
    6.5574   -8.2415    0.2381 C   0  0  0  0  0  0  0  0  0  0  0  0
    5.6461   -7.1368   -0.2294 C   0  0  0  0  0  0  0  0  0  0  0  0
   -2.5628    0.3932    0.2951 N   0  0  0  0  0  0  0  0  0  0  0  0
   -3.3294    1.5573   -0.1304 C   0  0  0  0  0  0  0  0  0  0  0  0
   -4.4325    1.0952   -1.0693 C   0  0  0  0  0  0  0  0  0  0  0  0
   -5.4569    0.3199   -0.2746 C   0  0  0  0  0  0  0  0  0  0  0  0
   -5.2737   -1.0879   -0.5645 N   0  0  0  0  0  0  0  0  0  0  0  0
   -3.9123   -1.4794   -0.4623 C   0  0  0  0  0  0  0  0  0  0  0  0
   -3.1341   -0.8764    0.6698 C   0  0  0  0  0  0  0  0  0  0  0  0
   -6.1286   -1.9206    0.2509 C   0  0  0  0  0  0  0  0  0  0  0  0
   -7.6007   -1.6471    0.0038 C   0  0  0  0  0  0  0  0  0  0  0  0
   -7.9782   -2.3937   -1.2637 C   0  0  0  0  0  0  0  0  0  0  0  0
   -8.1385   -3.8463   -0.8439 C   0  0  0  0  0  0  0  0  0  0  0  0
   -7.0374   -4.2524    0.1130 C   0  0  0  0  0  0  0  0  0  0  0  0
   -5.8219   -3.3546   -0.0389 C   0  0  0  0  0  0  0  0  0  0  0  0
    6.8187    1.3250    0.2636 H   0  0  0  0  0  0  0  0  0  0  0  0
    5.3646    1.8320    1.2363 H   0  0  0  0  0  0  0  0  0  0  0  0
    5.3536    2.0788   -0.5724 H   0  0  0  0  0  0  0  0  0  0  0  0
    3.4060    2.1002    0.4620 H   0  0  0  0  0  0  0  0  0  0  0  0
    2.1912    3.5349    0.7832 H   0  0  0  0  0  0  0  0  0  0  0  0
   -0.3339    4.1919    1.8817 H   0  0  0  0  0  0  0  0  0  0  0  0
   -1.5292    4.1869   -0.0064 H   0  0  0  0  0  0  0  0  0  0  0  0
   -0.1378    4.3403   -1.1404 H   0  0  0  0  0  0  0  0  0  0  0  0
   -1.6540    6.4099    0.5330 H   0  0  0  0  0  0  0  0  0  0  0  0
   -1.5510    6.2698   -1.2297 H   0  0  0  0  0  0  0  0  0  0  0  0
    1.7482    5.8272   -0.6534 H   0  0  0  0  0  0  0  0  0  0  0  0
    2.1661    7.2349    0.3519 H   0  0  0  0  0  0  0  0  0  0  0  0
    2.0362    5.4232    1.9529 H   0  0  0  0  0  0  0  0  0  0  0  0
    0.5040    6.3356    2.0617 H   0  0  0  0  0  0  0  0  0  0  0  0
   -0.6982    8.7152   -1.1885 H   0  0  0  0  0  0  0  0  0  0  0  0
    0.1738    8.4088   -3.3420 H   0  0  0  0  0  0  0  0  0  0  0  0
   -0.3253    6.7571   -2.8854 H   0  0  0  0  0  0  0  0  0  0  0  0
    1.4367    7.2299   -2.8069 H   0  0  0  0  0  0  0  0  0  0  0  0
    1.3360    9.9237   -1.6131 H   0  0  0  0  0  0  0  0  0  0  0  0
    1.5867    9.2481    0.0721 H   0  0  0  0  0  0  0  0  0  0  0  0
    2.3262    8.4414   -1.3292 H   0  0  0  0  0  0  0  0  0  0  0  0
    1.4374   -2.3254   -0.2794 H   0  0  0  0  0  0  0  0  0  0  0  0
    2.8900   -3.7981    0.3741 H   0  0  0  0  0  0  0  0  0  0  0  0
    2.7218   -3.4813   -1.3894 H   0  0  0  0  0  0  0  0  0  0  0  0
    3.8971   -5.6014   -0.9882 H   0  0  0  0  0  0  0  0  0  0  0  0
    5.0367   -4.4808   -1.7600 H   0  0  0  0  0  0  0  0  0  0  0  0
    4.9408   -5.0492    1.2645 H   0  0  0  0  0  0  0  0  0  0  0  0
    6.0204   -3.9065    0.4169 H   0  0  0  0  0  0  0  0  0  0  0  0
    6.7718   -5.9597    2.0381 H   0  0  0  0  0  0  0  0  0  0  0  0
    8.1451   -5.4652    0.9076 H   0  0  0  0  0  0  0  0  0  0  0  0
    8.6000   -7.5747    0.2295 H   0  0  0  0  0  0  0  0  0  0  0  0
    7.9107   -8.0066    1.8970 H   0  0  0  0  0  0  0  0  0  0  0  0
    6.9042   -8.8011   -0.6390 H   0  0  0  0  0  0  0  0  0  0  0  0
    5.9961   -8.8759    0.9624 H   0  0  0  0  0  0  0  0  0  0  0  0
    5.4187   -7.2036   -1.3184 H   0  0  0  0  0  0  0  0  0  0  0  0
    4.6820   -7.1210    0.3574 H   0  0  0  0  0  0  0  0  0  0  0  0
   -3.8295    2.0632    0.7141 H   0  0  0  0  0  0  0  0  0  0  0  0
   -2.7346    2.2909   -0.6973 H   0  0  0  0  0  0  0  0  0  0  0  0
   -4.0546    0.5595   -1.9548 H   0  0  0  0  0  0  0  0  0  0  0  0
   -4.8697    2.0503   -1.4833 H   0  0  0  0  0  0  0  0  0  0  0  0
   -5.4268    0.5169    0.8059 H   0  0  0  0  0  0  0  0  0  0  0  0
   -6.4424    0.6935   -0.6315 H   0  0  0  0  0  0  0  0  0  0  0  0
   -3.7988   -2.5941   -0.3390 H   0  0  0  0  0  0  0  0  0  0  0  0
   -3.3377   -1.2390   -1.4034 H   0  0  0  0  0  0  0  0  0  0  0  0
   -3.7341   -0.8060    1.6063 H   0  0  0  0  0  0  0  0  0  0  0  0
   -2.2819   -1.5432    0.9285 H   0  0  0  0  0  0  0  0  0  0  0  0
   -5.9364   -1.6433    1.3175 H   0  0  0  0  0  0  0  0  0  0  0  0
   -8.1608   -2.1138    0.8396 H   0  0  0  0  0  0  0  0  0  0  0  0
   -7.8275   -0.5910    0.0033 H   0  0  0  0  0  0  0  0  0  0  0  0
   -8.8798   -2.0353   -1.7484 H   0  0  0  0  0  0  0  0  0  0  0  0
   -7.1061   -2.3986   -1.9855 H   0  0  0  0  0  0  0  0  0  0  0  0
   -8.2119   -4.4625   -1.7373 H   0  0  0  0  0  0  0  0  0  0  0  0
   -9.0917   -3.9148   -0.2841 H   0  0  0  0  0  0  0  0  0  0  0  0
   -6.7175   -5.2748   -0.1769 H   0  0  0  0  0  0  0  0  0  0  0  0
   -7.3469   -4.2908    1.1667 H   0  0  0  0  0  0  0  0  0  0  0  0
   -5.0870   -3.7264    0.7031 H   0  0  0  0  0  0  0  0  0  0  0  0
   -5.3960   -3.5440   -1.0497 H   0  0  0  0  0  0  0  0  0  0  0  0
  1  2  1  0
  2  3  1  0
  3  4  2  0
  4  5  1  0
  5  6  2  0
  6  7  1  0
  7  8  1  0
  8  9  1  0
  9 10  1  0
 10 11  1  0
 11 12  1  0
 12 13  1  0
 11 14  1  0
 14 15  1  0
 14 16  1  0
  6 17  1  0
 17 18  2  0
 18 19  1  0
 19 20  2  0
 20 21  1  0
 21 22  2  0
 22 23  1  0
 23 24  1  0
 24 25  1  0
 25 26  1  0
 26 27  1  0
 27 28  1  0
 28 29  1  0
 29 30  1  0
 30 31  1  0
 18 32  1  0
 32 33  1  0
 33 34  1  0
 34 35  1  0
 35 36  1  0
 36 37  1  0
 37 38  1  0
 36 39  1  0
 39 40  1  0
 40 41  1  0
 41 42  1  0
 42 43  1  0
 43 44  1  0
 22  3  1  0
 31 27  1  0
 38 32  1  0
 44 39  1  0
 20  5  1  0
 13  8  1  0
  1 45  1  0
  1 46  1  0
  1 47  1  0
  4 48  1  0
  7 49  1  0
  8 50  1  0
  9 51  1  0
  9 52  1  0
 10 53  1  0
 10 54  1  0
 12 55  1  0
 12 56  1  0
 13 57  1  0
 13 58  1  0
 14 59  1  0
 15 60  1  0
 15 61  1  0
 15 62  1  0
 16 63  1  0
 16 64  1  0
 16 65  1  0
 21 66  1  0
 24 67  1  0
 24 68  1  0
 25 69  1  0
 25 70  1  0
 26 71  1  0
 26 72  1  0
 28 73  1  0
 28 74  1  0
 29 75  1  0
 29 76  1  0
 30 77  1  0
 30 78  1  0
 31 79  1  0
 31 80  1  0
 33 81  1  0
 33 82  1  0
 34 83  1  0
 34 84  1  0
 35 85  1  0
 35 86  1  0
 37 87  1  0
 37 88  1  0
 38 89  1  0
 38 90  1  0
 39 91  1  0
 40 92  1  0
 40 93  1  0
 41 94  1  0
 41 95  1  0
 42 96  1  0
 42 97  1  0
 43 98  1  0
 43 99  1  0
 44100  1  0
 44101  1  0
M  END
$$$$
[H]c1c(-c2nc3c([H])c(OC([H])([H])C([H])([H])C([H])([H])N4C([H])([H])C([H])([H])C([H])([H])C([H])([H])C4([H])[H])c(OC([H])([H])[H])c([H])c3c(N([H])C3([H])C([H])([H])C([H])([H])N(C([H])([H])[H])C([H])([H])C3([H])[H])c2[H])oc(C([H])([H])C([H])([H])[H])c1[H]
     RDKit          3D

 79 83  0  0  0  0  0  0  0  0999 V2000
   -4.6834    6.9218   -2.7466 C   0  0  0  0  0  0  0  0  0  0  0  0
   -3.3974    6.3052   -2.3012 C   0  0  0  0  0  0  0  0  0  0  0  0
   -3.6546    4.9199   -1.7620 C   0  0  0  0  0  0  0  0  0  0  0  0
   -4.8781    4.2948   -1.6806 C   0  0  0  0  0  0  0  0  0  0  0  0
   -4.6518    3.0529   -1.1304 C   0  0  0  0  0  0  0  0  0  0  0  0
   -3.2734    2.9608   -0.8904 C   0  0  0  0  0  0  0  0  0  0  0  0
   -2.7689    4.0861   -1.2853 O   0  0  0  0  0  0  0  0  0  0  0  0
   -2.6248    1.7972   -0.3107 C   0  0  0  0  0  0  0  0  0  0  0  0
   -3.3435    0.6810    0.0513 C   0  0  0  0  0  0  0  0  0  0  0  0
   -2.6654   -0.4209    0.6092 C   0  0  0  0  0  0  0  0  0  0  0  0
   -3.4202   -1.5550    1.0089 N   0  0  0  0  0  0  0  0  0  0  0  0
   -4.8307   -1.7368    0.7117 C   0  0  0  0  0  0  0  0  0  0  0  0
   -5.3162   -2.9123    1.5510 C   0  0  0  0  0  0  0  0  0  0  0  0
   -6.6045   -3.4795    1.0070 C   0  0  0  0  0  0  0  0  0  0  0  0
   -6.5852   -3.7504   -0.3947 N   0  0  0  0  0  0  0  0  0  0  0  0
   -5.7227   -4.8527   -0.6969 C   0  0  0  0  0  0  0  0  0  0  0  0
   -6.2775   -2.5566   -1.1581 C   0  0  0  0  0  0  0  0  0  0  0  0
   -4.9109   -2.1000   -0.7616 C   0  0  0  0  0  0  0  0  0  0  0  0
   -1.3069   -0.3534    0.7780 C   0  0  0  0  0  0  0  0  0  0  0  0
   -0.5993   -1.3937    1.3108 C   0  0  0  0  0  0  0  0  0  0  0  0
    0.7924   -1.2672    1.4562 C   0  0  0  0  0  0  0  0  0  0  0  0
    1.5106   -2.3241    1.9977 O   0  0  0  0  0  0  0  0  0  0  0  0
    0.8565   -3.4917    2.3905 C   0  0  0  0  0  0  0  0  0  0  0  0
    1.4863   -0.1410    1.0869 C   0  0  0  0  0  0  0  0  0  0  0  0
    2.8600   -0.0844    1.2584 O   0  0  0  0  0  0  0  0  0  0  0  0
    3.5096    1.0993    0.8586 C   0  0  0  0  0  0  0  0  0  0  0  0
    5.0007    1.0540    1.0866 C   0  0  0  0  0  0  0  0  0  0  0  0
    5.6660   -0.0528    0.3370 C   0  0  0  0  0  0  0  0  0  0  0  0
    7.0784   -0.1439    0.5178 N   0  0  0  0  0  0  0  0  0  0  0  0
    7.5768   -1.2700   -0.2620 C   0  0  0  0  0  0  0  0  0  0  0  0
    9.0727   -1.1978   -0.4136 C   0  0  0  0  0  0  0  0  0  0  0  0
    9.7115   -0.3896    0.7030 C   0  0  0  0  0  0  0  0  0  0  0  0
    9.2271    1.0316    0.5727 C   0  0  0  0  0  0  0  0  0  0  0  0
    7.8182    1.0105    0.0654 C   0  0  0  0  0  0  0  0  0  0  0  0
    0.7386    0.9080    0.5447 C   0  0  0  0  0  0  0  0  0  0  0  0
   -0.6230    0.8000    0.3959 C   0  0  0  0  0  0  0  0  0  0  0  0
   -1.3092    1.8151   -0.1275 N   0  0  0  0  0  0  0  0  0  0  0  0
   -4.5372    8.0246   -2.7687 H   0  0  0  0  0  0  0  0  0  0  0  0
   -5.4595    6.6944   -1.9888 H   0  0  0  0  0  0  0  0  0  0  0  0
   -4.9292    6.5041   -3.7515 H   0  0  0  0  0  0  0  0  0  0  0  0
   -2.9296    6.8987   -1.4688 H   0  0  0  0  0  0  0  0  0  0  0  0
   -2.6292    6.2799   -3.1089 H   0  0  0  0  0  0  0  0  0  0  0  0
   -5.8361    4.6876   -1.9844 H   0  0  0  0  0  0  0  0  0  0  0  0
   -5.3768    2.2657   -0.9083 H   0  0  0  0  0  0  0  0  0  0  0  0
   -4.4071    0.6678   -0.0822 H   0  0  0  0  0  0  0  0  0  0  0  0
   -2.9498   -2.3056    1.5505 H   0  0  0  0  0  0  0  0  0  0  0  0
   -5.3590   -0.8092    0.8859 H   0  0  0  0  0  0  0  0  0  0  0  0
   -5.5086   -2.5563    2.5836 H   0  0  0  0  0  0  0  0  0  0  0  0
   -4.5248   -3.6831    1.6158 H   0  0  0  0  0  0  0  0  0  0  0  0
   -7.4470   -2.8038    1.2348 H   0  0  0  0  0  0  0  0  0  0  0  0
   -6.7842   -4.4357    1.5511 H   0  0  0  0  0  0  0  0  0  0  0  0
   -4.7043   -4.7591   -0.2391 H   0  0  0  0  0  0  0  0  0  0  0  0
   -6.2240   -5.7918   -0.3315 H   0  0  0  0  0  0  0  0  0  0  0  0
   -5.6044   -4.9559   -1.7866 H   0  0  0  0  0  0  0  0  0  0  0  0
   -6.2586   -2.8279   -2.2226 H   0  0  0  0  0  0  0  0  0  0  0  0
   -7.0692   -1.8196   -0.9643 H   0  0  0  0  0  0  0  0  0  0  0  0
   -4.1996   -2.9272   -0.9786 H   0  0  0  0  0  0  0  0  0  0  0  0
   -4.6307   -1.2325   -1.3637 H   0  0  0  0  0  0  0  0  0  0  0  0
   -1.0686   -2.3220    1.6262 H   0  0  0  0  0  0  0  0  0  0  0  0
    0.1369   -3.3236    3.2200 H   0  0  0  0  0  0  0  0  0  0  0  0
    0.2854   -3.9279    1.5264 H   0  0  0  0  0  0  0  0  0  0  0  0
    1.6037   -4.2619    2.7137 H   0  0  0  0  0  0  0  0  0  0  0  0
    3.1124    1.9233    1.4957 H   0  0  0  0  0  0  0  0  0  0  0  0
    3.2628    1.2852   -0.1892 H   0  0  0  0  0  0  0  0  0  0  0  0
    5.2230    0.9449    2.1590 H   0  0  0  0  0  0  0  0  0  0  0  0
    5.3894    2.0240    0.7138 H   0  0  0  0  0  0  0  0  0  0  0  0
    5.2211   -1.0463    0.5373 H   0  0  0  0  0  0  0  0  0  0  0  0
    5.4872    0.1285   -0.7580 H   0  0  0  0  0  0  0  0  0  0  0  0
    7.1284   -1.2003   -1.2643 H   0  0  0  0  0  0  0  0  0  0  0  0
    7.2774   -2.2183    0.2279 H   0  0  0  0  0  0  0  0  0  0  0  0
    9.3641   -0.8190   -1.3992 H   0  0  0  0  0  0  0  0  0  0  0  0
    9.4660   -2.2474   -0.3394 H   0  0  0  0  0  0  0  0  0  0  0  0
   10.8136   -0.3999    0.5058 H   0  0  0  0  0  0  0  0  0  0  0  0
    9.4494   -0.7691    1.6893 H   0  0  0  0  0  0  0  0  0  0  0  0
    9.3605    1.6183    1.5012 H   0  0  0  0  0  0  0  0  0  0  0  0
    9.8585    1.5440   -0.2110 H   0  0  0  0  0  0  0  0  0  0  0  0
    7.3658    1.9753    0.2770 H   0  0  0  0  0  0  0  0  0  0  0  0
    7.8654    0.9261   -1.0596 H   0  0  0  0  0  0  0  0  0  0  0  0
    1.3087    1.7866    0.2610 H   0  0  0  0  0  0  0  0  0  0  0  0
  1  2  1  0
  2  3  1  0
  3  4  2  0
  4  5  1  0
  5  6  2  0
  6  7  1  0
  6  8  1  0
  8  9  2  0
  9 10  1  0
 10 11  1  0
 11 12  1  0
 12 13  1  0
 13 14  1  0
 14 15  1  0
 15 16  1  0
 15 17  1  0
 17 18  1  0
 10 19  2  0
 19 20  1  0
 20 21  2  0
 21 22  1  0
 22 23  1  0
 21 24  1  0
 24 25  1  0
 25 26  1  0
 26 27  1  0
 27 28  1  0
 28 29  1  0
 29 30  1  0
 30 31  1  0
 31 32  1  0
 32 33  1  0
 33 34  1  0
 24 35  2  0
 35 36  1  0
 36 37  2  0
  7  3  1  0
 37  8  1  0
 18 12  1  0
 36 19  1  0
 34 29  1  0
  1 38  1  0
  1 39  1  0
  1 40  1  0
  2 41  1  0
  2 42  1  0
  4 43  1  0
  5 44  1  0
  9 45  1  0
 11 46  1  0
 12 47  1  0
 13 48  1  0
 13 49  1  0
 14 50  1  0
 14 51  1  0
 16 52  1  0
 16 53  1  0
 16 54  1  0
 17 55  1  0
 17 56  1  0
 18 57  1  0
 18 58  1  0
 20 59  1  0
 23 60  1  0
 23 61  1  0
 23 62  1  0
 26 63  1  0
 26 64  1  0
 27 65  1  0
 27 66  1  0
 28 67  1  0
 28 68  1  0
 30 69  1  0
 30 70  1  0
 31 71  1  0
 31 72  1  0
 32 73  1  0
 32 74  1  0
 33 75  1  0
 33 76  1  0
 34 77  1  0
 34 78  1  0
 35 79  1  0
M  END
$$$$
[H]c1c(OC([H])([H])C([H])([H])C([H])([H])N2C([H])([H])C([H])([H])C([H])([H])C2([H])[H])c(OC([H])([H])[H])c([H])c2c(N([H])C3([H])C([H])([H])C([H])([H])N(C4([H])C([H])([H])C4([H])[H])C([H])([H])C3([H])[H])nc(N3C([H])([H])C([H])([H])C(F)(F)C([H])([H])C3([H])[H])nc12
     RDKit          3D

 81 86  0  0  0  0  0  0  0  0999 V2000
    2.2168   -3.3576   -1.1955 C   0  0  0  0  0  0  0  0  0  0  0  0
    2.9152   -2.1554   -0.9584 O   0  0  0  0  0  0  0  0  0  0  0  0
    2.1911   -1.0310   -0.5938 C   0  0  0  0  0  0  0  0  0  0  0  0
    0.8003   -1.1240   -0.4736 C   0  0  0  0  0  0  0  0  0  0  0  0
    0.0475   -0.0406   -0.1169 C   0  0  0  0  0  0  0  0  0  0  0  0
   -1.3278   -0.1012    0.0097 C   0  0  0  0  0  0  0  0  0  0  0  0
   -2.0608   -1.2922   -0.2195 N   0  0  0  0  0  0  0  0  0  0  0  0
   -3.4890   -1.3794   -0.0930 C   0  0  0  0  0  0  0  0  0  0  0  0
   -4.2587   -0.4698   -1.0180 C   0  0  0  0  0  0  0  0  0  0  0  0
   -5.6839   -0.9779   -1.0324 C   0  0  0  0  0  0  0  0  0  0  0  0
   -6.0330   -1.7976    0.0427 N   0  0  0  0  0  0  0  0  0  0  0  0
   -5.4707   -1.5217    1.3113 C   0  0  0  0  0  0  0  0  0  0  0  0
   -4.0052   -1.1475    1.3028 C   0  0  0  0  0  0  0  0  0  0  0  0
   -6.4467   -3.1227   -0.1965 C   0  0  0  0  0  0  0  0  0  0  0  0
   -7.7226   -3.2630   -1.0196 C   0  0  0  0  0  0  0  0  0  0  0  0
   -6.4294   -3.8309   -1.4685 C   0  0  0  0  0  0  0  0  0  0  0  0
   -1.9466    1.0532    0.3706 N   0  0  0  0  0  0  0  0  0  0  0  0
   -1.3039    2.2026    0.5997 C   0  0  0  0  0  0  0  0  0  0  0  0
    0.0169    2.2177    0.4669 N   0  0  0  0  0  0  0  0  0  0  0  0
    0.7248    1.1600    0.1218 C   0  0  0  0  0  0  0  0  0  0  0  0
    2.0843    1.2809    0.0123 C   0  0  0  0  0  0  0  0  0  0  0  0
    2.8284    0.1809   -0.3478 C   0  0  0  0  0  0  0  0  0  0  0  0
    4.2033    0.1843   -0.4889 O   0  0  0  0  0  0  0  0  0  0  0  0
    4.9174    1.3599   -0.2599 C   0  0  0  0  0  0  0  0  0  0  0  0
    6.3992    1.1861   -0.4584 C   0  0  0  0  0  0  0  0  0  0  0  0
    6.9845    0.1528    0.4692 C   0  0  0  0  0  0  0  0  0  0  0  0
    6.4215   -1.1517    0.3148 N   0  0  0  0  0  0  0  0  0  0  0  0
    6.7348   -1.7993   -0.9269 C   0  0  0  0  0  0  0  0  0  0  0  0
    8.1449   -2.3040   -0.7545 C   0  0  0  0  0  0  0  0  0  0  0  0
    8.1421   -2.7488    0.6932 C   0  0  0  0  0  0  0  0  0  0  0  0
    7.0229   -2.0021    1.3418 C   0  0  0  0  0  0  0  0  0  0  0  0
   -1.9703    3.4011    0.9772 N   0  0  0  0  0  0  0  0  0  0  0  0
   -3.4126    3.4558    1.1259 C   0  0  0  0  0  0  0  0  0  0  0  0
   -4.0281    4.5965    0.3499 C   0  0  0  0  0  0  0  0  0  0  0  0
   -3.0449    5.6932    0.0482 C   0  0  0  0  0  0  0  0  0  0  0  0
   -2.3913    5.5022   -1.1382 F   0  0  0  0  0  0  0  0  0  0  0  0
   -3.7242    6.9110   -0.0546 F   0  0  0  0  0  0  0  0  0  0  0  0
   -2.0691    5.8433    1.1922 C   0  0  0  0  0  0  0  0  0  0  0  0
   -1.2086    4.6053    1.2234 C   0  0  0  0  0  0  0  0  0  0  0  0
    1.5999   -3.6675   -0.3216 H   0  0  0  0  0  0  0  0  0  0  0  0
    1.5230   -3.2872   -2.0601 H   0  0  0  0  0  0  0  0  0  0  0  0
    2.9490   -4.1587   -1.4518 H   0  0  0  0  0  0  0  0  0  0  0  0
    0.3035   -2.0652   -0.6659 H   0  0  0  0  0  0  0  0  0  0  0  0
   -1.5643   -2.1583   -0.4939 H   0  0  0  0  0  0  0  0  0  0  0  0
   -3.8123   -2.4152   -0.3660 H   0  0  0  0  0  0  0  0  0  0  0  0
   -3.7956   -0.4164   -2.0003 H   0  0  0  0  0  0  0  0  0  0  0  0
   -4.2756    0.5530   -0.5909 H   0  0  0  0  0  0  0  0  0  0  0  0
   -6.3854   -0.0920   -1.0503 H   0  0  0  0  0  0  0  0  0  0  0  0
   -5.8456   -1.4829   -2.0008 H   0  0  0  0  0  0  0  0  0  0  0  0
   -6.0838   -0.7689    1.8545 H   0  0  0  0  0  0  0  0  0  0  0  0
   -5.5465   -2.4594    1.9349 H   0  0  0  0  0  0  0  0  0  0  0  0
   -3.4223   -1.6975    2.0552 H   0  0  0  0  0  0  0  0  0  0  0  0
   -3.9609   -0.0651    1.5358 H   0  0  0  0  0  0  0  0  0  0  0  0
   -6.4777   -3.7483    0.7457 H   0  0  0  0  0  0  0  0  0  0  0  0
   -8.1122   -2.3675   -1.5348 H   0  0  0  0  0  0  0  0  0  0  0  0
   -8.5270   -3.9308   -0.6498 H   0  0  0  0  0  0  0  0  0  0  0  0
   -6.3932   -4.9604   -1.4142 H   0  0  0  0  0  0  0  0  0  0  0  0
   -5.9228   -3.4781   -2.3827 H   0  0  0  0  0  0  0  0  0  0  0  0
    2.6124    2.2187    0.1989 H   0  0  0  0  0  0  0  0  0  0  0  0
    4.5430    2.1342   -0.9597 H   0  0  0  0  0  0  0  0  0  0  0  0
    4.7720    1.7735    0.7580 H   0  0  0  0  0  0  0  0  0  0  0  0
    6.5945    0.9936   -1.5118 H   0  0  0  0  0  0  0  0  0  0  0  0
    6.8982    2.1575   -0.2093 H   0  0  0  0  0  0  0  0  0  0  0  0
    8.0742    0.0817    0.3297 H   0  0  0  0  0  0  0  0  0  0  0  0
    6.8189    0.4760    1.5168 H   0  0  0  0  0  0  0  0  0  0  0  0
    6.6806   -1.1365   -1.8007 H   0  0  0  0  0  0  0  0  0  0  0  0
    6.0432   -2.6654   -1.0390 H   0  0  0  0  0  0  0  0  0  0  0  0
    8.2760   -3.1773   -1.4285 H   0  0  0  0  0  0  0  0  0  0  0  0
    8.8955   -1.5396   -0.9794 H   0  0  0  0  0  0  0  0  0  0  0  0
    7.9236   -3.8360    0.7059 H   0  0  0  0  0  0  0  0  0  0  0  0
    9.1422   -2.5211    1.1147 H   0  0  0  0  0  0  0  0  0  0  0  0
    7.4779   -1.3751    2.1601 H   0  0  0  0  0  0  0  0  0  0  0  0
    6.2549   -2.6567    1.7699 H   0  0  0  0  0  0  0  0  0  0  0  0
   -3.8699    2.5137    0.7320 H   0  0  0  0  0  0  0  0  0  0  0  0
   -3.6794    3.5190    2.1897 H   0  0  0  0  0  0  0  0  0  0  0  0
   -4.8232    5.0495    0.9952 H   0  0  0  0  0  0  0  0  0  0  0  0
   -4.5133    4.2854   -0.5820 H   0  0  0  0  0  0  0  0  0  0  0  0
   -1.4093    6.7073    1.0129 H   0  0  0  0  0  0  0  0  0  0  0  0
   -2.6242    6.0112    2.1303 H   0  0  0  0  0  0  0  0  0  0  0  0
   -0.6594    4.5642    2.1859 H   0  0  0  0  0  0  0  0  0  0  0  0
   -0.4466    4.7209    0.4084 H   0  0  0  0  0  0  0  0  0  0  0  0
  1  2  1  0
  2  3  1  0
  3  4  2  0
  4  5  1  0
  5  6  2  0
  6  7  1  0
  7  8  1  0
  8  9  1  0
  9 10  1  0
 10 11  1  0
 11 12  1  0
 12 13  1  0
 11 14  1  0
 14 15  1  0
 15 16  1  0
  6 17  1  0
 17 18  2  0
 18 19  1  0
 19 20  2  0
 20 21  1  0
 21 22  2  0
 22 23  1  0
 23 24  1  0
 24 25  1  0
 25 26  1  0
 26 27  1  0
 27 28  1  0
 28 29  1  0
 29 30  1  0
 30 31  1  0
 18 32  1  0
 32 33  1  0
 33 34  1  0
 34 35  1  0
 35 36  1  0
 35 37  1  0
 35 38  1  0
 38 39  1  0
 22  3  1  0
 31 27  1  0
 39 32  1  0
 20  5  1  0
 13  8  1  0
 16 14  1  0
  1 40  1  0
  1 41  1  0
  1 42  1  0
  4 43  1  0
  7 44  1  0
  8 45  1  0
  9 46  1  0
  9 47  1  0
 10 48  1  0
 10 49  1  0
 12 50  1  0
 12 51  1  0
 13 52  1  0
 13 53  1  0
 14 54  1  0
 15 55  1  0
 15 56  1  0
 16 57  1  0
 16 58  1  0
 21 59  1  0
 24 60  1  0
 24 61  1  0
 25 62  1  0
 25 63  1  0
 26 64  1  0
 26 65  1  0
 28 66  1  0
 28 67  1  0
 29 68  1  0
 29 69  1  0
 30 70  1  0
 30 71  1  0
 31 72  1  0
 31 73  1  0
 33 74  1  0
 33 75  1  0
 34 76  1  0
 34 77  1  0
 38 78  1  0
 38 79  1  0
 39 80  1  0
 39 81  1  0
M  END
$$$$
[H]c1c2c(c([H])c(OC([H])([H])[H])c1OC([H])([H])C([H])([H])C([H])([H])N1C([H])([H])C([H])([H])C([H])([H])C1([H])[H])C(C([H])([H])[H])(C([H])([H])[H])C(N([H])[H])=N2
     RDKit          3D

 50 52  0  0  0  0  0  0  0  0999 V2000
   -1.4562    0.3394    3.6902 C   0  0  0  0  0  0  0  0  0  0  0  0
   -0.8174    0.4546    2.4354 O   0  0  0  0  0  0  0  0  0  0  0  0
   -1.4928    0.3593    1.2259 C   0  0  0  0  0  0  0  0  0  0  0  0
   -2.8479    0.1432    1.1148 C   0  0  0  0  0  0  0  0  0  0  0  0
   -3.4870    0.0537   -0.1210 C   0  0  0  0  0  0  0  0  0  0  0  0
   -2.7691    0.1813   -1.2852 C   0  0  0  0  0  0  0  0  0  0  0  0
   -1.3992    0.3997   -1.1659 C   0  0  0  0  0  0  0  0  0  0  0  0
   -0.7559    0.4900    0.0507 C   0  0  0  0  0  0  0  0  0  0  0  0
    0.6119    0.7083    0.1257 O   0  0  0  0  0  0  0  0  0  0  0  0
    1.3230    0.8327   -1.0887 C   0  0  0  0  0  0  0  0  0  0  0  0
    2.8056    1.0705   -0.8204 C   0  0  0  0  0  0  0  0  0  0  0  0
    3.3928   -0.0836   -0.0357 C   0  0  0  0  0  0  0  0  0  0  0  0
    4.7863    0.1473    0.2137 N   0  0  0  0  0  0  0  0  0  0  0  0
    5.6100    0.1034   -0.9610 C   0  0  0  0  0  0  0  0  0  0  0  0
    6.9928   -0.1335   -0.3731 C   0  0  0  0  0  0  0  0  0  0  0  0
    6.6935   -1.1696    0.6916 C   0  0  0  0  0  0  0  0  0  0  0  0
    5.3268   -0.7815    1.1616 C   0  0  0  0  0  0  0  0  0  0  0  0
   -3.6527    0.0508   -2.3878 N   0  0  0  0  0  0  0  0  0  0  0  0
   -4.8588   -0.1471   -1.9887 C   0  0  0  0  0  0  0  0  0  0  0  0
   -6.0248   -0.3257   -2.8334 N   0  0  0  0  0  0  0  0  0  0  0  0
   -4.8905   -0.1678   -0.5144 C   0  0  0  0  0  0  0  0  0  0  0  0
   -5.7902    0.9563   -0.0110 C   0  0  0  0  0  0  0  0  0  0  0  0
   -5.4299   -1.4794    0.0231 C   0  0  0  0  0  0  0  0  0  0  0  0
   -2.2609   -0.4242    3.6758 H   0  0  0  0  0  0  0  0  0  0  0  0
   -1.9464    1.3076    3.9905 H   0  0  0  0  0  0  0  0  0  0  0  0
   -0.6819    0.0652    4.4351 H   0  0  0  0  0  0  0  0  0  0  0  0
   -3.3943    0.0453    2.0497 H   0  0  0  0  0  0  0  0  0  0  0  0
   -0.8487    0.4971   -2.1139 H   0  0  0  0  0  0  0  0  0  0  0  0
    0.9411    1.6678   -1.7035 H   0  0  0  0  0  0  0  0  0  0  0  0
    1.2721   -0.1157   -1.6784 H   0  0  0  0  0  0  0  0  0  0  0  0
    2.9473    1.9963   -0.2292 H   0  0  0  0  0  0  0  0  0  0  0  0
    3.3463    1.2271   -1.7793 H   0  0  0  0  0  0  0  0  0  0  0  0
    3.1953   -1.0516   -0.5367 H   0  0  0  0  0  0  0  0  0  0  0  0
    2.8837   -0.0442    0.9713 H   0  0  0  0  0  0  0  0  0  0  0  0
    5.3823   -0.7741   -1.5956 H   0  0  0  0  0  0  0  0  0  0  0  0
    5.5821    1.0582   -1.4884 H   0  0  0  0  0  0  0  0  0  0  0  0
    7.6815   -0.5689   -1.1280 H   0  0  0  0  0  0  0  0  0  0  0  0
    7.4050    0.7970    0.0838 H   0  0  0  0  0  0  0  0  0  0  0  0
    7.4455   -1.1312    1.5165 H   0  0  0  0  0  0  0  0  0  0  0  0
    6.7382   -2.1758    0.2214 H   0  0  0  0  0  0  0  0  0  0  0  0
    4.7180   -1.7253    1.2093 H   0  0  0  0  0  0  0  0  0  0  0  0
    5.4358   -0.3361    2.1897 H   0  0  0  0  0  0  0  0  0  0  0  0
   -6.3371   -1.2765   -3.1260 H   0  0  0  0  0  0  0  0  0  0  0  0
   -6.5840    0.4813   -3.1721 H   0  0  0  0  0  0  0  0  0  0  0  0
   -6.1229    1.5776   -0.8816 H   0  0  0  0  0  0  0  0  0  0  0  0
   -5.2726    1.6273    0.6905 H   0  0  0  0  0  0  0  0  0  0  0  0
   -6.7108    0.5352    0.4255 H   0  0  0  0  0  0  0  0  0  0  0  0
   -4.7134   -2.2761   -0.2402 H   0  0  0  0  0  0  0  0  0  0  0  0
   -5.5454   -1.3665    1.1096 H   0  0  0  0  0  0  0  0  0  0  0  0
   -6.4261   -1.6190   -0.4267 H   0  0  0  0  0  0  0  0  0  0  0  0
  1  2  1  0
  2  3  1  0
  3  4  2  0
  4  5  1  0
  5  6  2  0
  6  7  1  0
  7  8  2  0
  8  9  1  0
  9 10  1  0
 10 11  1  0
 11 12  1  0
 12 13  1  0
 13 14  1  0
 14 15  1  0
 15 16  1  0
 16 17  1  0
  6 18  1  0
 18 19  2  0
 19 20  1  0
 19 21  1  0
 21 22  1  0
 21 23  1  0
  8  3  1  0
 17 13  1  0
 21  5  1  0
  1 24  1  0
  1 25  1  0
  1 26  1  0
  4 27  1  0
  7 28  1  0
 10 29  1  0
 10 30  1  0
 11 31  1  0
 11 32  1  0
 12 33  1  0
 12 34  1  0
 14 35  1  0
 14 36  1  0
 15 37  1  0
 15 38  1  0
 16 39  1  0
 16 40  1  0
 17 41  1  0
 17 42  1  0
 20 43  1  0
 20 44  1  0
 22 45  1  0
 22 46  1  0
 22 47  1  0
 23 48  1  0
 23 49  1  0
 23 50  1  0
M  END
$$$$
[H]c1c(OC([H])([H])C([H])([H])C([H])([H])N2C([H])([H])C([H])([H])C([H])([H])C2([H])[H])c(OC([H])([H])[H])c([H])c2c(N([H])C3([H])C([H])([H])C([H])([H])N(C([H])(C([H])([H])[H])C([H])([H])[H])C([H])([H])C3([H])[H])nc(N3C([H])([H])C([H])([H])N(C([H])(C([H])([H])[H])C([H])([H])[H])C([H])([H])C([H])([H])C3([H])[H])nc12
     RDKit          3D

 94 98  0  0  0  0  0  0  0  0999 V2000
    3.4943    4.0227   -2.5877 C   0  0  0  0  0  0  0  0  0  0  0  0
    3.8218    2.6483   -2.5273 O   0  0  0  0  0  0  0  0  0  0  0  0
    2.8837    1.7304   -2.0207 C   0  0  0  0  0  0  0  0  0  0  0  0
    1.6507    2.1322   -1.5796 C   0  0  0  0  0  0  0  0  0  0  0  0
    0.7452    1.2364   -1.0899 C   0  0  0  0  0  0  0  0  0  0  0  0
   -0.5041    1.5723   -0.6319 C   0  0  0  0  0  0  0  0  0  0  0  0
   -0.9300    2.9067   -0.6334 N   0  0  0  0  0  0  0  0  0  0  0  0
   -2.2475    3.3222   -0.1881 C   0  0  0  0  0  0  0  0  0  0  0  0
   -3.3120    2.7858   -1.1059 C   0  0  0  0  0  0  0  0  0  0  0  0
   -4.6457    3.1454   -0.4464 C   0  0  0  0  0  0  0  0  0  0  0  0
   -4.8008    4.5829   -0.6007 N   0  0  0  0  0  0  0  0  0  0  0  0
   -3.7549    5.3164    0.0676 C   0  0  0  0  0  0  0  0  0  0  0  0
   -2.3755    4.8154   -0.1746 C   0  0  0  0  0  0  0  0  0  0  0  0
   -6.0572    5.0052    0.0122 C   0  0  0  0  0  0  0  0  0  0  0  0
   -7.2455    4.3878   -0.6493 C   0  0  0  0  0  0  0  0  0  0  0  0
   -6.1403    6.5131    0.0494 C   0  0  0  0  0  0  0  0  0  0  0  0
   -1.3518    0.6125   -0.1562 N   0  0  0  0  0  0  0  0  0  0  0  0
   -0.9901   -0.6740   -0.1252 C   0  0  0  0  0  0  0  0  0  0  0  0
    0.2437   -0.9952   -0.5790 N   0  0  0  0  0  0  0  0  0  0  0  0
    1.1153   -0.0965   -1.0540 C   0  0  0  0  0  0  0  0  0  0  0  0
    2.3674   -0.5006   -1.5027 C   0  0  0  0  0  0  0  0  0  0  0  0
    3.2834    0.3855   -1.9941 C   0  0  0  0  0  0  0  0  0  0  0  0
    4.5257    0.0523   -2.4425 O   0  0  0  0  0  0  0  0  0  0  0  0
    5.0911   -1.1872   -2.4268 C   0  0  0  0  0  0  0  0  0  0  0  0
    5.3822   -1.7756   -1.0558 C   0  0  0  0  0  0  0  0  0  0  0  0
    6.3841   -0.8545   -0.3349 C   0  0  0  0  0  0  0  0  0  0  0  0
    6.6817   -1.3892    0.9614 N   0  0  0  0  0  0  0  0  0  0  0  0
    7.4398   -2.5940    0.8666 C   0  0  0  0  0  0  0  0  0  0  0  0
    8.8922   -2.1954    1.0615 C   0  0  0  0  0  0  0  0  0  0  0  0
    8.7931   -1.0498    2.0309 C   0  0  0  0  0  0  0  0  0  0  0  0
    7.4492   -0.4581    1.7537 C   0  0  0  0  0  0  0  0  0  0  0  0
   -1.8107   -1.7203    0.3663 N   0  0  0  0  0  0  0  0  0  0  0  0
   -2.2649   -1.6136    1.7342 C   0  0  0  0  0  0  0  0  0  0  0  0
   -1.5969   -2.7676    2.4883 C   0  0  0  0  0  0  0  0  0  0  0  0
   -2.4898   -3.9592    2.3900 C   0  0  0  0  0  0  0  0  0  0  0  0
   -2.3869   -4.5558    1.0756 N   0  0  0  0  0  0  0  0  0  0  0  0
   -3.0443   -3.7909    0.0541 C   0  0  0  0  0  0  0  0  0  0  0  0
   -2.1152   -2.7729   -0.5805 C   0  0  0  0  0  0  0  0  0  0  0  0
   -2.9314   -5.8942    1.1470 C   0  0  0  0  0  0  0  0  0  0  0  0
   -4.3969   -5.8975    1.5274 C   0  0  0  0  0  0  0  0  0  0  0  0
   -2.1306   -6.7434    2.1041 C   0  0  0  0  0  0  0  0  0  0  0  0
    4.3387    4.5325   -3.1321 H   0  0  0  0  0  0  0  0  0  0  0  0
    2.5567    4.2145   -3.1460 H   0  0  0  0  0  0  0  0  0  0  0  0
    3.3834    4.4475   -1.5631 H   0  0  0  0  0  0  0  0  0  0  0  0
    1.4002    3.1946   -1.6300 H   0  0  0  0  0  0  0  0  0  0  0  0
   -0.3002    3.6632   -0.9617 H   0  0  0  0  0  0  0  0  0  0  0  0
   -2.4116    2.8842    0.8224 H   0  0  0  0  0  0  0  0  0  0  0  0
   -3.2674    3.4524   -2.0227 H   0  0  0  0  0  0  0  0  0  0  0  0
   -3.2494    1.7364   -1.3615 H   0  0  0  0  0  0  0  0  0  0  0  0
   -5.4128    2.6657   -1.0899 H   0  0  0  0  0  0  0  0  0  0  0  0
   -4.6986    2.8426    0.5974 H   0  0  0  0  0  0  0  0  0  0  0  0
   -3.8167    6.3765   -0.3012 H   0  0  0  0  0  0  0  0  0  0  0  0
   -3.9838    5.3412    1.1380 H   0  0  0  0  0  0  0  0  0  0  0  0
   -1.9266    5.1861   -1.1181 H   0  0  0  0  0  0  0  0  0  0  0  0
   -1.7297    5.1929    0.6677 H   0  0  0  0  0  0  0  0  0  0  0  0
   -6.0765    4.6888    1.0982 H   0  0  0  0  0  0  0  0  0  0  0  0
   -7.9635    5.2313   -0.8761 H   0  0  0  0  0  0  0  0  0  0  0  0
   -7.7890    3.7243    0.0277 H   0  0  0  0  0  0  0  0  0  0  0  0
   -7.0257    3.9257   -1.6365 H   0  0  0  0  0  0  0  0  0  0  0  0
   -7.2052    6.7760    0.2254 H   0  0  0  0  0  0  0  0  0  0  0  0
   -5.8450    6.8784   -0.9615 H   0  0  0  0  0  0  0  0  0  0  0  0
   -5.4424    6.9453    0.7879 H   0  0  0  0  0  0  0  0  0  0  0  0
    2.5604   -1.5842   -1.4560 H   0  0  0  0  0  0  0  0  0  0  0  0
    4.4954   -1.9699   -2.9857 H   0  0  0  0  0  0  0  0  0  0  0  0
    6.0794   -1.1668   -2.9442 H   0  0  0  0  0  0  0  0  0  0  0  0
    5.7544   -2.7861   -1.1951 H   0  0  0  0  0  0  0  0  0  0  0  0
    4.5196   -1.8193   -0.3831 H   0  0  0  0  0  0  0  0  0  0  0  0
    7.3059   -0.8920   -0.9750 H   0  0  0  0  0  0  0  0  0  0  0  0
    5.9894    0.1815   -0.3069 H   0  0  0  0  0  0  0  0  0  0  0  0
    7.3147   -3.1899   -0.0427 H   0  0  0  0  0  0  0  0  0  0  0  0
    7.1762   -3.2195    1.7689 H   0  0  0  0  0  0  0  0  0  0  0  0
    9.3259   -1.9095    0.0844 H   0  0  0  0  0  0  0  0  0  0  0  0
    9.4383   -3.0450    1.5106 H   0  0  0  0  0  0  0  0  0  0  0  0
    9.6038   -0.2883    1.8341 H   0  0  0  0  0  0  0  0  0  0  0  0
    8.8695   -1.4716    3.0574 H   0  0  0  0  0  0  0  0  0  0  0  0
    6.9097   -0.3211    2.7338 H   0  0  0  0  0  0  0  0  0  0  0  0
    7.4955    0.5631    1.2847 H   0  0  0  0  0  0  0  0  0  0  0  0
   -1.8810   -0.6694    2.2028 H   0  0  0  0  0  0  0  0  0  0  0  0
   -3.3633   -1.7037    1.8486 H   0  0  0  0  0  0  0  0  0  0  0  0
   -1.4927   -2.4341    3.5605 H   0  0  0  0  0  0  0  0  0  0  0  0
   -0.5868   -2.9495    2.0254 H   0  0  0  0  0  0  0  0  0  0  0  0
   -2.1900   -4.7644    3.1274 H   0  0  0  0  0  0  0  0  0  0  0  0
   -3.5226   -3.6400    2.6505 H   0  0  0  0  0  0  0  0  0  0  0  0
   -3.9599   -3.2538    0.4294 H   0  0  0  0  0  0  0  0  0  0  0  0
   -3.3797   -4.4532   -0.7646 H   0  0  0  0  0  0  0  0  0  0  0  0
   -2.6665   -2.3481   -1.4668 H   0  0  0  0  0  0  0  0  0  0  0  0
   -1.2210   -3.2929   -0.9614 H   0  0  0  0  0  0  0  0  0  0  0  0
   -2.8913   -6.3807    0.1264 H   0  0  0  0  0  0  0  0  0  0  0  0
   -4.5485   -5.8319    2.6285 H   0  0  0  0  0  0  0  0  0  0  0  0
   -4.9154   -5.1089    0.9703 H   0  0  0  0  0  0  0  0  0  0  0  0
   -4.8167   -6.8767    1.1699 H   0  0  0  0  0  0  0  0  0  0  0  0
   -2.5532   -6.7669    3.1332 H   0  0  0  0  0  0  0  0  0  0  0  0
   -2.0356   -7.8011    1.7339 H   0  0  0  0  0  0  0  0  0  0  0  0
   -1.0707   -6.3938    2.2103 H   0  0  0  0  0  0  0  0  0  0  0  0
  1  2  1  0
  2  3  1  0
  3  4  2  0
  4  5  1  0
  5  6  2  0
  6  7  1  0
  7  8  1  0
  8  9  1  0
  9 10  1  0
 10 11  1  0
 11 12  1  0
 12 13  1  0
 11 14  1  0
 14 15  1  0
 14 16  1  0
  6 17  1  0
 17 18  2  0
 18 19  1  0
 19 20  2  0
 20 21  1  0
 21 22  2  0
 22 23  1  0
 23 24  1  0
 24 25  1  0
 25 26  1  0
 26 27  1  0
 27 28  1  0
 28 29  1  0
 29 30  1  0
 30 31  1  0
 18 32  1  0
 32 33  1  0
 33 34  1  0
 34 35  1  0
 35 36  1  0
 36 37  1  0
 37 38  1  0
 36 39  1  0
 39 40  1  0
 39 41  1  0
 22  3  1  0
 31 27  1  0
 38 32  1  0
 20  5  1  0
 13  8  1  0
  1 42  1  0
  1 43  1  0
  1 44  1  0
  4 45  1  0
  7 46  1  0
  8 47  1  0
  9 48  1  0
  9 49  1  0
 10 50  1  0
 10 51  1  0
 12 52  1  0
 12 53  1  0
 13 54  1  0
 13 55  1  0
 14 56  1  0
 15 57  1  0
 15 58  1  0
 15 59  1  0
 16 60  1  0
 16 61  1  0
 16 62  1  0
 21 63  1  0
 24 64  1  0
 24 65  1  0
 25 66  1  0
 25 67  1  0
 26 68  1  0
 26 69  1  0
 28 70  1  0
 28 71  1  0
 29 72  1  0
 29 73  1  0
 30 74  1  0
 30 75  1  0
 31 76  1  0
 31 77  1  0
 33 78  1  0
 33 79  1  0
 34 80  1  0
 34 81  1  0
 35 82  1  0
 35 83  1  0
 37 84  1  0
 37 85  1  0
 38 86  1  0
 38 87  1  0
 39 88  1  0
 40 89  1  0
 40 90  1  0
 40 91  1  0
 41 92  1  0
 41 93  1  0
 41 94  1  0
M  END
$$$$
[H]c1c2c(c([H])c(OC([H])([H])[H])c1OC([H])([H])C([H])([H])C([H])([H])N1C([H])([H])C([H])(F)C1([H])[H])C1(C(N([H])[H])=N2)C([H])([H])C([H])([H])C1([H])[H]
     RDKit          3D

 48 51  0  0  0  0  0  0  0  0999 V2000
   -0.0252    0.0281    3.1708 C   0  0  0  0  0  0  0  0  0  0  0  0
    0.4342    0.1901    1.8479 O   0  0  0  0  0  0  0  0  0  0  0  0
   -0.4856    0.2106    0.8196 C   0  0  0  0  0  0  0  0  0  0  0  0
   -1.8278    0.0740    1.0829 C   0  0  0  0  0  0  0  0  0  0  0  0
   -2.7198    0.1007    0.0132 C   0  0  0  0  0  0  0  0  0  0  0  0
   -2.2844    0.2592   -1.2802 C   0  0  0  0  0  0  0  0  0  0  0  0
   -0.9172    0.3979   -1.5418 C   0  0  0  0  0  0  0  0  0  0  0  0
   -0.0419    0.3723   -0.4974 C   0  0  0  0  0  0  0  0  0  0  0  0
    1.3291    0.5060   -0.6911 O   0  0  0  0  0  0  0  0  0  0  0  0
    1.9122    0.6764   -1.9593 C   0  0  0  0  0  0  0  0  0  0  0  0
    3.4243    0.7849   -1.7528 C   0  0  0  0  0  0  0  0  0  0  0  0
    3.9441   -0.4802   -1.0989 C   0  0  0  0  0  0  0  0  0  0  0  0
    5.3549   -0.3595   -0.9203 N   0  0  0  0  0  0  0  0  0  0  0  0
    5.6682    0.6580    0.0820 C   0  0  0  0  0  0  0  0  0  0  0  0
    6.6454   -0.3397    0.6865 C   0  0  0  0  0  0  0  0  0  0  0  0
    6.5090   -0.4711    2.0514 F   0  0  0  0  0  0  0  0  0  0  0  0
    5.9135   -1.4284   -0.1132 C   0  0  0  0  0  0  0  0  0  0  0  0
   -3.4269    0.2449   -2.1338 N   0  0  0  0  0  0  0  0  0  0  0  0
   -4.5083    0.0912   -1.4610 C   0  0  0  0  0  0  0  0  0  0  0  0
   -5.8404    0.0320   -2.0128 N   0  0  0  0  0  0  0  0  0  0  0  0
   -4.1759   -0.0122   -0.0502 C   0  0  0  0  0  0  0  0  0  0  0  0
   -4.9496    0.8695    0.8934 C   0  0  0  0  0  0  0  0  0  0  0  0
   -5.8542   -0.3058    1.1848 C   0  0  0  0  0  0  0  0  0  0  0  0
   -4.7686   -1.2152    0.6528 C   0  0  0  0  0  0  0  0  0  0  0  0
   -0.8795    0.7017    3.4224 H   0  0  0  0  0  0  0  0  0  0  0  0
    0.8049    0.3534    3.8372 H   0  0  0  0  0  0  0  0  0  0  0  0
   -0.3555   -1.0062    3.4050 H   0  0  0  0  0  0  0  0  0  0  0  0
   -2.2111   -0.0520    2.0820 H   0  0  0  0  0  0  0  0  0  0  0  0
   -0.5907    0.5195   -2.5581 H   0  0  0  0  0  0  0  0  0  0  0  0
    1.5262    1.5359   -2.5123 H   0  0  0  0  0  0  0  0  0  0  0  0
    1.7745   -0.2291   -2.6095 H   0  0  0  0  0  0  0  0  0  0  0  0
    3.6196    1.6403   -1.1008 H   0  0  0  0  0  0  0  0  0  0  0  0
    3.8483    0.9168   -2.7633 H   0  0  0  0  0  0  0  0  0  0  0  0
    3.6893   -1.3797   -1.6821 H   0  0  0  0  0  0  0  0  0  0  0  0
    3.4792   -0.5997   -0.1005 H   0  0  0  0  0  0  0  0  0  0  0  0
    6.1545    1.5366   -0.3794 H   0  0  0  0  0  0  0  0  0  0  0  0
    4.8286    0.9394    0.7330 H   0  0  0  0  0  0  0  0  0  0  0  0
    7.6993   -0.2086    0.3256 H   0  0  0  0  0  0  0  0  0  0  0  0
    6.5737   -2.0890   -0.6850 H   0  0  0  0  0  0  0  0  0  0  0  0
    5.1810   -2.0037    0.4691 H   0  0  0  0  0  0  0  0  0  0  0  0
   -6.6000    0.6472   -1.6692 H   0  0  0  0  0  0  0  0  0  0  0  0
   -6.0651   -0.6303   -2.7698 H   0  0  0  0  0  0  0  0  0  0  0  0
   -5.4051    1.7585    0.4635 H   0  0  0  0  0  0  0  0  0  0  0  0
   -4.3083    1.1154    1.7795 H   0  0  0  0  0  0  0  0  0  0  0  0
   -6.7398   -0.3451    0.5049 H   0  0  0  0  0  0  0  0  0  0  0  0
   -6.0971   -0.4443    2.2583 H   0  0  0  0  0  0  0  0  0  0  0  0
   -5.1118   -1.9494   -0.1122 H   0  0  0  0  0  0  0  0  0  0  0  0
   -4.1241   -1.6113    1.4525 H   0  0  0  0  0  0  0  0  0  0  0  0
  1  2  1  0
  2  3  1  0
  3  4  2  0
  4  5  1  0
  5  6  2  0
  6  7  1  0
  7  8  2  0
  8  9  1  0
  9 10  1  0
 10 11  1  0
 11 12  1  0
 12 13  1  0
 13 14  1  0
 14 15  1  0
 15 16  1  0
 15 17  1  0
  6 18  1  0
 18 19  2  0
 19 20  1  0
 19 21  1  0
 21 22  1  0
 22 23  1  0
 23 24  1  0
  8  3  1  0
 17 13  1  0
 24 21  1  0
 21  5  1  0
  1 25  1  0
  1 26  1  0
  1 27  1  0
  4 28  1  0
  7 29  1  0
 10 30  1  0
 10 31  1  0
 11 32  1  0
 11 33  1  0
 12 34  1  0
 12 35  1  0
 14 36  1  0
 14 37  1  0
 15 38  1  0
 17 39  1  0
 17 40  1  0
 20 41  1  0
 20 42  1  0
 22 43  1  0
 22 44  1  0
 23 45  1  0
 23 46  1  0
 24 47  1  0
 24 48  1  0
M  END
$$$$
[H]c1c([H])c([H])c(N2C([H])([H])C([H])([H])N(c3nc(N([H])C4([H])C([H])([H])C([H])([H])N(C([H])(C([H])([H])[H])C([H])([H])[H])C([H])([H])C4([H])[H])c4c([H])c(OC([H])([H])[H])c(OC([H])([H])C([H])([H])C([H])([H])N5C([H])([H])C([H])([H])C([H])([H])C5([H])[H])c([H])c4n3)C([H])([H])C([H])([H])C2([H])[H])c([H])c1[H]
     RDKit          3D

 95100  0  0  0  0  0  0  0  0999 V2000
    4.5568    3.0242   -0.4774 C   0  0  0  0  0  0  0  0  0  0  0  0
    4.5477    1.7146   -0.0045 O   0  0  0  0  0  0  0  0  0  0  0  0
    3.4048    0.9964    0.3075 C   0  0  0  0  0  0  0  0  0  0  0  0
    2.1282    1.5449    0.1685 C   0  0  0  0  0  0  0  0  0  0  0  0
    0.9833    0.8418    0.4753 C   0  0  0  0  0  0  0  0  0  0  0  0
   -0.2785    1.3784    0.3396 C   0  0  0  0  0  0  0  0  0  0  0  0
   -0.4717    2.7068   -0.1245 N   0  0  0  0  0  0  0  0  0  0  0  0
   -1.7725    3.3059   -0.2869 C   0  0  0  0  0  0  0  0  0  0  0  0
   -2.6526    2.6470   -1.2960 C   0  0  0  0  0  0  0  0  0  0  0  0
   -4.0409    3.2723   -1.1752 C   0  0  0  0  0  0  0  0  0  0  0  0
   -3.9139    4.5783   -0.5985 N   0  0  0  0  0  0  0  0  0  0  0  0
   -3.6236    4.4320    0.8109 C   0  0  0  0  0  0  0  0  0  0  0  0
   -2.5264    3.3976    1.0230 C   0  0  0  0  0  0  0  0  0  0  0  0
   -5.1683    5.2724   -0.7925 C   0  0  0  0  0  0  0  0  0  0  0  0
   -5.1963    6.6319   -0.1733 C   0  0  0  0  0  0  0  0  0  0  0  0
   -5.4374    5.3998   -2.2706 C   0  0  0  0  0  0  0  0  0  0  0  0
   -1.3082    0.5764    0.6767 N   0  0  0  0  0  0  0  0  0  0  0  0
   -1.1737   -0.6816    1.1249 C   0  0  0  0  0  0  0  0  0  0  0  0
    0.0677   -1.1778    1.2469 N   0  0  0  0  0  0  0  0  0  0  0  0
    1.1779   -0.4626    0.9374 C   0  0  0  0  0  0  0  0  0  0  0  0
    2.4000   -1.0433    1.0905 C   0  0  0  0  0  0  0  0  0  0  0  0
    3.5253   -0.2937    0.7677 C   0  0  0  0  0  0  0  0  0  0  0  0
    4.8266   -0.8229    0.8982 O   0  0  0  0  0  0  0  0  0  0  0  0
    4.9221   -2.1436    1.3707 C   0  0  0  0  0  0  0  0  0  0  0  0
    6.3515   -2.5658    1.4549 C   0  0  0  0  0  0  0  0  0  0  0  0
    6.9904   -2.4930    0.0963 C   0  0  0  0  0  0  0  0  0  0  0  0
    6.9389   -1.1160   -0.3685 N   0  0  0  0  0  0  0  0  0  0  0  0
    7.5112   -1.0490   -1.7102 C   0  0  0  0  0  0  0  0  0  0  0  0
    8.1524    0.3136   -1.8064 C   0  0  0  0  0  0  0  0  0  0  0  0
    8.1943    0.8324   -0.3955 C   0  0  0  0  0  0  0  0  0  0  0  0
    7.9404   -0.4033    0.4315 C   0  0  0  0  0  0  0  0  0  0  0  0
   -2.2820   -1.5013    1.4703 N   0  0  0  0  0  0  0  0  0  0  0  0
   -3.5885   -0.9265    1.2492 C   0  0  0  0  0  0  0  0  0  0  0  0
   -4.2584   -1.6382    0.0687 C   0  0  0  0  0  0  0  0  0  0  0  0
   -5.0189   -2.8289    0.6330 C   0  0  0  0  0  0  0  0  0  0  0  0
   -3.9998   -3.7683    1.0664 N   0  0  0  0  0  0  0  0  0  0  0  0
   -3.2134   -3.6298    2.2458 C   0  0  0  0  0  0  0  0  0  0  0  0
   -1.9625   -2.8014    2.0031 C   0  0  0  0  0  0  0  0  0  0  0  0
   -3.7772   -4.8756    0.2214 C   0  0  0  0  0  0  0  0  0  0  0  0
   -4.2094   -4.8835   -1.1072 C   0  0  0  0  0  0  0  0  0  0  0  0
   -4.0242   -5.9449   -1.9519 C   0  0  0  0  0  0  0  0  0  0  0  0
   -3.3880   -7.0831   -1.5243 C   0  0  0  0  0  0  0  0  0  0  0  0
   -2.9479   -7.1193   -0.2310 C   0  0  0  0  0  0  0  0  0  0  0  0
   -3.1376   -6.0360    0.6289 C   0  0  0  0  0  0  0  0  0  0  0  0
    4.4116    3.0028   -1.5793 H   0  0  0  0  0  0  0  0  0  0  0  0
    3.7906    3.6759   -0.0113 H   0  0  0  0  0  0  0  0  0  0  0  0
    5.5498    3.4985   -0.2973 H   0  0  0  0  0  0  0  0  0  0  0  0
    2.0886    2.5593   -0.1956 H   0  0  0  0  0  0  0  0  0  0  0  0
    0.3402    3.3087   -0.3699 H   0  0  0  0  0  0  0  0  0  0  0  0
   -1.6508    4.3685   -0.6217 H   0  0  0  0  0  0  0  0  0  0  0  0
   -2.3113    2.9249   -2.3335 H   0  0  0  0  0  0  0  0  0  0  0  0
   -2.7442    1.5685   -1.1838 H   0  0  0  0  0  0  0  0  0  0  0  0
   -4.6837    2.6397   -0.5284 H   0  0  0  0  0  0  0  0  0  0  0  0
   -4.5470    3.2805   -2.1733 H   0  0  0  0  0  0  0  0  0  0  0  0
   -4.5836    4.1204    1.2998 H   0  0  0  0  0  0  0  0  0  0  0  0
   -3.2721    5.3728    1.2774 H   0  0  0  0  0  0  0  0  0  0  0  0
   -1.8491    3.6937    1.8650 H   0  0  0  0  0  0  0  0  0  0  0  0
   -3.0230    2.4469    1.2137 H   0  0  0  0  0  0  0  0  0  0  0  0
   -5.9640    4.6032   -0.3787 H   0  0  0  0  0  0  0  0  0  0  0  0
   -6.0308    6.6603    0.5880 H   0  0  0  0  0  0  0  0  0  0  0  0
   -5.3460    7.4161   -0.9423 H   0  0  0  0  0  0  0  0  0  0  0  0
   -4.2835    6.9019    0.3788 H   0  0  0  0  0  0  0  0  0  0  0  0
   -5.8886    6.4156   -2.4782 H   0  0  0  0  0  0  0  0  0  0  0  0
   -6.2252    4.6847   -2.6189 H   0  0  0  0  0  0  0  0  0  0  0  0
   -4.5301    5.3518   -2.8826 H   0  0  0  0  0  0  0  0  0  0  0  0
    2.4943   -2.0435    1.4478 H   0  0  0  0  0  0  0  0  0  0  0  0
    4.3344   -2.8335    0.7301 H   0  0  0  0  0  0  0  0  0  0  0  0
    4.4946   -2.2062    2.4131 H   0  0  0  0  0  0  0  0  0  0  0  0
    6.4682   -3.5933    1.8723 H   0  0  0  0  0  0  0  0  0  0  0  0
    6.8557   -1.9072    2.1939 H   0  0  0  0  0  0  0  0  0  0  0  0
    6.4425   -3.0932   -0.6565 H   0  0  0  0  0  0  0  0  0  0  0  0
    8.0293   -2.8918    0.1055 H   0  0  0  0  0  0  0  0  0  0  0  0
    6.6905   -1.1220   -2.4428 H   0  0  0  0  0  0  0  0  0  0  0  0
    8.2487   -1.8691   -1.7803 H   0  0  0  0  0  0  0  0  0  0  0  0
    7.6017    0.9866   -2.4928 H   0  0  0  0  0  0  0  0  0  0  0  0
    9.2232    0.2133   -2.1502 H   0  0  0  0  0  0  0  0  0  0  0  0
    7.4216    1.5849   -0.1884 H   0  0  0  0  0  0  0  0  0  0  0  0
    9.2106    1.2255   -0.1343 H   0  0  0  0  0  0  0  0  0  0  0  0
    8.8394   -1.0627    0.4781 H   0  0  0  0  0  0  0  0  0  0  0  0
    7.5914   -0.1809    1.4422 H   0  0  0  0  0  0  0  0  0  0  0  0
   -3.5079    0.1310    0.9249 H   0  0  0  0  0  0  0  0  0  0  0  0
   -4.2455   -1.0125    2.1510 H   0  0  0  0  0  0  0  0  0  0  0  0
   -3.4343   -2.0443   -0.5529 H   0  0  0  0  0  0  0  0  0  0  0  0
   -4.9258   -0.9544   -0.4547 H   0  0  0  0  0  0  0  0  0  0  0  0
   -5.7588   -3.2163   -0.0491 H   0  0  0  0  0  0  0  0  0  0  0  0
   -5.5742   -2.4579    1.5343 H   0  0  0  0  0  0  0  0  0  0  0  0
   -2.9766   -4.5697    2.7594 H   0  0  0  0  0  0  0  0  0  0  0  0
   -3.7883   -3.0253    3.0187 H   0  0  0  0  0  0  0  0  0  0  0  0
   -1.3722   -3.3293    1.2218 H   0  0  0  0  0  0  0  0  0  0  0  0
   -1.3325   -2.7635    2.9137 H   0  0  0  0  0  0  0  0  0  0  0  0
   -4.7054   -4.0145   -1.4944 H   0  0  0  0  0  0  0  0  0  0  0  0
   -4.3641   -5.9429   -2.9867 H   0  0  0  0  0  0  0  0  0  0  0  0
   -3.2491   -7.9196   -2.2125 H   0  0  0  0  0  0  0  0  0  0  0  0
   -2.4413   -8.0244    0.1128 H   0  0  0  0  0  0  0  0  0  0  0  0
   -2.7656   -6.1345    1.6331 H   0  0  0  0  0  0  0  0  0  0  0  0
  1  2  1  0
  2  3  1  0
  3  4  2  0
  4  5  1  0
  5  6  2  0
  6  7  1  0
  7  8  1  0
  8  9  1  0
  9 10  1  0
 10 11  1  0
 11 12  1  0
 12 13  1  0
 11 14  1  0
 14 15  1  0
 14 16  1  0
  6 17  1  0
 17 18  2  0
 18 19  1  0
 19 20  2  0
 20 21  1  0
 21 22  2  0
 22 23  1  0
 23 24  1  0
 24 25  1  0
 25 26  1  0
 26 27  1  0
 27 28  1  0
 28 29  1  0
 29 30  1  0
 30 31  1  0
 18 32  1  0
 32 33  1  0
 33 34  1  0
 34 35  1  0
 35 36  1  0
 36 37  1  0
 37 38  1  0
 36 39  1  0
 39 40  2  0
 40 41  1  0
 41 42  2  0
 42 43  1  0
 43 44  2  0
 22  3  1  0
 31 27  1  0
 38 32  1  0
 44 39  1  0
 20  5  1  0
 13  8  1  0
  1 45  1  0
  1 46  1  0
  1 47  1  0
  4 48  1  0
  7 49  1  0
  8 50  1  0
  9 51  1  0
  9 52  1  0
 10 53  1  0
 10 54  1  0
 12 55  1  0
 12 56  1  0
 13 57  1  0
 13 58  1  0
 14 59  1  0
 15 60  1  0
 15 61  1  0
 15 62  1  0
 16 63  1  0
 16 64  1  0
 16 65  1  0
 21 66  1  0
 24 67  1  0
 24 68  1  0
 25 69  1  0
 25 70  1  0
 26 71  1  0
 26 72  1  0
 28 73  1  0
 28 74  1  0
 29 75  1  0
 29 76  1  0
 30 77  1  0
 30 78  1  0
 31 79  1  0
 31 80  1  0
 33 81  1  0
 33 82  1  0
 34 83  1  0
 34 84  1  0
 35 85  1  0
 35 86  1  0
 37 87  1  0
 37 88  1  0
 38 89  1  0
 38 90  1  0
 40 91  1  0
 41 92  1  0
 42 93  1  0
 43 94  1  0
 44 95  1  0
M  END
$$$$
[H]c1c(OC([H])([H])C([H])([H])C([H])([H])N2C([H])([H])C([H])([H])C([H])([H])C2([H])[H])c(OC([H])([H])[H])c([H])c2c(N([H])C3([H])C([H])([H])C([H])([H])N(C([H])(C([H])([H])[H])C([H])([H])[H])C([H])([H])C3([H])[H])nc(N3C([H])([H])C(F)(F)C(F)(F)C3([H])[H])nc12
     RDKit          3D

 80 84  0  0  0  0  0  0  0  0999 V2000
   -1.8894   -3.7548   -0.4325 C   0  0  0  0  0  0  0  0  0  0  0  0
   -2.6079   -2.5469   -0.4758 O   0  0  0  0  0  0  0  0  0  0  0  0
   -1.9808   -1.3111   -0.4576 C   0  0  0  0  0  0  0  0  0  0  0  0
   -0.6047   -1.2942   -0.3936 C   0  0  0  0  0  0  0  0  0  0  0  0
    0.0382   -0.0699   -0.3748 C   0  0  0  0  0  0  0  0  0  0  0  0
    1.3989    0.0352   -0.3076 C   0  0  0  0  0  0  0  0  0  0  0  0
    2.2251   -1.1022   -0.2608 N   0  0  0  0  0  0  0  0  0  0  0  0
    3.6748   -1.0079   -0.1890 C   0  0  0  0  0  0  0  0  0  0  0  0
    4.1664   -0.2941    1.0227 C   0  0  0  0  0  0  0  0  0  0  0  0
    5.5095   -0.8581    1.4381 C   0  0  0  0  0  0  0  0  0  0  0  0
    6.3406   -1.1077    0.3122 N   0  0  0  0  0  0  0  0  0  0  0  0
    5.8268   -2.1265   -0.5361 C   0  0  0  0  0  0  0  0  0  0  0  0
    4.3460   -2.3388   -0.2933 C   0  0  0  0  0  0  0  0  0  0  0  0
    7.7409   -1.1832    0.5744 C   0  0  0  0  0  0  0  0  0  0  0  0
    8.1006   -2.3312    1.5093 C   0  0  0  0  0  0  0  0  0  0  0  0
    8.4264   -1.5200   -0.7583 C   0  0  0  0  0  0  0  0  0  0  0  0
    1.9695    1.2625   -0.2879 N   0  0  0  0  0  0  0  0  0  0  0  0
    1.2507    2.3974   -0.3321 C   0  0  0  0  0  0  0  0  0  0  0  0
   -0.0854    2.2900   -0.3984 N   0  0  0  0  0  0  0  0  0  0  0  0
   -0.7017    1.0959   -0.4204 C   0  0  0  0  0  0  0  0  0  0  0  0
   -2.0924    1.0267   -0.4848 C   0  0  0  0  0  0  0  0  0  0  0  0
   -2.7288   -0.1667   -0.5031 C   0  0  0  0  0  0  0  0  0  0  0  0
   -4.1193   -0.2954   -0.5657 O   0  0  0  0  0  0  0  0  0  0  0  0
   -4.8770    0.8959   -0.6172 C   0  0  0  0  0  0  0  0  0  0  0  0
   -6.3463    0.4543   -0.6639 C   0  0  0  0  0  0  0  0  0  0  0  0
   -6.5901   -0.3217    0.5897 C   0  0  0  0  0  0  0  0  0  0  0  0
   -7.9121   -0.8340    0.7544 N   0  0  0  0  0  0  0  0  0  0  0  0
   -8.2950   -1.8732   -0.1496 C   0  0  0  0  0  0  0  0  0  0  0  0
   -9.7413   -2.1276    0.2990 C   0  0  0  0  0  0  0  0  0  0  0  0
  -10.2086   -0.7107    0.6311 C   0  0  0  0  0  0  0  0  0  0  0  0
   -8.9570    0.1419    0.5819 C   0  0  0  0  0  0  0  0  0  0  0  0
    1.8694    3.6819   -0.3021 N   0  0  0  0  0  0  0  0  0  0  0  0
    3.3013    3.9298   -0.1012 C   0  0  0  0  0  0  0  0  0  0  0  0
    3.3848    5.4144    0.2017 C   0  0  0  0  0  0  0  0  0  0  0  0
    4.6044    5.9607   -0.0554 F   0  0  0  0  0  0  0  0  0  0  0  0
    2.9803    5.6407    1.4965 F   0  0  0  0  0  0  0  0  0  0  0  0
    2.2953    5.9342   -0.7434 C   0  0  0  0  0  0  0  0  0  0  0  0
    1.9456    7.2238   -0.4875 F   0  0  0  0  0  0  0  0  0  0  0  0
    2.7399    5.7263   -2.0392 F   0  0  0  0  0  0  0  0  0  0  0  0
    1.1791    4.9391   -0.4682 C   0  0  0  0  0  0  0  0  0  0  0  0
   -1.3053   -3.8613    0.5115 H   0  0  0  0  0  0  0  0  0  0  0  0
   -2.5770   -4.6132   -0.4886 H   0  0  0  0  0  0  0  0  0  0  0  0
   -1.1459   -3.8124   -1.2575 H   0  0  0  0  0  0  0  0  0  0  0  0
   -0.0319   -2.2051   -0.3584 H   0  0  0  0  0  0  0  0  0  0  0  0
    1.8441   -2.0409   -0.2751 H   0  0  0  0  0  0  0  0  0  0  0  0
    3.9839   -0.4117   -1.0808 H   0  0  0  0  0  0  0  0  0  0  0  0
    4.2621    0.8028    0.8863 H   0  0  0  0  0  0  0  0  0  0  0  0
    3.4027   -0.4433    1.8405 H   0  0  0  0  0  0  0  0  0  0  0  0
    5.9904   -0.2334    2.2128 H   0  0  0  0  0  0  0  0  0  0  0  0
    5.3130   -1.8450    1.9373 H   0  0  0  0  0  0  0  0  0  0  0  0
    6.4075   -3.0617   -0.3376 H   0  0  0  0  0  0  0  0  0  0  0  0
    5.9464   -1.8816   -1.6119 H   0  0  0  0  0  0  0  0  0  0  0  0
    3.8735   -2.8961   -1.1436 H   0  0  0  0  0  0  0  0  0  0  0  0
    4.2081   -2.9581    0.6313 H   0  0  0  0  0  0  0  0  0  0  0  0
    8.1670   -0.2396    0.9555 H   0  0  0  0  0  0  0  0  0  0  0  0
    7.3851   -2.4145    2.3480 H   0  0  0  0  0  0  0  0  0  0  0  0
    8.2533   -3.2458    0.9386 H   0  0  0  0  0  0  0  0  0  0  0  0
    9.0965   -2.0419    1.9487 H   0  0  0  0  0  0  0  0  0  0  0  0
    7.9682   -0.8760   -1.5409 H   0  0  0  0  0  0  0  0  0  0  0  0
    9.5066   -1.2384   -0.7255 H   0  0  0  0  0  0  0  0  0  0  0  0
    8.2552   -2.5619   -1.0579 H   0  0  0  0  0  0  0  0  0  0  0  0
   -2.6503    1.9548   -0.5200 H   0  0  0  0  0  0  0  0  0  0  0  0
   -4.6481    1.4644   -1.5473 H   0  0  0  0  0  0  0  0  0  0  0  0
   -4.6789    1.5314    0.2651 H   0  0  0  0  0  0  0  0  0  0  0  0
   -6.4022   -0.2362   -1.5430 H   0  0  0  0  0  0  0  0  0  0  0  0
   -6.9609    1.3502   -0.7621 H   0  0  0  0  0  0  0  0  0  0  0  0
   -6.4095    0.3764    1.4595 H   0  0  0  0  0  0  0  0  0  0  0  0
   -5.8855   -1.1771    0.6299 H   0  0  0  0  0  0  0  0  0  0  0  0
   -8.3329   -1.5947   -1.2037 H   0  0  0  0  0  0  0  0  0  0  0  0
   -7.6725   -2.7789    0.0290 H   0  0  0  0  0  0  0  0  0  0  0  0
  -10.3579   -2.5690   -0.4843 H   0  0  0  0  0  0  0  0  0  0  0  0
   -9.6507   -2.7547    1.2196 H   0  0  0  0  0  0  0  0  0  0  0  0
  -10.5398   -0.6946    1.7054 H   0  0  0  0  0  0  0  0  0  0  0  0
  -10.9789   -0.3740   -0.0649 H   0  0  0  0  0  0  0  0  0  0  0  0
   -8.9200    0.6255   -0.4105 H   0  0  0  0  0  0  0  0  0  0  0  0
   -8.9411    0.8894    1.4031 H   0  0  0  0  0  0  0  0  0  0  0  0
    3.8188    3.6765   -1.0476 H   0  0  0  0  0  0  0  0  0  0  0  0
    3.6853    3.3275    0.7698 H   0  0  0  0  0  0  0  0  0  0  0  0
    0.6582    5.2719    0.4473 H   0  0  0  0  0  0  0  0  0  0  0  0
    0.4873    4.9158   -1.3604 H   0  0  0  0  0  0  0  0  0  0  0  0
  1  2  1  0
  2  3  1  0
  3  4  2  0
  4  5  1  0
  5  6  2  0
  6  7  1  0
  7  8  1  0
  8  9  1  0
  9 10  1  0
 10 11  1  0
 11 12  1  0
 12 13  1  0
 11 14  1  0
 14 15  1  0
 14 16  1  0
  6 17  1  0
 17 18  2  0
 18 19  1  0
 19 20  2  0
 20 21  1  0
 21 22  2  0
 22 23  1  0
 23 24  1  0
 24 25  1  0
 25 26  1  0
 26 27  1  0
 27 28  1  0
 28 29  1  0
 29 30  1  0
 30 31  1  0
 18 32  1  0
 32 33  1  0
 33 34  1  0
 34 35  1  0
 34 36  1  0
 34 37  1  0
 37 38  1  0
 37 39  1  0
 37 40  1  0
 22  3  1  0
 31 27  1  0
 40 32  1  0
 20  5  1  0
 13  8  1  0
  1 41  1  0
  1 42  1  0
  1 43  1  0
  4 44  1  0
  7 45  1  0
  8 46  1  0
  9 47  1  0
  9 48  1  0
 10 49  1  0
 10 50  1  0
 12 51  1  0
 12 52  1  0
 13 53  1  0
 13 54  1  0
 14 55  1  0
 15 56  1  0
 15 57  1  0
 15 58  1  0
 16 59  1  0
 16 60  1  0
 16 61  1  0
 21 62  1  0
 24 63  1  0
 24 64  1  0
 25 65  1  0
 25 66  1  0
 26 67  1  0
 26 68  1  0
 28 69  1  0
 28 70  1  0
 29 71  1  0
 29 72  1  0
 30 73  1  0
 30 74  1  0
 31 75  1  0
 31 76  1  0
 33 77  1  0
 33 78  1  0
 40 79  1  0
 40 80  1  0
M  END
$$$$
[H]c1c(C2([H])C([H])([H])C([H])([H])C([H])([H])C([H])([H])C2([H])[H])nc2c([H])c(OC([H])([H])C([H])([H])C([H])([H])N3C([H])([H])C([H])([H])C([H])([H])C3([H])[H])c(OC([H])([H])[H])c([H])c2c1N([H])C1([H])C([H])([H])C([H])([H])N(C([H])(C([H])([H])[H])C([H])([H])[H])C([H])([H])C1([H])[H]
     RDKit          3D

 85 89  0  0  0  0  0  0  0  0999 V2000
   -0.6007   -4.5321   -0.2661 C   0  0  0  0  0  0  0  0  0  0  0  0
   -1.5600   -3.5546    0.0342 O   0  0  0  0  0  0  0  0  0  0  0  0
   -1.2788   -2.2185    0.0353 C   0  0  0  0  0  0  0  0  0  0  0  0
    0.0082   -1.7881   -0.2712 C   0  0  0  0  0  0  0  0  0  0  0  0
    0.3587   -0.4579   -0.2878 C   0  0  0  0  0  0  0  0  0  0  0  0
    1.6316   -0.0467   -0.5868 C   0  0  0  0  0  0  0  0  0  0  0  0
    2.6628   -0.9450   -0.9191 N   0  0  0  0  0  0  0  0  0  0  0  0
    4.0401   -0.4962   -1.1405 C   0  0  0  0  0  0  0  0  0  0  0  0
    4.8448   -1.6880   -1.6038 C   0  0  0  0  0  0  0  0  0  0  0  0
    6.2921   -1.4400   -1.3407 C   0  0  0  0  0  0  0  0  0  0  0  0
    6.5713   -1.4981    0.0602 N   0  0  0  0  0  0  0  0  0  0  0  0
    5.4178   -1.1547    0.8708 C   0  0  0  0  0  0  0  0  0  0  0  0
    4.6620   -0.0396    0.1662 C   0  0  0  0  0  0  0  0  0  0  0  0
    7.1792   -2.7250    0.4533 C   0  0  0  0  0  0  0  0  0  0  0  0
    6.3615   -3.9555    0.2357 C   0  0  0  0  0  0  0  0  0  0  0  0
    7.5380   -2.6922    1.9327 C   0  0  0  0  0  0  0  0  0  0  0  0
    1.9079    1.3052   -0.5778 C   0  0  0  0  0  0  0  0  0  0  0  0
    0.9016    2.2322   -0.2680 C   0  0  0  0  0  0  0  0  0  0  0  0
   -0.3060    1.7638    0.0108 N   0  0  0  0  0  0  0  0  0  0  0  0
   -0.6406    0.4724    0.0200 C   0  0  0  0  0  0  0  0  0  0  0  0
   -1.9160    0.0593    0.3245 C   0  0  0  0  0  0  0  0  0  0  0  0
   -2.2647   -1.2702    0.3401 C   0  0  0  0  0  0  0  0  0  0  0  0
   -3.4841   -1.7437    0.6244 O   0  0  0  0  0  0  0  0  0  0  0  0
   -4.6968   -1.1969    0.9420 C   0  0  0  0  0  0  0  0  0  0  0  0
   -5.3233   -0.3288   -0.1095 C   0  0  0  0  0  0  0  0  0  0  0  0
   -6.6554    0.1624    0.4681 C   0  0  0  0  0  0  0  0  0  0  0  0
   -7.5458   -0.9154    0.7910 N   0  0  0  0  0  0  0  0  0  0  0  0
   -8.0505   -1.6269   -0.3399 C   0  0  0  0  0  0  0  0  0  0  0  0
   -9.3239   -0.8341   -0.6589 C   0  0  0  0  0  0  0  0  0  0  0  0
   -9.9010   -0.6940    0.7534 C   0  0  0  0  0  0  0  0  0  0  0  0
   -8.6466   -0.3855    1.5349 C   0  0  0  0  0  0  0  0  0  0  0  0
    1.2707    3.6525   -0.2754 C   0  0  0  0  0  0  0  0  0  0  0  0
    1.1087    4.2785    1.1136 C   0  0  0  0  0  0  0  0  0  0  0  0
    1.7900    5.6127    1.0839 C   0  0  0  0  0  0  0  0  0  0  0  0
    1.2440    6.5240    0.0204 C   0  0  0  0  0  0  0  0  0  0  0  0
    1.0607    5.8589   -1.3031 C   0  0  0  0  0  0  0  0  0  0  0  0
    0.4257    4.4878   -1.2099 C   0  0  0  0  0  0  0  0  0  0  0  0
    0.2410   -4.5177    0.4807 H   0  0  0  0  0  0  0  0  0  0  0  0
   -1.0249   -5.5491   -0.2364 H   0  0  0  0  0  0  0  0  0  0  0  0
   -0.1153   -4.3691   -1.2507 H   0  0  0  0  0  0  0  0  0  0  0  0
    0.7460   -2.5345   -0.4989 H   0  0  0  0  0  0  0  0  0  0  0  0
    2.4399   -1.9558   -1.0131 H   0  0  0  0  0  0  0  0  0  0  0  0
    4.0248    0.2845   -1.9117 H   0  0  0  0  0  0  0  0  0  0  0  0
    4.4752   -2.5572   -1.0284 H   0  0  0  0  0  0  0  0  0  0  0  0
    4.6548   -1.8924   -2.6774 H   0  0  0  0  0  0  0  0  0  0  0  0
    6.5346   -0.3976   -1.7011 H   0  0  0  0  0  0  0  0  0  0  0  0
    6.9248   -2.1210   -1.9419 H   0  0  0  0  0  0  0  0  0  0  0  0
    5.8148   -0.7063    1.8054 H   0  0  0  0  0  0  0  0  0  0  0  0
    4.7861   -2.0025    1.1436 H   0  0  0  0  0  0  0  0  0  0  0  0
    3.9273    0.3532    0.8903 H   0  0  0  0  0  0  0  0  0  0  0  0
    5.3986    0.7618   -0.0414 H   0  0  0  0  0  0  0  0  0  0  0  0
    8.1214   -2.8382   -0.1305 H   0  0  0  0  0  0  0  0  0  0  0  0
    5.3831   -3.9059    0.7537 H   0  0  0  0  0  0  0  0  0  0  0  0
    6.2501   -4.2436   -0.8217 H   0  0  0  0  0  0  0  0  0  0  0  0
    6.9209   -4.8006    0.7294 H   0  0  0  0  0  0  0  0  0  0  0  0
    6.6180   -3.0024    2.4903 H   0  0  0  0  0  0  0  0  0  0  0  0
    7.9211   -1.7277    2.2660 H   0  0  0  0  0  0  0  0  0  0  0  0
    8.2906   -3.4814    2.1129 H   0  0  0  0  0  0  0  0  0  0  0  0
    2.9060    1.6698   -0.8168 H   0  0  0  0  0  0  0  0  0  0  0  0
   -2.6698    0.7878    0.5714 H   0  0  0  0  0  0  0  0  0  0  0  0
   -5.4440   -1.9677    1.3066 H   0  0  0  0  0  0  0  0  0  0  0  0
   -4.5415   -0.5732    1.8808 H   0  0  0  0  0  0  0  0  0  0  0  0
   -5.4856   -0.8730   -1.0624 H   0  0  0  0  0  0  0  0  0  0  0  0
   -4.7610    0.5753   -0.3552 H   0  0  0  0  0  0  0  0  0  0  0  0
   -7.1154    0.9234   -0.1931 H   0  0  0  0  0  0  0  0  0  0  0  0
   -6.3967    0.6795    1.4154 H   0  0  0  0  0  0  0  0  0  0  0  0
   -8.3881   -2.6412   -0.0447 H   0  0  0  0  0  0  0  0  0  0  0  0
   -7.3630   -1.6779   -1.1828 H   0  0  0  0  0  0  0  0  0  0  0  0
   -9.9942   -1.3875   -1.3158 H   0  0  0  0  0  0  0  0  0  0  0  0
   -9.0428    0.1569   -1.0111 H   0  0  0  0  0  0  0  0  0  0  0  0
  -10.2393   -1.6981    1.0728 H   0  0  0  0  0  0  0  0  0  0  0  0
  -10.6632    0.0880    0.8177 H   0  0  0  0  0  0  0  0  0  0  0  0
   -8.6046    0.7395    1.6058 H   0  0  0  0  0  0  0  0  0  0  0  0
   -8.6556   -0.7782    2.5618 H   0  0  0  0  0  0  0  0  0  0  0  0
    2.3333    3.8058   -0.5502 H   0  0  0  0  0  0  0  0  0  0  0  0
    0.0524    4.4176    1.3555 H   0  0  0  0  0  0  0  0  0  0  0  0
    1.6531    3.6166    1.8201 H   0  0  0  0  0  0  0  0  0  0  0  0
    1.5719    6.1116    2.0721 H   0  0  0  0  0  0  0  0  0  0  0  0
    2.8798    5.5566    0.9963 H   0  0  0  0  0  0  0  0  0  0  0  0
    1.9984    7.3488   -0.1228 H   0  0  0  0  0  0  0  0  0  0  0  0
    0.3244    7.0463    0.3929 H   0  0  0  0  0  0  0  0  0  0  0  0
    2.0358    5.8262   -1.8195 H   0  0  0  0  0  0  0  0  0  0  0  0
    0.4233    6.5449   -1.9272 H   0  0  0  0  0  0  0  0  0  0  0  0
   -0.6095    4.6495   -0.8188 H   0  0  0  0  0  0  0  0  0  0  0  0
    0.3796    4.0741   -2.2354 H   0  0  0  0  0  0  0  0  0  0  0  0
  1  2  1  0
  2  3  1  0
  3  4  2  0
  4  5  1  0
  5  6  2  0
  6  7  1  0
  7  8  1  0
  8  9  1  0
  9 10  1  0
 10 11  1  0
 11 12  1  0
 12 13  1  0
 11 14  1  0
 14 15  1  0
 14 16  1  0
  6 17  1  0
 17 18  2  0
 18 19  1  0
 19 20  2  0
 20 21  1  0
 21 22  2  0
 22 23  1  0
 23 24  1  0
 24 25  1  0
 25 26  1  0
 26 27  1  0
 27 28  1  0
 28 29  1  0
 29 30  1  0
 30 31  1  0
 18 32  1  0
 32 33  1  0
 33 34  1  0
 34 35  1  0
 35 36  1  0
 36 37  1  0
 22  3  1  0
 31 27  1  0
 37 32  1  0
 20  5  1  0
 13  8  1  0
  1 38  1  0
  1 39  1  0
  1 40  1  0
  4 41  1  0
  7 42  1  0
  8 43  1  0
  9 44  1  0
  9 45  1  0
 10 46  1  0
 10 47  1  0
 12 48  1  0
 12 49  1  0
 13 50  1  0
 13 51  1  0
 14 52  1  0
 15 53  1  0
 15 54  1  0
 15 55  1  0
 16 56  1  0
 16 57  1  0
 16 58  1  0
 17 59  1  0
 21 60  1  0
 24 61  1  0
 24 62  1  0
 25 63  1  0
 25 64  1  0
 26 65  1  0
 26 66  1  0
 28 67  1  0
 28 68  1  0
 29 69  1  0
 29 70  1  0
 30 71  1  0
 30 72  1  0
 31 73  1  0
 31 74  1  0
 32 75  1  0
 33 76  1  0
 33 77  1  0
 34 78  1  0
 34 79  1  0
 35 80  1  0
 35 81  1  0
 36 82  1  0
 36 83  1  0
 37 84  1  0
 37 85  1  0
M  END
$$$$
[H]c1c(OC([H])([H])C([H])([H])C([H])([H])N2C([H])([H])C([H])([H])C([H])([H])C2([H])[H])c(OC([H])([H])[H])c([H])c2c(N([H])C3([H])C([H])([H])C([H])([H])N(C([H])(C([H])([H])[H])C([H])([H])[H])C([H])([H])C3([H])[H])nc(N3C([H])([H])C([H])([H])C([H])([H])C([H])([H])C3([H])[H])nc12
     RDKit          3D

 83 87  0  0  0  0  0  0  0  0999 V2000
    1.0684   -5.0164   -0.6103 C   0  0  0  0  0  0  0  0  0  0  0  0
    2.0627   -4.0361   -0.4092 O   0  0  0  0  0  0  0  0  0  0  0  0
    1.6903   -2.7476   -0.1221 C   0  0  0  0  0  0  0  0  0  0  0  0
    0.3619   -2.4182   -0.0310 C   0  0  0  0  0  0  0  0  0  0  0  0
   -0.0253   -1.1345    0.2558 C   0  0  0  0  0  0  0  0  0  0  0  0
   -1.3412   -0.7711    0.3477 C   0  0  0  0  0  0  0  0  0  0  0  0
   -2.3831   -1.7059    0.1872 N   0  0  0  0  0  0  0  0  0  0  0  0
   -3.7844   -1.3389    0.2597 C   0  0  0  0  0  0  0  0  0  0  0  0
   -4.2328   -0.4263   -0.8529 C   0  0  0  0  0  0  0  0  0  0  0  0
   -5.6932   -0.0860   -0.5151 C   0  0  0  0  0  0  0  0  0  0  0  0
   -6.4579   -1.3002   -0.6684 N   0  0  0  0  0  0  0  0  0  0  0  0
   -6.0920   -2.2955    0.2894 C   0  0  0  0  0  0  0  0  0  0  0  0
   -4.6160   -2.5935    0.1962 C   0  0  0  0  0  0  0  0  0  0  0  0
   -7.8804   -1.0002   -0.6357 C   0  0  0  0  0  0  0  0  0  0  0  0
   -8.1886   -0.1036   -1.8152 C   0  0  0  0  0  0  0  0  0  0  0  0
   -8.7101   -2.2367   -0.7626 C   0  0  0  0  0  0  0  0  0  0  0  0
   -1.5939    0.5384    0.6305 N   0  0  0  0  0  0  0  0  0  0  0  0
   -0.6407    1.4504    0.8165 C   0  0  0  0  0  0  0  0  0  0  0  0
    0.6468    1.0834    0.7249 N   0  0  0  0  0  0  0  0  0  0  0  0
    0.9924   -0.1794    0.4509 C   0  0  0  0  0  0  0  0  0  0  0  0
    2.3407   -0.5326    0.3546 C   0  0  0  0  0  0  0  0  0  0  0  0
    2.7091   -1.8079    0.0687 C   0  0  0  0  0  0  0  0  0  0  0  0
    3.9992   -2.1978   -0.0410 O   0  0  0  0  0  0  0  0  0  0  0  0
    5.0907   -1.3274    0.0713 C   0  0  0  0  0  0  0  0  0  0  0  0
    5.2190   -0.3022   -0.9897 C   0  0  0  0  0  0  0  0  0  0  0  0
    6.3155    0.6735   -0.8009 C   0  0  0  0  0  0  0  0  0  0  0  0
    7.6086    0.0795   -0.7180 N   0  0  0  0  0  0  0  0  0  0  0  0
    8.6323    1.1823   -0.9310 C   0  0  0  0  0  0  0  0  0  0  0  0
    9.8923    0.3745   -0.7025 C   0  0  0  0  0  0  0  0  0  0  0  0
    9.4989   -0.5803    0.4133 C   0  0  0  0  0  0  0  0  0  0  0  0
    8.0319   -0.1918    0.6782 C   0  0  0  0  0  0  0  0  0  0  0  0
   -0.9223    2.8183    1.1111 N   0  0  0  0  0  0  0  0  0  0  0  0
    0.1358    3.7743    1.3604 C   0  0  0  0  0  0  0  0  0  0  0  0
   -0.0530    4.9115    0.3583 C   0  0  0  0  0  0  0  0  0  0  0  0
   -1.3666    5.5754    0.6673 C   0  0  0  0  0  0  0  0  0  0  0  0
   -2.2091    4.7722    1.6394 C   0  0  0  0  0  0  0  0  0  0  0  0
   -2.2821    3.3127    1.1745 C   0  0  0  0  0  0  0  0  0  0  0  0
    1.5270   -6.0370   -0.7293 H   0  0  0  0  0  0  0  0  0  0  0  0
    0.4147   -5.0942    0.2752 H   0  0  0  0  0  0  0  0  0  0  0  0
    0.4276   -4.8096   -1.4884 H   0  0  0  0  0  0  0  0  0  0  0  0
   -0.3471   -3.2077   -0.1941 H   0  0  0  0  0  0  0  0  0  0  0  0
   -2.1524   -2.7017    0.0089 H   0  0  0  0  0  0  0  0  0  0  0  0
   -4.0175   -0.8021    1.2040 H   0  0  0  0  0  0  0  0  0  0  0  0
   -3.6294    0.4881   -0.9280 H   0  0  0  0  0  0  0  0  0  0  0  0
   -4.2161   -1.0053   -1.8029 H   0  0  0  0  0  0  0  0  0  0  0  0
   -6.0737    0.7299   -1.1336 H   0  0  0  0  0  0  0  0  0  0  0  0
   -5.6701    0.1663    0.5774 H   0  0  0  0  0  0  0  0  0  0  0  0
   -6.3068   -2.0260    1.3416 H   0  0  0  0  0  0  0  0  0  0  0  0
   -6.6299   -3.2397    0.0611 H   0  0  0  0  0  0  0  0  0  0  0  0
   -4.3755   -3.2067   -0.6827 H   0  0  0  0  0  0  0  0  0  0  0  0
   -4.3805   -3.2426    1.0815 H   0  0  0  0  0  0  0  0  0  0  0  0
   -8.1568   -0.4925    0.3138 H   0  0  0  0  0  0  0  0  0  0  0  0
   -8.1053    0.9463   -1.4767 H   0  0  0  0  0  0  0  0  0  0  0  0
   -9.1807   -0.3370   -2.2557 H   0  0  0  0  0  0  0  0  0  0  0  0
   -7.4503   -0.2746   -2.6403 H   0  0  0  0  0  0  0  0  0  0  0  0
   -9.7678   -1.9227   -0.8758 H   0  0  0  0  0  0  0  0  0  0  0  0
   -8.6788   -2.8636    0.1646 H   0  0  0  0  0  0  0  0  0  0  0  0
   -8.4402   -2.8196   -1.6702 H   0  0  0  0  0  0  0  0  0  0  0  0
    3.0430    0.2734    0.5474 H   0  0  0  0  0  0  0  0  0  0  0  0
    5.1466   -0.9392    1.1004 H   0  0  0  0  0  0  0  0  0  0  0  0
    6.0139   -2.0025   -0.0630 H   0  0  0  0  0  0  0  0  0  0  0  0
    5.4424   -0.9310   -1.9518 H   0  0  0  0  0  0  0  0  0  0  0  0
    4.2595    0.1877   -1.3172 H   0  0  0  0  0  0  0  0  0  0  0  0
    6.0960    1.3418    0.0705 H   0  0  0  0  0  0  0  0  0  0  0  0
    6.3083    1.3572   -1.6928 H   0  0  0  0  0  0  0  0  0  0  0  0
    8.5263    1.5842   -1.9376 H   0  0  0  0  0  0  0  0  0  0  0  0
    8.5392    1.9141   -0.1275 H   0  0  0  0  0  0  0  0  0  0  0  0
   10.0807   -0.1725   -1.6588 H   0  0  0  0  0  0  0  0  0  0  0  0
   10.7324    1.0269   -0.4064 H   0  0  0  0  0  0  0  0  0  0  0  0
    9.4634   -1.6287    0.0525 H   0  0  0  0  0  0  0  0  0  0  0  0
   10.1224   -0.4414    1.3178 H   0  0  0  0  0  0  0  0  0  0  0  0
    7.4961   -0.9526    1.1901 H   0  0  0  0  0  0  0  0  0  0  0  0
    8.0217    0.8001    1.2195 H   0  0  0  0  0  0  0  0  0  0  0  0
    0.1035    4.1790    2.3878 H   0  0  0  0  0  0  0  0  0  0  0  0
    1.1258    3.3131    1.1201 H   0  0  0  0  0  0  0  0  0  0  0  0
   -0.1333    4.4937   -0.6664 H   0  0  0  0  0  0  0  0  0  0  0  0
    0.7742    5.6254    0.3773 H   0  0  0  0  0  0  0  0  0  0  0  0
   -1.1584    6.5680    1.1139 H   0  0  0  0  0  0  0  0  0  0  0  0
   -1.9504    5.7881   -0.2602 H   0  0  0  0  0  0  0  0  0  0  0  0
   -3.2408    5.1976    1.5756 H   0  0  0  0  0  0  0  0  0  0  0  0
   -1.8042    4.8259    2.6528 H   0  0  0  0  0  0  0  0  0  0  0  0
   -2.6868    3.3835    0.1225 H   0  0  0  0  0  0  0  0  0  0  0  0
   -2.9358    2.7439    1.8399 H   0  0  0  0  0  0  0  0  0  0  0  0
  1  2  1  0
  2  3  1  0
  3  4  2  0
  4  5  1  0
  5  6  2  0
  6  7  1  0
  7  8  1  0
  8  9  1  0
  9 10  1  0
 10 11  1  0
 11 12  1  0
 12 13  1  0
 11 14  1  0
 14 15  1  0
 14 16  1  0
  6 17  1  0
 17 18  2  0
 18 19  1  0
 19 20  2  0
 20 21  1  0
 21 22  2  0
 22 23  1  0
 23 24  1  0
 24 25  1  0
 25 26  1  0
 26 27  1  0
 27 28  1  0
 28 29  1  0
 29 30  1  0
 30 31  1  0
 18 32  1  0
 32 33  1  0
 33 34  1  0
 34 35  1  0
 35 36  1  0
 36 37  1  0
 22  3  1  0
 31 27  1  0
 37 32  1  0
 20  5  1  0
 13  8  1  0
  1 38  1  0
  1 39  1  0
  1 40  1  0
  4 41  1  0
  7 42  1  0
  8 43  1  0
  9 44  1  0
  9 45  1  0
 10 46  1  0
 10 47  1  0
 12 48  1  0
 12 49  1  0
 13 50  1  0
 13 51  1  0
 14 52  1  0
 15 53  1  0
 15 54  1  0
 15 55  1  0
 16 56  1  0
 16 57  1  0
 16 58  1  0
 21 59  1  0
 24 60  1  0
 24 61  1  0
 25 62  1  0
 25 63  1  0
 26 64  1  0
 26 65  1  0
 28 66  1  0
 28 67  1  0
 29 68  1  0
 29 69  1  0
 30 70  1  0
 30 71  1  0
 31 72  1  0
 31 73  1  0
 33 74  1  0
 33 75  1  0
 34 76  1  0
 34 77  1  0
 35 78  1  0
 35 79  1  0
 36 80  1  0
 36 81  1  0
 37 82  1  0
 37 83  1  0
M  END
$$$$
[H]C1=C(c2nc3c([H])c(OC([H])([H])C([H])([H])C([H])([H])N4C([H])([H])C([H])([H])C([H])([H])C4([H])[H])c(OC([H])([H])[H])c([H])c3c(N([H])C3([H])C([H])([H])C([H])([H])N(C([H])([H])[H])C([H])([H])C3([H])[H])c2[H])C([H])([H])C([H])([H])C([H])([H])C1([H])[H]
     RDKit          3D

 77 81  0  0  0  0  0  0  0  0999 V2000
    1.2258   -4.2126   -1.2216 C   0  0  0  0  0  0  0  0  0  0  0  0
    1.8054   -2.9556   -1.3813 O   0  0  0  0  0  0  0  0  0  0  0  0
    1.2473   -1.7484   -1.0282 C   0  0  0  0  0  0  0  0  0  0  0  0
   -0.0261   -1.6542   -0.4422 C   0  0  0  0  0  0  0  0  0  0  0  0
   -0.6069   -0.4690   -0.0799 C   0  0  0  0  0  0  0  0  0  0  0  0
   -1.8506   -0.3994    0.4957 C   0  0  0  0  0  0  0  0  0  0  0  0
   -2.6004   -1.5573    0.7480 N   0  0  0  0  0  0  0  0  0  0  0  0
   -3.9379   -1.5591    1.3186 C   0  0  0  0  0  0  0  0  0  0  0  0
   -4.3453   -3.0023    1.5381 C   0  0  0  0  0  0  0  0  0  0  0  0
   -4.7024   -3.6974    0.2461 C   0  0  0  0  0  0  0  0  0  0  0  0
   -5.9711   -3.1516   -0.2065 N   0  0  0  0  0  0  0  0  0  0  0  0
   -7.0268   -4.0501    0.1728 C   0  0  0  0  0  0  0  0  0  0  0  0
   -6.2357   -1.8604    0.3550 C   0  0  0  0  0  0  0  0  0  0  0  0
   -4.9776   -0.9806    0.3753 C   0  0  0  0  0  0  0  0  0  0  0  0
   -2.3262    0.8686    0.8221 C   0  0  0  0  0  0  0  0  0  0  0  0
   -1.6038    2.0170    0.5892 C   0  0  0  0  0  0  0  0  0  0  0  0
   -0.4018    1.8555    0.0246 N   0  0  0  0  0  0  0  0  0  0  0  0
    0.1441    0.6803   -0.3257 C   0  0  0  0  0  0  0  0  0  0  0  0
    1.3926    0.5926   -0.9004 C   0  0  0  0  0  0  0  0  0  0  0  0
    1.9686   -0.6038   -1.2610 C   0  0  0  0  0  0  0  0  0  0  0  0
    3.2368   -0.5873   -1.8351 O   0  0  0  0  0  0  0  0  0  0  0  0
    3.9247    0.6515   -2.0484 C   0  0  0  0  0  0  0  0  0  0  0  0
    5.2737    0.3290   -2.6723 C   0  0  0  0  0  0  0  0  0  0  0  0
    6.0266   -0.5498   -1.7064 C   0  0  0  0  0  0  0  0  0  0  0  0
    6.2623    0.0273   -0.4379 N   0  0  0  0  0  0  0  0  0  0  0  0
    7.1526    1.1195   -0.3513 C   0  0  0  0  0  0  0  0  0  0  0  0
    8.4850    0.5499    0.0005 C   0  0  0  0  0  0  0  0  0  0  0  0
    8.1183   -0.6198    0.8871 C   0  0  0  0  0  0  0  0  0  0  0  0
    6.7272   -0.9716    0.4732 C   0  0  0  0  0  0  0  0  0  0  0  0
   -2.0582    3.3561    0.9134 C   0  0  0  0  0  0  0  0  0  0  0  0
   -1.2961    4.4059    0.6499 C   0  0  0  0  0  0  0  0  0  0  0  0
   -1.6859    5.7941    0.9486 C   0  0  0  0  0  0  0  0  0  0  0  0
   -3.1660    6.0163    0.8960 C   0  0  0  0  0  0  0  0  0  0  0  0
   -3.9901    4.7846    0.7390 C   0  0  0  0  0  0  0  0  0  0  0  0
   -3.3669    3.6450    1.5465 C   0  0  0  0  0  0  0  0  0  0  0  0
    0.5817   -4.3060   -0.3369 H   0  0  0  0  0  0  0  0  0  0  0  0
    2.0748   -4.9418   -1.0626 H   0  0  0  0  0  0  0  0  0  0  0  0
    0.7122   -4.5827   -2.1419 H   0  0  0  0  0  0  0  0  0  0  0  0
   -0.5270   -2.5951   -0.2936 H   0  0  0  0  0  0  0  0  0  0  0  0
   -2.2040   -2.4877    0.5245 H   0  0  0  0  0  0  0  0  0  0  0  0
   -4.0030   -1.0242    2.2723 H   0  0  0  0  0  0  0  0  0  0  0  0
   -5.1773   -3.0765    2.2353 H   0  0  0  0  0  0  0  0  0  0  0  0
   -3.4838   -3.5880    1.9723 H   0  0  0  0  0  0  0  0  0  0  0  0
   -4.7678   -4.7822    0.4598 H   0  0  0  0  0  0  0  0  0  0  0  0
   -3.9074   -3.5654   -0.5301 H   0  0  0  0  0  0  0  0  0  0  0  0
   -7.8025   -3.5429    0.7992 H   0  0  0  0  0  0  0  0  0  0  0  0
   -6.6137   -4.9421    0.6825 H   0  0  0  0  0  0  0  0  0  0  0  0
   -7.4874   -4.4443   -0.7803 H   0  0  0  0  0  0  0  0  0  0  0  0
   -6.6485   -1.9097    1.3870 H   0  0  0  0  0  0  0  0  0  0  0  0
   -6.9915   -1.3550   -0.2639 H   0  0  0  0  0  0  0  0  0  0  0  0
   -4.6000   -0.8372   -0.6349 H   0  0  0  0  0  0  0  0  0  0  0  0
   -5.3588    0.0138    0.7379 H   0  0  0  0  0  0  0  0  0  0  0  0
   -3.2797    0.9389    1.2733 H   0  0  0  0  0  0  0  0  0  0  0  0
    1.9411    1.5095   -1.0738 H   0  0  0  0  0  0  0  0  0  0  0  0
    3.3319    1.3316   -2.6869 H   0  0  0  0  0  0  0  0  0  0  0  0
    4.0368    1.1042   -1.0425 H   0  0  0  0  0  0  0  0  0  0  0  0
    5.8124    1.2208   -2.9906 H   0  0  0  0  0  0  0  0  0  0  0  0
    5.0826   -0.2821   -3.5798 H   0  0  0  0  0  0  0  0  0  0  0  0
    6.9764   -0.8400   -2.1999 H   0  0  0  0  0  0  0  0  0  0  0  0
    5.4319   -1.4773   -1.5732 H   0  0  0  0  0  0  0  0  0  0  0  0
    7.1652    1.7985   -1.2181 H   0  0  0  0  0  0  0  0  0  0  0  0
    6.8209    1.7595    0.5199 H   0  0  0  0  0  0  0  0  0  0  0  0
    9.1127    1.2499    0.6215 H   0  0  0  0  0  0  0  0  0  0  0  0
    9.0503    0.1766   -0.8743 H   0  0  0  0  0  0  0  0  0  0  0  0
    8.8312   -1.4743    0.7344 H   0  0  0  0  0  0  0  0  0  0  0  0
    8.1526   -0.3598    1.9653 H   0  0  0  0  0  0  0  0  0  0  0  0
    6.7586   -1.9930    0.0165 H   0  0  0  0  0  0  0  0  0  0  0  0
    6.0347   -1.0801    1.3536 H   0  0  0  0  0  0  0  0  0  0  0  0
   -0.3401    4.2328    0.1924 H   0  0  0  0  0  0  0  0  0  0  0  0
   -1.3169    6.0322    1.9893 H   0  0  0  0  0  0  0  0  0  0  0  0
   -1.1306    6.4821    0.2850 H   0  0  0  0  0  0  0  0  0  0  0  0
   -3.5220    6.5995    1.7732 H   0  0  0  0  0  0  0  0  0  0  0  0
   -3.3588    6.6901    0.0122 H   0  0  0  0  0  0  0  0  0  0  0  0
   -5.0081    4.9870    1.1376 H   0  0  0  0  0  0  0  0  0  0  0  0
   -4.0309    4.4283   -0.3217 H   0  0  0  0  0  0  0  0  0  0  0  0
   -4.0354    2.7890    1.6198 H   0  0  0  0  0  0  0  0  0  0  0  0
   -3.1279    4.0800    2.5581 H   0  0  0  0  0  0  0  0  0  0  0  0
  1  2  1  0
  2  3  1  0
  3  4  2  0
  4  5  1  0
  5  6  2  0
  6  7  1  0
  7  8  1  0
  8  9  1  0
  9 10  1  0
 10 11  1  0
 11 12  1  0
 11 13  1  0
 13 14  1  0
  6 15  1  0
 15 16  2  0
 16 17  1  0
 17 18  2  0
 18 19  1  0
 19 20  2  0
 20 21  1  0
 21 22  1  0
 22 23  1  0
 23 24  1  0
 24 25  1  0
 25 26  1  0
 26 27  1  0
 27 28  1  0
 28 29  1  0
 16 30  1  0
 30 31  2  0
 31 32  1  0
 32 33  1  0
 33 34  1  0
 34 35  1  0
 20  3  1  0
 29 25  1  0
 35 30  1  0
 18  5  1  0
 14  8  1  0
  1 36  1  0
  1 37  1  0
  1 38  1  0
  4 39  1  0
  7 40  1  0
  8 41  1  0
  9 42  1  0
  9 43  1  0
 10 44  1  0
 10 45  1  0
 12 46  1  0
 12 47  1  0
 12 48  1  0
 13 49  1  0
 13 50  1  0
 14 51  1  0
 14 52  1  0
 15 53  1  0
 19 54  1  0
 22 55  1  0
 22 56  1  0
 23 57  1  0
 23 58  1  0
 24 59  1  0
 24 60  1  0
 26 61  1  0
 26 62  1  0
 27 63  1  0
 27 64  1  0
 28 65  1  0
 28 66  1  0
 29 67  1  0
 29 68  1  0
 31 69  1  0
 32 70  1  0
 32 71  1  0
 33 72  1  0
 33 73  1  0
 34 74  1  0
 34 75  1  0
 35 76  1  0
 35 77  1  0
M  END
$$$$
[H]c1c(OC([H])([H])C([H])([H])C([H])([H])N2C([H])([H])C([H])([H])C([H])([H])C([H])([H])C2([H])[H])c(OC([H])([H])[H])c([H])c2c(N([H])C3([H])C([H])([H])C([H])([H])N(C([H])(C([H])([H])[H])C([H])([H])[H])C([H])([H])C3([H])[H])nc(N3C([H])([H])C([H])([H])N(C([H])(C([H])([H])[H])C([H])([H])[H])C([H])([H])C([H])([H])C3([H])[H])nc12
     RDKit          3D

 97101  0  0  0  0  0  0  0  0999 V2000
    2.3979    4.3020   -0.5628 C   0  0  0  0  0  0  0  0  0  0  0  0
    2.8945    3.0265   -0.2028 O   0  0  0  0  0  0  0  0  0  0  0  0
    2.0765    1.9344   -0.1012 C   0  0  0  0  0  0  0  0  0  0  0  0
    0.7280    2.0854   -0.3571 C   0  0  0  0  0  0  0  0  0  0  0  0
   -0.1317    1.0209   -0.2699 C   0  0  0  0  0  0  0  0  0  0  0  0
   -1.4803    1.1590   -0.5202 C   0  0  0  0  0  0  0  0  0  0  0  0
   -2.0466    2.3909   -0.8890 N   0  0  0  0  0  0  0  0  0  0  0  0
   -3.4694    2.4795   -1.1276 C   0  0  0  0  0  0  0  0  0  0  0  0
   -4.2457    2.1765    0.1005 C   0  0  0  0  0  0  0  0  0  0  0  0
   -5.3687    3.1084    0.4270 C   0  0  0  0  0  0  0  0  0  0  0  0
   -5.0450    4.4833    0.3124 N   0  0  0  0  0  0  0  0  0  0  0  0
   -4.0692    4.8146   -0.6600 C   0  0  0  0  0  0  0  0  0  0  0  0
   -3.8868    3.7712   -1.7218 C   0  0  0  0  0  0  0  0  0  0  0  0
   -6.1038    5.3983    0.5087 C   0  0  0  0  0  0  0  0  0  0  0  0
   -6.6079    5.2452    1.9423 C   0  0  0  0  0  0  0  0  0  0  0  0
   -5.7077    6.8162    0.2942 C   0  0  0  0  0  0  0  0  0  0  0  0
   -2.2549    0.0383   -0.4035 N   0  0  0  0  0  0  0  0  0  0  0  0
   -1.7531   -1.1490   -0.0638 C   0  0  0  0  0  0  0  0  0  0  0  0
   -0.4490   -1.2538    0.1726 N   0  0  0  0  0  0  0  0  0  0  0  0
    0.3840   -0.2317    0.0863 C   0  0  0  0  0  0  0  0  0  0  0  0
    1.7322   -0.3546    0.3365 C   0  0  0  0  0  0  0  0  0  0  0  0
    2.6302    0.7151    0.2541 C   0  0  0  0  0  0  0  0  0  0  0  0
    3.8708    0.5551    0.4955 O   0  0  0  0  0  0  0  0  0  0  0  0
    5.1272    0.3010    0.7596 C   0  0  0  0  0  0  0  0  0  0  0  0
    5.7441   -0.7376   -0.1496 C   0  0  0  0  0  0  0  0  0  0  0  0
    7.1740   -0.9812    0.1277 C   0  0  0  0  0  0  0  0  0  0  0  0
    7.4908   -1.4323    1.4386 N   0  0  0  0  0  0  0  0  0  0  0  0
    8.8400   -2.0915    1.2568 C   0  0  0  0  0  0  0  0  0  0  0  0
    9.7775   -1.1644    0.5647 C   0  0  0  0  0  0  0  0  0  0  0  0
    9.9729    0.1369    1.3103 C   0  0  0  0  0  0  0  0  0  0  0  0
    8.6996    0.6962    1.8462 C   0  0  0  0  0  0  0  0  0  0  0  0
    7.8322   -0.3840    2.3926 C   0  0  0  0  0  0  0  0  0  0  0  0
   -2.5240   -2.3309    0.0534 N   0  0  0  0  0  0  0  0  0  0  0  0
   -3.8795   -2.2166   -0.4080 C   0  0  0  0  0  0  0  0  0  0  0  0
   -4.7512   -3.1452    0.4049 C   0  0  0  0  0  0  0  0  0  0  0  0
   -4.4902   -4.5922    0.1135 C   0  0  0  0  0  0  0  0  0  0  0  0
   -3.3926   -4.8271   -0.7649 N   0  0  0  0  0  0  0  0  0  0  0  0
   -2.0925   -4.7305   -0.1765 C   0  0  0  0  0  0  0  0  0  0  0  0
   -1.8714   -3.4855    0.6135 C   0  0  0  0  0  0  0  0  0  0  0  0
   -3.5381   -6.0250   -1.5668 C   0  0  0  0  0  0  0  0  0  0  0  0
   -3.6048   -7.2742   -0.7566 C   0  0  0  0  0  0  0  0  0  0  0  0
   -2.3213   -6.1508   -2.4926 C   0  0  0  0  0  0  0  0  0  0  0  0
    1.5385    4.6217    0.0574 H   0  0  0  0  0  0  0  0  0  0  0  0
    3.2675    5.0156   -0.4918 H   0  0  0  0  0  0  0  0  0  0  0  0
    2.1263    4.2793   -1.6551 H   0  0  0  0  0  0  0  0  0  0  0  0
    0.3474    3.0781   -0.6352 H   0  0  0  0  0  0  0  0  0  0  0  0
   -1.4961    3.2409   -1.0009 H   0  0  0  0  0  0  0  0  0  0  0  0
   -3.7465    1.6756   -1.8810 H   0  0  0  0  0  0  0  0  0  0  0  0
   -3.5210    2.2617    0.9710 H   0  0  0  0  0  0  0  0  0  0  0  0
   -4.5584    1.1099    0.1321 H   0  0  0  0  0  0  0  0  0  0  0  0
   -6.2141    2.8770   -0.2516 H   0  0  0  0  0  0  0  0  0  0  0  0
   -5.7287    2.9143    1.4580 H   0  0  0  0  0  0  0  0  0  0  0  0
   -4.3401    5.7598   -1.1718 H   0  0  0  0  0  0  0  0  0  0  0  0
   -3.0916    4.9877   -0.1659 H   0  0  0  0  0  0  0  0  0  0  0  0
   -4.8555    3.6388   -2.2475 H   0  0  0  0  0  0  0  0  0  0  0  0
   -3.1715    4.1759   -2.4697 H   0  0  0  0  0  0  0  0  0  0  0  0
   -6.9353    5.1484   -0.1810 H   0  0  0  0  0  0  0  0  0  0  0  0
   -5.7204    5.1536    2.5907 H   0  0  0  0  0  0  0  0  0  0  0  0
   -7.2702    6.0915    2.1721 H   0  0  0  0  0  0  0  0  0  0  0  0
   -7.1427    4.2657    1.9966 H   0  0  0  0  0  0  0  0  0  0  0  0
   -4.7069    7.0449    0.7376 H   0  0  0  0  0  0  0  0  0  0  0  0
   -6.4139    7.4505    0.9075 H   0  0  0  0  0  0  0  0  0  0  0  0
   -5.8027    7.1412   -0.7473 H   0  0  0  0  0  0  0  0  0  0  0  0
    2.1332   -1.3190    0.6133 H   0  0  0  0  0  0  0  0  0  0  0  0
    5.8519    1.1514    0.7594 H   0  0  0  0  0  0  0  0  0  0  0  0
    5.1688   -0.1231    1.8339 H   0  0  0  0  0  0  0  0  0  0  0  0
    5.5775   -0.3303   -1.1922 H   0  0  0  0  0  0  0  0  0  0  0  0
    5.1227   -1.6731   -0.0990 H   0  0  0  0  0  0  0  0  0  0  0  0
    7.5219   -1.7384   -0.6533 H   0  0  0  0  0  0  0  0  0  0  0  0
    7.7509   -0.0604   -0.1626 H   0  0  0  0  0  0  0  0  0  0  0  0
    9.1601   -2.3965    2.2512 H   0  0  0  0  0  0  0  0  0  0  0  0
    8.6446   -2.9654    0.6170 H   0  0  0  0  0  0  0  0  0  0  0  0
    9.5181   -1.0219   -0.4844 H   0  0  0  0  0  0  0  0  0  0  0  0
   10.7815   -1.6592    0.5733 H   0  0  0  0  0  0  0  0  0  0  0  0
   10.3552    0.8700    0.5468 H   0  0  0  0  0  0  0  0  0  0  0  0
   10.7235    0.0506    2.0979 H   0  0  0  0  0  0  0  0  0  0  0  0
    8.1960    1.4043    1.1724 H   0  0  0  0  0  0  0  0  0  0  0  0
    8.9888    1.3350    2.7381 H   0  0  0  0  0  0  0  0  0  0  0  0
    8.4943   -0.9252    3.1567 H   0  0  0  0  0  0  0  0  0  0  0  0
    7.0282    0.0178    2.9836 H   0  0  0  0  0  0  0  0  0  0  0  0
   -3.8832   -2.5462   -1.4724 H   0  0  0  0  0  0  0  0  0  0  0  0
   -4.3214   -1.2131   -0.2959 H   0  0  0  0  0  0  0  0  0  0  0  0
   -5.8137   -2.8460    0.1723 H   0  0  0  0  0  0  0  0  0  0  0  0
   -4.6089   -2.9707    1.4768 H   0  0  0  0  0  0  0  0  0  0  0  0
   -5.4120   -4.9864   -0.4034 H   0  0  0  0  0  0  0  0  0  0  0  0
   -4.4471   -5.2001    1.0633 H   0  0  0  0  0  0  0  0  0  0  0  0
   -1.3572   -4.7101   -1.0322 H   0  0  0  0  0  0  0  0  0  0  0  0
   -1.8106   -5.5975    0.4320 H   0  0  0  0  0  0  0  0  0  0  0  0
   -2.1302   -3.6209    1.7049 H   0  0  0  0  0  0  0  0  0  0  0  0
   -0.7514   -3.3240    0.6411 H   0  0  0  0  0  0  0  0  0  0  0  0
   -4.4441   -5.9612   -2.2000 H   0  0  0  0  0  0  0  0  0  0  0  0
   -3.2098   -8.1131   -1.3973 H   0  0  0  0  0  0  0  0  0  0  0  0
   -4.6440   -7.5778   -0.5145 H   0  0  0  0  0  0  0  0  0  0  0  0
   -2.9489   -7.2678    0.1464 H   0  0  0  0  0  0  0  0  0  0  0  0
   -2.0954   -5.2163   -3.0121 H   0  0  0  0  0  0  0  0  0  0  0  0
   -2.5409   -6.9482   -3.2413 H   0  0  0  0  0  0  0  0  0  0  0  0
   -1.4498   -6.5461   -1.8946 H   0  0  0  0  0  0  0  0  0  0  0  0
  1  2  1  0
  2  3  1  0
  3  4  2  0
  4  5  1  0
  5  6  2  0
  6  7  1  0
  7  8  1  0
  8  9  1  0
  9 10  1  0
 10 11  1  0
 11 12  1  0
 12 13  1  0
 11 14  1  0
 14 15  1  0
 14 16  1  0
  6 17  1  0
 17 18  2  0
 18 19  1  0
 19 20  2  0
 20 21  1  0
 21 22  2  0
 22 23  1  0
 23 24  1  0
 24 25  1  0
 25 26  1  0
 26 27  1  0
 27 28  1  0
 28 29  1  0
 29 30  1  0
 30 31  1  0
 31 32  1  0
 18 33  1  0
 33 34  1  0
 34 35  1  0
 35 36  1  0
 36 37  1  0
 37 38  1  0
 38 39  1  0
 37 40  1  0
 40 41  1  0
 40 42  1  0
 22  3  1  0
 32 27  1  0
 39 33  1  0
 20  5  1  0
 13  8  1  0
  1 43  1  0
  1 44  1  0
  1 45  1  0
  4 46  1  0
  7 47  1  0
  8 48  1  0
  9 49  1  0
  9 50  1  0
 10 51  1  0
 10 52  1  0
 12 53  1  0
 12 54  1  0
 13 55  1  0
 13 56  1  0
 14 57  1  0
 15 58  1  0
 15 59  1  0
 15 60  1  0
 16 61  1  0
 16 62  1  0
 16 63  1  0
 21 64  1  0
 24 65  1  0
 24 66  1  0
 25 67  1  0
 25 68  1  0
 26 69  1  0
 26 70  1  0
 28 71  1  0
 28 72  1  0
 29 73  1  0
 29 74  1  0
 30 75  1  0
 30 76  1  0
 31 77  1  0
 31 78  1  0
 32 79  1  0
 32 80  1  0
 34 81  1  0
 34 82  1  0
 35 83  1  0
 35 84  1  0
 36 85  1  0
 36 86  1  0
 38 87  1  0
 38 88  1  0
 39 89  1  0
 39 90  1  0
 40 91  1  0
 41 92  1  0
 41 93  1  0
 41 94  1  0
 42 95  1  0
 42 96  1  0
 42 97  1  0
M  END
$$$$
[H]c1c(OC([H])([H])C([H])([H])C([H])([H])N2C([H])([H])C([H])([H])C([H])([H])C2([H])[H])c(OC([H])([H])[H])c([H])c2c(N([H])C3([H])C([H])([H])C([H])([H])N(C([H])(C([H])([H])[H])C([H])([H])[H])C([H])([H])C3([H])[H])nc(N3C([H])([H])C([H])([H])N(C([H])([H])C4([H])C([H])([H])C([H])([H])C([H])([H])C([H])([H])C4([H])[H])C([H])([H])C([H])([H])C3([H])[H])nc12
     RDKit          3D

104109  0  0  0  0  0  0  0  0999 V2000
   -6.1585    1.5724   -0.4281 C   0  0  0  0  0  0  0  0  0  0  0  0
   -5.6757    0.2838   -0.0781 O   0  0  0  0  0  0  0  0  0  0  0  0
   -4.3366    0.0616    0.2186 C   0  0  0  0  0  0  0  0  0  0  0  0
   -3.4507    1.1220    0.1744 C   0  0  0  0  0  0  0  0  0  0  0  0
   -2.1159    0.9421    0.4613 C   0  0  0  0  0  0  0  0  0  0  0  0
   -1.1974    1.9610    0.4314 C   0  0  0  0  0  0  0  0  0  0  0  0
   -1.5551    3.2728    0.1031 N   0  0  0  0  0  0  0  0  0  0  0  0
   -0.6764    4.4150    0.0348 C   0  0  0  0  0  0  0  0  0  0  0  0
    0.4233    4.2878   -0.9652 C   0  0  0  0  0  0  0  0  0  0  0  0
    1.1612    5.6131   -1.0636 C   0  0  0  0  0  0  0  0  0  0  0  0
    0.6059    6.5349   -0.1165 N   0  0  0  0  0  0  0  0  0  0  0  0
    0.5947    6.0835    1.2409 C   0  0  0  0  0  0  0  0  0  0  0  0
   -0.0604    4.6964    1.3821 C   0  0  0  0  0  0  0  0  0  0  0  0
    1.2439    7.8224   -0.1497 C   0  0  0  0  0  0  0  0  0  0  0  0
    1.0857    8.5287   -1.4664 C   0  0  0  0  0  0  0  0  0  0  0  0
    0.6740    8.6810    0.9624 C   0  0  0  0  0  0  0  0  0  0  0  0
    0.0669    1.6572    0.7302 N   0  0  0  0  0  0  0  0  0  0  0  0
    0.4910    0.4168    1.0571 C   0  0  0  0  0  0  0  0  0  0  0  0
   -0.4320   -0.5592    1.0774 N   0  0  0  0  0  0  0  0  0  0  0  0
   -1.7371   -0.3652    0.7927 C   0  0  0  0  0  0  0  0  0  0  0  0
   -2.6307   -1.4184    0.8340 C   0  0  0  0  0  0  0  0  0  0  0  0
   -3.9620   -1.2347    0.5470 C   0  0  0  0  0  0  0  0  0  0  0  0
   -4.9236   -2.2332    0.5644 O   0  0  0  0  0  0  0  0  0  0  0  0
   -4.5458   -3.5516    0.8931 C   0  0  0  0  0  0  0  0  0  0  0  0
   -5.7861   -4.4418    0.8407 C   0  0  0  0  0  0  0  0  0  0  0  0
   -6.3598   -4.3917   -0.5427 C   0  0  0  0  0  0  0  0  0  0  0  0
   -7.5324   -5.2098   -0.6127 N   0  0  0  0  0  0  0  0  0  0  0  0
   -8.1460   -5.1690   -1.9148 C   0  0  0  0  0  0  0  0  0  0  0  0
   -7.8062   -6.4725   -2.5699 C   0  0  0  0  0  0  0  0  0  0  0  0
   -7.8196   -7.4232   -1.3698 C   0  0  0  0  0  0  0  0  0  0  0  0
   -7.2194   -6.5637   -0.2666 C   0  0  0  0  0  0  0  0  0  0  0  0
    1.8685    0.1640    1.3720 N   0  0  0  0  0  0  0  0  0  0  0  0
    2.6526    1.3616    1.3711 C   0  0  0  0  0  0  0  0  0  0  0  0
    4.0710    1.2489    1.7125 C   0  0  0  0  0  0  0  0  0  0  0  0
    4.7410   -0.0834    1.4582 C   0  0  0  0  0  0  0  0  0  0  0  0
    4.2652   -0.7750    0.3378 N   0  0  0  0  0  0  0  0  0  0  0  0
    5.0757   -1.1169   -0.7326 C   0  0  0  0  0  0  0  0  0  0  0  0
    6.0234   -2.2524   -0.5220 C   0  0  0  0  0  0  0  0  0  0  0  0
    7.0250   -2.1037    0.5546 C   0  0  0  0  0  0  0  0  0  0  0  0
    7.7541   -3.4697    0.7022 C   0  0  0  0  0  0  0  0  0  0  0  0
    8.5421   -3.6927   -0.5573 C   0  0  0  0  0  0  0  0  0  0  0  0
    7.5272   -3.7870   -1.7041 C   0  0  0  0  0  0  0  0  0  0  0  0
    6.7861   -2.4988   -1.8443 C   0  0  0  0  0  0  0  0  0  0  0  0
    3.1551   -1.6618    0.5757 C   0  0  0  0  0  0  0  0  0  0  0  0
    2.1992   -1.2139    1.6226 C   0  0  0  0  0  0  0  0  0  0  0  0
   -7.2724    1.4838   -0.5182 H   0  0  0  0  0  0  0  0  0  0  0  0
   -5.8790    2.2576    0.3905 H   0  0  0  0  0  0  0  0  0  0  0  0
   -5.6854    1.8403   -1.3849 H   0  0  0  0  0  0  0  0  0  0  0  0
   -3.7939    2.1010   -0.0861 H   0  0  0  0  0  0  0  0  0  0  0  0
   -2.5649    3.4798   -0.1239 H   0  0  0  0  0  0  0  0  0  0  0  0
   -1.2554    5.3485   -0.2145 H   0  0  0  0  0  0  0  0  0  0  0  0
    1.1365    3.5150   -0.6238 H   0  0  0  0  0  0  0  0  0  0  0  0
    0.0380    3.9628   -1.9593 H   0  0  0  0  0  0  0  0  0  0  0  0
    2.2399    5.4554   -0.9176 H   0  0  0  0  0  0  0  0  0  0  0  0
    0.9329    6.0245   -2.0793 H   0  0  0  0  0  0  0  0  0  0  0  0
    1.6467    6.0396    1.6141 H   0  0  0  0  0  0  0  0  0  0  0  0
   -0.0093    6.7774    1.8440 H   0  0  0  0  0  0  0  0  0  0  0  0
   -0.8607    4.7131    2.1477 H   0  0  0  0  0  0  0  0  0  0  0  0
    0.7221    3.9591    1.5765 H   0  0  0  0  0  0  0  0  0  0  0  0
    2.3474    7.7465    0.0683 H   0  0  0  0  0  0  0  0  0  0  0  0
    1.9875    8.5142   -2.0968 H   0  0  0  0  0  0  0  0  0  0  0  0
    0.1863    8.1012   -1.9622 H   0  0  0  0  0  0  0  0  0  0  0  0
    0.8602    9.5961   -1.2658 H   0  0  0  0  0  0  0  0  0  0  0  0
   -0.4299    8.6090    1.0178 H   0  0  0  0  0  0  0  0  0  0  0  0
    1.1446    8.4481    1.9476 H   0  0  0  0  0  0  0  0  0  0  0  0
    0.9302    9.7306    0.7107 H   0  0  0  0  0  0  0  0  0  0  0  0
   -2.3156   -2.4164    1.0913 H   0  0  0  0  0  0  0  0  0  0  0  0
   -3.7978   -3.9390    0.1723 H   0  0  0  0  0  0  0  0  0  0  0  0
   -4.0943   -3.6130    1.9230 H   0  0  0  0  0  0  0  0  0  0  0  0
   -6.4723   -4.0480    1.6117 H   0  0  0  0  0  0  0  0  0  0  0  0
   -5.4596   -5.4344    1.1762 H   0  0  0  0  0  0  0  0  0  0  0  0
   -5.6022   -4.8392   -1.2291 H   0  0  0  0  0  0  0  0  0  0  0  0
   -6.5711   -3.3459   -0.8587 H   0  0  0  0  0  0  0  0  0  0  0  0
   -9.2386   -5.0495   -1.7623 H   0  0  0  0  0  0  0  0  0  0  0  0
   -7.7048   -4.2992   -2.4503 H   0  0  0  0  0  0  0  0  0  0  0  0
   -8.5100   -6.7908   -3.3441 H   0  0  0  0  0  0  0  0  0  0  0  0
   -6.7620   -6.3996   -2.9535 H   0  0  0  0  0  0  0  0  0  0  0  0
   -7.1981   -8.3048   -1.5295 H   0  0  0  0  0  0  0  0  0  0  0  0
   -8.8619   -7.6227   -1.0670 H   0  0  0  0  0  0  0  0  0  0  0  0
   -6.1348   -6.7531   -0.1880 H   0  0  0  0  0  0  0  0  0  0  0  0
   -7.6709   -6.8079    0.7257 H   0  0  0  0  0  0  0  0  0  0  0  0
    2.5490    1.8277    0.3553 H   0  0  0  0  0  0  0  0  0  0  0  0
    2.1137    2.0743    2.0609 H   0  0  0  0  0  0  0  0  0  0  0  0
    4.6913    2.0348    1.2270 H   0  0  0  0  0  0  0  0  0  0  0  0
    4.1822    1.4367    2.8211 H   0  0  0  0  0  0  0  0  0  0  0  0
    4.7622   -0.7121    2.3677 H   0  0  0  0  0  0  0  0  0  0  0  0
    5.8131    0.2024    1.2658 H   0  0  0  0  0  0  0  0  0  0  0  0
    4.3866   -1.4531   -1.5809 H   0  0  0  0  0  0  0  0  0  0  0  0
    5.6084   -0.2337   -1.2087 H   0  0  0  0  0  0  0  0  0  0  0  0
    5.4565   -3.2351   -0.3986 H   0  0  0  0  0  0  0  0  0  0  0  0
    6.6174   -1.8630    1.5664 H   0  0  0  0  0  0  0  0  0  0  0  0
    7.8156   -1.3895    0.2408 H   0  0  0  0  0  0  0  0  0  0  0  0
    8.3946   -3.4195    1.6028 H   0  0  0  0  0  0  0  0  0  0  0  0
    6.9888   -4.2476    0.7760 H   0  0  0  0  0  0  0  0  0  0  0  0
    9.2122   -2.8343   -0.8066 H   0  0  0  0  0  0  0  0  0  0  0  0
    9.0653   -4.6582   -0.5248 H   0  0  0  0  0  0  0  0  0  0  0  0
    6.8717   -4.6519   -1.5505 H   0  0  0  0  0  0  0  0  0  0  0  0
    8.1341   -3.9908   -2.6105 H   0  0  0  0  0  0  0  0  0  0  0  0
    6.0574   -2.6018   -2.6735 H   0  0  0  0  0  0  0  0  0  0  0  0
    7.5070   -1.6889   -2.0160 H   0  0  0  0  0  0  0  0  0  0  0  0
    3.4673   -2.7179    0.7678 H   0  0  0  0  0  0  0  0  0  0  0  0
    2.5788   -1.7013   -0.3959 H   0  0  0  0  0  0  0  0  0  0  0  0
    2.5222   -1.4065    2.6658 H   0  0  0  0  0  0  0  0  0  0  0  0
    1.2717   -1.8484    1.4978 H   0  0  0  0  0  0  0  0  0  0  0  0
  1  2  1  0
  2  3  1  0
  3  4  2  0
  4  5  1  0
  5  6  2  0
  6  7  1  0
  7  8  1  0
  8  9  1  0
  9 10  1  0
 10 11  1  0
 11 12  1  0
 12 13  1  0
 11 14  1  0
 14 15  1  0
 14 16  1  0
  6 17  1  0
 17 18  2  0
 18 19  1  0
 19 20  2  0
 20 21  1  0
 21 22  2  0
 22 23  1  0
 23 24  1  0
 24 25  1  0
 25 26  1  0
 26 27  1  0
 27 28  1  0
 28 29  1  0
 29 30  1  0
 30 31  1  0
 18 32  1  0
 32 33  1  0
 33 34  1  0
 34 35  1  0
 35 36  1  0
 36 37  1  0
 37 38  1  0
 38 39  1  0
 39 40  1  0
 40 41  1  0
 41 42  1  0
 42 43  1  0
 36 44  1  0
 44 45  1  0
 22  3  1  0
 31 27  1  0
 45 32  1  0
 20  5  1  0
 43 38  1  0
 13  8  1  0
  1 46  1  0
  1 47  1  0
  1 48  1  0
  4 49  1  0
  7 50  1  0
  8 51  1  0
  9 52  1  0
  9 53  1  0
 10 54  1  0
 10 55  1  0
 12 56  1  0
 12 57  1  0
 13 58  1  0
 13 59  1  0
 14 60  1  0
 15 61  1  0
 15 62  1  0
 15 63  1  0
 16 64  1  0
 16 65  1  0
 16 66  1  0
 21 67  1  0
 24 68  1  0
 24 69  1  0
 25 70  1  0
 25 71  1  0
 26 72  1  0
 26 73  1  0
 28 74  1  0
 28 75  1  0
 29 76  1  0
 29 77  1  0
 30 78  1  0
 30 79  1  0
 31 80  1  0
 31 81  1  0
 33 82  1  0
 33 83  1  0
 34 84  1  0
 34 85  1  0
 35 86  1  0
 35 87  1  0
 37 88  1  0
 37 89  1  0
 38 90  1  0
 39 91  1  0
 39 92  1  0
 40 93  1  0
 40 94  1  0
 41 95  1  0
 41 96  1  0
 42 97  1  0
 42 98  1  0
 43 99  1  0
 43100  1  0
 44101  1  0
 44102  1  0
 45103  1  0
 45104  1  0
M  END
$$$$
