[H]OC([H])([H])[C@@]1(O[H])C([H])([H])[C@@]2([H])O[C@]1(C([H])([H])[H])n1c3c([H])c([H])c([H])c([H])c3c3c4c(c5c6c([H])c([H])c([H])c([H])c6n2c5c31)C(=O)N([H])C4([H])[H]
     RDKit          3D

 54 61  0  0  0  0  0  0  0  0999 V2000
    3.1800    0.8838    1.3878 C   0  0  0  0  0  0  0  0  0  0  0  0
    2.1176    0.2237    0.5774 C   0  0  2  0  0  0  0  0  0  0  0  0
    1.6968   -0.7870    1.4854 O   0  0  0  0  0  0  0  0  0  0  0  0
    1.2511   -1.8639    0.7986 C   0  0  2  0  0  0  0  0  0  0  0  0
    2.0328   -1.9517   -0.4419 C   0  0  0  0  0  0  0  0  0  0  0  0
    2.6347   -0.5714   -0.5849 C   0  0  1  0  0  0  0  0  0  0  0  0
    2.2138   -0.0799   -1.8115 O   0  0  0  0  0  0  0  0  0  0  0  0
    4.1191   -0.7109   -0.6110 C   0  0  0  0  0  0  0  0  0  0  0  0
    4.4589   -1.5975   -1.6334 O   0  0  0  0  0  0  0  0  0  0  0  0
   -0.2014   -1.7853    0.5955 N   0  0  0  0  0  0  0  0  0  0  0  0
   -1.1044   -2.7499    0.6347 C   0  0  0  0  0  0  0  0  0  0  0  0
   -0.9179   -4.0868    0.8734 C   0  0  0  0  0  0  0  0  0  0  0  0
   -2.0299   -4.9199    0.8648 C   0  0  0  0  0  0  0  0  0  0  0  0
   -3.2823   -4.4161    0.6235 C   0  0  0  0  0  0  0  0  0  0  0  0
   -3.4758   -3.0511    0.3794 C   0  0  0  0  0  0  0  0  0  0  0  0
   -2.3768   -2.2421    0.3902 C   0  0  0  0  0  0  0  0  0  0  0  0
   -2.2053   -0.8905    0.1945 C   0  0  0  0  0  0  0  0  0  0  0  0
   -3.0670    0.1511   -0.0975 C   0  0  0  0  0  0  0  0  0  0  0  0
   -4.5001    0.2660   -0.2996 C   0  0  0  0  0  0  0  0  0  0  0  0
   -5.3884   -0.5871   -0.2658 O   0  0  0  0  0  0  0  0  0  0  0  0
   -4.7851    1.6416   -0.5724 N   0  0  0  0  0  0  0  0  0  0  0  0
   -3.5735    2.4248   -0.5610 C   0  0  0  0  0  0  0  0  0  0  0  0
   -2.5314    1.4168   -0.2472 C   0  0  0  0  0  0  0  0  0  0  0  0
   -1.1701    1.6669   -0.1133 C   0  0  0  0  0  0  0  0  0  0  0  0
   -0.3770    2.7657   -0.2198 C   0  0  0  0  0  0  0  0  0  0  0  0
   -0.7006    4.0705   -0.5126 C   0  0  0  0  0  0  0  0  0  0  0  0
    0.3203    5.0230   -0.5829 C   0  0  0  0  0  0  0  0  0  0  0  0
    1.6233    4.6180   -0.3553 C   0  0  0  0  0  0  0  0  0  0  0  0
    1.9232    3.2989   -0.0625 C   0  0  0  0  0  0  0  0  0  0  0  0
    0.9354    2.3466    0.0129 C   0  0  0  0  0  0  0  0  0  0  0  0
    0.9590    1.0103    0.2643 N   0  0  0  0  0  0  0  0  0  0  0  0
   -0.3578    0.6223    0.1746 C   0  0  0  0  0  0  0  0  0  0  0  0
   -0.8544   -0.6533    0.3299 C   0  0  0  0  0  0  0  0  0  0  0  0
    4.0624    1.2462    0.8471 H   0  0  0  0  0  0  0  0  0  0  0  0
    3.5596    0.1949    2.1815 H   0  0  0  0  0  0  0  0  0  0  0  0
    2.7312    1.7230    1.9466 H   0  0  0  0  0  0  0  0  0  0  0  0
    1.4219   -2.7643    1.4120 H   0  0  0  0  0  0  0  0  0  0  0  0
    1.4720   -2.2700   -1.3403 H   0  0  0  0  0  0  0  0  0  0  0  0
    2.8377   -2.7359   -0.3258 H   0  0  0  0  0  0  0  0  0  0  0  0
    2.8799   -0.3390   -2.4928 H   0  0  0  0  0  0  0  0  0  0  0  0
    4.5238   -1.1579    0.3296 H   0  0  0  0  0  0  0  0  0  0  0  0
    4.6358    0.2581   -0.8438 H   0  0  0  0  0  0  0  0  0  0  0  0
    4.7979   -2.4633   -1.2908 H   0  0  0  0  0  0  0  0  0  0  0  0
    0.0592   -4.4684    1.0598 H   0  0  0  0  0  0  0  0  0  0  0  0
   -1.8569   -5.9719    1.0560 H   0  0  0  0  0  0  0  0  0  0  0  0
   -4.1224   -5.0759    0.6219 H   0  0  0  0  0  0  0  0  0  0  0  0
   -4.4721   -2.7398    0.2018 H   0  0  0  0  0  0  0  0  0  0  0  0
   -5.7336    2.0654   -0.7610 H   0  0  0  0  0  0  0  0  0  0  0  0
   -3.6366    3.2333    0.1993 H   0  0  0  0  0  0  0  0  0  0  0  0
   -3.3846    2.8954   -1.5673 H   0  0  0  0  0  0  0  0  0  0  0  0
   -1.7294    4.3700   -0.6881 H   0  0  0  0  0  0  0  0  0  0  0  0
    0.0587    6.0490   -0.8135 H   0  0  0  0  0  0  0  0  0  0  0  0
    2.3774    5.3965   -0.4223 H   0  0  0  0  0  0  0  0  0  0  0  0
    2.9510    3.0689    0.0761 H   0  0  0  0  0  0  0  0  0  0  0  0
  2  1  1  1
  2  3  1  0
  3  4  1  0
  4  5  1  0
  5  6  1  0
  6  7  1  6
  6  8  1  0
  8  9  1  0
  4 10  1  0
 10 11  1  0
 11 12  2  0
 12 13  1  0
 13 14  2  0
 14 15  1  0
 15 16  2  0
 16 17  1  0
 17 18  2  0
 18 19  1  0
 19 20  2  0
 19 21  1  0
 21 22  1  0
 22 23  1  0
 23 24  2  0
 24 25  1  0
 25 26  2  0
 26 27  1  0
 27 28  2  0
 28 29  1  0
 29 30  2  0
 30 31  1  0
 31 32  1  0
 32 33  2  0
  6  2  1  0
 33 10  1  0
 31  2  1  0
 16 11  1  0
 33 17  1  0
 23 18  1  0
 32 24  1  0
 30 25  1  0
  1 34  1  0
  1 35  1  0
  1 36  1  0
  4 37  1  1
  5 38  1  0
  5 39  1  0
  7 40  1  0
  8 41  1  0
  8 42  1  0
  9 43  1  0
 12 44  1  0
 13 45  1  0
 14 46  1  0
 15 47  1  0
 21 48  1  0
 22 49  1  0
 22 50  1  0
 26 51  1  0
 27 52  1  0
 28 53  1  0
 29 54  1  0
M  END
$$$$
[H]OC([H])([H])[C@@]1(O[H])C([H])([H])[C@@]2([H])O[C@]1(C([H])([H])[H])n1c3c([H])c([H])c([H])c([H])c3c3c4c(c5c6c([H])c([H])c([H])c([H])c6n2c5c31)C(=O)N([H])C4=O
     RDKit          3D

 53 60  0  0  0  0  0  0  0  0999 V2000
   -3.2536   -0.3191   -1.3077 C   0  0  0  0  0  0  0  0  0  0  0  0
   -1.9922   -0.5302   -0.4891 C   0  0  2  0  0  0  0  0  0  0  0  0
   -1.2261   -1.3263   -1.3816 O   0  0  0  0  0  0  0  0  0  0  0  0
   -0.4552   -2.1851   -0.6434 C   0  0  2  0  0  0  0  0  0  0  0  0
   -1.1492   -2.4550    0.6346 C   0  0  0  0  0  0  0  0  0  0  0  0
   -2.1837   -1.3578    0.7255 C   0  0  1  0  0  0  0  0  0  0  0  0
   -1.9546   -0.6647    1.9131 O   0  0  0  0  0  0  0  0  0  0  0  0
   -3.5376   -2.0044    0.8351 C   0  0  0  0  0  0  0  0  0  0  0  0
   -3.5035   -2.8809    1.9429 O   0  0  0  0  0  0  0  0  0  0  0  0
    0.8706   -1.5405   -0.4677 N   0  0  0  0  0  0  0  0  0  0  0  0
    2.0538   -2.1365   -0.4814 C   0  0  0  0  0  0  0  0  0  0  0  0
    2.3914   -3.4572   -0.6338 C   0  0  0  0  0  0  0  0  0  0  0  0
    3.7055   -3.8346   -0.6121 C   0  0  0  0  0  0  0  0  0  0  0  0
    4.7011   -2.9015   -0.4384 C   0  0  0  0  0  0  0  0  0  0  0  0
    4.3734   -1.5527   -0.2818 C   0  0  0  0  0  0  0  0  0  0  0  0
    3.0666   -1.1853   -0.3044 C   0  0  0  0  0  0  0  0  0  0  0  0
    2.4186    0.0421   -0.1795 C   0  0  0  0  0  0  0  0  0  0  0  0
    2.8449    1.3517    0.0302 C   0  0  0  0  0  0  0  0  0  0  0  0
    4.1760    1.9185    0.1715 C   0  0  0  0  0  0  0  0  0  0  0  0
    5.3248    1.4136    0.1523 O   0  0  0  0  0  0  0  0  0  0  0  0
    3.9953    3.3287    0.3634 N   0  0  0  0  0  0  0  0  0  0  0  0
    2.5851    3.6428    0.3433 C   0  0  0  0  0  0  0  0  0  0  0  0
    2.1845    4.8257    0.4922 O   0  0  0  0  0  0  0  0  0  0  0  0
    1.9021    2.3866    0.1339 C   0  0  0  0  0  0  0  0  0  0  0  0
    0.5577    2.0739    0.0234 C   0  0  0  0  0  0  0  0  0  0  0  0
   -0.6212    2.8071    0.1087 C   0  0  0  0  0  0  0  0  0  0  0  0
   -0.8522    4.1373    0.3325 C   0  0  0  0  0  0  0  0  0  0  0  0
   -2.1789    4.5830    0.3956 C   0  0  0  0  0  0  0  0  0  0  0  0
   -3.2184    3.7235    0.2404 C   0  0  0  0  0  0  0  0  0  0  0  0
   -2.9946    2.3720    0.0133 C   0  0  0  0  0  0  0  0  0  0  0  0
   -1.6901    1.9279   -0.0519 C   0  0  0  0  0  0  0  0  0  0  0  0
   -1.2201    0.6787   -0.2397 N   0  0  0  0  0  0  0  0  0  0  0  0
    0.1527    0.7758   -0.1867 C   0  0  0  0  0  0  0  0  0  0  0  0
    1.0789   -0.2375   -0.2874 C   0  0  0  0  0  0  0  0  0  0  0  0
   -3.1208    0.5742   -1.9395 H   0  0  0  0  0  0  0  0  0  0  0  0
   -3.3563   -1.1553   -2.0912 H   0  0  0  0  0  0  0  0  0  0  0  0
   -4.1831   -0.4024   -0.7531 H   0  0  0  0  0  0  0  0  0  0  0  0
   -0.2576   -3.0975   -1.2082 H   0  0  0  0  0  0  0  0  0  0  0  0
   -1.6411   -3.4681    0.5339 H   0  0  0  0  0  0  0  0  0  0  0  0
   -0.4690   -2.4559    1.5142 H   0  0  0  0  0  0  0  0  0  0  0  0
   -1.6587   -1.3562    2.5850 H   0  0  0  0  0  0  0  0  0  0  0  0
   -4.2695   -1.2222    1.1100 H   0  0  0  0  0  0  0  0  0  0  0  0
   -3.8200   -2.6146   -0.0282 H   0  0  0  0  0  0  0  0  0  0  0  0
   -4.2951   -3.4856    1.8211 H   0  0  0  0  0  0  0  0  0  0  0  0
    1.5744   -4.1807   -0.7709 H   0  0  0  0  0  0  0  0  0  0  0  0
    3.9673   -4.8787   -0.7329 H   0  0  0  0  0  0  0  0  0  0  0  0
    5.7406   -3.1581   -0.4159 H   0  0  0  0  0  0  0  0  0  0  0  0
    5.1602   -0.8441   -0.1477 H   0  0  0  0  0  0  0  0  0  0  0  0
    4.7619    4.0384    0.4993 H   0  0  0  0  0  0  0  0  0  0  0  0
   -0.0814    4.8576    0.4628 H   0  0  0  0  0  0  0  0  0  0  0  0
   -2.3091    5.6540    0.5756 H   0  0  0  0  0  0  0  0  0  0  0  0
   -4.2457    4.0593    0.2881 H   0  0  0  0  0  0  0  0  0  0  0  0
   -3.8490    1.7165   -0.0715 H   0  0  0  0  0  0  0  0  0  0  0  0
  2  1  1  6
  2  3  1  0
  3  4  1  0
  4  5  1  0
  5  6  1  0
  6  7  1  1
  6  8  1  0
  8  9  1  0
  4 10  1  0
 10 11  1  0
 11 12  2  0
 12 13  1  0
 13 14  2  0
 14 15  1  0
 15 16  2  0
 16 17  1  0
 17 18  2  0
 18 19  1  0
 19 20  2  0
 19 21  1  0
 21 22  1  0
 22 23  2  0
 22 24  1  0
 24 25  2  0
 25 26  1  0
 26 27  2  0
 27 28  1  0
 28 29  2  0
 29 30  1  0
 30 31  2  0
 31 32  1  0
 32 33  1  0
 33 34  2  0
  6  2  1  0
 34 10  1  0
 32  2  1  0
 16 11  1  0
 34 17  1  0
 24 18  1  0
 33 25  1  0
 31 26  1  0
  1 35  1  0
  1 36  1  0
  1 37  1  0
  4 38  1  6
  5 39  1  0
  5 40  1  0
  7 41  1  0
  8 42  1  0
  8 43  1  0
  9 44  1  0
 12 45  1  0
 13 46  1  0
 14 47  1  0
 15 48  1  0
 21 49  1  0
 27 50  1  0
 28 51  1  0
 29 52  1  0
 30 53  1  0
M  END
$$$$
[H]C#C[C@]1(O[H])C([H])([H])C([H])([H])[C@]2([H])[C@]1(C([H])([H])[H])C([H])([H])C([H])([H])[C@]1([H])c3c([H])c([H])c(O[H])c([H])c3C([H])([H])C([H])([H])[C@]12[H]
     RDKit          3D

 46 49  0  0  0  0  0  0  0  0999 V2000
    1.7068    0.6022   -1.6366 C   0  0  0  0  0  0  0  0  0  0  0  0
    1.9001   -0.2982   -0.4656 C   0  0  2  0  0  0  0  0  0  0  0  0
    1.2587   -1.6298   -0.6581 C   0  0  0  0  0  0  0  0  0  0  0  0
   -0.2243   -1.4684   -0.7962 C   0  0  0  0  0  0  0  0  0  0  0  0
   -0.8554   -0.6372    0.2739 C   0  0  1  0  0  0  0  0  0  0  0  0
   -0.0932    0.6670    0.5139 C   0  0  1  0  0  0  0  0  0  0  0  0
   -0.7573    1.4815    1.5610 C   0  0  0  0  0  0  0  0  0  0  0  0
   -2.2222    1.3213    1.7156 C   0  0  0  0  0  0  0  0  0  0  0  0
   -2.9114    0.6127    0.6328 C   0  0  0  0  0  0  0  0  0  0  0  0
   -4.2168    0.9181    0.3399 C   0  0  0  0  0  0  0  0  0  0  0  0
   -4.8958    0.2518   -0.6904 C   0  0  0  0  0  0  0  0  0  0  0  0
   -6.2135    0.5312   -1.0168 O   0  0  0  0  0  0  0  0  0  0  0  0
   -4.2353   -0.7270   -1.4190 C   0  0  0  0  0  0  0  0  0  0  0  0
   -2.9235   -1.0285   -1.1189 C   0  0  0  0  0  0  0  0  0  0  0  0
   -2.2600   -0.3537   -0.0871 C   0  0  0  0  0  0  0  0  0  0  0  0
    1.3047    0.2708    0.8234 C   0  0  2  0  0  0  0  0  0  0  0  0
    2.2408    1.3570    1.1658 C   0  0  0  0  0  0  0  0  0  0  0  0
    3.5922    0.6847    0.9600 C   0  0  0  0  0  0  0  0  0  0  0  0
    3.3584   -0.3611   -0.1105 C   0  0  2  0  0  0  0  0  0  0  0  0
    4.1282    0.0365   -1.2275 O   0  0  0  0  0  0  0  0  0  0  0  0
    3.7922   -1.6813    0.2744 C   0  0  0  0  0  0  0  0  0  0  0  0
    4.1565   -2.7808    0.5998 C   0  0  0  0  0  0  0  0  0  0  0  0
    1.8831    1.6629   -1.4324 H   0  0  0  0  0  0  0  0  0  0  0  0
    2.4789    0.3088   -2.4067 H   0  0  0  0  0  0  0  0  0  0  0  0
    0.7381    0.5066   -2.1459 H   0  0  0  0  0  0  0  0  0  0  0  0
    1.6383   -2.1092   -1.5700 H   0  0  0  0  0  0  0  0  0  0  0  0
    1.4458   -2.2423    0.2553 H   0  0  0  0  0  0  0  0  0  0  0  0
   -0.6751   -2.4817   -0.7436 H   0  0  0  0  0  0  0  0  0  0  0  0
   -0.5198   -1.0585   -1.7918 H   0  0  0  0  0  0  0  0  0  0  0  0
   -0.8292   -1.2283    1.2163 H   0  0  0  0  0  0  0  0  0  0  0  0
   -0.1340    1.2447   -0.4560 H   0  0  0  0  0  0  0  0  0  0  0  0
   -0.5264    2.5615    1.3310 H   0  0  0  0  0  0  0  0  0  0  0  0
   -0.2356    1.2869    2.5415 H   0  0  0  0  0  0  0  0  0  0  0  0
   -2.6954    2.3205    1.8761 H   0  0  0  0  0  0  0  0  0  0  0  0
   -2.4169    0.7749    2.6852 H   0  0  0  0  0  0  0  0  0  0  0  0
   -4.7959    1.6737    0.8697 H   0  0  0  0  0  0  0  0  0  0  0  0
   -7.0137    0.0853   -0.6242 H   0  0  0  0  0  0  0  0  0  0  0  0
   -4.7726   -1.2396   -2.2186 H   0  0  0  0  0  0  0  0  0  0  0  0
   -2.4235   -1.7786   -1.6800 H   0  0  0  0  0  0  0  0  0  0  0  0
    1.3081   -0.5277    1.5841 H   0  0  0  0  0  0  0  0  0  0  0  0
    2.1537    2.2272    0.5083 H   0  0  0  0  0  0  0  0  0  0  0  0
    2.1429    1.6990    2.2278 H   0  0  0  0  0  0  0  0  0  0  0  0
    3.9077    0.1971    1.9114 H   0  0  0  0  0  0  0  0  0  0  0  0
    4.3696    1.4220    0.6746 H   0  0  0  0  0  0  0  0  0  0  0  0
    4.8482    0.6699   -0.9591 H   0  0  0  0  0  0  0  0  0  0  0  0
    4.4940   -3.7438    0.8821 H   0  0  0  0  0  0  0  0  0  0  0  0
  2  1  1  6
  2  3  1  0
  3  4  1  0
  4  5  1  0
  5  6  1  0
  6  7  1  0
  7  8  1  0
  8  9  1  0
  9 10  2  0
 10 11  1  0
 11 12  1  0
 11 13  2  0
 13 14  1  0
 14 15  2  0
  6 16  1  0
 16 17  1  0
 17 18  1  0
 18 19  1  0
 19 20  1  0
 19 21  1  1
 21 22  3  0
 16  2  1  0
 19  2  1  0
 15  5  1  0
 15  9  1  0
  1 23  1  0
  1 24  1  0
  1 25  1  0
  3 26  1  0
  3 27  1  0
  4 28  1  0
  4 29  1  0
  5 30  1  1
  6 31  1  6
  7 32  1  0
  7 33  1  0
  8 34  1  0
  8 35  1  0
 10 36  1  0
 12 37  1  0
 13 38  1  0
 14 39  1  0
 16 40  1  1
 17 41  1  0
 17 42  1  0
 18 43  1  0
 18 44  1  0
 20 45  1  0
 22 46  1  0
M  END
$$$$
[H]O[C@@]1([H])C([H])([H])C([H])([H])[C@]2([H])[C@]1(C([H])([H])[H])C([H])([H])C([H])([H])[C@]1([H])[C@]3(C([H])([H])[H])C(=C([H])C([H])([H])[C@@]21[H])C([H])([H])[C@]([H])(O[H])C([H])([H])C3([H])[H]
     RDKit          3D

 51 54  0  0  0  0  0  0  0  0999 V2000
   -2.5976    0.5940   -1.3344 C   0  0  0  0  0  0  0  0  0  0  0  0
   -2.5834    0.4783    0.1562 C   0  0  2  0  0  0  0  0  0  0  0  0
   -1.8903    1.6382    0.7690 C   0  0  0  0  0  0  0  0  0  0  0  0
   -0.4243    1.6637    0.6530 C   0  0  0  0  0  0  0  0  0  0  0  0
    0.2775    0.3700    0.5912 C   0  0  1  0  0  0  0  0  0  0  0  0
   -0.5121   -0.7444   -0.0674 C   0  0  1  0  0  0  0  0  0  0  0  0
    0.1494   -2.0656    0.0756 C   0  0  0  0  0  0  0  0  0  0  0  0
    1.6047   -1.9712    0.2835 C   0  0  0  0  0  0  0  0  0  0  0  0
    2.3130   -0.8502    0.2110 C   0  0  0  0  0  0  0  0  0  0  0  0
    3.7756   -0.9645    0.4536 C   0  0  0  0  0  0  0  0  0  0  0  0
    4.4871    0.3474    0.2348 C   0  0  2  0  0  0  0  0  0  0  0  0
    5.7240    0.2620    0.8821 O   0  0  0  0  0  0  0  0  0  0  0  0
    3.6595    1.3995    0.9856 C   0  0  0  0  0  0  0  0  0  0  0  0
    2.3975    1.6451    0.1788 C   0  0  0  0  0  0  0  0  0  0  0  0
    1.6192    0.4093   -0.0986 C   0  0  2  0  0  0  0  0  0  0  0  0
    1.3281    0.3887   -1.6063 C   0  0  0  0  0  0  0  0  0  0  0  0
   -1.8310   -0.7711    0.6331 C   0  0  2  0  0  0  0  0  0  0  0  0
   -2.7538   -1.8529    0.2571 C   0  0  0  0  0  0  0  0  0  0  0  0
   -4.0748   -1.3093    0.8081 C   0  0  0  0  0  0  0  0  0  0  0  0
   -3.9513    0.2024    0.6943 C   0  0  2  0  0  0  0  0  0  0  0  0
   -4.9317    0.6197   -0.2045 O   0  0  0  0  0  0  0  0  0  0  0  0
   -3.5698    1.0828   -1.6363 H   0  0  0  0  0  0  0  0  0  0  0  0
   -2.5518   -0.3467   -1.8789 H   0  0  0  0  0  0  0  0  0  0  0  0
   -1.8112    1.3032   -1.6416 H   0  0  0  0  0  0  0  0  0  0  0  0
   -2.3152    2.5753    0.3153 H   0  0  0  0  0  0  0  0  0  0  0  0
   -2.1894    1.6914    1.8537 H   0  0  0  0  0  0  0  0  0  0  0  0
   -0.1544    2.2520   -0.2717 H   0  0  0  0  0  0  0  0  0  0  0  0
   -0.0216    2.2346    1.5420 H   0  0  0  0  0  0  0  0  0  0  0  0
    0.4821    0.0253    1.6465 H   0  0  0  0  0  0  0  0  0  0  0  0
   -0.6585   -0.4349   -1.1258 H   0  0  0  0  0  0  0  0  0  0  0  0
   -0.0523   -2.6792   -0.8412 H   0  0  0  0  0  0  0  0  0  0  0  0
   -0.3024   -2.6573    0.9128 H   0  0  0  0  0  0  0  0  0  0  0  0
    2.1123   -2.9260    0.5155 H   0  0  0  0  0  0  0  0  0  0  0  0
    4.2410   -1.8093   -0.0699 H   0  0  0  0  0  0  0  0  0  0  0  0
    3.8874   -1.1947    1.5539 H   0  0  0  0  0  0  0  0  0  0  0  0
    4.5787    0.5918   -0.8336 H   0  0  0  0  0  0  0  0  0  0  0  0
    6.3669   -0.2451    0.3461 H   0  0  0  0  0  0  0  0  0  0  0  0
    3.4256    0.9842    1.9684 H   0  0  0  0  0  0  0  0  0  0  0  0
    4.2344    2.3340    0.9971 H   0  0  0  0  0  0  0  0  0  0  0  0
    1.8345    2.4342    0.7233 H   0  0  0  0  0  0  0  0  0  0  0  0
    2.7502    2.1557   -0.7662 H   0  0  0  0  0  0  0  0  0  0  0  0
    1.1832   -0.6312   -1.9797 H   0  0  0  0  0  0  0  0  0  0  0  0
    2.2910    0.7478   -2.0747 H   0  0  0  0  0  0  0  0  0  0  0  0
    0.5675    1.1136   -1.8922 H   0  0  0  0  0  0  0  0  0  0  0  0
   -1.7560   -0.6894    1.7138 H   0  0  0  0  0  0  0  0  0  0  0  0
   -2.8890   -2.0464   -0.8036 H   0  0  0  0  0  0  0  0  0  0  0  0
   -2.5828   -2.8178    0.7740 H   0  0  0  0  0  0  0  0  0  0  0  0
   -4.1064   -1.5365    1.9012 H   0  0  0  0  0  0  0  0  0  0  0  0
   -4.9360   -1.7060    0.2650 H   0  0  0  0  0  0  0  0  0  0  0  0
   -4.1388    0.7079    1.6671 H   0  0  0  0  0  0  0  0  0  0  0  0
   -5.7050   -0.0025   -0.1511 H   0  0  0  0  0  0  0  0  0  0  0  0
  2  1  1  6
  2  3  1  0
  3  4  1  0
  4  5  1  0
  5  6  1  0
  6  7  1  0
  7  8  1  0
  8  9  2  0
  9 10  1  0
 10 11  1  0
 11 12  1  0
 11 13  1  0
 13 14  1  0
 14 15  1  0
 15 16  1  6
  6 17  1  0
 17 18  1  0
 18 19  1  0
 19 20  1  0
 20 21  1  0
 17  2  1  0
 20  2  1  0
 15  5  1  0
 15  9  1  0
  1 22  1  0
  1 23  1  0
  1 24  1  0
  3 25  1  0
  3 26  1  0
  4 27  1  0
  4 28  1  0
  5 29  1  1
  6 30  1  6
  7 31  1  0
  7 32  1  0
  8 33  1  0
 10 34  1  0
 10 35  1  0
 11 36  1  6
 12 37  1  0
 13 38  1  0
 13 39  1  0
 14 40  1  0
 14 41  1  0
 16 42  1  0
 16 43  1  0
 16 44  1  0
 17 45  1  1
 18 46  1  0
 18 47  1  0
 19 48  1  0
 19 49  1  0
 20 50  1  1
 21 51  1  0
M  END
$$$$
[H]Oc1c([H])c([H])c2c(c1[H])C([H])([H])C([H])([H])[C@]1([H])[C@]2([H])C([H])([H])C([H])([H])[C@]2(C([H])([H])[H])[C@@]([H])(O[H])C([H])([H])C([H])([H])[C@]21[H]
     RDKit          3D

 44 47  0  0  0  0  0  0  0  0999 V2000
   -2.2616   -0.7647    1.3456 C   0  0  0  0  0  0  0  0  0  0  0  0
   -2.1872   -0.4820   -0.1355 C   0  0  2  0  0  0  0  0  0  0  0  0
   -1.4972   -1.6125   -0.8188 C   0  0  0  0  0  0  0  0  0  0  0  0
   -0.0355   -1.6614   -0.5111 C   0  0  0  0  0  0  0  0  0  0  0  0
    0.6317   -0.3276   -0.6087 C   0  0  1  0  0  0  0  0  0  0  0  0
   -0.1167    0.7120    0.2397 C   0  0  1  0  0  0  0  0  0  0  0  0
    0.6973    1.9517    0.3346 C   0  0  0  0  0  0  0  0  0  0  0  0
    1.8991    1.6281    1.2348 C   0  0  0  0  0  0  0  0  0  0  0  0
    2.6681    0.5258    0.5618 C   0  0  0  0  0  0  0  0  0  0  0  0
    4.0208    0.4137    0.8075 C   0  0  0  0  0  0  0  0  0  0  0  0
    4.8096   -0.5725    0.2292 C   0  0  0  0  0  0  0  0  0  0  0  0
    6.1817   -0.6599    0.4990 O   0  0  0  0  0  0  0  0  0  0  0  0
    4.1863   -1.4604   -0.6201 C   0  0  0  0  0  0  0  0  0  0  0  0
    2.8307   -1.3536   -0.8705 C   0  0  0  0  0  0  0  0  0  0  0  0
    2.0522   -0.3730   -0.2941 C   0  0  0  0  0  0  0  0  0  0  0  0
   -1.4489    0.8431   -0.3896 C   0  0  2  0  0  0  0  0  0  0  0  0
   -2.3800    1.8245    0.1898 C   0  0  0  0  0  0  0  0  0  0  0  0
   -3.7490    1.2757   -0.1912 C   0  0  0  0  0  0  0  0  0  0  0  0
   -3.5339   -0.1411   -0.6696 C   0  0  2  0  0  0  0  0  0  0  0  0
   -4.4822   -1.0192   -0.1693 O   0  0  0  0  0  0  0  0  0  0  0  0
   -3.3190   -1.0974    1.5551 H   0  0  0  0  0  0  0  0  0  0  0  0
   -1.6242   -1.6159    1.6570 H   0  0  0  0  0  0  0  0  0  0  0  0
   -2.0942    0.1160    1.9735 H   0  0  0  0  0  0  0  0  0  0  0  0
   -1.7135   -1.6572   -1.9098 H   0  0  0  0  0  0  0  0  0  0  0  0
   -1.9450   -2.5631   -0.4048 H   0  0  0  0  0  0  0  0  0  0  0  0
    0.1510   -2.1510    0.4861 H   0  0  0  0  0  0  0  0  0  0  0  0
    0.4339   -2.3403   -1.2525 H   0  0  0  0  0  0  0  0  0  0  0  0
    0.5187    0.0259   -1.6572 H   0  0  0  0  0  0  0  0  0  0  0  0
   -0.1882    0.2644    1.2522 H   0  0  0  0  0  0  0  0  0  0  0  0
    1.1649    2.2436   -0.6508 H   0  0  0  0  0  0  0  0  0  0  0  0
    0.1574    2.7804    0.7893 H   0  0  0  0  0  0  0  0  0  0  0  0
    2.5196    2.5130    1.4035 H   0  0  0  0  0  0  0  0  0  0  0  0
    1.4780    1.1823    2.1542 H   0  0  0  0  0  0  0  0  0  0  0  0
    4.5228    1.1037    1.4718 H   0  0  0  0  0  0  0  0  0  0  0  0
    6.5756    0.0194    1.1283 H   0  0  0  0  0  0  0  0  0  0  0  0
    4.7934   -2.2292   -1.0728 H   0  0  0  0  0  0  0  0  0  0  0  0
    2.4286   -2.0954   -1.5517 H   0  0  0  0  0  0  0  0  0  0  0  0
   -1.3743    0.9848   -1.4780 H   0  0  0  0  0  0  0  0  0  0  0  0
   -2.2899    2.0186    1.2621 H   0  0  0  0  0  0  0  0  0  0  0  0
   -2.2758    2.8067   -0.3367 H   0  0  0  0  0  0  0  0  0  0  0  0
   -4.1755    1.8381   -1.0706 H   0  0  0  0  0  0  0  0  0  0  0  0
   -4.4356    1.2437    0.6584 H   0  0  0  0  0  0  0  0  0  0  0  0
   -3.4818   -0.1892   -1.7851 H   0  0  0  0  0  0  0  0  0  0  0  0
   -4.1124   -1.9488   -0.1478 H   0  0  0  0  0  0  0  0  0  0  0  0
  2  1  1  1
  2  3  1  0
  3  4  1  0
  4  5  1  0
  5  6  1  0
  6  7  1  0
  7  8  1  0
  8  9  1  0
  9 10  2  0
 10 11  1  0
 11 12  1  0
 11 13  2  0
 13 14  1  0
 14 15  2  0
  6 16  1  0
 16 17  1  0
 17 18  1  0
 18 19  1  0
 19 20  1  0
 16  2  1  0
 19  2  1  0
 15  5  1  0
 15  9  1  0
  1 21  1  0
  1 22  1  0
  1 23  1  0
  3 24  1  0
  3 25  1  0
  4 26  1  0
  4 27  1  0
  5 28  1  6
  6 29  1  1
  7 30  1  0
  7 31  1  0
  8 32  1  0
  8 33  1  0
 10 34  1  0
 12 35  1  0
 13 36  1  0
 14 37  1  0
 16 38  1  6
 17 39  1  0
 17 40  1  0
 18 41  1  0
 18 42  1  0
 19 43  1  6
 20 44  1  0
M  END
$$$$
[H]Oc1c([H])c([H])c2c(c1[H])C([H])([H])C([H])([H])[C@]1([H])[C@]2([H])C([H])([H])C([H])([H])[C@]2(C([H])([H])[H])[C@@](C#Cc3c([H])c([H])c([H])c([H])c3[H])(O[H])C([H])([H])C([H])([H])[C@]21[H]
     RDKit          3D

 56 60  0  0  0  0  0  0  0  0999 V2000
   -0.8618    2.4741    1.0683 C   0  0  0  0  0  0  0  0  0  0  0  0
    0.2283    1.5230    0.6413 C   0  0  2  0  0  0  0  0  0  0  0  0
    0.2080    1.3071   -0.8275 C   0  0  0  0  0  0  0  0  0  0  0  0
   -1.1639    0.8704   -1.2230 C   0  0  0  0  0  0  0  0  0  0  0  0
   -1.6165   -0.3307   -0.4826 C   0  0  1  0  0  0  0  0  0  0  0  0
   -1.3247   -0.3119    0.9939 C   0  0  1  0  0  0  0  0  0  0  0  0
   -1.4997   -1.7591    1.4759 C   0  0  0  0  0  0  0  0  0  0  0  0
   -2.8999   -2.2456    1.2912 C   0  0  0  0  0  0  0  0  0  0  0  0
   -3.6252   -1.5437    0.2016 C   0  0  0  0  0  0  0  0  0  0  0  0
   -4.9792   -1.8575    0.0722 C   0  0  0  0  0  0  0  0  0  0  0  0
   -5.7465   -1.2621   -0.9080 C   0  0  0  0  0  0  0  0  0  0  0  0
   -7.1057   -1.5568   -1.0618 O   0  0  0  0  0  0  0  0  0  0  0  0
   -5.1652   -0.3486   -1.7656 C   0  0  0  0  0  0  0  0  0  0  0  0
   -3.8074   -0.0481   -1.6191 C   0  0  0  0  0  0  0  0  0  0  0  0
   -3.0407   -0.6366   -0.6473 C   0  0  0  0  0  0  0  0  0  0  0  0
    0.0541    0.1512    1.2833 C   0  0  2  0  0  0  0  0  0  0  0  0
    0.3414    0.4419    2.7086 C   0  0  0  0  0  0  0  0  0  0  0  0
    1.4105    1.5148    2.6682 C   0  0  0  0  0  0  0  0  0  0  0  0
    1.5129    1.9747    1.2221 C   0  0  2  0  0  0  0  0  0  0  0  0
    1.6765    3.3402    1.2212 O   0  0  0  0  0  0  0  0  0  0  0  0
    2.6044    1.2805    0.5294 C   0  0  0  0  0  0  0  0  0  0  0  0
    3.4903    0.7011   -0.0210 C   0  0  0  0  0  0  0  0  0  0  0  0
    4.5449   -0.0176   -0.6812 C   0  0  0  0  0  0  0  0  0  0  0  0
    5.8670    0.1022   -0.2664 C   0  0  0  0  0  0  0  0  0  0  0  0
    6.8749   -0.5899   -0.9036 C   0  0  0  0  0  0  0  0  0  0  0  0
    6.6137   -1.4228   -1.9704 C   0  0  0  0  0  0  0  0  0  0  0  0
    5.3008   -1.5418   -2.3823 C   0  0  0  0  0  0  0  0  0  0  0  0
    4.2989   -0.8441   -1.7371 C   0  0  0  0  0  0  0  0  0  0  0  0
   -1.8693    2.1490    0.8186 H   0  0  0  0  0  0  0  0  0  0  0  0
   -0.6779    3.4294    0.5349 H   0  0  0  0  0  0  0  0  0  0  0  0
   -0.7678    2.6923    2.1657 H   0  0  0  0  0  0  0  0  0  0  0  0
    0.9007    0.4436   -1.0515 H   0  0  0  0  0  0  0  0  0  0  0  0
    0.5341    2.1838   -1.4209 H   0  0  0  0  0  0  0  0  0  0  0  0
   -1.8402    1.7391   -1.1791 H   0  0  0  0  0  0  0  0  0  0  0  0
   -1.1124    0.5929   -2.3167 H   0  0  0  0  0  0  0  0  0  0  0  0
   -1.0484   -1.2149   -0.8974 H   0  0  0  0  0  0  0  0  0  0  0  0
   -2.0900    0.2684    1.5756 H   0  0  0  0  0  0  0  0  0  0  0  0
   -1.1407   -1.7977    2.5175 H   0  0  0  0  0  0  0  0  0  0  0  0
   -0.8328   -2.3942    0.8347 H   0  0  0  0  0  0  0  0  0  0  0  0
   -2.9318   -3.3346    1.0395 H   0  0  0  0  0  0  0  0  0  0  0  0
   -3.4377   -2.1174    2.2467 H   0  0  0  0  0  0  0  0  0  0  0  0
   -5.4592   -2.5642    0.7245 H   0  0  0  0  0  0  0  0  0  0  0  0
   -7.3664   -2.3208   -1.6798 H   0  0  0  0  0  0  0  0  0  0  0  0
   -5.7039    0.1528   -2.5515 H   0  0  0  0  0  0  0  0  0  0  0  0
   -3.3203    0.6603   -2.2709 H   0  0  0  0  0  0  0  0  0  0  0  0
    0.7753   -0.5363    0.8074 H   0  0  0  0  0  0  0  0  0  0  0  0
   -0.5433    0.7335    3.2786 H   0  0  0  0  0  0  0  0  0  0  0  0
    0.8079   -0.4680    3.1684 H   0  0  0  0  0  0  0  0  0  0  0  0
    2.3837    1.1472    3.0519 H   0  0  0  0  0  0  0  0  0  0  0  0
    1.0606    2.3338    3.3294 H   0  0  0  0  0  0  0  0  0  0  0  0
    1.6235    3.7203    2.1184 H   0  0  0  0  0  0  0  0  0  0  0  0
    6.1421    0.7367    0.5619 H   0  0  0  0  0  0  0  0  0  0  0  0
    7.8908   -0.4880   -0.5729 H   0  0  0  0  0  0  0  0  0  0  0  0
    7.4175   -1.9470   -2.4448 H   0  0  0  0  0  0  0  0  0  0  0  0
    5.1192   -2.1996   -3.2199 H   0  0  0  0  0  0  0  0  0  0  0  0
    3.2964   -0.9646   -2.0876 H   0  0  0  0  0  0  0  0  0  0  0  0
  2  1  1  6
  2  3  1  0
  3  4  1  0
  4  5  1  0
  5  6  1  0
  6  7  1  0
  7  8  1  0
  8  9  1  0
  9 10  2  0
 10 11  1  0
 11 12  1  0
 11 13  2  0
 13 14  1  0
 14 15  2  0
  6 16  1  0
 16 17  1  0
 17 18  1  0
 18 19  1  0
 19 20  1  0
 19 21  1  6
 21 22  3  0
 22 23  1  0
 23 24  2  0
 24 25  1  0
 25 26  2  0
 26 27  1  0
 27 28  2  0
 16  2  1  0
 28 23  1  0
 19  2  1  0
 15  5  1  0
 15  9  1  0
  1 29  1  0
  1 30  1  0
  1 31  1  0
  3 32  1  0
  3 33  1  0
  4 34  1  0
  4 35  1  0
  5 36  1  6
  6 37  1  1
  7 38  1  0
  7 39  1  0
  8 40  1  0
  8 41  1  0
 10 42  1  0
 12 43  1  0
 13 44  1  0
 14 45  1  0
 16 46  1  6
 17 47  1  0
 17 48  1  0
 18 49  1  0
 18 50  1  0
 20 51  1  0
 24 52  1  0
 25 53  1  0
 26 54  1  0
 27 55  1  0
 28 56  1  0
M  END
$$$$
[H]O[C@]1([H])C([H])([H])C2=C([H])C([H])([H])[C@@]3([H])[C@]4([H])C([H])([H])C([H])([H])[C@]([H])(O[H])[C@@]4(C([H])([H])[H])C([H])([H])C([H])([H])[C@]3([H])[C@@]2(C([H])([H])[H])C([H])([H])C1([H])[H]
     RDKit          3D

 51 54  0  0  0  0  0  0  0  0999 V2000
   -2.9970    1.2061   -0.4779 C   0  0  0  0  0  0  0  0  0  0  0  0
   -2.4540    0.4834    0.7042 C   0  0  2  0  0  0  0  0  0  0  0  0
   -1.4832    1.2592    1.5088 C   0  0  0  0  0  0  0  0  0  0  0  0
   -0.2850    1.5703    0.6225 C   0  0  0  0  0  0  0  0  0  0  0  0
    0.3248    0.2625    0.2351 C   0  0  1  0  0  0  0  0  0  0  0  0
   -0.6047   -0.6397   -0.5409 C   0  0  1  0  0  0  0  0  0  0  0  0
    0.0652   -1.9417   -0.7976 C   0  0  0  0  0  0  0  0  0  0  0  0
    1.4993   -2.0082   -0.4345 C   0  0  0  0  0  0  0  0  0  0  0  0
    2.2900   -0.9544   -0.2753 C   0  0  0  0  0  0  0  0  0  0  0  0
    3.6890   -1.1523    0.0837 C   0  0  0  0  0  0  0  0  0  0  0  0
    4.3280    0.0181    0.7791 C   0  0  1  0  0  0  0  0  0  0  0  0
    5.1091    0.6945   -0.1583 O   0  0  0  0  0  0  0  0  0  0  0  0
    3.2831    1.0091    1.2818 C   0  0  0  0  0  0  0  0  0  0  0  0
    2.5350    1.4540    0.0460 C   0  0  0  0  0  0  0  0  0  0  0  0
    1.6410    0.3787   -0.4821 C   0  0  2  0  0  0  0  0  0  0  0  0
    1.4881    0.6488   -1.9591 C   0  0  0  0  0  0  0  0  0  0  0  0
   -1.8087   -0.8608    0.3331 C   0  0  2  0  0  0  0  0  0  0  0  0
   -2.9552   -1.5412   -0.3215 C   0  0  0  0  0  0  0  0  0  0  0  0
   -4.1425   -1.1258    0.5425 C   0  0  0  0  0  0  0  0  0  0  0  0
   -3.6257   -0.0584    1.4958 C   0  0  2  0  0  0  0  0  0  0  0  0
   -4.5748    0.8985    1.7799 O   0  0  0  0  0  0  0  0  0  0  0  0
   -2.5645    2.2449   -0.4927 H   0  0  0  0  0  0  0  0  0  0  0  0
   -2.7961    0.7599   -1.4491 H   0  0  0  0  0  0  0  0  0  0  0  0
   -4.1075    1.3821   -0.3994 H   0  0  0  0  0  0  0  0  0  0  0  0
   -1.9255    2.1821    1.9310 H   0  0  0  0  0  0  0  0  0  0  0  0
   -1.0980    0.6172    2.3281 H   0  0  0  0  0  0  0  0  0  0  0  0
   -0.5410    2.1373   -0.2710 H   0  0  0  0  0  0  0  0  0  0  0  0
    0.4306    2.0860    1.2938 H   0  0  0  0  0  0  0  0  0  0  0  0
    0.5308   -0.2811    1.2060 H   0  0  0  0  0  0  0  0  0  0  0  0
   -0.9783   -0.1597   -1.4689 H   0  0  0  0  0  0  0  0  0  0  0  0
   -0.4651   -2.7693   -0.2603 H   0  0  0  0  0  0  0  0  0  0  0  0
   -0.0045   -2.2569   -1.8818 H   0  0  0  0  0  0  0  0  0  0  0  0
    1.9332   -3.0183   -0.2871 H   0  0  0  0  0  0  0  0  0  0  0  0
    4.2613   -1.4074   -0.8337 H   0  0  0  0  0  0  0  0  0  0  0  0
    3.8283   -2.0353    0.7658 H   0  0  0  0  0  0  0  0  0  0  0  0
    4.9643   -0.2710    1.6225 H   0  0  0  0  0  0  0  0  0  0  0  0
    5.8587    0.0597   -0.3854 H   0  0  0  0  0  0  0  0  0  0  0  0
    3.8378    1.8874    1.6711 H   0  0  0  0  0  0  0  0  0  0  0  0
    2.6214    0.5673    2.0455 H   0  0  0  0  0  0  0  0  0  0  0  0
    2.0572    2.4308    0.1372 H   0  0  0  0  0  0  0  0  0  0  0  0
    3.3368    1.6088   -0.7396 H   0  0  0  0  0  0  0  0  0  0  0  0
    0.7860    0.0113   -2.4764 H   0  0  0  0  0  0  0  0  0  0  0  0
    2.5025    0.4447   -2.4122 H   0  0  0  0  0  0  0  0  0  0  0  0
    1.2958    1.7172   -2.1614 H   0  0  0  0  0  0  0  0  0  0  0  0
   -1.5541   -1.3880    1.2574 H   0  0  0  0  0  0  0  0  0  0  0  0
   -3.1483   -1.2474   -1.3624 H   0  0  0  0  0  0  0  0  0  0  0  0
   -2.8931   -2.6525   -0.2500 H   0  0  0  0  0  0  0  0  0  0  0  0
   -4.9376   -0.6594   -0.0606 H   0  0  0  0  0  0  0  0  0  0  0  0
   -4.5782   -1.9812    1.0891 H   0  0  0  0  0  0  0  0  0  0  0  0
   -3.2399   -0.5851    2.3898 H   0  0  0  0  0  0  0  0  0  0  0  0
   -4.7344    0.9752    2.7741 H   0  0  0  0  0  0  0  0  0  0  0  0
  2  1  1  6
  2  3  1  0
  3  4  1  0
  4  5  1  0
  5  6  1  0
  6  7  1  0
  7  8  1  0
  8  9  2  0
  9 10  1  0
 10 11  1  0
 11 12  1  0
 11 13  1  0
 13 14  1  0
 14 15  1  0
 15 16  1  6
  6 17  1  0
 17 18  1  0
 18 19  1  0
 19 20  1  0
 20 21  1  0
 17  2  1  0
 20  2  1  0
 15  5  1  0
 15  9  1  0
  1 22  1  0
  1 23  1  0
  1 24  1  0
  3 25  1  0
  3 26  1  0
  4 27  1  0
  4 28  1  0
  5 29  1  1
  6 30  1  6
  7 31  1  0
  7 32  1  0
  8 33  1  0
 10 34  1  0
 10 35  1  0
 11 36  1  1
 12 37  1  0
 13 38  1  0
 13 39  1  0
 14 40  1  0
 14 41  1  0
 16 42  1  0
 16 43  1  0
 16 44  1  0
 17 45  1  1
 18 46  1  0
 18 47  1  0
 19 48  1  0
 19 49  1  0
 20 50  1  1
 21 51  1  0
M  END
$$$$
[H]O[C@@]1([H])C([H])([H])C([H])([H])[C@]2([H])[C@]1(C([H])([H])[H])C([H])([H])[C@]1([H])[C@]3(C([H])([H])[H])C(=C([H])C([H])([H])[C@@]21[H])C([H])([H])[C@]([H])(O[H])C([H])([H])C3([H])[H]
     RDKit          3D

 48 51  0  0  0  0  0  0  0  0999 V2000
   -2.5278   -0.8107    1.5343 C   0  0  0  0  0  0  0  0  0  0  0  0
   -2.2376   -0.5615    0.0802 C   0  0  2  0  0  0  0  0  0  0  0  0
   -0.9816   -1.1529   -0.4043 C   0  0  0  0  0  0  0  0  0  0  0  0
   -0.0087   -0.0284   -0.4118 C   0  0  1  0  0  0  0  0  0  0  0  0
   -0.6808    1.0985    0.3937 C   0  0  1  0  0  0  0  0  0  0  0  0
    0.0663    2.3486    0.1063 C   0  0  0  0  0  0  0  0  0  0  0  0
    1.5332    2.1528   -0.0606 C   0  0  0  0  0  0  0  0  0  0  0  0
    2.1157    0.9701   -0.0900 C   0  0  0  0  0  0  0  0  0  0  0  0
    3.5844    0.9084   -0.2619 C   0  0  0  0  0  0  0  0  0  0  0  0
    4.1729   -0.4401   -0.0208 C   0  0  2  0  0  0  0  0  0  0  0  0
    5.5307   -0.3575   -0.3780 O   0  0  0  0  0  0  0  0  0  0  0  0
    3.4557   -1.4743   -0.8227 C   0  0  0  0  0  0  0  0  0  0  0  0
    1.9894   -1.2766   -0.9765 C   0  0  0  0  0  0  0  0  0  0  0  0
    1.3801   -0.3213    0.0383 C   0  0  2  0  0  0  0  0  0  0  0  0
    1.4977   -0.9372    1.3867 C   0  0  0  0  0  0  0  0  0  0  0  0
   -1.9952    0.9438   -0.1839 C   0  0  2  0  0  0  0  0  0  0  0  0
   -3.2117    1.5065    0.3199 C   0  0  0  0  0  0  0  0  0  0  0  0
   -4.2579    0.5556   -0.2953 C   0  0  0  0  0  0  0  0  0  0  0  0
   -3.4684   -0.6922   -0.7336 C   0  0  2  0  0  0  0  0  0  0  0  0
   -4.1530   -1.8525   -0.4542 O   0  0  0  0  0  0  0  0  0  0  0  0
   -2.3561    0.0396    2.1885 H   0  0  0  0  0  0  0  0  0  0  0  0
   -3.5551   -1.2205    1.6269 H   0  0  0  0  0  0  0  0  0  0  0  0
   -1.8530   -1.6369    1.9001 H   0  0  0  0  0  0  0  0  0  0  0  0
   -1.0509   -1.7006   -1.3621 H   0  0  0  0  0  0  0  0  0  0  0  0
   -0.6225   -1.9109    0.3445 H   0  0  0  0  0  0  0  0  0  0  0  0
    0.0502    0.3673   -1.4510 H   0  0  0  0  0  0  0  0  0  0  0  0
   -0.6053    0.7870    1.4559 H   0  0  0  0  0  0  0  0  0  0  0  0
   -0.0519    3.0281    1.0004 H   0  0  0  0  0  0  0  0  0  0  0  0
   -0.3538    2.9093   -0.7544 H   0  0  0  0  0  0  0  0  0  0  0  0
    2.1347    3.0340   -0.1612 H   0  0  0  0  0  0  0  0  0  0  0  0
    3.7859    1.1705   -1.3320 H   0  0  0  0  0  0  0  0  0  0  0  0
    4.0984    1.6945    0.3289 H   0  0  0  0  0  0  0  0  0  0  0  0
    4.1732   -0.6496    1.0719 H   0  0  0  0  0  0  0  0  0  0  0  0
    5.6456   -0.1640   -1.3448 H   0  0  0  0  0  0  0  0  0  0  0  0
    3.8980   -1.4411   -1.8623 H   0  0  0  0  0  0  0  0  0  0  0  0
    3.6685   -2.5128   -0.4824 H   0  0  0  0  0  0  0  0  0  0  0  0
    1.7130   -0.9164   -1.9999 H   0  0  0  0  0  0  0  0  0  0  0  0
    1.4732   -2.2456   -0.8395 H   0  0  0  0  0  0  0  0  0  0  0  0
    2.1317   -1.8666    1.3648 H   0  0  0  0  0  0  0  0  0  0  0  0
    0.5662   -1.2276    1.8690 H   0  0  0  0  0  0  0  0  0  0  0  0
    2.0290   -0.2133    2.0489 H   0  0  0  0  0  0  0  0  0  0  0  0
   -1.9483    1.0202   -1.2882 H   0  0  0  0  0  0  0  0  0  0  0  0
   -3.3567    1.6257    1.3860 H   0  0  0  0  0  0  0  0  0  0  0  0
   -3.4032    2.5201   -0.1413 H   0  0  0  0  0  0  0  0  0  0  0  0
   -5.0242    0.2752    0.4380 H   0  0  0  0  0  0  0  0  0  0  0  0
   -4.6650    1.0002   -1.2268 H   0  0  0  0  0  0  0  0  0  0  0  0
   -3.2114   -0.6277   -1.8149 H   0  0  0  0  0  0  0  0  0  0  0  0
   -5.1135   -1.7174   -0.3162 H   0  0  0  0  0  0  0  0  0  0  0  0
  2  1  1  1
  2  3  1  0
  3  4  1  0
  4  5  1  0
  5  6  1  0
  6  7  1  0
  7  8  2  0
  8  9  1  0
  9 10  1  0
 10 11  1  0
 10 12  1  0
 12 13  1  0
 13 14  1  0
 14 15  1  1
  5 16  1  0
 16 17  1  0
 17 18  1  0
 18 19  1  0
 19 20  1  0
 16  2  1  0
 19  2  1  0
 14  4  1  0
 14  8  1  0
  1 21  1  0
  1 22  1  0
  1 23  1  0
  3 24  1  0
  3 25  1  0
  4 26  1  6
  5 27  1  1
  6 28  1  0
  6 29  1  0
  7 30  1  0
  9 31  1  0
  9 32  1  0
 10 33  1  1
 11 34  1  0
 12 35  1  0
 12 36  1  0
 13 37  1  0
 13 38  1  0
 15 39  1  0
 15 40  1  0
 15 41  1  0
 16 42  1  6
 17 43  1  0
 17 44  1  0
 18 45  1  0
 18 46  1  0
 19 47  1  6
 20 48  1  0
M  END
$$$$
[H]O[C@]1([H])C([H])([H])C2=C([H])C([H])([H])[C@@]3([H])[C@]4([H])C([H])([H])C([H])([H])[C@]([H])(O[H])[C@@]4(C([H])([H])[H])C([H])([H])[C@]3([H])[C@@]2(C([H])([H])[H])C([H])([H])C1([H])[H]
     RDKit          3D

 48 51  0  0  0  0  0  0  0  0999 V2000
   -2.5169   -0.9757    1.3407 C   0  0  0  0  0  0  0  0  0  0  0  0
   -2.2141   -0.5761   -0.0656 C   0  0  2  0  0  0  0  0  0  0  0  0
   -0.9403   -1.1284   -0.5609 C   0  0  0  0  0  0  0  0  0  0  0  0
    0.0389   -0.0257   -0.3556 C   0  0  1  0  0  0  0  0  0  0  0  0
   -0.6803    1.0558    0.4821 C   0  0  1  0  0  0  0  0  0  0  0  0
    0.1186    2.3001    0.2945 C   0  0  0  0  0  0  0  0  0  0  0  0
    1.5709    2.0632    0.1751 C   0  0  0  0  0  0  0  0  0  0  0  0
    2.1706    0.8944    0.1280 C   0  0  0  0  0  0  0  0  0  0  0  0
    3.6550    0.8260    0.0055 C   0  0  0  0  0  0  0  0  0  0  0  0
    4.0770   -0.2759   -0.9506 C   0  0  1  0  0  0  0  0  0  0  0  0
    5.4604   -0.4124   -0.8558 O   0  0  0  0  0  0  0  0  0  0  0  0
    3.4616   -1.5637   -0.4458 C   0  0  0  0  0  0  0  0  0  0  0  0
    1.9667   -1.4588   -0.6441 C   0  0  0  0  0  0  0  0  0  0  0  0
    1.3532   -0.3775    0.1972 C   0  0  2  0  0  0  0  0  0  0  0  0
    1.3225   -0.7636    1.6602 C   0  0  0  0  0  0  0  0  0  0  0  0
   -1.9500    0.9386   -0.1960 C   0  0  2  0  0  0  0  0  0  0  0  0
   -3.1894    1.4980    0.2474 C   0  0  0  0  0  0  0  0  0  0  0  0
   -4.2097    0.5843   -0.4556 C   0  0  0  0  0  0  0  0  0  0  0  0
   -3.4071   -0.6427   -0.9216 C   0  0  2  0  0  0  0  0  0  0  0  0
   -4.1602   -1.8040   -0.7807 O   0  0  0  0  0  0  0  0  0  0  0  0
   -2.4863   -0.1740    2.0722 H   0  0  0  0  0  0  0  0  0  0  0  0
   -3.5311   -1.4256    1.3643 H   0  0  0  0  0  0  0  0  0  0  0  0
   -1.8328   -1.7889    1.7147 H   0  0  0  0  0  0  0  0  0  0  0  0
   -0.9645   -1.5353   -1.5819 H   0  0  0  0  0  0  0  0  0  0  0  0
   -0.6346   -1.9761    0.1197 H   0  0  0  0  0  0  0  0  0  0  0  0
    0.1956    0.4708   -1.3508 H   0  0  0  0  0  0  0  0  0  0  0  0
   -0.7381    0.7339    1.5423 H   0  0  0  0  0  0  0  0  0  0  0  0
   -0.0832    2.9862    1.1405 H   0  0  0  0  0  0  0  0  0  0  0  0
   -0.2957    2.8281   -0.6122 H   0  0  0  0  0  0  0  0  0  0  0  0
    2.1986    2.9694    0.1216 H   0  0  0  0  0  0  0  0  0  0  0  0
    4.0671    1.7603   -0.3831 H   0  0  0  0  0  0  0  0  0  0  0  0
    4.1105    0.5945    0.9894 H   0  0  0  0  0  0  0  0  0  0  0  0
    3.7214   -0.0990   -1.9711 H   0  0  0  0  0  0  0  0  0  0  0  0
    5.8849    0.3133   -1.3551 H   0  0  0  0  0  0  0  0  0  0  0  0
    3.8127   -2.3706   -1.1260 H   0  0  0  0  0  0  0  0  0  0  0  0
    3.7322   -1.8007    0.5827 H   0  0  0  0  0  0  0  0  0  0  0  0
    1.8124   -1.1567   -1.7160 H   0  0  0  0  0  0  0  0  0  0  0  0
    1.4364   -2.3949   -0.4317 H   0  0  0  0  0  0  0  0  0  0  0  0
    2.2981   -1.2283    1.9148 H   0  0  0  0  0  0  0  0  0  0  0  0
    0.5400   -1.4840    1.9049 H   0  0  0  0  0  0  0  0  0  0  0  0
    1.2457    0.1385    2.3168 H   0  0  0  0  0  0  0  0  0  0  0  0
   -1.8164    1.0955   -1.2932 H   0  0  0  0  0  0  0  0  0  0  0  0
   -3.3969    1.5986    1.3049 H   0  0  0  0  0  0  0  0  0  0  0  0
   -3.3514    2.5211   -0.2053 H   0  0  0  0  0  0  0  0  0  0  0  0
   -5.0247    0.2954    0.2246 H   0  0  0  0  0  0  0  0  0  0  0  0
   -4.5841    1.0519   -1.3893 H   0  0  0  0  0  0  0  0  0  0  0  0
   -3.1150   -0.5522   -1.9819 H   0  0  0  0  0  0  0  0  0  0  0  0
   -5.1279   -1.5271   -0.8019 H   0  0  0  0  0  0  0  0  0  0  0  0
  2  1  1  1
  2  3  1  0
  3  4  1  0
  4  5  1  0
  5  6  1  0
  6  7  1  0
  7  8  2  0
  8  9  1  0
  9 10  1  0
 10 11  1  0
 10 12  1  0
 12 13  1  0
 13 14  1  0
 14 15  1  1
  5 16  1  0
 16 17  1  0
 17 18  1  0
 18 19  1  0
 19 20  1  0
 16  2  1  0
 19  2  1  0
 14  4  1  0
 14  8  1  0
  1 21  1  0
  1 22  1  0
  1 23  1  0
  3 24  1  0
  3 25  1  0
  4 26  1  6
  5 27  1  1
  6 28  1  0
  6 29  1  0
  7 30  1  0
  9 31  1  0
  9 32  1  0
 10 33  1  6
 11 34  1  0
 12 35  1  0
 12 36  1  0
 13 37  1  0
 13 38  1  0
 15 39  1  0
 15 40  1  0
 15 41  1  0
 16 42  1  6
 17 43  1  0
 17 44  1  0
 18 45  1  0
 18 46  1  0
 19 47  1  6
 20 48  1  0
M  END
$$$$
[H]Oc1c([H])c([H])c2c(c1[H])C([H])([H])C([H])([H])[C@]1([H])[C@]2([H])C([H])([H])C([H])([H])[C@]2(C([H])([H])[H])[C@](O[H])(C([H])([H])O[H])C([H])([H])C([H])([H])[C@]21[H]
     RDKit          3D

 48 51  0  0  0  0  0  0  0  0999 V2000
   -1.3597    2.0802    0.1363 C   0  0  0  0  0  0  0  0  0  0  0  0
   -1.7462    0.6164    0.3972 C   0  0  2  0  0  0  0  0  0  0  0  0
   -1.1741    0.2518    1.7142 C   0  0  0  0  0  0  0  0  0  0  0  0
    0.3213    0.5790    1.6126 C   0  0  0  0  0  0  0  0  0  0  0  0
    0.9049   -0.3663    0.6128 C   0  0  1  0  0  0  0  0  0  0  0  0
    0.3060   -0.2047   -0.7797 C   0  0  1  0  0  0  0  0  0  0  0  0
    0.7704   -1.4002   -1.5852 C   0  0  0  0  0  0  0  0  0  0  0  0
    2.1241   -1.8992   -1.2302 C   0  0  0  0  0  0  0  0  0  0  0  0
    2.9845   -0.9317   -0.5168 C   0  0  0  0  0  0  0  0  0  0  0  0
    4.3307   -0.8348   -0.7932 C   0  0  0  0  0  0  0  0  0  0  0  0
    5.0609    0.0962   -0.0783 C   0  0  0  0  0  0  0  0  0  0  0  0
    6.4317    0.2025   -0.3523 O   0  0  0  0  0  0  0  0  0  0  0  0
    4.4495    0.8910    0.8732 C   0  0  0  0  0  0  0  0  0  0  0  0
    3.0853    0.7817    1.1425 C   0  0  0  0  0  0  0  0  0  0  0  0
    2.3753   -0.1359    0.4350 C   0  0  0  0  0  0  0  0  0  0  0  0
   -1.1864   -0.2604   -0.7117 C   0  0  2  0  0  0  0  0  0  0  0  0
   -1.8981    0.3248   -1.8821 C   0  0  0  0  0  0  0  0  0  0  0  0
   -3.2991    0.5888   -1.3277 C   0  0  0  0  0  0  0  0  0  0  0  0
   -3.1848    0.4882    0.1834 C   0  0  2  0  0  0  0  0  0  0  0  0
   -3.8923    1.5336    0.8032 O   0  0  0  0  0  0  0  0  0  0  0  0
   -3.8356   -0.7831    0.5852 C   0  0  0  0  0  0  0  0  0  0  0  0
   -3.8554   -1.0401    1.9374 O   0  0  0  0  0  0  0  0  0  0  0  0
   -1.2831    2.6152    1.1109 H   0  0  0  0  0  0  0  0  0  0  0  0
   -2.1680    2.5994   -0.4250 H   0  0  0  0  0  0  0  0  0  0  0  0
   -0.4511    2.1636   -0.4809 H   0  0  0  0  0  0  0  0  0  0  0  0
   -1.1904   -0.8319    1.9466 H   0  0  0  0  0  0  0  0  0  0  0  0
   -1.6587    0.8573    2.4998 H   0  0  0  0  0  0  0  0  0  0  0  0
    0.8288    0.4301    2.5655 H   0  0  0  0  0  0  0  0  0  0  0  0
    0.4869    1.6088    1.2435 H   0  0  0  0  0  0  0  0  0  0  0  0
    0.7133   -1.4044    0.9350 H   0  0  0  0  0  0  0  0  0  0  0  0
    0.7026    0.6947   -1.2900 H   0  0  0  0  0  0  0  0  0  0  0  0
    0.0429   -2.2344   -1.3620 H   0  0  0  0  0  0  0  0  0  0  0  0
    0.6704   -1.2255   -2.6760 H   0  0  0  0  0  0  0  0  0  0  0  0
    2.6570   -2.1685   -2.1798 H   0  0  0  0  0  0  0  0  0  0  0  0
    2.0858   -2.8666   -0.6482 H   0  0  0  0  0  0  0  0  0  0  0  0
    4.8139   -1.4546   -1.5371 H   0  0  0  0  0  0  0  0  0  0  0  0
    7.0863   -0.3822    0.1833 H   0  0  0  0  0  0  0  0  0  0  0  0
    5.0483    1.6011    1.4071 H   0  0  0  0  0  0  0  0  0  0  0  0
    2.5900    1.3888    1.8772 H   0  0  0  0  0  0  0  0  0  0  0  0
   -1.5347   -1.2893   -0.5677 H   0  0  0  0  0  0  0  0  0  0  0  0
   -1.9325   -0.3110   -2.7751 H   0  0  0  0  0  0  0  0  0  0  0  0
   -1.4775    1.3090   -2.2068 H   0  0  0  0  0  0  0  0  0  0  0  0
   -3.9588   -0.1803   -1.7589 H   0  0  0  0  0  0  0  0  0  0  0  0
   -3.6865    1.5699   -1.6534 H   0  0  0  0  0  0  0  0  0  0  0  0
   -4.3461    1.2086    1.6256 H   0  0  0  0  0  0  0  0  0  0  0  0
   -4.9191   -0.7097    0.2679 H   0  0  0  0  0  0  0  0  0  0  0  0
   -3.4455   -1.6553    0.0225 H   0  0  0  0  0  0  0  0  0  0  0  0
   -3.3871   -1.9103    2.1125 H   0  0  0  0  0  0  0  0  0  0  0  0
  2  1  1  6
  2  3  1  0
  3  4  1  0
  4  5  1  0
  5  6  1  0
  6  7  1  0
  7  8  1  0
  8  9  1  0
  9 10  2  0
 10 11  1  0
 11 12  1  0
 11 13  2  0
 13 14  1  0
 14 15  2  0
  6 16  1  0
 16 17  1  0
 17 18  1  0
 18 19  1  0
 19 20  1  1
 19 21  1  0
 21 22  1  0
 16  2  1  0
 19  2  1  0
 15  5  1  0
 15  9  1  0
  1 23  1  0
  1 24  1  0
  1 25  1  0
  3 26  1  0
  3 27  1  0
  4 28  1  0
  4 29  1  0
  5 30  1  1
  6 31  1  6
  7 32  1  0
  7 33  1  0
  8 34  1  0
  8 35  1  0
 10 36  1  0
 12 37  1  0
 13 38  1  0
 14 39  1  0
 16 40  1  1
 17 41  1  0
 17 42  1  0
 18 43  1  0
 18 44  1  0
 20 45  1  0
 21 46  1  0
 21 47  1  0
 22 48  1  0
M  END
$$$$
[H]Oc1c([H])c([H])c2c(c1[H])C([H])([H])C([H])([H])[C@]1([H])[C@]2([H])C([H])([H])C([H])([H])[C@]2(C([H])([H])[H])C(=O)C([H])([H])C([H])([H])[C@]21[H]
     RDKit          3D

 42 45  0  0  0  0  0  0  0  0999 V2000
   -2.3836   -1.3778    0.8257 C   0  0  0  0  0  0  0  0  0  0  0  0
   -2.3951   -0.3698   -0.2852 C   0  0  2  0  0  0  0  0  0  0  0  0
   -1.7598   -0.9004   -1.5153 C   0  0  0  0  0  0  0  0  0  0  0  0
   -0.3170   -1.2045   -1.2834 C   0  0  0  0  0  0  0  0  0  0  0  0
    0.4177   -0.0069   -0.7638 C   0  0  1  0  0  0  0  0  0  0  0  0
   -0.2761    0.5001    0.5086 C   0  0  1  0  0  0  0  0  0  0  0  0
    0.5549    1.5641    1.1385 C   0  0  0  0  0  0  0  0  0  0  0  0
    1.7980    0.8874    1.7105 C   0  0  0  0  0  0  0  0  0  0  0  0
    2.4881    0.1807    0.6011 C   0  0  0  0  0  0  0  0  0  0  0  0
    3.8402   -0.0585    0.7570 C   0  0  0  0  0  0  0  0  0  0  0  0
    4.5868   -0.7091   -0.2117 C   0  0  0  0  0  0  0  0  0  0  0  0
    5.9465   -0.9509   -0.0576 O   0  0  0  0  0  0  0  0  0  0  0  0
    3.9471   -1.1249   -1.3612 C   0  0  0  0  0  0  0  0  0  0  0  0
    2.5817   -0.8803   -1.5123 C   0  0  0  0  0  0  0  0  0  0  0  0
    1.8436   -0.2328   -0.5460 C   0  0  0  0  0  0  0  0  0  0  0  0
   -1.6400    0.9102    0.1012 C   0  0  2  0  0  0  0  0  0  0  0  0
   -2.5077    1.4699    1.1580 C   0  0  0  0  0  0  0  0  0  0  0  0
   -3.9136    1.1834    0.6475 C   0  0  0  0  0  0  0  0  0  0  0  0
   -3.7498    0.1559   -0.4387 C   0  0  0  0  0  0  0  0  0  0  0  0
   -4.6384   -0.0938   -1.2208 O   0  0  0  0  0  0  0  0  0  0  0  0
   -3.3914   -1.8879    0.8200 H   0  0  0  0  0  0  0  0  0  0  0  0
   -1.6472   -2.1791    0.7081 H   0  0  0  0  0  0  0  0  0  0  0  0
   -2.2742   -0.9449    1.8221 H   0  0  0  0  0  0  0  0  0  0  0  0
   -2.2635   -1.8816   -1.7581 H   0  0  0  0  0  0  0  0  0  0  0  0
   -1.8882   -0.2573   -2.3877 H   0  0  0  0  0  0  0  0  0  0  0  0
    0.1290   -1.4583   -2.2896 H   0  0  0  0  0  0  0  0  0  0  0  0
   -0.1406   -2.1118   -0.6652 H   0  0  0  0  0  0  0  0  0  0  0  0
    0.2900    0.8123   -1.5159 H   0  0  0  0  0  0  0  0  0  0  0  0
   -0.3503   -0.3647    1.1951 H   0  0  0  0  0  0  0  0  0  0  0  0
    0.8623    2.3405    0.4054 H   0  0  0  0  0  0  0  0  0  0  0  0
    0.0062    2.0374    1.9702 H   0  0  0  0  0  0  0  0  0  0  0  0
    2.4773    1.6117    2.1919 H   0  0  0  0  0  0  0  0  0  0  0  0
    1.4380    0.0989    2.4174 H   0  0  0  0  0  0  0  0  0  0  0  0
    4.3787    0.2541    1.6485 H   0  0  0  0  0  0  0  0  0  0  0  0
    6.5810   -0.2178   -0.4065 H   0  0  0  0  0  0  0  0  0  0  0  0
    4.5311   -1.6331   -2.1172 H   0  0  0  0  0  0  0  0  0  0  0  0
    2.1491   -1.2339   -2.4373 H   0  0  0  0  0  0  0  0  0  0  0  0
   -1.6750    1.5692   -0.7863 H   0  0  0  0  0  0  0  0  0  0  0  0
   -2.3459    1.0738    2.1671 H   0  0  0  0  0  0  0  0  0  0  0  0
   -2.3932    2.5875    1.2018 H   0  0  0  0  0  0  0  0  0  0  0  0
   -4.5388    0.7605    1.4490 H   0  0  0  0  0  0  0  0  0  0  0  0
   -4.3579    2.0825    0.1732 H   0  0  0  0  0  0  0  0  0  0  0  0
  2  1  1  1
  2  3  1  0
  3  4  1  0
  4  5  1  0
  5  6  1  0
  6  7  1  0
  7  8  1  0
  8  9  1  0
  9 10  2  0
 10 11  1  0
 11 12  1  0
 11 13  2  0
 13 14  1  0
 14 15  2  0
  6 16  1  0
 16 17  1  0
 17 18  1  0
 18 19  1  0
 19 20  2  0
 16  2  1  0
 19  2  1  0
 15  5  1  0
 15  9  1  0
  1 21  1  0
  1 22  1  0
  1 23  1  0
  3 24  1  0
  3 25  1  0
  4 26  1  0
  4 27  1  0
  5 28  1  6
  6 29  1  1
  7 30  1  0
  7 31  1  0
  8 32  1  0
  8 33  1  0
 10 34  1  0
 12 35  1  0
 13 36  1  0
 14 37  1  0
 16 38  1  6
 17 39  1  0
 17 40  1  0
 18 41  1  0
 18 42  1  0
M  END
$$$$
[H]C#C[C@]1(O[H])C([H])([H])C([H])([H])[C@]2([H])[C@]1(C([H])([H])[H])C([H])([H])[C@]1([H])c3c([H])c([H])c(O[H])c([H])c3C([H])([H])C([H])([H])[C@]12[H]
     RDKit          3D

 43 46  0  0  0  0  0  0  0  0999 V2000
   -1.6920   -1.9291   -0.3169 C   0  0  0  0  0  0  0  0  0  0  0  0
   -1.6340   -0.4594   -0.5915 C   0  0  2  0  0  0  0  0  0  0  0  0
   -0.4846   -0.0272   -1.4182 C   0  0  0  0  0  0  0  0  0  0  0  0
    0.5239    0.4688   -0.4521 C   0  0  1  0  0  0  0  0  0  0  0  0
    0.0054   -0.0048    0.9270 C   0  0  1  0  0  0  0  0  0  0  0  0
    0.7693    0.7240    1.9573 C   0  0  0  0  0  0  0  0  0  0  0  0
    2.1811    1.0533    1.6391 C   0  0  0  0  0  0  0  0  0  0  0  0
    2.7409    0.3171    0.4813 C   0  0  0  0  0  0  0  0  0  0  0  0
    4.0683   -0.0615    0.4619 C   0  0  0  0  0  0  0  0  0  0  0  0
    4.5789   -0.7442   -0.6281 C   0  0  0  0  0  0  0  0  0  0  0  0
    5.9291   -1.1395   -0.6680 O   0  0  0  0  0  0  0  0  0  0  0  0
    3.7287   -1.0272   -1.6753 C   0  0  0  0  0  0  0  0  0  0  0  0
    2.3796   -0.6502   -1.6713 C   0  0  0  0  0  0  0  0  0  0  0  0
    1.8950    0.0289   -0.5735 C   0  0  0  0  0  0  0  0  0  0  0  0
   -1.3804    0.3454    0.7045 C   0  0  2  0  0  0  0  0  0  0  0  0
   -2.4901   -0.0849    1.5057 C   0  0  0  0  0  0  0  0  0  0  0  0
   -3.6511   -0.0026    0.4951 C   0  0  0  0  0  0  0  0  0  0  0  0
   -2.9817    0.0521   -0.8903 C   0  0  2  0  0  0  0  0  0  0  0  0
   -3.6131   -0.7841   -1.7885 O   0  0  0  0  0  0  0  0  0  0  0  0
   -2.9774    1.4522   -1.3329 C   0  0  0  0  0  0  0  0  0  0  0  0
   -2.9702    2.5981   -1.7073 C   0  0  0  0  0  0  0  0  0  0  0  0
   -1.0932   -2.4451   -1.1169 H   0  0  0  0  0  0  0  0  0  0  0  0
   -1.4007   -2.2280    0.6882 H   0  0  0  0  0  0  0  0  0  0  0  0
   -2.7402   -2.3221   -0.4679 H   0  0  0  0  0  0  0  0  0  0  0  0
   -0.8270    0.8396   -2.0451 H   0  0  0  0  0  0  0  0  0  0  0  0
   -0.1844   -0.8573   -2.0687 H   0  0  0  0  0  0  0  0  0  0  0  0
    0.4591    1.5953   -0.3610 H   0  0  0  0  0  0  0  0  0  0  0  0
    0.2576   -1.0740    0.9693 H   0  0  0  0  0  0  0  0  0  0  0  0
    0.2054    1.6729    2.1905 H   0  0  0  0  0  0  0  0  0  0  0  0
    0.6684    0.1366    2.9199 H   0  0  0  0  0  0  0  0  0  0  0  0
    2.7982    0.9306    2.5521 H   0  0  0  0  0  0  0  0  0  0  0  0
    2.2395    2.1477    1.3855 H   0  0  0  0  0  0  0  0  0  0  0  0
    4.7561    0.1475    1.2688 H   0  0  0  0  0  0  0  0  0  0  0  0
    6.6423   -0.5248   -1.0604 H   0  0  0  0  0  0  0  0  0  0  0  0
    4.1175   -1.5632   -2.5379 H   0  0  0  0  0  0  0  0  0  0  0  0
    1.7681   -0.8941   -2.5110 H   0  0  0  0  0  0  0  0  0  0  0  0
   -1.4797    1.4009    0.4005 H   0  0  0  0  0  0  0  0  0  0  0  0
   -2.7367    0.6712    2.2964 H   0  0  0  0  0  0  0  0  0  0  0  0
   -2.4439   -1.0542    1.9900 H   0  0  0  0  0  0  0  0  0  0  0  0
   -4.2964   -0.8767    0.5536 H   0  0  0  0  0  0  0  0  0  0  0  0
   -4.2478    0.9025    0.6390 H   0  0  0  0  0  0  0  0  0  0  0  0
   -4.4356   -0.3496   -2.0851 H   0  0  0  0  0  0  0  0  0  0  0  0
   -2.9521    3.6192   -2.0300 H   0  0  0  0  0  0  0  0  0  0  0  0
  2  1  1  1
  2  3  1  0
  3  4  1  0
  4  5  1  0
  5  6  1  0
  6  7  1  0
  7  8  1  0
  8  9  2  0
  9 10  1  0
 10 11  1  0
 10 12  2  0
 12 13  1  0
 13 14  2  0
  5 15  1  0
 15 16  1  0
 16 17  1  0
 17 18  1  0
 18 19  1  0
 18 20  1  6
 20 21  3  0
 15  2  1  0
 18  2  1  0
 14  4  1  0
 14  8  1  0
  1 22  1  0
  1 23  1  0
  1 24  1  0
  3 25  1  0
  3 26  1  0
  4 27  1  1
  5 28  1  1
  6 29  1  0
  6 30  1  0
  7 31  1  0
  7 32  1  0
  9 33  1  0
 11 34  1  0
 12 35  1  0
 13 36  1  0
 15 37  1  6
 16 38  1  0
 16 39  1  0
 17 40  1  0
 17 41  1  0
 19 42  1  0
 21 43  1  0
M  END
$$$$
[H]Oc1c([H])c([H])c2c(c1[H])C([H])([H])C([H])([H])[C@]1([H])[C@]2([H])C([H])([H])C([H])([H])[C@@]2(C([H])([H])[H])[C@@]1([H])C([H])([H])C([H])([H])[C@@]2(O[H])C([H])=C([H])[H]
     RDKit          3D

 48 51  0  0  0  0  0  0  0  0999 V2000
   -1.4448   -2.2019   -0.1031 C   0  0  0  0  0  0  0  0  0  0  0  0
   -1.6971   -0.7743   -0.5314 C   0  0  2  0  0  0  0  0  0  0  0  0
   -1.0598   -0.4626   -1.8323 C   0  0  0  0  0  0  0  0  0  0  0  0
    0.4313   -0.5862   -1.6857 C   0  0  0  0  0  0  0  0  0  0  0  0
    0.9320    0.2954   -0.5885 C   0  0  1  0  0  0  0  0  0  0  0  0
    0.2544   -0.0370    0.7337 C   0  0  1  0  0  0  0  0  0  0  0  0
    0.7423    0.8005    1.8615 C   0  0  0  0  0  0  0  0  0  0  0  0
    1.9812    1.5798    1.5930 C   0  0  0  0  0  0  0  0  0  0  0  0
    2.9319    0.8622    0.6960 C   0  0  0  0  0  0  0  0  0  0  0  0
    4.2878    0.8530    0.9659 C   0  0  0  0  0  0  0  0  0  0  0  0
    5.1495    0.1825    0.1228 C   0  0  0  0  0  0  0  0  0  0  0  0
    6.5275    0.1393    0.3451 O   0  0  0  0  0  0  0  0  0  0  0  0
    4.5953   -0.4569   -0.9693 C   0  0  0  0  0  0  0  0  0  0  0  0
    3.2402   -0.4460   -1.2364 C   0  0  0  0  0  0  0  0  0  0  0  0
    2.3778    0.2234   -0.3950 C   0  0  0  0  0  0  0  0  0  0  0  0
   -1.2011    0.2221    0.5134 C   0  0  2  0  0  0  0  0  0  0  0  0
   -2.0857   -0.0648    1.6647 C   0  0  0  0  0  0  0  0  0  0  0  0
   -3.4011   -0.5467    1.0423 C   0  0  0  0  0  0  0  0  0  0  0  0
   -3.1717   -0.5270   -0.4625 C   0  0  2  0  0  0  0  0  0  0  0  0
   -3.8370   -1.6412   -1.0012 O   0  0  0  0  0  0  0  0  0  0  0  0
   -3.6078    0.7215   -1.0873 C   0  0  0  0  0  0  0  0  0  0  0  0
   -3.8629    1.8483   -0.4342 C   0  0  0  0  0  0  0  0  0  0  0  0
   -0.7084   -2.7220   -0.7507 H   0  0  0  0  0  0  0  0  0  0  0  0
   -2.3891   -2.8152   -0.1977 H   0  0  0  0  0  0  0  0  0  0  0  0
   -1.1807   -2.2784    0.9818 H   0  0  0  0  0  0  0  0  0  0  0  0
   -1.3359    0.5316   -2.1873 H   0  0  0  0  0  0  0  0  0  0  0  0
   -1.3642   -1.2365   -2.5947 H   0  0  0  0  0  0  0  0  0  0  0  0
    0.8725   -0.1881   -2.6462 H   0  0  0  0  0  0  0  0  0  0  0  0
    0.7787   -1.6277   -1.6177 H   0  0  0  0  0  0  0  0  0  0  0  0
    0.5927    1.3417   -0.8339 H   0  0  0  0  0  0  0  0  0  0  0  0
    0.4826   -1.0976    0.9666 H   0  0  0  0  0  0  0  0  0  0  0  0
    0.9097    0.1804    2.7911 H   0  0  0  0  0  0  0  0  0  0  0  0
   -0.0490    1.5405    2.1834 H   0  0  0  0  0  0  0  0  0  0  0  0
    1.7828    2.5963    1.1753 H   0  0  0  0  0  0  0  0  0  0  0  0
    2.5082    1.7523    2.5538 H   0  0  0  0  0  0  0  0  0  0  0  0
    4.7110    1.3611    1.8301 H   0  0  0  0  0  0  0  0  0  0  0  0
    7.0599    0.8957   -0.0903 H   0  0  0  0  0  0  0  0  0  0  0  0
    5.2436   -0.9895   -1.6466 H   0  0  0  0  0  0  0  0  0  0  0  0
    2.8012   -0.9458   -2.0912 H   0  0  0  0  0  0  0  0  0  0  0  0
   -1.3094    1.2280    0.0796 H   0  0  0  0  0  0  0  0  0  0  0  0
   -2.3026    0.8638    2.2284 H   0  0  0  0  0  0  0  0  0  0  0  0
   -1.6668   -0.8312    2.3349 H   0  0  0  0  0  0  0  0  0  0  0  0
   -4.2510    0.0465    1.3586 H   0  0  0  0  0  0  0  0  0  0  0  0
   -3.5750   -1.5974    1.3796 H   0  0  0  0  0  0  0  0  0  0  0  0
   -4.0102   -1.4108   -1.9675 H   0  0  0  0  0  0  0  0  0  0  0  0
   -3.7348    0.7356   -2.1645 H   0  0  0  0  0  0  0  0  0  0  0  0
   -3.7635    1.9318    0.6519 H   0  0  0  0  0  0  0  0  0  0  0  0
   -4.1843    2.7514   -0.9383 H   0  0  0  0  0  0  0  0  0  0  0  0
  2  1  1  1
  2  3  1  0
  3  4  1  0
  4  5  1  0
  5  6  1  0
  6  7  1  0
  7  8  1  0
  8  9  1  0
  9 10  2  0
 10 11  1  0
 11 12  1  0
 11 13  2  0
 13 14  1  0
 14 15  2  0
  6 16  1  0
 16 17  1  0
 17 18  1  0
 18 19  1  0
 19 20  1  6
 19 21  1  0
 21 22  2  3
 16  2  1  0
 19  2  1  0
 15  5  1  0
 15  9  1  0
  1 23  1  0
  1 24  1  0
  1 25  1  0
  3 26  1  0
  3 27  1  0
  4 28  1  0
  4 29  1  0
  5 30  1  6
  6 31  1  1
  7 32  1  0
  7 33  1  0
  8 34  1  0
  8 35  1  0
 10 36  1  0
 12 37  1  0
 13 38  1  0
 14 39  1  0
 16 40  1  6
 17 41  1  0
 17 42  1  0
 18 43  1  0
 18 44  1  0
 20 45  1  0
 21 46  1  0
 22 47  1  0
 22 48  1  0
M  END
$$$$
[H]Oc1c([H])c([H])c2c(c1[H])C([H])([H])C([H])([H])[C@]1([H])[C@]2([H])C([H])([H])C([H])([H])[C@]2(C([H])([H])[H])[C@](O[H])(C(=O)C([H])([H])O[H])C([H])([H])C([H])([H])[C@]21[H]
     RDKit          3D

 50 53  0  0  0  0  0  0  0  0999 V2000
   -1.2814   -1.0710   -1.4501 C   0  0  0  0  0  0  0  0  0  0  0  0
   -1.4706    0.1107   -0.5269 C   0  0  2  0  0  0  0  0  0  0  0  0
   -0.8095    1.2901   -1.1479 C   0  0  0  0  0  0  0  0  0  0  0  0
    0.6561    0.9293   -1.3742 C   0  0  0  0  0  0  0  0  0  0  0  0
    1.3380    0.4881   -0.1366 C   0  0  1  0  0  0  0  0  0  0  0  0
    0.6138   -0.6009    0.6338 C   0  0  1  0  0  0  0  0  0  0  0  0
    1.2645   -0.7481    1.9923 C   0  0  0  0  0  0  0  0  0  0  0  0
    2.6549   -0.2169    2.0673 C   0  0  0  0  0  0  0  0  0  0  0  0
    3.4203   -0.3161    0.7971 C   0  0  0  0  0  0  0  0  0  0  0  0
    4.7175   -0.7385    0.7337 C   0  0  0  0  0  0  0  0  0  0  0  0
    5.3354   -0.7926   -0.4927 C   0  0  0  0  0  0  0  0  0  0  0  0
    6.6533   -1.2235   -0.5431 O   0  0  0  0  0  0  0  0  0  0  0  0
    4.6526   -0.4258   -1.6331 C   0  0  0  0  0  0  0  0  0  0  0  0
    3.3481   -0.0025   -1.5566 C   0  0  0  0  0  0  0  0  0  0  0  0
    2.7169    0.0593   -0.3572 C   0  0  0  0  0  0  0  0  0  0  0  0
   -0.7511   -0.0948    0.8043 C   0  0  2  0  0  0  0  0  0  0  0  0
   -1.7179   -0.8584    1.5980 C   0  0  0  0  0  0  0  0  0  0  0  0
   -2.9436    0.0614    1.4057 C   0  0  0  0  0  0  0  0  0  0  0  0
   -2.8799    0.2206   -0.1186 C   0  0  2  0  0  0  0  0  0  0  0  0
   -3.5866   -0.9143   -0.5969 O   0  0  0  0  0  0  0  0  0  0  0  0
   -3.6414    1.3728   -0.5963 C   0  0  0  0  0  0  0  0  0  0  0  0
   -3.2274    2.4760   -0.2814 O   0  0  0  0  0  0  0  0  0  0  0  0
   -4.8573    1.3776   -1.4175 C   0  0  0  0  0  0  0  0  0  0  0  0
   -5.3420    0.1602   -1.7836 O   0  0  0  0  0  0  0  0  0  0  0  0
   -1.7045   -0.7620   -2.4358 H   0  0  0  0  0  0  0  0  0  0  0  0
   -0.2528   -1.3698   -1.6235 H   0  0  0  0  0  0  0  0  0  0  0  0
   -1.9260   -1.9429   -1.1340 H   0  0  0  0  0  0  0  0  0  0  0  0
   -1.1952    1.5728   -2.1482 H   0  0  0  0  0  0  0  0  0  0  0  0
   -0.8133    2.1619   -0.4281 H   0  0  0  0  0  0  0  0  0  0  0  0
    1.1345    1.9031   -1.6749 H   0  0  0  0  0  0  0  0  0  0  0  0
    0.7364    0.2846   -2.2439 H   0  0  0  0  0  0  0  0  0  0  0  0
    1.3720    1.3688    0.5630 H   0  0  0  0  0  0  0  0  0  0  0  0
    0.7015   -1.5896    0.1521 H   0  0  0  0  0  0  0  0  0  0  0  0
    1.3073   -1.8281    2.3162 H   0  0  0  0  0  0  0  0  0  0  0  0
    0.6443   -0.2477    2.7787 H   0  0  0  0  0  0  0  0  0  0  0  0
    3.2172   -0.7152    2.8774 H   0  0  0  0  0  0  0  0  0  0  0  0
    2.5887    0.8790    2.3264 H   0  0  0  0  0  0  0  0  0  0  0  0
    5.2375   -1.0250    1.6595 H   0  0  0  0  0  0  0  0  0  0  0  0
    7.3747   -0.5068   -0.4541 H   0  0  0  0  0  0  0  0  0  0  0  0
    5.1525   -0.4704   -2.6176 H   0  0  0  0  0  0  0  0  0  0  0  0
    2.8338    0.2792   -2.4596 H   0  0  0  0  0  0  0  0  0  0  0  0
   -0.6777    0.9439    1.2437 H   0  0  0  0  0  0  0  0  0  0  0  0
   -1.4536   -0.9100    2.6810 H   0  0  0  0  0  0  0  0  0  0  0  0
   -1.9424   -1.8368    1.1649 H   0  0  0  0  0  0  0  0  0  0  0  0
   -3.8606   -0.4162    1.7336 H   0  0  0  0  0  0  0  0  0  0  0  0
   -2.6741    0.9910    1.9265 H   0  0  0  0  0  0  0  0  0  0  0  0
   -4.2722   -1.1998    0.0339 H   0  0  0  0  0  0  0  0  0  0  0  0
   -4.6708    1.9666   -2.3634 H   0  0  0  0  0  0  0  0  0  0  0  0
   -5.6198    2.0031   -0.8672 H   0  0  0  0  0  0  0  0  0  0  0  0
   -6.1000   -0.0762   -1.1624 H   0  0  0  0  0  0  0  0  0  0  0  0
  2  1  1  6
  2  3  1  0
  3  4  1  0
  4  5  1  0
  5  6  1  0
  6  7  1  0
  7  8  1  0
  8  9  1  0
  9 10  2  0
 10 11  1  0
 11 12  1  0
 11 13  2  0
 13 14  1  0
 14 15  2  0
  6 16  1  0
 16 17  1  0
 17 18  1  0
 18 19  1  0
 19 20  1  6
 19 21  1  0
 21 22  2  0
 21 23  1  0
 23 24  1  0
 16  2  1  0
 19  2  1  0
 15  5  1  0
 15  9  1  0
  1 25  1  0
  1 26  1  0
  1 27  1  0
  3 28  1  0
  3 29  1  0
  4 30  1  0
  4 31  1  0
  5 32  1  1
  6 33  1  6
  7 34  1  0
  7 35  1  0
  8 36  1  0
  8 37  1  0
 10 38  1  0
 12 39  1  0
 13 40  1  0
 14 41  1  0
 16 42  1  1
 17 43  1  0
 17 44  1  0
 18 45  1  0
 18 46  1  0
 20 47  1  0
 23 48  1  0
 23 49  1  0
 24 50  1  0
M  END
$$$$
[H]Oc1c([H])c([H])c2c(c1[H])C([H])([H])C([H])([H])[C@]1([H])[C@]2([H])C([H])([H])[C@]2(C([H])([H])[H])[C@@](C#Cc3c([H])c([H])c([H])c([H])c3[H])(O[H])C([H])([H])C([H])([H])[C@]21[H]
     RDKit          3D

 53 57  0  0  0  0  0  0  0  0999 V2000
   -0.6839   -2.2916    1.1897 C   0  0  0  0  0  0  0  0  0  0  0  0
    0.1043   -1.3852    0.2957 C   0  0  2  0  0  0  0  0  0  0  0  0
   -0.0120    0.0062    0.7726 C   0  0  0  0  0  0  0  0  0  0  0  0
   -1.2772    0.4968    0.1496 C   0  0  1  0  0  0  0  0  0  0  0  0
   -1.8233   -0.7066   -0.6605 C   0  0  1  0  0  0  0  0  0  0  0  0
   -2.7740   -0.1403   -1.6298 C   0  0  0  0  0  0  0  0  0  0  0  0
   -3.9648    0.3860   -0.8636 C   0  0  0  0  0  0  0  0  0  0  0  0
   -3.6444    0.7920    0.5112 C   0  0  0  0  0  0  0  0  0  0  0  0
   -4.7355    1.1284    1.3159 C   0  0  0  0  0  0  0  0  0  0  0  0
   -4.5876    1.5278    2.6237 C   0  0  0  0  0  0  0  0  0  0  0  0
   -5.7152    1.8580    3.3998 O   0  0  0  0  0  0  0  0  0  0  0  0
   -3.3181    1.5935    3.1432 C   0  0  0  0  0  0  0  0  0  0  0  0
   -2.2486    1.2622    2.3496 C   0  0  0  0  0  0  0  0  0  0  0  0
   -2.3629    0.8597    1.0401 C   0  0  0  0  0  0  0  0  0  0  0  0
   -0.5588   -1.2368   -1.0933 C   0  0  2  0  0  0  0  0  0  0  0  0
   -0.3685   -2.5548   -1.6493 C   0  0  0  0  0  0  0  0  0  0  0  0
    1.1125   -2.7900   -1.3016 C   0  0  0  0  0  0  0  0  0  0  0  0
    1.3914   -1.9427   -0.0670 C   0  0  2  0  0  0  0  0  0  0  0  0
    1.8116   -2.8419    0.9312 O   0  0  0  0  0  0  0  0  0  0  0  0
    2.4116   -0.9355   -0.3320 C   0  0  0  0  0  0  0  0  0  0  0  0
    3.2690   -0.1023   -0.5539 C   0  0  0  0  0  0  0  0  0  0  0  0
    4.2713    0.8886   -0.8375 C   0  0  0  0  0  0  0  0  0  0  0  0
    4.1765    1.7789   -1.8858 C   0  0  0  0  0  0  0  0  0  0  0  0
    5.1365    2.7300   -2.1597 C   0  0  0  0  0  0  0  0  0  0  0  0
    6.2624    2.8200   -1.3609 C   0  0  0  0  0  0  0  0  0  0  0  0
    6.3840    1.9432   -0.3060 C   0  0  0  0  0  0  0  0  0  0  0  0
    5.4242    1.0114   -0.0530 C   0  0  0  0  0  0  0  0  0  0  0  0
    0.0426   -2.7154    1.9440 H   0  0  0  0  0  0  0  0  0  0  0  0
   -1.4175   -1.7240    1.7992 H   0  0  0  0  0  0  0  0  0  0  0  0
   -1.1587   -3.1384    0.7011 H   0  0  0  0  0  0  0  0  0  0  0  0
    0.0178    0.0358    1.8668 H   0  0  0  0  0  0  0  0  0  0  0  0
    0.8334    0.5982    0.3137 H   0  0  0  0  0  0  0  0  0  0  0  0
   -1.1181    1.3354   -0.5709 H   0  0  0  0  0  0  0  0  0  0  0  0
   -2.3633   -1.3947    0.0222 H   0  0  0  0  0  0  0  0  0  0  0  0
   -2.3116    0.7223   -2.1595 H   0  0  0  0  0  0  0  0  0  0  0  0
   -3.1308   -0.9172   -2.3437 H   0  0  0  0  0  0  0  0  0  0  0  0
   -4.4643    1.2230   -1.3969 H   0  0  0  0  0  0  0  0  0  0  0  0
   -4.7134   -0.4321   -0.8119 H   0  0  0  0  0  0  0  0  0  0  0  0
   -5.7611    1.0835    0.9224 H   0  0  0  0  0  0  0  0  0  0  0  0
   -6.0003    2.8233    3.3708 H   0  0  0  0  0  0  0  0  0  0  0  0
   -3.1675    1.9057    4.1740 H   0  0  0  0  0  0  0  0  0  0  0  0
   -1.2725    1.3207    2.7722 H   0  0  0  0  0  0  0  0  0  0  0  0
    0.0416   -0.4860   -1.6398 H   0  0  0  0  0  0  0  0  0  0  0  0
   -1.0068   -3.3642   -1.3173 H   0  0  0  0  0  0  0  0  0  0  0  0
   -0.4758   -2.5135   -2.7733 H   0  0  0  0  0  0  0  0  0  0  0  0
    1.2972   -3.8503   -1.1459 H   0  0  0  0  0  0  0  0  0  0  0  0
    1.6858   -2.3541   -2.1467 H   0  0  0  0  0  0  0  0  0  0  0  0
    2.5205   -3.3890    0.5022 H   0  0  0  0  0  0  0  0  0  0  0  0
    3.3143    1.7446   -2.5354 H   0  0  0  0  0  0  0  0  0  0  0  0
    5.0538    3.4219   -2.9815 H   0  0  0  0  0  0  0  0  0  0  0  0
    7.0469    3.5448   -1.5275 H   0  0  0  0  0  0  0  0  0  0  0  0
    7.2676    2.0223    0.3117 H   0  0  0  0  0  0  0  0  0  0  0  0
    5.5598    0.3426    0.7856 H   0  0  0  0  0  0  0  0  0  0  0  0
  2  1  1  1
  2  3  1  0
  3  4  1  0
  4  5  1  0
  5  6  1  0
  6  7  1  0
  7  8  1  0
  8  9  2  0
  9 10  1  0
 10 11  1  0
 10 12  2  0
 12 13  1  0
 13 14  2  0
  5 15  1  0
 15 16  1  0
 16 17  1  0
 17 18  1  0
 18 19  1  0
 18 20  1  6
 20 21  3  0
 21 22  1  0
 22 23  2  0
 23 24  1  0
 24 25  2  0
 25 26  1  0
 26 27  2  0
 15  2  1  0
 27 22  1  0
 18  2  1  0
 14  4  1  0
 14  8  1  0
  1 28  1  0
  1 29  1  0
  1 30  1  0
  3 31  1  0
  3 32  1  0
  4 33  1  6
  5 34  1  1
  6 35  1  0
  6 36  1  0
  7 37  1  0
  7 38  1  0
  9 39  1  0
 11 40  1  0
 12 41  1  0
 13 42  1  0
 15 43  1  6
 16 44  1  0
 16 45  1  0
 17 46  1  0
 17 47  1  0
 19 48  1  0
 23 49  1  0
 24 50  1  0
 25 51  1  0
 26 52  1  0
 27 53  1  0
M  END
$$$$
[H]Oc1c([H])c([H])c2c(c1[H])C([H])([H])C([H])([H])[C@]1([H])[C@]2([H])C([H])([H])C([H])([H])[C@]2(C([H])([H])[H])[C@@](C#Cc3nc([H])c([H])c([H])c3[H])(O[H])C([H])([H])C([H])([H])[C@]21[H]
     RDKit          3D

 55 59  0  0  0  0  0  0  0  0999 V2000
   -0.4084   -2.6665   -0.0065 C   0  0  0  0  0  0  0  0  0  0  0  0
    0.4894   -1.4775   -0.1665 C   0  0  2  0  0  0  0  0  0  0  0  0
    0.5468   -0.6861    1.0896 C   0  0  0  0  0  0  0  0  0  0  0  0
   -0.8791   -0.3947    1.4874 C   0  0  0  0  0  0  0  0  0  0  0  0
   -1.5814    0.3604    0.4263 C   0  0  1  0  0  0  0  0  0  0  0  0
   -1.3778   -0.1443   -0.9731 C   0  0  1  0  0  0  0  0  0  0  0  0
   -1.7900    0.9615   -1.9198 C   0  0  0  0  0  0  0  0  0  0  0  0
   -2.9757    1.7475   -1.4880 C   0  0  0  0  0  0  0  0  0  0  0  0
   -3.7317    1.1708   -0.3494 C   0  0  0  0  0  0  0  0  0  0  0  0
   -5.1185    1.3260   -0.2481 C   0  0  0  0  0  0  0  0  0  0  0  0
   -5.8026    0.7861    0.8167 C   0  0  0  0  0  0  0  0  0  0  0  0
   -7.1885    0.9115    0.9669 O   0  0  0  0  0  0  0  0  0  0  0  0
   -5.1192    0.1003    1.7698 C   0  0  0  0  0  0  0  0  0  0  0  0
   -3.7525   -0.0506    1.6664 C   0  0  0  0  0  0  0  0  0  0  0  0
   -3.0351    0.4758    0.6153 C   0  0  0  0  0  0  0  0  0  0  0  0
    0.0256   -0.5273   -1.2522 C   0  0  2  0  0  0  0  0  0  0  0  0
    0.2584   -1.3098   -2.4826 C   0  0  0  0  0  0  0  0  0  0  0  0
    1.6075   -1.9816   -2.1959 C   0  0  0  0  0  0  0  0  0  0  0  0
    1.7986   -1.9416   -0.7024 C   0  0  2  0  0  0  0  0  0  0  0  0
    2.0390   -3.2333   -0.1951 O   0  0  0  0  0  0  0  0  0  0  0  0
    2.8224   -1.0037   -0.2797 C   0  0  0  0  0  0  0  0  0  0  0  0
    3.6840   -0.2398    0.0798 C   0  0  0  0  0  0  0  0  0  0  0  0
    4.7156    0.6569    0.5281 C   0  0  0  0  0  0  0  0  0  0  0  0
    4.7796    1.1044    1.8389 C   0  0  0  0  0  0  0  0  0  0  0  0
    5.7632    1.9648    2.2843 C   0  0  0  0  0  0  0  0  0  0  0  0
    6.7282    2.4062    1.4027 C   0  0  0  0  0  0  0  0  0  0  0  0
    6.6485    1.9522    0.1086 C   0  0  0  0  0  0  0  0  0  0  0  0
    5.6851    1.1172   -0.3026 N   0  0  0  0  0  0  0  0  0  0  0  0
   -0.0828   -3.2059    0.9064 H   0  0  0  0  0  0  0  0  0  0  0  0
   -0.2762   -3.3515   -0.8689 H   0  0  0  0  0  0  0  0  0  0  0  0
   -1.4644   -2.4459    0.0993 H   0  0  0  0  0  0  0  0  0  0  0  0
    1.0997   -1.2474    1.8573 H   0  0  0  0  0  0  0  0  0  0  0  0
    1.0694    0.2848    0.8514 H   0  0  0  0  0  0  0  0  0  0  0  0
   -0.8114    0.2762    2.3931 H   0  0  0  0  0  0  0  0  0  0  0  0
   -1.3400   -1.3325    1.8032 H   0  0  0  0  0  0  0  0  0  0  0  0
   -1.1775    1.4164    0.4389 H   0  0  0  0  0  0  0  0  0  0  0  0
   -2.0696   -1.0058   -1.2107 H   0  0  0  0  0  0  0  0  0  0  0  0
   -1.9699    0.4871   -2.9290 H   0  0  0  0  0  0  0  0  0  0  0  0
   -0.9252    1.6604   -2.1104 H   0  0  0  0  0  0  0  0  0  0  0  0
   -2.6885    2.7957   -1.1908 H   0  0  0  0  0  0  0  0  0  0  0  0
   -3.6949    1.8772   -2.3368 H   0  0  0  0  0  0  0  0  0  0  0  0
   -5.6526    1.8624   -0.9936 H   0  0  0  0  0  0  0  0  0  0  0  0
   -7.8462    0.2424    0.5895 H   0  0  0  0  0  0  0  0  0  0  0  0
   -5.6174   -0.3338    2.6127 H   0  0  0  0  0  0  0  0  0  0  0  0
   -3.2130   -0.5885    2.4131 H   0  0  0  0  0  0  0  0  0  0  0  0
    0.6630    0.3755   -1.1718 H   0  0  0  0  0  0  0  0  0  0  0  0
   -0.5350   -2.0408   -2.6488 H   0  0  0  0  0  0  0  0  0  0  0  0
    0.4285   -0.6914   -3.4003 H   0  0  0  0  0  0  0  0  0  0  0  0
    1.5372   -3.0487   -2.5034 H   0  0  0  0  0  0  0  0  0  0  0  0
    2.4309   -1.4732   -2.7199 H   0  0  0  0  0  0  0  0  0  0  0  0
    2.5506   -3.1963    0.6489 H   0  0  0  0  0  0  0  0  0  0  0  0
    4.0159    0.7479    2.5131 H   0  0  0  0  0  0  0  0  0  0  0  0
    5.8222    2.3191    3.3023 H   0  0  0  0  0  0  0  0  0  0  0  0
    7.5243    3.0928    1.7312 H   0  0  0  0  0  0  0  0  0  0  0  0
    7.3916    2.2846   -0.5949 H   0  0  0  0  0  0  0  0  0  0  0  0
  2  1  1  1
  2  3  1  0
  3  4  1  0
  4  5  1  0
  5  6  1  0
  6  7  1  0
  7  8  1  0
  8  9  1  0
  9 10  2  0
 10 11  1  0
 11 12  1  0
 11 13  2  0
 13 14  1  0
 14 15  2  0
  6 16  1  0
 16 17  1  0
 17 18  1  0
 18 19  1  0
 19 20  1  0
 19 21  1  6
 21 22  3  0
 22 23  1  0
 23 24  2  0
 24 25  1  0
 25 26  2  0
 26 27  1  0
 27 28  2  0
 16  2  1  0
 28 23  1  0
 19  2  1  0
 15  5  1  0
 15  9  1  0
  1 29  1  0
  1 30  1  0
  1 31  1  0
  3 32  1  0
  3 33  1  0
  4 34  1  0
  4 35  1  0
  5 36  1  6
  6 37  1  6
  7 38  1  0
  7 39  1  0
  8 40  1  0
  8 41  1  0
 10 42  1  0
 12 43  1  0
 13 44  1  0
 14 45  1  0
 16 46  1  6
 17 47  1  0
 17 48  1  0
 18 49  1  0
 18 50  1  0
 20 51  1  0
 24 52  1  0
 25 53  1  0
 26 54  1  0
 27 55  1  0
M  END
$$$$
[H]c1c([H])c([H])c([C@@]([H])(N([H])c2nc(N([H])c3c([H])c([H])c(S(=O)(=O)C([H])([H])[H])c([H])c3[H])nc3nc([H])n([H])c23)C([H])([H])[H])c([H])c1[H]
     RDKit          3D

 49 52  0  0  0  0  0  0  0  0999 V2000
    2.9773   -1.4128   -2.0447 C   0  0  0  0  0  0  0  0  0  0  0  0
    3.8812   -0.9961   -0.9266 C   0  0  2  0  0  0  0  0  0  0  0  0
    3.3219   -1.4441    0.3238 N   0  0  0  0  0  0  0  0  0  0  0  0
    1.9613   -1.3236    0.6864 C   0  0  0  0  0  0  0  0  0  0  0  0
    0.9980   -0.8271   -0.0926 N   0  0  0  0  0  0  0  0  0  0  0  0
   -0.3205   -0.7457    0.2780 C   0  0  0  0  0  0  0  0  0  0  0  0
   -1.2740   -0.2343   -0.6133 N   0  0  0  0  0  0  0  0  0  0  0  0
   -2.6478   -0.0670   -0.3846 C   0  0  0  0  0  0  0  0  0  0  0  0
   -3.5442   -0.0542   -1.4698 C   0  0  0  0  0  0  0  0  0  0  0  0
   -4.8870    0.1331   -1.3168 C   0  0  0  0  0  0  0  0  0  0  0  0
   -5.4057    0.3185   -0.0612 C   0  0  0  0  0  0  0  0  0  0  0  0
   -4.5764    0.3158    1.0354 C   0  0  0  0  0  0  0  0  0  0  0  0
   -3.2081    0.1223    0.8470 C   0  0  0  0  0  0  0  0  0  0  0  0
   -7.1364    0.5554    0.0954 S   0  0  0  0  0  0  0  0  0  0  0  0
   -7.4967    2.2868   -0.0176 C   0  0  0  0  0  0  0  0  0  0  0  0
   -7.6224    0.0232    1.4242 O   0  0  0  0  0  0  0  0  0  0  0  0
   -7.7985   -0.1514   -1.0468 O   0  0  0  0  0  0  0  0  0  0  0  0
   -0.6630   -1.1873    1.4858 N   0  0  0  0  0  0  0  0  0  0  0  0
    0.2470   -1.7000    2.3264 C   0  0  0  0  0  0  0  0  0  0  0  0
    0.1488   -2.1995    3.5682 N   0  0  0  0  0  0  0  0  0  0  0  0
    1.3603   -2.5939    3.9954 C   0  0  0  0  0  0  0  0  0  0  0  0
    2.2178   -2.3297    2.9925 N   0  0  0  0  0  0  0  0  0  0  0  0
    1.5803   -1.7798    1.9455 C   0  0  0  0  0  0  0  0  0  0  0  0
    4.4138    0.3464   -0.9583 C   0  0  0  0  0  0  0  0  0  0  0  0
    5.5641    0.6277   -1.6793 C   0  0  0  0  0  0  0  0  0  0  0  0
    6.1353    1.8798   -1.7452 C   0  0  0  0  0  0  0  0  0  0  0  0
    5.5634    2.9380   -1.0720 C   0  0  0  0  0  0  0  0  0  0  0  0
    4.4222    2.6793   -0.3511 C   0  0  0  0  0  0  0  0  0  0  0  0
    3.8475    1.3974   -0.2904 C   0  0  0  0  0  0  0  0  0  0  0  0
    2.2402   -0.6317   -2.3450 H   0  0  0  0  0  0  0  0  0  0  0  0
    3.5284   -1.7674   -2.9417 H   0  0  0  0  0  0  0  0  0  0  0  0
    2.3883   -2.2891   -1.7041 H   0  0  0  0  0  0  0  0  0  0  0  0
    4.8176   -1.6802   -1.0991 H   0  0  0  0  0  0  0  0  0  0  0  0
    3.9685   -1.8924    1.0224 H   0  0  0  0  0  0  0  0  0  0  0  0
   -0.9368    0.0767   -1.5979 H   0  0  0  0  0  0  0  0  0  0  0  0
   -3.0970   -0.2039   -2.4410 H   0  0  0  0  0  0  0  0  0  0  0  0
   -5.5024    0.1282   -2.2064 H   0  0  0  0  0  0  0  0  0  0  0  0
   -5.0025    0.4640    2.0238 H   0  0  0  0  0  0  0  0  0  0  0  0
   -2.6181    0.1517    1.7468 H   0  0  0  0  0  0  0  0  0  0  0  0
   -7.4392    2.7678    0.9620 H   0  0  0  0  0  0  0  0  0  0  0  0
   -6.7401    2.7606   -0.7037 H   0  0  0  0  0  0  0  0  0  0  0  0
   -8.4898    2.4482   -0.5019 H   0  0  0  0  0  0  0  0  0  0  0  0
    1.5877   -3.0407    4.9706 H   0  0  0  0  0  0  0  0  0  0  0  0
    3.2481   -2.5278    3.0260 H   0  0  0  0  0  0  0  0  0  0  0  0
    6.0188   -0.1890   -2.2081 H   0  0  0  0  0  0  0  0  0  0  0  0
    7.0380    2.0872   -2.3145 H   0  0  0  0  0  0  0  0  0  0  0  0
    5.9886    3.9312   -1.1051 H   0  0  0  0  0  0  0  0  0  0  0  0
    3.9763    3.5150    0.1766 H   0  0  0  0  0  0  0  0  0  0  0  0
    2.9658    1.3143    0.3066 H   0  0  0  0  0  0  0  0  0  0  0  0
  1  2  1  0
  2  3  1  0
  3  4  1  0
  4  5  2  0
  5  6  1  0
  6  7  1  0
  7  8  1  0
  8  9  2  0
  9 10  1  0
 10 11  2  0
 11 12  1  0
 12 13  2  0
 11 14  1  0
 14 15  1  0
 14 16  2  0
 14 17  2  0
  6 18  2  0
 18 19  1  0
 19 20  1  0
 20 21  2  0
 21 22  1  0
 22 23  1  0
  2 24  1  0
 24 25  2  0
 25 26  1  0
 26 27  2  0
 27 28  1  0
 28 29  2  0
 23  4  1  0
 29 24  1  0
 13  8  1  0
 23 19  2  0
  1 30  1  0
  1 31  1  0
  1 32  1  0
  2 33  1  6
  3 34  1  0
  7 35  1  0
  9 36  1  0
 10 37  1  0
 12 38  1  0
 13 39  1  0
 15 40  1  0
 15 41  1  0
 15 42  1  0
 21 43  1  0
 22 44  1  0
 25 45  1  0
 26 46  1  0
 27 47  1  0
 28 48  1  0
 29 49  1  0
M  END
$$$$
[H]Oc1c([H])c([H])c2c(c1[H])C([H])([H])C([H])([H])[C@]1([H])[C@]2([H])C([H])([H])[C@]2(C([H])([H])[H])[C@@]([H])(O[H])C([H])([H])C([H])([H])[C@]21[H]
     RDKit          3D

 41 44  0  0  0  0  0  0  0  0999 V2000
   -1.5643    1.0631   -1.4771 C   0  0  0  0  0  0  0  0  0  0  0  0
   -1.7029    0.7900   -0.0033 C   0  0  2  0  0  0  0  0  0  0  0  0
   -0.5663    1.2471    0.8163 C   0  0  0  0  0  0  0  0  0  0  0  0
    0.3703    0.1092    0.8029 C   0  0  1  0  0  0  0  0  0  0  0  0
   -0.2754   -0.9786   -0.0887 C   0  0  1  0  0  0  0  0  0  0  0  0
    0.3523   -2.2608    0.2788 C   0  0  0  0  0  0  0  0  0  0  0  0
    1.8517   -2.2226    0.2617 C   0  0  0  0  0  0  0  0  0  0  0  0
    2.4261   -0.8842    0.0718 C   0  0  0  0  0  0  0  0  0  0  0  0
    3.7317   -0.8111   -0.3861 C   0  0  0  0  0  0  0  0  0  0  0  0
    4.3589    0.3950   -0.5950 C   0  0  0  0  0  0  0  0  0  0  0  0
    5.6815    0.4206   -1.0593 O   0  0  0  0  0  0  0  0  0  0  0  0
    3.6553    1.5364   -0.3372 C   0  0  0  0  0  0  0  0  0  0  0  0
    2.3626    1.4748    0.1163 C   0  0  0  0  0  0  0  0  0  0  0  0
    1.7138    0.2989    0.3331 C   0  0  0  0  0  0  0  0  0  0  0  0
   -1.6576   -0.7335    0.2756 C   0  0  2  0  0  0  0  0  0  0  0  0
   -2.7836   -1.1963   -0.4991 C   0  0  0  0  0  0  0  0  0  0  0  0
   -3.8157   -0.0692   -0.3272 C   0  0  0  0  0  0  0  0  0  0  0  0
   -3.0793    1.0385    0.4499 C   0  0  2  0  0  0  0  0  0  0  0  0
   -3.5802    2.2828    0.1526 O   0  0  0  0  0  0  0  0  0  0  0  0
   -0.6797    1.7028   -1.6170 H   0  0  0  0  0  0  0  0  0  0  0  0
   -2.4434    1.6675   -1.7987 H   0  0  0  0  0  0  0  0  0  0  0  0
   -1.5437    0.1713   -2.1034 H   0  0  0  0  0  0  0  0  0  0  0  0
   -0.9485    1.4280    1.8646 H   0  0  0  0  0  0  0  0  0  0  0  0
   -0.1805    2.2131    0.4774 H   0  0  0  0  0  0  0  0  0  0  0  0
    0.4059   -0.3720    1.8191 H   0  0  0  0  0  0  0  0  0  0  0  0
    0.0127   -0.7116   -1.1201 H   0  0  0  0  0  0  0  0  0  0  0  0
   -0.0237   -2.6066    1.2744 H   0  0  0  0  0  0  0  0  0  0  0  0
   -0.0065   -3.0450   -0.4504 H   0  0  0  0  0  0  0  0  0  0  0  0
    2.2433   -2.9202   -0.5285 H   0  0  0  0  0  0  0  0  0  0  0  0
    2.2444   -2.6057    1.2450 H   0  0  0  0  0  0  0  0  0  0  0  0
    4.3124   -1.7194   -0.5986 H   0  0  0  0  0  0  0  0  0  0  0  0
    6.1545    1.2879   -1.2173 H   0  0  0  0  0  0  0  0  0  0  0  0
    4.1754    2.4877   -0.5108 H   0  0  0  0  0  0  0  0  0  0  0  0
    1.8397    2.3855    0.3088 H   0  0  0  0  0  0  0  0  0  0  0  0
   -1.8072   -0.8303    1.3586 H   0  0  0  0  0  0  0  0  0  0  0  0
   -2.6303   -1.4605   -1.5395 H   0  0  0  0  0  0  0  0  0  0  0  0
   -3.2479   -2.0978   -0.0067 H   0  0  0  0  0  0  0  0  0  0  0  0
   -4.7087   -0.3959    0.1985 H   0  0  0  0  0  0  0  0  0  0  0  0
   -4.0397    0.2894   -1.3523 H   0  0  0  0  0  0  0  0  0  0  0  0
   -3.1909    0.7716    1.5334 H   0  0  0  0  0  0  0  0  0  0  0  0
   -3.4165    2.8599    0.9591 H   0  0  0  0  0  0  0  0  0  0  0  0
  2  1  1  6
  2  3  1  0
  3  4  1  0
  4  5  1  0
  5  6  1  0
  6  7  1  0
  7  8  1  0
  8  9  2  0
  9 10  1  0
 10 11  1  0
 10 12  2  0
 12 13  1  0
 13 14  2  0
  5 15  1  0
 15 16  1  0
 16 17  1  0
 17 18  1  0
 18 19  1  0
 15  2  1  0
 18  2  1  0
 14  4  1  0
 14  8  1  0
  1 20  1  0
  1 21  1  0
  1 22  1  0
  3 23  1  0
  3 24  1  0
  4 25  1  1
  5 26  1  6
  6 27  1  0
  6 28  1  0
  7 29  1  0
  7 30  1  0
  9 31  1  0
 11 32  1  0
 12 33  1  0
 13 34  1  0
 15 35  1  1
 16 36  1  0
 16 37  1  0
 17 38  1  0
 17 39  1  0
 18 40  1  1
 19 41  1  0
M  END
$$$$
[H]Oc1c([H])c([H])c2c(c1[H])C([H])([H])C([H])([H])[C@]1([H])[C@]2([H])C([H])([H])[C@]2(C([H])([H])[H])C(=O)C([H])([H])C([H])([H])[C@]21[H]
     RDKit          3D

 39 42  0  0  0  0  0  0  0  0999 V2000
   -1.4535    2.0141   -0.0059 C   0  0  0  0  0  0  0  0  0  0  0  0
   -1.8229    0.7121    0.6162 C   0  0  2  0  0  0  0  0  0  0  0  0
   -0.8613    0.1896    1.6043 C   0  0  0  0  0  0  0  0  0  0  0  0
    0.0740   -0.6238    0.8257 C   0  0  1  0  0  0  0  0  0  0  0  0
   -0.4196   -0.6058   -0.6462 C   0  0  1  0  0  0  0  0  0  0  0  0
    0.0814   -1.8808   -1.2308 C   0  0  0  0  0  0  0  0  0  0  0  0
    1.5555   -1.9891   -1.0464 C   0  0  0  0  0  0  0  0  0  0  0  0
    2.1848   -0.9452   -0.2183 C   0  0  0  0  0  0  0  0  0  0  0  0
    3.5426   -0.6834   -0.4217 C   0  0  0  0  0  0  0  0  0  0  0  0
    4.1804    0.2807    0.3285 C   0  0  0  0  0  0  0  0  0  0  0  0
    5.5355    0.5366    0.1201 O   0  0  0  0  0  0  0  0  0  0  0  0
    3.4525    0.9760    1.2779 C   0  0  0  0  0  0  0  0  0  0  0  0
    2.1158    0.7039    1.4636 C   0  0  0  0  0  0  0  0  0  0  0  0
    1.4668   -0.2396    0.7378 C   0  0  0  0  0  0  0  0  0  0  0  0
   -1.8313   -0.4464   -0.4132 C   0  0  2  0  0  0  0  0  0  0  0  0
   -2.7834    0.1000   -1.3669 C   0  0  0  0  0  0  0  0  0  0  0  0
   -3.9100    0.5527   -0.4111 C   0  0  0  0  0  0  0  0  0  0  0  0
   -3.2408    0.7073    0.9148 C   0  0  0  0  0  0  0  0  0  0  0  0
   -3.7747    0.8057    1.9923 O   0  0  0  0  0  0  0  0  0  0  0  0
   -2.3576    2.6605   -0.1877 H   0  0  0  0  0  0  0  0  0  0  0  0
   -0.8184    2.5692    0.7425 H   0  0  0  0  0  0  0  0  0  0  0  0
   -0.9002    1.9830   -0.9360 H   0  0  0  0  0  0  0  0  0  0  0  0
   -1.4404   -0.4517    2.3354 H   0  0  0  0  0  0  0  0  0  0  0  0
   -0.4551    1.0090    2.2029 H   0  0  0  0  0  0  0  0  0  0  0  0
    0.0380   -1.6958    1.1797 H   0  0  0  0  0  0  0  0  0  0  0  0
    0.0843    0.2222   -1.1837 H   0  0  0  0  0  0  0  0  0  0  0  0
   -0.4098   -2.7285   -0.6703 H   0  0  0  0  0  0  0  0  0  0  0  0
   -0.2335   -2.0266   -2.2877 H   0  0  0  0  0  0  0  0  0  0  0  0
    1.8298   -2.9719   -0.5754 H   0  0  0  0  0  0  0  0  0  0  0  0
    2.0194   -1.9777   -2.0667 H   0  0  0  0  0  0  0  0  0  0  0  0
    4.1295   -1.2111   -1.1540 H   0  0  0  0  0  0  0  0  0  0  0  0
    5.7946    1.2317   -0.5553 H   0  0  0  0  0  0  0  0  0  0  0  0
    3.9543    1.7296    1.8632 H   0  0  0  0  0  0  0  0  0  0  0  0
    1.5632    1.2486    2.2016 H   0  0  0  0  0  0  0  0  0  0  0  0
   -2.2546   -1.3331    0.0898 H   0  0  0  0  0  0  0  0  0  0  0  0
   -3.1980   -0.6362   -2.0948 H   0  0  0  0  0  0  0  0  0  0  0  0
   -2.4204    1.0088   -1.8788 H   0  0  0  0  0  0  0  0  0  0  0  0
   -4.3690    1.4853   -0.7653 H   0  0  0  0  0  0  0  0  0  0  0  0
   -4.6479   -0.2800   -0.4053 H   0  0  0  0  0  0  0  0  0  0  0  0
  2  1  1  6
  2  3  1  0
  3  4  1  0
  4  5  1  0
  5  6  1  0
  6  7  1  0
  7  8  1  0
  8  9  2  0
  9 10  1  0
 10 11  1  0
 10 12  2  0
 12 13  1  0
 13 14  2  0
  5 15  1  0
 15 16  1  0
 16 17  1  0
 17 18  1  0
 18 19  2  0
 15  2  1  0
 18  2  1  0
 14  4  1  0
 14  8  1  0
  1 20  1  0
  1 21  1  0
  1 22  1  0
  3 23  1  0
  3 24  1  0
  4 25  1  1
  5 26  1  6
  6 27  1  0
  6 28  1  0
  7 29  1  0
  7 30  1  0
  9 31  1  0
 11 32  1  0
 12 33  1  0
 13 34  1  0
 15 35  1  1
 16 36  1  0
 16 37  1  0
 17 38  1  0
 17 39  1  0
M  END
$$$$
[H]c1nc(-c2nc(N([H])c3c([H])c([H])c(C(F)(F)F)c([H])c3[H])c3c([H])c([H])c([H])c([H])c3n2)c([H])c([H])c1[H]
     RDKit          3D

 40 43  0  0  0  0  0  0  0  0999 V2000
    6.8840   -1.3904   -1.1779 F   0  0  0  0  0  0  0  0  0  0  0  0
    6.2653   -2.0257   -0.0779 C   0  0  0  0  0  0  0  0  0  0  0  0
    7.1112   -1.7448    0.9794 F   0  0  0  0  0  0  0  0  0  0  0  0
    6.2513   -3.3467   -0.3825 F   0  0  0  0  0  0  0  0  0  0  0  0
    4.9381   -1.4540    0.1214 C   0  0  0  0  0  0  0  0  0  0  0  0
    4.6642   -0.6271    1.2460 C   0  0  0  0  0  0  0  0  0  0  0  0
    3.5134    0.0225    1.2801 C   0  0  0  0  0  0  0  0  0  0  0  0
    2.4884   -0.0056    0.3204 C   0  0  0  0  0  0  0  0  0  0  0  0
    1.4396    0.9037    0.2392 N   0  0  0  0  0  0  0  0  0  0  0  0
    0.0760    0.7695    0.0461 C   0  0  0  0  0  0  0  0  0  0  0  0
   -0.7144   -0.2208    0.2259 N   0  0  0  0  0  0  0  0  0  0  0  0
   -1.7730   -0.7599    0.2568 C   0  0  0  0  0  0  0  0  0  0  0  0
   -2.5413    0.6920   -0.2126 N   0  0  0  0  0  0  0  0  0  0  0  0
   -2.0296    1.7352   -0.4226 C   0  0  0  0  0  0  0  0  0  0  0  0
   -2.7803    2.8643   -0.8089 C   0  0  0  0  0  0  0  0  0  0  0  0
   -2.2246    4.0218   -1.0770 C   0  0  0  0  0  0  0  0  0  0  0  0
   -0.9024    4.1823   -0.9962 C   0  0  0  0  0  0  0  0  0  0  0  0
   -0.0757    3.1144   -0.6219 C   0  0  0  0  0  0  0  0  0  0  0  0
   -0.6253    1.9190   -0.3248 C   0  0  0  0  0  0  0  0  0  0  0  0
   -3.0857   -1.3834    0.3081 C   0  0  0  0  0  0  0  0  0  0  0  0
   -4.2016   -0.8386    0.8689 C   0  0  0  0  0  0  0  0  0  0  0  0
   -5.3865   -1.5459    1.0166 C   0  0  0  0  0  0  0  0  0  0  0  0
   -5.4683   -2.8158    0.5733 C   0  0  0  0  0  0  0  0  0  0  0  0
   -4.3264   -3.3165    0.0115 C   0  0  0  0  0  0  0  0  0  0  0  0
   -3.1743   -2.7406   -0.1446 N   0  0  0  0  0  0  0  0  0  0  0  0
    2.7563   -0.8153   -0.7718 C   0  0  0  0  0  0  0  0  0  0  0  0
    3.9538   -1.4998   -0.8331 C   0  0  0  0  0  0  0  0  0  0  0  0
    5.4036   -0.5890    2.0010 H   0  0  0  0  0  0  0  0  0  0  0  0
    3.2117    0.7024    2.1582 H   0  0  0  0  0  0  0  0  0  0  0  0
    1.7822    1.9368    0.4671 H   0  0  0  0  0  0  0  0  0  0  0  0
   -3.8788    2.6784   -0.8525 H   0  0  0  0  0  0  0  0  0  0  0  0
   -2.8710    4.8787   -1.3950 H   0  0  0  0  0  0  0  0  0  0  0  0
   -0.4083    5.1490   -1.2085 H   0  0  0  0  0  0  0  0  0  0  0  0
    0.9511    3.2751   -0.5791 H   0  0  0  0  0  0  0  0  0  0  0  0
   -4.2556    0.1874    1.1979 H   0  0  0  0  0  0  0  0  0  0  0  0
   -6.2454   -1.0714    1.4581 H   0  0  0  0  0  0  0  0  0  0  0  0
   -6.3624   -3.3614    0.7072 H   0  0  0  0  0  0  0  0  0  0  0  0
   -4.5359   -4.3917   -0.3645 H   0  0  0  0  0  0  0  0  0  0  0  0
    2.0132   -0.9110   -1.5412 H   0  0  0  0  0  0  0  0  0  0  0  0
    4.1637   -2.1771   -1.6904 H   0  0  0  0  0  0  0  0  0  0  0  0
  1  2  1  0
  2  3  1  0
  2  4  1  0
  2  5  1  0
  5  6  2  0
  6  7  1  0
  7  8  2  0
  8  9  1  0
  9 10  1  0
 10 11  2  0
 11 12  1  0
 12 13  2  0
 13 14  1  0
 14 15  2  0
 15 16  1  0
 16 17  2  0
 17 18  1  0
 18 19  2  0
 12 20  1  0
 20 21  2  0
 21 22  1  0
 22 23  2  0
 23 24  1  0
 24 25  2  0
  8 26  1  0
 26 27  2  0
 27  5  1  0
 19 10  1  0
 25 20  1  0
 19 14  1  0
  6 28  1  0
  7 29  1  0
  9 30  1  0
 15 31  1  0
 16 32  1  0
 17 33  1  0
 18 34  1  0
 21 35  1  0
 22 36  1  0
 23 37  1  0
 24 38  1  0
 26 39  1  0
 27 40  1  0
M  END
$$$$
