[H]N(C1=NC([H])([H])C([H])([H])O1)C1([H])C([H])([H])C([H])([H])C([H])([H])C([H])([H])C1([H])[H]
     RDKit          3D

 28 29  0  0  0  0  0  0  0  0999 V2000
   -3.9869   -0.3104   -0.4703 C   0  0  0  0  0  0  0  0  0  0  0  0
   -3.6790   -0.5053    0.9855 C   0  0  0  0  0  0  0  0  0  0  0  0
   -2.4394    0.2100    1.1672 N   0  0  0  0  0  0  0  0  0  0  0  0
   -1.8962    0.4160    0.0276 C   0  0  0  0  0  0  0  0  0  0  0  0
   -0.6698    1.0805   -0.2802 N   0  0  0  0  0  0  0  0  0  0  0  0
    0.4814    0.2769   -0.6326 C   0  0  0  0  0  0  0  0  0  0  0  0
    0.7665   -0.6281    0.5657 C   0  0  0  0  0  0  0  0  0  0  0  0
    2.0585   -1.3533    0.2555 C   0  0  0  0  0  0  0  0  0  0  0  0
    3.1764   -0.3477    0.2824 C   0  0  0  0  0  0  0  0  0  0  0  0
    2.7116    1.0596    0.0403 C   0  0  0  0  0  0  0  0  0  0  0  0
    1.6659    1.0942   -1.0256 C   0  0  0  0  0  0  0  0  0  0  0  0
   -2.6862   -0.1200   -1.0044 O   0  0  0  0  0  0  0  0  0  0  0  0
   -4.4214   -1.1890   -0.9624 H   0  0  0  0  0  0  0  0  0  0  0  0
   -4.5556    0.6183   -0.6830 H   0  0  0  0  0  0  0  0  0  0  0  0
   -4.4736   -0.1203    1.6576 H   0  0  0  0  0  0  0  0  0  0  0  0
   -3.4697   -1.5798    1.1507 H   0  0  0  0  0  0  0  0  0  0  0  0
   -0.6457    2.1201   -0.2407 H   0  0  0  0  0  0  0  0  0  0  0  0
    0.2291   -0.4365   -1.4705 H   0  0  0  0  0  0  0  0  0  0  0  0
   -0.0936   -1.3359    0.6228 H   0  0  0  0  0  0  0  0  0  0  0  0
    0.8124   -0.0385    1.4822 H   0  0  0  0  0  0  0  0  0  0  0  0
    2.2266   -2.1983    0.9582 H   0  0  0  0  0  0  0  0  0  0  0  0
    1.9440   -1.7572   -0.7895 H   0  0  0  0  0  0  0  0  0  0  0  0
    3.8974   -0.6233   -0.5032 H   0  0  0  0  0  0  0  0  0  0  0  0
    3.6290   -0.3779    1.3116 H   0  0  0  0  0  0  0  0  0  0  0  0
    3.5894    1.6521   -0.3430 H   0  0  0  0  0  0  0  0  0  0  0  0
    2.2882    1.5424    0.9579 H   0  0  0  0  0  0  0  0  0  0  0  0
    1.4216    2.1589   -1.2248 H   0  0  0  0  0  0  0  0  0  0  0  0
    2.1191    0.6926   -1.9639 H   0  0  0  0  0  0  0  0  0  0  0  0
  1  2  1  0
  2  3  1  0
  3  4  2  0
  4  5  1  0
  5  6  1  0
  6  7  1  0
  7  8  1  0
  8  9  1  0
  9 10  1  0
 10 11  1  0
  4 12  1  0
 12  1  1  0
 11  6  1  0
  1 13  1  0
  1 14  1  0
  2 15  1  0
  2 16  1  0
  5 17  1  0
  6 18  1  0
  7 19  1  0
  7 20  1  0
  8 21  1  0
  8 22  1  0
  9 23  1  0
  9 24  1  0
 10 25  1  0
 10 26  1  0
 11 27  1  0
 11 28  1  0
M  END
$$$$
[H]/C(=C(/[H])c1c([H])c([H])c(N2C(=O)C([H])([H])c3c([H])c([H])c([H])c([H])c3C2([H])[H])c([H])c1[H])c1noc(C([H])([H])[H])c1C([H])([H])[H]
     RDKit          3D

 46 49  0  0  0  0  0  0  0  0999 V2000
    5.9568    1.9728   -0.6001 C   0  0  0  0  0  0  0  0  0  0  0  0
    6.1309    0.6014   -0.0224 C   0  0  0  0  0  0  0  0  0  0  0  0
    7.3067   -0.0794    0.2392 C   0  0  0  0  0  0  0  0  0  0  0  0
    8.6627    0.4593   -0.0402 C   0  0  0  0  0  0  0  0  0  0  0  0
    6.9767   -1.2301    0.7536 O   0  0  0  0  0  0  0  0  0  0  0  0
    5.6899   -1.3474    0.8446 N   0  0  0  0  0  0  0  0  0  0  0  0
    5.1061   -0.2178    0.3671 C   0  0  0  0  0  0  0  0  0  0  0  0
    3.6620    0.0530    0.2580 C   0  0  0  0  0  0  0  0  0  0  0  0
    2.7507   -0.7757    0.6760 C   0  0  0  0  0  0  0  0  0  0  0  0
    1.3123   -0.5443    0.5840 C   0  0  0  0  0  0  0  0  0  0  0  0
    0.4244   -1.4951    1.0947 C   0  0  0  0  0  0  0  0  0  0  0  0
   -0.9397   -1.3614    1.0218 C   0  0  0  0  0  0  0  0  0  0  0  0
   -1.4579   -0.2220    0.4076 C   0  0  0  0  0  0  0  0  0  0  0  0
   -0.5627    0.7127   -0.0937 C   0  0  0  0  0  0  0  0  0  0  0  0
    0.7950    0.5778   -0.0194 C   0  0  0  0  0  0  0  0  0  0  0  0
   -2.8519   -0.0759    0.3210 N   0  0  0  0  0  0  0  0  0  0  0  0
   -3.5109   -0.0839   -0.9594 C   0  0  0  0  0  0  0  0  0  0  0  0
   -4.9850   -0.2631   -0.8765 C   0  0  0  0  0  0  0  0  0  0  0  0
   -5.6524   -0.7772   -1.9951 C   0  0  0  0  0  0  0  0  0  0  0  0
   -7.0081   -0.9634   -1.9865 C   0  0  0  0  0  0  0  0  0  0  0  0
   -7.7738   -0.6540   -0.8838 C   0  0  0  0  0  0  0  0  0  0  0  0
   -7.1142   -0.1491    0.2140 C   0  0  0  0  0  0  0  0  0  0  0  0
   -5.7416    0.0434    0.2192 C   0  0  0  0  0  0  0  0  0  0  0  0
   -5.0478    0.5919    1.4144 C   0  0  0  0  0  0  0  0  0  0  0  0
   -3.6528    0.0774    1.4834 C   0  0  0  0  0  0  0  0  0  0  0  0
   -3.2243   -0.2138    2.6391 O   0  0  0  0  0  0  0  0  0  0  0  0
    6.9273    2.4156   -0.8968 H   0  0  0  0  0  0  0  0  0  0  0  0
    5.2812    1.9082   -1.4724 H   0  0  0  0  0  0  0  0  0  0  0  0
    5.5334    2.6266    0.2045 H   0  0  0  0  0  0  0  0  0  0  0  0
    8.6862    0.9467   -1.0237 H   0  0  0  0  0  0  0  0  0  0  0  0
    8.9851    1.1661    0.7213 H   0  0  0  0  0  0  0  0  0  0  0  0
    9.3758   -0.4037   -0.0142 H   0  0  0  0  0  0  0  0  0  0  0  0
    3.3592    0.9863   -0.1900 H   0  0  0  0  0  0  0  0  0  0  0  0
    3.1036   -1.7027    1.1300 H   0  0  0  0  0  0  0  0  0  0  0  0
    0.8416   -2.3747    1.5688 H   0  0  0  0  0  0  0  0  0  0  0  0
   -1.6201   -2.1204    1.4347 H   0  0  0  0  0  0  0  0  0  0  0  0
   -0.9706    1.6137   -0.5803 H   0  0  0  0  0  0  0  0  0  0  0  0
    1.4075    1.3573   -0.4379 H   0  0  0  0  0  0  0  0  0  0  0  0
   -3.3388    0.9207   -1.4238 H   0  0  0  0  0  0  0  0  0  0  0  0
   -3.1436   -0.9032   -1.6171 H   0  0  0  0  0  0  0  0  0  0  0  0
   -5.0445   -1.0193   -2.8653 H   0  0  0  0  0  0  0  0  0  0  0  0
   -7.5267   -1.3625   -2.8497 H   0  0  0  0  0  0  0  0  0  0  0  0
   -8.8621   -0.8018   -0.8806 H   0  0  0  0  0  0  0  0  0  0  0  0
   -7.6452    0.1134    1.1073 H   0  0  0  0  0  0  0  0  0  0  0  0
   -5.6312    0.3129    2.3048 H   0  0  0  0  0  0  0  0  0  0  0  0
   -4.9693    1.6844    1.2420 H   0  0  0  0  0  0  0  0  0  0  0  0
  1  2  1  0
  2  3  2  0
  3  4  1  0
  3  5  1  0
  5  6  1  0
  6  7  2  0
  7  8  1  0
  8  9  2  0
  9 10  1  0
 10 11  2  0
 11 12  1  0
 12 13  2  0
 13 14  1  0
 14 15  2  0
 13 16  1  0
 16 17  1  0
 17 18  1  0
 18 19  2  0
 19 20  1  0
 20 21  2  0
 21 22  1  0
 22 23  2  0
 23 24  1  0
 24 25  1  0
 25 26  2  0
  7  2  1  0
 15 10  1  0
 25 16  1  0
 23 18  1  0
  1 27  1  0
  1 28  1  0
  1 29  1  0
  4 30  1  0
  4 31  1  0
  4 32  1  0
  8 33  1  0
  9 34  1  0
 11 35  1  0
 12 36  1  0
 14 37  1  0
 15 38  1  0
 17 39  1  0
 17 40  1  0
 19 41  1  0
 20 42  1  0
 21 43  1  0
 22 44  1  0
 24 45  1  0
 24 46  1  0
M  END
$$$$
[H]c1nc([H])c(Cl)c(N([H])C(=O)N([H])c2c([H])c(-c3c([H])c([H])c([H])c(C(F)(F)F)c3[H])nn2C([H])([H])[H])c1Cl
     RDKit          3D

 40 42  0  0  0  0  0  0  0  0999 V2000
    0.0354   -4.0563    1.2629 C   0  0  0  0  0  0  0  0  0  0  0  0
   -0.5824   -2.7949    0.8683 N   0  0  0  0  0  0  0  0  0  0  0  0
   -1.8635   -2.5054    0.6666 N   0  0  0  0  0  0  0  0  0  0  0  0
   -2.0417   -1.2564    0.3016 C   0  0  0  0  0  0  0  0  0  0  0  0
   -0.7570   -0.7003    0.2667 C   0  0  0  0  0  0  0  0  0  0  0  0
    0.1441   -1.6624    0.6213 C   0  0  0  0  0  0  0  0  0  0  0  0
    1.5512   -1.5278    0.7561 N   0  0  0  0  0  0  0  0  0  0  0  0
    2.3049   -0.3826    0.4517 C   0  0  0  0  0  0  0  0  0  0  0  0
    1.7856    0.6479   -0.0301 O   0  0  0  0  0  0  0  0  0  0  0  0
    3.6999   -0.3453    0.6827 N   0  0  0  0  0  0  0  0  0  0  0  0
    4.5423    0.7415    0.4082 C   0  0  0  0  0  0  0  0  0  0  0  0
    4.7347    1.8066    1.2473 C   0  0  0  0  0  0  0  0  0  0  0  0
    3.8677    1.9029    2.7671 Cl  0  0  0  0  0  0  0  0  0  0  0  0
    5.6182    2.8264    0.8892 C   0  0  0  0  0  0  0  0  0  0  0  0
    6.3055    2.7981   -0.2846 N   0  0  0  0  0  0  0  0  0  0  0  0
    6.1229    1.7584   -1.1128 C   0  0  0  0  0  0  0  0  0  0  0  0
    5.2615    0.7438   -0.7855 C   0  0  0  0  0  0  0  0  0  0  0  0
    5.0463   -0.6017   -1.8889 Cl  0  0  0  0  0  0  0  0  0  0  0  0
   -3.2774   -0.5416   -0.0043 C   0  0  0  0  0  0  0  0  0  0  0  0
   -4.5067   -1.1636    0.0796 C   0  0  0  0  0  0  0  0  0  0  0  0
   -5.6745   -0.4885   -0.2078 C   0  0  0  0  0  0  0  0  0  0  0  0
   -5.6534    0.8528   -0.5955 C   0  0  0  0  0  0  0  0  0  0  0  0
   -4.4365    1.4916   -0.6852 C   0  0  0  0  0  0  0  0  0  0  0  0
   -3.2705    0.7844   -0.3883 C   0  0  0  0  0  0  0  0  0  0  0  0
   -4.4034    2.9170   -1.1040 C   0  0  0  0  0  0  0  0  0  0  0  0
   -4.9210    3.0938   -2.3652 F   0  0  0  0  0  0  0  0  0  0  0  0
   -3.1009    3.3933   -1.1237 F   0  0  0  0  0  0  0  0  0  0  0  0
   -5.1081    3.7329   -0.2274 F   0  0  0  0  0  0  0  0  0  0  0  0
    0.4818   -3.9077    2.2544 H   0  0  0  0  0  0  0  0  0  0  0  0
    0.8155   -4.3523    0.4935 H   0  0  0  0  0  0  0  0  0  0  0  0
   -0.7352   -4.8637    1.2788 H   0  0  0  0  0  0  0  0  0  0  0  0
   -0.5806    0.3210   -0.0001 H   0  0  0  0  0  0  0  0  0  0  0  0
    2.1090   -2.3520    1.1584 H   0  0  0  0  0  0  0  0  0  0  0  0
    4.1441   -1.2053    1.0940 H   0  0  0  0  0  0  0  0  0  0  0  0
    5.7430    3.6480    1.5725 H   0  0  0  0  0  0  0  0  0  0  0  0
    6.6963    1.7704   -2.0516 H   0  0  0  0  0  0  0  0  0  0  0  0
   -4.5472   -2.2141    0.3833 H   0  0  0  0  0  0  0  0  0  0  0  0
   -6.6518   -0.9463   -0.1529 H   0  0  0  0  0  0  0  0  0  0  0  0
   -6.5913    1.3562   -0.8158 H   0  0  0  0  0  0  0  0  0  0  0  0
   -2.3069    1.2812   -0.4583 H   0  0  0  0  0  0  0  0  0  0  0  0
  1  2  1  0
  2  3  1  0
  3  4  2  0
  4  5  1  0
  5  6  2  0
  6  7  1  0
  7  8  1  0
  8  9  2  0
  8 10  1  0
 10 11  1  0
 11 12  2  0
 12 13  1  0
 12 14  1  0
 14 15  2  0
 15 16  1  0
 16 17  2  0
 17 18  1  0
  4 19  1  0
 19 20  2  0
 20 21  1  0
 21 22  2  0
 22 23  1  0
 23 24  2  0
 23 25  1  0
 25 26  1  0
 25 27  1  0
 25 28  1  0
  6  2  1  0
 17 11  1  0
 24 19  1  0
  1 29  1  0
  1 30  1  0
  1 31  1  0
  5 32  1  0
  7 33  1  0
 10 34  1  0
 14 35  1  0
 16 36  1  0
 20 37  1  0
 21 38  1  0
 22 39  1  0
 24 40  1  0
M  END
$$$$
[H]c1c([H])c([H])c2c(c1[H])c(C1=C(c3c([H])n(C4([H])C([H])([H])N(C(=O)C([H])([H])[H])C([H])([H])C([H])([H])C4([H])[H])c4c([H])c([H])c([H])c([H])c34)C(=O)N([H])C1=O)c([H])n2C([H])([H])[H]
     RDKit          3D

 61 66  0  0  0  0  0  0  0  0999 V2000
    4.7586    1.0154    1.7829 C   0  0  0  0  0  0  0  0  0  0  0  0
    4.6594   -0.4552    1.7315 C   0  0  0  0  0  0  0  0  0  0  0  0
    4.7759   -1.1141    2.7924 O   0  0  0  0  0  0  0  0  0  0  0  0
    4.4358   -1.1665    0.5227 N   0  0  0  0  0  0  0  0  0  0  0  0
    4.3440   -2.6128    0.4964 C   0  0  0  0  0  0  0  0  0  0  0  0
    4.0970   -3.0178   -0.9410 C   0  0  0  0  0  0  0  0  0  0  0  0
    2.9080   -2.3055   -1.5555 C   0  0  0  0  0  0  0  0  0  0  0  0
    2.9701   -0.8069   -1.3950 C   0  0  0  0  0  0  0  0  0  0  0  0
    1.8262   -0.3861   -0.6129 N   0  0  0  0  0  0  0  0  0  0  0  0
    1.1159   -1.0491    0.2957 C   0  0  0  0  0  0  0  0  0  0  0  0
    0.0860   -0.2465    0.8051 C   0  0  0  0  0  0  0  0  0  0  0  0
   -0.8667   -0.6251    1.8315 C   0  0  0  0  0  0  0  0  0  0  0  0
   -2.1976   -0.6076    1.8484 C   0  0  0  0  0  0  0  0  0  0  0  0
   -2.7005   -1.0942    3.1471 C   0  0  0  0  0  0  0  0  0  0  0  0
   -3.8993   -1.2070    3.4919 O   0  0  0  0  0  0  0  0  0  0  0  0
   -1.5699   -1.4121    3.9294 N   0  0  0  0  0  0  0  0  0  0  0  0
   -0.4455   -1.1272    3.1294 C   0  0  0  0  0  0  0  0  0  0  0  0
    0.7506   -1.3007    3.5294 O   0  0  0  0  0  0  0  0  0  0  0  0
   -3.0547   -0.2430    0.7381 C   0  0  0  0  0  0  0  0  0  0  0  0
   -2.9673   -0.7230   -0.5411 C   0  0  0  0  0  0  0  0  0  0  0  0
   -3.9012   -0.1565   -1.3185 N   0  0  0  0  0  0  0  0  0  0  0  0
   -4.1924   -0.3433   -2.7127 C   0  0  0  0  0  0  0  0  0  0  0  0
   -4.6085    0.7090   -0.5279 C   0  0  0  0  0  0  0  0  0  0  0  0
   -5.6658    1.5479   -0.8130 C   0  0  0  0  0  0  0  0  0  0  0  0
   -6.2557    2.3693    0.1259 C   0  0  0  0  0  0  0  0  0  0  0  0
   -5.7045    2.2925    1.3934 C   0  0  0  0  0  0  0  0  0  0  0  0
   -4.6564    1.4717    1.7105 C   0  0  0  0  0  0  0  0  0  0  0  0
   -4.0943    0.6662    0.7503 C   0  0  0  0  0  0  0  0  0  0  0  0
    0.2115    0.9743    0.1417 C   0  0  0  0  0  0  0  0  0  0  0  0
   -0.5022    2.1592    0.2289 C   0  0  0  0  0  0  0  0  0  0  0  0
   -0.1252    3.2350   -0.5684 C   0  0  0  0  0  0  0  0  0  0  0  0
    0.9430    3.1234   -1.4309 C   0  0  0  0  0  0  0  0  0  0  0  0
    1.6385    1.9451   -1.5032 C   0  0  0  0  0  0  0  0  0  0  0  0
    1.2778    0.8733   -0.7211 C   0  0  0  0  0  0  0  0  0  0  0  0
    4.2898   -0.4751   -0.7354 C   0  0  0  0  0  0  0  0  0  0  0  0
    5.3852    1.4470    0.9724 H   0  0  0  0  0  0  0  0  0  0  0  0
    3.7371    1.4562    1.7653 H   0  0  0  0  0  0  0  0  0  0  0  0
    5.2558    1.3360    2.7420 H   0  0  0  0  0  0  0  0  0  0  0  0
    5.3356   -2.9865    0.8413 H   0  0  0  0  0  0  0  0  0  0  0  0
    3.5285   -2.9938    1.1481 H   0  0  0  0  0  0  0  0  0  0  0  0
    3.8651   -4.1086   -1.0080 H   0  0  0  0  0  0  0  0  0  0  0  0
    5.0065   -2.8793   -1.5616 H   0  0  0  0  0  0  0  0  0  0  0  0
    2.0010   -2.7606   -1.0948 H   0  0  0  0  0  0  0  0  0  0  0  0
    2.9109   -2.5880   -2.6381 H   0  0  0  0  0  0  0  0  0  0  0  0
    2.9373   -0.3594   -2.4173 H   0  0  0  0  0  0  0  0  0  0  0  0
    1.2655   -2.0738    0.6391 H   0  0  0  0  0  0  0  0  0  0  0  0
   -1.5476   -1.7831    4.9033 H   0  0  0  0  0  0  0  0  0  0  0  0
   -2.2436   -1.4691   -0.9099 H   0  0  0  0  0  0  0  0  0  0  0  0
   -3.5542    0.3675   -3.3098 H   0  0  0  0  0  0  0  0  0  0  0  0
   -3.9596   -1.3863   -3.0417 H   0  0  0  0  0  0  0  0  0  0  0  0
   -5.2405   -0.0789   -2.9454 H   0  0  0  0  0  0  0  0  0  0  0  0
   -6.0690    1.5799   -1.8169 H   0  0  0  0  0  0  0  0  0  0  0  0
   -7.0818    3.0181   -0.1175 H   0  0  0  0  0  0  0  0  0  0  0  0
   -6.1781    2.9485    2.1326 H   0  0  0  0  0  0  0  0  0  0  0  0
   -4.2682    1.4693    2.7132 H   0  0  0  0  0  0  0  0  0  0  0  0
   -1.3339    2.2457    0.9225 H   0  0  0  0  0  0  0  0  0  0  0  0
   -0.7101    4.1525   -0.4746 H   0  0  0  0  0  0  0  0  0  0  0  0
    1.2352    3.9685   -2.0540 H   0  0  0  0  0  0  0  0  0  0  0  0
    2.4980    1.8273   -2.1855 H   0  0  0  0  0  0  0  0  0  0  0  0
    4.4663    0.5934   -0.6285 H   0  0  0  0  0  0  0  0  0  0  0  0
    5.0781   -0.8492   -1.4514 H   0  0  0  0  0  0  0  0  0  0  0  0
  1  2  1  0
  2  3  2  0
  2  4  1  0
  4  5  1  0
  5  6  1  0
  6  7  1  0
  7  8  1  0
  8  9  1  0
  9 10  1  0
 10 11  2  0
 11 12  1  0
 12 13  2  0
 13 14  1  0
 14 15  2  0
 14 16  1  0
 16 17  1  0
 17 18  2  0
 13 19  1  0
 19 20  2  0
 20 21  1  0
 21 22  1  0
 21 23  1  0
 23 24  2  0
 24 25  1  0
 25 26  2  0
 26 27  1  0
 27 28  2  0
 11 29  1  0
 29 30  2  0
 30 31  1  0
 31 32  2  0
 32 33  1  0
 33 34  2  0
  8 35  1  0
 35  4  1  0
 34  9  1  0
 17 12  1  0
 28 19  1  0
 34 29  1  0
 28 23  1  0
  1 36  1  0
  1 37  1  0
  1 38  1  0
  5 39  1  0
  5 40  1  0
  6 41  1  0
  6 42  1  0
  7 43  1  0
  7 44  1  0
  8 45  1  0
 10 46  1  0
 16 47  1  0
 20 48  1  0
 22 49  1  0
 22 50  1  0
 22 51  1  0
 24 52  1  0
 25 53  1  0
 26 54  1  0
 27 55  1  0
 30 56  1  0
 31 57  1  0
 32 58  1  0
 33 59  1  0
 35 60  1  0
 35 61  1  0
M  END
$$$$
[H]c1c([H])c(S(=O)(=O)C([H])([H])C([H])([H])C([H])([H])N2C([H])([H])C([H])([H])OC([H])([H])C2([H])[H])c([H])c(OC(F)(F)F)c1C([H])([H])N(C([H])([H])[H])C([H])([H])C([H])([H])N([H])[H]
     RDKit          3D

 57 58  0  0  0  0  0  0  0  0999 V2000
   -6.2358   -0.4718   -2.4570 C   0  0  0  0  0  0  0  0  0  0  0  0
   -5.0888   -0.8974   -1.5902 N   0  0  0  0  0  0  0  0  0  0  0  0
   -5.6966   -1.7033   -0.5215 C   0  0  0  0  0  0  0  0  0  0  0  0
   -6.5447   -0.9136    0.4192 C   0  0  0  0  0  0  0  0  0  0  0  0
   -7.0844   -1.8788    1.3968 N   0  0  0  0  0  0  0  0  0  0  0  0
   -4.4916    0.3049   -1.0402 C   0  0  0  0  0  0  0  0  0  0  0  0
   -3.1752    0.0080   -0.4623 C   0  0  0  0  0  0  0  0  0  0  0  0
   -2.5822   -1.2157   -0.6084 C   0  0  0  0  0  0  0  0  0  0  0  0
   -1.2961   -1.4634   -0.0927 C   0  0  0  0  0  0  0  0  0  0  0  0
   -0.6677   -0.4341    0.5553 C   0  0  0  0  0  0  0  0  0  0  0  0
   -1.2703    0.8019    0.6992 C   0  0  0  0  0  0  0  0  0  0  0  0
   -2.5153    1.0421    0.2008 C   0  0  0  0  0  0  0  0  0  0  0  0
   -3.1633    2.2475    0.3128 O   0  0  0  0  0  0  0  0  0  0  0  0
   -2.6147    3.3782    0.9553 C   0  0  0  0  0  0  0  0  0  0  0  0
   -2.3210    3.1630    2.2735 F   0  0  0  0  0  0  0  0  0  0  0  0
   -3.5465    4.4088    0.9024 F   0  0  0  0  0  0  0  0  0  0  0  0
   -1.4594    3.7320    0.2598 F   0  0  0  0  0  0  0  0  0  0  0  0
    0.9392   -0.7213    1.2055 S   0  0  0  0  0  0  0  0  0  0  0  0
    1.0769    0.0851    2.4551 O   0  0  0  0  0  0  0  0  0  0  0  0
    1.0771   -2.1884    1.4786 O   0  0  0  0  0  0  0  0  0  0  0  0
    2.1939   -0.2876    0.0110 C   0  0  0  0  0  0  0  0  0  0  0  0
    3.5350   -0.5647    0.6504 C   0  0  0  0  0  0  0  0  0  0  0  0
    4.6317   -0.2124   -0.3090 C   0  0  0  0  0  0  0  0  0  0  0  0
    5.9447   -0.4433    0.2116 N   0  0  0  0  0  0  0  0  0  0  0  0
    6.2944    0.4352    1.2826 C   0  0  0  0  0  0  0  0  0  0  0  0
    6.8680    1.7019    0.7258 C   0  0  0  0  0  0  0  0  0  0  0  0
    8.0539    1.5178    0.0425 O   0  0  0  0  0  0  0  0  0  0  0  0
    8.2027    0.2590   -0.4891 C   0  0  0  0  0  0  0  0  0  0  0  0
    6.9140   -0.4147   -0.8597 C   0  0  0  0  0  0  0  0  0  0  0  0
   -5.7791   -0.3363   -3.4571 H   0  0  0  0  0  0  0  0  0  0  0  0
   -6.6911    0.4467   -2.0909 H   0  0  0  0  0  0  0  0  0  0  0  0
   -6.8937   -1.3569   -2.5062 H   0  0  0  0  0  0  0  0  0  0  0  0
   -4.9401   -2.2809   -0.0208 H   0  0  0  0  0  0  0  0  0  0  0  0
   -6.3663   -2.4198   -1.0746 H   0  0  0  0  0  0  0  0  0  0  0  0
   -7.3794   -0.4078   -0.0898 H   0  0  0  0  0  0  0  0  0  0  0  0
   -5.8991   -0.2426    1.0267 H   0  0  0  0  0  0  0  0  0  0  0  0
   -8.0313   -2.2272    1.0595 H   0  0  0  0  0  0  0  0  0  0  0  0
   -7.3138   -1.3137    2.2462 H   0  0  0  0  0  0  0  0  0  0  0  0
   -5.1655    0.9010   -0.4124 H   0  0  0  0  0  0  0  0  0  0  0  0
   -4.2630    0.9627   -1.9471 H   0  0  0  0  0  0  0  0  0  0  0  0
   -3.0713   -2.0266   -1.1560 H   0  0  0  0  0  0  0  0  0  0  0  0
   -0.8921   -2.4428   -0.2408 H   0  0  0  0  0  0  0  0  0  0  0  0
   -0.7125    1.5612    1.2209 H   0  0  0  0  0  0  0  0  0  0  0  0
    2.0952   -0.9779   -0.8528 H   0  0  0  0  0  0  0  0  0  0  0  0
    2.0794    0.7697   -0.2981 H   0  0  0  0  0  0  0  0  0  0  0  0
    3.5866   -1.6589    0.8237 H   0  0  0  0  0  0  0  0  0  0  0  0
    3.5613   -0.0373    1.6028 H   0  0  0  0  0  0  0  0  0  0  0  0
    4.5677    0.8445   -0.6724 H   0  0  0  0  0  0  0  0  0  0  0  0
    4.4911   -0.8509   -1.2129 H   0  0  0  0  0  0  0  0  0  0  0  0
    7.0806   -0.0337    1.9119 H   0  0  0  0  0  0  0  0  0  0  0  0
    5.4355    0.6999    1.9156 H   0  0  0  0  0  0  0  0  0  0  0  0
    7.0682    2.3908    1.5981 H   0  0  0  0  0  0  0  0  0  0  0  0
    6.1702    2.2621    0.0787 H   0  0  0  0  0  0  0  0  0  0  0  0
    8.7703    0.3902   -1.4575 H   0  0  0  0  0  0  0  0  0  0  0  0
    8.8420   -0.3648    0.1516 H   0  0  0  0  0  0  0  0  0  0  0  0
    6.5006   -0.0322   -1.8145 H   0  0  0  0  0  0  0  0  0  0  0  0
    7.1718   -1.4930   -1.0730 H   0  0  0  0  0  0  0  0  0  0  0  0
  1  2  1  0
  2  3  1  0
  3  4  1  0
  4  5  1  0
  2  6  1  0
  6  7  1  0
  7  8  2  0
  8  9  1  0
  9 10  2  0
 10 11  1  0
 11 12  2  0
 12 13  1  0
 13 14  1  0
 14 15  1  0
 14 16  1  0
 14 17  1  0
 10 18  1  0
 18 19  2  0
 18 20  2  0
 18 21  1  0
 21 22  1  0
 22 23  1  0
 23 24  1  0
 24 25  1  0
 25 26  1  0
 26 27  1  0
 27 28  1  0
 28 29  1  0
 12  7  1  0
 29 24  1  0
  1 30  1  0
  1 31  1  0
  1 32  1  0
  3 33  1  0
  3 34  1  0
  4 35  1  0
  4 36  1  0
  5 37  1  0
  5 38  1  0
  6 39  1  0
  6 40  1  0
  8 41  1  0
  9 42  1  0
 11 43  1  0
 21 44  1  0
 21 45  1  0
 22 46  1  0
 22 47  1  0
 23 48  1  0
 23 49  1  0
 25 50  1  0
 25 51  1  0
 26 52  1  0
 26 53  1  0
 28 54  1  0
 28 55  1  0
 29 56  1  0
 29 57  1  0
M  END
$$$$
[H]OC1(C([H])([H])[H])C([H])([H])N(c2c([H])c([H])c(N([H])C(=O)c3c(C([H])([H])[H])nn(-c4c([H])c([H])c([H])c([H])c4[H])c3Cl)c([H])c2[H])C([H])([H])C1([H])[H]
     RDKit          3D

 52 55  0  0  0  0  0  0  0  0999 V2000
    3.1230    1.6587   -2.5979 C   0  0  0  0  0  0  0  0  0  0  0  0
    3.7484    0.8959   -1.4747 C   0  0  0  0  0  0  0  0  0  0  0  0
    5.1124    0.7714   -1.3167 N   0  0  0  0  0  0  0  0  0  0  0  0
    5.3836    0.0360   -0.2686 N   0  0  0  0  0  0  0  0  0  0  0  0
    4.2406   -0.3546    0.3078 C   0  0  0  0  0  0  0  0  0  0  0  0
    4.0647   -1.3482    1.7353 Cl  0  0  0  0  0  0  0  0  0  0  0  0
    3.1856    0.1906   -0.4555 C   0  0  0  0  0  0  0  0  0  0  0  0
    1.7793    0.0222   -0.1353 C   0  0  0  0  0  0  0  0  0  0  0  0
    1.5364   -0.9163    0.7131 O   0  0  0  0  0  0  0  0  0  0  0  0
    0.7223    0.7854   -0.6668 N   0  0  0  0  0  0  0  0  0  0  0  0
   -0.6493    0.5915   -0.3510 C   0  0  0  0  0  0  0  0  0  0  0  0
   -1.5349    1.6630   -0.5302 C   0  0  0  0  0  0  0  0  0  0  0  0
   -2.8773    1.5768   -0.2809 C   0  0  0  0  0  0  0  0  0  0  0  0
   -3.4234    0.4057    0.1665 C   0  0  0  0  0  0  0  0  0  0  0  0
   -2.5863   -0.6610    0.3519 C   0  0  0  0  0  0  0  0  0  0  0  0
   -1.2012   -0.5760    0.0955 C   0  0  0  0  0  0  0  0  0  0  0  0
   -4.8061    0.2721    0.4370 N   0  0  0  0  0  0  0  0  0  0  0  0
   -5.7775    1.3414    0.2723 C   0  0  0  0  0  0  0  0  0  0  0  0
   -7.1277    0.7083    0.2753 C   0  0  0  0  0  0  0  0  0  0  0  0
   -6.8211   -0.7635    0.0978 C   0  0  0  0  0  0  0  0  0  0  0  0
   -7.8995   -1.6411    0.6850 C   0  0  0  0  0  0  0  0  0  0  0  0
   -6.5147   -1.0644   -1.2079 O   0  0  0  0  0  0  0  0  0  0  0  0
   -5.5208   -0.8763    0.9056 C   0  0  0  0  0  0  0  0  0  0  0  0
    6.6708   -0.3297    0.2351 C   0  0  0  0  0  0  0  0  0  0  0  0
    7.5203    0.6197    0.7919 C   0  0  0  0  0  0  0  0  0  0  0  0
    8.7688    0.2643    1.2803 C   0  0  0  0  0  0  0  0  0  0  0  0
    9.2063   -1.0525    1.2269 C   0  0  0  0  0  0  0  0  0  0  0  0
    8.3643   -1.9983    0.6742 C   0  0  0  0  0  0  0  0  0  0  0  0
    7.1213   -1.6317    0.1903 C   0  0  0  0  0  0  0  0  0  0  0  0
    3.9269    1.8347   -3.3686 H   0  0  0  0  0  0  0  0  0  0  0  0
    2.3749    1.0077   -3.0739 H   0  0  0  0  0  0  0  0  0  0  0  0
    2.7539    2.6458   -2.3121 H   0  0  0  0  0  0  0  0  0  0  0  0
    0.9290    1.5668   -1.3364 H   0  0  0  0  0  0  0  0  0  0  0  0
   -1.0866    2.5940   -0.8865 H   0  0  0  0  0  0  0  0  0  0  0  0
   -3.5271    2.4347   -0.4343 H   0  0  0  0  0  0  0  0  0  0  0  0
   -2.9665   -1.5892    0.6977 H   0  0  0  0  0  0  0  0  0  0  0  0
   -0.6143   -1.4687    0.2519 H   0  0  0  0  0  0  0  0  0  0  0  0
   -5.6350    1.8106   -0.7439 H   0  0  0  0  0  0  0  0  0  0  0  0
   -5.6404    2.1531    0.9958 H   0  0  0  0  0  0  0  0  0  0  0  0
   -7.8116    1.0943   -0.5069 H   0  0  0  0  0  0  0  0  0  0  0  0
   -7.5767    0.8110    1.3048 H   0  0  0  0  0  0  0  0  0  0  0  0
   -8.7718   -0.9994    0.9909 H   0  0  0  0  0  0  0  0  0  0  0  0
   -7.5507   -2.2704    1.5065 H   0  0  0  0  0  0  0  0  0  0  0  0
   -8.2726   -2.3104   -0.1200 H   0  0  0  0  0  0  0  0  0  0  0  0
   -5.5620   -1.3026   -1.3522 H   0  0  0  0  0  0  0  0  0  0  0  0
   -5.0099   -1.8346    0.6881 H   0  0  0  0  0  0  0  0  0  0  0  0
   -5.7257   -0.7457    1.9868 H   0  0  0  0  0  0  0  0  0  0  0  0
    7.1763    1.6336    0.8298 H   0  0  0  0  0  0  0  0  0  0  0  0
    9.4226    1.0212    1.7137 H   0  0  0  0  0  0  0  0  0  0  0  0
   10.1812   -1.2680    1.6199 H   0  0  0  0  0  0  0  0  0  0  0  0
    8.6942   -3.0354    0.6256 H   0  0  0  0  0  0  0  0  0  0  0  0
    6.4836   -2.3724   -0.2329 H   0  0  0  0  0  0  0  0  0  0  0  0
  1  2  1  0
  2  3  2  0
  3  4  1  0
  4  5  1  0
  5  6  1  0
  5  7  2  0
  7  8  1  0
  8  9  2  0
  8 10  1  0
 10 11  1  0
 11 12  2  0
 12 13  1  0
 13 14  2  0
 14 15  1  0
 15 16  2  0
 14 17  1  0
 17 18  1  0
 18 19  1  0
 19 20  1  0
 20 21  1  0
 20 22  1  0
 20 23  1  0
  4 24  1  0
 24 25  2  0
 25 26  1  0
 26 27  2  0
 27 28  1  0
 28 29  2  0
  7  2  1  0
 16 11  1  0
 23 17  1  0
 29 24  1  0
  1 30  1  0
  1 31  1  0
  1 32  1  0
 10 33  1  0
 12 34  1  0
 13 35  1  0
 15 36  1  0
 16 37  1  0
 18 38  1  0
 18 39  1  0
 19 40  1  0
 19 41  1  0
 21 42  1  0
 21 43  1  0
 21 44  1  0
 22 45  1  0
 23 46  1  0
 23 47  1  0
 25 48  1  0
 26 49  1  0
 27 50  1  0
 28 51  1  0
 29 52  1  0
M  END
$$$$
[H]c1sc(N([H])c2c([H])c([H])c(C(=O)N3C([H])([H])C4([H])N(C(=O)OC(C([H])([H])[H])(C([H])([H])[H])C([H])([H])[H])C([H])(C3([H])[H])C([H])([H])C4([H])[H])c([H])c2[H])c(S(=O)(=O)C([H])([H])[H])c1[H]
     RDKit          3D

 62 65  0  0  0  0  0  0  0  0999 V2000
    6.6393    2.9736    0.6756 C   0  0  0  0  0  0  0  0  0  0  0  0
    7.7810    1.6286    0.5161 S   0  0  0  0  0  0  0  0  0  0  0  0
    7.8109    1.2062   -0.9373 O   0  0  0  0  0  0  0  0  0  0  0  0
    9.1304    2.0298    0.9925 O   0  0  0  0  0  0  0  0  0  0  0  0
    7.1274    0.2824    1.4872 C   0  0  0  0  0  0  0  0  0  0  0  0
    7.7848   -0.2450    2.5295 C   0  0  0  0  0  0  0  0  0  0  0  0
    7.1950   -1.2690    3.2128 C   0  0  0  0  0  0  0  0  0  0  0  0
    5.7333   -1.4716    2.3818 S   0  0  0  0  0  0  0  0  0  0  0  0
    5.8984   -0.2500    1.1796 C   0  0  0  0  0  0  0  0  0  0  0  0
    5.0110    0.1510    0.1452 N   0  0  0  0  0  0  0  0  0  0  0  0
    3.7761   -0.4651   -0.1400 C   0  0  0  0  0  0  0  0  0  0  0  0
    3.4444   -1.7608    0.1389 C   0  0  0  0  0  0  0  0  0  0  0  0
    2.1978   -2.2751   -0.1371 C   0  0  0  0  0  0  0  0  0  0  0  0
    1.1674   -1.5173   -0.7260 C   0  0  0  0  0  0  0  0  0  0  0  0
    1.5043   -0.2272   -1.0036 C   0  0  0  0  0  0  0  0  0  0  0  0
    2.7528    0.2918   -0.7277 C   0  0  0  0  0  0  0  0  0  0  0  0
   -0.0921   -2.1803   -0.9706 C   0  0  0  0  0  0  0  0  0  0  0  0
   -0.1330   -3.4670   -0.6676 O   0  0  0  0  0  0  0  0  0  0  0  0
   -1.3059   -1.7095   -1.4778 N   0  0  0  0  0  0  0  0  0  0  0  0
   -1.5317   -0.3656   -1.8668 C   0  0  0  0  0  0  0  0  0  0  0  0
   -3.0042   -0.1919   -2.2556 C   0  0  0  0  0  0  0  0  0  0  0  0
   -3.3292   -1.0696   -3.4612 C   0  0  0  0  0  0  0  0  0  0  0  0
   -4.3035   -2.1270   -2.9133 C   0  0  0  0  0  0  0  0  0  0  0  0
   -3.7426   -2.1944   -1.4689 C   0  0  0  0  0  0  0  0  0  0  0  0
   -2.3659   -2.7343   -1.5931 C   0  0  0  0  0  0  0  0  0  0  0  0
   -3.7560   -0.7753   -1.1806 N   0  0  0  0  0  0  0  0  0  0  0  0
   -4.3696   -0.1502   -0.0957 C   0  0  0  0  0  0  0  0  0  0  0  0
   -5.0089   -0.8217    0.7855 O   0  0  0  0  0  0  0  0  0  0  0  0
   -4.3497    1.2222    0.1310 O   0  0  0  0  0  0  0  0  0  0  0  0
   -4.9866    1.8288    1.2473 C   0  0  0  0  0  0  0  0  0  0  0  0
   -6.4822    1.5427    1.2356 C   0  0  0  0  0  0  0  0  0  0  0  0
   -4.8406    3.3400    1.0253 C   0  0  0  0  0  0  0  0  0  0  0  0
   -4.3769    1.4228    2.5586 C   0  0  0  0  0  0  0  0  0  0  0  0
    5.7239    2.6315    1.1942 H   0  0  0  0  0  0  0  0  0  0  0  0
    7.1016    3.8329    1.2090 H   0  0  0  0  0  0  0  0  0  0  0  0
    6.3002    3.3261   -0.3304 H   0  0  0  0  0  0  0  0  0  0  0  0
    8.7913    0.1035    2.8762 H   0  0  0  0  0  0  0  0  0  0  0  0
    7.5830   -1.8202    4.0866 H   0  0  0  0  0  0  0  0  0  0  0  0
    5.2884    0.9518   -0.4453 H   0  0  0  0  0  0  0  0  0  0  0  0
    4.2136   -2.4159    0.5811 H   0  0  0  0  0  0  0  0  0  0  0  0
    1.9986   -3.3068    0.1095 H   0  0  0  0  0  0  0  0  0  0  0  0
    0.8136    0.4511   -1.4615 H   0  0  0  0  0  0  0  0  0  0  0  0
    3.0119    1.3241   -0.9535 H   0  0  0  0  0  0  0  0  0  0  0  0
   -1.3801    0.3155   -0.9987 H   0  0  0  0  0  0  0  0  0  0  0  0
   -0.9605   -0.1191   -2.7645 H   0  0  0  0  0  0  0  0  0  0  0  0
   -3.2409    0.8624   -2.4568 H   0  0  0  0  0  0  0  0  0  0  0  0
   -3.8082   -0.4686   -4.2586 H   0  0  0  0  0  0  0  0  0  0  0  0
   -2.4225   -1.5738   -3.8088 H   0  0  0  0  0  0  0  0  0  0  0  0
   -5.2993   -1.6667   -2.9104 H   0  0  0  0  0  0  0  0  0  0  0  0
   -4.2097   -3.0841   -3.4236 H   0  0  0  0  0  0  0  0  0  0  0  0
   -4.3989   -2.7734   -0.8193 H   0  0  0  0  0  0  0  0  0  0  0  0
   -2.1799   -3.5637   -0.8491 H   0  0  0  0  0  0  0  0  0  0  0  0
   -2.2243   -3.1938   -2.5849 H   0  0  0  0  0  0  0  0  0  0  0  0
   -6.7912    1.3237    0.2006 H   0  0  0  0  0  0  0  0  0  0  0  0
   -7.0150    2.4420    1.5706 H   0  0  0  0  0  0  0  0  0  0  0  0
   -6.7547    0.7279    1.9367 H   0  0  0  0  0  0  0  0  0  0  0  0
   -4.8292    3.5395   -0.0595 H   0  0  0  0  0  0  0  0  0  0  0  0
   -3.8522    3.6314    1.4356 H   0  0  0  0  0  0  0  0  0  0  0  0
   -5.6735    3.8358    1.5665 H   0  0  0  0  0  0  0  0  0  0  0  0
   -3.3432    1.0698    2.4550 H   0  0  0  0  0  0  0  0  0  0  0  0
   -4.3853    2.3155    3.2233 H   0  0  0  0  0  0  0  0  0  0  0  0
   -5.0333    0.6496    3.0078 H   0  0  0  0  0  0  0  0  0  0  0  0
  1  2  1  0
  2  3  2  0
  2  4  2  0
  2  5  1  0
  5  6  1  0
  6  7  2  0
  7  8  1  0
  8  9  1  0
  9 10  1  0
 10 11  1  0
 11 12  2  0
 12 13  1  0
 13 14  2  0
 14 15  1  0
 15 16  2  0
 14 17  1  0
 17 18  2  0
 17 19  1  0
 19 20  1  0
 20 21  1  0
 21 22  1  0
 22 23  1  0
 23 24  1  0
 24 25  1  0
 24 26  1  0
 26 27  1  0
 27 28  2  0
 27 29  1  0
 29 30  1  0
 30 31  1  0
 30 32  1  0
 30 33  1  0
  9  5  2  0
 16 11  1  0
 25 19  1  0
 26 21  1  0
  1 34  1  0
  1 35  1  0
  1 36  1  0
  6 37  1  0
  7 38  1  0
 10 39  1  0
 12 40  1  0
 13 41  1  0
 15 42  1  0
 16 43  1  0
 20 44  1  0
 20 45  1  0
 21 46  1  0
 22 47  1  0
 22 48  1  0
 23 49  1  0
 23 50  1  0
 24 51  1  0
 25 52  1  0
 25 53  1  0
 31 54  1  0
 31 55  1  0
 31 56  1  0
 32 57  1  0
 32 58  1  0
 32 59  1  0
 33 60  1  0
 33 61  1  0
 33 62  1  0
M  END
$$$$
[H]c1c([H])c([H])c(C([H])([H])C([H])([H])[C@@]([H])(C(=O)N2C([H])([H])C([H])([H])C([H])([H])[C@@]2([H])C(=O)N2C([H])([H])C([H])([H])C3(C([H])([H])C([H])([H])N(C(=O)C([H])([H])[H])C([H])([H])C3([H])[H])C([H])([H])C2([H])[H])N([H])S(=O)(=O)C([H])([H])C2([H])C([H])([H])C2([H])[H])c([H])c1[H]
     RDKit          3D

 84 88  0  0  0  0  0  0  0  0999 V2000
   10.4023   -0.8567   -0.4473 C   0  0  0  0  0  0  0  0  0  0  0  0
    9.5732    0.2964   -0.0597 C   0  0  0  0  0  0  0  0  0  0  0  0
   10.1783    1.4039    0.0446 O   0  0  0  0  0  0  0  0  0  0  0  0
    8.1932    0.1625    0.1786 N   0  0  0  0  0  0  0  0  0  0  0  0
    7.4074   -1.0231    0.0673 C   0  0  0  0  0  0  0  0  0  0  0  0
    6.0481   -0.7317   -0.5326 C   0  0  0  0  0  0  0  0  0  0  0  0
    5.2373    0.2773    0.2546 C   0  0  0  0  0  0  0  0  0  0  0  0
    4.7864    1.3034   -0.7671 C   0  0  0  0  0  0  0  0  0  0  0  0
    3.6158    2.0982   -0.2238 C   0  0  0  0  0  0  0  0  0  0  0  0
    2.5683    1.0374    0.0202 N   0  0  0  0  0  0  0  0  0  0  0  0
    2.8320    0.2689    1.1607 C   0  0  0  0  0  0  0  0  0  0  0  0
    4.1748   -0.4224    0.9885 C   0  0  0  0  0  0  0  0  0  0  0  0
    1.5649    0.8860   -0.9206 C   0  0  0  0  0  0  0  0  0  0  0  0
    1.8608    1.6988   -1.9784 O   0  0  0  0  0  0  0  0  0  0  0  0
    0.3643    0.1827   -1.1483 C   0  0  2  0  0  0  0  0  0  0  0  0
   -0.3963    0.9912   -2.3657 C   0  0  0  0  0  0  0  0  0  0  0  0
   -0.8342    2.2027   -1.5586 C   0  0  0  0  0  0  0  0  0  0  0  0
   -0.8371    1.7570   -0.0753 C   0  0  0  0  0  0  0  0  0  0  0  0
   -0.8118    0.3041   -0.3117 N   0  0  0  0  0  0  0  0  0  0  0  0
   -1.7503   -0.7015   -0.0124 C   0  0  0  0  0  0  0  0  0  0  0  0
   -1.4577   -1.8837   -0.2892 O   0  0  0  0  0  0  0  0  0  0  0  0
   -3.0716   -0.3573    0.5708 C   0  0  2  0  0  0  0  0  0  0  0  0
   -3.9358   -1.6367    0.7798 C   0  0  0  0  0  0  0  0  0  0  0  0
   -4.2111   -2.3673   -0.4735 C   0  0  0  0  0  0  0  0  0  0  0  0
   -5.1434   -3.5082   -0.2077 C   0  0  0  0  0  0  0  0  0  0  0  0
   -6.4763   -3.3649   -0.6160 C   0  0  0  0  0  0  0  0  0  0  0  0
   -7.4399   -4.3305   -0.4268 C   0  0  0  0  0  0  0  0  0  0  0  0
   -7.0226   -5.4966    0.2113 C   0  0  0  0  0  0  0  0  0  0  0  0
   -5.7223   -5.6482    0.6175 C   0  0  0  0  0  0  0  0  0  0  0  0
   -4.7826   -4.6673    0.4135 C   0  0  0  0  0  0  0  0  0  0  0  0
   -3.8099    0.3892   -0.4492 N   0  0  0  0  0  0  0  0  0  0  0  0
   -4.7757    1.6560    0.0851 S   0  0  0  0  0  0  0  0  0  0  0  0
   -4.7211    1.6538    1.5983 O   0  0  0  0  0  0  0  0  0  0  0  0
   -4.2811    2.9571   -0.4717 O   0  0  0  0  0  0  0  0  0  0  0  0
   -6.4521    1.4561   -0.4455 C   0  0  0  0  0  0  0  0  0  0  0  0
   -7.3762    2.4816    0.0000 C   0  0  0  0  0  0  0  0  0  0  0  0
   -7.2007    3.9336   -0.2523 C   0  0  0  0  0  0  0  0  0  0  0  0
   -7.2496    3.3738    1.1717 C   0  0  0  0  0  0  0  0  0  0  0  0
    6.1939    0.9530    1.2435 C   0  0  0  0  0  0  0  0  0  0  0  0
    7.4899    1.3736    0.5994 C   0  0  0  0  0  0  0  0  0  0  0  0
    9.8294   -1.7540   -0.6312 H   0  0  0  0  0  0  0  0  0  0  0  0
   11.0602   -0.6209   -1.3181 H   0  0  0  0  0  0  0  0  0  0  0  0
   11.0956   -1.0369    0.4223 H   0  0  0  0  0  0  0  0  0  0  0  0
    7.2772   -1.5566    1.0249 H   0  0  0  0  0  0  0  0  0  0  0  0
    7.8744   -1.7474   -0.6386 H   0  0  0  0  0  0  0  0  0  0  0  0
    6.1850   -0.4591   -1.5963 H   0  0  0  0  0  0  0  0  0  0  0  0
    5.4766   -1.7082   -0.5795 H   0  0  0  0  0  0  0  0  0  0  0  0
    5.6041    1.9946   -0.9768 H   0  0  0  0  0  0  0  0  0  0  0  0
    4.4789    0.7974   -1.6821 H   0  0  0  0  0  0  0  0  0  0  0  0
    3.8023    2.5767    0.7356 H   0  0  0  0  0  0  0  0  0  0  0  0
    3.2919    2.7908   -1.0047 H   0  0  0  0  0  0  0  0  0  0  0  0
    2.0817   -0.5486    1.3293 H   0  0  0  0  0  0  0  0  0  0  0  0
    2.8781    0.9736    2.0360 H   0  0  0  0  0  0  0  0  0  0  0  0
    4.5535   -0.6374    2.0260 H   0  0  0  0  0  0  0  0  0  0  0  0
    3.9859   -1.4105    0.5138 H   0  0  0  0  0  0  0  0  0  0  0  0
    0.5029   -0.7915   -1.6231 H   0  0  0  0  0  0  0  0  0  0  0  0
   -1.1949    0.3116   -2.6350 H   0  0  0  0  0  0  0  0  0  0  0  0
    0.3703    1.1112   -3.0730 H   0  0  0  0  0  0  0  0  0  0  0  0
   -0.0956    2.9907   -1.6602 H   0  0  0  0  0  0  0  0  0  0  0  0
   -1.8018    2.5842   -1.8689 H   0  0  0  0  0  0  0  0  0  0  0  0
   -1.6968    2.1056    0.4847 H   0  0  0  0  0  0  0  0  0  0  0  0
    0.0802    2.1211    0.4199 H   0  0  0  0  0  0  0  0  0  0  0  0
   -3.0706    0.1208    1.4912 H   0  0  0  0  0  0  0  0  0  0  0  0
   -3.3815   -2.2590    1.4672 H   0  0  0  0  0  0  0  0  0  0  0  0
   -4.8930   -1.3164    1.2398 H   0  0  0  0  0  0  0  0  0  0  0  0
   -4.7447   -1.7365   -1.2336 H   0  0  0  0  0  0  0  0  0  0  0  0
   -3.3580   -2.7831   -1.0069 H   0  0  0  0  0  0  0  0  0  0  0  0
   -6.8153   -2.4456   -1.1283 H   0  0  0  0  0  0  0  0  0  0  0  0
   -8.4583   -4.2144   -0.7515 H   0  0  0  0  0  0  0  0  0  0  0  0
   -7.7201   -6.2873    0.3809 H   0  0  0  0  0  0  0  0  0  0  0  0
   -5.4031   -6.5617    1.1210 H   0  0  0  0  0  0  0  0  0  0  0  0
   -3.7401   -4.7776    0.7378 H   0  0  0  0  0  0  0  0  0  0  0  0
   -3.8301    0.0504   -1.3688 H   0  0  0  0  0  0  0  0  0  0  0  0
   -6.4015    1.4959   -1.5799 H   0  0  0  0  0  0  0  0  0  0  0  0
   -6.8673    0.4447   -0.2336 H   0  0  0  0  0  0  0  0  0  0  0  0
   -8.4757    2.1705   -0.1753 H   0  0  0  0  0  0  0  0  0  0  0  0
   -6.2210    4.4061   -0.4715 H   0  0  0  0  0  0  0  0  0  0  0  0
   -8.0655    4.5638   -0.4994 H   0  0  0  0  0  0  0  0  0  0  0  0
   -6.3353    3.4177    1.7734 H   0  0  0  0  0  0  0  0  0  0  0  0
   -8.1741    3.6163    1.7827 H   0  0  0  0  0  0  0  0  0  0  0  0
    5.6594    1.7938    1.7410 H   0  0  0  0  0  0  0  0  0  0  0  0
    6.4553    0.1877    2.0100 H   0  0  0  0  0  0  0  0  0  0  0  0
    8.0597    1.9076    1.4078 H   0  0  0  0  0  0  0  0  0  0  0  0
    7.4100    2.0179   -0.2700 H   0  0  0  0  0  0  0  0  0  0  0  0
  1  2  1  0
  2  3  2  0
  2  4  1  0
  4  5  1  0
  5  6  1  0
  6  7  1  0
  7  8  1  0
  8  9  1  0
  9 10  1  0
 10 11  1  0
 11 12  1  0
 10 13  1  0
 13 14  2  0
 13 15  1  0
 15 16  1  0
 16 17  1  0
 17 18  1  0
 18 19  1  0
 19 20  1  0
 20 21  2  0
 20 22  1  0
 22 23  1  0
 23 24  1  0
 24 25  1  0
 25 26  2  0
 26 27  1  0
 27 28  2  0
 28 29  1  0
 29 30  2  0
 22 31  1  0
 31 32  1  0
 32 33  2  0
 32 34  2  0
 32 35  1  0
 35 36  1  0
 36 37  1  0
 37 38  1  0
  7 39  1  0
 39 40  1  0
 40  4  1  0
 12  7  1  0
 19 15  1  0
 30 25  1  0
 38 36  1  0
  1 41  1  0
  1 42  1  0
  1 43  1  0
  5 44  1  0
  5 45  1  0
  6 46  1  0
  6 47  1  0
  8 48  1  0
  8 49  1  0
  9 50  1  0
  9 51  1  0
 11 52  1  0
 11 53  1  0
 12 54  1  0
 12 55  1  0
 15 56  1  6
 16 57  1  0
 16 58  1  0
 17 59  1  0
 17 60  1  0
 18 61  1  0
 18 62  1  0
 22 63  1  1
 23 64  1  0
 23 65  1  0
 24 66  1  0
 24 67  1  0
 26 68  1  0
 27 69  1  0
 28 70  1  0
 29 71  1  0
 30 72  1  0
 31 73  1  0
 35 74  1  0
 35 75  1  0
 36 76  1  0
 37 77  1  0
 37 78  1  0
 38 79  1  0
 38 80  1  0
 39 81  1  0
 39 82  1  0
 40 83  1  0
 40 84  1  0
M  END
$$$$
[H]OC([H])([H])[C@@]1([H])C([H])([H])[C@]1([H])N([H])C(=O)c1c([H])c([H])c([H])c(N([H])C2([H])C([H])([H])C([H])([H])N(C(=O)C([H])([H])Oc3c([H])c([H])c([H])c([H])c3[H])C([H])([H])C2([H])[H])c1[H]
     RDKit          3D

 60 63  0  0  0  0  0  0  0  0999 V2000
   -4.7158   -0.7849    1.0477 C   0  0  0  0  0  0  0  0  0  0  0  0
   -4.5665    0.5823    0.8279 O   0  0  0  0  0  0  0  0  0  0  0  0
   -5.4894    1.5297    1.2376 C   0  0  0  0  0  0  0  0  0  0  0  0
   -6.6541    1.1682    1.9065 C   0  0  0  0  0  0  0  0  0  0  0  0
   -7.5356    2.1431    2.2917 C   0  0  0  0  0  0  0  0  0  0  0  0
   -7.2632    3.4802    2.0137 C   0  0  0  0  0  0  0  0  0  0  0  0
   -6.1127    3.8709    1.3498 C   0  0  0  0  0  0  0  0  0  0  0  0
   -5.2368    2.8565    0.9718 C   0  0  0  0  0  0  0  0  0  0  0  0
   -3.6555   -1.6507    0.5427 C   0  0  0  0  0  0  0  0  0  0  0  0
   -3.6770   -2.9187    0.8251 O   0  0  0  0  0  0  0  0  0  0  0  0
   -2.5762   -1.2320   -0.2466 N   0  0  0  0  0  0  0  0  0  0  0  0
   -2.3972    0.1098   -0.7044 C   0  0  0  0  0  0  0  0  0  0  0  0
   -1.3679    0.2650   -1.7755 C   0  0  0  0  0  0  0  0  0  0  0  0
   -0.0623   -0.3754   -1.4319 C   0  0  0  0  0  0  0  0  0  0  0  0
   -0.2257   -1.4059   -0.3129 C   0  0  0  0  0  0  0  0  0  0  0  0
   -1.5167   -2.1759   -0.6489 C   0  0  0  0  0  0  0  0  0  0  0  0
    0.4371   -1.1183   -2.5695 N   0  0  0  0  0  0  0  0  0  0  0  0
    1.7408   -1.6375   -2.5816 C   0  0  0  0  0  0  0  0  0  0  0  0
    2.1517   -2.5600   -3.5549 C   0  0  0  0  0  0  0  0  0  0  0  0
    3.4308   -3.0640   -3.5947 C   0  0  0  0  0  0  0  0  0  0  0  0
    4.3489   -2.6501   -2.6437 C   0  0  0  0  0  0  0  0  0  0  0  0
    3.9852   -1.7494   -1.6765 C   0  0  0  0  0  0  0  0  0  0  0  0
    2.6821   -1.2652   -1.6725 C   0  0  0  0  0  0  0  0  0  0  0  0
    4.8853   -1.2695   -0.6355 C   0  0  0  0  0  0  0  0  0  0  0  0
    5.8098   -2.0173   -0.1931 O   0  0  0  0  0  0  0  0  0  0  0  0
    4.7070    0.0416   -0.1339 N   0  0  0  0  0  0  0  0  0  0  0  0
    5.5799    0.5276    0.8916 C   0  0  1  0  0  0  0  0  0  0  0  0
    6.0112    1.9466    0.9376 C   0  0  0  0  0  0  0  0  0  0  0  0
    4.9181    1.5355    1.8105 C   0  0  2  0  0  0  0  0  0  0  0  0
    5.0850    1.2573    3.2695 C   0  0  0  0  0  0  0  0  0  0  0  0
    6.4220    1.2376    3.6632 O   0  0  0  0  0  0  0  0  0  0  0  0
   -4.7710   -0.9341    2.1654 H   0  0  0  0  0  0  0  0  0  0  0  0
   -5.7016   -1.1701    0.6688 H   0  0  0  0  0  0  0  0  0  0  0  0
   -6.8294    0.1054    2.1039 H   0  0  0  0  0  0  0  0  0  0  0  0
   -8.4443    1.8768    2.8115 H   0  0  0  0  0  0  0  0  0  0  0  0
   -7.9585    4.2671    2.3147 H   0  0  0  0  0  0  0  0  0  0  0  0
   -5.9176    4.9167    1.1442 H   0  0  0  0  0  0  0  0  0  0  0  0
   -4.3428    3.1679    0.4560 H   0  0  0  0  0  0  0  0  0  0  0  0
   -2.2361    0.8514    0.0994 H   0  0  0  0  0  0  0  0  0  0  0  0
   -3.3803    0.4038   -1.1988 H   0  0  0  0  0  0  0  0  0  0  0  0
   -1.2504    1.3692   -1.9557 H   0  0  0  0  0  0  0  0  0  0  0  0
   -1.7667   -0.1448   -2.7328 H   0  0  0  0  0  0  0  0  0  0  0  0
    0.6362    0.4242   -1.0845 H   0  0  0  0  0  0  0  0  0  0  0  0
   -0.3600   -0.8464    0.6402 H   0  0  0  0  0  0  0  0  0  0  0  0
    0.6308   -2.0735   -0.3190 H   0  0  0  0  0  0  0  0  0  0  0  0
   -1.5519   -2.2478   -1.7495 H   0  0  0  0  0  0  0  0  0  0  0  0
   -1.5546   -3.1138   -0.1013 H   0  0  0  0  0  0  0  0  0  0  0  0
   -0.1689   -1.2865   -3.4130 H   0  0  0  0  0  0  0  0  0  0  0  0
    1.3846   -2.8464   -4.2767 H   0  0  0  0  0  0  0  0  0  0  0  0
    3.7183   -3.7804   -4.3640 H   0  0  0  0  0  0  0  0  0  0  0  0
    5.3582   -3.0315   -2.6554 H   0  0  0  0  0  0  0  0  0  0  0  0
    2.3838   -0.5602   -0.9135 H   0  0  0  0  0  0  0  0  0  0  0  0
    3.9458    0.6318   -0.5208 H   0  0  0  0  0  0  0  0  0  0  0  0
    6.3116   -0.2000    1.2785 H   0  0  0  0  0  0  0  0  0  0  0  0
    5.8211    2.5497    0.0362 H   0  0  0  0  0  0  0  0  0  0  0  0
    6.9758    2.1810    1.4343 H   0  0  0  0  0  0  0  0  0  0  0  0
    3.9085    1.9146    1.5447 H   0  0  0  0  0  0  0  0  0  0  0  0
    4.5089    2.0173    3.8299 H   0  0  0  0  0  0  0  0  0  0  0  0
    4.6054    0.2725    3.4852 H   0  0  0  0  0  0  0  0  0  0  0  0
    6.9021    0.6091    3.0690 H   0  0  0  0  0  0  0  0  0  0  0  0
  1  2  1  0
  2  3  1  0
  3  4  2  0
  4  5  1  0
  5  6  2  0
  6  7  1  0
  7  8  2  0
  1  9  1  0
  9 10  2  0
  9 11  1  0
 11 12  1  0
 12 13  1  0
 13 14  1  0
 14 15  1  0
 15 16  1  0
 14 17  1  0
 17 18  1  0
 18 19  2  0
 19 20  1  0
 20 21  2  0
 21 22  1  0
 22 23  2  0
 22 24  1  0
 24 25  2  0
 24 26  1  0
 26 27  1  0
 27 28  1  0
 28 29  1  0
 29 30  1  0
 30 31  1  0
  8  3  1  0
 16 11  1  0
 23 18  1  0
 29 27  1  0
  1 32  1  0
  1 33  1  0
  4 34  1  0
  5 35  1  0
  6 36  1  0
  7 37  1  0
  8 38  1  0
 12 39  1  0
 12 40  1  0
 13 41  1  0
 13 42  1  0
 14 43  1  0
 15 44  1  0
 15 45  1  0
 16 46  1  0
 16 47  1  0
 17 48  1  0
 19 49  1  0
 20 50  1  0
 21 51  1  0
 23 52  1  0
 26 53  1  0
 27 54  1  1
 28 55  1  0
 28 56  1  0
 29 57  1  6
 30 58  1  0
 30 59  1  0
 31 60  1  0
M  END
$$$$
[H]c1nc2c([H])c([H])c([H])c([H])c2c(-c2c([H])nn3c([H])c(-c4c([H])c([H])c(C([H])([H])[H])c([H])c4[H])c([H])nc23)c1[H]
     RDKit          3D

 42 46  0  0  0  0  0  0  0  0999 V2000
   -7.3321    1.1380    0.1803 C   0  0  0  0  0  0  0  0  0  0  0  0
   -5.8754    0.8674    0.1618 C   0  0  0  0  0  0  0  0  0  0  0  0
   -4.9550    1.8103   -0.2570 C   0  0  0  0  0  0  0  0  0  0  0  0
   -3.6065    1.5133   -0.2649 C   0  0  0  0  0  0  0  0  0  0  0  0
   -3.1542    0.2783    0.1421 C   0  0  0  0  0  0  0  0  0  0  0  0
   -4.0893   -0.6674    0.5638 C   0  0  0  0  0  0  0  0  0  0  0  0
   -5.4126   -0.3699    0.5696 C   0  0  0  0  0  0  0  0  0  0  0  0
   -1.7566   -0.1135    0.1551 C   0  0  0  0  0  0  0  0  0  0  0  0
   -0.8666    0.3820   -0.7668 C   0  0  0  0  0  0  0  0  0  0  0  0
    0.4081   -0.0321   -0.7163 N   0  0  0  0  0  0  0  0  0  0  0  0
    0.8162   -0.9196    0.2206 C   0  0  0  0  0  0  0  0  0  0  0  0
    2.0669   -1.4719    0.4410 C   0  0  0  0  0  0  0  0  0  0  0  0
    1.8793   -2.3189    1.5378 C   0  0  0  0  0  0  0  0  0  0  0  0
    0.6044   -2.2628    1.9301 N   0  0  0  0  0  0  0  0  0  0  0  0
   -0.0495   -1.4148    1.1350 N   0  0  0  0  0  0  0  0  0  0  0  0
   -1.3438   -1.0125    1.1068 C   0  0  0  0  0  0  0  0  0  0  0  0
    3.3109   -1.2464   -0.2748 C   0  0  0  0  0  0  0  0  0  0  0  0
    3.8152   -2.2526   -1.1061 C   0  0  0  0  0  0  0  0  0  0  0  0
    4.9867   -2.1085   -1.8048 C   0  0  0  0  0  0  0  0  0  0  0  0
    5.6635   -0.9495   -1.6750 N   0  0  0  0  0  0  0  0  0  0  0  0
    5.2240    0.0458   -0.8932 C   0  0  0  0  0  0  0  0  0  0  0  0
    5.9246    1.2220   -0.7632 C   0  0  0  0  0  0  0  0  0  0  0  0
    5.4535    2.2503    0.0642 C   0  0  0  0  0  0  0  0  0  0  0  0
    4.2773    2.0933    0.7596 C   0  0  0  0  0  0  0  0  0  0  0  0
    3.5596    0.9221    0.6438 C   0  0  0  0  0  0  0  0  0  0  0  0
    4.0356   -0.0887   -0.1780 C   0  0  0  0  0  0  0  0  0  0  0  0
   -7.5822    1.9492    0.8712 H   0  0  0  0  0  0  0  0  0  0  0  0
   -7.8696    0.2113    0.4361 H   0  0  0  0  0  0  0  0  0  0  0  0
   -7.6120    1.3714   -0.8699 H   0  0  0  0  0  0  0  0  0  0  0  0
   -5.2906    2.8003   -0.5857 H   0  0  0  0  0  0  0  0  0  0  0  0
   -2.8914    2.2616   -0.5963 H   0  0  0  0  0  0  0  0  0  0  0  0
   -3.7694   -1.6657    0.8996 H   0  0  0  0  0  0  0  0  0  0  0  0
   -6.1297   -1.1330    0.9123 H   0  0  0  0  0  0  0  0  0  0  0  0
   -1.2087    1.1070   -1.5232 H   0  0  0  0  0  0  0  0  0  0  0  0
    2.6724   -2.9083    1.9665 H   0  0  0  0  0  0  0  0  0  0  0  0
   -1.9887   -1.4392    1.8645 H   0  0  0  0  0  0  0  0  0  0  0  0
    3.2587   -3.1551   -1.1861 H   0  0  0  0  0  0  0  0  0  0  0  0
    5.3820   -2.8820   -2.4489 H   0  0  0  0  0  0  0  0  0  0  0  0
    6.8590    1.3761   -1.3052 H   0  0  0  0  0  0  0  0  0  0  0  0
    6.0309    3.1623    0.1434 H   0  0  0  0  0  0  0  0  0  0  0  0
    3.9260    2.8828    1.3833 H   0  0  0  0  0  0  0  0  0  0  0  0
    2.6292    0.7677    1.1851 H   0  0  0  0  0  0  0  0  0  0  0  0
  1  2  1  0
  2  3  2  0
  3  4  1  0
  4  5  2  0
  5  6  1  0
  6  7  2  0
  5  8  1  0
  8  9  1  0
  9 10  2  0
 10 11  1  0
 11 12  2  0
 12 13  1  0
 13 14  2  0
 14 15  1  0
 15 16  1  0
 12 17  1  0
 17 18  2  0
 18 19  1  0
 19 20  2  0
 20 21  1  0
 21 22  2  0
 22 23  1  0
 23 24  2  0
 24 25  1  0
 25 26  2  0
  7  2  1  0
 16  8  2  0
 26 17  1  0
 15 11  1  0
 26 21  1  0
  1 27  1  0
  1 28  1  0
  1 29  1  0
  3 30  1  0
  4 31  1  0
  6 32  1  0
  7 33  1  0
  9 34  1  0
 13 35  1  0
 16 36  1  0
 18 37  1  0
 19 38  1  0
 22 39  1  0
 23 40  1  0
 24 41  1  0
 25 42  1  0
M  END
$$$$
[H]c1sc(-c2c([H])c([H])c(C([H])([H])C3([H])N=C(N([H])C([H])([H])C([H])([H])C([H])([H])C([H])([H])C4([H])C([H])([H])C([H])([H])C([H])([H])C([H])([H])C4([H])[H])N([H])C(=NC([H])([H])[H])C3=O)c([H])c2[H])c([H])c1[H]
     RDKit          3D

 66 69  0  0  0  0  0  0  0  0999 V2000
    0.2884   -2.5492   -2.4850 C   0  0  0  0  0  0  0  0  0  0  0  0
   -0.9941   -2.2850   -1.8749 N   0  0  0  0  0  0  0  0  0  0  0  0
   -1.1295   -2.0418   -0.6260 C   0  0  0  0  0  0  0  0  0  0  0  0
   -0.0038   -2.0200    0.2351 N   0  0  0  0  0  0  0  0  0  0  0  0
   -0.1999   -1.7380    1.6270 C   0  0  0  0  0  0  0  0  0  0  0  0
    0.9720   -1.7367    2.4621 N   0  0  0  0  0  0  0  0  0  0  0  0
    2.2650   -1.5676    1.8942 C   0  0  0  0  0  0  0  0  0  0  0  0
    2.4463   -0.1573    1.3387 C   0  0  0  0  0  0  0  0  0  0  0  0
    3.8608   -0.1190    0.7692 C   0  0  0  0  0  0  0  0  0  0  0  0
    4.1009    1.2525    0.2058 C   0  0  0  0  0  0  0  0  0  0  0  0
    5.4701    1.4121   -0.3882 C   0  0  0  0  0  0  0  0  0  0  0  0
    5.7225    0.4465   -1.5170 C   0  0  0  0  0  0  0  0  0  0  0  0
    6.9929    0.7875   -2.2381 C   0  0  0  0  0  0  0  0  0  0  0  0
    8.0122    1.4666   -1.3752 C   0  0  0  0  0  0  0  0  0  0  0  0
    7.9096    1.0252    0.0760 C   0  0  0  0  0  0  0  0  0  0  0  0
    6.5462    1.3245    0.6474 C   0  0  0  0  0  0  0  0  0  0  0  0
   -1.3476   -1.5098    2.0691 N   0  0  0  0  0  0  0  0  0  0  0  0
   -2.6230   -1.4666    1.4035 C   0  0  0  0  0  0  0  0  0  0  0  0
   -3.2018   -0.1122    1.6827 C   0  0  0  0  0  0  0  0  0  0  0  0
   -4.5134    0.1739    1.1104 C   0  0  0  0  0  0  0  0  0  0  0  0
   -5.7018   -0.1603    1.7326 C   0  0  0  0  0  0  0  0  0  0  0  0
   -6.8917    0.1704    1.1386 C   0  0  0  0  0  0  0  0  0  0  0  0
   -6.9417    0.8234   -0.0556 C   0  0  0  0  0  0  0  0  0  0  0  0
   -5.7680    1.1621   -0.6862 C   0  0  0  0  0  0  0  0  0  0  0  0
   -4.5687    0.8356   -0.1000 C   0  0  0  0  0  0  0  0  0  0  0  0
   -8.2370    1.1760   -0.6848 C   0  0  0  0  0  0  0  0  0  0  0  0
   -9.4943    0.9211   -0.2041 C   0  0  0  0  0  0  0  0  0  0  0  0
  -10.5296    1.3328   -0.9420 C   0  0  0  0  0  0  0  0  0  0  0  0
  -10.2518    1.9754   -2.1175 C   0  0  0  0  0  0  0  0  0  0  0  0
   -8.5469    1.9836   -2.1541 S   0  0  0  0  0  0  0  0  0  0  0  0
   -2.4304   -1.7772   -0.0276 C   0  0  0  0  0  0  0  0  0  0  0  0
   -3.4087   -1.8378   -0.8474 O   0  0  0  0  0  0  0  0  0  0  0  0
    0.2162   -2.4836   -3.6106 H   0  0  0  0  0  0  0  0  0  0  0  0
    0.6694   -3.5600   -2.2099 H   0  0  0  0  0  0  0  0  0  0  0  0
    1.0340   -1.7948   -2.1433 H   0  0  0  0  0  0  0  0  0  0  0  0
    0.9401   -2.2085   -0.1559 H   0  0  0  0  0  0  0  0  0  0  0  0
    0.8577   -1.8610    3.4877 H   0  0  0  0  0  0  0  0  0  0  0  0
    3.0333   -1.6997    2.7008 H   0  0  0  0  0  0  0  0  0  0  0  0
    2.5305   -2.3061    1.1077 H   0  0  0  0  0  0  0  0  0  0  0  0
    1.7242   -0.0413    0.5067 H   0  0  0  0  0  0  0  0  0  0  0  0
    2.2889    0.6058    2.1069 H   0  0  0  0  0  0  0  0  0  0  0  0
    4.5287   -0.4019    1.5873 H   0  0  0  0  0  0  0  0  0  0  0  0
    3.8906   -0.8900   -0.0314 H   0  0  0  0  0  0  0  0  0  0  0  0
    3.2999    1.4517   -0.5320 H   0  0  0  0  0  0  0  0  0  0  0  0
    4.0169    1.9767    1.0637 H   0  0  0  0  0  0  0  0  0  0  0  0
    5.5274    2.4588   -0.8087 H   0  0  0  0  0  0  0  0  0  0  0  0
    5.7981   -0.5917   -1.1084 H   0  0  0  0  0  0  0  0  0  0  0  0
    4.8912    0.5165   -2.2583 H   0  0  0  0  0  0  0  0  0  0  0  0
    7.4467   -0.1494   -2.6680 H   0  0  0  0  0  0  0  0  0  0  0  0
    6.7669    1.4141   -3.1463 H   0  0  0  0  0  0  0  0  0  0  0  0
    7.9656    2.5777   -1.4334 H   0  0  0  0  0  0  0  0  0  0  0  0
    9.0389    1.1593   -1.7067 H   0  0  0  0  0  0  0  0  0  0  0  0
    8.1636   -0.0513    0.1234 H   0  0  0  0  0  0  0  0  0  0  0  0
    8.6697    1.5840    0.6458 H   0  0  0  0  0  0  0  0  0  0  0  0
    6.6020    2.2897    1.2132 H   0  0  0  0  0  0  0  0  0  0  0  0
    6.3177    0.5362    1.3882 H   0  0  0  0  0  0  0  0  0  0  0  0
   -3.2369   -2.2793    1.9059 H   0  0  0  0  0  0  0  0  0  0  0  0
   -3.3151   -0.0552    2.8025 H   0  0  0  0  0  0  0  0  0  0  0  0
   -2.4275    0.6445    1.4321 H   0  0  0  0  0  0  0  0  0  0  0  0
   -5.6516   -0.6734    2.6709 H   0  0  0  0  0  0  0  0  0  0  0  0
   -7.8310   -0.0984    1.6398 H   0  0  0  0  0  0  0  0  0  0  0  0
   -5.7565    1.6884   -1.6503 H   0  0  0  0  0  0  0  0  0  0  0  0
   -3.6291    1.1074   -0.6062 H   0  0  0  0  0  0  0  0  0  0  0  0
   -9.6033    0.3873    0.7696 H   0  0  0  0  0  0  0  0  0  0  0  0
  -11.5890    1.1780   -0.6465 H   0  0  0  0  0  0  0  0  0  0  0  0
  -10.9810    2.3786   -2.8436 H   0  0  0  0  0  0  0  0  0  0  0  0
  1  2  1  0
  2  3  2  3
  3  4  1  0
  4  5  1  0
  5  6  1  0
  6  7  1  0
  7  8  1  0
  8  9  1  0
  9 10  1  0
 10 11  1  0
 11 12  1  0
 12 13  1  0
 13 14  1  0
 14 15  1  0
 15 16  1  0
  5 17  2  0
 17 18  1  0
 18 19  1  0
 19 20  1  0
 20 21  2  0
 21 22  1  0
 22 23  2  0
 23 24  1  0
 24 25  2  0
 23 26  1  0
 26 27  2  0
 27 28  1  0
 28 29  2  0
 29 30  1  0
 18 31  1  0
 31 32  2  0
 31  3  1  0
 16 11  1  0
 25 20  1  0
 30 26  1  0
  1 33  1  0
  1 34  1  0
  1 35  1  0
  4 36  1  0
  6 37  1  0
  7 38  1  0
  7 39  1  0
  8 40  1  0
  8 41  1  0
  9 42  1  0
  9 43  1  0
 10 44  1  0
 10 45  1  0
 11 46  1  0
 12 47  1  0
 12 48  1  0
 13 49  1  0
 13 50  1  0
 14 51  1  0
 14 52  1  0
 15 53  1  0
 15 54  1  0
 16 55  1  0
 16 56  1  0
 18 57  1  0
 19 58  1  0
 19 59  1  0
 21 60  1  0
 22 61  1  0
 24 62  1  0
 25 63  1  0
 27 64  1  0
 28 65  1  0
 29 66  1  0
M  END
$$$$
[H]c1c([H])c(C([H])([H])Oc2c([H])c3sc4c(c3n([H])c2=O)C([H])([H])[C@]([H])(OC([H])([H])[H])C4([H])[H])c([H])c([H])c1Cl
     RDKit          3D

 40 43  0  0  0  0  0  0  0  0999 V2000
    6.7130    0.3832   -1.2572 C   0  0  0  0  0  0  0  0  0  0  0  0
    5.4723    0.8919   -1.6611 O   0  0  0  0  0  0  0  0  0  0  0  0
    4.4877    0.1329   -1.0244 C   0  0  1  0  0  0  0  0  0  0  0  0
    3.5809    1.0389   -0.2790 C   0  0  0  0  0  0  0  0  0  0  0  0
    2.2347    0.3469   -0.2373 C   0  0  0  0  0  0  0  0  0  0  0  0
    2.2469   -0.4803   -1.3066 C   0  0  0  0  0  0  0  0  0  0  0  0
    3.5342   -0.4036   -2.0753 C   0  0  0  0  0  0  0  0  0  0  0  0
    0.7248   -1.2338   -1.2366 S   0  0  0  0  0  0  0  0  0  0  0  0
    0.1033   -0.4759    0.1595 C   0  0  0  0  0  0  0  0  0  0  0  0
   -1.1237   -0.6084    0.8257 C   0  0  0  0  0  0  0  0  0  0  0  0
   -1.3605    0.1411    1.9477 C   0  0  0  0  0  0  0  0  0  0  0  0
   -2.5259    0.0635    2.6466 O   0  0  0  0  0  0  0  0  0  0  0  0
   -3.6066   -0.7373    2.3220 C   0  0  0  0  0  0  0  0  0  0  0  0
   -4.2039   -0.3645    1.0217 C   0  0  0  0  0  0  0  0  0  0  0  0
   -4.9899   -1.2710    0.3031 C   0  0  0  0  0  0  0  0  0  0  0  0
   -5.5644   -0.9362   -0.9020 C   0  0  0  0  0  0  0  0  0  0  0  0
   -5.3876    0.3177   -1.4562 C   0  0  0  0  0  0  0  0  0  0  0  0
   -6.1188    0.7410   -2.9883 Cl  0  0  0  0  0  0  0  0  0  0  0  0
   -4.6153    1.2165   -0.7556 C   0  0  0  0  0  0  0  0  0  0  0  0
   -4.0432    0.8841    0.4439 C   0  0  0  0  0  0  0  0  0  0  0  0
   -0.3167    0.9794    2.3128 C   0  0  0  0  0  0  0  0  0  0  0  0
   -0.5285    1.6807    3.3573 O   0  0  0  0  0  0  0  0  0  0  0  0
    0.8359    1.0909    1.6709 N   0  0  0  0  0  0  0  0  0  0  0  0
    1.1137    0.3562    0.5386 C   0  0  0  0  0  0  0  0  0  0  0  0
    6.7629    0.4871   -0.1604 H   0  0  0  0  0  0  0  0  0  0  0  0
    6.7498   -0.7054   -1.5114 H   0  0  0  0  0  0  0  0  0  0  0  0
    7.5354    0.9529   -1.7107 H   0  0  0  0  0  0  0  0  0  0  0  0
    4.8978   -0.6482   -0.3863 H   0  0  0  0  0  0  0  0  0  0  0  0
    3.3937    1.9426   -0.9310 H   0  0  0  0  0  0  0  0  0  0  0  0
    3.9244    1.3239    0.7209 H   0  0  0  0  0  0  0  0  0  0  0  0
    3.8970   -1.3994   -2.3758 H   0  0  0  0  0  0  0  0  0  0  0  0
    3.4656    0.2240   -2.9650 H   0  0  0  0  0  0  0  0  0  0  0  0
   -1.8550   -1.3250    0.4306 H   0  0  0  0  0  0  0  0  0  0  0  0
   -4.4441   -0.6578    3.0734 H   0  0  0  0  0  0  0  0  0  0  0  0
   -3.3312   -1.8244    2.2845 H   0  0  0  0  0  0  0  0  0  0  0  0
   -5.1212   -2.2401    0.7404 H   0  0  0  0  0  0  0  0  0  0  0  0
   -6.1654   -1.6373   -1.4461 H   0  0  0  0  0  0  0  0  0  0  0  0
   -4.4717    2.2092   -1.1881 H   0  0  0  0  0  0  0  0  0  0  0  0
   -3.4383    1.5935    0.9888 H   0  0  0  0  0  0  0  0  0  0  0  0
    1.5376    1.7710    2.0660 H   0  0  0  0  0  0  0  0  0  0  0  0
  1  2  1  0
  2  3  1  0
  3  4  1  0
  4  5  1  0
  5  6  2  0
  6  7  1  0
  6  8  1  0
  8  9  1  0
  9 10  1  0
 10 11  2  0
 11 12  1  0
 12 13  1  0
 13 14  1  0
 14 15  2  0
 15 16  1  0
 16 17  2  0
 17 18  1  0
 17 19  1  0
 19 20  2  0
 11 21  1  0
 21 22  2  0
 21 23  1  0
 23 24  1  0
  7  3  1  0
 24  9  2  0
 24  5  1  0
 20 14  1  0
  1 25  1  0
  1 26  1  0
  1 27  1  0
  3 28  1  1
  4 29  1  0
  4 30  1  0
  7 31  1  0
  7 32  1  0
 10 33  1  0
 13 34  1  0
 13 35  1  0
 15 36  1  0
 16 37  1  0
 19 38  1  0
 20 39  1  0
 23 40  1  0
M  END
$$$$
[H]c1nc(N2C([H])([H])N(C3([H])C([H])([H])C([H])([H])N([H])C([H])([H])C3([H])[H])C([H])([H])C2([H])[H])c([H])c([H])c1-c1c([H])nc2c(-c3c([H])c([H])c([H])c4c([H])c([H])c([H])c([H])c34)c([H])nn2c1[H]
     RDKit          3D

 65 71  0  0  0  0  0  0  0  0999 V2000
   -4.6678    0.6225   -0.6816 C   0  0  0  0  0  0  0  0  0  0  0  0
   -5.5792    0.6772    0.4713 N   0  0  0  0  0  0  0  0  0  0  0  0
   -5.6508    2.0691    0.7854 C   0  0  0  0  0  0  0  0  0  0  0  0
   -4.3178    2.6390    0.3456 C   0  0  0  0  0  0  0  0  0  0  0  0
   -3.6040    1.4920   -0.2263 N   0  0  0  0  0  0  0  0  0  0  0  0
   -2.2208    1.2736   -0.3171 C   0  0  0  0  0  0  0  0  0  0  0  0
   -1.7389    0.1025   -0.8646 C   0  0  0  0  0  0  0  0  0  0  0  0
   -0.3721   -0.1487   -0.9744 C   0  0  0  0  0  0  0  0  0  0  0  0
    0.5364    0.8065   -0.5198 C   0  0  0  0  0  0  0  0  0  0  0  0
    0.0137    1.9581    0.0182 C   0  0  0  0  0  0  0  0  0  0  0  0
   -1.2993    2.1578    0.1043 N   0  0  0  0  0  0  0  0  0  0  0  0
    1.9611    0.5541   -0.6284 C   0  0  0  0  0  0  0  0  0  0  0  0
    2.9000    1.0403    0.2568 C   0  0  0  0  0  0  0  0  0  0  0  0
    4.2002    0.7366    0.0491 N   0  0  0  0  0  0  0  0  0  0  0  0
    4.6172   -0.0241   -0.9910 C   0  0  0  0  0  0  0  0  0  0  0  0
    5.8539   -0.4495   -1.3898 C   0  0  0  0  0  0  0  0  0  0  0  0
    5.6442   -1.2060   -2.5389 C   0  0  0  0  0  0  0  0  0  0  0  0
    4.3415   -1.2323   -2.8147 N   0  0  0  0  0  0  0  0  0  0  0  0
    3.7201   -0.5111   -1.8694 N   0  0  0  0  0  0  0  0  0  0  0  0
    2.4264   -0.2147   -1.6709 C   0  0  0  0  0  0  0  0  0  0  0  0
    7.1559   -0.1954   -0.7831 C   0  0  0  0  0  0  0  0  0  0  0  0
    8.0675    0.6498   -1.4009 C   0  0  0  0  0  0  0  0  0  0  0  0
    9.3059    0.9130   -0.8608 C   0  0  0  0  0  0  0  0  0  0  0  0
    9.6368    0.3126    0.3286 C   0  0  0  0  0  0  0  0  0  0  0  0
    8.7661   -0.5361    0.9832 C   0  0  0  0  0  0  0  0  0  0  0  0
    9.1491   -1.1081    2.1663 C   0  0  0  0  0  0  0  0  0  0  0  0
    8.2837   -1.9518    2.8164 C   0  0  0  0  0  0  0  0  0  0  0  0
    7.0257   -2.2246    2.2764 C   0  0  0  0  0  0  0  0  0  0  0  0
    6.6714   -1.6345    1.0863 C   0  0  0  0  0  0  0  0  0  0  0  0
    7.5170   -0.7828    0.4099 C   0  0  0  0  0  0  0  0  0  0  0  0
   -6.8320    0.1362   -0.0100 C   0  0  0  0  0  0  0  0  0  0  0  0
   -6.5774   -1.3061   -0.4174 C   0  0  0  0  0  0  0  0  0  0  0  0
   -7.8604   -2.1181   -0.2178 C   0  0  0  0  0  0  0  0  0  0  0  0
   -9.0405   -1.3361   -0.5079 N   0  0  0  0  0  0  0  0  0  0  0  0
   -9.2200   -0.2095    0.3518 C   0  0  0  0  0  0  0  0  0  0  0  0
   -7.9127    0.1256    1.0432 C   0  0  0  0  0  0  0  0  0  0  0  0
   -5.1686    1.0722   -1.5611 H   0  0  0  0  0  0  0  0  0  0  0  0
   -4.3764   -0.4197   -0.8099 H   0  0  0  0  0  0  0  0  0  0  0  0
   -6.5070    2.5893    0.3117 H   0  0  0  0  0  0  0  0  0  0  0  0
   -5.6690    2.1588    1.9055 H   0  0  0  0  0  0  0  0  0  0  0  0
   -3.7153    3.0360    1.1588 H   0  0  0  0  0  0  0  0  0  0  0  0
   -4.4443    3.3759   -0.4794 H   0  0  0  0  0  0  0  0  0  0  0  0
   -2.3964   -0.6711   -1.2313 H   0  0  0  0  0  0  0  0  0  0  0  0
   -0.0176   -1.0647   -1.4016 H   0  0  0  0  0  0  0  0  0  0  0  0
    0.7437    2.7005    0.3717 H   0  0  0  0  0  0  0  0  0  0  0  0
    2.5921    1.6428    1.0850 H   0  0  0  0  0  0  0  0  0  0  0  0
    6.4568   -1.6758   -3.0791 H   0  0  0  0  0  0  0  0  0  0  0  0
    1.7051   -0.6183   -2.3965 H   0  0  0  0  0  0  0  0  0  0  0  0
    7.8169    1.1239   -2.3335 H   0  0  0  0  0  0  0  0  0  0  0  0
   10.0035    1.5787   -1.3627 H   0  0  0  0  0  0  0  0  0  0  0  0
   10.5963    0.4994    0.7704 H   0  0  0  0  0  0  0  0  0  0  0  0
   10.1075   -0.9074    2.5884 H   0  0  0  0  0  0  0  0  0  0  0  0
    8.5161   -2.4378    3.7518 H   0  0  0  0  0  0  0  0  0  0  0  0
    6.3523   -2.8902    2.7957 H   0  0  0  0  0  0  0  0  0  0  0  0
    5.6847   -1.8482    0.6646 H   0  0  0  0  0  0  0  0  0  0  0  0
   -7.2159    0.7063   -0.8759 H   0  0  0  0  0  0  0  0  0  0  0  0
   -6.2235   -1.3749   -1.4645 H   0  0  0  0  0  0  0  0  0  0  0  0
   -5.8084   -1.7990    0.2145 H   0  0  0  0  0  0  0  0  0  0  0  0
   -7.7959   -2.9555   -0.9535 H   0  0  0  0  0  0  0  0  0  0  0  0
   -7.8547   -2.5717    0.7779 H   0  0  0  0  0  0  0  0  0  0  0  0
   -9.0280   -1.0974   -1.5223 H   0  0  0  0  0  0  0  0  0  0  0  0
   -9.4396    0.6785   -0.3101 H   0  0  0  0  0  0  0  0  0  0  0  0
  -10.0471   -0.3420    1.0846 H   0  0  0  0  0  0  0  0  0  0  0  0
   -7.7451   -0.6553    1.8124 H   0  0  0  0  0  0  0  0  0  0  0  0
   -8.0225    1.0899    1.5560 H   0  0  0  0  0  0  0  0  0  0  0  0
  1  2  1  0
  2  3  1  0
  3  4  1  0
  4  5  1  0
  5  6  1  0
  6  7  2  0
  7  8  1  0
  8  9  2  0
  9 10  1  0
 10 11  2  0
  9 12  1  0
 12 13  1  0
 13 14  2  0
 14 15  1  0
 15 16  2  0
 16 17  1  0
 17 18  2  0
 18 19  1  0
 19 20  1  0
 16 21  1  0
 21 22  2  0
 22 23  1  0
 23 24  2  0
 24 25  1  0
 25 26  2  0
 26 27  1  0
 27 28  2  0
 28 29  1  0
 29 30  2  0
  2 31  1  0
 31 32  1  0
 32 33  1  0
 33 34  1  0
 34 35  1  0
 35 36  1  0
  5  1  1  0
 11  6  1  0
 20 12  2  0
 30 21  1  0
 36 31  1  0
 19 15  1  0
 30 25  1  0
  1 37  1  0
  1 38  1  0
  3 39  1  0
  3 40  1  0
  4 41  1  0
  4 42  1  0
  7 43  1  0
  8 44  1  0
 10 45  1  0
 13 46  1  0
 17 47  1  0
 20 48  1  0
 22 49  1  0
 23 50  1  0
 24 51  1  0
 26 52  1  0
 27 53  1  0
 28 54  1  0
 29 55  1  0
 31 56  1  0
 32 57  1  0
 32 58  1  0
 33 59  1  0
 33 60  1  0
 34 61  1  0
 35 62  1  0
 35 63  1  0
 36 64  1  0
 36 65  1  0
M  END
$$$$
[H]ON([H])C(=O)C1([H])N(P(=O)(OC([H])([H])C([H])([H])[H])c2c([H])c([H])c([H])c([H])c2[H])C([H])([H])c2c([H])c([H])c([H])c([H])c2C1([H])[H]
     RDKit          3D

 46 48  0  0  0  0  0  0  0  0999 V2000
   -3.1441    3.0046   -1.8994 C   0  0  0  0  0  0  0  0  0  0  0  0
   -1.9583    2.0572   -1.7749 C   0  0  0  0  0  0  0  0  0  0  0  0
   -2.3212    1.0927   -0.8463 O   0  0  0  0  0  0  0  0  0  0  0  0
   -1.0978   -0.0477   -0.5999 P   0  0  0  0  0  0  0  0  0  0  0  0
   -0.8516   -0.6920   -1.9701 O   0  0  0  0  0  0  0  0  0  0  0  0
    0.3462    0.7825   -0.1655 N   0  0  0  0  0  0  0  0  0  0  0  0
    1.1576    1.1880   -1.2502 C   0  0  0  0  0  0  0  0  0  0  0  0
    2.1713    0.0851   -1.4215 C   0  0  0  0  0  0  0  0  0  0  0  0
    2.4156   -0.4446   -2.6464 C   0  0  0  0  0  0  0  0  0  0  0  0
    3.3513   -1.4725   -2.7510 C   0  0  0  0  0  0  0  0  0  0  0  0
    3.9948   -1.9178   -1.6244 C   0  0  0  0  0  0  0  0  0  0  0  0
    3.7147   -1.3483   -0.3950 C   0  0  0  0  0  0  0  0  0  0  0  0
    2.8135   -0.3466   -0.2423 C   0  0  0  0  0  0  0  0  0  0  0  0
    2.4234    0.3608    0.9903 C   0  0  0  0  0  0  0  0  0  0  0  0
    0.9271    0.4680    1.0505 C   0  0  0  0  0  0  0  0  0  0  0  0
    0.4931    1.3146    2.1977 C   0  0  0  0  0  0  0  0  0  0  0  0
    0.9403    1.0789    3.3396 O   0  0  0  0  0  0  0  0  0  0  0  0
   -0.4132    2.3861    2.0490 N   0  0  0  0  0  0  0  0  0  0  0  0
   -0.8331    3.1716    3.0391 O   0  0  0  0  0  0  0  0  0  0  0  0
   -1.5738   -1.3121    0.5251 C   0  0  0  0  0  0  0  0  0  0  0  0
   -2.3975   -1.0409    1.5931 C   0  0  0  0  0  0  0  0  0  0  0  0
   -2.7820   -2.0314    2.4911 C   0  0  0  0  0  0  0  0  0  0  0  0
   -2.3362   -3.3125    2.3186 C   0  0  0  0  0  0  0  0  0  0  0  0
   -1.5178   -3.6124    1.2685 C   0  0  0  0  0  0  0  0  0  0  0  0
   -1.1424   -2.6128    0.3803 C   0  0  0  0  0  0  0  0  0  0  0  0
   -2.9208    3.8831   -2.5223 H   0  0  0  0  0  0  0  0  0  0  0  0
   -3.4475    3.2662   -0.8662 H   0  0  0  0  0  0  0  0  0  0  0  0
   -3.9819    2.3962   -2.3244 H   0  0  0  0  0  0  0  0  0  0  0  0
   -1.6874    1.6462   -2.7457 H   0  0  0  0  0  0  0  0  0  0  0  0
   -1.1304    2.6661   -1.3084 H   0  0  0  0  0  0  0  0  0  0  0  0
    1.7323    2.1299   -1.0603 H   0  0  0  0  0  0  0  0  0  0  0  0
    0.6216    1.3023   -2.1952 H   0  0  0  0  0  0  0  0  0  0  0  0
    1.9294   -0.1216   -3.5585 H   0  0  0  0  0  0  0  0  0  0  0  0
    3.5872   -1.9327   -3.6992 H   0  0  0  0  0  0  0  0  0  0  0  0
    4.7299   -2.7259   -1.7085 H   0  0  0  0  0  0  0  0  0  0  0  0
    4.2245   -1.7007    0.4995 H   0  0  0  0  0  0  0  0  0  0  0  0
    2.8562   -0.1027    1.9025 H   0  0  0  0  0  0  0  0  0  0  0  0
    2.8159    1.4177    0.8754 H   0  0  0  0  0  0  0  0  0  0  0  0
    0.5953   -0.6044    1.3040 H   0  0  0  0  0  0  0  0  0  0  0  0
   -0.7827    2.5815    1.0940 H   0  0  0  0  0  0  0  0  0  0  0  0
   -1.0244    2.5868    3.8382 H   0  0  0  0  0  0  0  0  0  0  0  0
   -2.7810   -0.0500    1.7812 H   0  0  0  0  0  0  0  0  0  0  0  0
   -3.4269   -1.8320    3.3317 H   0  0  0  0  0  0  0  0  0  0  0  0
   -2.6379   -4.0920    3.0241 H   0  0  0  0  0  0  0  0  0  0  0  0
   -1.1634   -4.6242    1.1291 H   0  0  0  0  0  0  0  0  0  0  0  0
   -0.4877   -2.8883   -0.4471 H   0  0  0  0  0  0  0  0  0  0  0  0
  1  2  1  0
  2  3  1  0
  3  4  1  0
  4  5  2  0
  4  6  1  0
  6  7  1  0
  7  8  1  0
  8  9  2  0
  9 10  1  0
 10 11  2  0
 11 12  1  0
 12 13  2  0
 13 14  1  0
 14 15  1  0
 15 16  1  0
 16 17  2  0
 16 18  1  0
 18 19  1  0
  4 20  1  0
 20 21  2  0
 21 22  1  0
 22 23  2  0
 23 24  1  0
 24 25  2  0
 15  6  1  0
 25 20  1  0
 13  8  1  0
  1 26  1  0
  1 27  1  0
  1 28  1  0
  2 29  1  0
  2 30  1  0
  7 31  1  0
  7 32  1  0
  9 33  1  0
 10 34  1  0
 11 35  1  0
 12 36  1  0
 14 37  1  0
 14 38  1  0
 15 39  1  0
 18 40  1  0
 19 41  1  0
 21 42  1  0
 22 43  1  0
 23 44  1  0
 24 45  1  0
 25 46  1  0
M  END
$$$$
[H]c1nn(C2([H])C([H])([H])C([H])([H])N(C([H])([H])[H])C([H])([H])C2([H])[H])c([H])c1-c1c([H])nc2c([H])c(-c3sc(C([H])([H])N4C([H])([H])C([H])([H])N(C([H])([H])[H])C([H])([H])C4([H])[H])c([H])c3[H])c([H])c([H])n12
     RDKit          3D

 67 72  0  0  0  0  0  0  0  0999 V2000
   -9.2239    0.4356    2.1769 C   0  0  0  0  0  0  0  0  0  0  0  0
   -9.6637    0.6564    0.8290 N   0  0  0  0  0  0  0  0  0  0  0  0
   -9.0994    1.8116    0.2016 C   0  0  0  0  0  0  0  0  0  0  0  0
   -7.7783    1.4976   -0.5133 C   0  0  0  0  0  0  0  0  0  0  0  0
   -7.8528    0.2997   -1.2710 N   0  0  0  0  0  0  0  0  0  0  0  0
   -7.0024   -0.7618   -0.8870 C   0  0  0  0  0  0  0  0  0  0  0  0
   -5.5465   -0.4434   -0.9605 C   0  0  0  0  0  0  0  0  0  0  0  0
   -4.9464    0.6499   -1.5188 C   0  0  0  0  0  0  0  0  0  0  0  0
   -3.6138    0.7282   -1.4651 C   0  0  0  0  0  0  0  0  0  0  0  0
   -2.9498   -0.2998   -0.8511 C   0  0  0  0  0  0  0  0  0  0  0  0
   -4.2156   -1.3376   -0.3718 S   0  0  0  0  0  0  0  0  0  0  0  0
   -1.4877   -0.4498   -0.6624 C   0  0  0  0  0  0  0  0  0  0  0  0
   -0.6294    0.5084   -1.1278 C   0  0  0  0  0  0  0  0  0  0  0  0
    0.7580    0.4323   -0.9851 C   0  0  0  0  0  0  0  0  0  0  0  0
    1.2780   -0.6370   -0.3584 N   0  0  0  0  0  0  0  0  0  0  0  0
    2.5387   -0.9663   -0.0855 C   0  0  0  0  0  0  0  0  0  0  0  0
    2.4508   -2.1972    0.5860 C   0  0  0  0  0  0  0  0  0  0  0  0
    1.1627   -2.5364    0.6793 N   0  0  0  0  0  0  0  0  0  0  0  0
    0.4123   -1.5864    0.1016 C   0  0  0  0  0  0  0  0  0  0  0  0
   -0.9516   -1.5242   -0.0317 C   0  0  0  0  0  0  0  0  0  0  0  0
    3.8103   -0.3058   -0.3570 C   0  0  0  0  0  0  0  0  0  0  0  0
    4.1254    0.8665   -0.9797 C   0  0  0  0  0  0  0  0  0  0  0  0
    5.4708    1.0064   -0.9595 N   0  0  0  0  0  0  0  0  0  0  0  0
    6.0337   -0.0147   -0.3566 N   0  0  0  0  0  0  0  0  0  0  0  0
    5.0422   -0.8323    0.0219 C   0  0  0  0  0  0  0  0  0  0  0  0
    7.4385   -0.1840   -0.1618 C   0  0  0  0  0  0  0  0  0  0  0  0
    8.2047    1.1041   -0.3004 C   0  0  0  0  0  0  0  0  0  0  0  0
    9.6734    0.8294   -0.2090 C   0  0  0  0  0  0  0  0  0  0  0  0
   10.0686    0.0393    0.9036 N   0  0  0  0  0  0  0  0  0  0  0  0
   10.5469    0.7639    2.0352 C   0  0  0  0  0  0  0  0  0  0  0  0
    9.2396   -1.0787    1.1976 C   0  0  0  0  0  0  0  0  0  0  0  0
    7.7628   -0.7399    1.2241 C   0  0  0  0  0  0  0  0  0  0  0  0
   -9.2078   -0.2077   -1.3776 C   0  0  0  0  0  0  0  0  0  0  0  0
   -9.6937   -0.5207    0.0144 C   0  0  0  0  0  0  0  0  0  0  0  0
   -8.5851   -0.4427    2.3157 H   0  0  0  0  0  0  0  0  0  0  0  0
   -8.7246    1.3709    2.5417 H   0  0  0  0  0  0  0  0  0  0  0  0
  -10.1393    0.3129    2.8148 H   0  0  0  0  0  0  0  0  0  0  0  0
   -9.8003    2.3197   -0.4967 H   0  0  0  0  0  0  0  0  0  0  0  0
   -8.8593    2.5587    0.9858 H   0  0  0  0  0  0  0  0  0  0  0  0
   -6.9963    1.5332    0.2443 H   0  0  0  0  0  0  0  0  0  0  0  0
   -7.6335    2.3731   -1.2126 H   0  0  0  0  0  0  0  0  0  0  0  0
   -7.1670   -1.1306    0.1667 H   0  0  0  0  0  0  0  0  0  0  0  0
   -7.2123   -1.6352   -1.5379 H   0  0  0  0  0  0  0  0  0  0  0  0
   -5.5719    1.4307   -1.9965 H   0  0  0  0  0  0  0  0  0  0  0  0
   -3.0159    1.5701   -1.8851 H   0  0  0  0  0  0  0  0  0  0  0  0
   -1.0086    1.3932   -1.6426 H   0  0  0  0  0  0  0  0  0  0  0  0
    1.3866    1.2152   -1.3706 H   0  0  0  0  0  0  0  0  0  0  0  0
    3.3060   -2.7741    0.9658 H   0  0  0  0  0  0  0  0  0  0  0  0
   -1.5907   -2.3009    0.3496 H   0  0  0  0  0  0  0  0  0  0  0  0
    3.4667    1.5703   -1.4148 H   0  0  0  0  0  0  0  0  0  0  0  0
    5.1962   -1.7645    0.5463 H   0  0  0  0  0  0  0  0  0  0  0  0
    7.8304   -0.9333   -0.8898 H   0  0  0  0  0  0  0  0  0  0  0  0
    8.0129    1.4872   -1.3438 H   0  0  0  0  0  0  0  0  0  0  0  0
    7.8304    1.8600    0.3892 H   0  0  0  0  0  0  0  0  0  0  0  0
   10.1966    1.8194   -0.1391 H   0  0  0  0  0  0  0  0  0  0  0  0
   10.0190    0.3952   -1.1914 H   0  0  0  0  0  0  0  0  0  0  0  0
   10.5635    1.8616    1.8573 H   0  0  0  0  0  0  0  0  0  0  0  0
   10.0454    0.5015    2.9902 H   0  0  0  0  0  0  0  0  0  0  0  0
   11.6253    0.4636    2.1851 H   0  0  0  0  0  0  0  0  0  0  0  0
    9.3716   -1.8494    0.3976 H   0  0  0  0  0  0  0  0  0  0  0  0
    9.5353   -1.4998    2.1751 H   0  0  0  0  0  0  0  0  0  0  0  0
    7.1822   -1.6355    1.4519 H   0  0  0  0  0  0  0  0  0  0  0  0
    7.6057    0.0860    1.9525 H   0  0  0  0  0  0  0  0  0  0  0  0
   -9.1884   -1.1586   -1.9528 H   0  0  0  0  0  0  0  0  0  0  0  0
   -9.8987    0.5225   -1.8289 H   0  0  0  0  0  0  0  0  0  0  0  0
  -10.7689   -0.8307   -0.0951 H   0  0  0  0  0  0  0  0  0  0  0  0
   -9.1673   -1.3638    0.4878 H   0  0  0  0  0  0  0  0  0  0  0  0
  1  2  1  0
  2  3  1  0
  3  4  1  0
  4  5  1  0
  5  6  1  0
  6  7  1  0
  7  8  2  0
  8  9  1  0
  9 10  2  0
 10 11  1  0
 10 12  1  0
 12 13  1  0
 13 14  2  0
 14 15  1  0
 15 16  1  0
 16 17  2  0
 17 18  1  0
 18 19  2  0
 19 20  1  0
 16 21  1  0
 21 22  1  0
 22 23  2  0
 23 24  1  0
 24 25  1  0
 24 26  1  0
 26 27  1  0
 27 28  1  0
 28 29  1  0
 29 30  1  0
 29 31  1  0
 31 32  1  0
  5 33  1  0
 33 34  1  0
 34  2  1  0
 11  7  1  0
 20 12  2  0
 25 21  2  0
 32 26  1  0
 19 15  1  0
  1 35  1  0
  1 36  1  0
  1 37  1  0
  3 38  1  0
  3 39  1  0
  4 40  1  0
  4 41  1  0
  6 42  1  0
  6 43  1  0
  8 44  1  0
  9 45  1  0
 13 46  1  0
 14 47  1  0
 17 48  1  0
 20 49  1  0
 22 50  1  0
 25 51  1  0
 26 52  1  0
 27 53  1  0
 27 54  1  0
 28 55  1  0
 28 56  1  0
 30 57  1  0
 30 58  1  0
 30 59  1  0
 31 60  1  0
 31 61  1  0
 32 62  1  0
 32 63  1  0
 33 64  1  0
 33 65  1  0
 34 66  1  0
 34 67  1  0
M  END
$$$$
[H]c1nc2c([H])c(OC([H])([H])[H])c(OC([H])([H])[H])c([H])c2c(Oc2c([H])c([H])c(N([H])C(=O)N([H])c3c([H])c(F)c([H])c(F)c3[H])c([H])c2[H])c1[H]
     RDKit          3D

 52 55  0  0  0  0  0  0  0  0999 V2000
   -6.5445    2.1351   -3.1945 C   0  0  0  0  0  0  0  0  0  0  0  0
   -5.6438    2.0488   -2.0979 O   0  0  0  0  0  0  0  0  0  0  0  0
   -5.0476    0.8550   -1.7250 C   0  0  0  0  0  0  0  0  0  0  0  0
   -5.2586   -0.3451   -2.3603 C   0  0  0  0  0  0  0  0  0  0  0  0
   -4.6083   -1.4713   -1.9000 C   0  0  0  0  0  0  0  0  0  0  0  0
   -4.8579   -2.6238   -2.5373 N   0  0  0  0  0  0  0  0  0  0  0  0
   -4.2558   -3.7465   -2.1059 C   0  0  0  0  0  0  0  0  0  0  0  0
   -3.3958   -3.7563   -1.0401 C   0  0  0  0  0  0  0  0  0  0  0  0
   -3.1012   -2.5757   -0.3409 C   0  0  0  0  0  0  0  0  0  0  0  0
   -2.2523   -2.5691    0.7144 O   0  0  0  0  0  0  0  0  0  0  0  0
   -1.0319   -2.0052    0.9030 C   0  0  0  0  0  0  0  0  0  0  0  0
   -0.5023   -2.0173    2.1775 C   0  0  0  0  0  0  0  0  0  0  0  0
    0.7226   -1.4796    2.4793 C   0  0  0  0  0  0  0  0  0  0  0  0
    1.5322   -0.8732    1.5032 C   0  0  0  0  0  0  0  0  0  0  0  0
    2.7762   -0.3260    1.8735 N   0  0  0  0  0  0  0  0  0  0  0  0
    3.8228    0.1167    1.0255 C   0  0  0  0  0  0  0  0  0  0  0  0
    3.7595    0.0653   -0.2231 O   0  0  0  0  0  0  0  0  0  0  0  0
    5.0115    0.6482    1.5948 N   0  0  0  0  0  0  0  0  0  0  0  0
    6.1277    1.1128    0.8869 C   0  0  0  0  0  0  0  0  0  0  0  0
    6.9889    2.0108    1.5535 C   0  0  0  0  0  0  0  0  0  0  0  0
    8.1160    2.5182    0.9917 C   0  0  0  0  0  0  0  0  0  0  0  0
    8.9066    3.3854    1.6954 F   0  0  0  0  0  0  0  0  0  0  0  0
    8.4231    2.1282   -0.2961 C   0  0  0  0  0  0  0  0  0  0  0  0
    7.6457    1.2635   -1.0132 C   0  0  0  0  0  0  0  0  0  0  0  0
    7.9805    0.9057   -2.2718 F   0  0  0  0  0  0  0  0  0  0  0  0
    6.4958    0.7687   -0.3896 C   0  0  0  0  0  0  0  0  0  0  0  0
    1.0035   -0.8611    0.2325 C   0  0  0  0  0  0  0  0  0  0  0  0
   -0.2511   -1.4147   -0.0633 C   0  0  0  0  0  0  0  0  0  0  0  0
   -3.7313   -1.4412   -0.7996 C   0  0  0  0  0  0  0  0  0  0  0  0
   -3.5446   -0.2308   -0.1888 C   0  0  0  0  0  0  0  0  0  0  0  0
   -4.1887    0.9047   -0.6388 C   0  0  0  0  0  0  0  0  0  0  0  0
   -3.9730    2.1018    0.0020 O   0  0  0  0  0  0  0  0  0  0  0  0
   -3.0956    2.1389    1.1073 C   0  0  0  0  0  0  0  0  0  0  0  0
   -7.4262    1.4604   -3.0283 H   0  0  0  0  0  0  0  0  0  0  0  0
   -5.9668    1.8548   -4.0989 H   0  0  0  0  0  0  0  0  0  0  0  0
   -6.8723    3.1864   -3.3084 H   0  0  0  0  0  0  0  0  0  0  0  0
   -5.9217   -0.3821   -3.1975 H   0  0  0  0  0  0  0  0  0  0  0  0
   -4.4868   -4.6669   -2.6535 H   0  0  0  0  0  0  0  0  0  0  0  0
   -2.9469   -4.6841   -0.7442 H   0  0  0  0  0  0  0  0  0  0  0  0
   -1.0942   -2.4812    2.9861 H   0  0  0  0  0  0  0  0  0  0  0  0
    1.1362   -1.4928    3.4877 H   0  0  0  0  0  0  0  0  0  0  0  0
    2.9679   -0.2228    2.9112 H   0  0  0  0  0  0  0  0  0  0  0  0
    5.0658    0.6957    2.6685 H   0  0  0  0  0  0  0  0  0  0  0  0
    6.7312    2.3029    2.5558 H   0  0  0  0  0  0  0  0  0  0  0  0
    9.3236    2.5270   -0.7601 H   0  0  0  0  0  0  0  0  0  0  0  0
    5.9059    0.0850   -0.9483 H   0  0  0  0  0  0  0  0  0  0  0  0
    1.5485   -0.4091   -0.5870 H   0  0  0  0  0  0  0  0  0  0  0  0
   -0.6417   -1.3919   -1.0683 H   0  0  0  0  0  0  0  0  0  0  0  0
   -2.8936   -0.1617    0.6840 H   0  0  0  0  0  0  0  0  0  0  0  0
   -3.3857    1.4048    1.8953 H   0  0  0  0  0  0  0  0  0  0  0  0
   -3.0173    3.1422    1.5577 H   0  0  0  0  0  0  0  0  0  0  0  0
   -2.0540    1.8625    0.7989 H   0  0  0  0  0  0  0  0  0  0  0  0
  1  2  1  0
  2  3  1  0
  3  4  2  0
  4  5  1  0
  5  6  2  0
  6  7  1  0
  7  8  2  0
  8  9  1  0
  9 10  1  0
 10 11  1  0
 11 12  2  0
 12 13  1  0
 13 14  2  0
 14 15  1  0
 15 16  1  0
 16 17  2  0
 16 18  1  0
 18 19  1  0
 19 20  2  0
 20 21  1  0
 21 22  1  0
 21 23  2  0
 23 24  1  0
 24 25  1  0
 24 26  2  0
 14 27  1  0
 27 28  2  0
  9 29  2  0
 29 30  1  0
 30 31  2  0
 31 32  1  0
 32 33  1  0
 31  3  1  0
 29  5  1  0
 28 11  1  0
 26 19  1  0
  1 34  1  0
  1 35  1  0
  1 36  1  0
  4 37  1  0
  7 38  1  0
  8 39  1  0
 12 40  1  0
 13 41  1  0
 15 42  1  0
 18 43  1  0
 20 44  1  0
 23 45  1  0
 26 46  1  0
 27 47  1  0
 28 48  1  0
 30 49  1  0
 33 50  1  0
 33 51  1  0
 33 52  1  0
M  END
$$$$
[H]c1nc([H])c2c3c([H])c(N([H])c4nc([H])c5c([H])c([H])c(C(=O)N([H])[H])c([H])c5n4)c([H])c([H])c3n([H])c2c1[H]
     RDKit          3D

 41 45  0  0  0  0  0  0  0  0999 V2000
   -7.9092    1.3838    0.0098 N   0  0  0  0  0  0  0  0  0  0  0  0
   -6.9545    0.3473   -0.0160 C   0  0  0  0  0  0  0  0  0  0  0  0
   -7.3312   -0.8367   -0.0975 O   0  0  0  0  0  0  0  0  0  0  0  0
   -5.5420    0.6496    0.0513 C   0  0  0  0  0  0  0  0  0  0  0  0
   -5.0993    1.9686    0.1428 C   0  0  0  0  0  0  0  0  0  0  0  0
   -3.7566    2.2658    0.2074 C   0  0  0  0  0  0  0  0  0  0  0  0
   -2.8577    1.2182    0.1790 C   0  0  0  0  0  0  0  0  0  0  0  0
   -1.5006    1.4689    0.2414 C   0  0  0  0  0  0  0  0  0  0  0  0
   -0.6741    0.4409    0.2116 N   0  0  0  0  0  0  0  0  0  0  0  0
   -0.9802   -0.8546    0.1263 C   0  0  0  0  0  0  0  0  0  0  0  0
   -0.0836   -1.9367    0.0957 N   0  0  0  0  0  0  0  0  0  0  0  0
    1.3099   -1.8528    0.1333 C   0  0  0  0  0  0  0  0  0  0  0  0
    2.0138   -2.9921    0.5918 C   0  0  0  0  0  0  0  0  0  0  0  0
    3.3733   -2.9447    0.6134 C   0  0  0  0  0  0  0  0  0  0  0  0
    4.0954   -1.8489    0.2135 C   0  0  0  0  0  0  0  0  0  0  0  0
    5.4114   -1.5516    0.1382 N   0  0  0  0  0  0  0  0  0  0  0  0
    5.5769   -0.3165   -0.3318 C   0  0  0  0  0  0  0  0  0  0  0  0
    6.7058    0.4420   -0.5899 C   0  0  0  0  0  0  0  0  0  0  0  0
    6.4894    1.7130   -1.0850 C   0  0  0  0  0  0  0  0  0  0  0  0
    5.2499    2.1933   -1.3064 N   0  0  0  0  0  0  0  0  0  0  0  0
    4.1551    1.4663   -1.0593 C   0  0  0  0  0  0  0  0  0  0  0  0
    4.3180    0.2003   -0.5678 C   0  0  0  0  0  0  0  0  0  0  0  0
    3.3845   -0.7568   -0.2275 C   0  0  0  0  0  0  0  0  0  0  0  0
    1.9867   -0.7335   -0.2778 C   0  0  0  0  0  0  0  0  0  0  0  0
   -2.3370   -1.0993    0.0643 N   0  0  0  0  0  0  0  0  0  0  0  0
   -3.2280   -0.1062    0.0898 C   0  0  0  0  0  0  0  0  0  0  0  0
   -4.6024   -0.3575    0.0267 C   0  0  0  0  0  0  0  0  0  0  0  0
   -8.8163    1.2368   -0.4886 H   0  0  0  0  0  0  0  0  0  0  0  0
   -7.7912    2.2989    0.4886 H   0  0  0  0  0  0  0  0  0  0  0  0
   -5.8267    2.7761    0.1634 H   0  0  0  0  0  0  0  0  0  0  0  0
   -3.3957    3.2998    0.2795 H   0  0  0  0  0  0  0  0  0  0  0  0
   -1.2029    2.5081    0.3116 H   0  0  0  0  0  0  0  0  0  0  0  0
   -0.5161   -2.9110    0.0356 H   0  0  0  0  0  0  0  0  0  0  0  0
    1.4389   -3.8732    0.9135 H   0  0  0  0  0  0  0  0  0  0  0  0
    3.9324   -3.8223    0.9671 H   0  0  0  0  0  0  0  0  0  0  0  0
    6.1877   -2.1973    0.4094 H   0  0  0  0  0  0  0  0  0  0  0  0
    7.7109    0.0816   -0.4216 H   0  0  0  0  0  0  0  0  0  0  0  0
    7.3098    2.3719   -1.3140 H   0  0  0  0  0  0  0  0  0  0  0  0
    3.1839    1.8583   -1.2388 H   0  0  0  0  0  0  0  0  0  0  0  0
    1.5305    0.1717   -0.6572 H   0  0  0  0  0  0  0  0  0  0  0  0
   -4.9592   -1.3696   -0.0441 H   0  0  0  0  0  0  0  0  0  0  0  0
  1  2  1  0
  2  3  2  0
  2  4  1  0
  4  5  2  0
  5  6  1  0
  6  7  2  0
  7  8  1  0
  8  9  2  0
  9 10  1  0
 10 11  1  0
 11 12  1  0
 12 13  2  0
 13 14  1  0
 14 15  2  0
 15 16  1  0
 16 17  1  0
 17 18  2  0
 18 19  1  0
 19 20  2  0
 20 21  1  0
 21 22  2  0
 22 23  1  0
 23 24  2  0
 10 25  2  0
 25 26  1  0
 26 27  2  0
 27  4  1  0
 26  7  1  0
 24 12  1  0
 23 15  1  0
 22 17  1  0
  1 28  1  0
  1 29  1  0
  5 30  1  0
  6 31  1  0
  8 32  1  0
 11 33  1  0
 13 34  1  0
 14 35  1  0
 16 36  1  0
 18 37  1  0
 19 38  1  0
 21 39  1  0
 24 40  1  0
 27 41  1  0
M  END
$$$$
[H]N=C(N([H])[H])C([H])(N([H])C(=O)c1c([H])c([H])c(C(C([H])([H])[H])(C([H])([H])[H])C([H])([H])[H])c([H])c1[H])C([H])([H])N([H])C([H])([H])C(=O)O[H]
     RDKit          3D

 47 47  0  0  0  0  0  0  0  0999 V2000
   -4.9765    1.8705    0.6940 C   0  0  0  0  0  0  0  0  0  0  0  0
   -4.6222    0.5515    0.0794 C   0  0  0  0  0  0  0  0  0  0  0  0
   -5.4155   -0.5337    0.8162 C   0  0  0  0  0  0  0  0  0  0  0  0
   -4.9732    0.5993   -1.3938 C   0  0  0  0  0  0  0  0  0  0  0  0
   -3.2029    0.1988    0.2599 C   0  0  0  0  0  0  0  0  0  0  0  0
   -2.3803    0.9994    1.0054 C   0  0  0  0  0  0  0  0  0  0  0  0
   -1.0485    0.6368    1.1555 C   0  0  0  0  0  0  0  0  0  0  0  0
   -0.5595   -0.5088    0.5637 C   0  0  0  0  0  0  0  0  0  0  0  0
   -1.3973   -1.3282   -0.1980 C   0  0  0  0  0  0  0  0  0  0  0  0
   -2.7128   -0.9490   -0.3306 C   0  0  0  0  0  0  0  0  0  0  0  0
    0.8330   -0.9099    0.7234 C   0  0  0  0  0  0  0  0  0  0  0  0
    1.1925   -1.3664    1.8298 O   0  0  0  0  0  0  0  0  0  0  0  0
    1.7370   -0.7790   -0.3488 N   0  0  0  0  0  0  0  0  0  0  0  0
    3.1268   -1.1749   -0.2031 C   0  0  0  0  0  0  0  0  0  0  0  0
    4.0948   -0.4347   -1.0451 C   0  0  0  0  0  0  0  0  0  0  0  0
    4.1687    0.9775   -0.8943 N   0  0  0  0  0  0  0  0  0  0  0  0
    4.7157    1.3956    0.3706 C   0  0  0  0  0  0  0  0  0  0  0  0
    4.8403    2.8942    0.3838 C   0  0  0  0  0  0  0  0  0  0  0  0
    5.3721    3.5069    1.5045 O   0  0  0  0  0  0  0  0  0  0  0  0
    4.4804    3.5896   -0.5818 O   0  0  0  0  0  0  0  0  0  0  0  0
    3.1237   -2.6212   -0.6951 C   0  0  0  0  0  0  0  0  0  0  0  0
    2.5870   -2.8881   -1.9835 N   0  0  0  0  0  0  0  0  0  0  0  0
    3.5781   -3.5556    0.0262 N   0  0  0  0  0  0  0  0  0  0  0  0
   -4.3286    2.6755    0.2772 H   0  0  0  0  0  0  0  0  0  0  0  0
   -6.0395    2.0822    0.3936 H   0  0  0  0  0  0  0  0  0  0  0  0
   -4.9569    1.8208    1.8013 H   0  0  0  0  0  0  0  0  0  0  0  0
   -6.4983   -0.3750    0.7347 H   0  0  0  0  0  0  0  0  0  0  0  0
   -5.0199   -0.5510    1.8490 H   0  0  0  0  0  0  0  0  0  0  0  0
   -5.0854   -1.4994    0.3753 H   0  0  0  0  0  0  0  0  0  0  0  0
   -6.0045    0.2647   -1.5955 H   0  0  0  0  0  0  0  0  0  0  0  0
   -4.9064    1.6649   -1.7220 H   0  0  0  0  0  0  0  0  0  0  0  0
   -4.2511    0.0537   -2.0292 H   0  0  0  0  0  0  0  0  0  0  0  0
   -2.7601    1.9114    1.4731 H   0  0  0  0  0  0  0  0  0  0  0  0
   -0.4067    1.2604    1.7340 H   0  0  0  0  0  0  0  0  0  0  0  0
   -0.9835   -2.2023   -0.6378 H   0  0  0  0  0  0  0  0  0  0  0  0
   -3.3332   -1.6182   -0.9356 H   0  0  0  0  0  0  0  0  0  0  0  0
    1.4101   -0.3960   -1.2587 H   0  0  0  0  0  0  0  0  0  0  0  0
    3.4483   -1.2380    0.8412 H   0  0  0  0  0  0  0  0  0  0  0  0
    4.0641   -0.7268   -2.1424 H   0  0  0  0  0  0  0  0  0  0  0  0
    5.1448   -0.8110   -0.7699 H   0  0  0  0  0  0  0  0  0  0  0  0
    3.2007    1.3702   -0.9871 H   0  0  0  0  0  0  0  0  0  0  0  0
    5.6543    0.8929    0.6276 H   0  0  0  0  0  0  0  0  0  0  0  0
    3.9941    1.1800    1.2115 H   0  0  0  0  0  0  0  0  0  0  0  0
    6.3786    3.4626    1.7381 H   0  0  0  0  0  0  0  0  0  0  0  0
    2.4753   -2.1497   -2.7407 H   0  0  0  0  0  0  0  0  0  0  0  0
    2.2710   -3.8420   -2.2258 H   0  0  0  0  0  0  0  0  0  0  0  0
    3.9713   -3.4005    0.9754 H   0  0  0  0  0  0  0  0  0  0  0  0
  1  2  1  0
  2  3  1  0
  2  4  1  0
  2  5  1  0
  5  6  2  0
  6  7  1  0
  7  8  2  0
  8  9  1  0
  9 10  2  0
  8 11  1  0
 11 12  2  0
 11 13  1  0
 13 14  1  0
 14 15  1  0
 15 16  1  0
 16 17  1  0
 17 18  1  0
 18 19  1  0
 18 20  2  0
 14 21  1  0
 21 22  1  0
 21 23  2  3
 10  5  1  0
  1 24  1  0
  1 25  1  0
  1 26  1  0
  3 27  1  0
  3 28  1  0
  3 29  1  0
  4 30  1  0
  4 31  1  0
  4 32  1  0
  6 33  1  0
  7 34  1  0
  9 35  1  0
 10 36  1  0
 13 37  1  0
 14 38  1  0
 15 39  1  0
 15 40  1  0
 16 41  1  0
 17 42  1  0
 17 43  1  0
 19 44  1  0
 22 45  1  0
 22 46  1  0
 23 47  1  0
M  END
$$$$
[H]c1nc(C([H])([H])[H])c(-c2c([H])c(-c3c([H])c([H])c([H])c(Cl)c3[H])nn2-c2c([H])c([H])c([H])c([H])c2[H])c([H])c1[H]
     RDKit          3D

 41 44  0  0  0  0  0  0  0  0999 V2000
   -0.3291    3.2175    1.1649 C   0  0  0  0  0  0  0  0  0  0  0  0
   -1.5296    2.6871    0.4594 C   0  0  0  0  0  0  0  0  0  0  0  0
   -2.6199    3.5223    0.4202 N   0  0  0  0  0  0  0  0  0  0  0  0
   -3.7828    3.1723   -0.1194 C   0  0  0  0  0  0  0  0  0  0  0  0
   -3.8632    1.9138   -0.6529 C   0  0  0  0  0  0  0  0  0  0  0  0
   -2.7743    1.0603   -0.6236 C   0  0  0  0  0  0  0  0  0  0  0  0
   -1.5420    1.4196   -0.0561 C   0  0  0  0  0  0  0  0  0  0  0  0
   -0.3879    0.5345   -0.1608 C   0  0  0  0  0  0  0  0  0  0  0  0
    0.9628    0.8893   -0.2343 C   0  0  0  0  0  0  0  0  0  0  0  0
    1.7647   -0.2300   -0.2208 C   0  0  0  0  0  0  0  0  0  0  0  0
    0.9275   -1.2500   -0.1414 N   0  0  0  0  0  0  0  0  0  0  0  0
   -0.3560   -0.8105   -0.1040 N   0  0  0  0  0  0  0  0  0  0  0  0
   -1.4146   -1.7343    0.0308 C   0  0  0  0  0  0  0  0  0  0  0  0
   -1.6952   -2.6576   -0.9453 C   0  0  0  0  0  0  0  0  0  0  0  0
   -2.7134   -3.5809   -0.7819 C   0  0  0  0  0  0  0  0  0  0  0  0
   -3.4750   -3.5886    0.3829 C   0  0  0  0  0  0  0  0  0  0  0  0
   -3.1897   -2.6656    1.3512 C   0  0  0  0  0  0  0  0  0  0  0  0
   -2.1639   -1.7383    1.1821 C   0  0  0  0  0  0  0  0  0  0  0  0
    3.2176   -0.2290   -0.2830 C   0  0  0  0  0  0  0  0  0  0  0  0
    3.9160    0.9608   -0.3637 C   0  0  0  0  0  0  0  0  0  0  0  0
    5.2934    0.9816   -0.4236 C   0  0  0  0  0  0  0  0  0  0  0  0
    5.9953   -0.1907   -0.4035 C   0  0  0  0  0  0  0  0  0  0  0  0
    5.3107   -1.3793   -0.3234 C   0  0  0  0  0  0  0  0  0  0  0  0
    6.2170   -2.9000   -0.2972 Cl  0  0  0  0  0  0  0  0  0  0  0  0
    3.9457   -1.4058   -0.2639 C   0  0  0  0  0  0  0  0  0  0  0  0
    0.3406    3.8105    0.5234 H   0  0  0  0  0  0  0  0  0  0  0  0
    0.1527    2.3860    1.7022 H   0  0  0  0  0  0  0  0  0  0  0  0
   -0.6937    3.9709    1.9495 H   0  0  0  0  0  0  0  0  0  0  0  0
   -4.6391    3.8635   -0.1354 H   0  0  0  0  0  0  0  0  0  0  0  0
   -4.8081    1.6134   -1.0966 H   0  0  0  0  0  0  0  0  0  0  0  0
   -2.8974    0.1017   -1.0930 H   0  0  0  0  0  0  0  0  0  0  0  0
    1.2961    1.9115   -0.3156 H   0  0  0  0  0  0  0  0  0  0  0  0
   -1.1390   -2.7015   -1.8715 H   0  0  0  0  0  0  0  0  0  0  0  0
   -2.9579   -4.3211   -1.5342 H   0  0  0  0  0  0  0  0  0  0  0  0
   -4.2798   -4.2935    0.5500 H   0  0  0  0  0  0  0  0  0  0  0  0
   -3.7557   -2.6464    2.2548 H   0  0  0  0  0  0  0  0  0  0  0  0
   -1.9948   -1.0362    1.9928 H   0  0  0  0  0  0  0  0  0  0  0  0
    3.3591    1.8949   -0.3798 H   0  0  0  0  0  0  0  0  0  0  0  0
    5.8078    1.9529   -0.4871 H   0  0  0  0  0  0  0  0  0  0  0  0
    7.0724   -0.1601   -0.4509 H   0  0  0  0  0  0  0  0  0  0  0  0
    3.4224   -2.3453   -0.2013 H   0  0  0  0  0  0  0  0  0  0  0  0
  1  2  1  0
  2  3  2  0
  3  4  1  0
  4  5  2  0
  5  6  1  0
  6  7  2  0
  7  8  1  0
  8  9  2  0
  9 10  1  0
 10 11  2  0
 11 12  1  0
 12 13  1  0
 13 14  2  0
 14 15  1  0
 15 16  2  0
 16 17  1  0
 17 18  2  0
 10 19  1  0
 19 20  2  0
 20 21  1  0
 21 22  2  0
 22 23  1  0
 23 24  1  0
 23 25  2  0
  7  2  1  0
 12  8  1  0
 18 13  1  0
 25 19  1  0
  1 26  1  0
  1 27  1  0
  1 28  1  0
  4 29  1  0
  5 30  1  0
  6 31  1  0
  9 32  1  0
 14 33  1  0
 15 34  1  0
 16 35  1  0
 17 36  1  0
 18 37  1  0
 20 38  1  0
 21 39  1  0
 22 40  1  0
 25 41  1  0
M  END
$$$$
[H]c1nc([H])c(N([H])[C@@]([H])(c2c([H])c([H])c(F)c([H])c2[H])C([H])([H])[H])nc1-c1c([H])c([H])c([H])c2c1c(C([H])([H])[H])nn2[H]
     RDKit          3D

 44 47  0  0  0  0  0  0  0  0999 V2000
    3.2913    2.5171   -0.9133 C   0  0  0  0  0  0  0  0  0  0  0  0
    4.0980    1.2768   -1.0513 C   0  0  0  0  0  0  0  0  0  0  0  0
    5.2219    1.1509   -1.8089 N   0  0  0  0  0  0  0  0  0  0  0  0
    5.6812   -0.0651   -1.7801 N   0  0  0  0  0  0  0  0  0  0  0  0
    4.8540   -0.7692   -0.9904 C   0  0  0  0  0  0  0  0  0  0  0  0
    4.8889   -2.1143   -0.6645 C   0  0  0  0  0  0  0  0  0  0  0  0
    3.8993   -2.6250    0.1468 C   0  0  0  0  0  0  0  0  0  0  0  0
    2.8991   -1.8266    0.6276 C   0  0  0  0  0  0  0  0  0  0  0  0
    2.8513   -0.4577    0.3071 C   0  0  0  0  0  0  0  0  0  0  0  0
    1.7679    0.3446    0.8323 C   0  0  0  0  0  0  0  0  0  0  0  0
    2.0683    1.3080    1.7811 C   0  0  0  0  0  0  0  0  0  0  0  0
    1.1028    2.0018    2.3902 N   0  0  0  0  0  0  0  0  0  0  0  0
   -0.1840    1.7946    2.1096 C   0  0  0  0  0  0  0  0  0  0  0  0
   -0.4805    0.8199    1.1504 C   0  0  0  0  0  0  0  0  0  0  0  0
   -1.8618    0.6154    0.8839 N   0  0  0  0  0  0  0  0  0  0  0  0
   -2.3385   -0.3383   -0.0971 C   0  0  2  0  0  0  0  0  0  0  0  0
   -1.9217    0.1275   -1.4680 C   0  0  0  0  0  0  0  0  0  0  0  0
   -3.8118   -0.5187    0.0106 C   0  0  0  0  0  0  0  0  0  0  0  0
   -4.3625   -0.6123    1.2830 C   0  0  0  0  0  0  0  0  0  0  0  0
   -5.7086   -0.7840    1.4503 C   0  0  0  0  0  0  0  0  0  0  0  0
   -6.5422   -0.8669    0.3534 C   0  0  0  0  0  0  0  0  0  0  0  0
   -7.8638   -1.0356    0.5257 F   0  0  0  0  0  0  0  0  0  0  0  0
   -6.0325   -0.7783   -0.9250 C   0  0  0  0  0  0  0  0  0  0  0  0
   -4.6644   -0.6046   -1.0615 C   0  0  0  0  0  0  0  0  0  0  0  0
    0.4839    0.1250    0.5401 N   0  0  0  0  0  0  0  0  0  0  0  0
    3.8298    0.0574   -0.5034 C   0  0  0  0  0  0  0  0  0  0  0  0
    3.5147    3.0860   -1.8922 H   0  0  0  0  0  0  0  0  0  0  0  0
    2.1952    2.3498   -1.0204 H   0  0  0  0  0  0  0  0  0  0  0  0
    3.5731    3.1601   -0.0782 H   0  0  0  0  0  0  0  0  0  0  0  0
    6.5349   -0.4278   -2.2782 H   0  0  0  0  0  0  0  0  0  0  0  0
    5.6672   -2.7795   -1.0252 H   0  0  0  0  0  0  0  0  0  0  0  0
    3.9298   -3.6900    0.4007 H   0  0  0  0  0  0  0  0  0  0  0  0
    2.1087   -2.2014    1.2672 H   0  0  0  0  0  0  0  0  0  0  0  0
    3.1256    1.5028    2.0413 H   0  0  0  0  0  0  0  0  0  0  0  0
   -0.9752    2.3642    2.6097 H   0  0  0  0  0  0  0  0  0  0  0  0
   -2.5771    1.1599    1.4008 H   0  0  0  0  0  0  0  0  0  0  0  0
   -1.8642   -1.3417    0.1182 H   0  0  0  0  0  0  0  0  0  0  0  0
   -1.7767   -0.6940   -2.1844 H   0  0  0  0  0  0  0  0  0  0  0  0
   -1.0447    0.7961   -1.3663 H   0  0  0  0  0  0  0  0  0  0  0  0
   -2.7799    0.7596   -1.8480 H   0  0  0  0  0  0  0  0  0  0  0  0
   -3.7165   -0.5484    2.1492 H   0  0  0  0  0  0  0  0  0  0  0  0
   -6.1317   -0.8564    2.4474 H   0  0  0  0  0  0  0  0  0  0  0  0
   -6.6562   -0.8392   -1.8050 H   0  0  0  0  0  0  0  0  0  0  0  0
   -4.2923   -0.5424   -2.0653 H   0  0  0  0  0  0  0  0  0  0  0  0
  1  2  1  0
  2  3  2  0
  3  4  1  0
  4  5  1  0
  5  6  2  0
  6  7  1  0
  7  8  2  0
  8  9  1  0
  9 10  1  0
 10 11  2  0
 11 12  1  0
 12 13  2  0
 13 14  1  0
 14 15  1  0
 15 16  1  0
 16 17  1  0
 16 18  1  0
 18 19  2  0
 19 20  1  0
 20 21  2  0
 21 22  1  0
 21 23  1  0
 23 24  2  0
 14 25  2  0
  9 26  2  0
 26  2  1  0
 26  5  1  0
 25 10  1  0
 24 18  1  0
  1 27  1  0
  1 28  1  0
  1 29  1  0
  4 30  1  0
  6 31  1  0
  7 32  1  0
  8 33  1  0
 11 34  1  0
 13 35  1  0
 15 36  1  0
 16 37  1  1
 17 38  1  0
 17 39  1  0
 17 40  1  0
 19 41  1  0
 20 42  1  0
 23 43  1  0
 24 44  1  0
M  END
$$$$
[H]Oc1c([H])c([H])c(C([H])([H])[C@]([H])(C(=O)N2C([H])([H])C([H])([H])[C@@]2([H])C(=O)N([H])[C@]([H])(C([H])=O)C([H])([H])C([H])([H])C([H])([H])N=C(N([H])[H])N([H])[H])N([H])C(=O)C([H])([H])OC([H])(c2c([H])c([H])c([H])c([H])c2[H])c2nnnn2[H])c([H])c1[H]
     RDKit          3D

 81 84  0  0  0  0  0  0  0  0999 V2000
   10.3791   -2.0438   -0.6812 N   0  0  0  0  0  0  0  0  0  0  0  0
    9.4220   -2.3380    0.3604 C   0  0  0  0  0  0  0  0  0  0  0  0
    9.6149   -3.4337    1.2212 N   0  0  0  0  0  0  0  0  0  0  0  0
    8.4186   -1.5850    0.4429 N   0  0  0  0  0  0  0  0  0  0  0  0
    7.3808   -1.6943    1.3955 C   0  0  0  0  0  0  0  0  0  0  0  0
    6.1128   -1.2729    0.7107 C   0  0  0  0  0  0  0  0  0  0  0  0
    6.1358    0.1307    0.2272 C   0  0  0  0  0  0  0  0  0  0  0  0
    4.8358    0.5393   -0.4927 C   0  0  2  0  0  0  0  0  0  0  0  0
    3.7270    0.3499    0.4224 N   0  0  0  0  0  0  0  0  0  0  0  0
    2.8966    1.4591    0.8530 C   0  0  0  0  0  0  0  0  0  0  0  0
    3.1531    2.5862    0.4133 O   0  0  0  0  0  0  0  0  0  0  0  0
    1.8026    1.2060    1.7699 C   0  0  2  0  0  0  0  0  0  0  0  0
    1.2667   -0.2730    1.7355 C   0  0  0  0  0  0  0  0  0  0  0  0
    0.0335    0.4942    2.2976 C   0  0  0  0  0  0  0  0  0  0  0  0
    0.4806    1.5134    1.2485 N   0  0  0  0  0  0  0  0  0  0  0  0
   -0.3285    2.0518    0.2422 C   0  0  0  0  0  0  0  0  0  0  0  0
    0.0789    2.4567   -0.8356 O   0  0  0  0  0  0  0  0  0  0  0  0
   -1.7891    2.0968    0.4933 C   0  0  1  0  0  0  0  0  0  0  0  0
   -2.3468    3.5174    0.5348 C   0  0  0  0  0  0  0  0  0  0  0  0
   -2.1021    4.3308   -0.6598 C   0  0  0  0  0  0  0  0  0  0  0  0
   -1.2126    5.3844   -0.5429 C   0  0  0  0  0  0  0  0  0  0  0  0
   -0.9238    6.1550   -1.6900 C   0  0  0  0  0  0  0  0  0  0  0  0
   -1.5197    5.8613   -2.8837 C   0  0  0  0  0  0  0  0  0  0  0  0
   -1.1639    6.6749   -3.9915 O   0  0  0  0  0  0  0  0  0  0  0  0
   -2.4006    4.8177   -2.9898 C   0  0  0  0  0  0  0  0  0  0  0  0
   -2.6655    4.0878   -1.8671 C   0  0  0  0  0  0  0  0  0  0  0  0
   -2.5342    1.2232   -0.2996 N   0  0  0  0  0  0  0  0  0  0  0  0
   -3.2427    0.3781   -1.0807 C   0  0  0  0  0  0  0  0  0  0  0  0
   -2.9897   -0.0082   -2.2375 O   0  0  0  0  0  0  0  0  0  0  0  0
   -4.4910   -0.2644   -0.4969 C   0  0  0  0  0  0  0  0  0  0  0  0
   -4.3629   -1.6729   -0.4565 O   0  0  0  0  0  0  0  0  0  0  0  0
   -5.4802   -2.1013    0.2675 C   0  0  0  0  0  0  0  0  0  0  0  0
   -6.3556   -3.0374   -0.3744 C   0  0  0  0  0  0  0  0  0  0  0  0
   -6.5976   -2.9611   -1.7255 C   0  0  0  0  0  0  0  0  0  0  0  0
   -7.5385   -3.7966   -2.2867 C   0  0  0  0  0  0  0  0  0  0  0  0
   -8.2932   -4.7421   -1.5328 C   0  0  0  0  0  0  0  0  0  0  0  0
   -8.0298   -4.8013   -0.1566 C   0  0  0  0  0  0  0  0  0  0  0  0
   -7.0915   -3.9703    0.3755 C   0  0  0  0  0  0  0  0  0  0  0  0
   -5.1190   -2.3748    1.6984 C   0  0  0  0  0  0  0  0  0  0  0  0
   -5.8921   -2.0386    2.7852 N   0  0  0  0  0  0  0  0  0  0  0  0
   -5.2609   -2.3984    3.8684 N   0  0  0  0  0  0  0  0  0  0  0  0
   -4.1188   -2.9574    3.5329 N   0  0  0  0  0  0  0  0  0  0  0  0
   -4.0297   -2.9412    2.2156 N   0  0  0  0  0  0  0  0  0  0  0  0
    4.6310   -0.1697   -1.6924 C   0  0  0  0  0  0  0  0  0  0  0  0
    4.2644   -1.1713   -2.1941 O   0  0  0  0  0  0  0  0  0  0  0  0
   11.1131   -1.3409   -0.4478 H   0  0  0  0  0  0  0  0  0  0  0  0
   10.3164   -2.5139   -1.5756 H   0  0  0  0  0  0  0  0  0  0  0  0
    9.5305   -4.3691    0.8017 H   0  0  0  0  0  0  0  0  0  0  0  0
    9.8296   -3.3312    2.2195 H   0  0  0  0  0  0  0  0  0  0  0  0
    7.2502   -2.7481    1.6815 H   0  0  0  0  0  0  0  0  0  0  0  0
    7.5373   -1.0450    2.2890 H   0  0  0  0  0  0  0  0  0  0  0  0
    5.9812   -1.9365   -0.2119 H   0  0  0  0  0  0  0  0  0  0  0  0
    5.2304   -1.4953    1.3343 H   0  0  0  0  0  0  0  0  0  0  0  0
    6.2477    0.7932    1.1601 H   0  0  0  0  0  0  0  0  0  0  0  0
    6.9515    0.3067   -0.4587 H   0  0  0  0  0  0  0  0  0  0  0  0
    4.8937    1.6628   -0.6086 H   0  0  0  0  0  0  0  0  0  0  0  0
    3.4650   -0.5787    0.7875 H   0  0  0  0  0  0  0  0  0  0  0  0
    1.8752    1.4942    2.8247 H   0  0  0  0  0  0  0  0  0  0  0  0
    1.0581   -0.5999    0.7073 H   0  0  0  0  0  0  0  0  0  0  0  0
    1.7369   -0.9382    2.4346 H   0  0  0  0  0  0  0  0  0  0  0  0
    0.2267    0.9042    3.2613 H   0  0  0  0  0  0  0  0  0  0  0  0
   -0.9071    0.0025    2.0634 H   0  0  0  0  0  0  0  0  0  0  0  0
   -1.8616    1.7441    1.5802 H   0  0  0  0  0  0  0  0  0  0  0  0
   -3.4653    3.3337    0.7275 H   0  0  0  0  0  0  0  0  0  0  0  0
   -2.0115    3.9625    1.4764 H   0  0  0  0  0  0  0  0  0  0  0  0
   -0.7188    5.7007    0.3794 H   0  0  0  0  0  0  0  0  0  0  0  0
   -0.2243    6.9876   -1.6057 H   0  0  0  0  0  0  0  0  0  0  0  0
   -0.4030    6.4227   -4.5767 H   0  0  0  0  0  0  0  0  0  0  0  0
   -2.8633    4.6566   -3.9967 H   0  0  0  0  0  0  0  0  0  0  0  0
   -3.3987    3.2745   -2.0304 H   0  0  0  0  0  0  0  0  0  0  0  0
   -1.4887    1.1442   -1.1559 H   0  0  0  0  0  0  0  0  0  0  0  0
   -5.3384    0.0352   -1.1321 H   0  0  0  0  0  0  0  0  0  0  0  0
   -4.6365    0.0246    0.5319 H   0  0  0  0  0  0  0  0  0  0  0  0
   -6.1228   -1.1286    0.4179 H   0  0  0  0  0  0  0  0  0  0  0  0
   -6.0474   -2.2661   -2.3805 H   0  0  0  0  0  0  0  0  0  0  0  0
   -7.7448   -3.7539   -3.3288 H   0  0  0  0  0  0  0  0  0  0  0  0
   -9.0120   -5.3542   -2.0111 H   0  0  0  0  0  0  0  0  0  0  0  0
   -8.5903   -5.4967    0.4363 H   0  0  0  0  0  0  0  0  0  0  0  0
   -6.8849   -4.0512    1.4442 H   0  0  0  0  0  0  0  0  0  0  0  0
   -3.2103   -3.3140    1.6872 H   0  0  0  0  0  0  0  0  0  0  0  0
    4.9317    0.5446   -2.6693 H   0  0  0  0  0  0  0  0  0  0  0  0
  1  2  1  0
  2  3  1  0
  2  4  2  3
  4  5  1  0
  5  6  1  0
  6  7  1  0
  7  8  1  0
  8  9  1  0
  9 10  1  0
 10 11  2  0
 10 12  1  0
 12 13  1  0
 13 14  1  0
 14 15  1  0
 15 16  1  0
 16 17  2  0
 16 18  1  0
 18 19  1  0
 19 20  1  0
 20 21  2  0
 21 22  1  0
 22 23  2  0
 23 24  1  0
 23 25  1  0
 25 26  2  0
 18 27  1  0
 27 28  1  0
 28 29  2  0
 28 30  1  0
 30 31  1  0
 31 32  1  0
 32 33  1  0
 33 34  2  0
 34 35  1  0
 35 36  2  0
 36 37  1  0
 37 38  2  0
 32 39  1  0
 39 40  2  0
 40 41  1  0
 41 42  2  0
 42 43  1  0
  8 44  1  0
 44 45  2  0
 15 12  1  0
 26 20  1  0
 38 33  1  0
 43 39  1  0
  1 46  1  0
  1 47  1  0
  3 48  1  0
  3 49  1  0
  5 50  1  0
  5 51  1  0
  6 52  1  0
  6 53  1  0
  7 54  1  0
  7 55  1  0
  8 56  1  6
  9 57  1  0
 12 58  1  1
 13 59  1  0
 13 60  1  0
 14 61  1  0
 14 62  1  0
 18 63  1  1
 19 64  1  0
 19 65  1  0
 21 66  1  0
 22 67  1  0
 24 68  1  0
 25 69  1  0
 26 70  1  0
 27 71  1  0
 30 72  1  0
 30 73  1  0
 32 74  1  0
 34 75  1  0
 35 76  1  0
 36 77  1  0
 37 78  1  0
 38 79  1  0
 43 80  1  0
 44 81  1  0
M  END
$$$$
[H]c1c([H])c(-c2o[n+]([H])c(C(F)(F)F)c2[H])c([H])c(Cl)c1F
     RDKit          3D

 22 23  0  0  0  0  0  0  0  0999 V2000
   -5.0379   -0.0095    0.8541 F   0  0  0  0  0  0  0  0  0  0  0  0
   -3.6907   -0.0021    0.4942 C   0  0  0  0  0  0  0  0  0  0  0  0
   -3.2901    0.8392   -0.5063 C   0  0  0  0  0  0  0  0  0  0  0  0
   -1.9439    0.8963   -0.8865 C   0  0  0  0  0  0  0  0  0  0  0  0
   -1.0114    0.1073   -0.2686 C   0  0  0  0  0  0  0  0  0  0  0  0
   -1.4635   -0.7453    0.7552 C   0  0  0  0  0  0  0  0  0  0  0  0
   -2.8003   -0.8185    1.1449 C   0  0  0  0  0  0  0  0  0  0  0  0
   -3.3152   -1.9031    2.3917 Cl  0  0  0  0  0  0  0  0  0  0  0  0
    0.4011    0.0635   -0.6148 C   0  0  0  0  0  0  0  0  0  0  0  0
    1.0424    0.1152   -1.7436 O   0  0  0  0  0  0  0  0  0  0  0  0
    2.3163    0.0681   -1.6097 N   0  0  0  0  0  0  0  0  0  0  0  0
    2.5847   -0.0217   -0.2911 C   0  0  0  0  0  0  0  0  0  0  0  0
    1.3853   -0.0319    0.3466 C   0  0  0  0  0  0  0  0  0  0  0  0
    3.9134   -0.0463    0.4173 C   0  0  0  0  0  0  0  0  0  0  0  0
    4.5389   -1.2769    0.2684 F   0  0  0  0  0  0  0  0  0  0  0  0
    4.7886    0.8539   -0.2088 F   0  0  0  0  0  0  0  0  0  0  0  0
    3.7325    0.2063    1.7585 F   0  0  0  0  0  0  0  0  0  0  0  0
   -4.0640    1.4484   -0.9979 H   0  0  0  0  0  0  0  0  0  0  0  0
   -1.6630    1.5825   -1.6639 H   0  0  0  0  0  0  0  0  0  0  0  0
   -0.7553   -1.3398    1.2466 H   0  0  0  0  0  0  0  0  0  0  0  0
    3.1139    0.0477   -2.2735 H   0  0  0  0  0  0  0  0  0  0  0  0
    1.2180   -0.0334    1.3873 H   0  0  0  0  0  0  0  0  0  0  0  0
  1  2  1  0
  2  3  2  0
  3  4  1  0
  4  5  2  0
  5  6  1  0
  6  7  2  0
  7  8  1  0
  5  9  1  0
  9 10  1  0
 10 11  1  0
 11 12  2  0
 12 13  1  0
 12 14  1  0
 14 15  1  0
 14 16  1  0
 14 17  1  0
  7  2  1  0
 13  9  2  0
  3 18  1  0
  4 19  1  0
  6 20  1  0
 11 21  1  0
 13 22  1  0
M  CHG  1  11   1
M  END
$$$$
[H]c1c([H])c(-c2c([H])c([H])c(-c3nc(=O)n([H])o3)c([H])c2C#N)c([H])c([H])c1C(=O)N(C([H])([H])[H])C([H])([H])[H]
     RDKit          3D

 39 41  0  0  0  0  0  0  0  0999 V2000
    5.3882   -0.9532   -1.0898 C   0  0  0  0  0  0  0  0  0  0  0  0
    5.3693    0.0641   -0.0801 N   0  0  0  0  0  0  0  0  0  0  0  0
    6.7640    0.4861    0.3199 C   0  0  0  0  0  0  0  0  0  0  0  0
    4.2948    0.6734    0.5345 C   0  0  0  0  0  0  0  0  0  0  0  0
    4.6602    1.5740    1.4299 O   0  0  0  0  0  0  0  0  0  0  0  0
    2.8950    0.5080    0.3793 C   0  0  0  0  0  0  0  0  0  0  0  0
    2.2986   -0.3623   -0.5048 C   0  0  0  0  0  0  0  0  0  0  0  0
    0.9169   -0.4870   -0.6133 C   0  0  0  0  0  0  0  0  0  0  0  0
    0.1006    0.2674    0.1721 C   0  0  0  0  0  0  0  0  0  0  0  0
    0.6815    1.1399    1.0581 C   0  0  0  0  0  0  0  0  0  0  0  0
    2.0403    1.2813    1.1839 C   0  0  0  0  0  0  0  0  0  0  0  0
   -1.3483    0.1614    0.1010 C   0  0  0  0  0  0  0  0  0  0  0  0
   -2.1340    1.3006   -0.0638 C   0  0  0  0  0  0  0  0  0  0  0  0
   -3.4911    1.1740   -0.1434 C   0  0  0  0  0  0  0  0  0  0  0  0
   -4.1553   -0.0301   -0.0706 C   0  0  0  0  0  0  0  0  0  0  0  0
   -3.3636   -1.1418    0.0922 C   0  0  0  0  0  0  0  0  0  0  0  0
   -1.9689   -1.0566    0.1787 C   0  0  0  0  0  0  0  0  0  0  0  0
   -1.2008   -2.2789    0.3681 C   0  0  0  0  0  0  0  0  0  0  0  0
   -0.6020   -3.2671    0.5356 N   0  0  0  0  0  0  0  0  0  0  0  0
   -5.6097   -0.0974   -0.1630 C   0  0  0  0  0  0  0  0  0  0  0  0
   -6.4391    0.9525   -0.3223 N   0  0  0  0  0  0  0  0  0  0  0  0
   -7.6904    0.5182   -0.3649 C   0  0  0  0  0  0  0  0  0  0  0  0
   -8.7311    1.2443   -0.5069 O   0  0  0  0  0  0  0  0  0  0  0  0
   -7.6380   -0.8164   -0.2306 N   0  0  0  0  0  0  0  0  0  0  0  0
   -6.3891   -1.1415   -0.1137 O   0  0  0  0  0  0  0  0  0  0  0  0
    6.4469   -1.2798   -1.3188 H   0  0  0  0  0  0  0  0  0  0  0  0
    4.8919   -1.8766   -0.7522 H   0  0  0  0  0  0  0  0  0  0  0  0
    4.9106   -0.5993   -2.0332 H   0  0  0  0  0  0  0  0  0  0  0  0
    7.0913    1.3259   -0.3014 H   0  0  0  0  0  0  0  0  0  0  0  0
    7.4209   -0.3961    0.3082 H   0  0  0  0  0  0  0  0  0  0  0  0
    6.6526    0.7864    1.3798 H   0  0  0  0  0  0  0  0  0  0  0  0
    2.8549   -1.0004   -1.1700 H   0  0  0  0  0  0  0  0  0  0  0  0
    0.5177   -1.2050   -1.3573 H   0  0  0  0  0  0  0  0  0  0  0  0
    0.0821    1.7815    1.7242 H   0  0  0  0  0  0  0  0  0  0  0  0
    2.4985    1.9620    1.8753 H   0  0  0  0  0  0  0  0  0  0  0  0
   -1.6028    2.2406   -0.1198 H   0  0  0  0  0  0  0  0  0  0  0  0
   -4.0952    2.0650   -0.2716 H   0  0  0  0  0  0  0  0  0  0  0  0
   -3.8239   -2.1057    0.1554 H   0  0  0  0  0  0  0  0  0  0  0  0
   -8.4933   -1.4118   -0.2304 H   0  0  0  0  0  0  0  0  0  0  0  0
  1  2  1  0
  2  3  1  0
  2  4  1  0
  4  5  2  0
  4  6  1  0
  6  7  2  0
  7  8  1  0
  8  9  2  0
  9 10  1  0
 10 11  2  0
  9 12  1  0
 12 13  2  0
 13 14  1  0
 14 15  2  0
 15 16  1  0
 16 17  2  0
 17 18  1  0
 18 19  3  0
 15 20  1  0
 20 21  2  0
 21 22  1  0
 22 23  2  0
 22 24  1  0
 24 25  1  0
 11  6  1  0
 17 12  1  0
 25 20  1  0
  1 26  1  0
  1 27  1  0
  1 28  1  0
  3 29  1  0
  3 30  1  0
  3 31  1  0
  7 32  1  0
  8 33  1  0
 10 34  1  0
 11 35  1  0
 13 36  1  0
 14 37  1  0
 16 38  1  0
 24 39  1  0
M  END
$$$$
[H]Oc1c([H])c(N2C([H])([H])C([H])([H])OC([H])([H])C2([H])[H])c([H])c(C(F)(F)P(=O)(O[H])O[H])c1C([H])([H])N([H])C(=O)c1c([H])c([H])c(-c2c([H])c([H])c([H])c([H])c2[H])c([H])c1[H]
     RDKit          3D

 61 64  0  0  0  0  0  0  0  0999 V2000
   -4.2400   -3.1403   -3.2764 O   0  0  0  0  0  0  0  0  0  0  0  0
   -2.7711   -2.3538   -2.8882 P   0  0  0  0  0  0  0  0  0  0  0  0
   -2.1801   -3.0586   -1.4913 O   0  0  0  0  0  0  0  0  0  0  0  0
   -1.8210   -2.6303   -4.0235 O   0  0  0  0  0  0  0  0  0  0  0  0
   -3.0333   -0.5639   -2.7627 C   0  0  0  0  0  0  0  0  0  0  0  0
   -4.3288   -0.3360   -3.1988 F   0  0  0  0  0  0  0  0  0  0  0  0
   -2.2564    0.0263   -3.7177 F   0  0  0  0  0  0  0  0  0  0  0  0
   -2.8919   -0.0895   -1.4130 C   0  0  0  0  0  0  0  0  0  0  0  0
   -4.0696    0.2003   -0.7364 C   0  0  0  0  0  0  0  0  0  0  0  0
   -4.1501    0.5711    0.5769 C   0  0  0  0  0  0  0  0  0  0  0  0
   -3.0034    0.6701    1.2932 C   0  0  0  0  0  0  0  0  0  0  0  0
   -1.7921    0.3936    0.6674 C   0  0  0  0  0  0  0  0  0  0  0  0
   -0.6642    0.5165    1.4637 O   0  0  0  0  0  0  0  0  0  0  0  0
   -1.7013    0.0193   -0.6616 C   0  0  0  0  0  0  0  0  0  0  0  0
   -0.4894   -0.1834   -1.3951 C   0  0  0  0  0  0  0  0  0  0  0  0
    0.7900   -0.1344   -0.7876 N   0  0  0  0  0  0  0  0  0  0  0  0
    1.9606   -0.3245   -1.5838 C   0  0  0  0  0  0  0  0  0  0  0  0
    1.8049   -0.5302   -2.8070 O   0  0  0  0  0  0  0  0  0  0  0  0
    3.3102   -0.2907   -1.0458 C   0  0  0  0  0  0  0  0  0  0  0  0
    4.3868   -0.4657   -1.9039 C   0  0  0  0  0  0  0  0  0  0  0  0
    5.6858   -0.4453   -1.4616 C   0  0  0  0  0  0  0  0  0  0  0  0
    5.9516   -0.2466   -0.1307 C   0  0  0  0  0  0  0  0  0  0  0  0
    4.8918   -0.0718    0.7303 C   0  0  0  0  0  0  0  0  0  0  0  0
    3.5797   -0.0920    0.2865 C   0  0  0  0  0  0  0  0  0  0  0  0
    7.3029   -0.2180    0.3793 C   0  0  0  0  0  0  0  0  0  0  0  0
    7.6143    0.5523    1.4535 C   0  0  0  0  0  0  0  0  0  0  0  0
    8.9005    0.5777    1.9366 C   0  0  0  0  0  0  0  0  0  0  0  0
    9.8944   -0.1787    1.3377 C   0  0  0  0  0  0  0  0  0  0  0  0
    9.5825   -0.9706    0.2361 C   0  0  0  0  0  0  0  0  0  0  0  0
    8.2744   -0.9733   -0.2262 C   0  0  0  0  0  0  0  0  0  0  0  0
   -5.3867    0.8479    1.2184 N   0  0  0  0  0  0  0  0  0  0  0  0
   -6.6662    0.5617    0.6300 C   0  0  0  0  0  0  0  0  0  0  0  0
   -7.3108    1.9038    0.3324 C   0  0  0  0  0  0  0  0  0  0  0  0
   -7.0579    2.8106    1.3620 O   0  0  0  0  0  0  0  0  0  0  0  0
   -6.7912    2.1780    2.5803 C   0  0  0  0  0  0  0  0  0  0  0  0
   -5.4477    1.4695    2.5500 C   0  0  0  0  0  0  0  0  0  0  0  0
   -4.8635   -3.0232   -2.4941 H   0  0  0  0  0  0  0  0  0  0  0  0
   -2.4918   -3.9942   -1.4496 H   0  0  0  0  0  0  0  0  0  0  0  0
   -5.0379    0.1467   -1.2522 H   0  0  0  0  0  0  0  0  0  0  0  0
   -3.0290    0.9561    2.3270 H   0  0  0  0  0  0  0  0  0  0  0  0
   -0.7431    0.7870    2.4185 H   0  0  0  0  0  0  0  0  0  0  0  0
   -0.5359   -0.9366   -2.2218 H   0  0  0  0  0  0  0  0  0  0  0  0
   -0.4306    0.7626   -2.0952 H   0  0  0  0  0  0  0  0  0  0  0  0
    0.9573    0.0238    0.1987 H   0  0  0  0  0  0  0  0  0  0  0  0
    4.1819   -0.6222   -2.9516 H   0  0  0  0  0  0  0  0  0  0  0  0
    6.5163   -0.5822   -2.1357 H   0  0  0  0  0  0  0  0  0  0  0  0
    5.0873    0.0853    1.7791 H   0  0  0  0  0  0  0  0  0  0  0  0
    2.7922    0.0486    0.9945 H   0  0  0  0  0  0  0  0  0  0  0  0
    6.8659    1.1519    1.9422 H   0  0  0  0  0  0  0  0  0  0  0  0
    9.1301    1.1941    2.7895 H   0  0  0  0  0  0  0  0  0  0  0  0
   10.9126   -0.1536    1.7264 H   0  0  0  0  0  0  0  0  0  0  0  0
   10.3247   -1.5714   -0.2561 H   0  0  0  0  0  0  0  0  0  0  0  0
    8.0533   -1.6027   -1.0922 H   0  0  0  0  0  0  0  0  0  0  0  0
   -7.2761    0.0910    1.4400 H   0  0  0  0  0  0  0  0  0  0  0  0
   -6.6809   -0.1345   -0.1980 H   0  0  0  0  0  0  0  0  0  0  0  0
   -8.3930    1.8052    0.1085 H   0  0  0  0  0  0  0  0  0  0  0  0
   -6.8278    2.3011   -0.5834 H   0  0  0  0  0  0  0  0  0  0  0  0
   -6.7153    2.9839    3.3355 H   0  0  0  0  0  0  0  0  0  0  0  0
   -7.5949    1.4872    2.8899 H   0  0  0  0  0  0  0  0  0  0  0  0
   -5.4659    0.6429    3.2858 H   0  0  0  0  0  0  0  0  0  0  0  0
   -4.6133    2.1518    2.7381 H   0  0  0  0  0  0  0  0  0  0  0  0
  1  2  1  0
  2  3  1  0
  2  4  2  0
  2  5  1  0
  5  6  1  0
  5  7  1  0
  5  8  1  0
  8  9  2  0
  9 10  1  0
 10 11  2  0
 11 12  1  0
 12 13  1  0
 12 14  2  0
 14 15  1  0
 15 16  1  0
 16 17  1  0
 17 18  2  0
 17 19  1  0
 19 20  2  0
 20 21  1  0
 21 22  2  0
 22 23  1  0
 23 24  2  0
 22 25  1  0
 25 26  2  0
 26 27  1  0
 27 28  2  0
 28 29  1  0
 29 30  2  0
 10 31  1  0
 31 32  1  0
 32 33  1  0
 33 34  1  0
 34 35  1  0
 35 36  1  0
 14  8  1  0
 24 19  1  0
 30 25  1  0
 36 31  1  0
  1 37  1  0
  3 38  1  0
  9 39  1  0
 11 40  1  0
 13 41  1  0
 15 42  1  0
 15 43  1  0
 16 44  1  0
 20 45  1  0
 21 46  1  0
 23 47  1  0
 24 48  1  0
 26 49  1  0
 27 50  1  0
 28 51  1  0
 29 52  1  0
 30 53  1  0
 32 54  1  0
 32 55  1  0
 33 56  1  0
 33 57  1  0
 35 58  1  0
 35 59  1  0
 36 60  1  0
 36 61  1  0
M  END
$$$$
[H]O[C@@]1([H])C([H])([H])N([H])[C@@]([H])(C([H])(C([H])([H])[H])C([H])([H])[H])N([H])C([H])([H])[C@@]([H])(O[H])[C@]1([H])O[H]
     RDKit          3D

 34 34  0  0  0  0  0  0  0  0999 V2000
    2.9276    0.1460   -1.4656 C   0  0  0  0  0  0  0  0  0  0  0  0
    2.1236   -0.4114   -0.3225 C   0  0  0  0  0  0  0  0  0  0  0  0
    3.0750   -0.5159    0.8713 C   0  0  0  0  0  0  0  0  0  0  0  0
    0.9821    0.4998    0.0688 C   0  0  1  0  0  0  0  0  0  0  0  0
    0.0843    0.6872   -1.0501 N   0  0  0  0  0  0  0  0  0  0  0  0
   -0.9852    1.5779   -0.6532 C   0  0  0  0  0  0  0  0  0  0  0  0
   -2.3102    0.8473   -0.5452 C   0  0  1  0  0  0  0  0  0  0  0  0
   -2.4007   -0.0701   -1.5741 O   0  0  0  0  0  0  0  0  0  0  0  0
   -2.4772    0.2077    0.8062 C   0  0  2  0  0  0  0  0  0  0  0  0
   -1.9520    0.9849    1.8271 O   0  0  0  0  0  0  0  0  0  0  0  0
   -1.9488   -1.1911    0.8796 C   0  0  1  0  0  0  0  0  0  0  0  0
   -2.5562   -1.9552   -0.1298 O   0  0  0  0  0  0  0  0  0  0  0  0
   -0.4658   -1.2858    0.7500 C   0  0  0  0  0  0  0  0  0  0  0  0
    0.2370   -0.0945    1.1392 N   0  0  0  0  0  0  0  0  0  0  0  0
    2.6541   -0.4002   -2.3944 H   0  0  0  0  0  0  0  0  0  0  0  0
    4.0215   -0.0181   -1.3324 H   0  0  0  0  0  0  0  0  0  0  0  0
    2.7960    1.2442   -1.5889 H   0  0  0  0  0  0  0  0  0  0  0  0
    1.7971   -1.4248   -0.5658 H   0  0  0  0  0  0  0  0  0  0  0  0
    3.9900   -1.0421    0.5271 H   0  0  0  0  0  0  0  0  0  0  0  0
    3.3636    0.5285    1.1264 H   0  0  0  0  0  0  0  0  0  0  0  0
    2.6219   -1.0258    1.7250 H   0  0  0  0  0  0  0  0  0  0  0  0
    1.4241    1.4455    0.4368 H   0  0  0  0  0  0  0  0  0  0  0  0
    0.5419    1.0733   -1.8850 H   0  0  0  0  0  0  0  0  0  0  0  0
   -0.7757    2.0699    0.3200 H   0  0  0  0  0  0  0  0  0  0  0  0
   -1.1252    2.3981   -1.3863 H   0  0  0  0  0  0  0  0  0  0  0  0
   -3.1590    1.5751   -0.7008 H   0  0  0  0  0  0  0  0  0  0  0  0
   -2.5850    0.3701   -2.4341 H   0  0  0  0  0  0  0  0  0  0  0  0
   -3.5861    0.1402    1.0024 H   0  0  0  0  0  0  0  0  0  0  0  0
   -2.5291    1.7917    1.9955 H   0  0  0  0  0  0  0  0  0  0  0  0
   -2.3104   -1.6290    1.8414 H   0  0  0  0  0  0  0  0  0  0  0  0
   -1.9535   -2.6825   -0.3695 H   0  0  0  0  0  0  0  0  0  0  0  0
   -0.0826   -2.1192    1.4015 H   0  0  0  0  0  0  0  0  0  0  0  0
   -0.2262   -1.5492   -0.3191 H   0  0  0  0  0  0  0  0  0  0  0  0
    0.7889   -0.1726    1.9987 H   0  0  0  0  0  0  0  0  0  0  0  0
  1  2  1  0
  2  3  1  0
  2  4  1  0
  4  5  1  0
  5  6  1  0
  6  7  1  0
  7  8  1  0
  7  9  1  0
  9 10  1  0
  9 11  1  0
 11 12  1  0
 11 13  1  0
 13 14  1  0
 14  4  1  0
  1 15  1  0
  1 16  1  0
  1 17  1  0
  2 18  1  0
  3 19  1  0
  3 20  1  0
  3 21  1  0
  4 22  1  1
  5 23  1  0
  6 24  1  0
  6 25  1  0
  7 26  1  6
  8 27  1  0
  9 28  1  1
 10 29  1  0
 11 30  1  1
 12 31  1  0
 13 32  1  0
 13 33  1  0
 14 34  1  0
M  END
$$$$
[H]c1nn(C([H])([H])C([H])([H])C([H])([H])[H])c([H])c1-c1c([H])c([H])c2c([H])nc(N([H])C(=O)C3([H])C([H])([H])C([H])([H])N([H])C([H])([H])C3([H])[H])c([H])c2c1[H]
     RDKit          3D

 52 55  0  0  0  0  0  0  0  0999 V2000
    7.7686    0.2910   -1.5703 C   0  0  0  0  0  0  0  0  0  0  0  0
    8.3332    0.5008   -0.1987 C   0  0  0  0  0  0  0  0  0  0  0  0
    7.4447    1.3507    0.6538 C   0  0  0  0  0  0  0  0  0  0  0  0
    6.1215    0.7334    0.8192 N   0  0  0  0  0  0  0  0  0  0  0  0
    5.0449    0.9084    0.0327 C   0  0  0  0  0  0  0  0  0  0  0  0
    3.9705    0.1729    0.4867 C   0  0  0  0  0  0  0  0  0  0  0  0
    4.4609   -0.4780    1.6222 C   0  0  0  0  0  0  0  0  0  0  0  0
    5.7443   -0.1054    1.7688 N   0  0  0  0  0  0  0  0  0  0  0  0
    2.6226    0.0539   -0.0376 C   0  0  0  0  0  0  0  0  0  0  0  0
    2.4098    0.1516   -1.3943 C   0  0  0  0  0  0  0  0  0  0  0  0
    1.1203    0.0411   -1.9283 C   0  0  0  0  0  0  0  0  0  0  0  0
    0.0763   -0.1663   -1.0720 C   0  0  0  0  0  0  0  0  0  0  0  0
   -1.2124   -0.2815   -1.5548 C   0  0  0  0  0  0  0  0  0  0  0  0
   -2.2156   -0.4822   -0.7166 N   0  0  0  0  0  0  0  0  0  0  0  0
   -2.1463   -0.5953    0.6135 C   0  0  0  0  0  0  0  0  0  0  0  0
   -3.1879   -0.8051    1.5163 N   0  0  0  0  0  0  0  0  0  0  0  0
   -4.5600   -0.9316    1.3141 C   0  0  0  0  0  0  0  0  0  0  0  0
   -5.3636   -1.1567    2.2860 O   0  0  0  0  0  0  0  0  0  0  0  0
   -5.1974   -0.8157   -0.0139 C   0  0  0  0  0  0  0  0  0  0  0  0
   -5.2034    0.5961   -0.4686 C   0  0  0  0  0  0  0  0  0  0  0  0
   -6.5478    1.2892   -0.3886 C   0  0  0  0  0  0  0  0  0  0  0  0
   -7.5097    0.4809   -1.0686 N   0  0  0  0  0  0  0  0  0  0  0  0
   -7.7247   -0.6935   -0.2467 C   0  0  0  0  0  0  0  0  0  0  0  0
   -6.5206   -1.5315   -0.0698 C   0  0  0  0  0  0  0  0  0  0  0  0
   -0.8343   -0.4789    1.1151 C   0  0  0  0  0  0  0  0  0  0  0  0
    0.2500   -0.2694    0.2897 C   0  0  0  0  0  0  0  0  0  0  0  0
    1.5373   -0.1553    0.7820 C   0  0  0  0  0  0  0  0  0  0  0  0
    7.0906   -0.5905   -1.5146 H   0  0  0  0  0  0  0  0  0  0  0  0
    7.1706    1.1816   -1.8337 H   0  0  0  0  0  0  0  0  0  0  0  0
    8.5889    0.1107   -2.2971 H   0  0  0  0  0  0  0  0  0  0  0  0
    8.4890   -0.4754    0.3398 H   0  0  0  0  0  0  0  0  0  0  0  0
    9.3346    0.9985   -0.2156 H   0  0  0  0  0  0  0  0  0  0  0  0
    7.8971    1.5785    1.6189 H   0  0  0  0  0  0  0  0  0  0  0  0
    7.2631    2.3049    0.1150 H   0  0  0  0  0  0  0  0  0  0  0  0
    5.0090    1.5392   -0.8443 H   0  0  0  0  0  0  0  0  0  0  0  0
    3.8566   -1.1441    2.2207 H   0  0  0  0  0  0  0  0  0  0  0  0
    3.2361    0.3168   -2.0825 H   0  0  0  0  0  0  0  0  0  0  0  0
    0.9422    0.1152   -2.9783 H   0  0  0  0  0  0  0  0  0  0  0  0
   -1.3337   -0.1979   -2.6317 H   0  0  0  0  0  0  0  0  0  0  0  0
   -2.8751   -0.9088    2.5550 H   0  0  0  0  0  0  0  0  0  0  0  0
   -4.5332   -1.4042   -0.7183 H   0  0  0  0  0  0  0  0  0  0  0  0
   -4.9052    0.6465   -1.5352 H   0  0  0  0  0  0  0  0  0  0  0  0
   -4.5213    1.1934    0.1841 H   0  0  0  0  0  0  0  0  0  0  0  0
   -6.8838    1.4635    0.6320 H   0  0  0  0  0  0  0  0  0  0  0  0
   -6.4511    2.2466   -0.9265 H   0  0  0  0  0  0  0  0  0  0  0  0
   -7.2830    0.2556   -2.0449 H   0  0  0  0  0  0  0  0  0  0  0  0
   -8.1617   -0.3490    0.7142 H   0  0  0  0  0  0  0  0  0  0  0  0
   -8.5137   -1.2937   -0.7509 H   0  0  0  0  0  0  0  0  0  0  0  0
   -6.6377   -2.0600    0.9241 H   0  0  0  0  0  0  0  0  0  0  0  0
   -6.5181   -2.3670   -0.8068 H   0  0  0  0  0  0  0  0  0  0  0  0
   -0.6116   -0.5480    2.1698 H   0  0  0  0  0  0  0  0  0  0  0  0
    1.6700   -0.2358    1.8401 H   0  0  0  0  0  0  0  0  0  0  0  0
  1  2  1  0
  2  3  1  0
  3  4  1  0
  4  5  1  0
  5  6  2  0
  6  7  1  0
  7  8  2  0
  6  9  1  0
  9 10  2  0
 10 11  1  0
 11 12  2  0
 12 13  1  0
 13 14  2  0
 14 15  1  0
 15 16  1  0
 16 17  1  0
 17 18  2  0
 17 19  1  0
 19 20  1  0
 20 21  1  0
 21 22  1  0
 22 23  1  0
 23 24  1  0
 15 25  2  0
 25 26  1  0
 26 27  2  0
  8  4  1  0
 27  9  1  0
 26 12  1  0
 24 19  1  0
  1 28  1  0
  1 29  1  0
  1 30  1  0
  2 31  1  0
  2 32  1  0
  3 33  1  0
  3 34  1  0
  5 35  1  0
  7 36  1  0
 10 37  1  0
 11 38  1  0
 13 39  1  0
 16 40  1  0
 19 41  1  0
 20 42  1  0
 20 43  1  0
 21 44  1  0
 21 45  1  0
 22 46  1  0
 23 47  1  0
 23 48  1  0
 24 49  1  0
 24 50  1  0
 25 51  1  0
 27 52  1  0
M  END
$$$$
[H]c1c([H])c([H])c2c(c1[H])c1c3c(c4c5c([H])c([H])c([H])c([H])c5n5c4c1n2[C@@]1(C([H])([H])[H])O[C@]5([H])C([H])([H])[C@@]([H])(N([H])C([H])([H])[H])[C@@]1([H])OC([H])([H])[H])C(=O)N([H])C3([H])[H]
     RDKit          3D

 61 68  0  0  0  0  0  0  0  0999 V2000
   -3.3415   -2.0929    0.8927 C   0  0  0  0  0  0  0  0  0  0  0  0
   -2.7520   -0.8244    0.5060 N   0  0  0  0  0  0  0  0  0  0  0  0
   -2.5947   -0.7699   -0.9652 C   0  0  2  0  0  0  0  0  0  0  0  0
   -1.6635   -1.8336   -1.3456 C   0  0  0  0  0  0  0  0  0  0  0  0
   -0.4098   -1.3263   -1.9401 C   0  0  1  0  0  0  0  0  0  0  0  0
   -0.2904   -0.0961   -2.3609 O   0  0  0  0  0  0  0  0  0  0  0  0
   -0.9141    0.9817   -1.7381 C   0  0  1  0  0  0  0  0  0  0  0  0
   -0.8729    2.0231   -2.8643 C   0  0  0  0  0  0  0  0  0  0  0  0
   -2.2914    0.6326   -1.4119 C   0  0  2  0  0  0  0  0  0  0  0  0
   -2.9229    1.4324   -0.4622 O   0  0  0  0  0  0  0  0  0  0  0  0
   -4.0664    2.0564   -0.9455 C   0  0  0  0  0  0  0  0  0  0  0  0
   -0.0747    1.3904   -0.5981 N   0  0  0  0  0  0  0  0  0  0  0  0
    0.0066    2.5943   -0.0347 C   0  0  0  0  0  0  0  0  0  0  0  0
   -0.6403    3.7755   -0.2701 C   0  0  0  0  0  0  0  0  0  0  0  0
   -0.3753    4.9057    0.4704 C   0  0  0  0  0  0  0  0  0  0  0  0
    0.5715    4.8915    1.4994 C   0  0  0  0  0  0  0  0  0  0  0  0
    1.2169    3.7192    1.7374 C   0  0  0  0  0  0  0  0  0  0  0  0
    0.9447    2.6014    0.9941 C   0  0  0  0  0  0  0  0  0  0  0  0
    1.4533    1.3308    1.0530 C   0  0  0  0  0  0  0  0  0  0  0  0
    2.4134    0.7192    1.8621 C   0  0  0  0  0  0  0  0  0  0  0  0
    3.2252    1.2814    2.9656 C   0  0  0  0  0  0  0  0  0  0  0  0
    4.0513    0.2282    3.4563 N   0  0  0  0  0  0  0  0  0  0  0  0
    3.7725   -0.9500    2.6928 C   0  0  0  0  0  0  0  0  0  0  0  0
    4.3602   -2.0093    2.9202 O   0  0  0  0  0  0  0  0  0  0  0  0
    2.7553   -0.6238    1.7110 C   0  0  0  0  0  0  0  0  0  0  0  0
    2.1006   -1.3257    0.7242 C   0  0  0  0  0  0  0  0  0  0  0  0
    2.1422   -2.6347    0.2794 C   0  0  0  0  0  0  0  0  0  0  0  0
    2.8759   -3.7217    0.6638 C   0  0  0  0  0  0  0  0  0  0  0  0
    2.6892   -4.9254    0.0128 C   0  0  0  0  0  0  0  0  0  0  0  0
    1.7808   -5.0386   -1.0084 C   0  0  0  0  0  0  0  0  0  0  0  0
    1.0343   -3.9515   -1.4066 C   0  0  0  0  0  0  0  0  0  0  0  0
    1.2263   -2.7646   -0.7562 C   0  0  0  0  0  0  0  0  0  0  0  0
    0.6469   -1.5975   -0.9447 N   0  0  0  0  0  0  0  0  0  0  0  0
    1.1358   -0.7009   -0.0851 C   0  0  0  0  0  0  0  0  0  0  0  0
    0.8119    0.6350    0.0794 C   0  0  0  0  0  0  0  0  0  0  0  0
   -3.9345   -1.8764    1.8249 H   0  0  0  0  0  0  0  0  0  0  0  0
   -2.5804   -2.8202    1.1896 H   0  0  0  0  0  0  0  0  0  0  0  0
   -4.0376   -2.4413    0.1071 H   0  0  0  0  0  0  0  0  0  0  0  0
   -1.8252   -0.7857    0.9817 H   0  0  0  0  0  0  0  0  0  0  0  0
   -3.6418   -1.0758   -1.3069 H   0  0  0  0  0  0  0  0  0  0  0  0
   -1.4743   -2.5407   -0.4944 H   0  0  0  0  0  0  0  0  0  0  0  0
   -2.1827   -2.5069   -2.1019 H   0  0  0  0  0  0  0  0  0  0  0  0
   -0.1764   -2.0147   -2.8352 H   0  0  0  0  0  0  0  0  0  0  0  0
   -1.8561    2.5173   -2.9808 H   0  0  0  0  0  0  0  0  0  0  0  0
   -0.0367    2.7359   -2.7018 H   0  0  0  0  0  0  0  0  0  0  0  0
   -0.6761    1.5932   -3.8662 H   0  0  0  0  0  0  0  0  0  0  0  0
   -2.9127    0.7625   -2.3525 H   0  0  0  0  0  0  0  0  0  0  0  0
   -4.5472    2.6842   -0.1440 H   0  0  0  0  0  0  0  0  0  0  0  0
   -3.8494    2.7776   -1.7563 H   0  0  0  0  0  0  0  0  0  0  0  0
   -4.7942    1.3294   -1.3803 H   0  0  0  0  0  0  0  0  0  0  0  0
   -1.3647    3.8112   -1.0348 H   0  0  0  0  0  0  0  0  0  0  0  0
   -0.8845    5.8355    0.2847 H   0  0  0  0  0  0  0  0  0  0  0  0
    0.7949    5.7654    2.0918 H   0  0  0  0  0  0  0  0  0  0  0  0
    1.9682    3.6487    2.5304 H   0  0  0  0  0  0  0  0  0  0  0  0
    3.8868    2.0907    2.5395 H   0  0  0  0  0  0  0  0  0  0  0  0
    2.5967    1.6993    3.7873 H   0  0  0  0  0  0  0  0  0  0  0  0
    4.7363    0.3270    4.2421 H   0  0  0  0  0  0  0  0  0  0  0  0
    3.5871   -3.7061    1.4353 H   0  0  0  0  0  0  0  0  0  0  0  0
    3.2659   -5.8106    0.3031 H   0  0  0  0  0  0  0  0  0  0  0  0
    1.6292   -5.9934   -1.5280 H   0  0  0  0  0  0  0  0  0  0  0  0
    0.3048   -4.0175   -2.2172 H   0  0  0  0  0  0  0  0  0  0  0  0
  1  2  1  0
  2  3  1  0
  3  4  1  0
  4  5  1  0
  5  6  1  0
  6  7  1  0
  7  8  1  6
  7  9  1  0
  9 10  1  0
 10 11  1  0
  7 12  1  0
 12 13  1  0
 13 14  2  0
 14 15  1  0
 15 16  2  0
 16 17  1  0
 17 18  2  0
 18 19  1  0
 19 20  2  0
 20 21  1  0
 21 22  1  0
 22 23  1  0
 23 24  2  0
 23 25  1  0
 25 26  2  0
 26 27  1  0
 27 28  2  0
 28 29  1  0
 29 30  2  0
 30 31  1  0
 31 32  2  0
 32 33  1  0
 33 34  1  0
 34 35  2  0
  9  3  1  0
 35 12  1  0
 33  5  1  0
 18 13  1  0
 35 19  1  0
 25 20  1  0
 34 26  1  0
 32 27  1  0
  1 36  1  0
  1 37  1  0
  1 38  1  0
  2 39  1  0
  3 40  1  6
  4 41  1  0
  4 42  1  0
  5 43  1  6
  8 44  1  0
  8 45  1  0
  8 46  1  0
  9 47  1  6
 11 48  1  0
 11 49  1  0
 11 50  1  0
 14 51  1  0
 15 52  1  0
 16 53  1  0
 17 54  1  0
 21 55  1  0
 21 56  1  0
 22 57  1  0
 28 58  1  0
 29 59  1  0
 30 60  1  0
 31 61  1  0
M  END
$$$$
[H]c1nc2c(nc1N([H])C(=O)c1c(C([H])([H])[H])nn(C([H])([H])[H])c1[H])c(-c1c([H])c([H])c([H])c(N([H])C(=O)C#CC([H])([H])C([H])([H])N(C([H])([H])[H])C([H])([H])[H])c1[H])nn2[H]
     RDKit          3D

 60 63  0  0  0  0  0  0  0  0999 V2000
   -9.9127    1.1997   -2.2775 C   0  0  0  0  0  0  0  0  0  0  0  0
   -9.5901    1.5630   -0.9107 N   0  0  0  0  0  0  0  0  0  0  0  0
   -9.7593    2.9946   -0.7755 C   0  0  0  0  0  0  0  0  0  0  0  0
   -8.1873    1.2570   -0.7046 C   0  0  0  0  0  0  0  0  0  0  0  0
   -7.9439   -0.2419   -0.7266 C   0  0  0  0  0  0  0  0  0  0  0  0
   -6.5291   -0.5448   -0.5186 C   0  0  0  0  0  0  0  0  0  0  0  0
   -5.3669   -0.7965   -0.3288 C   0  0  0  0  0  0  0  0  0  0  0  0
   -3.9547   -1.1081   -0.0778 C   0  0  0  0  0  0  0  0  0  0  0  0
   -3.4082   -1.7801   -0.9679 O   0  0  0  0  0  0  0  0  0  0  0  0
   -3.3082   -0.6698    1.0768 N   0  0  0  0  0  0  0  0  0  0  0  0
   -1.9646   -0.8955    1.4526 C   0  0  0  0  0  0  0  0  0  0  0  0
   -1.4725   -0.1448    2.5377 C   0  0  0  0  0  0  0  0  0  0  0  0
   -0.1886   -0.3299    2.9510 C   0  0  0  0  0  0  0  0  0  0  0  0
    0.6170   -1.2344    2.3211 C   0  0  0  0  0  0  0  0  0  0  0  0
    0.1894   -1.9967    1.2546 C   0  0  0  0  0  0  0  0  0  0  0  0
   -1.1245   -1.7950    0.8458 C   0  0  0  0  0  0  0  0  0  0  0  0
    1.0523   -2.9448    0.6027 C   0  0  0  0  0  0  0  0  0  0  0  0
    0.7247   -4.2020    0.2437 N   0  0  0  0  0  0  0  0  0  0  0  0
    1.7690   -4.7783   -0.3318 N   0  0  0  0  0  0  0  0  0  0  0  0
    2.8085   -3.9190   -0.3669 C   0  0  0  0  0  0  0  0  0  0  0  0
    4.0644   -3.9620   -0.8151 N   0  0  0  0  0  0  0  0  0  0  0  0
    4.8740   -2.8637   -0.6814 C   0  0  0  0  0  0  0  0  0  0  0  0
    4.4442   -1.7051   -0.0988 C   0  0  0  0  0  0  0  0  0  0  0  0
    5.1906   -0.5225    0.0877 N   0  0  0  0  0  0  0  0  0  0  0  0
    6.5133   -0.3324   -0.2998 C   0  0  0  0  0  0  0  0  0  0  0  0
    7.1535   -1.2597   -0.8696 O   0  0  0  0  0  0  0  0  0  0  0  0
    7.2975    0.8957   -0.1082 C   0  0  0  0  0  0  0  0  0  0  0  0
    8.6928    0.9403   -0.1631 C   0  0  0  0  0  0  0  0  0  0  0  0
    9.0522    2.2000    0.0862 N   0  0  0  0  0  0  0  0  0  0  0  0
   10.4530    2.6381    0.1149 C   0  0  0  0  0  0  0  0  0  0  0  0
    7.9861    2.9165    0.2862 N   0  0  0  0  0  0  0  0  0  0  0  0
    6.8510    2.1548    0.1772 C   0  0  0  0  0  0  0  0  0  0  0  0
    5.4759    2.6933    0.3340 C   0  0  0  0  0  0  0  0  0  0  0  0
    3.1364   -1.6849    0.3586 N   0  0  0  0  0  0  0  0  0  0  0  0
    2.3650   -2.7560    0.2220 C   0  0  0  0  0  0  0  0  0  0  0  0
   -9.0013    1.0980   -2.9030 H   0  0  0  0  0  0  0  0  0  0  0  0
  -10.5233    2.0135   -2.7444 H   0  0  0  0  0  0  0  0  0  0  0  0
  -10.5446    0.2900   -2.3246 H   0  0  0  0  0  0  0  0  0  0  0  0
  -10.8548    3.2104   -0.9243 H   0  0  0  0  0  0  0  0  0  0  0  0
   -9.5223    3.3559    0.2388 H   0  0  0  0  0  0  0  0  0  0  0  0
   -9.1817    3.5723   -1.5175 H   0  0  0  0  0  0  0  0  0  0  0  0
   -7.8200    1.6386    0.2505 H   0  0  0  0  0  0  0  0  0  0  0  0
   -7.6429    1.7322   -1.5654 H   0  0  0  0  0  0  0  0  0  0  0  0
   -8.2426   -0.6563   -1.7296 H   0  0  0  0  0  0  0  0  0  0  0  0
   -8.5764   -0.7402    0.0202 H   0  0  0  0  0  0  0  0  0  0  0  0
   -3.9205   -0.1010    1.7427 H   0  0  0  0  0  0  0  0  0  0  0  0
   -2.1241    0.5778    3.0361 H   0  0  0  0  0  0  0  0  0  0  0  0
    0.2042    0.2544    3.8002 H   0  0  0  0  0  0  0  0  0  0  0  0
    1.6315   -1.3421    2.6908 H   0  0  0  0  0  0  0  0  0  0  0  0
   -1.4745   -2.3803    0.0309 H   0  0  0  0  0  0  0  0  0  0  0  0
    1.7737   -5.7678   -0.7045 H   0  0  0  0  0  0  0  0  0  0  0  0
    5.8866   -2.9556   -1.0640 H   0  0  0  0  0  0  0  0  0  0  0  0
    4.6457    0.2676    0.5764 H   0  0  0  0  0  0  0  0  0  0  0  0
    9.3739    0.1216   -0.3668 H   0  0  0  0  0  0  0  0  0  0  0  0
   11.0422    2.0591    0.8503 H   0  0  0  0  0  0  0  0  0  0  0  0
   10.5289    3.6991    0.4067 H   0  0  0  0  0  0  0  0  0  0  0  0
   10.9321    2.4454   -0.8768 H   0  0  0  0  0  0  0  0  0  0  0  0
    4.7801    2.3543   -0.4620 H   0  0  0  0  0  0  0  0  0  0  0  0
    5.5537    3.8188    0.3242 H   0  0  0  0  0  0  0  0  0  0  0  0
    5.0759    2.4491    1.3264 H   0  0  0  0  0  0  0  0  0  0  0  0
  1  2  1  0
  2  3  1  0
  2  4  1  0
  4  5  1  0
  5  6  1  0
  6  7  3  0
  7  8  1  0
  8  9  2  0
  8 10  1  0
 10 11  1  0
 11 12  2  0
 12 13  1  0
 13 14  2  0
 14 15  1  0
 15 16  2  0
 15 17  1  0
 17 18  2  0
 18 19  1  0
 19 20  1  0
 20 21  2  0
 21 22  1  0
 22 23  2  0
 23 24  1  0
 24 25  1  0
 25 26  2  0
 25 27  1  0
 27 28  2  0
 28 29  1  0
 29 30  1  0
 29 31  1  0
 31 32  2  0
 32 33  1  0
 23 34  1  0
 34 35  2  0
 16 11  1  0
 35 17  1  0
 35 20  1  0
 32 27  1  0
  1 36  1  0
  1 37  1  0
  1 38  1  0
  3 39  1  0
  3 40  1  0
  3 41  1  0
  4 42  1  0
  4 43  1  0
  5 44  1  0
  5 45  1  0
 10 46  1  0
 12 47  1  0
 13 48  1  0
 14 49  1  0
 16 50  1  0
 19 51  1  0
 22 52  1  0
 24 53  1  0
 28 54  1  0
 30 55  1  0
 30 56  1  0
 30 57  1  0
 33 58  1  0
 33 59  1  0
 33 60  1  0
M  END
$$$$
[H]c1nc(N([H])C2([H])C([H])([H])C([H])([H])C([H])([H])C([H])([H])C([H])([H])C2([H])[H])c(-c2c([H])c([H])c([H])c([H])c2[H])c(-c2c([H])nn(C([H])([H])C([H])([H])N([H])C(=O)c3c([H])c([H])c([H])c(F)c3[H])c2[H])c1[H]
     RDKit          3D

 69 73  0  0  0  0  0  0  0  0999 V2000
   11.8942   -2.4793   -0.2556 F   0  0  0  0  0  0  0  0  0  0  0  0
   10.9727   -1.5408    0.1227 C   0  0  0  0  0  0  0  0  0  0  0  0
   11.3822   -0.5401    0.9749 C   0  0  0  0  0  0  0  0  0  0  0  0
   10.4521    0.3912    1.3463 C   0  0  0  0  0  0  0  0  0  0  0  0
    9.1324    0.3320    0.8792 C   0  0  0  0  0  0  0  0  0  0  0  0
    8.7157   -0.6638    0.0285 C   0  0  0  0  0  0  0  0  0  0  0  0
    9.6885   -1.5997   -0.3326 C   0  0  0  0  0  0  0  0  0  0  0  0
    7.3607   -0.7695   -0.4798 C   0  0  0  0  0  0  0  0  0  0  0  0
    7.1407   -1.6497   -1.3718 O   0  0  0  0  0  0  0  0  0  0  0  0
    6.3475    0.0761    0.0080 N   0  0  0  0  0  0  0  0  0  0  0  0
    4.9746   -0.0522   -0.5290 C   0  0  0  0  0  0  0  0  0  0  0  0
    4.0833    0.9783    0.1706 C   0  0  0  0  0  0  0  0  0  0  0  0
    2.7276    0.8356   -0.3814 N   0  0  0  0  0  0  0  0  0  0  0  0
    1.7318    0.0485    0.0571 C   0  0  0  0  0  0  0  0  0  0  0  0
    0.5982    0.2048   -0.7402 C   0  0  0  0  0  0  0  0  0  0  0  0
    0.9745    1.1406   -1.6933 C   0  0  0  0  0  0  0  0  0  0  0  0
    2.2428    1.4776   -1.4317 N   0  0  0  0  0  0  0  0  0  0  0  0
   -0.6700   -0.4730   -0.5854 C   0  0  0  0  0  0  0  0  0  0  0  0
   -0.7767   -1.8261   -0.7820 C   0  0  0  0  0  0  0  0  0  0  0  0
   -2.0195   -2.4511   -0.6297 C   0  0  0  0  0  0  0  0  0  0  0  0
   -3.0933   -1.7097   -0.2911 N   0  0  0  0  0  0  0  0  0  0  0  0
   -3.0305   -0.3873   -0.0901 C   0  0  0  0  0  0  0  0  0  0  0  0
   -4.1831    0.3222    0.2744 N   0  0  0  0  0  0  0  0  0  0  0  0
   -5.4875   -0.2797    0.4367 C   0  0  0  0  0  0  0  0  0  0  0  0
   -5.5121   -1.3592    1.5002 C   0  0  0  0  0  0  0  0  0  0  0  0
   -6.9830   -1.4883    1.9166 C   0  0  0  0  0  0  0  0  0  0  0  0
   -7.7139   -2.2409    0.8542 C   0  0  0  0  0  0  0  0  0  0  0  0
   -8.4075   -1.3617   -0.1472 C   0  0  0  0  0  0  0  0  0  0  0  0
   -7.5075   -0.5032   -0.9651 C   0  0  0  0  0  0  0  0  0  0  0  0
   -6.0366   -0.8399   -0.8438 C   0  0  0  0  0  0  0  0  0  0  0  0
   -1.8145    0.2172   -0.2406 C   0  0  0  0  0  0  0  0  0  0  0  0
   -1.7041    1.6442   -0.0264 C   0  0  0  0  0  0  0  0  0  0  0  0
   -1.1035    2.1808    1.0661 C   0  0  0  0  0  0  0  0  0  0  0  0
   -1.0002    3.5408    1.2450 C   0  0  0  0  0  0  0  0  0  0  0  0
   -1.5251    4.4086    0.2809 C   0  0  0  0  0  0  0  0  0  0  0  0
   -2.1330    3.8872   -0.8250 C   0  0  0  0  0  0  0  0  0  0  0  0
   -2.2169    2.5116   -0.9685 C   0  0  0  0  0  0  0  0  0  0  0  0
   12.4087   -0.5253    1.3149 H   0  0  0  0  0  0  0  0  0  0  0  0
   10.7525    1.2013    2.0258 H   0  0  0  0  0  0  0  0  0  0  0  0
    8.4441    1.0972    1.2062 H   0  0  0  0  0  0  0  0  0  0  0  0
    9.3669   -2.4026   -1.0132 H   0  0  0  0  0  0  0  0  0  0  0  0
    6.5540    0.7856    0.7400 H   0  0  0  0  0  0  0  0  0  0  0  0
    4.5937   -1.0754   -0.3984 H   0  0  0  0  0  0  0  0  0  0  0  0
    5.0563    0.1934   -1.6064 H   0  0  0  0  0  0  0  0  0  0  0  0
    4.4520    1.9740   -0.1140 H   0  0  0  0  0  0  0  0  0  0  0  0
    4.0480    0.7754    1.2399 H   0  0  0  0  0  0  0  0  0  0  0  0
    1.8378   -0.5982    0.9100 H   0  0  0  0  0  0  0  0  0  0  0  0
    0.3329    1.5078   -2.4923 H   0  0  0  0  0  0  0  0  0  0  0  0
    0.0984   -2.4009   -1.0534 H   0  0  0  0  0  0  0  0  0  0  0  0
   -2.0523   -3.5101   -0.7942 H   0  0  0  0  0  0  0  0  0  0  0  0
   -4.0955    1.3460    0.4437 H   0  0  0  0  0  0  0  0  0  0  0  0
   -6.1968    0.4967    0.7888 H   0  0  0  0  0  0  0  0  0  0  0  0
   -4.9103   -1.0069    2.3634 H   0  0  0  0  0  0  0  0  0  0  0  0
   -5.1594   -2.3375    1.1376 H   0  0  0  0  0  0  0  0  0  0  0  0
   -7.4002   -0.4624    2.0189 H   0  0  0  0  0  0  0  0  0  0  0  0
   -7.0479   -1.9882    2.9231 H   0  0  0  0  0  0  0  0  0  0  0  0
   -7.0910   -2.9896    0.3427 H   0  0  0  0  0  0  0  0  0  0  0  0
   -8.5335   -2.8406    1.3484 H   0  0  0  0  0  0  0  0  0  0  0  0
   -9.0422   -1.9799   -0.8075 H   0  0  0  0  0  0  0  0  0  0  0  0
   -9.0999   -0.6731    0.4223 H   0  0  0  0  0  0  0  0  0  0  0  0
   -7.8360   -0.5453   -2.0324 H   0  0  0  0  0  0  0  0  0  0  0  0
   -7.5885    0.5793   -0.6946 H   0  0  0  0  0  0  0  0  0  0  0  0
   -5.5355   -0.3141   -1.6951 H   0  0  0  0  0  0  0  0  0  0  0  0
   -5.9090   -1.9389   -0.9406 H   0  0  0  0  0  0  0  0  0  0  0  0
   -0.6936    1.5339    1.8187 H   0  0  0  0  0  0  0  0  0  0  0  0
   -0.5316    3.9806    2.0979 H   0  0  0  0  0  0  0  0  0  0  0  0
   -1.4682    5.4771    0.3767 H   0  0  0  0  0  0  0  0  0  0  0  0
   -2.5456    4.5257   -1.5834 H   0  0  0  0  0  0  0  0  0  0  0  0
   -2.7088    2.1329   -1.8642 H   0  0  0  0  0  0  0  0  0  0  0  0
  1  2  1  0
  2  3  2  0
  3  4  1  0
  4  5  2  0
  5  6  1  0
  6  7  2  0
  6  8  1  0
  8  9  2  0
  8 10  1  0
 10 11  1  0
 11 12  1  0
 12 13  1  0
 13 14  1  0
 14 15  2  0
 15 16  1  0
 16 17  2  0
 15 18  1  0
 18 19  2  0
 19 20  1  0
 20 21  2  0
 21 22  1  0
 22 23  1  0
 23 24  1  0
 24 25  1  0
 25 26  1  0
 26 27  1  0
 27 28  1  0
 28 29  1  0
 29 30  1  0
 22 31  2  0
 31 32  1  0
 32 33  2  0
 33 34  1  0
 34 35  2  0
 35 36  1  0
 36 37  2  0
  7  2  1  0
 17 13  1  0
 31 18  1  0
 37 32  1  0
 30 24  1  0
  3 38  1  0
  4 39  1  0
  5 40  1  0
  7 41  1  0
 10 42  1  0
 11 43  1  0
 11 44  1  0
 12 45  1  0
 12 46  1  0
 14 47  1  0
 16 48  1  0
 19 49  1  0
 20 50  1  0
 23 51  1  0
 24 52  1  0
 25 53  1  0
 25 54  1  0
 26 55  1  0
 26 56  1  0
 27 57  1  0
 27 58  1  0
 28 59  1  0
 28 60  1  0
 29 61  1  0
 29 62  1  0
 30 63  1  0
 30 64  1  0
 33 65  1  0
 34 66  1  0
 35 67  1  0
 36 68  1  0
 37 69  1  0
M  END
$$$$
[H]c1nc(N([H])c2c([H])c([H])c(S(=O)(=O)C([H])([H])C([H])([H])[H])c([H])c2[H])nc(OC([H])([H])C([H])([H])OC([H])([H])[H])c1[H]
     RDKit          3D

 42 43  0  0  0  0  0  0  0  0999 V2000
    8.3608    1.4030    1.5187 C   0  0  0  0  0  0  0  0  0  0  0  0
    6.9777    1.2379    1.6872 O   0  0  0  0  0  0  0  0  0  0  0  0
    6.4774    0.8141    0.4663 C   0  0  0  0  0  0  0  0  0  0  0  0
    4.9864    0.5910    0.4892 C   0  0  0  0  0  0  0  0  0  0  0  0
    4.5871    0.1696   -0.7782 O   0  0  0  0  0  0  0  0  0  0  0  0
    3.2945   -0.1325   -1.1411 C   0  0  0  0  0  0  0  0  0  0  0  0
    2.9931   -0.5419   -2.4195 C   0  0  0  0  0  0  0  0  0  0  0  0
    1.6570   -0.8404   -2.7460 C   0  0  0  0  0  0  0  0  0  0  0  0
    0.7435   -0.7074   -1.7826 N   0  0  0  0  0  0  0  0  0  0  0  0
    0.9942   -0.3164   -0.5418 C   0  0  0  0  0  0  0  0  0  0  0  0
    0.0755   -0.1607    0.5040 N   0  0  0  0  0  0  0  0  0  0  0  0
   -1.3146   -0.3931    0.3776 C   0  0  0  0  0  0  0  0  0  0  0  0
   -2.0753   -0.7039    1.5131 C   0  0  0  0  0  0  0  0  0  0  0  0
   -3.4292   -0.9142    1.4724 C   0  0  0  0  0  0  0  0  0  0  0  0
   -4.1064   -0.8255    0.2852 C   0  0  0  0  0  0  0  0  0  0  0  0
   -3.3954   -0.5237   -0.8419 C   0  0  0  0  0  0  0  0  0  0  0  0
   -2.0247   -0.3113   -0.7945 C   0  0  0  0  0  0  0  0  0  0  0  0
   -5.8196   -1.0834    0.1804 S   0  0  0  0  0  0  0  0  0  0  0  0
   -6.3158   -2.0050    1.2553 O   0  0  0  0  0  0  0  0  0  0  0  0
   -6.1306   -1.6323   -1.1898 O   0  0  0  0  0  0  0  0  0  0  0  0
   -6.6160    0.4998    0.4247 C   0  0  0  0  0  0  0  0  0  0  0  0
   -8.1220    0.3541    0.3465 C   0  0  0  0  0  0  0  0  0  0  0  0
    2.3123   -0.0315   -0.2530 N   0  0  0  0  0  0  0  0  0  0  0  0
    8.8598    1.7428    2.4447 H   0  0  0  0  0  0  0  0  0  0  0  0
    8.8153    0.4300    1.1755 H   0  0  0  0  0  0  0  0  0  0  0  0
    8.5823    2.1305    0.7084 H   0  0  0  0  0  0  0  0  0  0  0  0
    6.7015    1.5562   -0.3254 H   0  0  0  0  0  0  0  0  0  0  0  0
    7.0182   -0.1191    0.1785 H   0  0  0  0  0  0  0  0  0  0  0  0
    4.5083    1.5789    0.7000 H   0  0  0  0  0  0  0  0  0  0  0  0
    4.6867   -0.1153    1.2829 H   0  0  0  0  0  0  0  0  0  0  0  0
    3.7742   -0.6280   -3.1460 H   0  0  0  0  0  0  0  0  0  0  0  0
    1.3906   -1.1654   -3.7462 H   0  0  0  0  0  0  0  0  0  0  0  0
    0.3898    0.1531    1.4729 H   0  0  0  0  0  0  0  0  0  0  0  0
   -1.5026   -0.7682    2.4455 H   0  0  0  0  0  0  0  0  0  0  0  0
   -3.9406   -1.1532    2.4168 H   0  0  0  0  0  0  0  0  0  0  0  0
   -3.8969   -0.4413   -1.8218 H   0  0  0  0  0  0  0  0  0  0  0  0
   -1.5556   -0.0596   -1.7406 H   0  0  0  0  0  0  0  0  0  0  0  0
   -6.2854    0.8630    1.4201 H   0  0  0  0  0  0  0  0  0  0  0  0
   -6.2385    1.1549   -0.3978 H   0  0  0  0  0  0  0  0  0  0  0  0
   -8.4265    0.5695   -0.6957 H   0  0  0  0  0  0  0  0  0  0  0  0
   -8.4079   -0.6944    0.5691 H   0  0  0  0  0  0  0  0  0  0  0  0
   -8.5823    1.0194    1.0850 H   0  0  0  0  0  0  0  0  0  0  0  0
  1  2  1  0
  2  3  1  0
  3  4  1  0
  4  5  1  0
  5  6  1  0
  6  7  2  0
  7  8  1  0
  8  9  2  0
  9 10  1  0
 10 11  1  0
 11 12  1  0
 12 13  2  0
 13 14  1  0
 14 15  2  0
 15 16  1  0
 16 17  2  0
 15 18  1  0
 18 19  2  0
 18 20  2  0
 18 21  1  0
 21 22  1  0
 10 23  2  0
 23  6  1  0
 17 12  1  0
  1 24  1  0
  1 25  1  0
  1 26  1  0
  3 27  1  0
  3 28  1  0
  4 29  1  0
  4 30  1  0
  7 31  1  0
  8 32  1  0
 11 33  1  0
 13 34  1  0
 14 35  1  0
 16 36  1  0
 17 37  1  0
 21 38  1  0
 21 39  1  0
 22 40  1  0
 22 41  1  0
 22 42  1  0
M  END
$$$$
[H]OC(=O)/C([H])=C([H])/C([H])=C(/c1c([H])c([H])c2c(c1[H])C([H])([H])C([H])([H])[C@](C(=O)OC([H])([H])[H])(C([H])([H])c1c([H])c([H])c([H])c([H])c1[H])C2([H])[H])C([H])([H])[H]
     RDKit          3D

 55 57  0  0  0  0  0  0  0  0999 V2000
   -1.5625   -5.2193   -3.0437 C   0  0  0  0  0  0  0  0  0  0  0  0
   -1.3462   -3.8765   -2.6466 O   0  0  0  0  0  0  0  0  0  0  0  0
   -1.6407   -3.3711   -1.3950 C   0  0  0  0  0  0  0  0  0  0  0  0
   -2.1352   -4.1592   -0.5589 O   0  0  0  0  0  0  0  0  0  0  0  0
   -1.3764   -1.9243   -1.0435 C   0  0  2  0  0  0  0  0  0  0  0  0
   -2.4272   -0.9977   -1.6106 C   0  0  0  0  0  0  0  0  0  0  0  0
   -2.5696   -0.9141   -3.0457 C   0  0  0  0  0  0  0  0  0  0  0  0
   -1.9560    0.0998   -3.7474 C   0  0  0  0  0  0  0  0  0  0  0  0
   -2.0303    0.2654   -5.1076 C   0  0  0  0  0  0  0  0  0  0  0  0
   -2.7766   -0.6510   -5.8382 C   0  0  0  0  0  0  0  0  0  0  0  0
   -3.3880   -1.6600   -5.1293 C   0  0  0  0  0  0  0  0  0  0  0  0
   -3.3151   -1.8264   -3.7796 C   0  0  0  0  0  0  0  0  0  0  0  0
   -0.0259   -1.6439   -1.5969 C   0  0  0  0  0  0  0  0  0  0  0  0
    1.1167   -1.4680   -0.6733 C   0  0  0  0  0  0  0  0  0  0  0  0
    0.7749   -0.6039    0.4657 C   0  0  0  0  0  0  0  0  0  0  0  0
    1.6567    0.3224    0.9835 C   0  0  0  0  0  0  0  0  0  0  0  0
    1.3434    1.1106    2.0668 C   0  0  0  0  0  0  0  0  0  0  0  0
    0.0912    0.9199    2.6117 C   0  0  0  0  0  0  0  0  0  0  0  0
   -0.8074   -0.0129    2.0950 C   0  0  0  0  0  0  0  0  0  0  0  0
   -0.4932   -0.7945    1.0148 C   0  0  0  0  0  0  0  0  0  0  0  0
   -1.4479   -1.7630    0.4567 C   0  0  0  0  0  0  0  0  0  0  0  0
    2.3009    2.1148    2.5377 C   0  0  0  0  0  0  0  0  0  0  0  0
    3.5436    2.3875    1.7666 C   0  0  0  0  0  0  0  0  0  0  0  0
    2.1160    2.8416    3.6344 C   0  0  0  0  0  0  0  0  0  0  0  0
    3.1040    3.8296    4.0510 C   0  0  0  0  0  0  0  0  0  0  0  0
    2.8724    4.5529    5.1585 C   0  0  0  0  0  0  0  0  0  0  0  0
    3.7780    5.5480    5.6509 C   0  0  0  0  0  0  0  0  0  0  0  0
    3.4158    6.2353    6.8405 O   0  0  0  0  0  0  0  0  0  0  0  0
    4.8512    5.8786    5.1481 O   0  0  0  0  0  0  0  0  0  0  0  0
   -2.6049   -5.5465   -2.8355 H   0  0  0  0  0  0  0  0  0  0  0  0
   -1.2623   -5.3209   -4.0972 H   0  0  0  0  0  0  0  0  0  0  0  0
   -0.8743   -5.8786   -2.4578 H   0  0  0  0  0  0  0  0  0  0  0  0
   -2.2645    0.0072   -1.1248 H   0  0  0  0  0  0  0  0  0  0  0  0
   -3.4559   -1.2958   -1.2172 H   0  0  0  0  0  0  0  0  0  0  0  0
   -1.3546    0.8809   -3.2411 H   0  0  0  0  0  0  0  0  0  0  0  0
   -1.5376    1.0811   -5.6464 H   0  0  0  0  0  0  0  0  0  0  0  0
   -2.8638   -0.5683   -6.9189 H   0  0  0  0  0  0  0  0  0  0  0  0
   -3.9802   -2.3963   -5.6951 H   0  0  0  0  0  0  0  0  0  0  0  0
   -3.8394   -2.6569   -3.2747 H   0  0  0  0  0  0  0  0  0  0  0  0
   -0.0371   -0.8282   -2.3593 H   0  0  0  0  0  0  0  0  0  0  0  0
    0.2677   -2.5474   -2.2460 H   0  0  0  0  0  0  0  0  0  0  0  0
    1.4435   -2.4533   -0.2910 H   0  0  0  0  0  0  0  0  0  0  0  0
    2.0292   -1.0718   -1.2141 H   0  0  0  0  0  0  0  0  0  0  0  0
    2.6436    0.3901    0.4808 H   0  0  0  0  0  0  0  0  0  0  0  0
   -0.1905    1.5258    3.4834 H   0  0  0  0  0  0  0  0  0  0  0  0
   -1.7722   -0.0845    2.5994 H   0  0  0  0  0  0  0  0  0  0  0  0
   -1.3402   -2.7709    0.9281 H   0  0  0  0  0  0  0  0  0  0  0  0
   -2.4801   -1.4080    0.7449 H   0  0  0  0  0  0  0  0  0  0  0  0
    4.4315    1.8799    2.2290 H   0  0  0  0  0  0  0  0  0  0  0  0
    3.7272    3.5034    1.7497 H   0  0  0  0  0  0  0  0  0  0  0  0
    3.4693    2.1151    0.6968 H   0  0  0  0  0  0  0  0  0  0  0  0
    1.2171    2.6922    4.2226 H   0  0  0  0  0  0  0  0  0  0  0  0
    4.0302    4.0367    3.5588 H   0  0  0  0  0  0  0  0  0  0  0  0
    1.9376    4.3465    5.6729 H   0  0  0  0  0  0  0  0  0  0  0  0
    2.9943    7.1481    6.7198 H   0  0  0  0  0  0  0  0  0  0  0  0
  1  2  1  0
  2  3  1  0
  3  4  2  0
  5  3  1  1
  5  6  1  0
  6  7  1  0
  7  8  2  0
  8  9  1  0
  9 10  2  0
 10 11  1  0
 11 12  2  0
  5 13  1  0
 13 14  1  0
 14 15  1  0
 15 16  2  0
 16 17  1  0
 17 18  2  0
 18 19  1  0
 19 20  2  0
 20 21  1  0
 17 22  1  0
 22 23  1  0
 22 24  2  0
 24 25  1  0
 25 26  2  0
 26 27  1  0
 27 28  1  0
 27 29  2  0
 21  5  1  0
 12  7  1  0
 20 15  1  0
  1 30  1  0
  1 31  1  0
  1 32  1  0
  6 33  1  0
  6 34  1  0
  8 35  1  0
  9 36  1  0
 10 37  1  0
 11 38  1  0
 12 39  1  0
 13 40  1  0
 13 41  1  0
 14 42  1  0
 14 43  1  0
 16 44  1  0
 18 45  1  0
 19 46  1  0
 21 47  1  0
 21 48  1  0
 23 49  1  0
 23 50  1  0
 23 51  1  0
 24 52  1  0
 25 53  1  0
 26 54  1  0
 28 55  1  0
M  END
$$$$
[H]O[C@]1([H])C([H])([H])N([H])C([H])([H])[C@]1([H])C(=O)N([H])[C@@]1([H])C([H])([H])N(c2nc([H])nc3c([H])c(-c4c([H])c([H])c(OC([H])([H])[H])c(OC([H])([H])[H])c4[H])c([H])c([H])c23)C([H])([H])C([H])([H])C1([H])[H]
     RDKit          3D

 66 70  0  0  0  0  0  0  0  0999 V2000
    9.8779    2.4618    1.2254 C   0  0  0  0  0  0  0  0  0  0  0  0
    9.2327    1.3108    1.7034 O   0  0  0  0  0  0  0  0  0  0  0  0
    7.9177    1.0815    1.4337 C   0  0  0  0  0  0  0  0  0  0  0  0
    7.1555    1.9487    0.6838 C   0  0  0  0  0  0  0  0  0  0  0  0
    5.8151    1.6836    0.4300 C   0  0  0  0  0  0  0  0  0  0  0  0
    5.2414    0.5370    0.9361 C   0  0  0  0  0  0  0  0  0  0  0  0
    6.0102   -0.3243    1.6812 C   0  0  0  0  0  0  0  0  0  0  0  0
    7.3417   -0.0859    1.9480 C   0  0  0  0  0  0  0  0  0  0  0  0
    8.1211   -0.9596    2.7011 O   0  0  0  0  0  0  0  0  0  0  0  0
    7.5752   -2.1591    3.2236 C   0  0  0  0  0  0  0  0  0  0  0  0
    3.8314    0.2715    0.6943 C   0  0  0  0  0  0  0  0  0  0  0  0
    3.1553    0.6284   -0.4387 C   0  0  0  0  0  0  0  0  0  0  0  0
    1.7833    0.4147   -0.6242 C   0  0  0  0  0  0  0  0  0  0  0  0
    1.0823   -0.1834    0.3844 C   0  0  0  0  0  0  0  0  0  0  0  0
   -0.2658   -0.3848    0.2722 C   0  0  0  0  0  0  0  0  0  0  0  0
   -0.9216   -0.9726    1.3508 N   0  0  0  0  0  0  0  0  0  0  0  0
   -0.3159   -1.3380    2.4552 C   0  0  0  0  0  0  0  0  0  0  0  0
    1.0022   -1.1263    2.5340 N   0  0  0  0  0  0  0  0  0  0  0  0
    1.7167   -0.5725    1.5619 C   0  0  0  0  0  0  0  0  0  0  0  0
    3.0644   -0.3381    1.6873 C   0  0  0  0  0  0  0  0  0  0  0  0
   -1.0413   -0.0649   -0.8483 N   0  0  0  0  0  0  0  0  0  0  0  0
   -1.0190    0.9878   -1.8020 C   0  0  0  0  0  0  0  0  0  0  0  0
   -2.4495    1.2121   -2.3508 C   0  0  0  0  0  0  0  0  0  0  0  0
   -3.3741    1.3011   -1.2058 C   0  0  0  0  0  0  0  0  0  0  0  0
   -3.3666   -0.0507   -0.4502 C   0  0  2  0  0  0  0  0  0  0  0  0
   -2.2577   -0.9480   -1.0603 C   0  0  0  0  0  0  0  0  0  0  0  0
   -4.6116   -0.5913   -0.3808 N   0  0  0  0  0  0  0  0  0  0  0  0
   -5.8287   -1.1197   -0.3130 C   0  0  0  0  0  0  0  0  0  0  0  0
   -6.3760   -1.6190    0.7504 O   0  0  0  0  0  0  0  0  0  0  0  0
   -6.7907   -1.2315   -1.4840 C   0  0  1  0  0  0  0  0  0  0  0  0
   -8.0213   -2.0037   -1.1542 C   0  0  0  0  0  0  0  0  0  0  0  0
   -9.1523   -1.2640   -1.6900 N   0  0  0  0  0  0  0  0  0  0  0  0
   -8.5917   -0.3349   -2.6567 C   0  0  0  0  0  0  0  0  0  0  0  0
   -7.3052    0.0793   -1.9459 C   0  0  1  0  0  0  0  0  0  0  0  0
   -7.6319    0.9567   -0.9136 O   0  0  0  0  0  0  0  0  0  0  0  0
   10.8987    2.5353    1.6956 H   0  0  0  0  0  0  0  0  0  0  0  0
    9.9725    2.4005    0.1270 H   0  0  0  0  0  0  0  0  0  0  0  0
    9.3561    3.4011    1.5156 H   0  0  0  0  0  0  0  0  0  0  0  0
    7.5862    2.8660    0.2644 H   0  0  0  0  0  0  0  0  0  0  0  0
    5.2736    2.4073   -0.1680 H   0  0  0  0  0  0  0  0  0  0  0  0
    5.6248   -1.2515    2.0990 H   0  0  0  0  0  0  0  0  0  0  0  0
    6.7823   -2.0115    3.9671 H   0  0  0  0  0  0  0  0  0  0  0  0
    7.0848   -2.6776    2.3592 H   0  0  0  0  0  0  0  0  0  0  0  0
    8.3668   -2.8662    3.5601 H   0  0  0  0  0  0  0  0  0  0  0  0
    3.7275    1.0984   -1.2260 H   0  0  0  0  0  0  0  0  0  0  0  0
    1.3478    0.7184   -1.5483 H   0  0  0  0  0  0  0  0  0  0  0  0
   -0.8678   -1.8017    3.2852 H   0  0  0  0  0  0  0  0  0  0  0  0
    3.5857   -0.6227    2.5969 H   0  0  0  0  0  0  0  0  0  0  0  0
   -0.4771    0.7176   -2.7517 H   0  0  0  0  0  0  0  0  0  0  0  0
   -0.7019    1.9245   -1.3479 H   0  0  0  0  0  0  0  0  0  0  0  0
   -2.3417    2.2014   -2.8979 H   0  0  0  0  0  0  0  0  0  0  0  0
   -2.7032    0.4778   -3.1150 H   0  0  0  0  0  0  0  0  0  0  0  0
   -3.0726    2.1395   -0.5460 H   0  0  0  0  0  0  0  0  0  0  0  0
   -4.4112    1.5446   -1.5219 H   0  0  0  0  0  0  0  0  0  0  0  0
   -2.9328    0.2574    0.5446 H   0  0  0  0  0  0  0  0  0  0  0  0
   -2.1688   -1.8229   -0.4239 H   0  0  0  0  0  0  0  0  0  0  0  0
   -2.4094   -1.1923   -2.0855 H   0  0  0  0  0  0  0  0  0  0  0  0
   -4.4208   -0.9450    0.9534 H   0  0  0  0  0  0  0  0  0  0  0  0
   -6.1934   -1.6797   -2.3118 H   0  0  0  0  0  0  0  0  0  0  0  0
   -7.9748   -3.0169   -1.6217 H   0  0  0  0  0  0  0  0  0  0  0  0
   -8.1369   -2.0790   -0.0615 H   0  0  0  0  0  0  0  0  0  0  0  0
   -9.5453   -0.6530   -0.9186 H   0  0  0  0  0  0  0  0  0  0  0  0
   -9.2674    0.5093   -2.8362 H   0  0  0  0  0  0  0  0  0  0  0  0
   -8.3100   -0.8853   -3.5638 H   0  0  0  0  0  0  0  0  0  0  0  0
   -6.6406    0.5959   -2.6706 H   0  0  0  0  0  0  0  0  0  0  0  0
   -7.6342    0.5075   -0.0284 H   0  0  0  0  0  0  0  0  0  0  0  0
  1  2  1  0
  2  3  1  0
  3  4  2  0
  4  5  1  0
  5  6  2  0
  6  7  1  0
  7  8  2  0
  8  9  1  0
  9 10  1  0
  6 11  1  0
 11 12  2  0
 12 13  1  0
 13 14  2  0
 14 15  1  0
 15 16  2  0
 16 17  1  0
 17 18  2  0
 18 19  1  0
 19 20  2  0
 15 21  1  0
 21 22  1  0
 22 23  1  0
 23 24  1  0
 24 25  1  0
 25 26  1  0
 25 27  1  0
 27 28  1  0
 28 29  2  0
 28 30  1  0
 30 31  1  0
 31 32  1  0
 32 33  1  0
 33 34  1  0
 34 35  1  0
  8  3  1  0
 20 11  1  0
 26 21  1  0
 34 30  1  0
 19 14  1  0
  1 36  1  0
  1 37  1  0
  1 38  1  0
  4 39  1  0
  5 40  1  0
  7 41  1  0
 10 42  1  0
 10 43  1  0
 10 44  1  0
 12 45  1  0
 13 46  1  0
 17 47  1  0
 20 48  1  0
 22 49  1  0
 22 50  1  0
 23 51  1  0
 23 52  1  0
 24 53  1  0
 24 54  1  0
 25 55  1  1
 26 56  1  0
 26 57  1  0
 27 58  1  0
 30 59  1  6
 31 60  1  0
 31 61  1  0
 32 62  1  0
 33 63  1  0
 33 64  1  0
 34 65  1  6
 35 66  1  0
M  END
$$$$
[H]c1nc(N([H])c2c([H])c([H])c3c(c([H])nn3C([H])([H])c3c([H])c([H])c([H])c(Cl)c3[H])c2[H])c2c([H])c(F)c([H])c([H])c2n1
     RDKit          3D

 44 48  0  0  0  0  0  0  0  0999 V2000
    6.1408    3.8123    1.3985 F   0  0  0  0  0  0  0  0  0  0  0  0
    5.9500    2.4724    1.2999 C   0  0  0  0  0  0  0  0  0  0  0  0
    6.9879    1.6270    1.6136 C   0  0  0  0  0  0  0  0  0  0  0  0
    6.7731    0.2655    1.5067 C   0  0  0  0  0  0  0  0  0  0  0  0
    5.5618   -0.2505    1.0996 C   0  0  0  0  0  0  0  0  0  0  0  0
    5.3631   -1.5737    1.0001 N   0  0  0  0  0  0  0  0  0  0  0  0
    4.1990   -2.1229    0.6085 C   0  0  0  0  0  0  0  0  0  0  0  0
    3.2112   -1.2762    0.3109 N   0  0  0  0  0  0  0  0  0  0  0  0
    3.2867    0.0504    0.3705 C   0  0  0  0  0  0  0  0  0  0  0  0
    2.2180    0.8784    0.0141 N   0  0  0  0  0  0  0  0  0  0  0  0
    0.9158    0.4987   -0.3894 C   0  0  0  0  0  0  0  0  0  0  0  0
    0.3693   -0.6799    0.0111 C   0  0  0  0  0  0  0  0  0  0  0  0
   -0.8985   -1.0661   -0.4131 C   0  0  0  0  0  0  0  0  0  0  0  0
   -1.6058   -0.2358   -1.2516 C   0  0  0  0  0  0  0  0  0  0  0  0
   -2.8230   -0.3195   -1.8260 N   0  0  0  0  0  0  0  0  0  0  0  0
   -3.7537   -1.4254   -1.6605 C   0  0  0  0  0  0  0  0  0  0  0  0
   -4.6267   -1.1182   -0.5074 C   0  0  0  0  0  0  0  0  0  0  0  0
   -5.7568   -0.3628   -0.7180 C   0  0  0  0  0  0  0  0  0  0  0  0
   -6.6330   -0.0260    0.2787 C   0  0  0  0  0  0  0  0  0  0  0  0
   -6.3742   -0.4634    1.5591 C   0  0  0  0  0  0  0  0  0  0  0  0
   -5.2444   -1.2209    1.7799 C   0  0  0  0  0  0  0  0  0  0  0  0
   -4.9085   -1.7795    3.3991 Cl  0  0  0  0  0  0  0  0  0  0  0  0
   -4.3587   -1.5594    0.7627 C   0  0  0  0  0  0  0  0  0  0  0  0
   -3.0255    0.7475   -2.5445 N   0  0  0  0  0  0  0  0  0  0  0  0
   -1.9715    1.5678   -2.4780 C   0  0  0  0  0  0  0  0  0  0  0  0
   -1.0365    0.9527   -1.6452 C   0  0  0  0  0  0  0  0  0  0  0  0
    0.2147    1.3693   -1.2474 C   0  0  0  0  0  0  0  0  0  0  0  0
    4.4886    0.5871    0.7742 C   0  0  0  0  0  0  0  0  0  0  0  0
    4.7292    1.9334    0.8891 C   0  0  0  0  0  0  0  0  0  0  0  0
    7.9507    1.9898    1.9358 H   0  0  0  0  0  0  0  0  0  0  0  0
    7.5754   -0.4458    1.7476 H   0  0  0  0  0  0  0  0  0  0  0  0
    4.0676   -3.2133    0.5370 H   0  0  0  0  0  0  0  0  0  0  0  0
    2.3498    1.9461    0.0356 H   0  0  0  0  0  0  0  0  0  0  0  0
    0.8414   -1.3781    0.6783 H   0  0  0  0  0  0  0  0  0  0  0  0
   -1.3423   -1.9895   -0.1083 H   0  0  0  0  0  0  0  0  0  0  0  0
   -3.1946   -2.3686   -1.5119 H   0  0  0  0  0  0  0  0  0  0  0  0
   -4.4029   -1.4965   -2.5622 H   0  0  0  0  0  0  0  0  0  0  0  0
   -5.9903   -0.0026   -1.7127 H   0  0  0  0  0  0  0  0  0  0  0  0
   -7.5185    0.5699    0.0949 H   0  0  0  0  0  0  0  0  0  0  0  0
   -7.0587   -0.2075    2.3716 H   0  0  0  0  0  0  0  0  0  0  0  0
   -3.4749   -2.1645    0.9767 H   0  0  0  0  0  0  0  0  0  0  0  0
   -1.8050    2.5148   -2.9386 H   0  0  0  0  0  0  0  0  0  0  0  0
    0.6552    2.3055   -1.5614 H   0  0  0  0  0  0  0  0  0  0  0  0
    3.9550    2.6578    0.6593 H   0  0  0  0  0  0  0  0  0  0  0  0
  1  2  1  0
  2  3  2  0
  3  4  1  0
  4  5  2  0
  5  6  1  0
  6  7  2  0
  7  8  1  0
  8  9  2  0
  9 10  1  0
 10 11  1  0
 11 12  2  0
 12 13  1  0
 13 14  2  0
 14 15  1  0
 15 16  1  0
 16 17  1  0
 17 18  2  0
 18 19  1  0
 19 20  2  0
 20 21  1  0
 21 22  1  0
 21 23  2  0
 15 24  1  0
 24 25  2  0
 25 26  1  0
 26 27  2  0
  9 28  1  0
 28 29  2  0
 29  2  1  0
 28  5  1  0
 27 11  1  0
 26 14  1  0
 23 17  1  0
  3 30  1  0
  4 31  1  0
  7 32  1  0
 10 33  1  0
 12 34  1  0
 13 35  1  0
 16 36  1  0
 16 37  1  0
 18 38  1  0
 19 39  1  0
 20 40  1  0
 23 41  1  0
 25 42  1  0
 27 43  1  0
 29 44  1  0
M  END
$$$$
[H]OC([H])([H])c1nc([H])c(-c2nc([H])c([H])c(-c3c([H])c4nc(N([H])C(=O)N([H])C([H])([H])C([H])([H])[H])sc4n(C([H])(C([H])([H])[H])C([H])([H])[H])c3=O)c2[H])c([H])c1[H]
     RDKit          3D

 57 60  0  0  0  0  0  0  0  0999 V2000
    9.2603    0.0886   -0.4431 C   0  0  0  0  0  0  0  0  0  0  0  0
    8.8707    0.9525   -1.6097 C   0  0  0  0  0  0  0  0  0  0  0  0
    7.6918    1.7480   -1.3405 N   0  0  0  0  0  0  0  0  0  0  0  0
    6.4383    1.1834   -1.0163 C   0  0  0  0  0  0  0  0  0  0  0  0
    6.3724   -0.0706   -0.9663 O   0  0  0  0  0  0  0  0  0  0  0  0
    5.3338    2.0042   -0.7660 N   0  0  0  0  0  0  0  0  0  0  0  0
    4.0866    1.3516   -0.4412 C   0  0  0  0  0  0  0  0  0  0  0  0
    2.9208    1.8996   -0.1686 N   0  0  0  0  0  0  0  0  0  0  0  0
    1.8964    1.1523    0.1036 C   0  0  0  0  0  0  0  0  0  0  0  0
    0.5790    1.5654    0.4170 C   0  0  0  0  0  0  0  0  0  0  0  0
   -0.4112    0.6572    0.6850 C   0  0  0  0  0  0  0  0  0  0  0  0
   -1.7670    1.1603    1.0020 C   0  0  0  0  0  0  0  0  0  0  0  0
   -1.8740    2.1901    1.9065 C   0  0  0  0  0  0  0  0  0  0  0  0
   -3.1150    2.6897    2.2278 C   0  0  0  0  0  0  0  0  0  0  0  0
   -4.2144    2.1508    1.6402 N   0  0  0  0  0  0  0  0  0  0  0  0
   -4.1442    1.1398    0.7487 C   0  0  0  0  0  0  0  0  0  0  0  0
   -2.9043    0.6461    0.4325 C   0  0  0  0  0  0  0  0  0  0  0  0
   -5.3974    0.6331    0.1749 C   0  0  0  0  0  0  0  0  0  0  0  0
   -6.6131    1.1918    0.5522 C   0  0  0  0  0  0  0  0  0  0  0  0
   -7.7758    0.7079    0.0076 C   0  0  0  0  0  0  0  0  0  0  0  0
   -7.7997   -0.3242   -0.9125 C   0  0  0  0  0  0  0  0  0  0  0  0
   -9.0813   -0.8208   -1.4800 C   0  0  0  0  0  0  0  0  0  0  0  0
   -9.5755   -1.8549   -0.6684 O   0  0  0  0  0  0  0  0  0  0  0  0
   -6.5992   -0.8294   -1.2438 N   0  0  0  0  0  0  0  0  0  0  0  0
   -5.4264   -0.3927   -0.7402 C   0  0  0  0  0  0  0  0  0  0  0  0
   -0.1659   -0.6973    0.6607 C   0  0  0  0  0  0  0  0  0  0  0  0
   -1.1048   -1.4783    0.9131 O   0  0  0  0  0  0  0  0  0  0  0  0
    1.0800   -1.1035    0.3647 N   0  0  0  0  0  0  0  0  0  0  0  0
    1.4367   -2.5012    0.3139 C   0  0  0  0  0  0  0  0  0  0  0  0
    0.3515   -3.3659   -0.2566 C   0  0  0  0  0  0  0  0  0  0  0  0
    1.8495   -2.9980    1.6863 C   0  0  0  0  0  0  0  0  0  0  0  0
    2.0775   -0.2070    0.0951 C   0  0  0  0  0  0  0  0  0  0  0  0
    3.7414   -0.3211   -0.3117 S   0  0  0  0  0  0  0  0  0  0  0  0
    8.7164   -0.8728   -0.5266 H   0  0  0  0  0  0  0  0  0  0  0  0
   10.3702   -0.1017   -0.4889 H   0  0  0  0  0  0  0  0  0  0  0  0
    9.0013    0.6190    0.5039 H   0  0  0  0  0  0  0  0  0  0  0  0
    9.6902    1.6175   -1.8860 H   0  0  0  0  0  0  0  0  0  0  0  0
    8.7105    0.2678   -2.4825 H   0  0  0  0  0  0  0  0  0  0  0  0
    7.7694    2.7853   -1.3874 H   0  0  0  0  0  0  0  0  0  0  0  0
    5.3328    3.0247   -0.7931 H   0  0  0  0  0  0  0  0  0  0  0  0
    0.3266    2.6172    0.4512 H   0  0  0  0  0  0  0  0  0  0  0  0
   -1.0125    2.6245    2.3778 H   0  0  0  0  0  0  0  0  0  0  0  0
   -3.1678    3.4989    2.9417 H   0  0  0  0  0  0  0  0  0  0  0  0
   -2.7888   -0.1453   -0.2624 H   0  0  0  0  0  0  0  0  0  0  0  0
   -6.5763    1.9972    1.2721 H   0  0  0  0  0  0  0  0  0  0  0  0
   -8.7292    1.1626    0.3182 H   0  0  0  0  0  0  0  0  0  0  0  0
   -9.8133    0.0189   -1.3827 H   0  0  0  0  0  0  0  0  0  0  0  0
   -8.9957   -1.1405   -2.5306 H   0  0  0  0  0  0  0  0  0  0  0  0
   -8.8127   -2.3620   -0.2809 H   0  0  0  0  0  0  0  0  0  0  0  0
   -4.4807   -0.8433   -1.0480 H   0  0  0  0  0  0  0  0  0  0  0  0
    2.3429   -2.6423   -0.3373 H   0  0  0  0  0  0  0  0  0  0  0  0
   -0.1951   -2.8324   -1.0553 H   0  0  0  0  0  0  0  0  0  0  0  0
   -0.3326   -3.7838    0.5217 H   0  0  0  0  0  0  0  0  0  0  0  0
    0.8260   -4.2506   -0.7301 H   0  0  0  0  0  0  0  0  0  0  0  0
    1.3241   -2.3611    2.4373 H   0  0  0  0  0  0  0  0  0  0  0  0
    2.9509   -2.9853    1.8224 H   0  0  0  0  0  0  0  0  0  0  0  0
    1.5257   -4.0603    1.8456 H   0  0  0  0  0  0  0  0  0  0  0  0
  1  2  1  0
  2  3  1  0
  3  4  1  0
  4  5  2  0
  4  6  1  0
  6  7  1  0
  7  8  2  0
  8  9  1  0
  9 10  1  0
 10 11  2  0
 11 12  1  0
 12 13  2  0
 13 14  1  0
 14 15  2  0
 15 16  1  0
 16 17  2  0
 16 18  1  0
 18 19  2  0
 19 20  1  0
 20 21  2  0
 21 22  1  0
 22 23  1  0
 21 24  1  0
 24 25  2  0
 11 26  1  0
 26 27  2  0
 26 28  1  0
 28 29  1  0
 29 30  1  0
 29 31  1  0
 28 32  1  0
 32 33  1  0
 33  7  1  0
 32  9  2  0
 17 12  1  0
 25 18  1  0
  1 34  1  0
  1 35  1  0
  1 36  1  0
  2 37  1  0
  2 38  1  0
  3 39  1  0
  6 40  1  0
 10 41  1  0
 13 42  1  0
 14 43  1  0
 17 44  1  0
 19 45  1  0
 20 46  1  0
 22 47  1  0
 22 48  1  0
 23 49  1  0
 25 50  1  0
 29 51  1  0
 30 52  1  0
 30 53  1  0
 30 54  1  0
 31 55  1  0
 31 56  1  0
 31 57  1  0
M  END
$$$$
[H]c1c([H])c([H])c(C([H])([H])C([H])([H])[C@@]([H])(C(=O)N([H])c2c([H])c([H])c([H])c(C(=O)N(C(=O)C([H])([H])[H])C([H])([H])C([H])([H])C([H])([H])C([H])([H])C([H])([H])[H])c2[H])N([H])C(=O)c2c([H])c([H])c([H])c(C(F)(F)F)c2[H])c(OC([H])([H])[H])c1[H]
     RDKit          3D

 80 82  0  0  0  0  0  0  0  0999 V2000
    8.5410    1.0140   -2.3447 C   0  0  0  0  0  0  0  0  0  0  0  0
    7.9187    0.6515   -0.9751 C   0  0  0  0  0  0  0  0  0  0  0  0
    8.3034   -0.7587   -0.7032 C   0  0  0  0  0  0  0  0  0  0  0  0
    7.9730   -1.4191    0.5284 C   0  0  0  0  0  0  0  0  0  0  0  0
    6.5414   -1.5065    1.0333 C   0  0  0  0  0  0  0  0  0  0  0  0
    5.9251   -0.2666    1.3681 N   0  0  0  0  0  0  0  0  0  0  0  0
    6.4727    0.3995    2.4775 C   0  0  0  0  0  0  0  0  0  0  0  0
    6.2204    1.7072    3.0055 C   0  0  0  0  0  0  0  0  0  0  0  0
    7.3960   -0.2933    3.1583 O   0  0  0  0  0  0  0  0  0  0  0  0
    4.6381    0.1987    1.0010 C   0  0  0  0  0  0  0  0  0  0  0  0
    4.4157    1.4472    1.1760 O   0  0  0  0  0  0  0  0  0  0  0  0
    3.5588   -0.5689    0.4623 C   0  0  0  0  0  0  0  0  0  0  0  0
    3.4995   -1.9290    0.3174 C   0  0  0  0  0  0  0  0  0  0  0  0
    2.4495   -2.5762   -0.2164 C   0  0  0  0  0  0  0  0  0  0  0  0
    1.3247   -1.8881   -0.6597 C   0  0  0  0  0  0  0  0  0  0  0  0
    1.3267   -0.4835   -0.5221 C   0  0  0  0  0  0  0  0  0  0  0  0
    0.0480    0.1381   -0.8770 N   0  0  0  0  0  0  0  0  0  0  0  0
   -1.1209   -0.4420   -0.3844 C   0  0  0  0  0  0  0  0  0  0  0  0
   -0.7859   -1.4742    0.4474 O   0  0  0  0  0  0  0  0  0  0  0  0
   -2.5085   -0.3275   -0.4865 C   0  0  2  0  0  0  0  0  0  0  0  0
   -3.3196    0.8672   -0.2113 C   0  0  0  0  0  0  0  0  0  0  0  0
   -3.3276    2.0746   -1.0838 C   0  0  0  0  0  0  0  0  0  0  0  0
   -4.2251    3.0940   -0.4168 C   0  0  0  0  0  0  0  0  0  0  0  0
   -4.7750    2.8531    0.8169 C   0  0  0  0  0  0  0  0  0  0  0  0
   -5.4558    3.7900    1.5689 C   0  0  0  0  0  0  0  0  0  0  0  0
   -5.5641    5.0360    1.0003 C   0  0  0  0  0  0  0  0  0  0  0  0
   -5.0119    5.3056   -0.2614 C   0  0  0  0  0  0  0  0  0  0  0  0
   -4.3469    4.3320   -0.9686 C   0  0  0  0  0  0  0  0  0  0  0  0
   -3.8299    4.5910   -2.2402 O   0  0  0  0  0  0  0  0  0  0  0  0
   -3.9682    5.9771   -2.7320 C   0  0  0  0  0  0  0  0  0  0  0  0
   -3.1974   -1.5088    0.1784 N   0  0  0  0  0  0  0  0  0  0  0  0
   -4.3724   -1.8444   -0.3636 C   0  0  0  0  0  0  0  0  0  0  0  0
   -4.7195   -1.0388   -1.4744 O   0  0  0  0  0  0  0  0  0  0  0  0
   -5.4375   -2.7536   -0.1943 C   0  0  0  0  0  0  0  0  0  0  0  0
   -6.7362   -2.4242   -0.6861 C   0  0  0  0  0  0  0  0  0  0  0  0
   -7.7830   -3.2895   -0.4403 C   0  0  0  0  0  0  0  0  0  0  0  0
   -7.6197   -4.4428    0.2545 C   0  0  0  0  0  0  0  0  0  0  0  0
   -6.3395   -4.7708    0.7398 C   0  0  0  0  0  0  0  0  0  0  0  0
   -5.2741   -3.9363    0.5140 C   0  0  0  0  0  0  0  0  0  0  0  0
   -6.1613   -6.0372    1.4724 C   0  0  0  0  0  0  0  0  0  0  0  0
   -6.8725   -7.0035    0.7818 F   0  0  0  0  0  0  0  0  0  0  0  0
   -4.8321   -6.4690    1.4761 F   0  0  0  0  0  0  0  0  0  0  0  0
   -6.6002   -5.8747    2.7504 F   0  0  0  0  0  0  0  0  0  0  0  0
    2.3712    0.1196   -0.0032 C   0  0  0  0  0  0  0  0  0  0  0  0
    9.6382    1.1943   -2.2042 H   0  0  0  0  0  0  0  0  0  0  0  0
    8.0383    1.9177   -2.6872 H   0  0  0  0  0  0  0  0  0  0  0  0
    8.3087    0.2113   -3.0514 H   0  0  0  0  0  0  0  0  0  0  0  0
    6.8428    0.8148   -1.1031 H   0  0  0  0  0  0  0  0  0  0  0  0
    8.4238    1.3171   -0.2495 H   0  0  0  0  0  0  0  0  0  0  0  0
    9.4672   -0.7413   -0.7576 H   0  0  0  0  0  0  0  0  0  0  0  0
    8.0636   -1.3739   -1.6323 H   0  0  0  0  0  0  0  0  0  0  0  0
    8.2191   -2.5473    0.3882 H   0  0  0  0  0  0  0  0  0  0  0  0
    8.6454   -1.1807    1.3922 H   0  0  0  0  0  0  0  0  0  0  0  0
    6.0067   -1.9638    0.1119 H   0  0  0  0  0  0  0  0  0  0  0  0
    6.4764   -2.2259    1.8096 H   0  0  0  0  0  0  0  0  0  0  0  0
    6.9264    1.9807    3.8357 H   0  0  0  0  0  0  0  0  0  0  0  0
    6.3627    2.5041    2.2194 H   0  0  0  0  0  0  0  0  0  0  0  0
    5.2052    1.8715    3.4059 H   0  0  0  0  0  0  0  0  0  0  0  0
    4.3055   -2.5718    0.7373 H   0  0  0  0  0  0  0  0  0  0  0  0
    2.4192   -3.7083   -0.3275 H   0  0  0  0  0  0  0  0  0  0  0  0
    0.4987   -2.3731   -1.1056 H   0  0  0  0  0  0  0  0  0  0  0  0
    0.0188    0.9938   -1.4534 H   0  0  0  0  0  0  0  0  0  0  0  0
   -2.8151   -0.5141   -1.6502 H   0  0  0  0  0  0  0  0  0  0  0  0
   -4.3760    0.5654    0.0234 H   0  0  0  0  0  0  0  0  0  0  0  0
   -2.9129    1.2982    0.8086 H   0  0  0  0  0  0  0  0  0  0  0  0
   -2.3558    2.5409   -1.2153 H   0  0  0  0  0  0  0  0  0  0  0  0
   -3.7479    1.7711   -2.0761 H   0  0  0  0  0  0  0  0  0  0  0  0
   -4.7366    1.8647    1.2847 H   0  0  0  0  0  0  0  0  0  0  0  0
   -5.8804    3.5701    2.5306 H   0  0  0  0  0  0  0  0  0  0  0  0
   -6.0924    5.8293    1.5378 H   0  0  0  0  0  0  0  0  0  0  0  0
   -5.1348    6.3332   -0.5786 H   0  0  0  0  0  0  0  0  0  0  0  0
   -3.1538    6.5648   -2.3027 H   0  0  0  0  0  0  0  0  0  0  0  0
   -4.9527    6.3725   -2.4480 H   0  0  0  0  0  0  0  0  0  0  0  0
   -3.8417    5.8742   -3.8043 H   0  0  0  0  0  0  0  0  0  0  0  0
   -2.6680   -1.8876    0.9651 H   0  0  0  0  0  0  0  0  0  0  0  0
   -6.8473   -1.5179   -1.2576 H   0  0  0  0  0  0  0  0  0  0  0  0
   -8.7634   -2.9705   -0.8592 H   0  0  0  0  0  0  0  0  0  0  0  0
   -8.4336   -5.1229    0.4511 H   0  0  0  0  0  0  0  0  0  0  0  0
   -4.2895   -4.1653    0.8672 H   0  0  0  0  0  0  0  0  0  0  0  0
    2.3960    1.2058    0.1118 H   0  0  0  0  0  0  0  0  0  0  0  0
  1  2  1  0
  2  3  1  0
  3  4  1  0
  4  5  1  0
  5  6  1  0
  6  7  1  0
  7  8  1  0
  7  9  2  0
  6 10  1  0
 10 11  2  0
 10 12  1  0
 12 13  2  0
 13 14  1  0
 14 15  2  0
 15 16  1  0
 16 17  1  0
 17 18  1  0
 18 19  2  0
 18 20  1  0
 20 21  1  0
 21 22  1  0
 22 23  1  0
 23 24  2  0
 24 25  1  0
 25 26  2  0
 26 27  1  0
 27 28  2  0
 28 29  1  0
 29 30  1  0
 20 31  1  0
 31 32  1  0
 32 33  2  0
 32 34  1  0
 34 35  2  0
 35 36  1  0
 36 37  2  0
 37 38  1  0
 38 39  2  0
 38 40  1  0
 40 41  1  0
 40 42  1  0
 40 43  1  0
 16 44  2  0
 44 12  1  0
 28 23  1  0
 39 34  1  0
  1 45  1  0
  1 46  1  0
  1 47  1  0
  2 48  1  0
  2 49  1  0
  3 50  1  0
  3 51  1  0
  4 52  1  0
  4 53  1  0
  5 54  1  0
  5 55  1  0
  8 56  1  0
  8 57  1  0
  8 58  1  0
 13 59  1  0
 14 60  1  0
 15 61  1  0
 17 62  1  0
 20 63  1  6
 21 64  1  0
 21 65  1  0
 22 66  1  0
 22 67  1  0
 24 68  1  0
 25 69  1  0
 26 70  1  0
 27 71  1  0
 30 72  1  0
 30 73  1  0
 30 74  1  0
 31 75  1  0
 35 76  1  0
 36 77  1  0
 37 78  1  0
 39 79  1  0
 44 80  1  0
M  END
$$$$
[H]Oc1c([H])c(C([H])([H])O[H])c(-c2c([H])c([H])c3c(-c4nc5c([H])c([H])c([H])c(-c6c([H])c(F)c([H])c([H])c6S(=O)(=O)C([H])([H])[H])c5n4[H])nn([H])c3c2[H])c([H])c1F
     RDKit          3D

 59 64  0  0  0  0  0  0  0  0999 V2000
    7.5687   -2.6952    0.2484 C   0  0  0  0  0  0  0  0  0  0  0  0
    6.2640   -1.7966   -0.6237 S   0  0  0  0  0  0  0  0  0  0  0  0
    6.6707   -1.8458   -2.0545 O   0  0  0  0  0  0  0  0  0  0  0  0
    4.9841   -2.5998   -0.4216 O   0  0  0  0  0  0  0  0  0  0  0  0
    6.1028   -0.2006    0.0491 C   0  0  0  0  0  0  0  0  0  0  0  0
    6.9643    0.1632    1.1103 C   0  0  0  0  0  0  0  0  0  0  0  0
    6.8682    1.3606    1.7530 C   0  0  0  0  0  0  0  0  0  0  0  0
    5.8823    2.2400    1.3369 C   0  0  0  0  0  0  0  0  0  0  0  0
    5.7199    3.4582    1.9337 F   0  0  0  0  0  0  0  0  0  0  0  0
    5.0385    1.8978    0.3043 C   0  0  0  0  0  0  0  0  0  0  0  0
    5.1464    0.6575   -0.3563 C   0  0  0  0  0  0  0  0  0  0  0  0
    4.2664    0.4233   -1.4688 C   0  0  0  0  0  0  0  0  0  0  0  0
    4.6762    0.3455   -2.7771 C   0  0  0  0  0  0  0  0  0  0  0  0
    3.7663    0.1791   -3.8152 C   0  0  0  0  0  0  0  0  0  0  0  0
    2.4312    0.0938   -3.5089 C   0  0  0  0  0  0  0  0  0  0  0  0
    2.0133    0.1746   -2.1793 C   0  0  0  0  0  0  0  0  0  0  0  0
    0.8061    0.1191   -1.6147 N   0  0  0  0  0  0  0  0  0  0  0  0
    0.8977    0.2404   -0.2885 C   0  0  0  0  0  0  0  0  0  0  0  0
    2.2013    0.3769   -0.0015 N   0  0  0  0  0  0  0  0  0  0  0  0
    2.9025    0.3386   -1.1456 C   0  0  0  0  0  0  0  0  0  0  0  0
   -0.2151    0.2252    0.6776 C   0  0  0  0  0  0  0  0  0  0  0  0
   -0.1160    0.3520    2.0116 N   0  0  0  0  0  0  0  0  0  0  0  0
   -1.3231    0.2607    2.5610 N   0  0  0  0  0  0  0  0  0  0  0  0
   -2.2652    0.0712    1.6206 C   0  0  0  0  0  0  0  0  0  0  0  0
   -3.6344   -0.0923    1.6602 C   0  0  0  0  0  0  0  0  0  0  0  0
   -4.3217   -0.2795    0.4915 C   0  0  0  0  0  0  0  0  0  0  0  0
   -3.6623   -0.3090   -0.7475 C   0  0  0  0  0  0  0  0  0  0  0  0
   -2.2955   -0.1418   -0.7302 C   0  0  0  0  0  0  0  0  0  0  0  0
   -1.5560    0.0490    0.4152 C   0  0  0  0  0  0  0  0  0  0  0  0
   -5.7713   -0.4688    0.3851 C   0  0  0  0  0  0  0  0  0  0  0  0
   -6.2233   -1.6751   -0.1677 C   0  0  0  0  0  0  0  0  0  0  0  0
   -7.5641   -1.8966   -0.2528 C   0  0  0  0  0  0  0  0  0  0  0  0
   -8.0227   -3.0533   -0.7827 F   0  0  0  0  0  0  0  0  0  0  0  0
   -8.4471   -0.9385    0.2034 C   0  0  0  0  0  0  0  0  0  0  0  0
   -9.8128   -1.2022    0.1004 O   0  0  0  0  0  0  0  0  0  0  0  0
   -7.9819    0.2377    0.7417 C   0  0  0  0  0  0  0  0  0  0  0  0
   -6.6222    0.4958    0.8423 C   0  0  0  0  0  0  0  0  0  0  0  0
   -6.1793    1.7998    1.4073 C   0  0  0  0  0  0  0  0  0  0  0  0
   -7.3299    2.5341    1.7534 O   0  0  0  0  0  0  0  0  0  0  0  0
    8.5457   -2.2280    0.0383 H   0  0  0  0  0  0  0  0  0  0  0  0
    7.5456   -3.7520   -0.0735 H   0  0  0  0  0  0  0  0  0  0  0  0
    7.3906   -2.6132    1.3357 H   0  0  0  0  0  0  0  0  0  0  0  0
    7.7267   -0.5417    1.4184 H   0  0  0  0  0  0  0  0  0  0  0  0
    7.5271    1.6487    2.5714 H   0  0  0  0  0  0  0  0  0  0  0  0
    4.2626    2.5688   -0.0389 H   0  0  0  0  0  0  0  0  0  0  0  0
    5.7105    0.4487   -3.0613 H   0  0  0  0  0  0  0  0  0  0  0  0
    4.0505    0.1113   -4.8538 H   0  0  0  0  0  0  0  0  0  0  0  0
    1.6890   -0.0360   -4.2888 H   0  0  0  0  0  0  0  0  0  0  0  0
    2.6261    0.4958    0.9442 H   0  0  0  0  0  0  0  0  0  0  0  0
   -1.5347    0.3250    3.5811 H   0  0  0  0  0  0  0  0  0  0  0  0
   -4.1783   -0.0982    2.5896 H   0  0  0  0  0  0  0  0  0  0  0  0
   -4.1829   -0.4524   -1.6813 H   0  0  0  0  0  0  0  0  0  0  0  0
   -1.7166   -0.1544   -1.6704 H   0  0  0  0  0  0  0  0  0  0  0  0
   -5.4714   -2.4035   -0.5144 H   0  0  0  0  0  0  0  0  0  0  0  0
  -10.4487   -0.5052    0.4301 H   0  0  0  0  0  0  0  0  0  0  0  0
   -8.6809    0.9728    1.0892 H   0  0  0  0  0  0  0  0  0  0  0  0
   -5.5882    2.3949    0.6751 H   0  0  0  0  0  0  0  0  0  0  0  0
   -5.5503    1.6953    2.3197 H   0  0  0  0  0  0  0  0  0  0  0  0
   -7.5495    3.2243    1.0610 H   0  0  0  0  0  0  0  0  0  0  0  0
  1  2  1  0
  2  3  2  0
  2  4  2  0
  2  5  1  0
  5  6  2  0
  6  7  1  0
  7  8  2  0
  8  9  1  0
  8 10  1  0
 10 11  2  0
 11 12  1  0
 12 13  2  0
 13 14  1  0
 14 15  2  0
 15 16  1  0
 16 17  1  0
 17 18  2  0
 18 19  1  0
 19 20  1  0
 18 21  1  0
 21 22  2  0
 22 23  1  0
 23 24  1  0
 24 25  2  0
 25 26  1  0
 26 27  2  0
 27 28  1  0
 28 29  2  0
 26 30  1  0
 30 31  2  0
 31 32  1  0
 32 33  1  0
 32 34  2  0
 34 35  1  0
 34 36  1  0
 36 37  2  0
 37 38  1  0
 38 39  1  0
 11  5  1  0
 20 12  1  0
 29 21  1  0
 37 30  1  0
 20 16  2  0
 29 24  1  0
  1 40  1  0
  1 41  1  0
  1 42  1  0
  6 43  1  0
  7 44  1  0
 10 45  1  0
 13 46  1  0
 14 47  1  0
 15 48  1  0
 19 49  1  0
 23 50  1  0
 25 51  1  0
 27 52  1  0
 28 53  1  0
 31 54  1  0
 35 55  1  0
 36 56  1  0
 38 57  1  0
 38 58  1  0
 39 59  1  0
M  END
$$$$
[H]c1nn2c(N([H])C3([H])C([H])([H])C3([H])[H])c([H])c(N([H])c3c([H])c([H])c4c(c3[H])O[C@]([H])(C([H])([H])[H])C(C([H])([H])[H])(C([H])([H])[H])O4)nc2c1C#N
     RDKit          3D

 51 55  0  0  0  0  0  0  0  0999 V2000
    5.2232   -2.1245    0.0040 C   0  0  0  0  0  0  0  0  0  0  0  0
    4.5270   -0.8808   -0.4717 C   0  0  1  0  0  0  0  0  0  0  0  0
    3.2248   -0.8328    0.1321 O   0  0  0  0  0  0  0  0  0  0  0  0
    2.4517    0.3075   -0.0372 C   0  0  0  0  0  0  0  0  0  0  0  0
    1.0665    0.3077    0.1520 C   0  0  0  0  0  0  0  0  0  0  0  0
    0.2886    1.4204   -0.0105 C   0  0  0  0  0  0  0  0  0  0  0  0
   -1.0956    1.4202    0.1609 N   0  0  0  0  0  0  0  0  0  0  0  0
   -1.9886    0.3412    0.2767 C   0  0  0  0  0  0  0  0  0  0  0  0
   -3.3552    0.5961    0.4731 C   0  0  0  0  0  0  0  0  0  0  0  0
   -4.3098   -0.3670    0.5855 C   0  0  0  0  0  0  0  0  0  0  0  0
   -5.6929   -0.1066    0.7755 N   0  0  0  0  0  0  0  0  0  0  0  0
   -6.1656    1.2487    0.8262 C   0  0  0  0  0  0  0  0  0  0  0  0
   -6.0485    2.0855   -0.3852 C   0  0  0  0  0  0  0  0  0  0  0  0
   -7.3987    1.5667   -0.0265 C   0  0  0  0  0  0  0  0  0  0  0  0
   -3.8848   -1.6703    0.4982 N   0  0  0  0  0  0  0  0  0  0  0  0
   -4.5742   -2.7875    0.5705 N   0  0  0  0  0  0  0  0  0  0  0  0
   -3.7528   -3.8656    0.4327 C   0  0  0  0  0  0  0  0  0  0  0  0
   -2.4934   -3.3307    0.2683 C   0  0  0  0  0  0  0  0  0  0  0  0
   -1.3112   -4.1227    0.0863 C   0  0  0  0  0  0  0  0  0  0  0  0
   -0.3549   -4.7633   -0.0575 N   0  0  0  0  0  0  0  0  0  0  0  0
   -2.5850   -1.9520    0.3107 C   0  0  0  0  0  0  0  0  0  0  0  0
   -1.6808   -0.9584    0.2057 N   0  0  0  0  0  0  0  0  0  0  0  0
    0.9762    2.5839   -0.3845 C   0  0  0  0  0  0  0  0  0  0  0  0
    2.3330    2.5999   -0.5734 C   0  0  0  0  0  0  0  0  0  0  0  0
    3.0922    1.4615   -0.4028 C   0  0  0  0  0  0  0  0  0  0  0  0
    4.4792    1.4706   -0.5944 O   0  0  0  0  0  0  0  0  0  0  0  0
    5.2377    0.3788   -0.0532 C   0  0  0  0  0  0  0  0  0  0  0  0
    6.6409    0.3876   -0.5619 C   0  0  0  0  0  0  0  0  0  0  0  0
    5.2080    0.5480    1.4536 C   0  0  0  0  0  0  0  0  0  0  0  0
    4.5613   -2.9851   -0.1717 H   0  0  0  0  0  0  0  0  0  0  0  0
    5.3652   -2.0237    1.0984 H   0  0  0  0  0  0  0  0  0  0  0  0
    6.1559   -2.2965   -0.5445 H   0  0  0  0  0  0  0  0  0  0  0  0
    4.4110   -0.8605   -1.5743 H   0  0  0  0  0  0  0  0  0  0  0  0
    0.6845   -0.6596    0.4487 H   0  0  0  0  0  0  0  0  0  0  0  0
   -1.5324    2.3958    0.2122 H   0  0  0  0  0  0  0  0  0  0  0  0
   -3.6518    1.6323    0.5445 H   0  0  0  0  0  0  0  0  0  0  0  0
   -6.3604   -0.8755    0.8774 H   0  0  0  0  0  0  0  0  0  0  0  0
   -6.1383    1.7947    1.7963 H   0  0  0  0  0  0  0  0  0  0  0  0
   -5.9062    3.1878   -0.3152 H   0  0  0  0  0  0  0  0  0  0  0  0
   -5.4969    1.6595   -1.2601 H   0  0  0  0  0  0  0  0  0  0  0  0
   -7.8225    0.7116   -0.5864 H   0  0  0  0  0  0  0  0  0  0  0  0
   -8.1354    2.2922    0.3873 H   0  0  0  0  0  0  0  0  0  0  0  0
   -4.0313   -4.9155    0.4491 H   0  0  0  0  0  0  0  0  0  0  0  0
    0.4002    3.4870   -0.5236 H   0  0  0  0  0  0  0  0  0  0  0  0
    2.8332    3.5338   -0.8666 H   0  0  0  0  0  0  0  0  0  0  0  0
    6.9921    1.4233   -0.7443 H   0  0  0  0  0  0  0  0  0  0  0  0
    6.7784   -0.2504   -1.4350 H   0  0  0  0  0  0  0  0  0  0  0  0
    7.2945   -0.0076    0.2572 H   0  0  0  0  0  0  0  0  0  0  0  0
    4.5252   -0.1999    1.9190 H   0  0  0  0  0  0  0  0  0  0  0  0
    4.8176    1.5509    1.7545 H   0  0  0  0  0  0  0  0  0  0  0  0
    6.1987    0.4432    1.9087 H   0  0  0  0  0  0  0  0  0  0  0  0
  1  2  1  0
  2  3  1  0
  3  4  1  0
  4  5  2  0
  5  6  1  0
  6  7  1  0
  7  8  1  0
  8  9  1  0
  9 10  2  0
 10 11  1  0
 11 12  1  0
 12 13  1  0
 13 14  1  0
 10 15  1  0
 15 16  1  0
 16 17  2  0
 17 18  1  0
 18 19  1  0
 19 20  3  0
 18 21  2  0
 21 22  1  0
  6 23  2  0
 23 24  1  0
 24 25  2  0
 25 26  1  0
 26 27  1  0
 27 28  1  0
 27 29  1  0
 27  2  1  0
 25  4  1  0
 22  8  2  0
 14 12  1  0
 21 15  1  0
  1 30  1  0
  1 31  1  0
  1 32  1  0
  2 33  1  6
  5 34  1  0
  7 35  1  0
  9 36  1  0
 11 37  1  0
 12 38  1  0
 13 39  1  0
 13 40  1  0
 14 41  1  0
 14 42  1  0
 17 43  1  0
 23 44  1  0
 24 45  1  0
 28 46  1  0
 28 47  1  0
 28 48  1  0
 29 49  1  0
 29 50  1  0
 29 51  1  0
M  END
$$$$
[H]c1nc(N([H])c2c([H])c([H])c([H])c3c2c([H])c([H])n3[H])nc(-c2c([H])c(C(=O)N([H])C([H])([H])C(=O)OC([H])([H])C([H])([H])[H])c([H])c([H])c2C([H])([H])[H])c1[H]
     RDKit          3D

 55 58  0  0  0  0  0  0  0  0999 V2000
   -5.3808   -1.5679    3.7297 C   0  0  0  0  0  0  0  0  0  0  0  0
   -6.4180   -2.3862    2.9782 C   0  0  0  0  0  0  0  0  0  0  0  0
   -5.8837   -3.0569    1.8718 O   0  0  0  0  0  0  0  0  0  0  0  0
   -5.2894   -2.3321    0.8435 C   0  0  0  0  0  0  0  0  0  0  0  0
   -5.2713   -1.0804    0.9815 O   0  0  0  0  0  0  0  0  0  0  0  0
   -4.7275   -3.0383   -0.3201 C   0  0  0  0  0  0  0  0  0  0  0  0
   -4.1165   -2.1645   -1.3023 N   0  0  0  0  0  0  0  0  0  0  0  0
   -3.0146   -1.3334   -1.0078 C   0  0  0  0  0  0  0  0  0  0  0  0
   -2.5560   -1.3759    0.1729 O   0  0  0  0  0  0  0  0  0  0  0  0
   -2.3663   -0.4376   -1.9450 C   0  0  0  0  0  0  0  0  0  0  0  0
   -2.9129   -0.2010   -3.2016 C   0  0  0  0  0  0  0  0  0  0  0  0
   -2.2904    0.6406   -4.0799 C   0  0  0  0  0  0  0  0  0  0  0  0
   -1.0876    1.2664   -3.6969 C   0  0  0  0  0  0  0  0  0  0  0  0
   -0.4629    2.0964   -4.7432 C   0  0  0  0  0  0  0  0  0  0  0  0
   -0.5321    1.0638   -2.4907 C   0  0  0  0  0  0  0  0  0  0  0  0
   -1.1920    0.1857   -1.5932 C   0  0  0  0  0  0  0  0  0  0  0  0
    0.7279    1.6273   -2.0161 C   0  0  0  0  0  0  0  0  0  0  0  0
    1.2227    2.8493   -2.3585 C   0  0  0  0  0  0  0  0  0  0  0  0
    2.4179    3.3066   -1.7688 C   0  0  0  0  0  0  0  0  0  0  0  0
    3.0323    2.5192   -0.8826 N   0  0  0  0  0  0  0  0  0  0  0  0
    2.5936    1.3226   -0.5124 C   0  0  0  0  0  0  0  0  0  0  0  0
    3.2248    0.4730    0.4222 N   0  0  0  0  0  0  0  0  0  0  0  0
    4.3981    0.7018    1.1271 C   0  0  0  0  0  0  0  0  0  0  0  0
    5.1744    1.8109    1.0431 C   0  0  0  0  0  0  0  0  0  0  0  0
    6.3628    1.9918    1.7855 C   0  0  0  0  0  0  0  0  0  0  0  0
    6.7661    1.0043    2.6396 C   0  0  0  0  0  0  0  0  0  0  0  0
    6.0106   -0.1370    2.7570 C   0  0  0  0  0  0  0  0  0  0  0  0
    6.1748   -1.2320    3.5026 N   0  0  0  0  0  0  0  0  0  0  0  0
    5.1734   -2.0933    3.2841 C   0  0  0  0  0  0  0  0  0  0  0  0
    4.3394   -1.5187    2.3603 C   0  0  0  0  0  0  0  0  0  0  0  0
    4.8636   -0.2892    2.0275 C   0  0  0  0  0  0  0  0  0  0  0  0
    1.4381    0.9053   -1.0978 N   0  0  0  0  0  0  0  0  0  0  0  0
   -5.4004   -0.5137    3.3774 H   0  0  0  0  0  0  0  0  0  0  0  0
   -5.7098   -1.5403    4.7877 H   0  0  0  0  0  0  0  0  0  0  0  0
   -4.3630   -1.9547    3.6004 H   0  0  0  0  0  0  0  0  0  0  0  0
   -7.2400   -1.6756    2.6795 H   0  0  0  0  0  0  0  0  0  0  0  0
   -6.9064   -3.0999    3.6781 H   0  0  0  0  0  0  0  0  0  0  0  0
   -5.4794   -3.7010   -0.7559 H   0  0  0  0  0  0  0  0  0  0  0  0
   -3.9223   -3.7187    0.0859 H   0  0  0  0  0  0  0  0  0  0  0  0
   -4.5041   -2.1480   -2.2712 H   0  0  0  0  0  0  0  0  0  0  0  0
   -3.8534   -0.7103   -3.4527 H   0  0  0  0  0  0  0  0  0  0  0  0
   -2.7073    0.8298   -5.0563 H   0  0  0  0  0  0  0  0  0  0  0  0
    0.6443    2.0244   -4.7794 H   0  0  0  0  0  0  0  0  0  0  0  0
   -0.7503    3.1488   -4.7353 H   0  0  0  0  0  0  0  0  0  0  0  0
   -0.7807    1.6315   -5.7490 H   0  0  0  0  0  0  0  0  0  0  0  0
   -0.7547    0.0063   -0.6082 H   0  0  0  0  0  0  0  0  0  0  0  0
    0.7378    3.5313   -3.0414 H   0  0  0  0  0  0  0  0  0  0  0  0
    2.8188    4.2825   -2.0401 H   0  0  0  0  0  0  0  0  0  0  0  0
    2.7351   -0.4705    0.6122 H   0  0  0  0  0  0  0  0  0  0  0  0
    4.9387    2.6428    0.3974 H   0  0  0  0  0  0  0  0  0  0  0  0
    6.9337    2.9020    1.6693 H   0  0  0  0  0  0  0  0  0  0  0  0
    7.6751    1.1176    3.2219 H   0  0  0  0  0  0  0  0  0  0  0  0
    6.9666   -1.3984    4.1620 H   0  0  0  0  0  0  0  0  0  0  0  0
    5.0703   -3.0619    3.7670 H   0  0  0  0  0  0  0  0  0  0  0  0
    3.4330   -1.9122    1.9408 H   0  0  0  0  0  0  0  0  0  0  0  0
  1  2  1  0
  2  3  1  0
  3  4  1  0
  4  5  2  0
  4  6  1  0
  6  7  1  0
  7  8  1  0
  8  9  2  0
  8 10  1  0
 10 11  2  0
 11 12  1  0
 12 13  2  0
 13 14  1  0
 13 15  1  0
 15 16  2  0
 15 17  1  0
 17 18  2  0
 18 19  1  0
 19 20  2  0
 20 21  1  0
 21 22  1  0
 22 23  1  0
 23 24  2  0
 24 25  1  0
 25 26  2  0
 26 27  1  0
 27 28  1  0
 28 29  1  0
 29 30  2  0
 30 31  1  0
 21 32  2  0
 16 10  1  0
 32 17  1  0
 31 23  1  0
 31 27  2  0
  1 33  1  0
  1 34  1  0
  1 35  1  0
  2 36  1  0
  2 37  1  0
  6 38  1  0
  6 39  1  0
  7 40  1  0
 11 41  1  0
 12 42  1  0
 14 43  1  0
 14 44  1  0
 14 45  1  0
 16 46  1  0
 18 47  1  0
 19 48  1  0
 22 49  1  0
 24 50  1  0
 25 51  1  0
 26 52  1  0
 28 53  1  0
 29 54  1  0
 30 55  1  0
M  END
$$$$
[H]c1c([H])c([H])c(C([H])([H])N2C([H])([H])C([H])([H])C([H])(Oc3c([H])c([H])c(Cl)c(Cl)c3[H])C([H])([H])C2([H])[H])c(C([H])([H])[H])c1[H]
     RDKit          3D

 44 46  0  0  0  0  0  0  0  0999 V2000
    4.9563   -0.9924   -1.1564 C   0  0  0  0  0  0  0  0  0  0  0  0
    4.4963    0.0411   -0.1977 C   0  0  0  0  0  0  0  0  0  0  0  0
    5.4103    0.9737    0.2094 C   0  0  0  0  0  0  0  0  0  0  0  0
    5.0854    1.9769    1.0983 C   0  0  0  0  0  0  0  0  0  0  0  0
    3.8038    2.0472    1.5950 C   0  0  0  0  0  0  0  0  0  0  0  0
    2.8808    1.0847    1.1680 C   0  0  0  0  0  0  0  0  0  0  0  0
    3.1851    0.0804    0.2848 C   0  0  0  0  0  0  0  0  0  0  0  0
    2.2629   -0.9519   -0.1739 C   0  0  0  0  0  0  0  0  0  0  0  0
    0.9063   -0.8620    0.3225 N   0  0  0  0  0  0  0  0  0  0  0  0
    0.2429   -2.0614   -0.1781 C   0  0  0  0  0  0  0  0  0  0  0  0
   -1.2441   -2.0255    0.0398 C   0  0  0  0  0  0  0  0  0  0  0  0
   -1.8713   -0.7892   -0.5836 C   0  0  0  0  0  0  0  0  0  0  0  0
   -0.7668    0.0026   -1.2655 C   0  0  0  0  0  0  0  0  0  0  0  0
    0.2612    0.3303   -0.2171 C   0  0  0  0  0  0  0  0  0  0  0  0
   -2.4666   -0.0554    0.4314 O   0  0  0  0  0  0  0  0  0  0  0  0
   -3.7904    0.3213    0.5070 C   0  0  0  0  0  0  0  0  0  0  0  0
   -4.1975    1.0655    1.6232 C   0  0  0  0  0  0  0  0  0  0  0  0
   -5.4940    1.4688    1.7570 C   0  0  0  0  0  0  0  0  0  0  0  0
   -6.4338    1.1496    0.7904 C   0  0  0  0  0  0  0  0  0  0  0  0
   -8.0860    1.7044    1.0320 Cl  0  0  0  0  0  0  0  0  0  0  0  0
   -6.0762    0.4216   -0.3194 C   0  0  0  0  0  0  0  0  0  0  0  0
   -7.2672    0.0220   -1.5360 Cl  0  0  0  0  0  0  0  0  0  0  0  0
   -4.7530    0.0250   -0.4299 C   0  0  0  0  0  0  0  0  0  0  0  0
    5.6412   -0.4642   -1.8837 H   0  0  0  0  0  0  0  0  0  0  0  0
    5.5865   -1.7287   -0.6248 H   0  0  0  0  0  0  0  0  0  0  0  0
    4.1627   -1.4332   -1.7608 H   0  0  0  0  0  0  0  0  0  0  0  0
    6.4494    0.9589   -0.1603 H   0  0  0  0  0  0  0  0  0  0  0  0
    5.8095    2.7108    1.4168 H   0  0  0  0  0  0  0  0  0  0  0  0
    3.5253    2.8153    2.2859 H   0  0  0  0  0  0  0  0  0  0  0  0
    1.9096    1.1811    1.5905 H   0  0  0  0  0  0  0  0  0  0  0  0
    2.2467   -0.9150   -1.2996 H   0  0  0  0  0  0  0  0  0  0  0  0
    2.7214   -1.9448    0.1099 H   0  0  0  0  0  0  0  0  0  0  0  0
    0.6538   -2.9130    0.4004 H   0  0  0  0  0  0  0  0  0  0  0  0
    0.5148   -2.2279   -1.2391 H   0  0  0  0  0  0  0  0  0  0  0  0
   -1.6736   -2.8980   -0.4928 H   0  0  0  0  0  0  0  0  0  0  0  0
   -1.4620   -2.1371    1.1047 H   0  0  0  0  0  0  0  0  0  0  0  0
   -2.6126   -1.0480   -1.3535 H   0  0  0  0  0  0  0  0  0  0  0  0
   -1.1800    0.9197   -1.6796 H   0  0  0  0  0  0  0  0  0  0  0  0
   -0.3590   -0.5950   -2.0933 H   0  0  0  0  0  0  0  0  0  0  0  0
   -0.2367    0.9360    0.5524 H   0  0  0  0  0  0  0  0  0  0  0  0
    1.0048    0.9988   -0.7249 H   0  0  0  0  0  0  0  0  0  0  0  0
   -3.4445    1.3059    2.3710 H   0  0  0  0  0  0  0  0  0  0  0  0
   -5.8083    2.0540    2.6373 H   0  0  0  0  0  0  0  0  0  0  0  0
   -4.4932   -0.5527   -1.3210 H   0  0  0  0  0  0  0  0  0  0  0  0
  1  2  1  0
  2  3  2  0
  3  4  1  0
  4  5  2  0
  5  6  1  0
  6  7  2  0
  7  8  1  0
  8  9  1  0
  9 10  1  0
 10 11  1  0
 11 12  1  0
 12 13  1  0
 13 14  1  0
 12 15  1  0
 15 16  1  0
 16 17  2  0
 17 18  1  0
 18 19  2  0
 19 20  1  0
 19 21  1  0
 21 22  1  0
 21 23  2  0
  7  2  1  0
 14  9  1  0
 23 16  1  0
  1 24  1  0
  1 25  1  0
  1 26  1  0
  3 27  1  0
  4 28  1  0
  5 29  1  0
  6 30  1  0
  8 31  1  0
  8 32  1  0
 10 33  1  0
 10 34  1  0
 11 35  1  0
 11 36  1  0
 12 37  1  0
 13 38  1  0
 13 39  1  0
 14 40  1  0
 14 41  1  0
 17 42  1  0
 18 43  1  0
 23 44  1  0
M  END
$$$$
[H]OC(=O)C([H])([H])c1nc(Cl)c(-c2c(-c3c([H])c([H])c(C([H])([H])N4C([H])([H])C([H])([H])OC([H])([H])C4([H])[H])c([H])c3[H])sc3c2C([H])([H])N(C(=O)C([H])([H])C#N)C([H])([H])C3([H])[H])s1
     RDKit          3D

 62 66  0  0  0  0  0  0  0  0999 V2000
   -2.2153    5.8123   -0.1537 O   0  0  0  0  0  0  0  0  0  0  0  0
   -3.1493    5.7141    0.8616 C   0  0  0  0  0  0  0  0  0  0  0  0
   -3.9610    6.6608    1.0185 O   0  0  0  0  0  0  0  0  0  0  0  0
   -3.1752    4.5360    1.7039 C   0  0  0  0  0  0  0  0  0  0  0  0
   -2.7266    3.3438    0.8873 C   0  0  0  0  0  0  0  0  0  0  0  0
   -2.1387    3.2803   -0.2660 N   0  0  0  0  0  0  0  0  0  0  0  0
   -1.7890    2.1260   -0.7735 C   0  0  0  0  0  0  0  0  0  0  0  0
   -1.0169    2.0242   -2.3753 Cl  0  0  0  0  0  0  0  0  0  0  0  0
   -2.0617    1.0101   -0.0539 C   0  0  0  0  0  0  0  0  0  0  0  0
   -2.8150    1.6747    1.3316 S   0  0  0  0  0  0  0  0  0  0  0  0
   -1.7833   -0.4296   -0.3402 C   0  0  0  0  0  0  0  0  0  0  0  0
   -2.7252   -1.3619   -0.6149 C   0  0  0  0  0  0  0  0  0  0  0  0
   -4.2295   -1.1321   -0.7264 C   0  0  0  0  0  0  0  0  0  0  0  0
   -4.9106   -2.2370   -0.1455 N   0  0  0  0  0  0  0  0  0  0  0  0
   -4.5487   -3.6365   -0.4310 C   0  0  0  0  0  0  0  0  0  0  0  0
   -3.2727   -3.7834   -1.1576 C   0  0  0  0  0  0  0  0  0  0  0  0
   -2.3404   -2.6364   -0.8395 C   0  0  0  0  0  0  0  0  0  0  0  0
   -0.6325   -2.5348   -0.6649 S   0  0  0  0  0  0  0  0  0  0  0  0
   -0.4909   -0.8613   -0.3120 C   0  0  0  0  0  0  0  0  0  0  0  0
    0.8032   -0.2213   -0.1083 C   0  0  0  0  0  0  0  0  0  0  0  0
    1.7660   -0.3776   -1.1235 C   0  0  0  0  0  0  0  0  0  0  0  0
    2.9939    0.1576   -1.0562 C   0  0  0  0  0  0  0  0  0  0  0  0
    3.3726    0.9151    0.0624 C   0  0  0  0  0  0  0  0  0  0  0  0
    4.7441    1.4554    0.0120 C   0  0  0  0  0  0  0  0  0  0  0  0
    5.6752    0.4393   -0.4432 N   0  0  0  0  0  0  0  0  0  0  0  0
    6.9852    0.9818   -0.7764 C   0  0  0  0  0  0  0  0  0  0  0  0
    7.7312   -0.1408   -1.5436 C   0  0  0  0  0  0  0  0  0  0  0  0
    7.8164   -1.2602   -0.7580 O   0  0  0  0  0  0  0  0  0  0  0  0
    7.1908   -1.1853    0.4673 C   0  0  0  0  0  0  0  0  0  0  0  0
    5.7793   -0.6718    0.4547 C   0  0  0  0  0  0  0  0  0  0  0  0
    2.4704    1.0812    1.0522 C   0  0  0  0  0  0  0  0  0  0  0  0
    1.1819    0.5209    0.9817 C   0  0  0  0  0  0  0  0  0  0  0  0
   -5.9909   -2.0390    0.7247 C   0  0  0  0  0  0  0  0  0  0  0  0
   -6.3320   -0.8184    0.9570 O   0  0  0  0  0  0  0  0  0  0  0  0
   -6.7692   -3.0791    1.4031 C   0  0  0  0  0  0  0  0  0  0  0  0
   -7.6624   -3.7119    0.4188 C   0  0  0  0  0  0  0  0  0  0  0  0
   -8.3815   -4.2065   -0.3570 N   0  0  0  0  0  0  0  0  0  0  0  0
   -2.3912    6.3369   -1.0059 H   0  0  0  0  0  0  0  0  0  0  0  0
   -2.6430    4.5673    2.6444 H   0  0  0  0  0  0  0  0  0  0  0  0
   -4.2866    4.3295    1.9152 H   0  0  0  0  0  0  0  0  0  0  0  0
   -4.5332   -0.1975   -0.2224 H   0  0  0  0  0  0  0  0  0  0  0  0
   -4.4411   -1.0820   -1.8204 H   0  0  0  0  0  0  0  0  0  0  0  0
   -4.5285   -4.1915    0.5362 H   0  0  0  0  0  0  0  0  0  0  0  0
   -5.3495   -4.1125   -1.0514 H   0  0  0  0  0  0  0  0  0  0  0  0
   -2.7229   -4.6788   -0.7237 H   0  0  0  0  0  0  0  0  0  0  0  0
   -3.3309   -3.9104   -2.2350 H   0  0  0  0  0  0  0  0  0  0  0  0
    1.4429   -0.9818   -1.9818 H   0  0  0  0  0  0  0  0  0  0  0  0
    3.6811   -0.0056   -1.8883 H   0  0  0  0  0  0  0  0  0  0  0  0
    5.0951    1.8039    1.0114 H   0  0  0  0  0  0  0  0  0  0  0  0
    4.8795    2.3201   -0.6629 H   0  0  0  0  0  0  0  0  0  0  0  0
    6.9162    1.8072   -1.5012 H   0  0  0  0  0  0  0  0  0  0  0  0
    7.5875    1.2355    0.0976 H   0  0  0  0  0  0  0  0  0  0  0  0
    7.1442   -0.4047   -2.4631 H   0  0  0  0  0  0  0  0  0  0  0  0
    8.6865    0.2861   -1.8722 H   0  0  0  0  0  0  0  0  0  0  0  0
    7.2494   -2.1926    0.9653 H   0  0  0  0  0  0  0  0  0  0  0  0
    7.8234   -0.4864    1.0842 H   0  0  0  0  0  0  0  0  0  0  0  0
    5.5524   -0.3057    1.4850 H   0  0  0  0  0  0  0  0  0  0  0  0
    5.0493   -1.4687    0.2533 H   0  0  0  0  0  0  0  0  0  0  0  0
    2.7665    1.6729    1.9265 H   0  0  0  0  0  0  0  0  0  0  0  0
    0.4802    0.6737    1.7947 H   0  0  0  0  0  0  0  0  0  0  0  0
   -7.4264   -2.5959    2.1741 H   0  0  0  0  0  0  0  0  0  0  0  0
   -6.0924   -3.8274    1.8919 H   0  0  0  0  0  0  0  0  0  0  0  0
  1  2  1  0
  2  3  2  0
  2  4  1  0
  4  5  1  0
  5  6  2  0
  6  7  1  0
  7  8  1  0
  7  9  2  0
  9 10  1  0
  9 11  1  0
 11 12  1  0
 12 13  1  0
 13 14  1  0
 14 15  1  0
 15 16  1  0
 16 17  1  0
 17 18  1  0
 18 19  1  0
 19 20  1  0
 20 21  2  0
 21 22  1  0
 22 23  2  0
 23 24  1  0
 24 25  1  0
 25 26  1  0
 26 27  1  0
 27 28  1  0
 28 29  1  0
 29 30  1  0
 23 31  1  0
 31 32  2  0
 14 33  1  0
 33 34  2  0
 33 35  1  0
 35 36  1  0
 36 37  3  0
 10  5  1  0
 19 11  2  0
 32 20  1  0
 17 12  2  0
 30 25  1  0
  1 38  1  0
  4 39  1  0
  4 40  1  0
 13 41  1  0
 13 42  1  0
 15 43  1  0
 15 44  1  0
 16 45  1  0
 16 46  1  0
 21 47  1  0
 22 48  1  0
 24 49  1  0
 24 50  1  0
 26 51  1  0
 26 52  1  0
 27 53  1  0
 27 54  1  0
 29 55  1  0
 29 56  1  0
 30 57  1  0
 30 58  1  0
 31 59  1  0
 32 60  1  0
 35 61  1  0
 35 62  1  0
M  END
$$$$
[H]OC(=O)c1c([H])c([H])c([H])c(N([H])[C@]([H])(C(=O)N([H])c2nc([H])c3c(n2)C([H])([H])N(c2c([H])c([H])c([H])c([H])c2[H])C([H])([H])C3([H])[H])C([H])([H])[H])c1[H]
     RDKit          3D

 54 57  0  0  0  0  0  0  0  0999 V2000
    3.4215    0.7674   -2.2093 C   0  0  0  0  0  0  0  0  0  0  0  0
    2.9225    1.0645   -0.7285 C   0  0  2  0  0  0  0  0  0  0  0  0
    3.8100    0.2396    0.0880 N   0  0  0  0  0  0  0  0  0  0  0  0
    5.1208    0.6419    0.3206 C   0  0  0  0  0  0  0  0  0  0  0  0
    5.4653    1.9748    0.3343 C   0  0  0  0  0  0  0  0  0  0  0  0
    6.7983    2.3574    0.5412 C   0  0  0  0  0  0  0  0  0  0  0  0
    7.7614    1.4190    0.7247 C   0  0  0  0  0  0  0  0  0  0  0  0
    7.4270    0.0744    0.7006 C   0  0  0  0  0  0  0  0  0  0  0  0
    6.1263   -0.3070    0.5048 C   0  0  0  0  0  0  0  0  0  0  0  0
    8.4207   -0.9223    0.8433 C   0  0  0  0  0  0  0  0  0  0  0  0
    8.1323   -2.2806    0.8837 O   0  0  0  0  0  0  0  0  0  0  0  0
    9.6485   -0.5851    0.9396 O   0  0  0  0  0  0  0  0  0  0  0  0
    1.5469    0.5918   -0.6340 C   0  0  0  0  0  0  0  0  0  0  0  0
    1.0483    0.0254   -1.7253 O   0  0  0  0  0  0  0  0  0  0  0  0
    0.6472    0.6412    0.4758 N   0  0  0  0  0  0  0  0  0  0  0  0
   -0.6288    0.0037    0.3003 C   0  0  0  0  0  0  0  0  0  0  0  0
   -0.8716   -0.5351   -0.8719 N   0  0  0  0  0  0  0  0  0  0  0  0
   -1.9309   -1.2319   -1.2431 C   0  0  0  0  0  0  0  0  0  0  0  0
   -2.9084   -1.4255   -0.2661 C   0  0  0  0  0  0  0  0  0  0  0  0
   -4.0550   -2.2239   -0.7124 C   0  0  0  0  0  0  0  0  0  0  0  0
   -5.0058   -2.4476    0.4909 C   0  0  0  0  0  0  0  0  0  0  0  0
   -4.8960   -1.1625    1.1465 N   0  0  0  0  0  0  0  0  0  0  0  0
   -3.7673   -1.0360    2.0287 C   0  0  0  0  0  0  0  0  0  0  0  0
   -2.6558   -0.8646    0.9558 C   0  0  0  0  0  0  0  0  0  0  0  0
   -1.5591   -0.1624    1.2600 N   0  0  0  0  0  0  0  0  0  0  0  0
   -5.7717   -0.1220    0.7878 C   0  0  0  0  0  0  0  0  0  0  0  0
   -5.3979    1.1991    0.9788 C   0  0  0  0  0  0  0  0  0  0  0  0
   -6.2135    2.2153    0.5499 C   0  0  0  0  0  0  0  0  0  0  0  0
   -7.4354    1.9499   -0.0833 C   0  0  0  0  0  0  0  0  0  0  0  0
   -7.7970    0.6395   -0.2666 C   0  0  0  0  0  0  0  0  0  0  0  0
   -6.9645   -0.3739    0.1705 C   0  0  0  0  0  0  0  0  0  0  0  0
    3.1301   -0.2983   -2.4160 H   0  0  0  0  0  0  0  0  0  0  0  0
    2.9956    1.5110   -2.8215 H   0  0  0  0  0  0  0  0  0  0  0  0
    4.5055    0.8053   -2.1332 H   0  0  0  0  0  0  0  0  0  0  0  0
    3.0624    2.0917   -0.5667 H   0  0  0  0  0  0  0  0  0  0  0  0
    3.5007   -0.6620    0.4870 H   0  0  0  0  0  0  0  0  0  0  0  0
    4.7527    2.7593    0.1985 H   0  0  0  0  0  0  0  0  0  0  0  0
    7.0594    3.4259    0.5430 H   0  0  0  0  0  0  0  0  0  0  0  0
    8.7925    1.7223    0.8891 H   0  0  0  0  0  0  0  0  0  0  0  0
    5.8226   -1.3484    0.4953 H   0  0  0  0  0  0  0  0  0  0  0  0
    7.7580   -2.7789    0.0722 H   0  0  0  0  0  0  0  0  0  0  0  0
    0.8936    1.0442    1.3519 H   0  0  0  0  0  0  0  0  0  0  0  0
   -2.0625   -1.6415   -2.2539 H   0  0  0  0  0  0  0  0  0  0  0  0
   -3.7430   -3.2020   -1.0624 H   0  0  0  0  0  0  0  0  0  0  0  0
   -4.5860   -1.6683   -1.4712 H   0  0  0  0  0  0  0  0  0  0  0  0
   -5.9769   -2.7826    0.2016 H   0  0  0  0  0  0  0  0  0  0  0  0
   -4.4893   -3.2534    1.0655 H   0  0  0  0  0  0  0  0  0  0  0  0
   -3.7512   -0.2451    2.7376 H   0  0  0  0  0  0  0  0  0  0  0  0
   -3.5343   -2.0231    2.4746 H   0  0  0  0  0  0  0  0  0  0  0  0
   -4.4964    1.4258    1.4490 H   0  0  0  0  0  0  0  0  0  0  0  0
   -5.9701    3.2741    0.6577 H   0  0  0  0  0  0  0  0  0  0  0  0
   -8.0688    2.7111   -0.4222 H   0  0  0  0  0  0  0  0  0  0  0  0
   -8.7244    0.4040   -0.7414 H   0  0  0  0  0  0  0  0  0  0  0  0
   -7.3083   -1.3955   -0.0049 H   0  0  0  0  0  0  0  0  0  0  0  0
  1  2  1  0
  2  3  1  0
  3  4  1  0
  4  5  2  0
  5  6  1  0
  6  7  2  0
  7  8  1  0
  8  9  2  0
  8 10  1  0
 10 11  1  0
 10 12  2  0
  2 13  1  0
 13 14  2  0
 13 15  1  0
 15 16  1  0
 16 17  2  0
 17 18  1  0
 18 19  2  0
 19 20  1  0
 20 21  1  0
 21 22  1  0
 22 23  1  0
 23 24  1  0
 24 25  2  0
 22 26  1  0
 26 27  2  0
 27 28  1  0
 28 29  2  0
 29 30  1  0
 30 31  2  0
  9  4  1  0
 25 16  1  0
 31 26  1  0
 24 19  1  0
  1 32  1  0
  1 33  1  0
  1 34  1  0
  2 35  1  1
  3 36  1  0
  5 37  1  0
  6 38  1  0
  7 39  1  0
  9 40  1  0
 11 41  1  0
 15 42  1  0
 18 43  1  0
 20 44  1  0
 20 45  1  0
 21 46  1  0
 21 47  1  0
 23 48  1  0
 23 49  1  0
 27 50  1  0
 28 51  1  0
 29 52  1  0
 30 53  1  0
 31 54  1  0
M  END
$$$$
[H]OC(c1c([H])c([H])c2c(c1[H])N([H])C(N1C([H])([H])C([H])([H])N(C([H])([H])C([H])([H])OC([H])([H])[H])C([H])([H])C1([H])[H])=c1c([H])c(Cl)c([H])c([H])c1=N2)(C(F)(F)F)C(F)(F)F
     RDKit          3D

 59 62  0  0  0  0  0  0  0  0999 V2000
    6.6178    2.3195    0.2644 C   0  0  0  0  0  0  0  0  0  0  0  0
    6.0643    1.7740   -0.8808 O   0  0  0  0  0  0  0  0  0  0  0  0
    6.0453    0.3993   -0.7785 C   0  0  0  0  0  0  0  0  0  0  0  0
    5.2297   -0.0372    0.3759 C   0  0  0  0  0  0  0  0  0  0  0  0
    3.8548    0.4462    0.2402 N   0  0  0  0  0  0  0  0  0  0  0  0
    3.1684   -0.0636    1.3899 C   0  0  0  0  0  0  0  0  0  0  0  0
    1.7321   -0.3070    1.2415 C   0  0  0  0  0  0  0  0  0  0  0  0
    1.1802   -0.3894   -0.0651 N   0  0  0  0  0  0  0  0  0  0  0  0
    1.8737    0.0838   -1.2190 C   0  0  0  0  0  0  0  0  0  0  0  0
    3.3559    0.0595   -1.0138 C   0  0  0  0  0  0  0  0  0  0  0  0
   -0.1218   -0.8994   -0.2030 C   0  0  0  0  0  0  0  0  0  0  0  0
   -0.3015   -2.1714   -0.4118 C   0  0  0  0  0  0  0  0  0  0  0  0
    0.8745   -2.8628   -0.4734 C   0  0  0  0  0  0  0  0  0  0  0  0
    0.9511   -4.2451   -0.7164 C   0  0  0  0  0  0  0  0  0  0  0  0
    2.5213   -5.0482   -0.7826 Cl  0  0  0  0  0  0  0  0  0  0  0  0
   -0.2135   -4.9474   -0.9025 C   0  0  0  0  0  0  0  0  0  0  0  0
   -1.3983   -4.2455   -0.8366 C   0  0  0  0  0  0  0  0  0  0  0  0
   -1.4760   -2.9017   -0.5994 C   0  0  0  0  0  0  0  0  0  0  0  0
   -2.6940   -2.4705   -0.5130 N   0  0  0  0  0  0  0  0  0  0  0  0
   -3.2590   -1.2117   -0.2198 C   0  0  0  0  0  0  0  0  0  0  0  0
   -4.6160   -1.2010   -0.0998 C   0  0  0  0  0  0  0  0  0  0  0  0
   -5.2535   -0.0175    0.2032 C   0  0  0  0  0  0  0  0  0  0  0  0
   -4.5712    1.1874    0.3960 C   0  0  0  0  0  0  0  0  0  0  0  0
   -3.2135    1.1237    0.2641 C   0  0  0  0  0  0  0  0  0  0  0  0
   -2.5332   -0.0517   -0.0403 C   0  0  0  0  0  0  0  0  0  0  0  0
   -1.1226    0.1421   -0.1061 N   0  0  0  0  0  0  0  0  0  0  0  0
   -5.3844    2.3516    0.7194 C   0  0  0  0  0  0  0  0  0  0  0  0
   -6.4597    1.9144    1.5253 O   0  0  0  0  0  0  0  0  0  0  0  0
   -6.0231    2.8321   -0.5837 C   0  0  0  0  0  0  0  0  0  0  0  0
   -5.0224    3.1747   -1.5071 F   0  0  0  0  0  0  0  0  0  0  0  0
   -6.7972    3.9512   -0.4103 F   0  0  0  0  0  0  0  0  0  0  0  0
   -6.7555    1.8366   -1.1985 F   0  0  0  0  0  0  0  0  0  0  0  0
   -4.7270    3.4685    1.4371 C   0  0  0  0  0  0  0  0  0  0  0  0
   -5.7156    4.4531    1.6483 F   0  0  0  0  0  0  0  0  0  0  0  0
   -4.2843    3.0975    2.6652 F   0  0  0  0  0  0  0  0  0  0  0  0
   -3.7748    4.1449    0.6841 F   0  0  0  0  0  0  0  0  0  0  0  0
    6.6364    3.4381    0.1379 H   0  0  0  0  0  0  0  0  0  0  0  0
    5.9994    2.0990    1.1566 H   0  0  0  0  0  0  0  0  0  0  0  0
    7.6559    1.9564    0.4046 H   0  0  0  0  0  0  0  0  0  0  0  0
    7.0933   -0.0010   -0.6471 H   0  0  0  0  0  0  0  0  0  0  0  0
    5.6511   -0.1111   -1.6972 H   0  0  0  0  0  0  0  0  0  0  0  0
    5.1802   -1.1733    0.3118 H   0  0  0  0  0  0  0  0  0  0  0  0
    5.6504    0.1495    1.3784 H   0  0  0  0  0  0  0  0  0  0  0  0
    3.6920   -0.9723    1.8166 H   0  0  0  0  0  0  0  0  0  0  0  0
    3.3204    0.7048    2.2044 H   0  0  0  0  0  0  0  0  0  0  0  0
    1.0963    0.4446    1.8263 H   0  0  0  0  0  0  0  0  0  0  0  0
    1.4694   -1.2780    1.7680 H   0  0  0  0  0  0  0  0  0  0  0  0
    1.4997    1.1229   -1.4415 H   0  0  0  0  0  0  0  0  0  0  0  0
    1.6301   -0.5708   -2.0952 H   0  0  0  0  0  0  0  0  0  0  0  0
    3.6603   -1.0182   -1.1786 H   0  0  0  0  0  0  0  0  0  0  0  0
    3.8392    0.7099   -1.7901 H   0  0  0  0  0  0  0  0  0  0  0  0
    1.8246   -2.3834   -0.3240 H   0  0  0  0  0  0  0  0  0  0  0  0
   -0.2067   -6.0124   -1.0935 H   0  0  0  0  0  0  0  0  0  0  0  0
   -2.3147   -4.8203   -0.9914 H   0  0  0  0  0  0  0  0  0  0  0  0
   -5.1322   -2.1328   -0.2514 H   0  0  0  0  0  0  0  0  0  0  0  0
   -6.3498   -0.0455    0.3008 H   0  0  0  0  0  0  0  0  0  0  0  0
   -2.6491    2.0097    0.4005 H   0  0  0  0  0  0  0  0  0  0  0  0
   -0.7835    1.1104   -0.0856 H   0  0  0  0  0  0  0  0  0  0  0  0
   -6.2139    1.0849    2.0084 H   0  0  0  0  0  0  0  0  0  0  0  0
  1  2  1  0
  2  3  1  0
  3  4  1  0
  4  5  1  0
  5  6  1  0
  6  7  1  0
  7  8  1  0
  8  9  1  0
  9 10  1  0
  8 11  1  0
 11 12  2  0
 12 13  1  0
 13 14  2  0
 14 15  1  0
 14 16  1  0
 16 17  2  0
 17 18  1  0
 18 19  2  0
 19 20  1  0
 20 21  2  0
 21 22  1  0
 22 23  2  0
 23 24  1  0
 24 25  2  0
 25 26  1  0
 23 27  1  0
 27 28  1  0
 27 29  1  0
 29 30  1  0
 29 31  1  0
 29 32  1  0
 27 33  1  0
 33 34  1  0
 33 35  1  0
 33 36  1  0
 10  5  1  0
 26 11  1  0
 18 12  1  0
 25 20  1  0
  1 37  1  0
  1 38  1  0
  1 39  1  0
  3 40  1  0
  3 41  1  0
  4 42  1  0
  4 43  1  0
  6 44  1  0
  6 45  1  0
  7 46  1  0
  7 47  1  0
  9 48  1  0
  9 49  1  0
 10 50  1  0
 10 51  1  0
 13 52  1  0
 16 53  1  0
 17 54  1  0
 21 55  1  0
 22 56  1  0
 24 57  1  0
 26 58  1  0
 28 59  1  0
M  END
$$$$
[H]c1nc(N([H])[H])c(N([H])C(=O)c2c([H])nc(OC([H])([H])C([H])([H])C([H])([H])N3C([H])([H])C([H])([H])C([H])([H])C3([H])[H])c([H])c2[H])nc1-c1c([H])c([H])c([H])c(N([H])C(=O)c2c([H])c([H])c(C(F)(F)F)c([H])c2[H])c1C([H])([H])[H]
     RDKit          3D

 77 81  0  0  0  0  0  0  0  0999 V2000
    4.7760    0.2405   -1.4965 C   0  0  0  0  0  0  0  0  0  0  0  0
    4.1075    1.1833   -0.5713 C   0  0  0  0  0  0  0  0  0  0  0  0
    4.7240    1.3773    0.6917 C   0  0  0  0  0  0  0  0  0  0  0  0
    5.9397    0.7220    0.9535 N   0  0  0  0  0  0  0  0  0  0  0  0
    6.8512    0.8173    2.0093 C   0  0  0  0  0  0  0  0  0  0  0  0
    6.7628    1.5481    3.0046 O   0  0  0  0  0  0  0  0  0  0  0  0
    8.0675   -0.0623    1.9129 C   0  0  0  0  0  0  0  0  0  0  0  0
    7.8241   -1.4166    1.9216 C   0  0  0  0  0  0  0  0  0  0  0  0
    8.9287   -2.2352    1.7394 C   0  0  0  0  0  0  0  0  0  0  0  0
   10.1984   -1.7529    1.5569 C   0  0  0  0  0  0  0  0  0  0  0  0
   10.4014   -0.3842    1.5556 C   0  0  0  0  0  0  0  0  0  0  0  0
    9.3101    0.4490    1.7391 C   0  0  0  0  0  0  0  0  0  0  0  0
   11.3591   -2.6555    1.3441 C   0  0  0  0  0  0  0  0  0  0  0  0
   11.0461   -3.5288    0.2881 F   0  0  0  0  0  0  0  0  0  0  0  0
   11.6768   -3.3675    2.4525 F   0  0  0  0  0  0  0  0  0  0  0  0
   12.4583   -1.9080    0.8969 F   0  0  0  0  0  0  0  0  0  0  0  0
    4.1079    2.1818    1.5982 C   0  0  0  0  0  0  0  0  0  0  0  0
    2.8870    2.8341    1.3528 C   0  0  0  0  0  0  0  0  0  0  0  0
    2.3367    2.5991    0.0846 C   0  0  0  0  0  0  0  0  0  0  0  0
    2.9202    1.7981   -0.8627 C   0  0  0  0  0  0  0  0  0  0  0  0
    2.3444    1.5420   -2.1862 C   0  0  0  0  0  0  0  0  0  0  0  0
    3.1480    1.9503   -3.2796 C   0  0  0  0  0  0  0  0  0  0  0  0
    2.7431    1.7362   -4.5139 N   0  0  0  0  0  0  0  0  0  0  0  0
    1.5946    1.1441   -4.8469 C   0  0  0  0  0  0  0  0  0  0  0  0
    1.2346    0.9302   -6.1956 N   0  0  0  0  0  0  0  0  0  0  0  0
    0.7546    0.7207   -3.7604 C   0  0  0  0  0  0  0  0  0  0  0  0
   -0.3551   -0.0581   -4.1092 N   0  0  0  0  0  0  0  0  0  0  0  0
   -1.5077   -0.5560   -3.6027 C   0  0  0  0  0  0  0  0  0  0  0  0
   -2.0731   -1.5196   -4.3248 O   0  0  0  0  0  0  0  0  0  0  0  0
   -2.3071   -0.2568   -2.4085 C   0  0  0  0  0  0  0  0  0  0  0  0
   -2.3486    0.9646   -1.8212 C   0  0  0  0  0  0  0  0  0  0  0  0
   -3.2392    1.2280   -0.7943 C   0  0  0  0  0  0  0  0  0  0  0  0
   -4.0920    0.2614   -0.3550 C   0  0  0  0  0  0  0  0  0  0  0  0
   -5.0103    0.5043    0.6745 O   0  0  0  0  0  0  0  0  0  0  0  0
   -5.9468   -0.4371    1.1836 C   0  0  0  0  0  0  0  0  0  0  0  0
   -6.7649    0.2255    2.2754 C   0  0  0  0  0  0  0  0  0  0  0  0
   -7.8059   -0.6870    2.8221 C   0  0  0  0  0  0  0  0  0  0  0  0
   -8.7841   -1.1606    1.8627 N   0  0  0  0  0  0  0  0  0  0  0  0
   -9.6121   -0.1082    1.3640 C   0  0  0  0  0  0  0  0  0  0  0  0
  -10.9548   -0.1885    2.0659 C   0  0  0  0  0  0  0  0  0  0  0  0
  -11.0794   -1.6617    2.3047 C   0  0  0  0  0  0  0  0  0  0  0  0
   -9.6498   -2.1464    2.4857 C   0  0  0  0  0  0  0  0  0  0  0  0
   -4.0670   -0.9506   -0.9125 N   0  0  0  0  0  0  0  0  0  0  0  0
   -3.1940   -1.2179   -1.9253 C   0  0  0  0  0  0  0  0  0  0  0  0
    1.1937    0.9552   -2.4826 N   0  0  0  0  0  0  0  0  0  0  0  0
    5.8346    0.5707   -1.6224 H   0  0  0  0  0  0  0  0  0  0  0  0
    4.8672   -0.7796   -0.9780 H   0  0  0  0  0  0  0  0  0  0  0  0
    4.3644    0.1057   -2.4675 H   0  0  0  0  0  0  0  0  0  0  0  0
    6.2295   -0.0155    0.2164 H   0  0  0  0  0  0  0  0  0  0  0  0
    6.8610   -1.8222    2.0474 H   0  0  0  0  0  0  0  0  0  0  0  0
    8.7645   -3.2922    1.7348 H   0  0  0  0  0  0  0  0  0  0  0  0
   11.3990   -0.0413    1.4138 H   0  0  0  0  0  0  0  0  0  0  0  0
    9.4653    1.5018    1.7520 H   0  0  0  0  0  0  0  0  0  0  0  0
    4.5510    2.3577    2.5898 H   0  0  0  0  0  0  0  0  0  0  0  0
    2.4246    3.4710    2.0906 H   0  0  0  0  0  0  0  0  0  0  0  0
    1.4009    3.0955   -0.1498 H   0  0  0  0  0  0  0  0  0  0  0  0
    4.0835    2.4482   -3.0951 H   0  0  0  0  0  0  0  0  0  0  0  0
    1.0105   -0.0136   -6.6153 H   0  0  0  0  0  0  0  0  0  0  0  0
    1.1842    1.7186   -6.8900 H   0  0  0  0  0  0  0  0  0  0  0  0
   -0.1229   -0.5701   -5.1061 H   0  0  0  0  0  0  0  0  0  0  0  0
   -1.6754    1.7823   -2.1643 H   0  0  0  0  0  0  0  0  0  0  0  0
   -3.2675    2.2181   -0.3297 H   0  0  0  0  0  0  0  0  0  0  0  0
   -5.5393   -1.3869    1.4757 H   0  0  0  0  0  0  0  0  0  0  0  0
   -6.6629   -0.5891    0.3362 H   0  0  0  0  0  0  0  0  0  0  0  0
   -7.2228    1.1689    1.8729 H   0  0  0  0  0  0  0  0  0  0  0  0
   -6.1052    0.5536    3.1097 H   0  0  0  0  0  0  0  0  0  0  0  0
   -7.3308   -1.5558    3.3731 H   0  0  0  0  0  0  0  0  0  0  0  0
   -8.4197   -0.1941    3.6379 H   0  0  0  0  0  0  0  0  0  0  0  0
   -9.8084   -0.1611    0.2768 H   0  0  0  0  0  0  0  0  0  0  0  0
   -9.1491    0.8661    1.6409 H   0  0  0  0  0  0  0  0  0  0  0  0
  -10.8765    0.3951    3.0238 H   0  0  0  0  0  0  0  0  0  0  0  0
  -11.7638    0.2153    1.4211 H   0  0  0  0  0  0  0  0  0  0  0  0
  -11.6718   -1.9612    3.1770 H   0  0  0  0  0  0  0  0  0  0  0  0
  -11.5492   -2.1048    1.3828 H   0  0  0  0  0  0  0  0  0  0  0  0
   -9.4071   -2.2835    3.5511 H   0  0  0  0  0  0  0  0  0  0  0  0
   -9.5854   -3.1225    1.9586 H   0  0  0  0  0  0  0  0  0  0  0  0
   -3.1869   -2.2285   -2.3632 H   0  0  0  0  0  0  0  0  0  0  0  0
  1  2  1  0
  2  3  2  0
  3  4  1  0
  4  5  1  0
  5  6  2  0
  5  7  1  0
  7  8  2  0
  8  9  1  0
  9 10  2  0
 10 11  1  0
 11 12  2  0
 10 13  1  0
 13 14  1  0
 13 15  1  0
 13 16  1  0
  3 17  1  0
 17 18  2  0
 18 19  1  0
 19 20  2  0
 20 21  1  0
 21 22  2  0
 22 23  1  0
 23 24  2  0
 24 25  1  0
 24 26  1  0
 26 27  1  0
 27 28  1  0
 28 29  2  0
 28 30  1  0
 30 31  2  0
 31 32  1  0
 32 33  2  0
 33 34  1  0
 34 35  1  0
 35 36  1  0
 36 37  1  0
 37 38  1  0
 38 39  1  0
 39 40  1  0
 40 41  1  0
 41 42  1  0
 33 43  1  0
 43 44  2  0
 26 45  2  0
 20  2  1  0
 45 21  1  0
 12  7  1  0
 44 30  1  0
 42 38  1  0
  1 46  1  0
  1 47  1  0
  1 48  1  0
  4 49  1  0
  8 50  1  0
  9 51  1  0
 11 52  1  0
 12 53  1  0
 17 54  1  0
 18 55  1  0
 19 56  1  0
 22 57  1  0
 25 58  1  0
 25 59  1  0
 27 60  1  0
 31 61  1  0
 32 62  1  0
 35 63  1  0
 35 64  1  0
 36 65  1  0
 36 66  1  0
 37 67  1  0
 37 68  1  0
 39 69  1  0
 39 70  1  0
 40 71  1  0
 40 72  1  0
 41 73  1  0
 41 74  1  0
 42 75  1  0
 42 76  1  0
 44 77  1  0
M  END
$$$$
[H]c1nc2c(C([H])([H])[H])c(C([H])([H])[H])c(-c3c(C([H])(C([H])([H])[H])C([H])([H])[H])c4c([H])c(C5([H])C([H])([H])C([H])([H])N(C([H])([H])C([H])([H])c6nn(C([H])([H])[H])c([H])c6[H])C([H])([H])C5([H])[H])c([H])c([H])c4n3[H])c([H])n2n1
     RDKit          3D

 74 79  0  0  0  0  0  0  0  0999 V2000
   -2.2269   -0.2220   -3.0048 C   0  0  0  0  0  0  0  0  0  0  0  0
   -3.2651   -0.6413   -1.9388 C   0  0  0  0  0  0  0  0  0  0  0  0
   -2.9851   -2.1469   -1.7291 C   0  0  0  0  0  0  0  0  0  0  0  0
   -3.0785    0.1166   -0.6772 C   0  0  0  0  0  0  0  0  0  0  0  0
   -4.0403    0.7150    0.0708 C   0  0  0  0  0  0  0  0  0  0  0  0
   -3.4576    1.3144    1.1620 N   0  0  0  0  0  0  0  0  0  0  0  0
   -2.1407    1.1032    1.1509 C   0  0  0  0  0  0  0  0  0  0  0  0
   -1.2028    1.3848    2.1256 C   0  0  0  0  0  0  0  0  0  0  0  0
    0.0446    0.8580    1.9415 C   0  0  0  0  0  0  0  0  0  0  0  0
    0.3412    0.0971    0.8585 C   0  0  0  0  0  0  0  0  0  0  0  0
   -0.6194   -0.1595   -0.1199 C   0  0  0  0  0  0  0  0  0  0  0  0
   -1.8849    0.3514    0.0159 C   0  0  0  0  0  0  0  0  0  0  0  0
    1.5899   -0.6647    0.7373 C   0  0  0  0  0  0  0  0  0  0  0  0
    2.1420   -0.5978   -0.6457 C   0  0  0  0  0  0  0  0  0  0  0  0
    3.6683   -0.9207   -0.5485 C   0  0  0  0  0  0  0  0  0  0  0  0
    4.2638    0.1348    0.1977 N   0  0  0  0  0  0  0  0  0  0  0  0
    5.6909    0.1175    0.2156 C   0  0  0  0  0  0  0  0  0  0  0  0
    6.2607    0.3645   -1.1677 C   0  0  0  0  0  0  0  0  0  0  0  0
    7.7360    0.3852   -1.0498 C   0  0  0  0  0  0  0  0  0  0  0  0
    8.6531    0.4273   -2.1172 C   0  0  0  0  0  0  0  0  0  0  0  0
    9.9106    0.4893   -1.5567 C   0  0  0  0  0  0  0  0  0  0  0  0
    9.7797    0.4873   -0.2379 N   0  0  0  0  0  0  0  0  0  0  0  0
   10.8203    0.5608    0.7962 C   0  0  0  0  0  0  0  0  0  0  0  0
    8.4948    0.4248    0.0558 N   0  0  0  0  0  0  0  0  0  0  0  0
    3.6151    0.5564    1.3807 C   0  0  0  0  0  0  0  0  0  0  0  0
    2.5906   -0.4576    1.8130 C   0  0  0  0  0  0  0  0  0  0  0  0
   -5.4890    0.6875    0.0161 C   0  0  0  0  0  0  0  0  0  0  0  0
   -6.2609    1.6734   -0.4935 C   0  0  0  0  0  0  0  0  0  0  0  0
   -7.6195    1.6107   -0.3236 N   0  0  0  0  0  0  0  0  0  0  0  0
   -8.6076    2.4100   -0.6646 N   0  0  0  0  0  0  0  0  0  0  0  0
   -9.7981    1.9182   -0.2382 C   0  0  0  0  0  0  0  0  0  0  0  0
   -9.5266    0.7768    0.3851 N   0  0  0  0  0  0  0  0  0  0  0  0
   -8.2058    0.5780    0.3417 C   0  0  0  0  0  0  0  0  0  0  0  0
   -7.4527   -0.4516    0.8742 C   0  0  0  0  0  0  0  0  0  0  0  0
   -8.0443   -1.5892    1.6314 C   0  0  0  0  0  0  0  0  0  0  0  0
   -6.1037   -0.3787    0.7016 C   0  0  0  0  0  0  0  0  0  0  0  0
   -5.2589   -1.4379    1.2462 C   0  0  0  0  0  0  0  0  0  0  0  0
   -1.2095   -0.3681   -2.7933 H   0  0  0  0  0  0  0  0  0  0  0  0
   -2.4828    0.8705   -3.2024 H   0  0  0  0  0  0  0  0  0  0  0  0
   -2.4948   -0.8076   -3.9261 H   0  0  0  0  0  0  0  0  0  0  0  0
   -4.2370   -0.5436   -2.3691 H   0  0  0  0  0  0  0  0  0  0  0  0
   -1.9307   -2.3135   -2.0939 H   0  0  0  0  0  0  0  0  0  0  0  0
   -3.6197   -2.7650   -2.3782 H   0  0  0  0  0  0  0  0  0  0  0  0
   -3.0686   -2.4461   -0.6779 H   0  0  0  0  0  0  0  0  0  0  0  0
   -3.9637    1.8622    1.8911 H   0  0  0  0  0  0  0  0  0  0  0  0
   -1.4197    1.9875    2.9874 H   0  0  0  0  0  0  0  0  0  0  0  0
    0.7798    1.0994    2.7142 H   0  0  0  0  0  0  0  0  0  0  0  0
   -0.3826   -0.7774   -0.9548 H   0  0  0  0  0  0  0  0  0  0  0  0
    1.2185   -1.7700    0.8835 H   0  0  0  0  0  0  0  0  0  0  0  0
    1.9869    0.3530   -1.1671 H   0  0  0  0  0  0  0  0  0  0  0  0
    1.7257   -1.4318   -1.2442 H   0  0  0  0  0  0  0  0  0  0  0  0
    3.6725   -1.8498    0.0674 H   0  0  0  0  0  0  0  0  0  0  0  0
    3.9981   -1.0616   -1.5669 H   0  0  0  0  0  0  0  0  0  0  0  0
    5.9960   -0.9281    0.4981 H   0  0  0  0  0  0  0  0  0  0  0  0
    6.0972    0.8515    0.8971 H   0  0  0  0  0  0  0  0  0  0  0  0
    5.9650    1.3865   -1.5026 H   0  0  0  0  0  0  0  0  0  0  0  0
    5.9861   -0.4309   -1.8783 H   0  0  0  0  0  0  0  0  0  0  0  0
    8.3702    0.4068   -3.1426 H   0  0  0  0  0  0  0  0  0  0  0  0
   10.8307    0.5303   -2.0870 H   0  0  0  0  0  0  0  0  0  0  0  0
   10.4327    1.2684    1.5823 H   0  0  0  0  0  0  0  0  0  0  0  0
   11.7435    0.9536    0.3379 H   0  0  0  0  0  0  0  0  0  0  0  0
   10.9347   -0.4167    1.2976 H   0  0  0  0  0  0  0  0  0  0  0  0
    3.1875    1.5831    1.3267 H   0  0  0  0  0  0  0  0  0  0  0  0
    4.3901    0.5697    2.2132 H   0  0  0  0  0  0  0  0  0  0  0  0
    3.1809   -1.4224    1.9630 H   0  0  0  0  0  0  0  0  0  0  0  0
    2.1674   -0.2764    2.8199 H   0  0  0  0  0  0  0  0  0  0  0  0
   -5.8685    2.5174   -1.0360 H   0  0  0  0  0  0  0  0  0  0  0  0
  -10.7924    2.3708   -0.3700 H   0  0  0  0  0  0  0  0  0  0  0  0
   -7.5202   -1.5571    2.6397 H   0  0  0  0  0  0  0  0  0  0  0  0
   -9.0994   -1.3780    1.8671 H   0  0  0  0  0  0  0  0  0  0  0  0
   -7.8695   -2.5573    1.1460 H   0  0  0  0  0  0  0  0  0  0  0  0
   -5.6476   -1.9679    2.1203 H   0  0  0  0  0  0  0  0  0  0  0  0
   -5.1572   -2.2242    0.4507 H   0  0  0  0  0  0  0  0  0  0  0  0
   -4.2331   -1.1287    1.4828 H   0  0  0  0  0  0  0  0  0  0  0  0
  1  2  1  0
  2  3  1  0
  2  4  1  0
  4  5  2  0
  5  6  1  0
  6  7  1  0
  7  8  2  0
  8  9  1  0
  9 10  2  0
 10 11  1  0
 11 12  2  0
 10 13  1  0
 13 14  1  0
 14 15  1  0
 15 16  1  0
 16 17  1  0
 17 18  1  0
 18 19  1  0
 19 20  1  0
 20 21  2  0
 21 22  1  0
 22 23  1  0
 22 24  1  0
 16 25  1  0
 25 26  1  0
  5 27  1  0
 27 28  2  0
 28 29  1  0
 29 30  1  0
 30 31  2  0
 31 32  1  0
 32 33  2  0
 33 34  1  0
 34 35  1  0
 34 36  2  0
 36 37  1  0
 12  4  1  0
 26 13  1  0
 36 27  1  0
 12  7  1  0
 24 19  2  0
 33 29  1  0
  1 38  1  0
  1 39  1  0
  1 40  1  0
  2 41  1  0
  3 42  1  0
  3 43  1  0
  3 44  1  0
  6 45  1  0
  8 46  1  0
  9 47  1  0
 11 48  1  0
 13 49  1  0
 14 50  1  0
 14 51  1  0
 15 52  1  0
 15 53  1  0
 17 54  1  0
 17 55  1  0
 18 56  1  0
 18 57  1  0
 20 58  1  0
 21 59  1  0
 23 60  1  0
 23 61  1  0
 23 62  1  0
 25 63  1  0
 25 64  1  0
 26 65  1  0
 26 66  1  0
 28 67  1  0
 31 68  1  0
 35 69  1  0
 35 70  1  0
 35 71  1  0
 37 72  1  0
 37 73  1  0
 37 74  1  0
M  END
$$$$
[H]N=C(c1c([H])c([H])c(Oc2c([H])c(O[H])c(C(=O)N([H])C([H])([H])C([H])([H])C([H])([H])C([H])(C([H])([H])C(=O)O[H])C([H])([H])S(=O)(=O)N(c3c([H])c([H])c([H])c([H])c3[H])C([H])([H])[H])c([H])c2Cl)c([H])c1[H])N([H])[H]
     RDKit          3D

 72 74  0  0  0  0  0  0  0  0999 V2000
   -4.1817    0.3457   -3.0437 C   0  0  0  0  0  0  0  0  0  0  0  0
   -4.1718    0.8318   -1.6856 N   0  0  0  0  0  0  0  0  0  0  0  0
   -5.0223    1.9209   -1.3718 C   0  0  0  0  0  0  0  0  0  0  0  0
   -4.6165    3.2358   -1.4794 C   0  0  0  0  0  0  0  0  0  0  0  0
   -5.4784    4.2487   -1.1647 C   0  0  0  0  0  0  0  0  0  0  0  0
   -6.7521    3.9552   -0.7400 C   0  0  0  0  0  0  0  0  0  0  0  0
   -7.1604    2.6412   -0.6316 C   0  0  0  0  0  0  0  0  0  0  0  0
   -6.3027    1.6214   -0.9451 C   0  0  0  0  0  0  0  0  0  0  0  0
   -3.1419    0.0673   -0.5404 S   0  0  0  0  0  0  0  0  0  0  0  0
   -2.2557   -0.8309   -1.2802 O   0  0  0  0  0  0  0  0  0  0  0  0
   -2.2648    1.1796    0.0315 O   0  0  0  0  0  0  0  0  0  0  0  0
   -4.0797   -0.6383    0.7552 C   0  0  0  0  0  0  0  0  0  0  0  0
   -3.3493   -1.3352    1.8300 C   0  0  0  0  0  0  0  0  0  0  0  0
   -2.5231   -2.5060    1.3874 C   0  0  0  0  0  0  0  0  0  0  0  0
   -1.7991   -3.1746    2.5359 C   0  0  0  0  0  0  0  0  0  0  0  0
   -0.8610   -2.2477    3.2341 C   0  0  0  0  0  0  0  0  0  0  0  0
    0.1298   -1.7414    2.2946 N   0  0  0  0  0  0  0  0  0  0  0  0
    1.0634   -2.5214    1.5910 C   0  0  0  0  0  0  0  0  0  0  0  0
    1.1137   -3.7917    1.7401 O   0  0  0  0  0  0  0  0  0  0  0  0
    1.9999   -1.9041    0.6717 C   0  0  0  0  0  0  0  0  0  0  0  0
    2.0285   -0.5565    0.4401 C   0  0  0  0  0  0  0  0  0  0  0  0
    2.9597   -0.0266   -0.4629 C   0  0  0  0  0  0  0  0  0  0  0  0
    2.9527    1.7215   -0.7532 Cl  0  0  0  0  0  0  0  0  0  0  0  0
    3.8562   -0.8198   -1.1319 C   0  0  0  0  0  0  0  0  0  0  0  0
    4.7826   -0.3461   -2.0232 O   0  0  0  0  0  0  0  0  0  0  0  0
    5.8104    0.5191   -1.7828 C   0  0  0  0  0  0  0  0  0  0  0  0
    6.5406    0.9899   -2.8558 C   0  0  0  0  0  0  0  0  0  0  0  0
    7.5920    1.8608   -2.7214 C   0  0  0  0  0  0  0  0  0  0  0  0
    7.9706    2.3137   -1.4584 C   0  0  0  0  0  0  0  0  0  0  0  0
    7.2482    1.8476   -0.3960 C   0  0  0  0  0  0  0  0  0  0  0  0
    6.1853    0.9662   -0.5397 C   0  0  0  0  0  0  0  0  0  0  0  0
    9.0869    3.2349   -1.3668 C   0  0  0  0  0  0  0  0  0  0  0  0
    9.7687    3.6619   -2.5590 N   0  0  0  0  0  0  0  0  0  0  0  0
    9.4676    3.6706   -0.2282 N   0  0  0  0  0  0  0  0  0  0  0  0
    3.8126   -2.1810   -0.8854 C   0  0  0  0  0  0  0  0  0  0  0  0
    2.8971   -2.7089    0.0032 C   0  0  0  0  0  0  0  0  0  0  0  0
    2.8937   -4.0682    0.2140 O   0  0  0  0  0  0  0  0  0  0  0  0
   -4.2684   -1.6310    2.9866 C   0  0  0  0  0  0  0  0  0  0  0  0
   -5.4101   -2.4854    2.6974 C   0  0  0  0  0  0  0  0  0  0  0  0
   -6.2933   -2.7280    3.7723 O   0  0  0  0  0  0  0  0  0  0  0  0
   -5.7295   -3.0406    1.6348 O   0  0  0  0  0  0  0  0  0  0  0  0
   -4.6802    1.0298   -3.7481 H   0  0  0  0  0  0  0  0  0  0  0  0
   -4.6341   -0.6698   -3.0315 H   0  0  0  0  0  0  0  0  0  0  0  0
   -3.1363    0.2199   -3.4331 H   0  0  0  0  0  0  0  0  0  0  0  0
   -3.6016    3.4256   -1.8187 H   0  0  0  0  0  0  0  0  0  0  0  0
   -5.1287    5.2627   -1.2603 H   0  0  0  0  0  0  0  0  0  0  0  0
   -7.4662    4.7341   -0.4805 H   0  0  0  0  0  0  0  0  0  0  0  0
   -8.1560    2.3520   -0.3010 H   0  0  0  0  0  0  0  0  0  0  0  0
   -6.6191    0.5697   -0.8614 H   0  0  0  0  0  0  0  0  0  0  0  0
   -4.8270   -1.2950    0.2651 H   0  0  0  0  0  0  0  0  0  0  0  0
   -4.6774    0.1811    1.2132 H   0  0  0  0  0  0  0  0  0  0  0  0
   -2.5877   -0.6122    2.2723 H   0  0  0  0  0  0  0  0  0  0  0  0
   -1.6903   -2.0807    0.7557 H   0  0  0  0  0  0  0  0  0  0  0  0
   -3.0855   -3.2858    0.8714 H   0  0  0  0  0  0  0  0  0  0  0  0
   -1.2171   -4.0090    2.1067 H   0  0  0  0  0  0  0  0  0  0  0  0
   -2.5130   -3.6702    3.2355 H   0  0  0  0  0  0  0  0  0  0  0  0
   -0.2851   -2.8257    3.9965 H   0  0  0  0  0  0  0  0  0  0  0  0
   -1.3958   -1.4113    3.6945 H   0  0  0  0  0  0  0  0  0  0  0  0
    0.1500   -0.6898    2.1245 H   0  0  0  0  0  0  0  0  0  0  0  0
    1.3741    0.1504    0.9089 H   0  0  0  0  0  0  0  0  0  0  0  0
    6.2885    0.6685   -3.8705 H   0  0  0  0  0  0  0  0  0  0  0  0
    8.1335    2.2022   -3.5887 H   0  0  0  0  0  0  0  0  0  0  0  0
    7.5153    2.1790    0.5987 H   0  0  0  0  0  0  0  0  0  0  0  0
    5.6740    0.6421    0.3458 H   0  0  0  0  0  0  0  0  0  0  0  0
   10.0180    2.9563   -3.2670 H   0  0  0  0  0  0  0  0  0  0  0  0
    9.9895    4.6902   -2.6644 H   0  0  0  0  0  0  0  0  0  0  0  0
    9.0693    3.4459    0.6849 H   0  0  0  0  0  0  0  0  0  0  0  0
    4.5099   -2.8258   -1.4019 H   0  0  0  0  0  0  0  0  0  0  0  0
    3.5254   -4.6828   -0.2489 H   0  0  0  0  0  0  0  0  0  0  0  0
   -4.7023   -0.6178    3.2608 H   0  0  0  0  0  0  0  0  0  0  0  0
   -3.7173   -1.9138    3.9081 H   0  0  0  0  0  0  0  0  0  0  0  0
   -6.6255   -3.6701    3.9612 H   0  0  0  0  0  0  0  0  0  0  0  0
  1  2  1  0
  2  3  1  0
  3  4  2  0
  4  5  1  0
  5  6  2  0
  6  7  1  0
  7  8  2  0
  2  9  1  0
  9 10  2  0
  9 11  2  0
  9 12  1  0
 12 13  1  0
 13 14  1  0
 14 15  1  0
 15 16  1  0
 16 17  1  0
 17 18  1  0
 18 19  2  0
 18 20  1  0
 20 21  2  0
 21 22  1  0
 22 23  1  0
 22 24  2  0
 24 25  1  0
 25 26  1  0
 26 27  2  0
 27 28  1  0
 28 29  2  0
 29 30  1  0
 30 31  2  0
 29 32  1  0
 32 33  1  0
 32 34  2  3
 24 35  1  0
 35 36  2  0
 36 37  1  0
 13 38  1  0
 38 39  1  0
 39 40  1  0
 39 41  2  0
  8  3  1  0
 36 20  1  0
 31 26  1  0
  1 42  1  0
  1 43  1  0
  1 44  1  0
  4 45  1  0
  5 46  1  0
  6 47  1  0
  7 48  1  0
  8 49  1  0
 12 50  1  0
 12 51  1  0
 13 52  1  0
 14 53  1  0
 14 54  1  0
 15 55  1  0
 15 56  1  0
 16 57  1  0
 16 58  1  0
 17 59  1  0
 21 60  1  0
 27 61  1  0
 28 62  1  0
 30 63  1  0
 31 64  1  0
 33 65  1  0
 33 66  1  0
 34 67  1  0
 35 68  1  0
 37 69  1  0
 38 70  1  0
 38 71  1  0
 40 72  1  0
M  END
$$$$
[H]c1c([H])c(C(=O)N([H])c2c([H])c([H])c(C(=O)N3c4c([H])c(C(F)(F)F)c(OC([H])([H])[H])c([H])c4C([H])([H])C3([H])[H])c([H])c2[H])c([H])c(F)c1F
     RDKit          3D

 51 54  0  0  0  0  0  0  0  0999 V2000
   -8.4102   -1.3576   -0.9856 C   0  0  0  0  0  0  0  0  0  0  0  0
   -7.7856   -0.2389   -0.3847 O   0  0  0  0  0  0  0  0  0  0  0  0
   -6.3908   -0.2075   -0.3159 C   0  0  0  0  0  0  0  0  0  0  0  0
   -5.6175   -1.2341   -0.8157 C   0  0  0  0  0  0  0  0  0  0  0  0
   -4.2471   -1.2336   -0.7644 C   0  0  0  0  0  0  0  0  0  0  0  0
   -3.2522   -2.2173   -1.2415 C   0  0  0  0  0  0  0  0  0  0  0  0
   -1.9611   -1.3966   -1.2651 C   0  0  0  0  0  0  0  0  0  0  0  0
   -2.1678   -0.3976   -0.2564 N   0  0  0  0  0  0  0  0  0  0  0  0
   -1.2771    0.2542    0.6053 C   0  0  0  0  0  0  0  0  0  0  0  0
   -1.7661    0.8919    1.6037 O   0  0  0  0  0  0  0  0  0  0  0  0
    0.1548    0.2803    0.4830 C   0  0  0  0  0  0  0  0  0  0  0  0
    0.8766   -0.1565   -0.5937 C   0  0  0  0  0  0  0  0  0  0  0  0
    2.2636   -0.1296   -0.5783 C   0  0  0  0  0  0  0  0  0  0  0  0
    3.0152    0.3298    0.4955 C   0  0  0  0  0  0  0  0  0  0  0  0
    4.4062    0.3152    0.4142 N   0  0  0  0  0  0  0  0  0  0  0  0
    5.3779    0.6776    1.3338 C   0  0  0  0  0  0  0  0  0  0  0  0
    5.0799    1.1049    2.4694 O   0  0  0  0  0  0  0  0  0  0  0  0
    6.7992    0.5825    1.0351 C   0  0  0  0  0  0  0  0  0  0  0  0
    7.3445    0.3365   -0.2022 C   0  0  0  0  0  0  0  0  0  0  0  0
    8.6996    0.2477   -0.4438 C   0  0  0  0  0  0  0  0  0  0  0  0
    9.5960    0.4083    0.5843 C   0  0  0  0  0  0  0  0  0  0  0  0
   10.9380    0.3204    0.3504 F   0  0  0  0  0  0  0  0  0  0  0  0
    9.0973    0.6568    1.8416 C   0  0  0  0  0  0  0  0  0  0  0  0
    9.9720    0.8148    2.8465 F   0  0  0  0  0  0  0  0  0  0  0  0
    7.7461    0.7407    2.0581 C   0  0  0  0  0  0  0  0  0  0  0  0
    2.2770    0.7653    1.5644 C   0  0  0  0  0  0  0  0  0  0  0  0
    0.9042    0.7507    1.5805 C   0  0  0  0  0  0  0  0  0  0  0  0
   -3.6095   -0.1571   -0.1859 C   0  0  0  0  0  0  0  0  0  0  0  0
   -4.3633    0.8810    0.3203 C   0  0  0  0  0  0  0  0  0  0  0  0
   -5.7581    0.8677    0.2615 C   0  0  0  0  0  0  0  0  0  0  0  0
   -6.5232    2.0053    0.8190 C   0  0  0  0  0  0  0  0  0  0  0  0
   -5.6606    2.9412    1.3320 F   0  0  0  0  0  0  0  0  0  0  0  0
   -7.4542    1.5984    1.7523 F   0  0  0  0  0  0  0  0  0  0  0  0
   -7.1660    2.6121   -0.2663 F   0  0  0  0  0  0  0  0  0  0  0  0
   -9.5158   -1.1999   -1.0814 H   0  0  0  0  0  0  0  0  0  0  0  0
   -7.9855   -1.5892   -1.9916 H   0  0  0  0  0  0  0  0  0  0  0  0
   -8.2973   -2.2766   -0.3767 H   0  0  0  0  0  0  0  0  0  0  0  0
   -6.1502   -2.0816   -1.2703 H   0  0  0  0  0  0  0  0  0  0  0  0
   -3.1397   -3.0815   -0.5865 H   0  0  0  0  0  0  0  0  0  0  0  0
   -3.4709   -2.4804   -2.2955 H   0  0  0  0  0  0  0  0  0  0  0  0
   -1.7993   -0.9619   -2.2450 H   0  0  0  0  0  0  0  0  0  0  0  0
   -1.1425   -2.1166   -1.0346 H   0  0  0  0  0  0  0  0  0  0  0  0
    0.3747   -0.5027   -1.4941 H   0  0  0  0  0  0  0  0  0  0  0  0
    2.7649   -0.5012   -1.4859 H   0  0  0  0  0  0  0  0  0  0  0  0
    4.7963   -0.0449   -0.5293 H   0  0  0  0  0  0  0  0  0  0  0  0
    6.6520    0.2063   -1.0523 H   0  0  0  0  0  0  0  0  0  0  0  0
    9.0619    0.0485   -1.4586 H   0  0  0  0  0  0  0  0  0  0  0  0
    7.3675    0.9368    3.0510 H   0  0  0  0  0  0  0  0  0  0  0  0
    2.8174    1.1405    2.4356 H   0  0  0  0  0  0  0  0  0  0  0  0
    0.3958    1.1165    2.4781 H   0  0  0  0  0  0  0  0  0  0  0  0
   -3.8673    1.7309    0.7709 H   0  0  0  0  0  0  0  0  0  0  0  0
  1  2  1  0
  2  3  1  0
  3  4  2  0
  4  5  1  0
  5  6  1  0
  6  7  1  0
  7  8  1  0
  8  9  1  0
  9 10  2  0
  9 11  1  0
 11 12  2  0
 12 13  1  0
 13 14  2  0
 14 15  1  0
 15 16  1  0
 16 17  2  0
 16 18  1  0
 18 19  2  0
 19 20  1  0
 20 21  2  0
 21 22  1  0
 21 23  1  0
 23 24  1  0
 23 25  2  0
 14 26  1  0
 26 27  2  0
  8 28  1  0
 28 29  1  0
 29 30  2  0
 30 31  1  0
 31 32  1  0
 31 33  1  0
 31 34  1  0
 30  3  1  0
 28  5  2  0
 27 11  1  0
 25 18  1  0
  1 35  1  0
  1 36  1  0
  1 37  1  0
  4 38  1  0
  6 39  1  0
  6 40  1  0
  7 41  1  0
  7 42  1  0
 12 43  1  0
 13 44  1  0
 15 45  1  0
 19 46  1  0
 20 47  1  0
 25 48  1  0
 26 49  1  0
 27 50  1  0
 29 51  1  0
M  END
$$$$
[H]OC(=O)C([H])([H])c1nnn(C([H])([H])C([H])([H])C([H])(C(=O)[O-])P(=O)(O[H])C([H])([H])C([H])(C(=O)N([H])C([H])([H])C([H])([H])SC([H])([H])[H])C([H])([H])c2c([H])c([H])c(O[H])c([H])c2[H])c1[H]
     RDKit          3D

 63 64  0  0  0  0  0  0  0  0999 V2000
   -8.1952   -0.1875    0.3333 C   0  0  0  0  0  0  0  0  0  0  0  0
   -6.6836    0.6859    0.8205 S   0  0  0  0  0  0  0  0  0  0  0  0
   -6.1145    1.6552   -0.5817 C   0  0  0  0  0  0  0  0  0  0  0  0
   -4.8818    2.4405   -0.3659 C   0  0  0  0  0  0  0  0  0  0  0  0
   -3.6677    1.7782   -0.0815 N   0  0  0  0  0  0  0  0  0  0  0  0
   -3.0187    0.8431   -0.9400 C   0  0  0  0  0  0  0  0  0  0  0  0
   -3.6459    0.5987   -2.0306 O   0  0  0  0  0  0  0  0  0  0  0  0
   -1.7379    0.1857   -0.6670 C   0  0  0  0  0  0  0  0  0  0  0  0
   -1.7373   -0.7846    0.4333 C   0  0  0  0  0  0  0  0  0  0  0  0
   -2.6030   -1.9519    0.3349 C   0  0  0  0  0  0  0  0  0  0  0  0
   -3.8519   -1.9784    0.9121 C   0  0  0  0  0  0  0  0  0  0  0  0
   -4.6947   -3.0653    0.8227 C   0  0  0  0  0  0  0  0  0  0  0  0
   -4.3200   -4.2035    0.1367 C   0  0  0  0  0  0  0  0  0  0  0  0
   -5.1541   -5.3031    0.0374 O   0  0  0  0  0  0  0  0  0  0  0  0
   -3.0724   -4.2008   -0.4499 C   0  0  0  0  0  0  0  0  0  0  0  0
   -2.2371   -3.1122   -0.3564 C   0  0  0  0  0  0  0  0  0  0  0  0
   -0.7505    1.3374   -0.4110 C   0  0  0  0  0  0  0  0  0  0  0  0
    0.9069    0.7448   -0.0525 P   0  0  0  0  0  0  0  0  0  0  0  0
    1.0317    0.4831    1.6060 O   0  0  0  0  0  0  0  0  0  0  0  0
    1.2641   -0.5075   -0.7709 O   0  0  0  0  0  0  0  0  0  0  0  0
    2.0844    2.0372   -0.6007 C   0  0  0  0  0  0  0  0  0  0  0  0
    3.4152    1.4426   -0.9319 C   0  0  0  0  0  0  0  0  0  0  0  0
    4.0165    0.7475    0.2718 C   0  0  0  0  0  0  0  0  0  0  0  0
    5.2900    0.2031   -0.1219 N   0  0  0  0  0  0  0  0  0  0  0  0
    6.4848    0.8120   -0.0544 C   0  0  0  0  0  0  0  0  0  0  0  0
    7.4212   -0.0750   -0.5336 C   0  0  0  0  0  0  0  0  0  0  0  0
    8.8797    0.1223   -0.6641 C   0  0  0  0  0  0  0  0  0  0  0  0
    9.5517   -0.3150    0.5871 C   0  0  0  0  0  0  0  0  0  0  0  0
   10.9270   -0.2412    0.7413 O   0  0  0  0  0  0  0  0  0  0  0  0
    8.8862   -0.7626    1.5359 O   0  0  0  0  0  0  0  0  0  0  0  0
    6.7646   -1.1977   -0.8779 N   0  0  0  0  0  0  0  0  0  0  0  0
    5.4746   -1.0001   -0.6173 N   0  0  0  0  0  0  0  0  0  0  0  0
    2.1511    3.1299    0.3743 C   0  0  0  0  0  0  0  0  0  0  0  0
    2.6220    4.3866    0.0425 O   0  0  0  0  0  0  0  0  0  0  0  0
    1.7706    2.9266    1.5499 O   0  0  0  0  0  0  0  0  0  0  0  0
   -8.4338   -0.9107    1.1396 H   0  0  0  0  0  0  0  0  0  0  0  0
   -8.0324   -0.6984   -0.6265 H   0  0  0  0  0  0  0  0  0  0  0  0
   -9.0262    0.5444    0.2453 H   0  0  0  0  0  0  0  0  0  0  0  0
   -6.0424    1.0300   -1.5069 H   0  0  0  0  0  0  0  0  0  0  0  0
   -6.9349    2.3900   -0.8220 H   0  0  0  0  0  0  0  0  0  0  0  0
   -4.8035    3.1560   -1.2300 H   0  0  0  0  0  0  0  0  0  0  0  0
   -5.0942    3.1471    0.5028 H   0  0  0  0  0  0  0  0  0  0  0  0
   -3.1660    1.9600    0.8300 H   0  0  0  0  0  0  0  0  0  0  0  0
   -1.3652   -0.2455   -1.6406 H   0  0  0  0  0  0  0  0  0  0  0  0
   -0.6658   -1.0863    0.6428 H   0  0  0  0  0  0  0  0  0  0  0  0
   -2.0543   -0.2320    1.3722 H   0  0  0  0  0  0  0  0  0  0  0  0
   -4.2220   -1.1341    1.4769 H   0  0  0  0  0  0  0  0  0  0  0  0
   -5.6874   -3.0858    1.2811 H   0  0  0  0  0  0  0  0  0  0  0  0
   -5.1340   -6.0534    0.7260 H   0  0  0  0  0  0  0  0  0  0  0  0
   -2.7755   -5.1101   -0.9965 H   0  0  0  0  0  0  0  0  0  0  0  0
   -1.2826   -3.1441   -0.8204 H   0  0  0  0  0  0  0  0  0  0  0  0
   -1.1800    1.9521    0.3873 H   0  0  0  0  0  0  0  0  0  0  0  0
   -0.7653    1.9438   -1.3401 H   0  0  0  0  0  0  0  0  0  0  0  0
    1.3051   -0.4363    1.8440 H   0  0  0  0  0  0  0  0  0  0  0  0
    1.6520    2.4168   -1.5730 H   0  0  0  0  0  0  0  0  0  0  0  0
    3.2680    0.7403   -1.7769 H   0  0  0  0  0  0  0  0  0  0  0  0
    4.0626    2.2528   -1.3094 H   0  0  0  0  0  0  0  0  0  0  0  0
    3.2916   -0.0595    0.5549 H   0  0  0  0  0  0  0  0  0  0  0  0
    4.0646    1.4262    1.1357 H   0  0  0  0  0  0  0  0  0  0  0  0
    6.7303    1.8021    0.2967 H   0  0  0  0  0  0  0  0  0  0  0  0
    9.0509    1.2061   -0.8419 H   0  0  0  0  0  0  0  0  0  0  0  0
    9.2246   -0.4816   -1.5431 H   0  0  0  0  0  0  0  0  0  0  0  0
   11.4399   -0.9637    1.2566 H   0  0  0  0  0  0  0  0  0  0  0  0
  1  2  1  0
  2  3  1  0
  3  4  1  0
  4  5  1  0
  5  6  1  0
  6  7  2  0
  6  8  1  0
  8  9  1  0
  9 10  1  0
 10 11  2  0
 11 12  1  0
 12 13  2  0
 13 14  1  0
 13 15  1  0
 15 16  2  0
  8 17  1  0
 17 18  1  0
 18 19  1  0
 18 20  2  0
 18 21  1  0
 21 22  1  0
 22 23  1  0
 23 24  1  0
 24 25  1  0
 25 26  2  0
 26 27  1  0
 27 28  1  0
 28 29  1  0
 28 30  2  0
 26 31  1  0
 31 32  2  0
 21 33  1  0
 33 34  1  0
 33 35  2  0
 16 10  1  0
 32 24  1  0
  1 36  1  0
  1 37  1  0
  1 38  1  0
  3 39  1  0
  3 40  1  0
  4 41  1  0
  4 42  1  0
  5 43  1  0
  8 44  1  0
  9 45  1  0
  9 46  1  0
 11 47  1  0
 12 48  1  0
 14 49  1  0
 15 50  1  0
 16 51  1  0
 17 52  1  0
 17 53  1  0
 19 54  1  0
 21 55  1  0
 22 56  1  0
 22 57  1  0
 23 58  1  0
 23 59  1  0
 25 60  1  0
 27 61  1  0
 27 62  1  0
 29 63  1  0
M  CHG  1  34  -1
M  END
$$$$
[H]c1c([H])c([H])c(S(=O)(=O)[C@@]2([H])C([H])([H])N(C(=O)C3(c4c([H])c([H])c(Cl)c([H])c4[H])C([H])([H])C3([H])[H])[C@]([H])(C(=O)N([H])[C@]([H])(C(=O)C(=O)N([H])[C@@]([H])(C(=O)N([H])N([H])[H])C([H])([H])[H])C([H])([H])C([H])([H])C([H])([H])C([H])([H])[H])C2([H])[H])c(Cl)c1[H]
     RDKit          3D

 83 86  0  0  0  0  0  0  0  0999 V2000
    3.1914    1.2195   -5.0540 C   0  0  0  0  0  0  0  0  0  0  0  0
    2.9542   -0.2515   -4.9709 C   0  0  0  0  0  0  0  0  0  0  0  0
    2.2048   -0.7137   -3.7649 C   0  0  0  0  0  0  0  0  0  0  0  0
    2.9782   -0.3299   -2.4985 C   0  0  0  0  0  0  0  0  0  0  0  0
    2.3020   -0.7412   -1.2499 C   0  0  2  0  0  0  0  0  0  0  0  0
    1.0254   -0.1839   -0.9421 N   0  0  0  0  0  0  0  0  0  0  0  0
    0.3647    0.9335   -1.4306 C   0  0  0  0  0  0  0  0  0  0  0  0
    0.9088    1.6760   -2.2886 O   0  0  0  0  0  0  0  0  0  0  0  0
   -1.0022    1.3872   -1.0309 C   0  0  2  0  0  0  0  0  0  0  0  0
   -0.9870    2.7413   -0.4352 C   0  0  0  0  0  0  0  0  0  0  0  0
   -1.9650    2.6650    0.6873 C   0  0  2  0  0  0  0  0  0  0  0  0
   -1.9501    1.1982    1.0624 C   0  0  0  0  0  0  0  0  0  0  0  0
   -1.6957    0.4762   -0.1589 N   0  0  0  0  0  0  0  0  0  0  0  0
   -2.0968   -0.8318   -0.4644 C   0  0  0  0  0  0  0  0  0  0  0  0
   -1.9082   -1.2482   -1.6740 O   0  0  0  0  0  0  0  0  0  0  0  0
   -2.7234   -1.8171    0.4529 C   0  0  0  0  0  0  0  0  0  0  0  0
   -2.8448   -1.6952    1.8900 C   0  0  0  0  0  0  0  0  0  0  0  0
   -1.7495   -2.6123    1.3245 C   0  0  0  0  0  0  0  0  0  0  0  0
   -3.7423   -2.6726   -0.2295 C   0  0  0  0  0  0  0  0  0  0  0  0
   -3.8590   -4.0206   -0.1281 C   0  0  0  0  0  0  0  0  0  0  0  0
   -4.8790   -4.6710   -0.8321 C   0  0  0  0  0  0  0  0  0  0  0  0
   -5.7602   -3.9716   -1.6200 C   0  0  0  0  0  0  0  0  0  0  0  0
   -7.0446   -4.8233   -2.5006 Cl  0  0  0  0  0  0  0  0  0  0  0  0
   -5.6473   -2.6040   -1.7271 C   0  0  0  0  0  0  0  0  0  0  0  0
   -4.6456   -1.9756   -1.0345 C   0  0  0  0  0  0  0  0  0  0  0  0
   -3.5537    3.1582    0.0664 S   0  0  0  0  0  0  0  0  0  0  0  0
   -3.5505    4.6024   -0.3444 O   0  0  0  0  0  0  0  0  0  0  0  0
   -3.8784    2.2844   -1.1124 O   0  0  0  0  0  0  0  0  0  0  0  0
   -4.8207    2.9530    1.2538 C   0  0  0  0  0  0  0  0  0  0  0  0
   -5.8922    2.1113    1.0409 C   0  0  0  0  0  0  0  0  0  0  0  0
   -6.9029    1.9278    1.9612 C   0  0  0  0  0  0  0  0  0  0  0  0
   -6.8641    2.6089    3.1642 C   0  0  0  0  0  0  0  0  0  0  0  0
   -5.7959    3.4539    3.3864 C   0  0  0  0  0  0  0  0  0  0  0  0
   -4.7861    3.6306    2.4545 C   0  0  0  0  0  0  0  0  0  0  0  0
   -3.4842    4.7349    2.8521 Cl  0  0  0  0  0  0  0  0  0  0  0  0
    3.1046   -0.8035   -0.0292 C   0  0  0  0  0  0  0  0  0  0  0  0
    2.4944   -1.0777    1.0887 O   0  0  0  0  0  0  0  0  0  0  0  0
    4.5186   -0.5957    0.1102 C   0  0  0  0  0  0  0  0  0  0  0  0
    5.2195   -0.2632   -0.8620 O   0  0  0  0  0  0  0  0  0  0  0  0
    5.1256   -0.7822    1.4154 N   0  0  0  0  0  0  0  0  0  0  0  0
    6.5405   -0.5710    1.5462 C   0  0  2  0  0  0  0  0  0  0  0  0
    7.1797   -1.9106    1.8787 C   0  0  0  0  0  0  0  0  0  0  0  0
    6.7393    0.3987    2.6600 C   0  0  0  0  0  0  0  0  0  0  0  0
    5.7675    0.8819    3.3022 O   0  0  0  0  0  0  0  0  0  0  0  0
    8.0461    0.7953    3.0152 N   0  0  0  0  0  0  0  0  0  0  0  0
    8.2227    1.7030    4.0621 N   0  0  0  0  0  0  0  0  0  0  0  0
    2.3154    1.8317   -4.8295 H   0  0  0  0  0  0  0  0  0  0  0  0
    3.4887    1.4847   -6.1073 H   0  0  0  0  0  0  0  0  0  0  0  0
    4.0803    1.4939   -4.4250 H   0  0  0  0  0  0  0  0  0  0  0  0
    2.4467   -0.5695   -5.9111 H   0  0  0  0  0  0  0  0  0  0  0  0
    3.9472   -0.7794   -4.9748 H   0  0  0  0  0  0  0  0  0  0  0  0
    1.1432   -0.5592   -3.7435 H   0  0  0  0  0  0  0  0  0  0  0  0
    2.3069   -1.8611   -3.7753 H   0  0  0  0  0  0  0  0  0  0  0  0
    3.3410    0.6997   -2.5370 H   0  0  0  0  0  0  0  0  0  0  0  0
    3.9075   -0.9802   -2.5869 H   0  0  0  0  0  0  0  0  0  0  0  0
    2.0898   -1.8906   -1.5050 H   0  0  0  0  0  0  0  0  0  0  0  0
    0.4906   -0.7320   -0.1823 H   0  0  0  0  0  0  0  0  0  0  0  0
   -1.6288    1.4372   -1.9715 H   0  0  0  0  0  0  0  0  0  0  0  0
    0.0468    3.0097   -0.0495 H   0  0  0  0  0  0  0  0  0  0  0  0
   -1.3150    3.5145   -1.1696 H   0  0  0  0  0  0  0  0  0  0  0  0
   -1.6527    3.2413    1.5830 H   0  0  0  0  0  0  0  0  0  0  0  0
   -2.9494    0.9494    1.4948 H   0  0  0  0  0  0  0  0  0  0  0  0
   -1.1019    1.0476    1.7451 H   0  0  0  0  0  0  0  0  0  0  0  0
   -2.4192   -0.9681    2.5743 H   0  0  0  0  0  0  0  0  0  0  0  0
   -3.6950   -2.2527    2.4041 H   0  0  0  0  0  0  0  0  0  0  0  0
   -0.7007   -2.2444    1.3306 H   0  0  0  0  0  0  0  0  0  0  0  0
   -1.8554   -3.6573    1.5350 H   0  0  0  0  0  0  0  0  0  0  0  0
   -3.1726   -4.5712    0.4833 H   0  0  0  0  0  0  0  0  0  0  0  0
   -4.9669   -5.7243   -0.7498 H   0  0  0  0  0  0  0  0  0  0  0  0
   -6.3675   -2.1004   -2.3616 H   0  0  0  0  0  0  0  0  0  0  0  0
   -4.5655   -0.8992   -1.1259 H   0  0  0  0  0  0  0  0  0  0  0  0
   -5.9166    1.5792    0.0965 H   0  0  0  0  0  0  0  0  0  0  0  0
   -7.7493    1.2671    1.8016 H   0  0  0  0  0  0  0  0  0  0  0  0
   -7.6572    2.4777    3.9108 H   0  0  0  0  0  0  0  0  0  0  0  0
   -5.7415    4.0071    4.3344 H   0  0  0  0  0  0  0  0  0  0  0  0
    4.5577   -1.0580    2.2235 H   0  0  0  0  0  0  0  0  0  0  0  0
    6.9458   -0.2263    0.5814 H   0  0  0  0  0  0  0  0  0  0  0  0
    8.2540   -1.8777    1.6210 H   0  0  0  0  0  0  0  0  0  0  0  0
    6.7259   -2.7180    1.2448 H   0  0  0  0  0  0  0  0  0  0  0  0
    7.0130   -2.1240    2.9590 H   0  0  0  0  0  0  0  0  0  0  0  0
    8.8657    0.4084    2.4935 H   0  0  0  0  0  0  0  0  0  0  0  0
    7.4822    1.4946    4.7828 H   0  0  0  0  0  0  0  0  0  0  0  0
    9.1485    1.4759    4.5136 H   0  0  0  0  0  0  0  0  0  0  0  0
  1  2  1  0
  2  3  1  0
  3  4  1  0
  4  5  1  0
  5  6  1  0
  6  7  1  0
  7  8  2  0
  7  9  1  0
  9 10  1  0
 10 11  1  0
 11 12  1  0
 12 13  1  0
 13 14  1  0
 14 15  2  0
 14 16  1  0
 16 17  1  0
 17 18  1  0
 16 19  1  0
 19 20  2  0
 20 21  1  0
 21 22  2  0
 22 23  1  0
 22 24  1  0
 24 25  2  0
 11 26  1  0
 26 27  2  0
 26 28  2  0
 26 29  1  0
 29 30  2  0
 30 31  1  0
 31 32  2  0
 32 33  1  0
 33 34  2  0
 34 35  1  0
  5 36  1  0
 36 37  2  0
 36 38  1  0
 38 39  2  0
 38 40  1  0
 40 41  1  0
 41 42  1  0
 41 43  1  0
 43 44  2  0
 43 45  1  0
 45 46  1  0
 13  9  1  0
 18 16  1  0
 25 19  1  0
 34 29  1  0
  1 47  1  0
  1 48  1  0
  1 49  1  0
  2 50  1  0
  2 51  1  0
  3 52  1  0
  3 53  1  0
  4 54  1  0
  4 55  1  0
  5 56  1  6
  6 57  1  0
  9 58  1  6
 10 59  1  0
 10 60  1  0
 11 61  1  1
 12 62  1  0
 12 63  1  0
 17 64  1  0
 17 65  1  0
 18 66  1  0
 18 67  1  0
 20 68  1  0
 21 69  1  0
 24 70  1  0
 25 71  1  0
 30 72  1  0
 31 73  1  0
 32 74  1  0
 33 75  1  0
 40 76  1  0
 41 77  1  6
 42 78  1  0
 42 79  1  0
 42 80  1  0
 45 81  1  0
 46 82  1  0
 46 83  1  0
M  END
$$$$
[H]c1nc(-c2c([H])c([H])c(OC([H])([H])C([H])([H])C([H])([H])N3C(=O)N(c4c([H])c([H])c(C#N)c(C(F)(F)F)c4[H])C(=O)C3(C([H])([H])[H])C([H])([H])[H])c([H])c2[H])n([H])c1[H]
     RDKit          3D

 58 61  0  0  0  0  0  0  0  0999 V2000
   -0.9046   -0.8323    3.0730 C   0  0  0  0  0  0  0  0  0  0  0  0
   -1.6044   -0.3135    1.8682 C   0  0  0  0  0  0  0  0  0  0  0  0
   -1.2258    1.1101    1.5242 C   0  0  0  0  0  0  0  0  0  0  0  0
   -1.4070   -1.1044    0.6762 N   0  0  0  0  0  0  0  0  0  0  0  0
   -0.3695   -2.0518    0.3253 C   0  0  0  0  0  0  0  0  0  0  0  0
    0.8018   -1.3811   -0.3720 C   0  0  0  0  0  0  0  0  0  0  0  0
    1.7989   -2.4673   -0.6788 C   0  0  0  0  0  0  0  0  0  0  0  0
    2.9520   -2.0948   -1.3126 O   0  0  0  0  0  0  0  0  0  0  0  0
    3.9903   -1.2866   -1.0022 C   0  0  0  0  0  0  0  0  0  0  0  0
    4.9861   -1.1756   -1.9909 C   0  0  0  0  0  0  0  0  0  0  0  0
    6.0893   -0.4034   -1.8246 C   0  0  0  0  0  0  0  0  0  0  0  0
    6.2805    0.3091   -0.6712 C   0  0  0  0  0  0  0  0  0  0  0  0
    5.3239    0.2157    0.3051 C   0  0  0  0  0  0  0  0  0  0  0  0
    4.1849   -0.5765    0.1440 C   0  0  0  0  0  0  0  0  0  0  0  0
    7.4624    1.1372   -0.4907 C   0  0  0  0  0  0  0  0  0  0  0  0
    7.7794    1.8816    0.5714 N   0  0  0  0  0  0  0  0  0  0  0  0
    8.9446    2.4976    0.3603 C   0  0  0  0  0  0  0  0  0  0  0  0
    9.3853    2.1284   -0.8886 C   0  0  0  0  0  0  0  0  0  0  0  0
    8.4743    1.3069   -1.3832 N   0  0  0  0  0  0  0  0  0  0  0  0
   -2.5126   -0.7521   -0.1645 C   0  0  0  0  0  0  0  0  0  0  0  0
   -2.5862   -0.8332   -1.4314 O   0  0  0  0  0  0  0  0  0  0  0  0
   -3.5800   -0.2705    0.6590 N   0  0  0  0  0  0  0  0  0  0  0  0
   -3.0851   -0.3459    1.9893 C   0  0  0  0  0  0  0  0  0  0  0  0
   -3.7731   -0.4227    3.0288 O   0  0  0  0  0  0  0  0  0  0  0  0
   -4.8754    0.1897    0.2338 C   0  0  0  0  0  0  0  0  0  0  0  0
   -5.2957    1.4791    0.4886 C   0  0  0  0  0  0  0  0  0  0  0  0
   -6.5292    1.9584    0.0989 C   0  0  0  0  0  0  0  0  0  0  0  0
   -7.4018    1.1343   -0.5772 C   0  0  0  0  0  0  0  0  0  0  0  0
   -8.7039    1.5861   -1.0072 C   0  0  0  0  0  0  0  0  0  0  0  0
   -9.7536    1.9580   -1.3348 N   0  0  0  0  0  0  0  0  0  0  0  0
   -6.9864   -0.1576   -0.8351 C   0  0  0  0  0  0  0  0  0  0  0  0
   -5.7528   -0.6320   -0.4436 C   0  0  0  0  0  0  0  0  0  0  0  0
   -7.9496   -1.0397   -1.5720 C   0  0  0  0  0  0  0  0  0  0  0  0
   -7.4378   -2.2918   -1.7727 F   0  0  0  0  0  0  0  0  0  0  0  0
   -9.1519   -1.0616   -0.8927 F   0  0  0  0  0  0  0  0  0  0  0  0
   -8.1846   -0.4237   -2.7867 F   0  0  0  0  0  0  0  0  0  0  0  0
    0.0585   -1.3223    2.8884 H   0  0  0  0  0  0  0  0  0  0  0  0
   -0.7347    0.0201    3.7823 H   0  0  0  0  0  0  0  0  0  0  0  0
   -1.5310   -1.5571    3.6562 H   0  0  0  0  0  0  0  0  0  0  0  0
   -0.1538    1.3013    1.5408 H   0  0  0  0  0  0  0  0  0  0  0  0
   -1.8228    1.7756    2.1892 H   0  0  0  0  0  0  0  0  0  0  0  0
   -1.6418    1.2912    0.4906 H   0  0  0  0  0  0  0  0  0  0  0  0
   -0.7682   -2.8925   -0.2776 H   0  0  0  0  0  0  0  0  0  0  0  0
    0.0545   -2.5291    1.2466 H   0  0  0  0  0  0  0  0  0  0  0  0
    1.2720   -0.6247    0.2656 H   0  0  0  0  0  0  0  0  0  0  0  0
    0.4772   -0.8559   -1.2951 H   0  0  0  0  0  0  0  0  0  0  0  0
    2.0122   -3.0054    0.2788 H   0  0  0  0  0  0  0  0  0  0  0  0
    1.2861   -3.2623   -1.3038 H   0  0  0  0  0  0  0  0  0  0  0  0
    4.8959   -1.7153   -2.9307 H   0  0  0  0  0  0  0  0  0  0  0  0
    6.8603   -0.3226   -2.6005 H   0  0  0  0  0  0  0  0  0  0  0  0
    5.4625    0.7703    1.2152 H   0  0  0  0  0  0  0  0  0  0  0  0
    3.4695   -0.6327    0.9308 H   0  0  0  0  0  0  0  0  0  0  0  0
    9.4899    3.1741    1.0150 H   0  0  0  0  0  0  0  0  0  0  0  0
   10.3194    2.4790   -1.3362 H   0  0  0  0  0  0  0  0  0  0  0  0
    8.5158    0.8407   -2.3384 H   0  0  0  0  0  0  0  0  0  0  0  0
   -4.6040    2.1202    1.0206 H   0  0  0  0  0  0  0  0  0  0  0  0
   -6.8542    2.9714    0.3015 H   0  0  0  0  0  0  0  0  0  0  0  0
   -5.4461   -1.6395   -0.6525 H   0  0  0  0  0  0  0  0  0  0  0  0
  1  2  1  0
  2  3  1  0
  2  4  1  0
  4  5  1  0
  5  6  1  0
  6  7  1  0
  7  8  1  0
  8  9  1  0
  9 10  2  0
 10 11  1  0
 11 12  2  0
 12 13  1  0
 13 14  2  0
 12 15  1  0
 15 16  2  0
 16 17  1  0
 17 18  2  0
 18 19  1  0
  4 20  1  0
 20 21  2  0
 20 22  1  0
 22 23  1  0
 23 24  2  0
 22 25  1  0
 25 26  2  0
 26 27  1  0
 27 28  2  0
 28 29  1  0
 29 30  3  0
 28 31  1  0
 31 32  2  0
 31 33  1  0
 33 34  1  0
 33 35  1  0
 33 36  1  0
 23  2  1  0
 32 25  1  0
 14  9  1  0
 19 15  1  0
  1 37  1  0
  1 38  1  0
  1 39  1  0
  3 40  1  0
  3 41  1  0
  3 42  1  0
  5 43  1  0
  5 44  1  0
  6 45  1  0
  6 46  1  0
  7 47  1  0
  7 48  1  0
 10 49  1  0
 11 50  1  0
 13 51  1  0
 14 52  1  0
 17 53  1  0
 18 54  1  0
 19 55  1  0
 26 56  1  0
 27 57  1  0
 32 58  1  0
M  END
$$$$
[H]c1c(C([H])([H])[H])c([H])c(C([H])([H])[H])c(N([H])C(=O)c2c(C(=O)OC([H])([H])[H])c3c([H])c([H])c(C(=O)N([H])[H])c([H])c3n([H])c2=O)c1C([H])([H])[H]
     RDKit          3D

 51 53  0  0  0  0  0  0  0  0999 V2000
   -0.5199   -3.0061   -2.8235 C   0  0  0  0  0  0  0  0  0  0  0  0
   -1.0240   -1.7977   -2.2329 O   0  0  0  0  0  0  0  0  0  0  0  0
   -1.1962   -1.7332   -0.8812 C   0  0  0  0  0  0  0  0  0  0  0  0
   -0.8910   -2.7583   -0.1819 O   0  0  0  0  0  0  0  0  0  0  0  0
   -1.7119   -0.5878   -0.1315 C   0  0  0  0  0  0  0  0  0  0  0  0
   -0.8242    0.3819    0.3554 C   0  0  0  0  0  0  0  0  0  0  0  0
    0.5947    0.2683    0.1279 C   0  0  0  0  0  0  0  0  0  0  0  0
    1.0010   -0.7408   -0.5426 O   0  0  0  0  0  0  0  0  0  0  0  0
    1.6286    1.1105    0.5356 N   0  0  0  0  0  0  0  0  0  0  0  0
    3.0034    0.8745    0.2368 C   0  0  0  0  0  0  0  0  0  0  0  0
    3.5794    1.3664   -0.8947 C   0  0  0  0  0  0  0  0  0  0  0  0
    2.7976    2.1763   -1.8756 C   0  0  0  0  0  0  0  0  0  0  0  0
    4.9336    1.1174   -1.1608 C   0  0  0  0  0  0  0  0  0  0  0  0
    5.6681    0.3854   -0.2884 C   0  0  0  0  0  0  0  0  0  0  0  0
    7.1275    0.0861   -0.5227 C   0  0  0  0  0  0  0  0  0  0  0  0
    5.1145   -0.1148    0.8459 C   0  0  0  0  0  0  0  0  0  0  0  0
    3.7594    0.1398    1.1028 C   0  0  0  0  0  0  0  0  0  0  0  0
    3.2124   -0.4298    2.3519 C   0  0  0  0  0  0  0  0  0  0  0  0
   -1.3460    1.4588    1.0638 C   0  0  0  0  0  0  0  0  0  0  0  0
   -0.6201    2.3940    1.5475 O   0  0  0  0  0  0  0  0  0  0  0  0
   -2.6797    1.5261    1.2529 N   0  0  0  0  0  0  0  0  0  0  0  0
   -3.5343    0.6002    0.7889 C   0  0  0  0  0  0  0  0  0  0  0  0
   -4.8976    0.6873    0.9933 C   0  0  0  0  0  0  0  0  0  0  0  0
   -5.7446   -0.2920    0.4962 C   0  0  0  0  0  0  0  0  0  0  0  0
   -5.2561   -1.3718   -0.2103 C   0  0  0  0  0  0  0  0  0  0  0  0
   -3.8772   -1.4666   -0.4211 C   0  0  0  0  0  0  0  0  0  0  0  0
   -3.0658   -0.4824    0.0829 C   0  0  0  0  0  0  0  0  0  0  0  0
   -7.1783   -0.1747    0.7267 C   0  0  0  0  0  0  0  0  0  0  0  0
   -7.7085    0.9284    1.4518 N   0  0  0  0  0  0  0  0  0  0  0  0
   -7.9690   -1.0457    0.2888 O   0  0  0  0  0  0  0  0  0  0  0  0
   -0.7633   -3.0575   -3.9005 H   0  0  0  0  0  0  0  0  0  0  0  0
   -0.8113   -3.8921   -2.2577 H   0  0  0  0  0  0  0  0  0  0  0  0
    0.5919   -2.9220   -2.7573 H   0  0  0  0  0  0  0  0  0  0  0  0
    1.4420    1.9691    1.0900 H   0  0  0  0  0  0  0  0  0  0  0  0
    3.4319    2.5089   -2.6947 H   0  0  0  0  0  0  0  0  0  0  0  0
    2.4630    3.0841   -1.3175 H   0  0  0  0  0  0  0  0  0  0  0  0
    1.9228    1.6227   -2.2703 H   0  0  0  0  0  0  0  0  0  0  0  0
    5.4068    1.4997   -2.0532 H   0  0  0  0  0  0  0  0  0  0  0  0
    7.3113   -0.9882   -0.5548 H   0  0  0  0  0  0  0  0  0  0  0  0
    7.4460    0.4950   -1.5218 H   0  0  0  0  0  0  0  0  0  0  0  0
    7.6709    0.5507    0.3120 H   0  0  0  0  0  0  0  0  0  0  0  0
    5.6970   -0.6997    1.5450 H   0  0  0  0  0  0  0  0  0  0  0  0
    2.3234    0.1120    2.7260 H   0  0  0  0  0  0  0  0  0  0  0  0
    3.9702   -0.3535    3.1804 H   0  0  0  0  0  0  0  0  0  0  0  0
    3.0306   -1.5299    2.2436 H   0  0  0  0  0  0  0  0  0  0  0  0
   -3.0501    2.3307    1.7801 H   0  0  0  0  0  0  0  0  0  0  0  0
   -5.2994    1.5222    1.5423 H   0  0  0  0  0  0  0  0  0  0  0  0
   -5.9202   -2.1484   -0.6054 H   0  0  0  0  0  0  0  0  0  0  0  0
   -3.4658   -2.2908   -0.9647 H   0  0  0  0  0  0  0  0  0  0  0  0
   -7.3689    1.8791    1.1872 H   0  0  0  0  0  0  0  0  0  0  0  0
   -8.4047    0.8082    2.2149 H   0  0  0  0  0  0  0  0  0  0  0  0
  1  2  1  0
  2  3  1  0
  3  4  2  0
  3  5  1  0
  5  6  2  0
  6  7  1  0
  7  8  2  0
  7  9  1  0
  9 10  1  0
 10 11  2  0
 11 12  1  0
 11 13  1  0
 13 14  2  0
 14 15  1  0
 14 16  1  0
 16 17  2  0
 17 18  1  0
  6 19  1  0
 19 20  2  0
 19 21  1  0
 21 22  1  0
 22 23  2  0
 23 24  1  0
 24 25  2  0
 25 26  1  0
 26 27  2  0
 24 28  1  0
 28 29  1  0
 28 30  2  0
 27  5  1  0
 17 10  1  0
 27 22  1  0
  1 31  1  0
  1 32  1  0
  1 33  1  0
  9 34  1  0
 12 35  1  0
 12 36  1  0
 12 37  1  0
 13 38  1  0
 15 39  1  0
 15 40  1  0
 15 41  1  0
 16 42  1  0
 18 43  1  0
 18 44  1  0
 18 45  1  0
 21 46  1  0
 23 47  1  0
 25 48  1  0
 26 49  1  0
 29 50  1  0
 29 51  1  0
M  END
$$$$
[H]/C(=N/N=C(/C(=O)N([H])c1c([H])c([H])c([H])c([H])c1[H])C([H])([H])[H])c1c([H])c([H])c2c(c([H])nn2C([H])([H])C([H])([H])Oc2c([H])c([H])c([H])c([H])c2[H])c1[H]
     RDKit          3D

 55 58  0  0  0  0  0  0  0  0999 V2000
   -5.1869   -1.0472    3.4083 C   0  0  0  0  0  0  0  0  0  0  0  0
   -4.3864   -0.3830    2.3587 C   0  0  0  0  0  0  0  0  0  0  0  0
   -3.1464   -0.1366    2.6510 N   0  0  0  0  0  0  0  0  0  0  0  0
   -2.5297   -0.4260    3.8095 N   0  0  0  0  0  0  0  0  0  0  0  0
   -1.3617   -0.8473    3.9666 C   0  0  0  0  0  0  0  0  0  0  0  0
   -0.4548   -1.0998    2.8877 C   0  0  0  0  0  0  0  0  0  0  0  0
   -0.6195   -0.9337    1.5511 C   0  0  0  0  0  0  0  0  0  0  0  0
    0.3739   -1.2429    0.5973 C   0  0  0  0  0  0  0  0  0  0  0  0
    1.5882   -1.7416    1.0086 C   0  0  0  0  0  0  0  0  0  0  0  0
    2.7189   -2.1319    0.4103 N   0  0  0  0  0  0  0  0  0  0  0  0
    2.9364   -2.1132   -1.0142 C   0  0  0  0  0  0  0  0  0  0  0  0
    3.5196   -0.8007   -1.4866 C   0  0  0  0  0  0  0  0  0  0  0  0
    4.7712   -0.5410   -0.8779 O   0  0  0  0  0  0  0  0  0  0  0  0
    5.5060    0.6045   -1.1527 C   0  0  0  0  0  0  0  0  0  0  0  0
    6.7137    0.8002   -0.5305 C   0  0  0  0  0  0  0  0  0  0  0  0
    7.4265    1.9405   -0.8157 C   0  0  0  0  0  0  0  0  0  0  0  0
    6.9717    2.8891   -1.7008 C   0  0  0  0  0  0  0  0  0  0  0  0
    5.7637    2.6885   -2.3201 C   0  0  0  0  0  0  0  0  0  0  0  0
    5.0449    1.5487   -2.0390 C   0  0  0  0  0  0  0  0  0  0  0  0
    3.5905   -2.5346    1.2888 N   0  0  0  0  0  0  0  0  0  0  0  0
    3.0603   -2.4227    2.5018 C   0  0  0  0  0  0  0  0  0  0  0  0
    1.7892   -1.9226    2.3643 C   0  0  0  0  0  0  0  0  0  0  0  0
    0.7984   -1.6104    3.2639 C   0  0  0  0  0  0  0  0  0  0  0  0
   -5.0040   -0.0341    1.0758 C   0  0  0  0  0  0  0  0  0  0  0  0
   -6.2042   -0.3424    0.9489 O   0  0  0  0  0  0  0  0  0  0  0  0
   -4.3064    0.6046    0.0501 N   0  0  0  0  0  0  0  0  0  0  0  0
   -4.7376    1.0027   -1.2243 C   0  0  0  0  0  0  0  0  0  0  0  0
   -3.8854    1.8095   -1.9979 C   0  0  0  0  0  0  0  0  0  0  0  0
   -4.2589    2.2184   -3.2559 C   0  0  0  0  0  0  0  0  0  0  0  0
   -5.4807    1.8554   -3.8091 C   0  0  0  0  0  0  0  0  0  0  0  0
   -6.2914    1.0698   -3.0356 C   0  0  0  0  0  0  0  0  0  0  0  0
   -5.9490    0.6385   -1.7644 C   0  0  0  0  0  0  0  0  0  0  0  0
   -5.4553   -0.3707    4.2367 H   0  0  0  0  0  0  0  0  0  0  0  0
   -4.6155   -1.9386    3.7563 H   0  0  0  0  0  0  0  0  0  0  0  0
   -6.1402   -1.4804    2.9878 H   0  0  0  0  0  0  0  0  0  0  0  0
   -1.0078   -1.0357    5.0289 H   0  0  0  0  0  0  0  0  0  0  0  0
   -1.5294   -0.5472    1.1590 H   0  0  0  0  0  0  0  0  0  0  0  0
    0.1810   -1.0893   -0.4442 H   0  0  0  0  0  0  0  0  0  0  0  0
    1.9757   -2.2828   -1.5147 H   0  0  0  0  0  0  0  0  0  0  0  0
    3.6590   -2.9115   -1.2855 H   0  0  0  0  0  0  0  0  0  0  0  0
    3.7153   -0.8817   -2.5762 H   0  0  0  0  0  0  0  0  0  0  0  0
    2.8051    0.0181   -1.3508 H   0  0  0  0  0  0  0  0  0  0  0  0
    7.1357    0.0954    0.1790 H   0  0  0  0  0  0  0  0  0  0  0  0
    8.3835    2.0764   -0.3106 H   0  0  0  0  0  0  0  0  0  0  0  0
    7.5829    3.7833   -1.8923 H   0  0  0  0  0  0  0  0  0  0  0  0
    5.4028    3.4439   -3.0238 H   0  0  0  0  0  0  0  0  0  0  0  0
    4.0818    1.3945   -2.5363 H   0  0  0  0  0  0  0  0  0  0  0  0
    3.5273   -2.6731    3.4270 H   0  0  0  0  0  0  0  0  0  0  0  0
    1.0097   -1.7719    4.3065 H   0  0  0  0  0  0  0  0  0  0  0  0
   -3.2717    0.8297    0.2593 H   0  0  0  0  0  0  0  0  0  0  0  0
   -2.9179    2.1387   -1.6466 H   0  0  0  0  0  0  0  0  0  0  0  0
   -3.6198    2.8493   -3.8880 H   0  0  0  0  0  0  0  0  0  0  0  0
   -5.7474    2.1916   -4.7994 H   0  0  0  0  0  0  0  0  0  0  0  0
   -7.2491    0.7801   -3.4578 H   0  0  0  0  0  0  0  0  0  0  0  0
   -6.6752    0.0230   -1.2690 H   0  0  0  0  0  0  0  0  0  0  0  0
  1  2  1  0
  2  3  2  0
  3  4  1  0
  4  5  2  0
  5  6  1  0
  6  7  2  0
  7  8  1  0
  8  9  2  0
  9 10  1  0
 10 11  1  0
 11 12  1  0
 12 13  1  0
 13 14  1  0
 14 15  2  0
 15 16  1  0
 16 17  2  0
 17 18  1  0
 18 19  2  0
 10 20  1  0
 20 21  2  0
 21 22  1  0
 22 23  2  0
  2 24  1  0
 24 25  2  0
 24 26  1  0
 26 27  1  0
 27 28  2  0
 28 29  1  0
 29 30  2  0
 30 31  1  0
 31 32  2  0
 23  6  1  0
 32 27  1  0
 22  9  1  0
 19 14  1  0
  1 33  1  0
  1 34  1  0
  1 35  1  0
  5 36  1  0
  7 37  1  0
  8 38  1  0
 11 39  1  0
 11 40  1  0
 12 41  1  0
 12 42  1  0
 15 43  1  0
 16 44  1  0
 17 45  1  0
 18 46  1  0
 19 47  1  0
 21 48  1  0
 23 49  1  0
 26 50  1  0
 28 51  1  0
 29 52  1  0
 30 53  1  0
 31 54  1  0
 32 55  1  0
M  END
$$$$
[H]Oc1c([H])c([H])c2c(c1[H])C([H])([H])C([H])([H])[C@@]1([H])O[C@]2([H])[C@]2(C([H])([H])[H])C([H])([H])C([H])([H])[C@]([H])(O[H])[C@@]1([H])C([H])([H])C([H])([H])C2(C([H])([H])[H])C([H])([H])[H]
     RDKit          3D

 54 57  0  0  0  0  0  0  0  0999 V2000
   -0.6957    2.5340    0.9852 C   0  0  0  0  0  0  0  0  0  0  0  0
   -0.6600    1.0435    0.6100 C   0  0  1  0  0  0  0  0  0  0  0  0
   -1.3266    0.4370    1.8725 C   0  0  0  0  0  0  0  0  0  0  0  0
   -1.1383   -0.9448    2.2308 C   0  0  0  0  0  0  0  0  0  0  0  0
   -1.6291   -2.0928    1.4824 C   0  0  2  0  0  0  0  0  0  0  0  0
   -1.2062   -3.2572    2.1862 O   0  0  0  0  0  0  0  0  0  0  0  0
   -1.1047   -2.3025    0.0884 C   0  0  1  0  0  0  0  0  0  0  0  0
   -2.1176   -1.6023   -0.8285 C   0  0  0  0  0  0  0  0  0  0  0  0
   -2.6008   -0.3071   -0.3645 C   0  0  0  0  0  0  0  0  0  0  0  0
   -1.8050    0.9345   -0.4259 C   0  0  0  0  0  0  0  0  0  0  0  0
   -2.8473    2.0518   -0.1962 C   0  0  0  0  0  0  0  0  0  0  0  0
   -1.3431    1.1559   -1.8326 C   0  0  0  0  0  0  0  0  0  0  0  0
    0.2590   -1.7877   -0.0028 C   0  0  1  0  0  0  0  0  0  0  0  0
    1.2538   -2.4277   -0.9060 C   0  0  0  0  0  0  0  0  0  0  0  0
    2.5985   -1.8367   -0.6053 C   0  0  0  0  0  0  0  0  0  0  0  0
    2.7130   -0.3894   -0.6052 C   0  0  0  0  0  0  0  0  0  0  0  0
    3.9521   -0.0152   -1.1140 C   0  0  0  0  0  0  0  0  0  0  0  0
    4.3637    1.2887   -1.2487 C   0  0  0  0  0  0  0  0  0  0  0  0
    5.6328    1.6035   -1.7719 O   0  0  0  0  0  0  0  0  0  0  0  0
    3.4928    2.2797   -0.8545 C   0  0  0  0  0  0  0  0  0  0  0  0
    2.2637    1.9333   -0.3489 C   0  0  0  0  0  0  0  0  0  0  0  0
    1.8212    0.6535   -0.2004 C   0  0  0  0  0  0  0  0  0  0  0  0
    0.5522    0.4030    0.3463 C   0  0  2  0  0  0  0  0  0  0  0  0
    0.0663   -0.5690   -0.5898 O   0  0  0  0  0  0  0  0  0  0  0  0
   -0.6701    3.2111    0.1478 H   0  0  0  0  0  0  0  0  0  0  0  0
    0.0833    2.7567    1.7721 H   0  0  0  0  0  0  0  0  0  0  0  0
   -1.6441    2.7900    1.5445 H   0  0  0  0  0  0  0  0  0  0  0  0
   -2.3536    0.7735    1.9825 H   0  0  0  0  0  0  0  0  0  0  0  0
   -0.7912    0.9808    2.7290 H   0  0  0  0  0  0  0  0  0  0  0  0
   -1.7635   -1.0135    3.2020 H   0  0  0  0  0  0  0  0  0  0  0  0
   -0.1443   -1.2131    2.7140 H   0  0  0  0  0  0  0  0  0  0  0  0
   -2.7530   -2.2272    1.4893 H   0  0  0  0  0  0  0  0  0  0  0  0
   -0.7129   -3.0490    2.9934 H   0  0  0  0  0  0  0  0  0  0  0  0
   -1.1204   -3.3931   -0.1764 H   0  0  0  0  0  0  0  0  0  0  0  0
   -3.0104   -2.2995   -0.8051 H   0  0  0  0  0  0  0  0  0  0  0  0
   -1.7192   -1.6779   -1.8337 H   0  0  0  0  0  0  0  0  0  0  0  0
   -3.4786   -0.0886   -1.0701 H   0  0  0  0  0  0  0  0  0  0  0  0
   -3.1777   -0.4548    0.5948 H   0  0  0  0  0  0  0  0  0  0  0  0
   -3.3363    2.0191    0.7613 H   0  0  0  0  0  0  0  0  0  0  0  0
   -3.6804    1.7802   -0.9272 H   0  0  0  0  0  0  0  0  0  0  0  0
   -2.5231    3.0216   -0.5803 H   0  0  0  0  0  0  0  0  0  0  0  0
   -0.3810    1.6388   -1.9617 H   0  0  0  0  0  0  0  0  0  0  0  0
   -1.3112    0.2142   -2.4524 H   0  0  0  0  0  0  0  0  0  0  0  0
   -2.0607    1.7883   -2.4417 H   0  0  0  0  0  0  0  0  0  0  0  0
    0.7422   -1.7679    0.9935 H   0  0  0  0  0  0  0  0  0  0  0  0
    1.2927   -3.4950   -0.7020 H   0  0  0  0  0  0  0  0  0  0  0  0
    1.0077   -2.2550   -1.9736 H   0  0  0  0  0  0  0  0  0  0  0  0
    3.3033   -2.2625   -1.3449 H   0  0  0  0  0  0  0  0  0  0  0  0
    2.9366   -2.2213    0.3885 H   0  0  0  0  0  0  0  0  0  0  0  0
    4.6550   -0.7737   -1.4314 H   0  0  0  0  0  0  0  0  0  0  0  0
    5.8883    2.5657   -1.8511 H   0  0  0  0  0  0  0  0  0  0  0  0
    3.7811    3.3110   -0.9455 H   0  0  0  0  0  0  0  0  0  0  0  0
    1.6033    2.6907   -0.0494 H   0  0  0  0  0  0  0  0  0  0  0  0
    0.8431   -0.1358    1.3270 H   0  0  0  0  0  0  0  0  0  0  0  0
  2  1  1  1
  2  3  1  0
  3  4  1  0
  4  5  1  0
  5  6  1  0
  5  7  1  0
  7  8  1  0
  8  9  1  0
  9 10  1  0
 10 11  1  0
 10 12  1  0
  7 13  1  0
 13 14  1  0
 14 15  1  0
 15 16  1  0
 16 17  2  0
 17 18  1  0
 18 19  1  0
 18 20  2  0
 20 21  1  0
 21 22  2  0
 22 23  1  0
 23 24  1  0
 10  2  1  0
 24 13  1  0
 23  2  1  0
 22 16  1  0
  1 25  1  0
  1 26  1  0
  1 27  1  0
  3 28  1  0
  3 29  1  0
  4 30  1  0
  4 31  1  0
  5 32  1  6
  6 33  1  0
  7 34  1  6
  8 35  1  0
  8 36  1  0
  9 37  1  0
  9 38  1  0
 11 39  1  0
 11 40  1  0
 11 41  1  0
 12 42  1  0
 12 43  1  0
 12 44  1  0
 13 45  1  1
 14 46  1  0
 14 47  1  0
 15 48  1  0
 15 49  1  0
 17 50  1  0
 19 51  1  0
 20 52  1  0
 21 53  1  0
 23 54  1  1
M  END
$$$$
[H]c1c([H])c(N(C([H])([H])[H])S(=O)(=O)C([H])([H])[H])c([H])c([H])c1-c1c([H])c([H])c(S(=O)(=O)N([H])[C@@]([H])(C(F)(F)F)C([H])(C([H])([H])[H])C([H])([H])[H])c([H])c1[H]
     RDKit          3D

 53 54  0  0  0  0  0  0  0  0999 V2000
   -6.6358   -0.2694   -1.7008 C   0  0  0  0  0  0  0  0  0  0  0  0
   -5.9619   -1.5688   -1.3763 C   0  0  0  0  0  0  0  0  0  0  0  0
   -6.4136   -1.9243    0.0434 C   0  0  0  0  0  0  0  0  0  0  0  0
   -4.4529   -1.4838   -1.3418 C   0  0  1  0  0  0  0  0  0  0  0  0
   -3.8684   -2.7262   -1.0321 N   0  0  0  0  0  0  0  0  0  0  0  0
   -2.9771   -2.9554    0.3465 S   0  0  0  0  0  0  0  0  0  0  0  0
   -2.4606   -4.3968    0.3161 O   0  0  0  0  0  0  0  0  0  0  0  0
   -3.7165   -2.8653    1.6574 O   0  0  0  0  0  0  0  0  0  0  0  0
   -1.5355   -1.9727    0.4931 C   0  0  0  0  0  0  0  0  0  0  0  0
   -1.5319   -0.7362    1.1042 C   0  0  0  0  0  0  0  0  0  0  0  0
   -0.3707    0.0213    1.2070 C   0  0  0  0  0  0  0  0  0  0  0  0
    0.8241   -0.4428    0.6974 C   0  0  0  0  0  0  0  0  0  0  0  0
    0.8395   -1.6655    0.0885 C   0  0  0  0  0  0  0  0  0  0  0  0
   -0.3197   -2.3962   -0.0015 C   0  0  0  0  0  0  0  0  0  0  0  0
    2.0372    0.3847    0.8242 C   0  0  0  0  0  0  0  0  0  0  0  0
    1.9755    1.7695    0.8151 C   0  0  0  0  0  0  0  0  0  0  0  0
    3.1367    2.5434    0.9358 C   0  0  0  0  0  0  0  0  0  0  0  0
    4.3588    1.9411    1.0654 C   0  0  0  0  0  0  0  0  0  0  0  0
    4.4291    0.5654    1.0754 C   0  0  0  0  0  0  0  0  0  0  0  0
    3.2712   -0.2141    0.9551 C   0  0  0  0  0  0  0  0  0  0  0  0
    5.5275    2.7561    1.1861 N   0  0  0  0  0  0  0  0  0  0  0  0
    5.9881    3.1721    2.5012 C   0  0  0  0  0  0  0  0  0  0  0  0
    6.4262    3.2745   -0.1837 S   0  0  0  0  0  0  0  0  0  0  0  0
    7.0742    1.8456   -1.0640 C   0  0  0  0  0  0  0  0  0  0  0  0
    5.6068    4.1102   -1.1150 O   0  0  0  0  0  0  0  0  0  0  0  0
    7.6226    4.0439    0.2849 O   0  0  0  0  0  0  0  0  0  0  0  0
   -3.9013   -0.8324   -2.5943 C   0  0  0  0  0  0  0  0  0  0  0  0
   -4.2216   -1.4985   -3.7412 F   0  0  0  0  0  0  0  0  0  0  0  0
   -4.3539    0.4636   -2.7240 F   0  0  0  0  0  0  0  0  0  0  0  0
   -2.5140   -0.7228   -2.4333 F   0  0  0  0  0  0  0  0  0  0  0  0
   -6.2404    0.5941   -1.1270 H   0  0  0  0  0  0  0  0  0  0  0  0
   -7.6946   -0.3786   -1.3113 H   0  0  0  0  0  0  0  0  0  0  0  0
   -6.7715   -0.0782   -2.7776 H   0  0  0  0  0  0  0  0  0  0  0  0
   -6.3189   -2.3290   -2.0996 H   0  0  0  0  0  0  0  0  0  0  0  0
   -7.5214   -1.7693    0.1410 H   0  0  0  0  0  0  0  0  0  0  0  0
   -5.9597   -1.2702    0.7877 H   0  0  0  0  0  0  0  0  0  0  0  0
   -6.2474   -2.9827    0.2723 H   0  0  0  0  0  0  0  0  0  0  0  0
   -4.2065   -0.7757   -0.5186 H   0  0  0  0  0  0  0  0  0  0  0  0
   -4.2928   -3.5588   -1.4831 H   0  0  0  0  0  0  0  0  0  0  0  0
   -2.4464   -0.3472    1.5109 H   0  0  0  0  0  0  0  0  0  0  0  0
   -0.4357    0.9862    1.6996 H   0  0  0  0  0  0  0  0  0  0  0  0
    1.7704   -2.0403   -0.3152 H   0  0  0  0  0  0  0  0  0  0  0  0
   -0.2938   -3.3791   -0.4942 H   0  0  0  0  0  0  0  0  0  0  0  0
    1.0031    2.2600    0.7120 H   0  0  0  0  0  0  0  0  0  0  0  0
    3.0649    3.6110    0.9263 H   0  0  0  0  0  0  0  0  0  0  0  0
    5.3960    0.1045    1.1778 H   0  0  0  0  0  0  0  0  0  0  0  0
    3.3449   -1.2914    0.9648 H   0  0  0  0  0  0  0  0  0  0  0  0
    5.5422    2.4887    3.2710 H   0  0  0  0  0  0  0  0  0  0  0  0
    5.6696    4.2152    2.6910 H   0  0  0  0  0  0  0  0  0  0  0  0
    7.1043    3.0986    2.5192 H   0  0  0  0  0  0  0  0  0  0  0  0
    7.8278    1.3225   -0.4410 H   0  0  0  0  0  0  0  0  0  0  0  0
    7.5680    2.1489   -1.9877 H   0  0  0  0  0  0  0  0  0  0  0  0
    6.2560    1.1509   -1.3033 H   0  0  0  0  0  0  0  0  0  0  0  0
  1  2  1  0
  2  3  1  0
  2  4  1  0
  4  5  1  0
  5  6  1  0
  6  7  2  0
  6  8  2  0
  6  9  1  0
  9 10  2  0
 10 11  1  0
 11 12  2  0
 12 13  1  0
 13 14  2  0
 12 15  1  0
 15 16  2  0
 16 17  1  0
 17 18  2  0
 18 19  1  0
 19 20  2  0
 18 21  1  0
 21 22  1  0
 21 23  1  0
 23 24  1  0
 23 25  2  0
 23 26  2  0
  4 27  1  0
 27 28  1  0
 27 29  1  0
 27 30  1  0
 14  9  1  0
 20 15  1  0
  1 31  1  0
  1 32  1  0
  1 33  1  0
  2 34  1  0
  3 35  1  0
  3 36  1  0
  3 37  1  0
  4 38  1  1
  5 39  1  0
 10 40  1  0
 11 41  1  0
 13 42  1  0
 14 43  1  0
 16 44  1  0
 17 45  1  0
 19 46  1  0
 20 47  1  0
 22 48  1  0
 22 49  1  0
 22 50  1  0
 24 51  1  0
 24 52  1  0
 24 53  1  0
M  END
$$$$
[H]/C(=C(C(=O)N([H])[H])\C([H])=C(/[H])c1c([H])c([H])c(C(=O)N([H])C(=O)N([H])C([H])([H])C([H])([H])c2sc([H])c([H])c2[H])c([H])c1[H])c1c([H])c([H])c([H])c([H])c1[H]
     RDKit          3D

 55 57  0  0  0  0  0  0  0  0999 V2000
   -5.4144    0.6464    1.3320 N   0  0  0  0  0  0  0  0  0  0  0  0
   -5.3254   -0.6792    1.8778 C   0  0  0  0  0  0  0  0  0  0  0  0
   -6.4304   -1.1259    2.2846 O   0  0  0  0  0  0  0  0  0  0  0  0
   -4.1185   -1.4564    2.0036 C   0  0  0  0  0  0  0  0  0  0  0  0
   -4.1426   -2.5762    2.7050 C   0  0  0  0  0  0  0  0  0  0  0  0
   -5.2340   -3.1768    3.4113 C   0  0  0  0  0  0  0  0  0  0  0  0
   -5.9444   -2.6891    4.4663 C   0  0  0  0  0  0  0  0  0  0  0  0
   -6.9741   -3.4506    5.0105 C   0  0  0  0  0  0  0  0  0  0  0  0
   -7.2774   -4.6844    4.4941 C   0  0  0  0  0  0  0  0  0  0  0  0
   -6.5746   -5.1944    3.4343 C   0  0  0  0  0  0  0  0  0  0  0  0
   -5.5710   -4.4627    2.8952 C   0  0  0  0  0  0  0  0  0  0  0  0
   -2.8517   -1.1788    1.2670 C   0  0  0  0  0  0  0  0  0  0  0  0
   -2.6615   -0.1430    0.5368 C   0  0  0  0  0  0  0  0  0  0  0  0
   -1.4002    0.0809   -0.1751 C   0  0  0  0  0  0  0  0  0  0  0  0
   -0.3485   -0.7417   -0.1434 C   0  0  0  0  0  0  0  0  0  0  0  0
    0.8244   -0.6506   -0.8504 C   0  0  0  0  0  0  0  0  0  0  0  0
    0.9151    0.4564   -1.7218 C   0  0  0  0  0  0  0  0  0  0  0  0
   -0.1566    1.3267   -1.7751 C   0  0  0  0  0  0  0  0  0  0  0  0
   -1.3021    1.2101   -1.0618 C   0  0  0  0  0  0  0  0  0  0  0  0
    2.0228    0.6882   -2.5404 C   0  0  0  0  0  0  0  0  0  0  0  0
    2.0528    1.1023   -3.6305 O   0  0  0  0  0  0  0  0  0  0  0  0
    3.4908    0.2992   -1.7804 N   0  0  0  0  0  0  0  0  0  0  0  0
    4.2982    0.6678   -2.8090 C   0  0  0  0  0  0  0  0  0  0  0  0
    3.9910    1.0466   -3.9558 O   0  0  0  0  0  0  0  0  0  0  0  0
    5.7444    0.6565   -2.6039 N   0  0  0  0  0  0  0  0  0  0  0  0
    6.6427    1.2108   -3.6191 C   0  0  0  0  0  0  0  0  0  0  0  0
    6.3396    2.6968   -3.7450 C   0  0  0  0  0  0  0  0  0  0  0  0
    6.6190    3.4372   -2.4564 C   0  0  0  0  0  0  0  0  0  0  0  0
    5.8358    3.7288   -1.3905 C   0  0  0  0  0  0  0  0  0  0  0  0
    6.3788    4.4368   -0.3913 C   0  0  0  0  0  0  0  0  0  0  0  0
    7.6792    4.8212   -0.5051 C   0  0  0  0  0  0  0  0  0  0  0  0
    8.1304    4.1751   -2.0309 S   0  0  0  0  0  0  0  0  0  0  0  0
   -4.9559    1.4055    1.8502 H   0  0  0  0  0  0  0  0  0  0  0  0
   -5.9173    0.8154    0.4663 H   0  0  0  0  0  0  0  0  0  0  0  0
   -3.1613   -3.1399    2.7608 H   0  0  0  0  0  0  0  0  0  0  0  0
   -5.6960   -1.7302    4.8818 H   0  0  0  0  0  0  0  0  0  0  0  0
   -7.5298   -3.0409    5.8427 H   0  0  0  0  0  0  0  0  0  0  0  0
   -8.0827   -5.2978    4.8997 H   0  0  0  0  0  0  0  0  0  0  0  0
   -6.8369   -6.1846    3.0560 H   0  0  0  0  0  0  0  0  0  0  0  0
   -4.9970   -4.8724    2.0446 H   0  0  0  0  0  0  0  0  0  0  0  0
   -2.0456   -1.8963    1.3578 H   0  0  0  0  0  0  0  0  0  0  0  0
   -3.4175    0.6355    0.3782 H   0  0  0  0  0  0  0  0  0  0  0  0
   -0.3512   -1.6373    0.5512 H   0  0  0  0  0  0  0  0  0  0  0  0
    1.6137   -1.3832   -0.7557 H   0  0  0  0  0  0  0  0  0  0  0  0
   -0.0741    2.2118   -2.4659 H   0  0  0  0  0  0  0  0  0  0  0  0
   -2.1171    1.8819   -1.0964 H   0  0  0  0  0  0  0  0  0  0  0  0
    2.9025    0.0358   -1.0460 H   0  0  0  0  0  0  0  0  0  0  0  0
    6.1214    0.2619   -1.7586 H   0  0  0  0  0  0  0  0  0  0  0  0
    6.4370    0.7692   -4.5755 H   0  0  0  0  0  0  0  0  0  0  0  0
    7.6759    1.1218   -3.2619 H   0  0  0  0  0  0  0  0  0  0  0  0
    5.3370    2.9333   -4.0900 H   0  0  0  0  0  0  0  0  0  0  0  0
    7.0432    3.1273   -4.4674 H   0  0  0  0  0  0  0  0  0  0  0  0
    4.7704    3.3746   -1.3793 H   0  0  0  0  0  0  0  0  0  0  0  0
    5.7752    4.7229    0.5152 H   0  0  0  0  0  0  0  0  0  0  0  0
    8.2685    5.4074    0.2230 H   0  0  0  0  0  0  0  0  0  0  0  0
  1  2  1  0
  2  3  2  0
  2  4  1  0
  4  5  2  0
  5  6  1  0
  6  7  2  0
  7  8  1  0
  8  9  2  0
  9 10  1  0
 10 11  2  0
  4 12  1  0
 12 13  2  0
 13 14  1  0
 14 15  2  0
 15 16  1  0
 16 17  2  0
 17 18  1  0
 18 19  2  0
 17 20  1  0
 20 21  2  0
 20 22  1  0
 22 23  1  0
 23 24  2  0
 23 25  1  0
 25 26  1  0
 26 27  1  0
 27 28  1  0
 28 29  2  0
 29 30  1  0
 30 31  2  0
 31 32  1  0
 11  6  1  0
 19 14  1  0
 32 28  1  0
  1 33  1  0
  1 34  1  0
  5 35  1  0
  7 36  1  0
  8 37  1  0
  9 38  1  0
 10 39  1  0
 11 40  1  0
 12 41  1  0
 13 42  1  0
 15 43  1  0
 16 44  1  0
 18 45  1  0
 19 46  1  0
 22 47  1  0
 25 48  1  0
 26 49  1  0
 26 50  1  0
 27 51  1  0
 27 52  1  0
 29 53  1  0
 30 54  1  0
 31 55  1  0
M  END
$$$$
[H]c1nc(N(c2nc3c([H])c(-c4c([H])nc([H])c(C#N)c4[H])nc([H])c3c([H])c2[H])C([H])([H])C([H])([H])[H])c(C(F)(F)F)c([H])c1[H]
     RDKit          3D

 46 49  0  0  0  0  0  0  0  0999 V2000
   -2.4062   -2.5639   -1.1497 C   0  0  0  0  0  0  0  0  0  0  0  0
   -3.3526   -1.6839   -0.3730 C   0  0  0  0  0  0  0  0  0  0  0  0
   -2.7793   -0.4593    0.1037 N   0  0  0  0  0  0  0  0  0  0  0  0
   -1.5520   -0.5994    0.8284 C   0  0  0  0  0  0  0  0  0  0  0  0
   -1.6027   -0.9661    2.1797 C   0  0  0  0  0  0  0  0  0  0  0  0
   -0.4648   -1.1229    2.9415 C   0  0  0  0  0  0  0  0  0  0  0  0
    0.7670   -0.9187    2.3783 C   0  0  0  0  0  0  0  0  0  0  0  0
    1.9676   -1.0512    3.0580 C   0  0  0  0  0  0  0  0  0  0  0  0
    3.1427   -0.8341    2.4404 N   0  0  0  0  0  0  0  0  0  0  0  0
    3.2329   -0.4808    1.1477 C   0  0  0  0  0  0  0  0  0  0  0  0
    2.0469   -0.3482    0.4682 C   0  0  0  0  0  0  0  0  0  0  0  0
    0.7959   -0.5584    1.0469 C   0  0  0  0  0  0  0  0  0  0  0  0
   -0.3323   -0.4147    0.3343 N   0  0  0  0  0  0  0  0  0  0  0  0
    4.5214   -0.2559    0.4926 C   0  0  0  0  0  0  0  0  0  0  0  0
    5.7039   -0.4554    1.1994 C   0  0  0  0  0  0  0  0  0  0  0  0
    6.8996   -0.2444    0.6101 N   0  0  0  0  0  0  0  0  0  0  0  0
    7.0450    0.1604   -0.6597 C   0  0  0  0  0  0  0  0  0  0  0  0
    5.9091    0.3742   -1.4084 C   0  0  0  0  0  0  0  0  0  0  0  0
    5.9974    0.8071   -2.7721 C   0  0  0  0  0  0  0  0  0  0  0  0
    6.0489    1.1481   -3.8771 N   0  0  0  0  0  0  0  0  0  0  0  0
    4.6543    0.1598   -0.8122 C   0  0  0  0  0  0  0  0  0  0  0  0
   -3.3670    0.8082   -0.0297 C   0  0  0  0  0  0  0  0  0  0  0  0
   -3.7969    1.4183    1.1540 N   0  0  0  0  0  0  0  0  0  0  0  0
   -4.3753    2.6189    1.1665 C   0  0  0  0  0  0  0  0  0  0  0  0
   -4.5741    3.3098    0.0057 C   0  0  0  0  0  0  0  0  0  0  0  0
   -4.1767    2.7626   -1.1600 C   0  0  0  0  0  0  0  0  0  0  0  0
   -3.5652    1.4985   -1.1877 C   0  0  0  0  0  0  0  0  0  0  0  0
   -3.1582    0.9658   -2.4940 C   0  0  0  0  0  0  0  0  0  0  0  0
   -1.8134    0.6624   -2.6043 F   0  0  0  0  0  0  0  0  0  0  0  0
   -3.9976    0.0381   -3.0496 F   0  0  0  0  0  0  0  0  0  0  0  0
   -3.2691    2.0631   -3.4130 F   0  0  0  0  0  0  0  0  0  0  0  0
   -1.5264   -2.0484   -1.5486 H   0  0  0  0  0  0  0  0  0  0  0  0
   -2.0431   -3.4481   -0.5647 H   0  0  0  0  0  0  0  0  0  0  0  0
   -2.9540   -2.9942   -2.0121 H   0  0  0  0  0  0  0  0  0  0  0  0
   -4.3521   -1.6090   -0.8127 H   0  0  0  0  0  0  0  0  0  0  0  0
   -3.5628   -2.2946    0.5852 H   0  0  0  0  0  0  0  0  0  0  0  0
   -2.5463   -1.1340    2.6620 H   0  0  0  0  0  0  0  0  0  0  0  0
   -0.4920   -1.4070    3.9881 H   0  0  0  0  0  0  0  0  0  0  0  0
    1.9292   -1.3394    4.1155 H   0  0  0  0  0  0  0  0  0  0  0  0
    2.0148   -0.0634   -0.5927 H   0  0  0  0  0  0  0  0  0  0  0  0
    5.6655   -0.7787    2.2157 H   0  0  0  0  0  0  0  0  0  0  0  0
    8.0032    0.3279   -1.1267 H   0  0  0  0  0  0  0  0  0  0  0  0
    3.7835    0.3331   -1.4019 H   0  0  0  0  0  0  0  0  0  0  0  0
   -4.6841    3.0264    2.1385 H   0  0  0  0  0  0  0  0  0  0  0  0
   -5.0527    4.2935    0.0377 H   0  0  0  0  0  0  0  0  0  0  0  0
   -4.3322    3.2979   -2.0791 H   0  0  0  0  0  0  0  0  0  0  0  0
  1  2  1  0
  2  3  1  0
  3  4  1  0
  4  5  2  0
  5  6  1  0
  6  7  2  0
  7  8  1  0
  8  9  2  0
  9 10  1  0
 10 11  2  0
 11 12  1  0
 12 13  2  0
 10 14  1  0
 14 15  2  0
 15 16  1  0
 16 17  2  0
 17 18  1  0
 18 19  1  0
 19 20  3  0
 18 21  2  0
  3 22  1  0
 22 23  2  0
 23 24  1  0
 24 25  2  0
 25 26  1  0
 26 27  2  0
 27 28  1  0
 28 29  1  0
 28 30  1  0
 28 31  1  0
 13  4  1  0
 21 14  1  0
 27 22  1  0
 12  7  1  0
  1 32  1  0
  1 33  1  0
  1 34  1  0
  2 35  1  0
  2 36  1  0
  5 37  1  0
  6 38  1  0
  8 39  1  0
 11 40  1  0
 15 41  1  0
 17 42  1  0
 21 43  1  0
 24 44  1  0
 25 45  1  0
 26 46  1  0
M  END
$$$$
[H]c1c([H])c(-c2c([H])c([H])c(N3C(=O)N([H])C(Cl)(Cl)C3=O)c([H])c2[H])c([H])c(N([H])C(=O)N([H])c2c([H])c([H])c(Cl)c(Cl)c2[H])c1[H]
     RDKit          3D

 47 50  0  0  0  0  0  0  0  0999 V2000
   10.4238    2.2333   -1.0619 Cl  0  0  0  0  0  0  0  0  0  0  0  0
    8.7305    1.9672   -0.7252 C   0  0  0  0  0  0  0  0  0  0  0  0
    7.8365    3.0474   -0.7726 C   0  0  0  0  0  0  0  0  0  0  0  0
    6.5228    2.8559   -0.5140 C   0  0  0  0  0  0  0  0  0  0  0  0
    6.0557    1.5676   -0.1970 C   0  0  0  0  0  0  0  0  0  0  0  0
    4.6766    1.4668    0.0822 N   0  0  0  0  0  0  0  0  0  0  0  0
    3.9002    0.2610   -0.0273 C   0  0  0  0  0  0  0  0  0  0  0  0
    4.4527   -0.7645   -0.3971 O   0  0  0  0  0  0  0  0  0  0  0  0
    2.5333    0.3529    0.3067 N   0  0  0  0  0  0  0  0  0  0  0  0
    1.6370   -0.7113    0.2662 C   0  0  0  0  0  0  0  0  0  0  0  0
    1.9990   -2.0331    0.2201 C   0  0  0  0  0  0  0  0  0  0  0  0
    1.0352   -3.0433    0.1622 C   0  0  0  0  0  0  0  0  0  0  0  0
   -0.2730   -2.7181    0.1519 C   0  0  0  0  0  0  0  0  0  0  0  0
   -0.6913   -1.4115    0.1969 C   0  0  0  0  0  0  0  0  0  0  0  0
    0.2532   -0.4253    0.2531 C   0  0  0  0  0  0  0  0  0  0  0  0
   -2.1226   -1.0832    0.1893 C   0  0  0  0  0  0  0  0  0  0  0  0
   -2.6250    0.0730   -0.3718 C   0  0  0  0  0  0  0  0  0  0  0  0
   -3.9773    0.3533   -0.3593 C   0  0  0  0  0  0  0  0  0  0  0  0
   -4.8909   -0.5076    0.2139 C   0  0  0  0  0  0  0  0  0  0  0  0
   -4.3930   -1.6641    0.7755 C   0  0  0  0  0  0  0  0  0  0  0  0
   -3.0416   -1.9404    0.7610 C   0  0  0  0  0  0  0  0  0  0  0  0
   -6.2695   -0.1974    0.2161 N   0  0  0  0  0  0  0  0  0  0  0  0
   -7.1534   -0.0743    1.3189 C   0  0  0  0  0  0  0  0  0  0  0  0
   -6.8543   -0.2252    2.5317 O   0  0  0  0  0  0  0  0  0  0  0  0
   -8.4702    0.2506    0.9109 N   0  0  0  0  0  0  0  0  0  0  0  0
   -8.4812    0.3598   -0.5247 C   0  0  0  0  0  0  0  0  0  0  0  0
   -9.6340   -0.7999   -1.2188 Cl  0  0  0  0  0  0  0  0  0  0  0  0
   -8.8940    2.0220   -1.0455 Cl  0  0  0  0  0  0  0  0  0  0  0  0
   -7.0898    0.0651   -0.9115 C   0  0  0  0  0  0  0  0  0  0  0  0
   -6.7394    0.0651   -2.1439 O   0  0  0  0  0  0  0  0  0  0  0  0
    6.9428    0.5308   -0.1557 C   0  0  0  0  0  0  0  0  0  0  0  0
    8.2852    0.7125   -0.4177 C   0  0  0  0  0  0  0  0  0  0  0  0
    9.3895   -0.6199   -0.3596 Cl  0  0  0  0  0  0  0  0  0  0  0  0
    8.2315    4.0357   -1.0221 H   0  0  0  0  0  0  0  0  0  0  0  0
    5.8340    3.6908   -0.5517 H   0  0  0  0  0  0  0  0  0  0  0  0
    4.1796    2.3544    0.4031 H   0  0  0  0  0  0  0  0  0  0  0  0
    2.1321    1.2880    0.6204 H   0  0  0  0  0  0  0  0  0  0  0  0
    3.0204   -2.3778    0.2392 H   0  0  0  0  0  0  0  0  0  0  0  0
    1.3508   -4.0824    0.1260 H   0  0  0  0  0  0  0  0  0  0  0  0
   -1.0464   -3.5063    0.1063 H   0  0  0  0  0  0  0  0  0  0  0  0
   -0.0567    0.6140    0.2884 H   0  0  0  0  0  0  0  0  0  0  0  0
   -1.9003    0.7477   -0.8220 H   0  0  0  0  0  0  0  0  0  0  0  0
   -4.3632    1.2734   -0.8073 H   0  0  0  0  0  0  0  0  0  0  0  0
   -5.1132   -2.3325    1.2218 H   0  0  0  0  0  0  0  0  0  0  0  0
   -2.6715   -2.8670    1.2147 H   0  0  0  0  0  0  0  0  0  0  0  0
   -9.3213    0.3947    1.5342 H   0  0  0  0  0  0  0  0  0  0  0  0
    6.6507   -0.4720    0.0963 H   0  0  0  0  0  0  0  0  0  0  0  0
  1  2  1  0
  2  3  2  0
  3  4  1  0
  4  5  2  0
  5  6  1  0
  6  7  1  0
  7  8  2  0
  7  9  1  0
  9 10  1  0
 10 11  2  0
 11 12  1  0
 12 13  2  0
 13 14  1  0
 14 15  2  0
 14 16  1  0
 16 17  2  0
 17 18  1  0
 18 19  2  0
 19 20  1  0
 20 21  2  0
 19 22  1  0
 22 23  1  0
 23 24  2  0
 23 25  1  0
 25 26  1  0
 26 27  1  0
 26 28  1  0
 26 29  1  0
 29 30  2  0
  5 31  1  0
 31 32  2  0
 32 33  1  0
 32  2  1  0
 15 10  1  0
 21 16  1  0
 29 22  1  0
  3 34  1  0
  4 35  1  0
  6 36  1  0
  9 37  1  0
 11 38  1  0
 12 39  1  0
 13 40  1  0
 15 41  1  0
 17 42  1  0
 18 43  1  0
 20 44  1  0
 21 45  1  0
 25 46  1  0
 31 47  1  0
M  END
$$$$
[H]C1=C([H])C([H])(F)C([H])([H])C([H])=C1N([H])C(=O)C1(C(=O)N([H])c2c([H])c([H])c(Oc3c([H])c([H])nc4c([H])c(OC([H])([H])C([H])([H])C([H])([H])N5C([H])([H])C([H])([H])C([H])([H])C5([H])[H])c(OC([H])([H])[H])c([H])c34)c(F)c2[H])C([H])([H])C1([H])[H]
     RDKit          3D

 81 86  0  0  0  0  0  0  0  0999 V2000
   -3.5877    0.0230   -2.5605 C   0  0  0  0  0  0  0  0  0  0  0  0
   -4.4433   -0.0435   -1.4508 O   0  0  0  0  0  0  0  0  0  0  0  0
   -3.9880   -0.2494   -0.1491 C   0  0  0  0  0  0  0  0  0  0  0  0
   -2.6478   -0.3994    0.1096 C   0  0  0  0  0  0  0  0  0  0  0  0
   -2.1587   -0.6042    1.3755 C   0  0  0  0  0  0  0  0  0  0  0  0
   -0.7923   -0.7567    1.6112 C   0  0  0  0  0  0  0  0  0  0  0  0
    0.0250   -0.6916    0.5279 O   0  0  0  0  0  0  0  0  0  0  0  0
    1.3913   -0.8525    0.4754 C   0  0  0  0  0  0  0  0  0  0  0  0
    2.2342    0.1729    0.0692 C   0  0  0  0  0  0  0  0  0  0  0  0
    3.5918   -0.0103    0.0220 C   0  0  0  0  0  0  0  0  0  0  0  0
    4.2120   -1.2204    0.3732 C   0  0  0  0  0  0  0  0  0  0  0  0
    5.6358   -1.3113    0.3171 N   0  0  0  0  0  0  0  0  0  0  0  0
    6.4056   -2.4553    0.1478 C   0  0  0  0  0  0  0  0  0  0  0  0
    5.7718   -3.5663    0.0427 O   0  0  0  0  0  0  0  0  0  0  0  0
    7.8601   -2.5227    0.0895 C   0  0  0  0  0  0  0  0  0  0  0  0
    8.4588   -3.8753   -0.2867 C   0  0  0  0  0  0  0  0  0  0  0  0
    8.4428   -3.4847    1.1392 C   0  0  0  0  0  0  0  0  0  0  0  0
    8.7035   -1.3424   -0.2300 C   0  0  0  0  0  0  0  0  0  0  0  0
    9.9255   -1.4864    0.1717 O   0  0  0  0  0  0  0  0  0  0  0  0
    8.2626   -0.2155   -0.8859 N   0  0  0  0  0  0  0  0  0  0  0  0
    8.9663    0.9916   -1.2279 C   0  0  0  0  0  0  0  0  0  0  0  0
   10.2261    1.1961   -0.9431 C   0  0  0  0  0  0  0  0  0  0  0  0
   10.9546    2.4310   -1.2907 C   0  0  0  0  0  0  0  0  0  0  0  0
   10.1946    3.4846   -1.9837 C   0  0  0  0  0  0  0  0  0  0  0  0
   10.2335    4.6437   -1.1848 F   0  0  0  0  0  0  0  0  0  0  0  0
    8.8021    3.1813   -2.2644 C   0  0  0  0  0  0  0  0  0  0  0  0
    8.2359    2.0634   -1.9301 C   0  0  0  0  0  0  0  0  0  0  0  0
    3.3805   -2.2291    0.7736 C   0  0  0  0  0  0  0  0  0  0  0  0
    1.9865   -2.0377    0.8203 C   0  0  0  0  0  0  0  0  0  0  0  0
    1.2365   -3.0982    1.2142 F   0  0  0  0  0  0  0  0  0  0  0  0
   -0.4287   -0.9581    2.9201 C   0  0  0  0  0  0  0  0  0  0  0  0
   -1.3521   -1.0070    3.9339 C   0  0  0  0  0  0  0  0  0  0  0  0
   -2.6377   -0.8567    3.6575 N   0  0  0  0  0  0  0  0  0  0  0  0
   -3.0892   -0.6527    2.3915 C   0  0  0  0  0  0  0  0  0  0  0  0
   -4.4416   -0.5052    2.1646 C   0  0  0  0  0  0  0  0  0  0  0  0
   -4.8811   -0.3029    0.8827 C   0  0  0  0  0  0  0  0  0  0  0  0
   -6.2490   -0.1596    0.6965 O   0  0  0  0  0  0  0  0  0  0  0  0
   -7.1921   -0.2052    1.7204 C   0  0  0  0  0  0  0  0  0  0  0  0
   -8.5663   -0.0150    1.1322 C   0  0  0  0  0  0  0  0  0  0  0  0
   -8.6955    1.3020    0.4220 C   0  0  0  0  0  0  0  0  0  0  0  0
  -10.0037    1.4621   -0.1281 N   0  0  0  0  0  0  0  0  0  0  0  0
  -10.2287    2.6808   -0.8350 C   0  0  0  0  0  0  0  0  0  0  0  0
  -11.1566    2.3511   -2.0081 C   0  0  0  0  0  0  0  0  0  0  0  0
  -11.7165    1.0092   -1.5741 C   0  0  0  0  0  0  0  0  0  0  0  0
  -10.4689    0.3786   -0.9383 C   0  0  0  0  0  0  0  0  0  0  0  0
   -4.1462    0.4826   -3.4058 H   0  0  0  0  0  0  0  0  0  0  0  0
   -2.7486    0.7305   -2.3481 H   0  0  0  0  0  0  0  0  0  0  0  0
   -3.2042   -0.9751   -2.8684 H   0  0  0  0  0  0  0  0  0  0  0  0
   -1.9172   -0.3599   -0.6920 H   0  0  0  0  0  0  0  0  0  0  0  0
    1.7492    1.1006   -0.1989 H   0  0  0  0  0  0  0  0  0  0  0  0
    4.2444    0.7990   -0.2985 H   0  0  0  0  0  0  0  0  0  0  0  0
    6.1068   -0.3582    0.4880 H   0  0  0  0  0  0  0  0  0  0  0  0
    7.7266   -4.6220   -0.6534 H   0  0  0  0  0  0  0  0  0  0  0  0
    9.4183   -3.8918   -0.8472 H   0  0  0  0  0  0  0  0  0  0  0  0
    9.4104   -3.1476    1.6028 H   0  0  0  0  0  0  0  0  0  0  0  0
    7.7630   -3.9592    1.8454 H   0  0  0  0  0  0  0  0  0  0  0  0
    7.2650   -0.2466   -1.2614 H   0  0  0  0  0  0  0  0  0  0  0  0
   10.8241    0.4296   -0.4110 H   0  0  0  0  0  0  0  0  0  0  0  0
   11.8456    2.1794   -1.9484 H   0  0  0  0  0  0  0  0  0  0  0  0
   11.3908    2.8108   -0.3161 H   0  0  0  0  0  0  0  0  0  0  0  0
   10.6645    3.7949   -2.9610 H   0  0  0  0  0  0  0  0  0  0  0  0
    8.2315    3.9729   -2.7929 H   0  0  0  0  0  0  0  0  0  0  0  0
    7.1670    1.8981   -2.1758 H   0  0  0  0  0  0  0  0  0  0  0  0
    3.7856   -3.1876    1.0764 H   0  0  0  0  0  0  0  0  0  0  0  0
    0.6075   -1.0712    3.1537 H   0  0  0  0  0  0  0  0  0  0  0  0
   -1.0717   -1.1659    4.9745 H   0  0  0  0  0  0  0  0  0  0  0  0
   -5.1120   -0.5552    3.0169 H   0  0  0  0  0  0  0  0  0  0  0  0
   -7.1820   -1.2490    2.1462 H   0  0  0  0  0  0  0  0  0  0  0  0
   -6.9796    0.4646    2.5680 H   0  0  0  0  0  0  0  0  0  0  0  0
   -9.3685   -0.0413    1.9143 H   0  0  0  0  0  0  0  0  0  0  0  0
   -8.7385   -0.8568    0.4359 H   0  0  0  0  0  0  0  0  0  0  0  0
   -8.5595    2.1075    1.1881 H   0  0  0  0  0  0  0  0  0  0  0  0
   -7.8715    1.4342   -0.3151 H   0  0  0  0  0  0  0  0  0  0  0  0
  -10.7856    3.4045   -0.1999 H   0  0  0  0  0  0  0  0  0  0  0  0
   -9.3011    3.1863   -1.1756 H   0  0  0  0  0  0  0  0  0  0  0  0
  -11.9700    3.1048   -2.1030 H   0  0  0  0  0  0  0  0  0  0  0  0
  -10.5960    2.2617   -2.9622 H   0  0  0  0  0  0  0  0  0  0  0  0
  -12.4672    1.2054   -0.7918 H   0  0  0  0  0  0  0  0  0  0  0  0
  -12.0978    0.4163   -2.4102 H   0  0  0  0  0  0  0  0  0  0  0  0
  -10.7030   -0.5229   -0.3684 H   0  0  0  0  0  0  0  0  0  0  0  0
   -9.7919    0.1704   -1.8195 H   0  0  0  0  0  0  0  0  0  0  0  0
  1  2  1  0
  2  3  1  0
  3  4  2  0
  4  5  1  0
  5  6  2  0
  6  7  1  0
  7  8  1  0
  8  9  2  0
  9 10  1  0
 10 11  2  0
 11 12  1  0
 12 13  1  0
 13 14  2  0
 13 15  1  0
 15 16  1  0
 16 17  1  0
 15 18  1  0
 18 19  2  0
 18 20  1  0
 20 21  1  0
 21 22  2  0
 22 23  1  0
 23 24  1  0
 24 25  1  0
 24 26  1  0
 26 27  2  0
 11 28  1  0
 28 29  2  0
 29 30  1  0
  6 31  1  0
 31 32  2  0
 32 33  1  0
 33 34  2  0
 34 35  1  0
 35 36  2  0
 36 37  1  0
 37 38  1  0
 38 39  1  0
 39 40  1  0
 40 41  1  0
 41 42  1  0
 42 43  1  0
 43 44  1  0
 44 45  1  0
 36  3  1  0
 45 41  1  0
 34  5  1  0
 29  8  1  0
 17 15  1  0
 27 21  1  0
  1 46  1  0
  1 47  1  0
  1 48  1  0
  4 49  1  0
  9 50  1  0
 10 51  1  0
 12 52  1  0
 16 53  1  0
 16 54  1  0
 17 55  1  0
 17 56  1  0
 20 57  1  0
 22 58  1  0
 23 59  1  0
 23 60  1  0
 24 61  1  0
 26 62  1  0
 27 63  1  0
 28 64  1  0
 31 65  1  0
 32 66  1  0
 35 67  1  0
 38 68  1  0
 38 69  1  0
 39 70  1  0
 39 71  1  0
 40 72  1  0
 40 73  1  0
 42 74  1  0
 42 75  1  0
 43 76  1  0
 43 77  1  0
 44 78  1  0
 44 79  1  0
 45 80  1  0
 45 81  1  0
M  END
$$$$
[H]Oc1c([H])c([H])c2c(c1[H])[C@@]([H])(C([H])([H])[H])O[C@@]([H])(c1c([H])c([H])c(C#N)c([H])c1[H])[C@]([H])(c1c([H])c([H])c(N3C([H])([H])C([H])([H])O[C@]([H])(C([H])([H])[H])C3([H])[H])c([H])c1[H])O2
     RDKit          3D

 62 66  0  0  0  0  0  0  0  0999 V2000
    6.9798    0.2557   -1.2383 C   0  0  0  0  0  0  0  0  0  0  0  0
    6.2110    0.5236    0.0636 C   0  0  2  0  0  0  0  0  0  0  0  0
    4.9086   -0.2428   -0.0770 C   0  0  0  0  0  0  0  0  0  0  0  0
    3.9925    0.3577    0.8846 N   0  0  0  0  0  0  0  0  0  0  0  0
    4.6408    1.1493    1.9079 C   0  0  0  0  0  0  0  0  0  0  0  0
    5.2378    2.3450    1.1475 C   0  0  0  0  0  0  0  0  0  0  0  0
    6.0497    1.8830    0.1483 O   0  0  0  0  0  0  0  0  0  0  0  0
    2.5968    0.1604    0.7908 C   0  0  0  0  0  0  0  0  0  0  0  0
    1.6909    0.7528    1.6419 C   0  0  0  0  0  0  0  0  0  0  0  0
    0.3167    0.5505    1.5337 C   0  0  0  0  0  0  0  0  0  0  0  0
   -0.1191   -0.2660    0.5431 C   0  0  0  0  0  0  0  0  0  0  0  0
    0.7840   -0.8712   -0.3228 C   0  0  0  0  0  0  0  0  0  0  0  0
    2.1396   -0.6805   -0.2275 C   0  0  0  0  0  0  0  0  0  0  0  0
   -1.5717   -0.5897    0.2782 C   0  0  2  0  0  0  0  0  0  0  0  0
   -1.5632   -1.9794    0.1408 O   0  0  0  0  0  0  0  0  0  0  0  0
   -2.6025   -2.7949   -0.1996 C   0  0  0  0  0  0  0  0  0  0  0  0
   -2.3938   -4.0843    0.2482 C   0  0  0  0  0  0  0  0  0  0  0  0
   -3.3354   -5.0350   -0.0051 C   0  0  0  0  0  0  0  0  0  0  0  0
   -4.4846   -4.7097   -0.7024 C   0  0  0  0  0  0  0  0  0  0  0  0
   -5.4659   -5.6499   -0.9792 O   0  0  0  0  0  0  0  0  0  0  0  0
   -4.6677   -3.3982   -1.1430 C   0  0  0  0  0  0  0  0  0  0  0  0
   -3.7248   -2.4236   -0.8950 C   0  0  0  0  0  0  0  0  0  0  0  0
   -4.0715   -1.0899   -1.4397 C   0  0  1  0  0  0  0  0  0  0  0  0
   -5.4335   -0.6604   -0.9019 C   0  0  0  0  0  0  0  0  0  0  0  0
   -3.1586   -0.1734   -1.5502 O   0  0  0  0  0  0  0  0  0  0  0  0
   -2.0792    0.1769   -0.9199 C   0  0  1  0  0  0  0  0  0  0  0  0
   -1.9852    1.6539   -0.5752 C   0  0  0  0  0  0  0  0  0  0  0  0
   -3.0116    2.3186    0.0550 C   0  0  0  0  0  0  0  0  0  0  0  0
   -2.9456    3.6580    0.3641 C   0  0  0  0  0  0  0  0  0  0  0  0
   -1.8119    4.3880    0.0386 C   0  0  0  0  0  0  0  0  0  0  0  0
   -0.7809    3.7569   -0.5854 C   0  0  0  0  0  0  0  0  0  0  0  0
   -0.8805    2.4155   -0.8798 C   0  0  0  0  0  0  0  0  0  0  0  0
   -1.6935    5.7965    0.3422 C   0  0  0  0  0  0  0  0  0  0  0  0
   -1.6072    6.9121    0.5737 N   0  0  0  0  0  0  0  0  0  0  0  0
    6.6506    1.0082   -1.9851 H   0  0  0  0  0  0  0  0  0  0  0  0
    6.7046   -0.7662   -1.6183 H   0  0  0  0  0  0  0  0  0  0  0  0
    8.0503    0.3316   -1.0382 H   0  0  0  0  0  0  0  0  0  0  0  0
    6.8100    0.0757    0.8684 H   0  0  0  0  0  0  0  0  0  0  0  0
    5.1125   -1.2932    0.1757 H   0  0  0  0  0  0  0  0  0  0  0  0
    4.4932   -0.0857   -1.0921 H   0  0  0  0  0  0  0  0  0  0  0  0
    5.4997    0.5763    2.3701 H   0  0  0  0  0  0  0  0  0  0  0  0
    4.0182    1.4537    2.7385 H   0  0  0  0  0  0  0  0  0  0  0  0
    5.6518    3.1014    1.8077 H   0  0  0  0  0  0  0  0  0  0  0  0
    4.3400    2.8112    0.6455 H   0  0  0  0  0  0  0  0  0  0  0  0
    2.0342    1.3973    2.4226 H   0  0  0  0  0  0  0  0  0  0  0  0
   -0.4008    1.0068    2.1891 H   0  0  0  0  0  0  0  0  0  0  0  0
    0.4264   -1.5322   -1.1221 H   0  0  0  0  0  0  0  0  0  0  0  0
    2.7880   -1.1676   -0.9174 H   0  0  0  0  0  0  0  0  0  0  0  0
   -2.1052   -0.3224    1.2098 H   0  0  0  0  0  0  0  0  0  0  0  0
   -1.5005   -4.3423    0.7922 H   0  0  0  0  0  0  0  0  0  0  0  0
   -3.2076   -6.0552    0.3288 H   0  0  0  0  0  0  0  0  0  0  0  0
   -5.4094   -6.6058   -0.6992 H   0  0  0  0  0  0  0  0  0  0  0  0
   -5.5822   -3.1828   -1.6849 H   0  0  0  0  0  0  0  0  0  0  0  0
   -4.3497   -1.3612   -2.5291 H   0  0  0  0  0  0  0  0  0  0  0  0
   -6.2786   -1.2077   -1.3912 H   0  0  0  0  0  0  0  0  0  0  0  0
   -5.6332    0.4036   -1.0481 H   0  0  0  0  0  0  0  0  0  0  0  0
   -5.4781   -0.9743    0.1736 H   0  0  0  0  0  0  0  0  0  0  0  0
   -1.2232    0.0545   -1.6683 H   0  0  0  0  0  0  0  0  0  0  0  0
   -3.9077    1.7901    0.3259 H   0  0  0  0  0  0  0  0  0  0  0  0
   -3.7589    4.1851    0.8645 H   0  0  0  0  0  0  0  0  0  0  0  0
    0.1288    4.3269   -0.8518 H   0  0  0  0  0  0  0  0  0  0  0  0
   -0.0336    1.9690   -1.3792 H   0  0  0  0  0  0  0  0  0  0  0  0
  1  2  1  0
  2  3  1  0
  3  4  1  0
  4  5  1  0
  5  6  1  0
  6  7  1  0
  4  8  1  0
  8  9  2  0
  9 10  1  0
 10 11  2  0
 11 12  1  0
 12 13  2  0
 11 14  1  0
 14 15  1  0
 15 16  1  0
 16 17  2  0
 17 18  1  0
 18 19  2  0
 19 20  1  0
 19 21  1  0
 21 22  2  0
 22 23  1  0
 23 24  1  0
 23 25  1  0
 25 26  1  0
 26 27  1  0
 27 28  2  0
 28 29  1  0
 29 30  2  0
 30 31  1  0
 31 32  2  0
 30 33  1  0
 33 34  3  0
  7  2  1  0
 13  8  1  0
 26 14  1  0
 32 27  1  0
 22 16  1  0
  1 35  1  0
  1 36  1  0
  1 37  1  0
  2 38  1  1
  3 39  1  0
  3 40  1  0
  5 41  1  0
  5 42  1  0
  6 43  1  0
  6 44  1  0
  9 45  1  0
 10 46  1  0
 12 47  1  0
 13 48  1  0
 14 49  1  1
 17 50  1  0
 18 51  1  0
 20 52  1  0
 21 53  1  0
 23 54  1  6
 24 55  1  0
 24 56  1  0
 24 57  1  0
 26 58  1  6
 28 59  1  0
 29 60  1  0
 31 61  1  0
 32 62  1  0
M  END
$$$$
[H]Oc1c(-c2c([H])c([H])c([H])c([H])c2[H])c(C([H])([H])[H])n(C(=O)C([H])(N([H])[H])C([H])([H])[H])c1C([H])([H])[H]
     RDKit          3D

 37 38  0  0  0  0  0  0  0  0999 V2000
   -4.6865   -0.9696   -0.4989 C   0  0  0  0  0  0  0  0  0  0  0  0
   -3.6116    0.0426   -0.0595 C   0  0  0  0  0  0  0  0  0  0  0  0
   -3.9521    0.3651    1.3464 N   0  0  0  0  0  0  0  0  0  0  0  0
   -2.2992   -0.6258   -0.0301 C   0  0  0  0  0  0  0  0  0  0  0  0
   -2.3636   -1.8937    0.1685 O   0  0  0  0  0  0  0  0  0  0  0  0
   -1.0331    0.0062   -0.1993 N   0  0  0  0  0  0  0  0  0  0  0  0
   -0.7483    1.2919   -0.4619 C   0  0  0  0  0  0  0  0  0  0  0  0
   -1.6977    2.4112   -0.6716 C   0  0  0  0  0  0  0  0  0  0  0  0
    0.6453    1.4288   -0.5192 C   0  0  0  0  0  0  0  0  0  0  0  0
    1.3071    2.6102   -0.7727 O   0  0  0  0  0  0  0  0  0  0  0  0
    1.2098    0.1993   -0.2833 C   0  0  0  0  0  0  0  0  0  0  0  0
    0.1507   -0.6610   -0.0881 C   0  0  0  0  0  0  0  0  0  0  0  0
    0.2636   -2.1061    0.1964 C   0  0  0  0  0  0  0  0  0  0  0  0
    2.6389   -0.0770   -0.2707 C   0  0  0  0  0  0  0  0  0  0  0  0
    3.2679   -0.7397   -1.3027 C   0  0  0  0  0  0  0  0  0  0  0  0
    4.6357   -0.9503   -1.2625 C   0  0  0  0  0  0  0  0  0  0  0  0
    5.4019   -0.5064   -0.1944 C   0  0  0  0  0  0  0  0  0  0  0  0
    4.7655    0.1662    0.8573 C   0  0  0  0  0  0  0  0  0  0  0  0
    3.3951    0.3693    0.8005 C   0  0  0  0  0  0  0  0  0  0  0  0
   -4.8683   -1.6939    0.3162 H   0  0  0  0  0  0  0  0  0  0  0  0
   -4.3145   -1.4983   -1.4017 H   0  0  0  0  0  0  0  0  0  0  0  0
   -5.6219   -0.4627   -0.7852 H   0  0  0  0  0  0  0  0  0  0  0  0
   -3.7458    0.9038   -0.6725 H   0  0  0  0  0  0  0  0  0  0  0  0
   -3.0221    0.5417    1.8160 H   0  0  0  0  0  0  0  0  0  0  0  0
   -4.3371   -0.5135    1.7456 H   0  0  0  0  0  0  0  0  0  0  0  0
   -2.3326    2.6000    0.1906 H   0  0  0  0  0  0  0  0  0  0  0  0
   -1.1026    3.3700   -0.7862 H   0  0  0  0  0  0  0  0  0  0  0  0
   -2.2138    2.3156   -1.6493 H   0  0  0  0  0  0  0  0  0  0  0  0
    0.8567    3.4606   -0.9418 H   0  0  0  0  0  0  0  0  0  0  0  0
   -0.2416   -2.4025    1.1310 H   0  0  0  0  0  0  0  0  0  0  0  0
    1.3290   -2.4322    0.2362 H   0  0  0  0  0  0  0  0  0  0  0  0
   -0.2194   -2.6709   -0.6374 H   0  0  0  0  0  0  0  0  0  0  0  0
    2.7184   -1.1166   -2.1755 H   0  0  0  0  0  0  0  0  0  0  0  0
    5.0642   -1.4808   -2.1154 H   0  0  0  0  0  0  0  0  0  0  0  0
    6.4777   -0.6826   -0.1786 H   0  0  0  0  0  0  0  0  0  0  0  0
    5.3464    0.5080    1.6767 H   0  0  0  0  0  0  0  0  0  0  0  0
    2.9378    0.8932    1.6213 H   0  0  0  0  0  0  0  0  0  0  0  0
  1  2  1  0
  2  3  1  0
  2  4  1  0
  4  5  2  0
  4  6  1  0
  6  7  1  0
  7  8  1  0
  7  9  2  0
  9 10  1  0
  9 11  1  0
 11 12  2  0
 12 13  1  0
 11 14  1  0
 14 15  2  0
 15 16  1  0
 16 17  2  0
 17 18  1  0
 18 19  2  0
 12  6  1  0
 19 14  1  0
  1 20  1  0
  1 21  1  0
  1 22  1  0
  2 23  1  0
  3 24  1  0
  3 25  1  0
  8 26  1  0
  8 27  1  0
  8 28  1  0
 10 29  1  0
 13 30  1  0
 13 31  1  0
 13 32  1  0
 15 33  1  0
 16 34  1  0
 17 35  1  0
 18 36  1  0
 19 37  1  0
M  END
$$$$
[H]c1nc([C@@]([H])(N([H])C(=O)C([H])([H])N([H])C(=O)C([H])(N([H])C(=O)[C@@]([H])(N([H])C(=O)OC([H])([H])c2c([H])c([H])c([H])c([H])c2[H])C([H])([H])C([H])(C([H])([H])[H])C([H])([H])[H])C([H])([H])c2c([H])c([H])c([H])c([H])c2[H])C([H])([H])[H])sc1[H]
     RDKit          3D

 78 80  0  0  0  0  0  0  0  0999 V2000
   -5.3914   -1.9809   -0.4056 C   0  0  0  0  0  0  0  0  0  0  0  0
   -4.3884   -1.6465    0.6715 C   0  0  0  0  0  0  0  0  0  0  0  0
   -4.5729   -2.5437    1.8811 C   0  0  0  0  0  0  0  0  0  0  0  0
   -3.0103   -1.9773    0.0475 C   0  0  0  0  0  0  0  0  0  0  0  0
   -1.9391   -1.6718    0.9974 C   0  0  2  0  0  0  0  0  0  0  0  0
   -1.9216   -0.2575    1.3928 N   0  0  0  0  0  0  0  0  0  0  0  0
   -2.1758    0.7120    0.3874 C   0  0  0  0  0  0  0  0  0  0  0  0
   -2.4394    0.5852   -0.7798 O   0  0  0  0  0  0  0  0  0  0  0  0
   -2.0996    2.0612    0.8788 O   0  0  0  0  0  0  0  0  0  0  0  0
   -2.3389    3.1344   -0.0456 C   0  0  0  0  0  0  0  0  0  0  0  0
   -2.2148    4.3882    0.7399 C   0  0  0  0  0  0  0  0  0  0  0  0
   -1.0927    5.1570    0.7708 C   0  0  0  0  0  0  0  0  0  0  0  0
   -1.0605    6.2911    1.5551 C   0  0  0  0  0  0  0  0  0  0  0  0
   -2.1004    6.6931    2.3170 C   0  0  0  0  0  0  0  0  0  0  0  0
   -3.2459    5.9106    2.2802 C   0  0  0  0  0  0  0  0  0  0  0  0
   -3.3299    4.7658    1.5093 C   0  0  0  0  0  0  0  0  0  0  0  0
   -0.5853   -1.8232    0.3527 C   0  0  0  0  0  0  0  0  0  0  0  0
    0.3417   -1.3139    1.0822 O   0  0  0  0  0  0  0  0  0  0  0  0
   -0.4215   -2.4265   -0.8755 N   0  0  0  0  0  0  0  0  0  0  0  0
    0.8325   -2.5599   -1.5789 C   0  0  0  0  0  0  0  0  0  0  0  0
    1.6187   -3.7177   -1.1793 C   0  0  0  0  0  0  0  0  0  0  0  0
    1.0150   -5.0364   -1.3889 C   0  0  0  0  0  0  0  0  0  0  0  0
    1.1843   -5.6748   -2.6232 C   0  0  0  0  0  0  0  0  0  0  0  0
    0.6057   -6.9466   -2.7438 C   0  0  0  0  0  0  0  0  0  0  0  0
   -0.0783   -7.5375   -1.7338 C   0  0  0  0  0  0  0  0  0  0  0  0
   -0.2479   -6.9112   -0.5168 C   0  0  0  0  0  0  0  0  0  0  0  0
    0.3177   -5.6415   -0.3714 C   0  0  0  0  0  0  0  0  0  0  0  0
    1.5686   -1.2366   -1.5839 C   0  0  0  0  0  0  0  0  0  0  0  0
    1.0314   -0.1709   -1.2141 O   0  0  0  0  0  0  0  0  0  0  0  0
    2.9164   -1.2026   -2.0201 N   0  0  0  0  0  0  0  0  0  0  0  0
    3.6393    0.0572   -2.0220 C   0  0  0  0  0  0  0  0  0  0  0  0
    3.7916    0.5891   -0.6661 C   0  0  0  0  0  0  0  0  0  0  0  0
    3.3401   -0.0364    0.3314 O   0  0  0  0  0  0  0  0  0  0  0  0
    4.4546    1.8228   -0.4472 N   0  0  0  0  0  0  0  0  0  0  0  0
    4.6225    2.3703    0.8870 C   0  0  1  0  0  0  0  0  0  0  0  0
    6.1220    2.3853    1.1873 C   0  0  0  0  0  0  0  0  0  0  0  0
    4.0931    3.7724    0.8546 C   0  0  0  0  0  0  0  0  0  0  0  0
    3.0797    4.2671    0.2025 N   0  0  0  0  0  0  0  0  0  0  0  0
    2.7358    5.5080    0.2890 C   0  0  0  0  0  0  0  0  0  0  0  0
    3.5512    6.2895    1.1540 C   0  0  0  0  0  0  0  0  0  0  0  0
    4.6574    5.1420    1.6856 S   0  0  0  0  0  0  0  0  0  0  0  0
   -4.9610   -2.5981   -1.2233 H   0  0  0  0  0  0  0  0  0  0  0  0
   -5.7857   -1.0622   -0.9059 H   0  0  0  0  0  0  0  0  0  0  0  0
   -6.2856   -2.4623    0.0561 H   0  0  0  0  0  0  0  0  0  0  0  0
   -4.3597   -0.6217    0.9942 H   0  0  0  0  0  0  0  0  0  0  0  0
   -5.4886   -3.1752    1.8158 H   0  0  0  0  0  0  0  0  0  0  0  0
   -3.7303   -3.2764    1.9714 H   0  0  0  0  0  0  0  0  0  0  0  0
   -4.6217   -1.9504    2.7973 H   0  0  0  0  0  0  0  0  0  0  0  0
   -3.1221   -3.1219   -0.0965 H   0  0  0  0  0  0  0  0  0  0  0  0
   -2.9900   -1.6020   -0.9635 H   0  0  0  0  0  0  0  0  0  0  0  0
   -1.9848   -2.2796    1.9397 H   0  0  0  0  0  0  0  0  0  0  0  0
   -1.7227   -0.0062    2.3558 H   0  0  0  0  0  0  0  0  0  0  0  0
   -3.3491    2.9929   -0.4398 H   0  0  0  0  0  0  0  0  0  0  0  0
   -1.5527    3.1379   -0.8364 H   0  0  0  0  0  0  0  0  0  0  0  0
   -0.2612    4.8651    0.1893 H   0  0  0  0  0  0  0  0  0  0  0  0
   -0.1532    6.9086    1.5790 H   0  0  0  0  0  0  0  0  0  0  0  0
   -2.0930    7.5834    2.9496 H   0  0  0  0  0  0  0  0  0  0  0  0
   -4.0864    6.2161    2.8791 H   0  0  0  0  0  0  0  0  0  0  0  0
   -4.2180    4.1769    1.5046 H   0  0  0  0  0  0  0  0  0  0  0  0
   -1.2881   -2.8230   -1.3508 H   0  0  0  0  0  0  0  0  0  0  0  0
    0.5367   -2.5995   -2.6983 H   0  0  0  0  0  0  0  0  0  0  0  0
    2.0032   -3.6945   -0.1286 H   0  0  0  0  0  0  0  0  0  0  0  0
    2.5718   -3.7030   -1.8022 H   0  0  0  0  0  0  0  0  0  0  0  0
    1.7213   -5.2702   -3.4536 H   0  0  0  0  0  0  0  0  0  0  0  0
    0.7339   -7.4363   -3.6936 H   0  0  0  0  0  0  0  0  0  0  0  0
   -0.5244   -8.5451   -1.8293 H   0  0  0  0  0  0  0  0  0  0  0  0
   -0.7834   -7.3813    0.2874 H   0  0  0  0  0  0  0  0  0  0  0  0
    0.1544   -5.1829    0.5909 H   0  0  0  0  0  0  0  0  0  0  0  0
    3.4752   -2.0221   -2.3458 H   0  0  0  0  0  0  0  0  0  0  0  0
    4.5871   -0.0209   -2.6020 H   0  0  0  0  0  0  0  0  0  0  0  0
    3.0553    0.8352   -2.5949 H   0  0  0  0  0  0  0  0  0  0  0  0
    4.8233    2.3457   -1.2576 H   0  0  0  0  0  0  0  0  0  0  0  0
    4.0636    1.8151    1.6357 H   0  0  0  0  0  0  0  0  0  0  0  0
    6.4947    3.4043    1.3557 H   0  0  0  0  0  0  0  0  0  0  0  0
    6.6834    1.9520    0.3149 H   0  0  0  0  0  0  0  0  0  0  0  0
    6.3019    1.6845    2.0336 H   0  0  0  0  0  0  0  0  0  0  0  0
    1.8959    5.9680   -0.2418 H   0  0  0  0  0  0  0  0  0  0  0  0
    3.3950    7.3601    1.3403 H   0  0  0  0  0  0  0  0  0  0  0  0
  1  2  1  0
  2  3  1  0
  2  4  1  0
  4  5  1  0
  5  6  1  0
  6  7  1  0
  7  8  2  0
  7  9  1  0
  9 10  1  0
 10 11  1  0
 11 12  2  0
 12 13  1  0
 13 14  2  0
 14 15  1  0
 15 16  2  0
  5 17  1  0
 17 18  2  0
 17 19  1  0
 19 20  1  0
 20 21  1  0
 21 22  1  0
 22 23  2  0
 23 24  1  0
 24 25  2  0
 25 26  1  0
 26 27  2  0
 20 28  1  0
 28 29  2  0
 28 30  1  0
 30 31  1  0
 31 32  1  0
 32 33  2  0
 32 34  1  0
 34 35  1  0
 35 36  1  0
 35 37  1  0
 37 38  2  0
 38 39  1  0
 39 40  2  0
 40 41  1  0
 16 11  1  0
 27 22  1  0
 41 37  1  0
  1 42  1  0
  1 43  1  0
  1 44  1  0
  2 45  1  0
  3 46  1  0
  3 47  1  0
  3 48  1  0
  4 49  1  0
  4 50  1  0
  5 51  1  1
  6 52  1  0
 10 53  1  0
 10 54  1  0
 12 55  1  0
 13 56  1  0
 14 57  1  0
 15 58  1  0
 16 59  1  0
 19 60  1  0
 20 61  1  0
 21 62  1  0
 21 63  1  0
 23 64  1  0
 24 65  1  0
 25 66  1  0
 26 67  1  0
 27 68  1  0
 30 69  1  0
 31 70  1  0
 31 71  1  0
 34 72  1  0
 35 73  1  1
 36 74  1  0
 36 75  1  0
 36 76  1  0
 39 77  1  0
 40 78  1  0
M  END
$$$$
[H]c1c([H])c(C(=O)N([H])[C@@]2([H])[C@@]([H])(Oc3c([H])c([H])c4c(c(C([H])([H])[H])nn4[H])c3[H])[C@]2([H])C(F)(F)F)c(Cl)c([H])c1F
     RDKit          3D

 43 46  0  0  0  0  0  0  0  0999 V2000
    4.1607    2.6487    1.9563 C   0  0  0  0  0  0  0  0  0  0  0  0
    4.4962    2.1618    0.5943 C   0  0  0  0  0  0  0  0  0  0  0  0
    5.5275    2.4810   -0.2047 N   0  0  0  0  0  0  0  0  0  0  0  0
    5.4593    1.8236   -1.3389 N   0  0  0  0  0  0  0  0  0  0  0  0
    4.3615    1.0196   -1.3546 C   0  0  0  0  0  0  0  0  0  0  0  0
    3.8604    0.1531   -2.2938 C   0  0  0  0  0  0  0  0  0  0  0  0
    2.7101   -0.5379   -2.0276 C   0  0  0  0  0  0  0  0  0  0  0  0
    2.0608   -0.3647   -0.8264 C   0  0  0  0  0  0  0  0  0  0  0  0
    0.8945   -1.0118   -0.4566 O   0  0  0  0  0  0  0  0  0  0  0  0
    0.2264   -1.9214   -1.2505 C   0  0  2  0  0  0  0  0  0  0  0  0
   -1.2712   -1.8414   -1.1806 C   0  0  2  0  0  0  0  0  0  0  0  0
   -1.8842   -1.0456   -0.1331 N   0  0  0  0  0  0  0  0  0  0  0  0
   -3.1085   -0.3937   -0.4164 C   0  0  0  0  0  0  0  0  0  0  0  0
   -3.6482   -0.5107   -1.5663 O   0  0  0  0  0  0  0  0  0  0  0  0
   -3.8205    0.4271    0.5379 C   0  0  0  0  0  0  0  0  0  0  0  0
   -4.7608   -0.1217    1.3788 C   0  0  0  0  0  0  0  0  0  0  0  0
   -5.4459    0.6807    2.3004 C   0  0  0  0  0  0  0  0  0  0  0  0
   -5.1803    2.0381    2.3716 C   0  0  0  0  0  0  0  0  0  0  0  0
   -5.8231    2.8375    3.2482 F   0  0  0  0  0  0  0  0  0  0  0  0
   -4.2465    2.5840    1.5367 C   0  0  0  0  0  0  0  0  0  0  0  0
   -3.5657    1.7774    0.6186 C   0  0  0  0  0  0  0  0  0  0  0  0
   -2.3749    2.5203   -0.4343 Cl  0  0  0  0  0  0  0  0  0  0  0  0
   -0.5439   -3.0558   -0.6675 C   0  0  1  0  0  0  0  0  0  0  0  0
   -0.7553   -4.2949   -1.5048 C   0  0  0  0  0  0  0  0  0  0  0  0
    0.4521   -4.8762   -1.8653 F   0  0  0  0  0  0  0  0  0  0  0  0
   -1.3900   -3.9850   -2.7156 F   0  0  0  0  0  0  0  0  0  0  0  0
   -1.5922   -5.1890   -0.8662 F   0  0  0  0  0  0  0  0  0  0  0  0
    2.6072    0.5345    0.1124 C   0  0  0  0  0  0  0  0  0  0  0  0
    3.7489    1.2281   -0.1372 C   0  0  0  0  0  0  0  0  0  0  0  0
    4.7488    3.5818    2.1385 H   0  0  0  0  0  0  0  0  0  0  0  0
    3.0869    2.8824    2.0608 H   0  0  0  0  0  0  0  0  0  0  0  0
    4.5085    1.9198    2.7422 H   0  0  0  0  0  0  0  0  0  0  0  0
    6.1289    1.8718   -2.1545 H   0  0  0  0  0  0  0  0  0  0  0  0
    4.3437   -0.0067   -3.2453 H   0  0  0  0  0  0  0  0  0  0  0  0
    2.2875   -1.2384   -2.7630 H   0  0  0  0  0  0  0  0  0  0  0  0
    0.6586   -2.1369   -2.2373 H   0  0  0  0  0  0  0  0  0  0  0  0
   -1.7985   -1.8968   -2.1547 H   0  0  0  0  0  0  0  0  0  0  0  0
   -1.4757   -0.9295    0.8071 H   0  0  0  0  0  0  0  0  0  0  0  0
   -5.0184   -1.1680    1.3791 H   0  0  0  0  0  0  0  0  0  0  0  0
   -6.1889    0.2881    2.9755 H   0  0  0  0  0  0  0  0  0  0  0  0
   -4.0236    3.6370    1.5743 H   0  0  0  0  0  0  0  0  0  0  0  0
   -0.5135   -3.2492    0.4239 H   0  0  0  0  0  0  0  0  0  0  0  0
    2.1014    0.6789    1.0656 H   0  0  0  0  0  0  0  0  0  0  0  0
  1  2  1  0
  2  3  2  0
  3  4  1  0
  4  5  1  0
  5  6  2  0
  6  7  1  0
  7  8  2  0
  8  9  1  0
  9 10  1  0
 10 11  1  0
 11 12  1  0
 12 13  1  0
 13 14  2  0
 13 15  1  0
 15 16  2  0
 16 17  1  0
 17 18  2  0
 18 19  1  0
 18 20  1  0
 20 21  2  0
 21 22  1  0
 11 23  1  0
 23 24  1  0
 24 25  1  0
 24 26  1  0
 24 27  1  0
  8 28  1  0
 28 29  2  0
 29  2  1  0
 29  5  1  0
 23 10  1  0
 21 15  1  0
  1 30  1  0
  1 31  1  0
  1 32  1  0
  4 33  1  0
  6 34  1  0
  7 35  1  0
 10 36  1  6
 11 37  1  6
 12 38  1  0
 16 39  1  0
 17 40  1  0
 20 41  1  0
 23 42  1  1
 28 43  1  0
M  END
$$$$
[H]c1c([H])c([H])c(-c2c([H])c([H])c([H])c(-c3nnc4c([H])c([H])c(Cl)c([H])n34)c2[H])c(OC([H])([H])[H])c1[H]
     RDKit          3D

 38 41  0  0  0  0  0  0  0  0999 V2000
    4.1478   -0.5856    2.7990 C   0  0  0  0  0  0  0  0  0  0  0  0
    3.2296   -0.4881    1.7302 O   0  0  0  0  0  0  0  0  0  0  0  0
    3.4678    0.3076    0.6238 C   0  0  0  0  0  0  0  0  0  0  0  0
    4.6555    1.0480    0.5476 C   0  0  0  0  0  0  0  0  0  0  0  0
    4.8698    1.8371   -0.5691 C   0  0  0  0  0  0  0  0  0  0  0  0
    3.9390    1.8959   -1.5846 C   0  0  0  0  0  0  0  0  0  0  0  0
    2.7753    1.1420   -1.4622 C   0  0  0  0  0  0  0  0  0  0  0  0
    2.5301    0.3489   -0.3696 C   0  0  0  0  0  0  0  0  0  0  0  0
    1.3192   -0.4491   -0.2347 C   0  0  0  0  0  0  0  0  0  0  0  0
    1.3446   -1.7777    0.1268 C   0  0  0  0  0  0  0  0  0  0  0  0
    0.1665   -2.4688    0.2403 C   0  0  0  0  0  0  0  0  0  0  0  0
   -1.0776   -1.8645   -0.0013 C   0  0  0  0  0  0  0  0  0  0  0  0
   -1.1175   -0.5524   -0.3575 C   0  0  0  0  0  0  0  0  0  0  0  0
    0.0992    0.1210   -0.4647 C   0  0  0  0  0  0  0  0  0  0  0  0
   -2.3232    0.2250   -0.5776 C   0  0  0  0  0  0  0  0  0  0  0  0
   -2.3246    1.4186   -1.2550 N   0  0  0  0  0  0  0  0  0  0  0  0
   -3.4921    1.9615   -1.3079 N   0  0  0  0  0  0  0  0  0  0  0  0
   -4.3219    1.1293   -0.6521 C   0  0  0  0  0  0  0  0  0  0  0  0
   -5.6786    1.2588   -0.4101 C   0  0  0  0  0  0  0  0  0  0  0  0
   -6.3193    0.2770    0.3112 C   0  0  0  0  0  0  0  0  0  0  0  0
   -5.5676   -0.7882    0.7562 C   0  0  0  0  0  0  0  0  0  0  0  0
   -6.3937   -2.0319    1.6752 Cl  0  0  0  0  0  0  0  0  0  0  0  0
   -4.2073   -0.9041    0.5050 C   0  0  0  0  0  0  0  0  0  0  0  0
   -3.5891    0.0614   -0.2046 N   0  0  0  0  0  0  0  0  0  0  0  0
    4.0672    0.2353    3.5250 H   0  0  0  0  0  0  0  0  0  0  0  0
    5.1811   -0.6662    2.4140 H   0  0  0  0  0  0  0  0  0  0  0  0
    3.9218   -1.5483    3.3166 H   0  0  0  0  0  0  0  0  0  0  0  0
    5.4001    1.0328    1.3063 H   0  0  0  0  0  0  0  0  0  0  0  0
    5.7618    2.4309   -0.6898 H   0  0  0  0  0  0  0  0  0  0  0  0
    4.0956    2.5083   -2.4604 H   0  0  0  0  0  0  0  0  0  0  0  0
    2.0605    1.1949   -2.2552 H   0  0  0  0  0  0  0  0  0  0  0  0
    2.3071   -2.2319    0.3054 H   0  0  0  0  0  0  0  0  0  0  0  0
    0.2124   -3.5096    0.5252 H   0  0  0  0  0  0  0  0  0  0  0  0
   -1.9581   -2.4954    0.0729 H   0  0  0  0  0  0  0  0  0  0  0  0
    0.1005    1.1856   -0.7518 H   0  0  0  0  0  0  0  0  0  0  0  0
   -6.2379    2.1104   -0.7750 H   0  0  0  0  0  0  0  0  0  0  0  0
   -7.3814    0.3750    0.5019 H   0  0  0  0  0  0  0  0  0  0  0  0
   -3.6627   -1.7431    0.8992 H   0  0  0  0  0  0  0  0  0  0  0  0
  1  2  1  0
  2  3  1  0
  3  4  2  0
  4  5  1  0
  5  6  2  0
  6  7  1  0
  7  8  2  0
  8  9  1  0
  9 10  2  0
 10 11  1  0
 11 12  2  0
 12 13  1  0
 13 14  2  0
 13 15  1  0
 15 16  2  0
 16 17  1  0
 17 18  2  0
 18 19  1  0
 19 20  2  0
 20 21  1  0
 21 22  1  0
 21 23  2  0
 23 24  1  0
  8  3  1  0
 14  9  1  0
 24 15  1  0
 24 18  1  0
  1 25  1  0
  1 26  1  0
  1 27  1  0
  4 28  1  0
  5 29  1  0
  6 30  1  0
  7 31  1  0
 10 32  1  0
 11 33  1  0
 12 34  1  0
 14 35  1  0
 19 36  1  0
 20 37  1  0
 23 38  1  0
M  END
$$$$
[H]C1=C(c2c([H])c([H])c(Cl)c(Cl)c2[H])C([H])([H])C([H])([H])N(C(=O)n2c([H])nc([H])c2[H])C1([H])[H]
     RDKit          3D

 34 36  0  0  0  0  0  0  0  0999 V2000
   -7.2541    0.3535   -0.5260 Cl  0  0  0  0  0  0  0  0  0  0  0  0
   -5.5137    0.2969   -0.3678 C   0  0  0  0  0  0  0  0  0  0  0  0
   -4.7368    0.7702   -1.4010 C   0  0  0  0  0  0  0  0  0  0  0  0
   -3.3370    0.7502   -1.3301 C   0  0  0  0  0  0  0  0  0  0  0  0
   -2.7176    0.2495   -0.2106 C   0  0  0  0  0  0  0  0  0  0  0  0
   -3.5196   -0.2232    0.8210 C   0  0  0  0  0  0  0  0  0  0  0  0
   -4.8814   -0.1974    0.7386 C   0  0  0  0  0  0  0  0  0  0  0  0
   -5.8947   -0.7963    2.0458 Cl  0  0  0  0  0  0  0  0  0  0  0  0
   -1.2716    0.2089   -0.1223 C   0  0  0  0  0  0  0  0  0  0  0  0
   -0.5859   -0.2110    0.9410 C   0  0  0  0  0  0  0  0  0  0  0  0
    0.9196   -0.2317    0.9847 C   0  0  0  0  0  0  0  0  0  0  0  0
    1.5078   -0.3564   -0.3040 N   0  0  0  0  0  0  0  0  0  0  0  0
    0.5707   -0.5186   -1.4480 C   0  0  0  0  0  0  0  0  0  0  0  0
   -0.4439    0.6233   -1.2738 C   0  0  0  0  0  0  0  0  0  0  0  0
    2.8783   -0.3446   -0.5592 C   0  0  0  0  0  0  0  0  0  0  0  0
    3.2025   -0.4648   -1.8143 O   0  0  0  0  0  0  0  0  0  0  0  0
    3.9629   -0.2246    0.3188 N   0  0  0  0  0  0  0  0  0  0  0  0
    5.2918   -0.2208   -0.0436 C   0  0  0  0  0  0  0  0  0  0  0  0
    6.0626   -0.0925    1.0696 C   0  0  0  0  0  0  0  0  0  0  0  0
    5.2560   -0.0154    2.1245 N   0  0  0  0  0  0  0  0  0  0  0  0
    3.9809   -0.0981    1.6425 C   0  0  0  0  0  0  0  0  0  0  0  0
   -5.1888    1.1760   -2.3079 H   0  0  0  0  0  0  0  0  0  0  0  0
   -2.7782    1.1448   -2.1742 H   0  0  0  0  0  0  0  0  0  0  0  0
   -3.0454   -0.6228    1.7119 H   0  0  0  0  0  0  0  0  0  0  0  0
   -1.1235   -0.5432    1.7956 H   0  0  0  0  0  0  0  0  0  0  0  0
    1.1898    0.7322    1.4925 H   0  0  0  0  0  0  0  0  0  0  0  0
    1.1860   -1.0576    1.6636 H   0  0  0  0  0  0  0  0  0  0  0  0
   -0.0141   -1.4539   -1.3400 H   0  0  0  0  0  0  0  0  0  0  0  0
    1.0947   -0.4653   -2.3987 H   0  0  0  0  0  0  0  0  0  0  0  0
   -0.9636    0.7528   -2.2072 H   0  0  0  0  0  0  0  0  0  0  0  0
    0.1496    1.5005   -0.9458 H   0  0  0  0  0  0  0  0  0  0  0  0
    5.6952   -0.3043   -1.0429 H   0  0  0  0  0  0  0  0  0  0  0  0
    7.1530   -0.0606    1.0746 H   0  0  0  0  0  0  0  0  0  0  0  0
    3.1685   -0.0558    2.3580 H   0  0  0  0  0  0  0  0  0  0  0  0
  1  2  1  0
  2  3  2  0
  3  4  1  0
  4  5  2  0
  5  6  1  0
  6  7  2  0
  7  8  1  0
  5  9  1  0
  9 10  2  0
 10 11  1  0
 11 12  1  0
 12 13  1  0
 13 14  1  0
 12 15  1  0
 15 16  2  0
 15 17  1  0
 17 18  1  0
 18 19  2  0
 19 20  1  0
 20 21  2  0
  7  2  1  0
 14  9  1  0
 21 17  1  0
  3 22  1  0
  4 23  1  0
  6 24  1  0
 10 25  1  0
 11 26  1  0
 11 27  1  0
 13 28  1  0
 13 29  1  0
 14 30  1  0
 14 31  1  0
 18 32  1  0
 19 33  1  0
 21 34  1  0
M  END
$$$$
[H]/C(=N\N([H])C(=O)c1nc([H])c([H])c([H])c1[H])c1c([H])c([H])c([N+](=O)[O-])c([H])c1[H]
     RDKit          3D

 30 31  0  0  0  0  0  0  0  0999 V2000
   -7.0831   -0.5265    1.0101 O   0  0  0  0  0  0  0  0  0  0  0  0
   -6.4689    0.3911    0.2141 N   0  0  0  0  0  0  0  0  0  0  0  0
   -7.1353    1.2719   -0.3365 O   0  0  0  0  0  0  0  0  0  0  0  0
   -5.0741    0.3394    0.0158 C   0  0  0  0  0  0  0  0  0  0  0  0
   -4.2947   -0.6417    0.6227 C   0  0  0  0  0  0  0  0  0  0  0  0
   -2.9281   -0.7149    0.4455 C   0  0  0  0  0  0  0  0  0  0  0  0
   -2.2835    0.2058   -0.3581 C   0  0  0  0  0  0  0  0  0  0  0  0
   -0.8501    0.1329   -0.5470 C   0  0  0  0  0  0  0  0  0  0  0  0
   -0.1650   -0.7897    0.0319 N   0  0  0  0  0  0  0  0  0  0  0  0
    1.2416   -0.8460   -0.1649 N   0  0  0  0  0  0  0  0  0  0  0  0
    2.0835   -0.0820    0.6489 C   0  0  0  0  0  0  0  0  0  0  0  0
    1.5442    0.6476    1.5515 O   0  0  0  0  0  0  0  0  0  0  0  0
    3.5247   -0.1054    0.4872 C   0  0  0  0  0  0  0  0  0  0  0  0
    4.1296   -0.8704   -0.4629 C   0  0  0  0  0  0  0  0  0  0  0  0
    5.5164   -0.8681   -0.5895 C   0  0  0  0  0  0  0  0  0  0  0  0
    6.2420   -0.0895    0.2524 C   0  0  0  0  0  0  0  0  0  0  0  0
    5.5865    0.6682    1.1985 C   0  0  0  0  0  0  0  0  0  0  0  0
    4.2656    0.6535    1.3046 N   0  0  0  0  0  0  0  0  0  0  0  0
   -3.0321    1.1892   -0.9721 C   0  0  0  0  0  0  0  0  0  0  0  0
   -4.3953    1.2406   -0.7789 C   0  0  0  0  0  0  0  0  0  0  0  0
   -4.8326   -1.3572    1.2535 H   0  0  0  0  0  0  0  0  0  0  0  0
   -2.3780   -1.5197    0.9585 H   0  0  0  0  0  0  0  0  0  0  0  0
   -0.3603    0.8484   -1.1696 H   0  0  0  0  0  0  0  0  0  0  0  0
    1.6448   -1.4492   -0.9071 H   0  0  0  0  0  0  0  0  0  0  0  0
    3.5883   -1.5042   -1.1527 H   0  0  0  0  0  0  0  0  0  0  0  0
    6.0175   -1.4666   -1.3354 H   0  0  0  0  0  0  0  0  0  0  0  0
    7.3227   -0.0183    0.2347 H   0  0  0  0  0  0  0  0  0  0  0  0
    6.1720    1.3022    1.8846 H   0  0  0  0  0  0  0  0  0  0  0  0
   -2.5798    1.9465   -1.6198 H   0  0  0  0  0  0  0  0  0  0  0  0
   -5.0184    2.0120   -1.2544 H   0  0  0  0  0  0  0  0  0  0  0  0
  1  2  1  0
  2  3  2  0
  2  4  1  0
  4  5  2  0
  5  6  1  0
  6  7  2  0
  7  8  1  0
  8  9  2  0
  9 10  1  0
 10 11  1  0
 11 12  2  0
 11 13  1  0
 13 14  2  0
 14 15  1  0
 15 16  2  0
 16 17  1  0
 17 18  2  0
  7 19  1  0
 19 20  2  0
 20  4  1  0
 18 13  1  0
  5 21  1  0
  6 22  1  0
  8 23  1  0
 10 24  1  0
 14 25  1  0
 15 26  1  0
 16 27  1  0
 17 28  1  0
 19 29  1  0
 20 30  1  0
M  CHG  2   1  -1   2   1
M  END
$$$$
[H]c1nc(C(=O)N([H])c2c([H])c([H])c(C([H])([H])C([H])([H])C([H])([H])C([H])([H])C3(C([H])([H])c4c([H])c([H])c([H])c([H])c4[H])C(=O)N([H])C(=O)N3[H])c([H])c2[H])c([H])c(C(=O)C([H])([H])[H])c1[H]
     RDKit          3D

 64 67  0  0  0  0  0  0  0  0999 V2000
   10.2334    1.0917    0.2913 C   0  0  0  0  0  0  0  0  0  0  0  0
    8.8260    0.9828   -0.1513 C   0  0  0  0  0  0  0  0  0  0  0  0
    8.4444    1.6960   -1.1037 O   0  0  0  0  0  0  0  0  0  0  0  0
    7.9376    0.0704    0.5149 C   0  0  0  0  0  0  0  0  0  0  0  0
    8.3220   -0.7331    1.5694 C   0  0  0  0  0  0  0  0  0  0  0  0
    7.4608   -1.5963    2.1914 C   0  0  0  0  0  0  0  0  0  0  0  0
    6.2074   -1.6591    1.7592 N   0  0  0  0  0  0  0  0  0  0  0  0
    5.7655   -0.9107    0.7434 C   0  0  0  0  0  0  0  0  0  0  0  0
    6.6000   -0.0458    0.1088 C   0  0  0  0  0  0  0  0  0  0  0  0
    4.3602   -1.0483    0.3344 C   0  0  0  0  0  0  0  0  0  0  0  0
    3.6858   -1.8777    0.9941 O   0  0  0  0  0  0  0  0  0  0  0  0
    3.7988   -0.3153   -0.7126 N   0  0  0  0  0  0  0  0  0  0  0  0
    2.4766   -0.3887   -1.1480 C   0  0  0  0  0  0  0  0  0  0  0  0
    1.4130   -0.8900   -0.4468 C   0  0  0  0  0  0  0  0  0  0  0  0
    0.1055   -0.9516   -0.9696 C   0  0  0  0  0  0  0  0  0  0  0  0
   -0.1419   -0.4924   -2.2416 C   0  0  0  0  0  0  0  0  0  0  0  0
   -1.4854   -0.5427   -2.8006 C   0  0  0  0  0  0  0  0  0  0  0  0
   -2.3651    0.6240   -2.6279 C   0  0  0  0  0  0  0  0  0  0  0  0
   -2.7146    1.0300   -1.2426 C   0  0  0  0  0  0  0  0  0  0  0  0
   -3.4583    0.0018   -0.4477 C   0  0  0  0  0  0  0  0  0  0  0  0
   -3.7320    0.5719    0.9268 C   0  0  0  0  0  0  0  0  0  0  0  0
   -4.4749   -0.3769    1.8223 C   0  0  0  0  0  0  0  0  0  0  0  0
   -5.7821   -0.7358    1.2441 C   0  0  0  0  0  0  0  0  0  0  0  0
   -5.9690   -1.8364    0.4099 C   0  0  0  0  0  0  0  0  0  0  0  0
   -7.2131   -2.1222   -0.1005 C   0  0  0  0  0  0  0  0  0  0  0  0
   -8.2815   -1.3165    0.2141 C   0  0  0  0  0  0  0  0  0  0  0  0
   -8.1182   -0.2205    1.0393 C   0  0  0  0  0  0  0  0  0  0  0  0
   -6.8775    0.0756    1.5561 C   0  0  0  0  0  0  0  0  0  0  0  0
   -4.4191    1.8505    0.8433 N   0  0  0  0  0  0  0  0  0  0  0  0
   -3.5780    2.9039    1.2988 C   0  0  0  0  0  0  0  0  0  0  0  0
   -3.8061    4.1521    1.2897 O   0  0  0  0  0  0  0  0  0  0  0  0
   -2.3763    2.3460    1.7957 N   0  0  0  0  0  0  0  0  0  0  0  0
   -2.4846    0.9513    1.6433 C   0  0  0  0  0  0  0  0  0  0  0  0
   -1.6455    0.0919    2.0516 O   0  0  0  0  0  0  0  0  0  0  0  0
    0.9187    0.0228   -2.9772 C   0  0  0  0  0  0  0  0  0  0  0  0
    2.1810    0.0730   -2.4508 C   0  0  0  0  0  0  0  0  0  0  0  0
   10.3311    1.0644    1.4106 H   0  0  0  0  0  0  0  0  0  0  0  0
   10.6896    2.0488   -0.0567 H   0  0  0  0  0  0  0  0  0  0  0  0
   10.8198    0.2372   -0.1145 H   0  0  0  0  0  0  0  0  0  0  0  0
    9.3580   -0.6602    1.9031 H   0  0  0  0  0  0  0  0  0  0  0  0
    7.7896   -2.2091    3.0098 H   0  0  0  0  0  0  0  0  0  0  0  0
    6.3212    0.5900   -0.7152 H   0  0  0  0  0  0  0  0  0  0  0  0
    4.4407    0.3581   -1.2135 H   0  0  0  0  0  0  0  0  0  0  0  0
    1.5597   -1.2466    0.5620 H   0  0  0  0  0  0  0  0  0  0  0  0
   -0.6345   -1.3656   -0.3283 H   0  0  0  0  0  0  0  0  0  0  0  0
   -2.0342   -1.4392   -2.3867 H   0  0  0  0  0  0  0  0  0  0  0  0
   -1.3851   -0.7814   -3.8916 H   0  0  0  0  0  0  0  0  0  0  0  0
   -3.3481    0.3496   -3.1252 H   0  0  0  0  0  0  0  0  0  0  0  0
   -2.0477    1.5259   -3.2318 H   0  0  0  0  0  0  0  0  0  0  0  0
   -3.2877    1.9765   -1.1903 H   0  0  0  0  0  0  0  0  0  0  0  0
   -1.7502    1.2438   -0.6978 H   0  0  0  0  0  0  0  0  0  0  0  0
   -2.9733   -0.9627   -0.3291 H   0  0  0  0  0  0  0  0  0  0  0  0
   -4.4775   -0.0975   -0.9323 H   0  0  0  0  0  0  0  0  0  0  0  0
   -3.8325   -1.2832    1.9787 H   0  0  0  0  0  0  0  0  0  0  0  0
   -4.6382    0.0331    2.8353 H   0  0  0  0  0  0  0  0  0  0  0  0
   -5.0929   -2.4315    0.1988 H   0  0  0  0  0  0  0  0  0  0  0  0
   -7.3523   -2.9702   -0.7420 H   0  0  0  0  0  0  0  0  0  0  0  0
   -9.2656   -1.5170   -0.1712 H   0  0  0  0  0  0  0  0  0  0  0  0
   -8.9881    0.3771    1.2536 H   0  0  0  0  0  0  0  0  0  0  0  0
   -6.7635    0.9458    2.2074 H   0  0  0  0  0  0  0  0  0  0  0  0
   -5.3991    2.0448    0.5044 H   0  0  0  0  0  0  0  0  0  0  0  0
   -1.5592    2.8447    2.1990 H   0  0  0  0  0  0  0  0  0  0  0  0
    0.6817    0.3711   -3.9673 H   0  0  0  0  0  0  0  0  0  0  0  0
    3.0251    0.4777   -3.0260 H   0  0  0  0  0  0  0  0  0  0  0  0
  1  2  1  0
  2  3  2  0
  2  4  1  0
  4  5  2  0
  5  6  1  0
  6  7  2  0
  7  8  1  0
  8  9  2  0
  8 10  1  0
 10 11  2  0
 10 12  1  0
 12 13  1  0
 13 14  2  0
 14 15  1  0
 15 16  2  0
 16 17  1  0
 17 18  1  0
 18 19  1  0
 19 20  1  0
 20 21  1  0
 21 22  1  0
 22 23  1  0
 23 24  2  0
 24 25  1  0
 25 26  2  0
 26 27  1  0
 27 28  2  0
 21 29  1  0
 29 30  1  0
 30 31  2  0
 30 32  1  0
 32 33  1  0
 33 34  2  0
 16 35  1  0
 35 36  2  0
  9  4  1  0
 36 13  1  0
 33 21  1  0
 28 23  1  0
  1 37  1  0
  1 38  1  0
  1 39  1  0
  5 40  1  0
  6 41  1  0
  9 42  1  0
 12 43  1  0
 14 44  1  0
 15 45  1  0
 17 46  1  0
 17 47  1  0
 18 48  1  0
 18 49  1  0
 19 50  1  0
 19 51  1  0
 20 52  1  0
 20 53  1  0
 22 54  1  0
 22 55  1  0
 24 56  1  0
 25 57  1  0
 26 58  1  0
 27 59  1  0
 28 60  1  0
 29 61  1  0
 32 62  1  0
 35 63  1  0
 36 64  1  0
M  END
$$$$
[H]OC(=O)C1([H])N(C(=O)[C@]([H])(N([H])C(=O)[C@@]([H])(N([H])C(=O)[C@]([H])(N([H])C(=O)C([H])([H])C([H])([H])c2c([H])c([H])c([H])c([H])c2[H])C([H])([H])c2c([H])n([H])c3c([H])c([H])c([H])c([H])c23)C([H])([H])C([H])([H])C([H])([H])C([H])([H])[H])C([H])([H])C([H])([H])c2c([H])n([H])c3c([H])c([H])c([H])c([H])c23)C([H])([H])C([H])([H])C1([H])[H]
     RDKit          3D

105110  0  0  0  0  0  0  0  0999 V2000
    0.6595    1.9515    4.0394 C   0  0  0  0  0  0  0  0  0  0  0  0
   -0.3290    2.3860    2.9894 C   0  0  0  0  0  0  0  0  0  0  0  0
   -0.0598    1.7475    1.6343 C   0  0  0  0  0  0  0  0  0  0  0  0
   -0.1407    0.2666    1.6768 C   0  0  0  0  0  0  0  0  0  0  0  0
    0.0997   -0.4390    0.3612 C   0  0  2  0  0  0  0  0  0  0  0  0
    1.3323   -0.2069   -0.2528 N   0  0  0  0  0  0  0  0  0  0  0  0
    2.5056    0.0186   -0.8387 C   0  0  0  0  0  0  0  0  0  0  0  0
    2.9082    1.1045   -1.3718 O   0  0  0  0  0  0  0  0  0  0  0  0
    3.5972   -1.0527   -0.9477 C   0  0  1  0  0  0  0  0  0  0  0  0
    3.5607   -1.7864   -2.2224 C   0  0  0  0  0  0  0  0  0  0  0  0
    3.7031   -1.0646   -3.4876 C   0  0  0  0  0  0  0  0  0  0  0  0
    2.6368   -0.6498   -4.3136 C   0  0  0  0  0  0  0  0  0  0  0  0
    3.1297   -0.0299   -5.3858 N   0  0  0  0  0  0  0  0  0  0  0  0
    4.4806    0.0043   -5.3282 C   0  0  0  0  0  0  0  0  0  0  0  0
    5.4227    0.5269   -6.2026 C   0  0  0  0  0  0  0  0  0  0  0  0
    6.7716    0.4192   -5.9232 C   0  0  0  0  0  0  0  0  0  0  0  0
    7.1414   -0.2249   -4.7417 C   0  0  0  0  0  0  0  0  0  0  0  0
    6.1915   -0.7275   -3.9029 C   0  0  0  0  0  0  0  0  0  0  0  0
    4.8271   -0.6333   -4.1550 C   0  0  0  0  0  0  0  0  0  0  0  0
    4.8447   -0.4656   -0.5740 N   0  0  0  0  0  0  0  0  0  0  0  0
    5.4875   -0.7407    0.6448 C   0  0  0  0  0  0  0  0  0  0  0  0
    4.8989   -1.5766    1.4225 O   0  0  0  0  0  0  0  0  0  0  0  0
    6.7585   -0.1514    1.1170 C   0  0  0  0  0  0  0  0  0  0  0  0
    6.8692   -0.5099    2.5879 C   0  0  0  0  0  0  0  0  0  0  0  0
    8.0145    0.0465    3.2913 C   0  0  0  0  0  0  0  0  0  0  0  0
    7.9687    1.3711    3.7559 C   0  0  0  0  0  0  0  0  0  0  0  0
    8.9911    1.9123    4.4838 C   0  0  0  0  0  0  0  0  0  0  0  0
   10.0906    1.1790    4.7847 C   0  0  0  0  0  0  0  0  0  0  0  0
   10.1705   -0.1108    4.3517 C   0  0  0  0  0  0  0  0  0  0  0  0
    9.1223   -0.6624    3.6031 C   0  0  0  0  0  0  0  0  0  0  0  0
   -1.0784   -0.4479   -0.5513 C   0  0  0  0  0  0  0  0  0  0  0  0
   -0.8534   -0.1714   -1.7550 O   0  0  0  0  0  0  0  0  0  0  0  0
   -2.3620   -0.7573   -0.0895 N   0  0  0  0  0  0  0  0  0  0  0  0
   -3.6143   -0.8282   -0.8017 C   0  0  2  0  0  0  0  0  0  0  0  0
   -4.3690    0.4440   -0.3804 C   0  0  0  0  0  0  0  0  0  0  0  0
   -4.5337    0.4667    1.1236 C   0  0  0  0  0  0  0  0  0  0  0  0
   -5.2681    1.6949    1.4992 C   0  0  0  0  0  0  0  0  0  0  0  0
   -4.7004    2.9244    1.8289 C   0  0  0  0  0  0  0  0  0  0  0  0
   -5.6857    3.8129    2.0679 N   0  0  0  0  0  0  0  0  0  0  0  0
   -6.8901    3.2220    1.9139 C   0  0  0  0  0  0  0  0  0  0  0  0
   -8.1703    3.7216    2.0730 C   0  0  0  0  0  0  0  0  0  0  0  0
   -9.2340    2.8520    1.8738 C   0  0  0  0  0  0  0  0  0  0  0  0
   -8.9875    1.5314    1.5235 C   0  0  0  0  0  0  0  0  0  0  0  0
   -7.6991    1.0642    1.3685 C   0  0  0  0  0  0  0  0  0  0  0  0
   -6.6373    1.8991    1.5601 C   0  0  0  0  0  0  0  0  0  0  0  0
   -4.3474   -2.0423   -0.5169 C   0  0  0  0  0  0  0  0  0  0  0  0
   -3.8767   -2.8173    0.4221 O   0  0  0  0  0  0  0  0  0  0  0  0
   -5.5094   -2.4437   -1.1683 N   0  0  0  0  0  0  0  0  0  0  0  0
   -6.2491   -3.6767   -0.8478 C   0  0  0  0  0  0  0  0  0  0  0  0
   -6.2775   -4.3110   -2.2221 C   0  0  0  0  0  0  0  0  0  0  0  0
   -6.4709   -3.1421   -3.1421 C   0  0  0  0  0  0  0  0  0  0  0  0
   -6.2103   -1.8644   -2.2757 C   0  0  0  0  0  0  0  0  0  0  0  0
   -7.5494   -1.3169   -2.0296 C   0  0  0  0  0  0  0  0  0  0  0  0
   -8.6564   -2.0364   -1.5950 O   0  0  0  0  0  0  0  0  0  0  0  0
   -7.7957   -0.0748   -2.2249 O   0  0  0  0  0  0  0  0  0  0  0  0
    0.6239    0.8588    4.2309 H   0  0  0  0  0  0  0  0  0  0  0  0
    1.6993    2.2212    3.7384 H   0  0  0  0  0  0  0  0  0  0  0  0
    0.3767    2.4483    4.9893 H   0  0  0  0  0  0  0  0  0  0  0  0
   -0.1762    3.4906    2.8360 H   0  0  0  0  0  0  0  0  0  0  0  0
   -1.3611    2.2074    3.3383 H   0  0  0  0  0  0  0  0  0  0  0  0
   -0.7318    2.2413    0.9071 H   0  0  0  0  0  0  0  0  0  0  0  0
    0.9930    2.0144    1.3220 H   0  0  0  0  0  0  0  0  0  0  0  0
    0.5748   -0.1582    2.4119 H   0  0  0  0  0  0  0  0  0  0  0  0
   -1.1398   -0.0059    2.0772 H   0  0  0  0  0  0  0  0  0  0  0  0
    0.1304   -1.5974    0.6608 H   0  0  0  0  0  0  0  0  0  0  0  0
    0.9174    1.0780   -0.4614 H   0  0  0  0  0  0  0  0  0  0  0  0
    3.3335   -1.7895   -0.1311 H   0  0  0  0  0  0  0  0  0  0  0  0
    4.3810   -2.5776   -2.1864 H   0  0  0  0  0  0  0  0  0  0  0  0
    2.6504   -2.4259   -2.3379 H   0  0  0  0  0  0  0  0  0  0  0  0
    1.5987   -0.8254   -4.1065 H   0  0  0  0  0  0  0  0  0  0  0  0
    2.5848    0.3904   -6.2082 H   0  0  0  0  0  0  0  0  0  0  0  0
    5.1002    1.0066   -7.1052 H   0  0  0  0  0  0  0  0  0  0  0  0
    7.4827    0.8330   -6.6115 H   0  0  0  0  0  0  0  0  0  0  0  0
    8.1904   -0.3269   -4.5088 H   0  0  0  0  0  0  0  0  0  0  0  0
    6.4913   -1.2354   -2.9961 H   0  0  0  0  0  0  0  0  0  0  0  0
    5.3228    0.2201   -1.1983 H   0  0  0  0  0  0  0  0  0  0  0  0
    6.7476    0.9614    1.0619 H   0  0  0  0  0  0  0  0  0  0  0  0
    7.6339   -0.4785    0.5388 H   0  0  0  0  0  0  0  0  0  0  0  0
    6.9494   -1.6281    2.6054 H   0  0  0  0  0  0  0  0  0  0  0  0
    5.9310   -0.1784    3.0894 H   0  0  0  0  0  0  0  0  0  0  0  0
    7.0811    1.9379    3.4934 H   0  0  0  0  0  0  0  0  0  0  0  0
    8.9405    2.9519    4.8446 H   0  0  0  0  0  0  0  0  0  0  0  0
   10.8819    1.6623    5.3722 H   0  0  0  0  0  0  0  0  0  0  0  0
   11.0504   -0.6753    4.6026 H   0  0  0  0  0  0  0  0  0  0  0  0
    9.2929   -1.6940    3.3095 H   0  0  0  0  0  0  0  0  0  0  0  0
   -2.4576   -1.0043    0.9510 H   0  0  0  0  0  0  0  0  0  0  0  0
   -3.4391   -0.7196   -1.8749 H   0  0  0  0  0  0  0  0  0  0  0  0
   -5.3363    0.4992   -0.8446 H   0  0  0  0  0  0  0  0  0  0  0  0
   -3.7570    1.3159   -0.6782 H   0  0  0  0  0  0  0  0  0  0  0  0
   -3.5531    0.5066    1.6586 H   0  0  0  0  0  0  0  0  0  0  0  0
   -5.1120   -0.4058    1.4875 H   0  0  0  0  0  0  0  0  0  0  0  0
   -3.6637    3.1175    1.8778 H   0  0  0  0  0  0  0  0  0  0  0  0
   -5.6066    4.8304    2.3333 H   0  0  0  0  0  0  0  0  0  0  0  0
   -8.3674    4.7578    2.3500 H   0  0  0  0  0  0  0  0  0  0  0  0
  -10.2497    3.2036    1.9895 H   0  0  0  0  0  0  0  0  0  0  0  0
   -9.8243    0.8549    1.3712 H   0  0  0  0  0  0  0  0  0  0  0  0
   -7.4905    0.0258    1.0884 H   0  0  0  0  0  0  0  0  0  0  0  0
   -7.2365   -3.5002   -0.4339 H   0  0  0  0  0  0  0  0  0  0  0  0
   -5.6203   -4.3409   -0.1947 H   0  0  0  0  0  0  0  0  0  0  0  0
   -7.0490   -5.0975   -2.3062 H   0  0  0  0  0  0  0  0  0  0  0  0
   -5.2391   -4.7166   -2.4300 H   0  0  0  0  0  0  0  0  0  0  0  0
   -5.7816   -3.1103   -4.0006 H   0  0  0  0  0  0  0  0  0  0  0  0
   -7.4892   -3.1393   -3.5344 H   0  0  0  0  0  0  0  0  0  0  0  0
   -5.5829   -1.1773   -2.8780 H   0  0  0  0  0  0  0  0  0  0  0  0
   -9.3236   -2.4317   -2.2601 H   0  0  0  0  0  0  0  0  0  0  0  0
  1  2  1  0
  2  3  1  0
  3  4  1  0
  4  5  1  0
  5  6  1  0
  6  7  1  0
  7  8  2  0
  7  9  1  0
  9 10  1  0
 10 11  1  0
 11 12  2  0
 12 13  1  0
 13 14  1  0
 14 15  2  0
 15 16  1  0
 16 17  2  0
 17 18  1  0
 18 19  2  0
  9 20  1  0
 20 21  1  0
 21 22  2  0
 21 23  1  0
 23 24  1  0
 24 25  1  0
 25 26  2  0
 26 27  1  0
 27 28  2  0
 28 29  1  0
 29 30  2  0
  5 31  1  0
 31 32  2  0
 31 33  1  0
 33 34  1  0
 34 35  1  0
 35 36  1  0
 36 37  1  0
 37 38  2  0
 38 39  1  0
 39 40  1  0
 40 41  2  0
 41 42  1  0
 42 43  2  0
 43 44  1  0
 44 45  2  0
 34 46  1  0
 46 47  2  0
 46 48  1  0
 48 49  1  0
 49 50  1  0
 50 51  1  0
 51 52  1  0
 52 53  1  0
 53 54  1  0
 53 55  2  0
 19 11  1  0
 30 25  1  0
 45 37  1  0
 52 48  1  0
 19 14  1  0
 45 40  1  0
  1 56  1  0
  1 57  1  0
  1 58  1  0
  2 59  1  0
  2 60  1  0
  3 61  1  0
  3 62  1  0
  4 63  1  0
  4 64  1  0
  5 65  1  1
  6 66  1  0
  9 67  1  1
 10 68  1  0
 10 69  1  0
 12 70  1  0
 13 71  1  0
 15 72  1  0
 16 73  1  0
 17 74  1  0
 18 75  1  0
 20 76  1  0
 23 77  1  0
 23 78  1  0
 24 79  1  0
 24 80  1  0
 26 81  1  0
 27 82  1  0
 28 83  1  0
 29 84  1  0
 30 85  1  0
 33 86  1  0
 34 87  1  6
 35 88  1  0
 35 89  1  0
 36 90  1  0
 36 91  1  0
 38 92  1  0
 39 93  1  0
 41 94  1  0
 42 95  1  0
 43 96  1  0
 44 97  1  0
 49 98  1  0
 49 99  1  0
 50100  1  0
 50101  1  0
 51102  1  0
 51103  1  0
 52104  1  0
 54105  1  0
M  END
$$$$
[H]c1nc2nn(C([H])([H])C([H])([H])C([H])([H])C([H])([H])C([H])([H])C([H])([H])C([H])([H])C([H])([H])C([H])([H])C([H])([H])C([H])([H])C([H])([H])[H])c([H])c2c(N2C([H])([H])C([H])([H])N(C([H])([H])c3c([H])c([H])c4c([H])c([H])c([H])c([H])c4c3[H])C([H])([H])C2([H])[H])c1[H]
     RDKit          3D

 83 87  0  0  0  0  0  0  0  0999 V2000
   10.4746   -0.4947   -0.9865 C   0  0  0  0  0  0  0  0  0  0  0  0
    9.3319   -1.4491   -1.1794 C   0  0  0  0  0  0  0  0  0  0  0  0
    8.6991   -1.6926    0.1809 C   0  0  0  0  0  0  0  0  0  0  0  0
    7.5417   -2.6377    0.0877 C   0  0  0  0  0  0  0  0  0  0  0  0
    6.4275   -2.1602   -0.8173 C   0  0  0  0  0  0  0  0  0  0  0  0
    5.9222   -0.8548   -0.2674 C   0  0  0  0  0  0  0  0  0  0  0  0
    4.8086   -0.2497   -1.0525 C   0  0  0  0  0  0  0  0  0  0  0  0
    3.5648   -0.9926   -1.2068 C   0  0  0  0  0  0  0  0  0  0  0  0
    2.7360   -1.4292   -0.0910 C   0  0  0  0  0  0  0  0  0  0  0  0
    2.1082   -0.4933    0.8522 C   0  0  0  0  0  0  0  0  0  0  0  0
    3.0186    0.3437    1.6884 C   0  0  0  0  0  0  0  0  0  0  0  0
    2.2707    1.2635    2.6586 C   0  0  0  0  0  0  0  0  0  0  0  0
    1.4041    2.2097    1.9688 N   0  0  0  0  0  0  0  0  0  0  0  0
    0.1113    2.0800    1.6340 C   0  0  0  0  0  0  0  0  0  0  0  0
   -0.3466    3.2045    0.9871 C   0  0  0  0  0  0  0  0  0  0  0  0
   -1.5656    3.5640    0.4539 C   0  0  0  0  0  0  0  0  0  0  0  0
   -1.6830    4.8000   -0.1401 C   0  0  0  0  0  0  0  0  0  0  0  0
   -0.5874    5.6211   -0.1777 C   0  0  0  0  0  0  0  0  0  0  0  0
    0.6028    5.2732    0.3417 N   0  0  0  0  0  0  0  0  0  0  0  0
    0.7514    4.0542    0.9375 C   0  0  0  0  0  0  0  0  0  0  0  0
    1.7646    3.4254    1.5296 N   0  0  0  0  0  0  0  0  0  0  0  0
   -2.6387    2.6537    0.5399 N   0  0  0  0  0  0  0  0  0  0  0  0
   -2.6324    1.3257   -0.0454 C   0  0  0  0  0  0  0  0  0  0  0  0
   -3.9508    1.0671   -0.7881 C   0  0  0  0  0  0  0  0  0  0  0  0
   -5.0434    1.5812   -0.0519 N   0  0  0  0  0  0  0  0  0  0  0  0
   -6.3491    1.2354   -0.4314 C   0  0  0  0  0  0  0  0  0  0  0  0
   -6.7157   -0.1866   -0.3969 C   0  0  0  0  0  0  0  0  0  0  0  0
   -5.9712   -1.1081    0.3022 C   0  0  0  0  0  0  0  0  0  0  0  0
   -6.3822   -2.4231    0.2798 C   0  0  0  0  0  0  0  0  0  0  0  0
   -7.5037   -2.8080   -0.4197 C   0  0  0  0  0  0  0  0  0  0  0  0
   -7.9191   -4.1394   -0.4419 C   0  0  0  0  0  0  0  0  0  0  0  0
   -9.0423   -4.5087   -1.1458 C   0  0  0  0  0  0  0  0  0  0  0  0
   -9.8005   -3.5997   -1.8521 C   0  0  0  0  0  0  0  0  0  0  0  0
   -9.4023   -2.2806   -1.8394 C   0  0  0  0  0  0  0  0  0  0  0  0
   -8.2659   -1.9032   -1.1279 C   0  0  0  0  0  0  0  0  0  0  0  0
   -7.8412   -0.5928   -1.0951 C   0  0  0  0  0  0  0  0  0  0  0  0
   -4.7929    1.9377    1.2969 C   0  0  0  0  0  0  0  0  0  0  0  0
   -3.8138    3.1196    1.2728 C   0  0  0  0  0  0  0  0  0  0  0  0
   11.1339   -0.5764   -1.8691 H   0  0  0  0  0  0  0  0  0  0  0  0
   10.0315    0.5350   -0.9040 H   0  0  0  0  0  0  0  0  0  0  0  0
   10.9872   -0.6997   -0.0372 H   0  0  0  0  0  0  0  0  0  0  0  0
    9.6545   -2.4134   -1.6326 H   0  0  0  0  0  0  0  0  0  0  0  0
    8.5734   -1.0146   -1.8552 H   0  0  0  0  0  0  0  0  0  0  0  0
    8.5037   -0.7393    0.6684 H   0  0  0  0  0  0  0  0  0  0  0  0
    9.4955   -2.2422    0.7683 H   0  0  0  0  0  0  0  0  0  0  0  0
    7.1755   -2.9623    1.0695 H   0  0  0  0  0  0  0  0  0  0  0  0
    7.9419   -3.5698   -0.4020 H   0  0  0  0  0  0  0  0  0  0  0  0
    6.8354   -2.0832   -1.8291 H   0  0  0  0  0  0  0  0  0  0  0  0
    5.6101   -2.9058   -0.7247 H   0  0  0  0  0  0  0  0  0  0  0  0
    5.6209   -1.0584    0.7758 H   0  0  0  0  0  0  0  0  0  0  0  0
    6.7886   -0.1623   -0.2171 H   0  0  0  0  0  0  0  0  0  0  0  0
    5.2512   -0.2002   -2.1331 H   0  0  0  0  0  0  0  0  0  0  0  0
    4.6720    0.7968   -0.8285 H   0  0  0  0  0  0  0  0  0  0  0  0
    3.6624   -1.8838   -1.9098 H   0  0  0  0  0  0  0  0  0  0  0  0
    2.8881   -0.3204   -1.8524 H   0  0  0  0  0  0  0  0  0  0  0  0
    1.8704   -2.0239   -0.5605 H   0  0  0  0  0  0  0  0  0  0  0  0
    3.2162   -2.2447    0.5340 H   0  0  0  0  0  0  0  0  0  0  0  0
    1.4966   -1.0953    1.6045 H   0  0  0  0  0  0  0  0  0  0  0  0
    1.2981    0.1305    0.3678 H   0  0  0  0  0  0  0  0  0  0  0  0
    3.6155   -0.3281    2.3860 H   0  0  0  0  0  0  0  0  0  0  0  0
    3.7200    0.9877    1.1687 H   0  0  0  0  0  0  0  0  0  0  0  0
    3.0257    1.8070    3.2239 H   0  0  0  0  0  0  0  0  0  0  0  0
    1.6723    0.6522    3.3845 H   0  0  0  0  0  0  0  0  0  0  0  0
   -0.5199    1.2238    1.8288 H   0  0  0  0  0  0  0  0  0  0  0  0
   -2.6543    5.0568   -0.5517 H   0  0  0  0  0  0  0  0  0  0  0  0
   -0.6893    6.6050   -0.6533 H   0  0  0  0  0  0  0  0  0  0  0  0
   -1.7613    1.2315   -0.7084 H   0  0  0  0  0  0  0  0  0  0  0  0
   -2.5492    0.5482    0.7362 H   0  0  0  0  0  0  0  0  0  0  0  0
   -3.9648    0.0162   -1.0630 H   0  0  0  0  0  0  0  0  0  0  0  0
   -3.8407    1.6641   -1.7375 H   0  0  0  0  0  0  0  0  0  0  0  0
   -6.5079    1.6127   -1.4851 H   0  0  0  0  0  0  0  0  0  0  0  0
   -7.0604    1.8565    0.1694 H   0  0  0  0  0  0  0  0  0  0  0  0
   -5.0738   -0.8134    0.8683 H   0  0  0  0  0  0  0  0  0  0  0  0
   -5.8142   -3.1760    0.8237 H   0  0  0  0  0  0  0  0  0  0  0  0
   -7.3074   -4.8369    0.1206 H   0  0  0  0  0  0  0  0  0  0  0  0
   -9.3081   -5.5631   -1.1193 H   0  0  0  0  0  0  0  0  0  0  0  0
  -10.6821   -3.9320   -2.3959 H   0  0  0  0  0  0  0  0  0  0  0  0
   -9.9811   -1.5429   -2.3876 H   0  0  0  0  0  0  0  0  0  0  0  0
   -8.4515    0.1139   -1.6579 H   0  0  0  0  0  0  0  0  0  0  0  0
   -4.2816    1.1727    1.9172 H   0  0  0  0  0  0  0  0  0  0  0  0
   -5.7278    2.2974    1.7708 H   0  0  0  0  0  0  0  0  0  0  0  0
   -3.5693    3.3974    2.3039 H   0  0  0  0  0  0  0  0  0  0  0  0
   -4.2861    3.9270    0.6993 H   0  0  0  0  0  0  0  0  0  0  0  0
  1  2  1  0
  2  3  1  0
  3  4  1  0
  4  5  1  0
  5  6  1  0
  6  7  1  0
  7  8  1  0
  8  9  1  0
  9 10  1  0
 10 11  1  0
 11 12  1  0
 12 13  1  0
 13 14  1  0
 14 15  2  0
 15 16  1  0
 16 17  2  0
 17 18  1  0
 18 19  2  0
 19 20  1  0
 20 21  2  0
 16 22  1  0
 22 23  1  0
 23 24  1  0
 24 25  1  0
 25 26  1  0
 26 27  1  0
 27 28  2  0
 28 29  1  0
 29 30  2  0
 30 31  1  0
 31 32  2  0
 32 33  1  0
 33 34  2  0
 34 35  1  0
 35 36  2  0
 25 37  1  0
 37 38  1  0
 21 13  1  0
 38 22  1  0
 20 15  1  0
 36 27  1  0
 35 30  1  0
  1 39  1  0
  1 40  1  0
  1 41  1  0
  2 42  1  0
  2 43  1  0
  3 44  1  0
  3 45  1  0
  4 46  1  0
  4 47  1  0
  5 48  1  0
  5 49  1  0
  6 50  1  0
  6 51  1  0
  7 52  1  0
  7 53  1  0
  8 54  1  0
  8 55  1  0
  9 56  1  0
  9 57  1  0
 10 58  1  0
 10 59  1  0
 11 60  1  0
 11 61  1  0
 12 62  1  0
 12 63  1  0
 14 64  1  0
 17 65  1  0
 18 66  1  0
 23 67  1  0
 23 68  1  0
 24 69  1  0
 24 70  1  0
 26 71  1  0
 26 72  1  0
 28 73  1  0
 29 74  1  0
 31 75  1  0
 32 76  1  0
 33 77  1  0
 34 78  1  0
 36 79  1  0
 37 80  1  0
 37 81  1  0
 38 82  1  0
 38 83  1  0
M  END
$$$$
[H]c1nc(N([H])c2c([H])c([H])c(N3C([H])([H])C([H])([H])N(S(=O)(=O)C(F)(F)F)C([H])([H])C3([H])[H])c([H])c2[H])nc([H])c1-c1c([H])c(C(=O)N([H])c2c([H])c([H])c([H])c(C([H])([H])N3C([H])([H])C([H])([H])N(C([H])([H])[H])C([H])([H])C3([H])[H])c2C(F)(F)F)c([H])c([H])c1C([H])([H])[H]
     RDKit          3D

 92 97  0  0  0  0  0  0  0  0999 V2000
  -13.1891   -2.6185   -0.9458 C   0  0  0  0  0  0  0  0  0  0  0  0
  -12.9300   -1.9289    0.3055 N   0  0  0  0  0  0  0  0  0  0  0  0
  -13.1923   -0.5017    0.2079 C   0  0  0  0  0  0  0  0  0  0  0  0
  -12.0126    0.3081    0.6177 C   0  0  0  0  0  0  0  0  0  0  0  0
  -10.8092    0.0628   -0.1817 N   0  0  0  0  0  0  0  0  0  0  0  0
   -9.7166    0.5414    0.7032 C   0  0  0  0  0  0  0  0  0  0  0  0
   -8.4133    0.5588    0.0373 C   0  0  0  0  0  0  0  0  0  0  0  0
   -8.3523    0.2450   -1.3102 C   0  0  0  0  0  0  0  0  0  0  0  0
   -7.2007    0.2637   -2.0316 C   0  0  0  0  0  0  0  0  0  0  0  0
   -6.0479    0.6162   -1.3775 C   0  0  0  0  0  0  0  0  0  0  0  0
   -6.0267    0.9401   -0.0513 C   0  0  0  0  0  0  0  0  0  0  0  0
   -4.8151    1.4074    0.4848 N   0  0  0  0  0  0  0  0  0  0  0  0
   -3.5502    1.0010    0.0465 C   0  0  0  0  0  0  0  0  0  0  0  0
   -3.3465    0.1449   -0.8813 O   0  0  0  0  0  0  0  0  0  0  0  0
   -2.3022    1.5383    0.6366 C   0  0  0  0  0  0  0  0  0  0  0  0
   -2.3312    2.7085    1.3282 C   0  0  0  0  0  0  0  0  0  0  0  0
   -1.1657    3.2001    1.8959 C   0  0  0  0  0  0  0  0  0  0  0  0
    0.0604    2.5194    1.7791 C   0  0  0  0  0  0  0  0  0  0  0  0
    1.2813    3.0920    2.4271 C   0  0  0  0  0  0  0  0  0  0  0  0
    0.0656    1.3468    1.0803 C   0  0  0  0  0  0  0  0  0  0  0  0
   -1.1076    0.8652    0.5159 C   0  0  0  0  0  0  0  0  0  0  0  0
    1.2906    0.5872    0.9203 C   0  0  0  0  0  0  0  0  0  0  0  0
    1.3056   -0.7907    1.1777 C   0  0  0  0  0  0  0  0  0  0  0  0
    2.4104   -1.5106    1.0309 N   0  0  0  0  0  0  0  0  0  0  0  0
    3.5983   -0.9708    0.6242 C   0  0  0  0  0  0  0  0  0  0  0  0
    4.6726   -1.8545    0.4887 N   0  0  0  0  0  0  0  0  0  0  0  0
    5.9908   -1.5100    0.1017 C   0  0  0  0  0  0  0  0  0  0  0  0
    6.8043   -2.5269   -0.4470 C   0  0  0  0  0  0  0  0  0  0  0  0
    8.1049   -2.2681   -0.8113 C   0  0  0  0  0  0  0  0  0  0  0  0
    8.6922   -1.0333   -0.6719 C   0  0  0  0  0  0  0  0  0  0  0  0
    7.8951   -0.0437   -0.1368 C   0  0  0  0  0  0  0  0  0  0  0  0
    6.5660   -0.2892    0.2411 C   0  0  0  0  0  0  0  0  0  0  0  0
   10.0306   -0.7281   -1.0392 N   0  0  0  0  0  0  0  0  0  0  0  0
   10.6437    0.5502   -0.6512 C   0  0  0  0  0  0  0  0  0  0  0  0
   12.0035    0.6070   -1.2754 C   0  0  0  0  0  0  0  0  0  0  0  0
   12.8118   -0.5047   -0.8821 N   0  0  0  0  0  0  0  0  0  0  0  0
   12.1434   -1.7895   -0.9690 C   0  0  0  0  0  0  0  0  0  0  0  0
   10.8715   -1.6091   -1.8015 C   0  0  0  0  0  0  0  0  0  0  0  0
   14.2817   -0.6420   -1.7391 S   0  0  0  0  0  0  0  0  0  0  0  0
   14.9980   -1.8716   -1.2161 O   0  0  0  0  0  0  0  0  0  0  0  0
   14.0408   -0.8596   -3.2146 O   0  0  0  0  0  0  0  0  0  0  0  0
   15.3627    0.7267   -1.5391 C   0  0  0  0  0  0  0  0  0  0  0  0
   14.8025    1.9133   -1.9658 F   0  0  0  0  0  0  0  0  0  0  0  0
   16.4682    0.4949   -2.3690 F   0  0  0  0  0  0  0  0  0  0  0  0
   15.8836    0.8008   -0.2573 F   0  0  0  0  0  0  0  0  0  0  0  0
    3.5795    0.3353    0.3815 N   0  0  0  0  0  0  0  0  0  0  0  0
    2.5006    1.1007    0.5125 C   0  0  0  0  0  0  0  0  0  0  0  0
   -7.2152    0.9126    0.6716 C   0  0  0  0  0  0  0  0  0  0  0  0
   -7.2975    1.1824    2.0984 C   0  0  0  0  0  0  0  0  0  0  0  0
   -8.1328    2.2700    2.3112 F   0  0  0  0  0  0  0  0  0  0  0  0
   -7.8024    0.0647    2.8012 F   0  0  0  0  0  0  0  0  0  0  0  0
   -6.1335    1.4609    2.7562 F   0  0  0  0  0  0  0  0  0  0  0  0
  -10.6957   -1.3919   -0.2967 C   0  0  0  0  0  0  0  0  0  0  0  0
  -11.5412   -2.0766    0.7088 C   0  0  0  0  0  0  0  0  0  0  0  0
  -12.5321   -3.4919   -1.0420 H   0  0  0  0  0  0  0  0  0  0  0  0
  -13.0257   -1.9711   -1.8291 H   0  0  0  0  0  0  0  0  0  0  0  0
  -14.2487   -2.9794   -0.9495 H   0  0  0  0  0  0  0  0  0  0  0  0
  -13.4367   -0.2824   -0.8458 H   0  0  0  0  0  0  0  0  0  0  0  0
  -14.0705   -0.2881    0.8536 H   0  0  0  0  0  0  0  0  0  0  0  0
  -11.8321    0.2440    1.6893 H   0  0  0  0  0  0  0  0  0  0  0  0
  -12.2763    1.3851    0.3584 H   0  0  0  0  0  0  0  0  0  0  0  0
   -9.9935    1.6075    0.9605 H   0  0  0  0  0  0  0  0  0  0  0  0
   -9.8041   -0.0368    1.6214 H   0  0  0  0  0  0  0  0  0  0  0  0
   -9.2666   -0.0160   -1.8486 H   0  0  0  0  0  0  0  0  0  0  0  0
   -7.1898    0.0055   -3.1047 H   0  0  0  0  0  0  0  0  0  0  0  0
   -5.1589    0.6459   -1.9938 H   0  0  0  0  0  0  0  0  0  0  0  0
   -4.8274    2.1392    1.2215 H   0  0  0  0  0  0  0  0  0  0  0  0
   -3.2160    3.3080    1.4747 H   0  0  0  0  0  0  0  0  0  0  0  0
   -1.1826    4.1254    2.4433 H   0  0  0  0  0  0  0  0  0  0  0  0
    1.9549    2.3226    2.8265 H   0  0  0  0  0  0  0  0  0  0  0  0
    0.9023    3.6414    3.3401 H   0  0  0  0  0  0  0  0  0  0  0  0
    1.7705    3.8657    1.8266 H   0  0  0  0  0  0  0  0  0  0  0  0
   -1.0624   -0.0519   -0.0210 H   0  0  0  0  0  0  0  0  0  0  0  0
    0.3491   -1.2143    1.5036 H   0  0  0  0  0  0  0  0  0  0  0  0
    4.4664   -2.8952    0.7032 H   0  0  0  0  0  0  0  0  0  0  0  0
    6.3696   -3.4933   -0.5647 H   0  0  0  0  0  0  0  0  0  0  0  0
    8.7169   -3.0682   -1.2297 H   0  0  0  0  0  0  0  0  0  0  0  0
    8.3112    0.9504   -0.0051 H   0  0  0  0  0  0  0  0  0  0  0  0
    5.9919    0.5347    0.6715 H   0  0  0  0  0  0  0  0  0  0  0  0
   10.0198    1.3597   -1.0967 H   0  0  0  0  0  0  0  0  0  0  0  0
   10.7205    0.6288    0.4507 H   0  0  0  0  0  0  0  0  0  0  0  0
   11.8649    0.6925   -2.3746 H   0  0  0  0  0  0  0  0  0  0  0  0
   12.5514    1.5299   -0.9849 H   0  0  0  0  0  0  0  0  0  0  0  0
   12.7376   -2.5836   -1.4128 H   0  0  0  0  0  0  0  0  0  0  0  0
   11.8422   -2.0818    0.0414 H   0  0  0  0  0  0  0  0  0  0  0  0
   11.1435   -1.1786   -2.7920 H   0  0  0  0  0  0  0  0  0  0  0  0
   10.4668   -2.6077   -1.9940 H   0  0  0  0  0  0  0  0  0  0  0  0
    2.5171    2.1777    0.2948 H   0  0  0  0  0  0  0  0  0  0  0  0
  -11.0629   -1.6274   -1.3369 H   0  0  0  0  0  0  0  0  0  0  0  0
   -9.6534   -1.7506   -0.1561 H   0  0  0  0  0  0  0  0  0  0  0  0
  -11.2731   -3.1619    0.7517 H   0  0  0  0  0  0  0  0  0  0  0  0
  -11.4167   -1.6998    1.7190 H   0  0  0  0  0  0  0  0  0  0  0  0
  1  2  1  0
  2  3  1  0
  3  4  1  0
  4  5  1  0
  5  6  1  0
  6  7  1  0
  7  8  2  0
  8  9  1  0
  9 10  2  0
 10 11  1  0
 11 12  1  0
 12 13  1  0
 13 14  2  0
 13 15  1  0
 15 16  2  0
 16 17  1  0
 17 18  2  0
 18 19  1  0
 18 20  1  0
 20 21  2  0
 20 22  1  0
 22 23  2  0
 23 24  1  0
 24 25  2  0
 25 26  1  0
 26 27  1  0
 27 28  2  0
 28 29  1  0
 29 30  2  0
 30 31  1  0
 31 32  2  0
 30 33  1  0
 33 34  1  0
 34 35  1  0
 35 36  1  0
 36 37  1  0
 37 38  1  0
 36 39  1  0
 39 40  2  0
 39 41  2  0
 39 42  1  0
 42 43  1  0
 42 44  1  0
 42 45  1  0
 25 46  1  0
 46 47  2  0
 11 48  2  0
 48 49  1  0
 49 50  1  0
 49 51  1  0
 49 52  1  0
  5 53  1  0
 53 54  1  0
 54  2  1  0
 48  7  1  0
 21 15  1  0
 47 22  1  0
 32 27  1  0
 38 33  1  0
  1 55  1  0
  1 56  1  0
  1 57  1  0
  3 58  1  0
  3 59  1  0
  4 60  1  0
  4 61  1  0
  6 62  1  0
  6 63  1  0
  8 64  1  0
  9 65  1  0
 10 66  1  0
 12 67  1  0
 16 68  1  0
 17 69  1  0
 19 70  1  0
 19 71  1  0
 19 72  1  0
 21 73  1  0
 23 74  1  0
 26 75  1  0
 28 76  1  0
 29 77  1  0
 31 78  1  0
 32 79  1  0
 34 80  1  0
 34 81  1  0
 35 82  1  0
 35 83  1  0
 37 84  1  0
 37 85  1  0
 38 86  1  0
 38 87  1  0
 47 88  1  0
 53 89  1  0
 53 90  1  0
 54 91  1  0
 54 92  1  0
M  END
$$$$
[H]c1nc2c(-c3c([H])c([H])c([H])c4c([H])c([H])c([H])c([H])c34)c([H])nn2c([H])c1N([H])C(=O)c1c([H])c([H])c(OC2([H])C([H])([H])C([H])([H])N(C([H])([H])C([H])([H])N([H])C([H])([H])[H])C([H])([H])C2([H])[H])c([H])c1[H]
     RDKit          3D

 71 76  0  0  0  0  0  0  0  0999 V2000
   11.0669    0.9798    1.7610 C   0  0  0  0  0  0  0  0  0  0  0  0
   10.2882   -0.0803    2.3775 N   0  0  0  0  0  0  0  0  0  0  0  0
    8.9106   -0.0602    1.8781 C   0  0  0  0  0  0  0  0  0  0  0  0
    8.8698   -0.4524    0.4183 C   0  0  0  0  0  0  0  0  0  0  0  0
    7.5311   -0.4425   -0.1114 N   0  0  0  0  0  0  0  0  0  0  0  0
    6.9387    0.8345   -0.2035 C   0  0  0  0  0  0  0  0  0  0  0  0
    6.0527    1.1291   -1.3470 C   0  0  0  0  0  0  0  0  0  0  0  0
    5.5907   -0.0020   -2.1903 C   0  0  0  0  0  0  0  0  0  0  0  0
    5.9197   -1.3581   -1.5821 C   0  0  0  0  0  0  0  0  0  0  0  0
    7.4269   -1.2863   -1.2757 C   0  0  0  0  0  0  0  0  0  0  0  0
    4.3291    0.1012   -2.7346 O   0  0  0  0  0  0  0  0  0  0  0  0
    3.0839   -0.0015   -2.2598 C   0  0  0  0  0  0  0  0  0  0  0  0
    2.0072    0.1065   -3.1159 C   0  0  0  0  0  0  0  0  0  0  0  0
    0.6921    0.0017   -2.6552 C   0  0  0  0  0  0  0  0  0  0  0  0
    0.4396   -0.2109   -1.3345 C   0  0  0  0  0  0  0  0  0  0  0  0
    1.5009   -0.3176   -0.4811 C   0  0  0  0  0  0  0  0  0  0  0  0
    2.8036   -0.2142   -0.9367 C   0  0  0  0  0  0  0  0  0  0  0  0
   -0.9288   -0.3442   -0.7784 C   0  0  0  0  0  0  0  0  0  0  0  0
   -1.0141   -0.9348    0.3127 O   0  0  0  0  0  0  0  0  0  0  0  0
   -2.0280    0.1623   -1.4483 N   0  0  0  0  0  0  0  0  0  0  0  0
   -3.3843    0.0931   -1.0333 C   0  0  0  0  0  0  0  0  0  0  0  0
   -3.8316   -0.4753    0.1307 C   0  0  0  0  0  0  0  0  0  0  0  0
   -5.1603   -0.5234    0.4501 N   0  0  0  0  0  0  0  0  0  0  0  0
   -6.0805   -0.0096   -0.3740 C   0  0  0  0  0  0  0  0  0  0  0  0
   -7.4685    0.0487   -0.2684 C   0  0  0  0  0  0  0  0  0  0  0  0
   -7.8746    0.6782   -1.4089 C   0  0  0  0  0  0  0  0  0  0  0  0
   -6.7814    0.9662   -2.1331 N   0  0  0  0  0  0  0  0  0  0  0  0
   -5.6711    0.5559   -1.5227 N   0  0  0  0  0  0  0  0  0  0  0  0
   -4.3797    0.6223   -1.8702 C   0  0  0  0  0  0  0  0  0  0  0  0
   -8.2925   -0.5019    0.8044 C   0  0  0  0  0  0  0  0  0  0  0  0
   -8.0820   -1.8412    1.1681 C   0  0  0  0  0  0  0  0  0  0  0  0
   -8.8192   -2.4582    2.1334 C   0  0  0  0  0  0  0  0  0  0  0  0
   -9.8036   -1.7493    2.7766 C   0  0  0  0  0  0  0  0  0  0  0  0
  -10.0417   -0.4334    2.4506 C   0  0  0  0  0  0  0  0  0  0  0  0
  -11.0200    0.2656    3.1045 C   0  0  0  0  0  0  0  0  0  0  0  0
  -11.2921    1.5897    2.8220 C   0  0  0  0  0  0  0  0  0  0  0  0
  -10.5277    2.1899    1.8396 C   0  0  0  0  0  0  0  0  0  0  0  0
   -9.5364    1.5088    1.1653 C   0  0  0  0  0  0  0  0  0  0  0  0
   -9.2766    0.1898    1.4563 C   0  0  0  0  0  0  0  0  0  0  0  0
   10.3883    1.7394    1.2841 H   0  0  0  0  0  0  0  0  0  0  0  0
   11.7322    0.5659    0.9738 H   0  0  0  0  0  0  0  0  0  0  0  0
   11.6858    1.4647    2.5193 H   0  0  0  0  0  0  0  0  0  0  0  0
   10.2476    0.0408    3.4209 H   0  0  0  0  0  0  0  0  0  0  0  0
    8.3361   -0.7553    2.5083 H   0  0  0  0  0  0  0  0  0  0  0  0
    8.5833    1.0064    1.9719 H   0  0  0  0  0  0  0  0  0  0  0  0
    9.1967   -1.5323    0.3926 H   0  0  0  0  0  0  0  0  0  0  0  0
    9.5787    0.1737   -0.1565 H   0  0  0  0  0  0  0  0  0  0  0  0
    6.3839    0.9970    0.7751 H   0  0  0  0  0  0  0  0  0  0  0  0
    7.7090    1.6700   -0.1544 H   0  0  0  0  0  0  0  0  0  0  0  0
    5.1135    1.6244   -0.9432 H   0  0  0  0  0  0  0  0  0  0  0  0
    6.4896    1.9635   -1.9859 H   0  0  0  0  0  0  0  0  0  0  0  0
    6.2945    0.0166   -3.1086 H   0  0  0  0  0  0  0  0  0  0  0  0
    5.4120   -1.5882   -0.6558 H   0  0  0  0  0  0  0  0  0  0  0  0
    5.8110   -2.1456   -2.3628 H   0  0  0  0  0  0  0  0  0  0  0  0
    7.8282   -2.2765   -1.0591 H   0  0  0  0  0  0  0  0  0  0  0  0
    7.9066   -0.7943   -2.1395 H   0  0  0  0  0  0  0  0  0  0  0  0
    2.1053    0.2733   -4.1796 H   0  0  0  0  0  0  0  0  0  0  0  0
   -0.1424    0.0867   -3.3469 H   0  0  0  0  0  0  0  0  0  0  0  0
    1.3129   -0.4865    0.5791 H   0  0  0  0  0  0  0  0  0  0  0  0
    3.5696   -0.2958   -0.1790 H   0  0  0  0  0  0  0  0  0  0  0  0
   -1.8176    0.6593   -2.3793 H   0  0  0  0  0  0  0  0  0  0  0  0
   -3.1711   -0.9012    0.8374 H   0  0  0  0  0  0  0  0  0  0  0  0
   -8.8994    0.9174   -1.7029 H   0  0  0  0  0  0  0  0  0  0  0  0
   -4.0518    1.0730   -2.7882 H   0  0  0  0  0  0  0  0  0  0  0  0
   -7.3047   -2.3918    0.6574 H   0  0  0  0  0  0  0  0  0  0  0  0
   -8.6687   -3.4919    2.4264 H   0  0  0  0  0  0  0  0  0  0  0  0
  -10.4220   -2.1890    3.5513 H   0  0  0  0  0  0  0  0  0  0  0  0
  -11.6067   -0.2390    3.8776 H   0  0  0  0  0  0  0  0  0  0  0  0
  -12.0783    2.1128    3.3660 H   0  0  0  0  0  0  0  0  0  0  0  0
  -10.7102    3.2172    1.5940 H   0  0  0  0  0  0  0  0  0  0  0  0
   -8.9692    2.0252    0.4224 H   0  0  0  0  0  0  0  0  0  0  0  0
  1  2  1  0
  2  3  1  0
  3  4  1  0
  4  5  1  0
  5  6  1  0
  6  7  1  0
  7  8  1  0
  8  9  1  0
  9 10  1  0
  8 11  1  0
 11 12  1  0
 12 13  2  0
 13 14  1  0
 14 15  2  0
 15 16  1  0
 16 17  2  0
 15 18  1  0
 18 19  2  0
 18 20  1  0
 20 21  1  0
 21 22  1  0
 22 23  2  0
 23 24  1  0
 24 25  2  0
 25 26  1  0
 26 27  2  0
 27 28  1  0
 28 29  1  0
 25 30  1  0
 30 31  2  0
 31 32  1  0
 32 33  2  0
 33 34  1  0
 34 35  2  0
 35 36  1  0
 36 37  2  0
 37 38  1  0
 38 39  2  0
 10  5  1  0
 17 12  1  0
 29 21  2  0
 39 30  1  0
 28 24  1  0
 39 34  1  0
  1 40  1  0
  1 41  1  0
  1 42  1  0
  2 43  1  0
  3 44  1  0
  3 45  1  0
  4 46  1  0
  4 47  1  0
  6 48  1  0
  6 49  1  0
  7 50  1  0
  7 51  1  0
  8 52  1  0
  9 53  1  0
  9 54  1  0
 10 55  1  0
 10 56  1  0
 13 57  1  0
 14 58  1  0
 16 59  1  0
 17 60  1  0
 20 61  1  0
 22 62  1  0
 26 63  1  0
 29 64  1  0
 31 65  1  0
 32 66  1  0
 33 67  1  0
 35 68  1  0
 36 69  1  0
 37 70  1  0
 38 71  1  0
M  END
$$$$
[H]c1c([H])c([H])c2c([H])c(S(=O)(=O)N([H])C3([H])C([H])([H])C([H])([H])N(C([H])([H])C([H])([H])[H])C([H])([H])C3([H])[H])c([H])c([H])c2c1[H]
     RDKit          3D

 44 46  0  0  0  0  0  0  0  0999 V2000
    5.6891    0.4737    0.9890 C   0  0  0  0  0  0  0  0  0  0  0  0
    4.3338    0.9724    1.3581 C   0  0  0  0  0  0  0  0  0  0  0  0
    3.4694    0.9390    0.1682 N   0  0  0  0  0  0  0  0  0  0  0  0
    2.1833    1.4274    0.5800 C   0  0  0  0  0  0  0  0  0  0  0  0
    1.0641    1.1282   -0.3316 C   0  0  0  0  0  0  0  0  0  0  0  0
    1.1702   -0.1659   -1.0828 C   0  0  0  0  0  0  0  0  0  0  0  0
    2.5826   -0.4611   -1.5418 C   0  0  0  0  0  0  0  0  0  0  0  0
    3.4495   -0.4193   -0.2972 C   0  0  0  0  0  0  0  0  0  0  0  0
    0.3453   -0.0749   -2.2673 N   0  0  0  0  0  0  0  0  0  0  0  0
   -0.8797   -1.2703   -2.3328 S   0  0  0  0  0  0  0  0  0  0  0  0
   -0.2718   -2.6522   -2.2679 O   0  0  0  0  0  0  0  0  0  0  0  0
   -1.7134   -1.1532   -3.5751 O   0  0  0  0  0  0  0  0  0  0  0  0
   -1.9490   -1.0732   -0.9730 C   0  0  0  0  0  0  0  0  0  0  0  0
   -1.7041   -1.7770    0.1794 C   0  0  0  0  0  0  0  0  0  0  0  0
   -2.5928   -1.5791    1.2434 C   0  0  0  0  0  0  0  0  0  0  0  0
   -3.6614   -0.7314    1.1652 C   0  0  0  0  0  0  0  0  0  0  0  0
   -4.5383   -0.5424    2.2291 C   0  0  0  0  0  0  0  0  0  0  0  0
   -5.6158    0.3078    2.1606 C   0  0  0  0  0  0  0  0  0  0  0  0
   -5.8320    1.0016    0.9816 C   0  0  0  0  0  0  0  0  0  0  0  0
   -4.9727    0.8245   -0.0792 C   0  0  0  0  0  0  0  0  0  0  0  0
   -3.8994   -0.0306    0.0076 C   0  0  0  0  0  0  0  0  0  0  0  0
   -3.0219   -0.2189   -1.0587 C   0  0  0  0  0  0  0  0  0  0  0  0
    6.4436    1.0070    1.5929 H   0  0  0  0  0  0  0  0  0  0  0  0
    5.7857   -0.6177    1.1792 H   0  0  0  0  0  0  0  0  0  0  0  0
    5.8547    0.6817   -0.1035 H   0  0  0  0  0  0  0  0  0  0  0  0
    4.4309    2.0101    1.7416 H   0  0  0  0  0  0  0  0  0  0  0  0
    3.8601    0.3940    2.1911 H   0  0  0  0  0  0  0  0  0  0  0  0
    2.2796    2.5459    0.6684 H   0  0  0  0  0  0  0  0  0  0  0  0
    1.9896    1.0842    1.6380 H   0  0  0  0  0  0  0  0  0  0  0  0
    0.1188    1.0719    0.2766 H   0  0  0  0  0  0  0  0  0  0  0  0
    0.8764    1.9547   -1.0711 H   0  0  0  0  0  0  0  0  0  0  0  0
    0.8432   -1.0047   -0.4429 H   0  0  0  0  0  0  0  0  0  0  0  0
    2.9197    0.2698   -2.2852 H   0  0  0  0  0  0  0  0  0  0  0  0
    2.6109   -1.4952   -1.9254 H   0  0  0  0  0  0  0  0  0  0  0  0
    4.4606   -0.7426   -0.5377 H   0  0  0  0  0  0  0  0  0  0  0  0
    2.9922   -1.1217    0.4438 H   0  0  0  0  0  0  0  0  0  0  0  0
   -0.1170    0.8653   -2.3499 H   0  0  0  0  0  0  0  0  0  0  0  0
   -0.8823   -2.4651    0.3130 H   0  0  0  0  0  0  0  0  0  0  0  0
   -2.4086   -2.1261    2.1495 H   0  0  0  0  0  0  0  0  0  0  0  0
   -4.3414   -1.0953    3.1269 H   0  0  0  0  0  0  0  0  0  0  0  0
   -6.3100    0.4704    2.9740 H   0  0  0  0  0  0  0  0  0  0  0  0
   -6.6881    1.6848    0.9097 H   0  0  0  0  0  0  0  0  0  0  0  0
   -5.1343    1.3615   -1.0013 H   0  0  0  0  0  0  0  0  0  0  0  0
   -3.2195    0.3420   -1.9732 H   0  0  0  0  0  0  0  0  0  0  0  0
  1  2  1  0
  2  3  1  0
  3  4  1  0
  4  5  1  0
  5  6  1  0
  6  7  1  0
  7  8  1  0
  6  9  1  0
  9 10  1  0
 10 11  2  0
 10 12  2  0
 10 13  1  0
 13 14  2  0
 14 15  1  0
 15 16  2  0
 16 17  1  0
 17 18  2  0
 18 19  1  0
 19 20  2  0
 20 21  1  0
 21 22  2  0
  8  3  1  0
 22 13  1  0
 21 16  1  0
  1 23  1  0
  1 24  1  0
  1 25  1  0
  2 26  1  0
  2 27  1  0
  4 28  1  0
  4 29  1  0
  5 30  1  0
  5 31  1  0
  6 32  1  0
  7 33  1  0
  7 34  1  0
  8 35  1  0
  8 36  1  0
  9 37  1  0
 14 38  1  0
 15 39  1  0
 17 40  1  0
 18 41  1  0
 19 42  1  0
 20 43  1  0
 22 44  1  0
M  END
$$$$
[H]OC(=O)C([H])(N([H])C(=O)[C@@]([H])(C([H])([H])C#Cc1c([H])c([H])c([H])c([H])c1[H])C([H])([H])P(=O)(O[H])C([H])([H])c1c([H])c([H])c([H])c([H])c1[H])C([H])([H])c1c([H])n([H])c2c([H])c([H])c([H])c([H])c12
     RDKit          3D

 67 70  0  0  0  0  0  0  0  0999 V2000
    3.8849    3.4164    0.1180 O   0  0  0  0  0  0  0  0  0  0  0  0
    2.9050    2.4135    0.0257 C   0  0  0  0  0  0  0  0  0  0  0  0
    2.3993    2.2692   -1.1203 O   0  0  0  0  0  0  0  0  0  0  0  0
    2.4991    1.6071    1.1699 C   0  0  0  0  0  0  0  0  0  0  0  0
    3.5357    0.6385    1.6314 C   0  0  0  0  0  0  0  0  0  0  0  0
    3.9262   -0.3919    0.6467 C   0  0  0  0  0  0  0  0  0  0  0  0
    3.2812   -1.6398    0.5489 C   0  0  0  0  0  0  0  0  0  0  0  0
    3.8311   -2.2818   -0.4539 N   0  0  0  0  0  0  0  0  0  0  0  0
    4.7877   -1.5607   -1.0264 C   0  0  0  0  0  0  0  0  0  0  0  0
    5.6187   -1.8479   -2.0828 C   0  0  0  0  0  0  0  0  0  0  0  0
    6.5626   -0.9317   -2.4891 C   0  0  0  0  0  0  0  0  0  0  0  0
    6.6469    0.2729   -1.8075 C   0  0  0  0  0  0  0  0  0  0  0  0
    5.8165    0.5519   -0.7579 C   0  0  0  0  0  0  0  0  0  0  0  0
    4.8658   -0.3707   -0.3515 C   0  0  0  0  0  0  0  0  0  0  0  0
    1.2956    0.8333    0.7511 N   0  0  0  0  0  0  0  0  0  0  0  0
    0.0974    1.0598    1.4282 C   0  0  0  0  0  0  0  0  0  0  0  0
   -0.0148    1.8950    2.3871 O   0  0  0  0  0  0  0  0  0  0  0  0
   -1.1297    0.3092    1.0402 C   0  0  1  0  0  0  0  0  0  0  0  0
   -1.4935    0.6017   -0.4049 C   0  0  0  0  0  0  0  0  0  0  0  0
   -1.7184    2.0688   -0.4583 C   0  0  0  0  0  0  0  0  0  0  0  0
   -1.9161    3.2558   -0.5024 C   0  0  0  0  0  0  0  0  0  0  0  0
   -2.1748    4.6736   -0.5606 C   0  0  0  0  0  0  0  0  0  0  0  0
   -3.1039    5.2772    0.2659 C   0  0  0  0  0  0  0  0  0  0  0  0
   -3.3414    6.6446    0.1978 C   0  0  0  0  0  0  0  0  0  0  0  0
   -2.6635    7.4500   -0.6921 C   0  0  0  0  0  0  0  0  0  0  0  0
   -1.7362    6.8505   -1.5175 C   0  0  0  0  0  0  0  0  0  0  0  0
   -1.5028    5.4904   -1.4469 C   0  0  0  0  0  0  0  0  0  0  0  0
   -0.8809   -1.1906    1.1334 C   0  0  0  0  0  0  0  0  0  0  0  0
   -2.3937   -2.0626    0.6607 P   0  0  0  0  0  0  0  0  0  0  0  0
   -2.3925   -2.3496   -1.0095 O   0  0  0  0  0  0  0  0  0  0  0  0
   -3.6363   -1.2828    0.9974 O   0  0  0  0  0  0  0  0  0  0  0  0
   -2.4907   -3.6260    1.5810 C   0  0  0  0  0  0  0  0  0  0  0  0
   -3.5674   -4.5024    1.0028 C   0  0  0  0  0  0  0  0  0  0  0  0
   -3.2436   -5.3856   -0.0096 C   0  0  0  0  0  0  0  0  0  0  0  0
   -4.2310   -6.1889   -0.5396 C   0  0  0  0  0  0  0  0  0  0  0  0
   -5.5173   -6.0925   -0.0477 C   0  0  0  0  0  0  0  0  0  0  0  0
   -5.8355   -5.2066    0.9659 C   0  0  0  0  0  0  0  0  0  0  0  0
   -4.8397   -4.4029    1.4936 C   0  0  0  0  0  0  0  0  0  0  0  0
    4.5890    3.4716   -0.6101 H   0  0  0  0  0  0  0  0  0  0  0  0
    2.2114    2.2943    1.9887 H   0  0  0  0  0  0  0  0  0  0  0  0
    3.1357    0.1000    2.5371 H   0  0  0  0  0  0  0  0  0  0  0  0
    4.4546    1.2213    1.9104 H   0  0  0  0  0  0  0  0  0  0  0  0
    2.4740   -1.9933    1.1956 H   0  0  0  0  0  0  0  0  0  0  0  0
    3.5533   -3.2535   -0.7738 H   0  0  0  0  0  0  0  0  0  0  0  0
    5.5819   -2.7845   -2.6423 H   0  0  0  0  0  0  0  0  0  0  0  0
    7.2187   -1.1571   -3.3230 H   0  0  0  0  0  0  0  0  0  0  0  0
    7.3936    1.0157   -2.1163 H   0  0  0  0  0  0  0  0  0  0  0  0
    5.8680    1.4677   -0.1976 H   0  0  0  0  0  0  0  0  0  0  0  0
    1.3861    0.1650   -0.0145 H   0  0  0  0  0  0  0  0  0  0  0  0
   -1.9508    0.5446    1.7263 H   0  0  0  0  0  0  0  0  0  0  0  0
   -2.4180    0.0740   -0.6470 H   0  0  0  0  0  0  0  0  0  0  0  0
   -0.6462    0.2951   -1.0225 H   0  0  0  0  0  0  0  0  0  0  0  0
   -3.6374    4.6461    0.9657 H   0  0  0  0  0  0  0  0  0  0  0  0
   -4.0784    7.0977    0.8592 H   0  0  0  0  0  0  0  0  0  0  0  0
   -2.8755    8.5173   -0.7178 H   0  0  0  0  0  0  0  0  0  0  0  0
   -1.1957    7.4765   -2.2234 H   0  0  0  0  0  0  0  0  0  0  0  0
   -0.7618    5.0244   -2.1095 H   0  0  0  0  0  0  0  0  0  0  0  0
   -0.0346   -1.4866    0.4614 H   0  0  0  0  0  0  0  0  0  0  0  0
   -0.5564   -1.4826    2.1536 H   0  0  0  0  0  0  0  0  0  0  0  0
   -3.2328   -2.0458   -1.4317 H   0  0  0  0  0  0  0  0  0  0  0  0
   -1.5069   -4.1349    1.5066 H   0  0  0  0  0  0  0  0  0  0  0  0
   -2.6845   -3.4296    2.6507 H   0  0  0  0  0  0  0  0  0  0  0  0
   -2.2214   -5.4038   -0.3400 H   0  0  0  0  0  0  0  0  0  0  0  0
   -3.9444   -6.8680   -1.3296 H   0  0  0  0  0  0  0  0  0  0  0  0
   -6.2683   -6.7310   -0.4794 H   0  0  0  0  0  0  0  0  0  0  0  0
   -6.8620   -5.1857    1.3004 H   0  0  0  0  0  0  0  0  0  0  0  0
   -5.1211   -3.7192    2.2865 H   0  0  0  0  0  0  0  0  0  0  0  0
  1  2  1  0
  2  3  2  0
  2  4  1  0
  4  5  1  0
  5  6  1  0
  6  7  2  0
  7  8  1  0
  8  9  1  0
  9 10  2  0
 10 11  1  0
 11 12  2  0
 12 13  1  0
 13 14  2  0
  4 15  1  0
 15 16  1  0
 16 17  2  0
 16 18  1  0
 18 19  1  0
 19 20  1  0
 20 21  3  0
 21 22  1  0
 22 23  2  0
 23 24  1  0
 24 25  2  0
 25 26  1  0
 26 27  2  0
 18 28  1  0
 28 29  1  0
 29 30  1  0
 29 31  2  0
 29 32  1  0
 32 33  1  0
 33 34  2  0
 34 35  1  0
 35 36  2  0
 36 37  1  0
 37 38  2  0
 14  6  1  0
 27 22  1  0
 38 33  1  0
 14  9  1  0
  1 39  1  0
  4 40  1  0
  5 41  1  0
  5 42  1  0
  7 43  1  0
  8 44  1  0
 10 45  1  0
 11 46  1  0
 12 47  1  0
 13 48  1  0
 15 49  1  0
 18 50  1  1
 19 51  1  0
 19 52  1  0
 23 53  1  0
 24 54  1  0
 25 55  1  0
 26 56  1  0
 27 57  1  0
 28 58  1  0
 28 59  1  0
 30 60  1  0
 32 61  1  0
 32 62  1  0
 34 63  1  0
 35 64  1  0
 36 65  1  0
 37 66  1  0
 38 67  1  0
M  END
$$$$
[H]c1c([H])c(C(=O)OC([H])([H])[H])c([H])c(-c2nc3c([H])c(N([H])c4c([H])c([H])c([H])c(N5C([H])([H])C([H])([H])OC([H])([H])C5([H])[H])c4[H])nc([H])c3c([H])c2[H])c1[H]
     RDKit          3D

 57 61  0  0  0  0  0  0  0  0999 V2000
   -7.6490    2.6091    2.0842 C   0  0  0  0  0  0  0  0  0  0  0  0
   -7.0202    1.4617    1.5535 O   0  0  0  0  0  0  0  0  0  0  0  0
   -7.6845    0.2972    1.2511 C   0  0  0  0  0  0  0  0  0  0  0  0
   -8.9228    0.2609    1.4624 O   0  0  0  0  0  0  0  0  0  0  0  0
   -6.9888   -0.8800    0.6975 C   0  0  0  0  0  0  0  0  0  0  0  0
   -7.7283   -2.0112    0.4207 C   0  0  0  0  0  0  0  0  0  0  0  0
   -7.0939   -3.1198   -0.0969 C   0  0  0  0  0  0  0  0  0  0  0  0
   -5.7151   -3.0813   -0.3328 C   0  0  0  0  0  0  0  0  0  0  0  0
   -4.9790   -1.9514   -0.0559 C   0  0  0  0  0  0  0  0  0  0  0  0
   -5.6337   -0.8539    0.4614 C   0  0  0  0  0  0  0  0  0  0  0  0
   -3.5409   -1.9183   -0.3045 C   0  0  0  0  0  0  0  0  0  0  0  0
   -2.8234   -2.9657   -0.8149 C   0  0  0  0  0  0  0  0  0  0  0  0
   -1.4508   -2.8924   -1.0370 C   0  0  0  0  0  0  0  0  0  0  0  0
   -0.8114   -1.7234   -0.7283 C   0  0  0  0  0  0  0  0  0  0  0  0
    0.5477   -1.5779   -0.9218 C   0  0  0  0  0  0  0  0  0  0  0  0
    1.1066   -0.4173   -0.6015 N   0  0  0  0  0  0  0  0  0  0  0  0
    0.4963    0.6571   -0.1006 C   0  0  0  0  0  0  0  0  0  0  0  0
    1.1047    1.8626    0.2275 N   0  0  0  0  0  0  0  0  0  0  0  0
    2.4708    2.1687    0.1333 C   0  0  0  0  0  0  0  0  0  0  0  0
    2.8537    3.5323    0.0896 C   0  0  0  0  0  0  0  0  0  0  0  0
    4.1660    3.9018    0.0214 C   0  0  0  0  0  0  0  0  0  0  0  0
    5.1519    2.9576   -0.0067 C   0  0  0  0  0  0  0  0  0  0  0  0
    4.8152    1.6119    0.0348 C   0  0  0  0  0  0  0  0  0  0  0  0
    3.4801    1.2353    0.1045 C   0  0  0  0  0  0  0  0  0  0  0  0
    5.8821    0.6938   -0.0015 N   0  0  0  0  0  0  0  0  0  0  0  0
    5.7547   -0.7421    0.1317 C   0  0  0  0  0  0  0  0  0  0  0  0
    6.1236   -1.3098   -1.2459 C   0  0  0  0  0  0  0  0  0  0  0  0
    7.3172   -0.7557   -1.6760 O   0  0  0  0  0  0  0  0  0  0  0  0
    8.0163   -0.0856   -0.7014 C   0  0  0  0  0  0  0  0  0  0  0  0
    7.2689    1.1554   -0.1928 C   0  0  0  0  0  0  0  0  0  0  0  0
   -0.8989    0.5306    0.1062 C   0  0  0  0  0  0  0  0  0  0  0  0
   -1.5223   -0.6561   -0.2118 C   0  0  0  0  0  0  0  0  0  0  0  0
   -2.8584   -0.7898   -0.0182 N   0  0  0  0  0  0  0  0  0  0  0  0
   -8.7370    2.5856    1.9381 H   0  0  0  0  0  0  0  0  0  0  0  0
   -7.4381    2.7617    3.1582 H   0  0  0  0  0  0  0  0  0  0  0  0
   -7.2477    3.4848    1.5066 H   0  0  0  0  0  0  0  0  0  0  0  0
   -8.7944   -2.0191    0.6110 H   0  0  0  0  0  0  0  0  0  0  0  0
   -7.6506   -4.0314   -0.3271 H   0  0  0  0  0  0  0  0  0  0  0  0
   -5.2857   -3.9893   -0.7404 H   0  0  0  0  0  0  0  0  0  0  0  0
   -5.0435    0.0209    0.6722 H   0  0  0  0  0  0  0  0  0  0  0  0
   -3.3024   -3.8818   -1.0609 H   0  0  0  0  0  0  0  0  0  0  0  0
   -0.8681   -3.7076   -1.4387 H   0  0  0  0  0  0  0  0  0  0  0  0
    1.1244   -2.4021   -1.3256 H   0  0  0  0  0  0  0  0  0  0  0  0
    0.4792    2.6419    0.5926 H   0  0  0  0  0  0  0  0  0  0  0  0
    2.0722    4.2717    0.1116 H   0  0  0  0  0  0  0  0  0  0  0  0
    4.4131    4.9541   -0.0100 H   0  0  0  0  0  0  0  0  0  0  0  0
    6.1960    3.2721   -0.0608 H   0  0  0  0  0  0  0  0  0  0  0  0
    3.2923    0.1830    0.1471 H   0  0  0  0  0  0  0  0  0  0  0  0
    6.4891   -1.1270    0.8978 H   0  0  0  0  0  0  0  0  0  0  0  0
    4.7786   -1.1075    0.4256 H   0  0  0  0  0  0  0  0  0  0  0  0
    6.1232   -2.4092   -1.2208 H   0  0  0  0  0  0  0  0  0  0  0  0
    5.3198   -0.9566   -1.9313 H   0  0  0  0  0  0  0  0  0  0  0  0
    8.9460    0.3076   -1.1920 H   0  0  0  0  0  0  0  0  0  0  0  0
    8.3288   -0.7473    0.1108 H   0  0  0  0  0  0  0  0  0  0  0  0
    7.6814    1.4562    0.7706 H   0  0  0  0  0  0  0  0  0  0  0  0
    7.3505    1.8913   -1.0027 H   0  0  0  0  0  0  0  0  0  0  0  0
   -1.4612    1.3439    0.5036 H   0  0  0  0  0  0  0  0  0  0  0  0
  1  2  1  0
  2  3  1  0
  3  4  2  0
  3  5  1  0
  5  6  2  0
  6  7  1  0
  7  8  2  0
  8  9  1  0
  9 10  2  0
  9 11  1  0
 11 12  2  0
 12 13  1  0
 13 14  2  0
 14 15  1  0
 15 16  2  0
 16 17  1  0
 17 18  1  0
 18 19  1  0
 19 20  2  0
 20 21  1  0
 21 22  2  0
 22 23  1  0
 23 24  2  0
 23 25  1  0
 25 26  1  0
 26 27  1  0
 27 28  1  0
 28 29  1  0
 29 30  1  0
 17 31  2  0
 31 32  1  0
 32 33  2  0
 10  5  1  0
 33 11  1  0
 32 14  1  0
 24 19  1  0
 30 25  1  0
  1 34  1  0
  1 35  1  0
  1 36  1  0
  6 37  1  0
  7 38  1  0
  8 39  1  0
 10 40  1  0
 12 41  1  0
 13 42  1  0
 15 43  1  0
 18 44  1  0
 20 45  1  0
 21 46  1  0
 22 47  1  0
 24 48  1  0
 26 49  1  0
 26 50  1  0
 27 51  1  0
 27 52  1  0
 29 53  1  0
 29 54  1  0
 30 55  1  0
 30 56  1  0
 31 57  1  0
M  END
$$$$
[H]c1nc([H])c([H])c(-c2c([H])c3c([H])nc(N([H])c4c([H])c([H])c(N5C([H])([H])C([H])([H])C([H])(N6C([H])([H])C([H])([H])N(C([H])([H])[H])C([H])([H])C6([H])[H])C([H])([H])C5([H])[H])c([H])c4[H])nc3n(C([H])([H])[H])c2=O)c1[H]
     RDKit          3D

 72 77  0  0  0  0  0  0  0  0999 V2000
   -9.8846    1.1667   -0.2015 C   0  0  0  0  0  0  0  0  0  0  0  0
   -8.8079    0.7484    0.6438 N   0  0  0  0  0  0  0  0  0  0  0  0
   -7.7408    1.6851    0.6794 C   0  0  0  0  0  0  0  0  0  0  0  0
   -6.6274    1.4018   -0.2880 C   0  0  0  0  0  0  0  0  0  0  0  0
   -6.4494    0.0528   -0.6322 N   0  0  0  0  0  0  0  0  0  0  0  0
   -7.5894   -0.7696   -0.7187 C   0  0  0  0  0  0  0  0  0  0  0  0
   -8.4389   -0.6278    0.5174 C   0  0  0  0  0  0  0  0  0  0  0  0
   -5.1910   -0.5392   -0.4423 C   0  0  0  0  0  0  0  0  0  0  0  0
   -4.1381    0.1184   -1.2894 C   0  0  0  0  0  0  0  0  0  0  0  0
   -2.7784   -0.5811   -1.1545 C   0  0  0  0  0  0  0  0  0  0  0  0
   -2.4617   -0.8123    0.2352 N   0  0  0  0  0  0  0  0  0  0  0  0
   -3.4943   -1.4875    0.9938 C   0  0  0  0  0  0  0  0  0  0  0  0
   -4.6900   -0.5235    0.9862 C   0  0  0  0  0  0  0  0  0  0  0  0
   -1.2267   -0.4117    0.7974 C   0  0  0  0  0  0  0  0  0  0  0  0
   -0.1606   -0.0426    0.0256 C   0  0  0  0  0  0  0  0  0  0  0  0
    1.0653    0.3701    0.5657 C   0  0  0  0  0  0  0  0  0  0  0  0
    1.2463    0.4193    1.9202 C   0  0  0  0  0  0  0  0  0  0  0  0
    2.4141    0.7834    2.6072 N   0  0  0  0  0  0  0  0  0  0  0  0
    3.7096    0.6852    2.0544 C   0  0  0  0  0  0  0  0  0  0  0  0
    4.7907    1.0838    2.7966 N   0  0  0  0  0  0  0  0  0  0  0  0
    6.0352    0.9858    2.3164 C   0  0  0  0  0  0  0  0  0  0  0  0
    6.3026    0.4824    1.0570 C   0  0  0  0  0  0  0  0  0  0  0  0
    7.5927    0.3905    0.5826 C   0  0  0  0  0  0  0  0  0  0  0  0
    7.7899   -0.1281   -0.6986 C   0  0  0  0  0  0  0  0  0  0  0  0
    9.1385   -0.2475   -1.2505 C   0  0  0  0  0  0  0  0  0  0  0  0
   10.1859   -0.7571   -0.5143 C   0  0  0  0  0  0  0  0  0  0  0  0
   11.4412   -0.8515   -1.0708 C   0  0  0  0  0  0  0  0  0  0  0  0
   11.6359   -0.4457   -2.3284 N   0  0  0  0  0  0  0  0  0  0  0  0
   10.6627    0.0596   -3.1010 C   0  0  0  0  0  0  0  0  0  0  0  0
    9.4066    0.1535   -2.5425 C   0  0  0  0  0  0  0  0  0  0  0  0
    6.6545   -0.5084   -1.3860 C   0  0  0  0  0  0  0  0  0  0  0  0
    6.8060   -0.9813   -2.5481 O   0  0  0  0  0  0  0  0  0  0  0  0
    5.4117   -0.4213   -0.9324 N   0  0  0  0  0  0  0  0  0  0  0  0
    4.2358   -0.8306   -1.6764 C   0  0  0  0  0  0  0  0  0  0  0  0
    5.2191    0.0826    0.3125 C   0  0  0  0  0  0  0  0  0  0  0  0
    4.0049    0.2066    0.8489 N   0  0  0  0  0  0  0  0  0  0  0  0
    0.1568    0.0421    2.7124 C   0  0  0  0  0  0  0  0  0  0  0  0
   -1.0252   -0.3550    2.1673 C   0  0  0  0  0  0  0  0  0  0  0  0
   -9.4981    1.8949   -0.9313 H   0  0  0  0  0  0  0  0  0  0  0  0
  -10.3871    0.3159   -0.7139 H   0  0  0  0  0  0  0  0  0  0  0  0
  -10.6209    1.7050    0.4552 H   0  0  0  0  0  0  0  0  0  0  0  0
   -7.3278    1.7026    1.7288 H   0  0  0  0  0  0  0  0  0  0  0  0
   -8.1532    2.7000    0.5058 H   0  0  0  0  0  0  0  0  0  0  0  0
   -6.8296    1.9912   -1.2195 H   0  0  0  0  0  0  0  0  0  0  0  0
   -5.7027    1.8397    0.1426 H   0  0  0  0  0  0  0  0  0  0  0  0
   -7.2520   -1.8232   -0.8923 H   0  0  0  0  0  0  0  0  0  0  0  0
   -8.2074   -0.4333   -1.5840 H   0  0  0  0  0  0  0  0  0  0  0  0
   -9.3786   -1.2179    0.4520 H   0  0  0  0  0  0  0  0  0  0  0  0
   -7.8259   -0.9121    1.3919 H   0  0  0  0  0  0  0  0  0  0  0  0
   -5.2401   -1.6062   -0.7444 H   0  0  0  0  0  0  0  0  0  0  0  0
   -3.9671    1.1796   -0.9866 H   0  0  0  0  0  0  0  0  0  0  0  0
   -4.4027    0.0349   -2.3642 H   0  0  0  0  0  0  0  0  0  0  0  0
   -2.9060   -1.5754   -1.6295 H   0  0  0  0  0  0  0  0  0  0  0  0
   -2.0788    0.0448   -1.7019 H   0  0  0  0  0  0  0  0  0  0  0  0
   -3.2145   -1.8287    1.9800 H   0  0  0  0  0  0  0  0  0  0  0  0
   -3.8475   -2.3767    0.4017 H   0  0  0  0  0  0  0  0  0  0  0  0
   -4.2545    0.4711    1.2325 H   0  0  0  0  0  0  0  0  0  0  0  0
   -5.4499   -0.8580    1.6975 H   0  0  0  0  0  0  0  0  0  0  0  0
   -0.2105   -0.0553   -1.0534 H   0  0  0  0  0  0  0  0  0  0  0  0
    1.8554    0.6649   -0.1077 H   0  0  0  0  0  0  0  0  0  0  0  0
    2.3282    1.1639    3.6073 H   0  0  0  0  0  0  0  0  0  0  0  0
    6.8662    1.3034    2.9142 H   0  0  0  0  0  0  0  0  0  0  0  0
    8.4491    0.7031    1.1637 H   0  0  0  0  0  0  0  0  0  0  0  0
    9.9873   -1.0721    0.4934 H   0  0  0  0  0  0  0  0  0  0  0  0
   12.2854   -1.2449   -0.5273 H   0  0  0  0  0  0  0  0  0  0  0  0
   10.9220    0.3589   -4.1048 H   0  0  0  0  0  0  0  0  0  0  0  0
    8.6200    0.5583   -3.1547 H   0  0  0  0  0  0  0  0  0  0  0  0
    3.4074   -1.1540   -1.0339 H   0  0  0  0  0  0  0  0  0  0  0  0
    4.4895   -1.5858   -2.4619 H   0  0  0  0  0  0  0  0  0  0  0  0
    3.8960    0.0725   -2.2483 H   0  0  0  0  0  0  0  0  0  0  0  0
    0.2876    0.0765    3.7994 H   0  0  0  0  0  0  0  0  0  0  0  0
   -1.8410   -0.6339    2.8158 H   0  0  0  0  0  0  0  0  0  0  0  0
  1  2  1  0
  2  3  1  0
  3  4  1  0
  4  5  1  0
  5  6  1  0
  6  7  1  0
  5  8  1  0
  8  9  1  0
  9 10  1  0
 10 11  1  0
 11 12  1  0
 12 13  1  0
 11 14  1  0
 14 15  2  0
 15 16  1  0
 16 17  2  0
 17 18  1  0
 18 19  1  0
 19 20  2  0
 20 21  1  0
 21 22  2  0
 22 23  1  0
 23 24  2  0
 24 25  1  0
 25 26  2  0
 26 27  1  0
 27 28  2  0
 28 29  1  0
 29 30  2  0
 24 31  1  0
 31 32  2  0
 31 33  1  0
 33 34  1  0
 33 35  1  0
 35 36  2  0
 17 37  1  0
 37 38  2  0
  7  2  1  0
 13  8  1  0
 38 14  1  0
 36 19  1  0
 35 22  1  0
 30 25  1  0
  1 39  1  0
  1 40  1  0
  1 41  1  0
  3 42  1  0
  3 43  1  0
  4 44  1  0
  4 45  1  0
  6 46  1  0
  6 47  1  0
  7 48  1  0
  7 49  1  0
  8 50  1  0
  9 51  1  0
  9 52  1  0
 10 53  1  0
 10 54  1  0
 12 55  1  0
 12 56  1  0
 13 57  1  0
 13 58  1  0
 15 59  1  0
 16 60  1  0
 18 61  1  0
 21 62  1  0
 23 63  1  0
 26 64  1  0
 27 65  1  0
 29 66  1  0
 30 67  1  0
 34 68  1  0
 34 69  1  0
 34 70  1  0
 37 71  1  0
 38 72  1  0
M  END
$$$$
[H]N=C(c1c([H])c([H])c(C([H])([H])c2noc(C3([H])C([H])([H])C([H])([H])C([H])([H])C3([H])[H])n2)c([H])c1[H])N([H])[H]
     RDKit          3D

 38 40  0  0  0  0  0  0  0  0999 V2000
    5.8133    2.2024   -0.7460 N   0  0  0  0  0  0  0  0  0  0  0  0
    5.2906    0.8992   -0.9509 C   0  0  0  0  0  0  0  0  0  0  0  0
    5.8568    0.2059   -1.8806 N   0  0  0  0  0  0  0  0  0  0  0  0
    4.1827    0.4087   -0.1423 C   0  0  0  0  0  0  0  0  0  0  0  0
    3.6491   -0.8334   -0.3033 C   0  0  0  0  0  0  0  0  0  0  0  0
    2.5890   -1.2428    0.5032 C   0  0  0  0  0  0  0  0  0  0  0  0
    2.0418   -0.4207    1.4848 C   0  0  0  0  0  0  0  0  0  0  0  0
    0.9229   -0.9183    2.3002 C   0  0  0  0  0  0  0  0  0  0  0  0
   -0.3814   -0.5991    1.6827 C   0  0  0  0  0  0  0  0  0  0  0  0
   -1.0869    0.5207    1.9078 N   0  0  0  0  0  0  0  0  0  0  0  0
   -2.1880    0.4635    1.1937 O   0  0  0  0  0  0  0  0  0  0  0  0
   -2.2394   -0.6479    0.5059 C   0  0  0  0  0  0  0  0  0  0  0  0
   -1.1047   -1.3140    0.8138 N   0  0  0  0  0  0  0  0  0  0  0  0
   -3.3285   -1.0614   -0.4111 C   0  0  0  0  0  0  0  0  0  0  0  0
   -3.5717   -0.0665   -1.5088 C   0  0  0  0  0  0  0  0  0  0  0  0
   -4.4689    0.9486   -0.8654 C   0  0  0  0  0  0  0  0  0  0  0  0
   -5.4091    0.1150   -0.0550 C   0  0  0  0  0  0  0  0  0  0  0  0
   -4.6406   -1.1073    0.3260 C   0  0  0  0  0  0  0  0  0  0  0  0
    2.5968    0.8292    1.6291 C   0  0  0  0  0  0  0  0  0  0  0  0
    3.6427    1.2343    0.8342 C   0  0  0  0  0  0  0  0  0  0  0  0
    6.2384    2.4668    0.1541 H   0  0  0  0  0  0  0  0  0  0  0  0
    5.7630    2.8877   -1.5137 H   0  0  0  0  0  0  0  0  0  0  0  0
    5.5865   -0.7413   -2.1360 H   0  0  0  0  0  0  0  0  0  0  0  0
    4.0595   -1.4866   -1.0596 H   0  0  0  0  0  0  0  0  0  0  0  0
    2.2103   -2.2416    0.3249 H   0  0  0  0  0  0  0  0  0  0  0  0
    1.0227   -2.0405    2.3524 H   0  0  0  0  0  0  0  0  0  0  0  0
    1.0120   -0.5374    3.3361 H   0  0  0  0  0  0  0  0  0  0  0  0
   -3.1029   -2.0647   -0.8626 H   0  0  0  0  0  0  0  0  0  0  0  0
   -2.6315    0.3839   -1.8924 H   0  0  0  0  0  0  0  0  0  0  0  0
   -4.0487   -0.5811   -2.3667 H   0  0  0  0  0  0  0  0  0  0  0  0
   -3.8461    1.6116   -0.2223 H   0  0  0  0  0  0  0  0  0  0  0  0
   -4.9829    1.5977   -1.6025 H   0  0  0  0  0  0  0  0  0  0  0  0
   -6.3637   -0.1111   -0.5975 H   0  0  0  0  0  0  0  0  0  0  0  0
   -5.7107    0.7297    0.8326 H   0  0  0  0  0  0  0  0  0  0  0  0
   -5.1840   -2.0181    0.0003 H   0  0  0  0  0  0  0  0  0  0  0  0
   -4.4950   -1.2047    1.4221 H   0  0  0  0  0  0  0  0  0  0  0  0
    2.2220    1.5133    2.3678 H   0  0  0  0  0  0  0  0  0  0  0  0
    4.0848    2.2203    0.9439 H   0  0  0  0  0  0  0  0  0  0  0  0
  1  2  1  0
  2  3  2  3
  2  4  1  0
  4  5  2  0
  5  6  1  0
  6  7  2  0
  7  8  1  0
  8  9  1  0
  9 10  2  0
 10 11  1  0
 11 12  1  0
 12 13  2  0
 12 14  1  0
 14 15  1  0
 15 16  1  0
 16 17  1  0
 17 18  1  0
  7 19  1  0
 19 20  2  0
 20  4  1  0
 13  9  1  0
 18 14  1  0
  1 21  1  0
  1 22  1  0
  3 23  1  0
  5 24  1  0
  6 25  1  0
  8 26  1  0
  8 27  1  0
 14 28  1  0
 15 29  1  0
 15 30  1  0
 16 31  1  0
 16 32  1  0
 17 33  1  0
 17 34  1  0
 18 35  1  0
 18 36  1  0
 19 37  1  0
 20 38  1  0
M  END
$$$$
[H]OC(=O)C(C([H])([H])[H])(C([H])([H])[H])C([H])([H])N1C([H])([H])C([H])([H])N(c2c([H])c([H])c(-c3c([H])nc4c(-c5c([H])c([H])c([H])c6c([H])c([H])c([H])nc56)c([H])nn4c3[H])c([H])c2[H])C([H])([H])C([H])([H])C1([H])[H]
     RDKit          3D

 71 76  0  0  0  0  0  0  0  0999 V2000
   -8.0854    2.3199    0.1529 C   0  0  0  0  0  0  0  0  0  0  0  0
   -7.7938    0.7965   -0.0522 C   0  0  0  0  0  0  0  0  0  0  0  0
   -7.6118    0.6854   -1.5453 C   0  0  0  0  0  0  0  0  0  0  0  0
   -6.5870    0.5435    0.7664 C   0  0  0  0  0  0  0  0  0  0  0  0
   -6.0045   -0.7073    0.8701 N   0  0  0  0  0  0  0  0  0  0  0  0
   -4.9329   -0.8452    1.8013 C   0  0  0  0  0  0  0  0  0  0  0  0
   -3.6793   -0.0754    1.4748 C   0  0  0  0  0  0  0  0  0  0  0  0
   -3.0941   -0.4792    0.2318 N   0  0  0  0  0  0  0  0  0  0  0  0
   -3.7667   -0.8798   -1.0143 C   0  0  0  0  0  0  0  0  0  0  0  0
   -4.6983   -2.0184   -0.7805 C   0  0  0  0  0  0  0  0  0  0  0  0
   -6.0088   -1.6824   -0.1302 C   0  0  0  0  0  0  0  0  0  0  0  0
   -1.6862   -0.5144    0.1837 C   0  0  0  0  0  0  0  0  0  0  0  0
   -0.9949   -0.1142   -0.9737 C   0  0  0  0  0  0  0  0  0  0  0  0
    0.3662   -0.1401   -1.0707 C   0  0  0  0  0  0  0  0  0  0  0  0
    1.1660   -0.5670   -0.0199 C   0  0  0  0  0  0  0  0  0  0  0  0
    0.5195   -0.9659    1.1259 C   0  0  0  0  0  0  0  0  0  0  0  0
   -0.8734   -0.9340    1.2077 C   0  0  0  0  0  0  0  0  0  0  0  0
    2.6175   -0.5470   -0.1395 C   0  0  0  0  0  0  0  0  0  0  0  0
    3.4154   -0.3578    0.9424 C   0  0  0  0  0  0  0  0  0  0  0  0
    4.7585   -0.2834    0.7672 N   0  0  0  0  0  0  0  0  0  0  0  0
    5.3282   -0.3916   -0.4533 C   0  0  0  0  0  0  0  0  0  0  0  0
    6.6109   -0.3270   -0.9265 C   0  0  0  0  0  0  0  0  0  0  0  0
    6.5513   -0.4808   -2.3033 C   0  0  0  0  0  0  0  0  0  0  0  0
    5.2650   -0.6318   -2.6130 N   0  0  0  0  0  0  0  0  0  0  0  0
    4.5353   -0.5781   -1.5125 N   0  0  0  0  0  0  0  0  0  0  0  0
    3.2006   -0.6593   -1.3890 C   0  0  0  0  0  0  0  0  0  0  0  0
    7.8266   -0.1699   -0.1222 C   0  0  0  0  0  0  0  0  0  0  0  0
    8.1787   -1.0053    0.8917 C   0  0  0  0  0  0  0  0  0  0  0  0
    9.3715   -0.8422    1.5876 C   0  0  0  0  0  0  0  0  0  0  0  0
   10.2386    0.1787    1.2686 C   0  0  0  0  0  0  0  0  0  0  0  0
    9.8992    1.0405    0.2408 C   0  0  0  0  0  0  0  0  0  0  0  0
   10.7298    2.0924   -0.1013 C   0  0  0  0  0  0  0  0  0  0  0  0
   10.3808    2.9537   -1.1046 C   0  0  0  0  0  0  0  0  0  0  0  0
    9.1885    2.7472   -1.7629 C   0  0  0  0  0  0  0  0  0  0  0  0
    8.3976    1.7219   -1.4172 N   0  0  0  0  0  0  0  0  0  0  0  0
    8.7131    0.8657   -0.4399 C   0  0  0  0  0  0  0  0  0  0  0  0
   -9.0145    0.1287    0.4515 C   0  0  0  0  0  0  0  0  0  0  0  0
   -9.2460   -1.2412    0.3999 O   0  0  0  0  0  0  0  0  0  0  0  0
   -9.9795    0.7763    0.9910 O   0  0  0  0  0  0  0  0  0  0  0  0
   -9.0867    2.5040   -0.3281 H   0  0  0  0  0  0  0  0  0  0  0  0
   -7.3489    2.8604   -0.4595 H   0  0  0  0  0  0  0  0  0  0  0  0
   -8.0522    2.5757    1.2088 H   0  0  0  0  0  0  0  0  0  0  0  0
   -6.5471    0.5459   -1.8199 H   0  0  0  0  0  0  0  0  0  0  0  0
   -7.9594    1.5944   -2.0930 H   0  0  0  0  0  0  0  0  0  0  0  0
   -8.2589   -0.1344   -1.9634 H   0  0  0  0  0  0  0  0  0  0  0  0
   -6.8524    0.8750    1.8343 H   0  0  0  0  0  0  0  0  0  0  0  0
   -5.8518    1.3703    0.4818 H   0  0  0  0  0  0  0  0  0  0  0  0
   -4.7187   -1.9345    1.9317 H   0  0  0  0  0  0  0  0  0  0  0  0
   -5.2793   -0.4928    2.7982 H   0  0  0  0  0  0  0  0  0  0  0  0
   -3.9296    1.0163    1.4309 H   0  0  0  0  0  0  0  0  0  0  0  0
   -2.9662   -0.2369    2.2903 H   0  0  0  0  0  0  0  0  0  0  0  0
   -2.9764   -1.2451   -1.6969 H   0  0  0  0  0  0  0  0  0  0  0  0
   -4.2438   -0.0093   -1.5015 H   0  0  0  0  0  0  0  0  0  0  0  0
   -4.9308   -2.4400   -1.8058 H   0  0  0  0  0  0  0  0  0  0  0  0
   -4.1403   -2.8376   -0.2824 H   0  0  0  0  0  0  0  0  0  0  0  0
   -6.2771   -2.6769    0.4101 H   0  0  0  0  0  0  0  0  0  0  0  0
   -6.7608   -1.6457   -0.9159 H   0  0  0  0  0  0  0  0  0  0  0  0
   -1.6380    0.2255   -1.7982 H   0  0  0  0  0  0  0  0  0  0  0  0
    0.8220    0.1795   -1.9945 H   0  0  0  0  0  0  0  0  0  0  0  0
    1.1019   -1.3021    1.9563 H   0  0  0  0  0  0  0  0  0  0  0  0
   -1.3374   -1.2712    2.1392 H   0  0  0  0  0  0  0  0  0  0  0  0
    2.9801   -0.2703    1.9273 H   0  0  0  0  0  0  0  0  0  0  0  0
    7.3835   -0.4796   -2.9874 H   0  0  0  0  0  0  0  0  0  0  0  0
    2.5943   -0.8149   -2.2704 H   0  0  0  0  0  0  0  0  0  0  0  0
    7.5247   -1.8108    1.1603 H   0  0  0  0  0  0  0  0  0  0  0  0
    9.6471   -1.5233    2.4017 H   0  0  0  0  0  0  0  0  0  0  0  0
   11.1784    0.3237    1.7958 H   0  0  0  0  0  0  0  0  0  0  0  0
   11.6652    2.2500    0.4152 H   0  0  0  0  0  0  0  0  0  0  0  0
   11.0410    3.7868   -1.3722 H   0  0  0  0  0  0  0  0  0  0  0  0
    8.8990    3.4066   -2.5422 H   0  0  0  0  0  0  0  0  0  0  0  0
   -8.8826   -1.8002    1.1608 H   0  0  0  0  0  0  0  0  0  0  0  0
  1  2  1  0
  2  3  1  0
  2  4  1  0
  4  5  1  0
  5  6  1  0
  6  7  1  0
  7  8  1  0
  8  9  1  0
  9 10  1  0
 10 11  1  0
  8 12  1  0
 12 13  2  0
 13 14  1  0
 14 15  2  0
 15 16  1  0
 16 17  2  0
 15 18  1  0
 18 19  1  0
 19 20  2  0
 20 21  1  0
 21 22  2  0
 22 23  1  0
 23 24  2  0
 24 25  1  0
 25 26  1  0
 22 27  1  0
 27 28  2  0
 28 29  1  0
 29 30  2  0
 30 31  1  0
 31 32  2  0
 32 33  1  0
 33 34  2  0
 34 35  1  0
 35 36  2  0
  2 37  1  0
 37 38  1  0
 37 39  2  0
 11  5  1  0
 17 12  1  0
 26 18  2  0
 36 27  1  0
 25 21  1  0
 36 31  1  0
  1 40  1  0
  1 41  1  0
  1 42  1  0
  3 43  1  0
  3 44  1  0
  3 45  1  0
  4 46  1  0
  4 47  1  0
  6 48  1  0
  6 49  1  0
  7 50  1  0
  7 51  1  0
  9 52  1  0
  9 53  1  0
 10 54  1  0
 10 55  1  0
 11 56  1  0
 11 57  1  0
 13 58  1  0
 14 59  1  0
 16 60  1  0
 17 61  1  0
 19 62  1  0
 23 63  1  0
 26 64  1  0
 28 65  1  0
 29 66  1  0
 30 67  1  0
 32 68  1  0
 33 69  1  0
 34 70  1  0
 38 71  1  0
M  END
$$$$
[H]c1nc(N([H])c2c([H])c(C([H])([H])[H])nc(C([H])([H])[H])c2[H])nc(N([H])c2nc3c(c([H])c2[H])OC(C([H])([H])[H])(C([H])([H])[H])C(=O)N3[H])c1Cl
     RDKit          3D

 50 53  0  0  0  0  0  0  0  0999 V2000
   -2.2462    1.9299    1.6196 C   0  0  0  0  0  0  0  0  0  0  0  0
   -3.2758    1.1125    0.9426 C   0  0  0  0  0  0  0  0  0  0  0  0
   -3.1000    0.6976   -0.3762 C   0  0  0  0  0  0  0  0  0  0  0  0
   -4.0278   -0.0538   -1.0235 C   0  0  0  0  0  0  0  0  0  0  0  0
   -3.8571   -0.4853   -2.3381 N   0  0  0  0  0  0  0  0  0  0  0  0
   -2.6597   -0.7112   -3.0181 C   0  0  0  0  0  0  0  0  0  0  0  0
   -2.7894   -1.0998   -4.3377 N   0  0  0  0  0  0  0  0  0  0  0  0
   -1.7168   -1.3644   -5.0863 C   0  0  0  0  0  0  0  0  0  0  0  0
   -0.4521   -1.2628   -4.5812 C   0  0  0  0  0  0  0  0  0  0  0  0
    0.9568   -1.6192   -5.5933 Cl  0  0  0  0  0  0  0  0  0  0  0  0
   -0.2990   -0.8691   -3.2379 C   0  0  0  0  0  0  0  0  0  0  0  0
    1.0079   -0.7458   -2.7479 N   0  0  0  0  0  0  0  0  0  0  0  0
    1.4921   -0.4342   -1.4701 C   0  0  0  0  0  0  0  0  0  0  0  0
    0.7438   -0.2645   -0.3322 C   0  0  0  0  0  0  0  0  0  0  0  0
    1.3243    0.0780    0.8906 C   0  0  0  0  0  0  0  0  0  0  0  0
    2.6865    0.2527    0.9721 C   0  0  0  0  0  0  0  0  0  0  0  0
    3.3267    0.5919    2.1503 O   0  0  0  0  0  0  0  0  0  0  0  0
    4.7200    0.4229    2.3419 C   0  0  0  0  0  0  0  0  0  0  0  0
    5.1849    1.5101    3.3001 C   0  0  0  0  0  0  0  0  0  0  0  0
    5.0466   -0.9583    2.8772 C   0  0  0  0  0  0  0  0  0  0  0  0
    5.4762    0.5966    1.0824 C   0  0  0  0  0  0  0  0  0  0  0  0
    6.6428    1.0439    1.1426 O   0  0  0  0  0  0  0  0  0  0  0  0
    4.8485    0.2493   -0.1402 N   0  0  0  0  0  0  0  0  0  0  0  0
    3.4351    0.0784   -0.1815 C   0  0  0  0  0  0  0  0  0  0  0  0
    2.8492   -0.2473   -1.3293 N   0  0  0  0  0  0  0  0  0  0  0  0
   -1.4101   -0.6200   -2.5479 N   0  0  0  0  0  0  0  0  0  0  0  0
   -5.1942   -0.4047   -0.3035 C   0  0  0  0  0  0  0  0  0  0  0  0
   -5.3509    0.0042    0.9727 C   0  0  0  0  0  0  0  0  0  0  0  0
   -6.5572   -0.3337    1.7821 C   0  0  0  0  0  0  0  0  0  0  0  0
   -4.4041    0.7400    1.5544 N   0  0  0  0  0  0  0  0  0  0  0  0
   -1.6940    1.3447    2.3988 H   0  0  0  0  0  0  0  0  0  0  0  0
   -2.8039    2.7838    2.1047 H   0  0  0  0  0  0  0  0  0  0  0  0
   -1.5124    2.3444    0.9292 H   0  0  0  0  0  0  0  0  0  0  0  0
   -2.1739    1.0332   -0.8293 H   0  0  0  0  0  0  0  0  0  0  0  0
   -4.7762   -0.6571   -2.8715 H   0  0  0  0  0  0  0  0  0  0  0  0
   -1.8008   -1.6737   -6.1356 H   0  0  0  0  0  0  0  0  0  0  0  0
    1.8066   -0.9200   -3.4711 H   0  0  0  0  0  0  0  0  0  0  0  0
   -0.3190   -0.4224   -0.3928 H   0  0  0  0  0  0  0  0  0  0  0  0
    0.6916    0.2013    1.7591 H   0  0  0  0  0  0  0  0  0  0  0  0
    5.0130    1.1595    4.3327 H   0  0  0  0  0  0  0  0  0  0  0  0
    4.6239    2.4221    3.0433 H   0  0  0  0  0  0  0  0  0  0  0  0
    6.2498    1.7205    3.0735 H   0  0  0  0  0  0  0  0  0  0  0  0
    4.4202   -1.6936    2.3226 H   0  0  0  0  0  0  0  0  0  0  0  0
    4.9043   -1.0434    3.9562 H   0  0  0  0  0  0  0  0  0  0  0  0
    6.0999   -1.1859    2.6038 H   0  0  0  0  0  0  0  0  0  0  0  0
    5.4132    0.1155   -1.0226 H   0  0  0  0  0  0  0  0  0  0  0  0
   -5.9415   -1.0032   -0.8084 H   0  0  0  0  0  0  0  0  0  0  0  0
   -6.8149    0.5847    2.3565 H   0  0  0  0  0  0  0  0  0  0  0  0
   -6.3739   -1.1363    2.5108 H   0  0  0  0  0  0  0  0  0  0  0  0
   -7.4128   -0.6142    1.1564 H   0  0  0  0  0  0  0  0  0  0  0  0
  1  2  1  0
  2  3  2  0
  3  4  1  0
  4  5  1  0
  5  6  1  0
  6  7  2  0
  7  8  1  0
  8  9  2  0
  9 10  1  0
  9 11  1  0
 11 12  1  0
 12 13  1  0
 13 14  2  0
 14 15  1  0
 15 16  2  0
 16 17  1  0
 17 18  1  0
 18 19  1  0
 18 20  1  0
 18 21  1  0
 21 22  2  0
 21 23  1  0
 23 24  1  0
 24 25  2  0
 11 26  2  0
  4 27  2  0
 27 28  1  0
 28 29  1  0
 28 30  2  0
 30  2  1  0
 26  6  1  0
 25 13  1  0
 24 16  1  0
  1 31  1  0
  1 32  1  0
  1 33  1  0
  3 34  1  0
  5 35  1  0
  8 36  1  0
 12 37  1  0
 14 38  1  0
 15 39  1  0
 19 40  1  0
 19 41  1  0
 19 42  1  0
 20 43  1  0
 20 44  1  0
 20 45  1  0
 23 46  1  0
 27 47  1  0
 29 48  1  0
 29 49  1  0
 29 50  1  0
M  END
$$$$
[H]OC(=O)C([H])([H])[C@@]([H])(C(=O)N([H])c1c([H])c([H])c([H])c(Oc2c([H])c([H])c([H])c([H])c2[H])c1[H])N([H])C(=O)c1c([H])c([H])c([H])c([H])c1[H]
     RDKit          3D

 50 52  0  0  0  0  0  0  0  0999 V2000
   -4.7847   -2.8052    0.7110 O   0  0  0  0  0  0  0  0  0  0  0  0
   -3.8302   -3.2205   -0.1866 C   0  0  0  0  0  0  0  0  0  0  0  0
   -4.1054   -4.1946   -0.9301 O   0  0  0  0  0  0  0  0  0  0  0  0
   -2.5093   -2.6017   -0.3352 C   0  0  0  0  0  0  0  0  0  0  0  0
   -2.2501   -1.4449    0.5838 C   0  0  2  0  0  0  0  0  0  0  0  0
   -3.2130   -0.3674    0.3764 N   0  0  0  0  0  0  0  0  0  0  0  0
   -3.9256    0.2049    1.4471 C   0  0  0  0  0  0  0  0  0  0  0  0
   -3.7384   -0.2090    2.6205 O   0  0  0  0  0  0  0  0  0  0  0  0
   -4.8743    1.2653    1.2281 C   0  0  0  0  0  0  0  0  0  0  0  0
   -5.2200    1.6347   -0.0470 C   0  0  0  0  0  0  0  0  0  0  0  0
   -6.1412    2.6677   -0.2644 C   0  0  0  0  0  0  0  0  0  0  0  0
   -6.6892    3.3010    0.8284 C   0  0  0  0  0  0  0  0  0  0  0  0
   -6.3662    2.9576    2.1327 C   0  0  0  0  0  0  0  0  0  0  0  0
   -5.4504    1.9296    2.2930 C   0  0  0  0  0  0  0  0  0  0  0  0
   -0.8982   -0.8988    0.1899 C   0  0  0  0  0  0  0  0  0  0  0  0
   -0.8582    0.2657   -0.2178 O   0  0  0  0  0  0  0  0  0  0  0  0
    0.1954   -1.7817    0.3286 N   0  0  0  0  0  0  0  0  0  0  0  0
    1.5489   -1.5241    0.0346 C   0  0  0  0  0  0  0  0  0  0  0  0
    2.4778   -2.5617    0.1615 C   0  0  0  0  0  0  0  0  0  0  0  0
    3.8140   -2.4294   -0.0920 C   0  0  0  0  0  0  0  0  0  0  0  0
    4.3273   -1.2231   -0.4994 C   0  0  0  0  0  0  0  0  0  0  0  0
    3.4441   -0.1823   -0.6345 C   0  0  0  0  0  0  0  0  0  0  0  0
    3.8859    1.0731   -1.0437 O   0  0  0  0  0  0  0  0  0  0  0  0
    5.2221    1.3219   -1.3193 C   0  0  0  0  0  0  0  0  0  0  0  0
    6.1052    1.7720   -0.3525 C   0  0  0  0  0  0  0  0  0  0  0  0
    7.4378    2.0231   -0.6141 C   0  0  0  0  0  0  0  0  0  0  0  0
    7.9109    1.8147   -1.9029 C   0  0  0  0  0  0  0  0  0  0  0  0
    7.0540    1.3671   -2.8850 C   0  0  0  0  0  0  0  0  0  0  0  0
    5.7167    1.1229   -2.5911 C   0  0  0  0  0  0  0  0  0  0  0  0
    2.0788   -0.3232   -0.3738 C   0  0  0  0  0  0  0  0  0  0  0  0
   -4.6986   -3.1470    1.6674 H   0  0  0  0  0  0  0  0  0  0  0  0
   -2.3731   -2.2080   -1.3778 H   0  0  0  0  0  0  0  0  0  0  0  0
   -1.7337   -3.3671   -0.1726 H   0  0  0  0  0  0  0  0  0  0  0  0
   -2.2055   -1.7618    1.6496 H   0  0  0  0  0  0  0  0  0  0  0  0
   -3.3310   -0.0564   -0.6091 H   0  0  0  0  0  0  0  0  0  0  0  0
   -4.8397    1.1903   -0.9550 H   0  0  0  0  0  0  0  0  0  0  0  0
   -6.4216    2.9677   -1.2696 H   0  0  0  0  0  0  0  0  0  0  0  0
   -7.4064    4.1045    0.6225 H   0  0  0  0  0  0  0  0  0  0  0  0
   -6.8196    3.4805    2.9677 H   0  0  0  0  0  0  0  0  0  0  0  0
   -5.2162    1.6818    3.3359 H   0  0  0  0  0  0  0  0  0  0  0  0
   -0.0094   -2.7640    0.7032 H   0  0  0  0  0  0  0  0  0  0  0  0
    2.1223   -3.5359    0.4799 H   0  0  0  0  0  0  0  0  0  0  0  0
    4.4904   -3.2770    0.0251 H   0  0  0  0  0  0  0  0  0  0  0  0
    5.3728   -1.0612   -0.7134 H   0  0  0  0  0  0  0  0  0  0  0  0
    5.7088    1.9275    0.6510 H   0  0  0  0  0  0  0  0  0  0  0  0
    8.1066    2.3737    0.1569 H   0  0  0  0  0  0  0  0  0  0  0  0
    8.9538    1.9972   -2.1654 H   0  0  0  0  0  0  0  0  0  0  0  0
    7.4437    1.2073   -3.8968 H   0  0  0  0  0  0  0  0  0  0  0  0
    5.0754    0.7714   -3.3922 H   0  0  0  0  0  0  0  0  0  0  0  0
    1.4163    0.5227   -0.4897 H   0  0  0  0  0  0  0  0  0  0  0  0
  1  2  1  0
  2  3  2  0
  2  4  1  0
  4  5  1  0
  5  6  1  0
  6  7  1  0
  7  8  2  0
  7  9  1  0
  9 10  2  0
 10 11  1  0
 11 12  2  0
 12 13  1  0
 13 14  2  0
  5 15  1  0
 15 16  2  0
 15 17  1  0
 17 18  1  0
 18 19  2  0
 19 20  1  0
 20 21  2  0
 21 22  1  0
 22 23  1  0
 23 24  1  0
 24 25  2  0
 25 26  1  0
 26 27  2  0
 27 28  1  0
 28 29  2  0
 22 30  2  0
 14  9  1  0
 30 18  1  0
 29 24  1  0
  1 31  1  0
  4 32  1  0
  4 33  1  0
  5 34  1  1
  6 35  1  0
 10 36  1  0
 11 37  1  0
 12 38  1  0
 13 39  1  0
 14 40  1  0
 17 41  1  0
 19 42  1  0
 20 43  1  0
 21 44  1  0
 25 45  1  0
 26 46  1  0
 27 47  1  0
 28 48  1  0
 29 49  1  0
 30 50  1  0
M  END
$$$$
[H]c1nc(N([H])c2c([H])c([H])c(C([H])([H])[H])c(OC([H])([H])C([H])([H])[H])c2[H])nc2c1C(C([H])([H])[H])(C([H])([H])[H])N([H])c1nc(Br)c(Br)c([H])c1N([H])C2=O
     RDKit          3D

 54 57  0  0  0  0  0  0  0  0999 V2000
    3.9792    2.4407   -1.0579 C   0  0  0  0  0  0  0  0  0  0  0  0
    4.4526    1.3392   -1.9862 C   0  0  0  0  0  0  0  0  0  0  0  0
    5.2306    0.4323   -1.2968 O   0  0  0  0  0  0  0  0  0  0  0  0
    4.8430   -0.3577   -0.2600 C   0  0  0  0  0  0  0  0  0  0  0  0
    3.5645   -0.3779    0.2574 C   0  0  0  0  0  0  0  0  0  0  0  0
    3.1476   -1.1661    1.3003 C   0  0  0  0  0  0  0  0  0  0  0  0
    1.8527   -1.2306    1.8287 N   0  0  0  0  0  0  0  0  0  0  0  0
    0.6550   -0.9136    1.1481 C   0  0  0  0  0  0  0  0  0  0  0  0
    0.6428   -0.5271   -0.1030 N   0  0  0  0  0  0  0  0  0  0  0  0
   -0.4969   -0.2184   -0.7754 C   0  0  0  0  0  0  0  0  0  0  0  0
   -1.7275   -0.2997   -0.1544 C   0  0  0  0  0  0  0  0  0  0  0  0
   -2.6943    0.0854   -1.1406 C   0  0  0  0  0  0  0  0  0  0  0  0
   -2.9808   -1.1157   -2.0774 C   0  0  0  0  0  0  0  0  0  0  0  0
   -2.1332    1.1549   -2.0996 C   0  0  0  0  0  0  0  0  0  0  0  0
   -3.9741    0.5497   -0.7440 N   0  0  0  0  0  0  0  0  0  0  0  0
   -4.8926    0.6994    0.3209 C   0  0  0  0  0  0  0  0  0  0  0  0
   -5.8864    1.4873   -0.1103 N   0  0  0  0  0  0  0  0  0  0  0  0
   -6.9061    1.7965    0.7038 C   0  0  0  0  0  0  0  0  0  0  0  0
   -8.3119    2.9215    0.0725 Br  0  0  0  0  0  0  0  0  0  0  0  0
   -6.9942    1.3356    2.0030 C   0  0  0  0  0  0  0  0  0  0  0  0
   -8.4745    1.8034    3.1393 Br  0  0  0  0  0  0  0  0  0  0  0  0
   -5.9731    0.5308    2.4351 C   0  0  0  0  0  0  0  0  0  0  0  0
   -4.9274    0.2166    1.5927 C   0  0  0  0  0  0  0  0  0  0  0  0
   -4.0488   -0.6275    2.3545 N   0  0  0  0  0  0  0  0  0  0  0  0
   -2.6717   -0.9415    2.1965 C   0  0  0  0  0  0  0  0  0  0  0  0
   -2.2205   -1.5657    3.2021 O   0  0  0  0  0  0  0  0  0  0  0  0
   -1.6896   -0.7037    1.1461 C   0  0  0  0  0  0  0  0  0  0  0  0
   -0.5401   -1.0049    1.7905 N   0  0  0  0  0  0  0  0  0  0  0  0
    4.1206   -2.0025    1.8602 C   0  0  0  0  0  0  0  0  0  0  0  0
    5.3878   -2.0115    1.3795 C   0  0  0  0  0  0  0  0  0  0  0  0
    5.7850   -1.2159    0.3351 C   0  0  0  0  0  0  0  0  0  0  0  0
    7.1838   -1.2801   -0.1345 C   0  0  0  0  0  0  0  0  0  0  0  0
    2.8678    2.5401   -1.0608 H   0  0  0  0  0  0  0  0  0  0  0  0
    4.4372    3.3933   -1.4014 H   0  0  0  0  0  0  0  0  0  0  0  0
    4.2617    2.2298    0.0088 H   0  0  0  0  0  0  0  0  0  0  0  0
    5.0125    1.7714   -2.8510 H   0  0  0  0  0  0  0  0  0  0  0  0
    3.5379    0.8957   -2.4456 H   0  0  0  0  0  0  0  0  0  0  0  0
    2.8713    0.2975   -0.2219 H   0  0  0  0  0  0  0  0  0  0  0  0
    1.7753   -1.5466    2.8442 H   0  0  0  0  0  0  0  0  0  0  0  0
   -0.3628    0.0780   -1.7810 H   0  0  0  0  0  0  0  0  0  0  0  0
   -3.4854   -0.6957   -2.9514 H   0  0  0  0  0  0  0  0  0  0  0  0
   -3.6521   -1.8301   -1.5951 H   0  0  0  0  0  0  0  0  0  0  0  0
   -1.9995   -1.5840   -2.3068 H   0  0  0  0  0  0  0  0  0  0  0  0
   -1.7902    0.7144   -3.0573 H   0  0  0  0  0  0  0  0  0  0  0  0
   -2.9697    1.8428   -2.4233 H   0  0  0  0  0  0  0  0  0  0  0  0
   -1.4051    1.8145   -1.6078 H   0  0  0  0  0  0  0  0  0  0  0  0
   -4.4527    0.9608   -1.6128 H   0  0  0  0  0  0  0  0  0  0  0  0
   -5.9763    0.1347    3.4387 H   0  0  0  0  0  0  0  0  0  0  0  0
   -4.5434   -1.0703    3.1598 H   0  0  0  0  0  0  0  0  0  0  0  0
    3.8219   -2.6453    2.6940 H   0  0  0  0  0  0  0  0  0  0  0  0
    6.1253   -2.6788    1.8410 H   0  0  0  0  0  0  0  0  0  0  0  0
    7.3886   -2.2384   -0.6533 H   0  0  0  0  0  0  0  0  0  0  0  0
    7.8655   -1.1705    0.7386 H   0  0  0  0  0  0  0  0  0  0  0  0
    7.3706   -0.4464   -0.8666 H   0  0  0  0  0  0  0  0  0  0  0  0
  1  2  1  0
  2  3  1  0
  3  4  1  0
  4  5  2  0
  5  6  1  0
  6  7  1  0
  7  8  1  0
  8  9  2  0
  9 10  1  0
 10 11  2  0
 11 12  1  0
 12 13  1  0
 12 14  1  0
 12 15  1  0
 15 16  1  0
 16 17  2  0
 17 18  1  0
 18 19  1  0
 18 20  2  0
 20 21  1  0
 20 22  1  0
 22 23  2  0
 23 24  1  0
 24 25  1  0
 25 26  2  0
 25 27  1  0
 27 28  2  0
  6 29  2  0
 29 30  1  0
 30 31  2  0
 31 32  1  0
 31  4  1  0
 28  8  1  0
 27 11  1  0
 23 16  1  0
  1 33  1  0
  1 34  1  0
  1 35  1  0
  2 36  1  0
  2 37  1  0
  5 38  1  0
  7 39  1  0
 10 40  1  0
 13 41  1  0
 13 42  1  0
 13 43  1  0
 14 44  1  0
 14 45  1  0
 14 46  1  0
 15 47  1  0
 22 48  1  0
 24 49  1  0
 29 50  1  0
 30 51  1  0
 32 52  1  0
 32 53  1  0
 32 54  1  0
M  END
$$$$
[H]c1sc(-c2nc(N([H])C([H])([H])c3c([H])c(F)c([H])c(C([H])([H])[H])c3[H])c([H])c(N3C([H])([H])C([H])([H])C([H])([H])C([H])([H])C([H])([H])C3([H])[H])n2)c([H])c1[H]
     RDKit          3D

 53 56  0  0  0  0  0  0  0  0999 V2000
    7.1640   -0.0892   -0.4916 C   0  0  0  0  0  0  0  0  0  0  0  0
    6.0301   -1.0089   -0.2471 C   0  0  0  0  0  0  0  0  0  0  0  0
    6.2621   -2.3539   -0.0770 C   0  0  0  0  0  0  0  0  0  0  0  0
    5.1855   -3.1856    0.1491 C   0  0  0  0  0  0  0  0  0  0  0  0
    5.4635   -4.5075    0.3114 F   0  0  0  0  0  0  0  0  0  0  0  0
    3.9344   -2.6624    0.1980 C   0  0  0  0  0  0  0  0  0  0  0  0
    3.6482   -1.3054    0.0316 C   0  0  0  0  0  0  0  0  0  0  0  0
    2.2433   -0.8954    0.1122 C   0  0  0  0  0  0  0  0  0  0  0  0
    1.9714    0.4832   -0.0744 N   0  0  0  0  0  0  0  0  0  0  0  0
    0.6117    0.9184   -0.0013 C   0  0  0  0  0  0  0  0  0  0  0  0
   -0.3993    0.0154    0.2443 C   0  0  0  0  0  0  0  0  0  0  0  0
   -1.7059    0.4559    0.3110 C   0  0  0  0  0  0  0  0  0  0  0  0
   -1.9222    1.7704    0.1285 N   0  0  0  0  0  0  0  0  0  0  0  0
   -0.9622    2.6482   -0.1078 C   0  0  0  0  0  0  0  0  0  0  0  0
    0.3080    2.2385   -0.1756 N   0  0  0  0  0  0  0  0  0  0  0  0
   -1.2639    4.0872   -0.3009 C   0  0  0  0  0  0  0  0  0  0  0  0
   -0.3779    5.0940   -0.5496 C   0  0  0  0  0  0  0  0  0  0  0  0
   -0.8825    6.3348   -0.6908 C   0  0  0  0  0  0  0  0  0  0  0  0
   -2.2369    6.4771   -0.5728 C   0  0  0  0  0  0  0  0  0  0  0  0
   -2.7676    4.8896   -0.2703 S   0  0  0  0  0  0  0  0  0  0  0  0
   -2.7825   -0.4563    0.5648 N   0  0  0  0  0  0  0  0  0  0  0  0
   -2.3567   -1.8178    0.7324 C   0  0  0  0  0  0  0  0  0  0  0  0
   -3.4834   -2.7501    1.0346 C   0  0  0  0  0  0  0  0  0  0  0  0
   -4.2560   -2.9918   -0.2521 C   0  0  0  0  0  0  0  0  0  0  0  0
   -4.8770   -1.7420   -0.7832 C   0  0  0  0  0  0  0  0  0  0  0  0
   -5.2095   -0.7514    0.2840 C   0  0  0  0  0  0  0  0  0  0  0  0
   -4.0710    0.1880    0.5985 C   0  0  0  0  0  0  0  0  0  0  0  0
    4.7285   -0.4898   -0.1926 C   0  0  0  0  0  0  0  0  0  0  0  0
    6.8009    0.9600   -0.5290 H   0  0  0  0  0  0  0  0  0  0  0  0
    7.6699   -0.3972   -1.4310 H   0  0  0  0  0  0  0  0  0  0  0  0
    7.8847   -0.1795    0.3730 H   0  0  0  0  0  0  0  0  0  0  0  0
    7.2736   -2.7683   -0.1178 H   0  0  0  0  0  0  0  0  0  0  0  0
    3.1156   -3.3393    0.3764 H   0  0  0  0  0  0  0  0  0  0  0  0
    1.8899   -1.1988    1.1404 H   0  0  0  0  0  0  0  0  0  0  0  0
    1.6756   -1.5617   -0.5850 H   0  0  0  0  0  0  0  0  0  0  0  0
    2.6836    1.2063   -0.2610 H   0  0  0  0  0  0  0  0  0  0  0  0
   -0.1580   -1.0356    0.3831 H   0  0  0  0  0  0  0  0  0  0  0  0
    0.7085    4.8615   -0.6259 H   0  0  0  0  0  0  0  0  0  0  0  0
   -0.2354    7.2244   -0.8965 H   0  0  0  0  0  0  0  0  0  0  0  0
   -2.7931    7.4277   -0.6634 H   0  0  0  0  0  0  0  0  0  0  0  0
   -1.5951   -1.8877    1.5593 H   0  0  0  0  0  0  0  0  0  0  0  0
   -1.8301   -2.1966   -0.1792 H   0  0  0  0  0  0  0  0  0  0  0  0
   -3.0193   -3.7478    1.2881 H   0  0  0  0  0  0  0  0  0  0  0  0
   -4.1196   -2.4238    1.8588 H   0  0  0  0  0  0  0  0  0  0  0  0
   -5.0156   -3.7865   -0.0977 H   0  0  0  0  0  0  0  0  0  0  0  0
   -3.5021   -3.3609   -0.9930 H   0  0  0  0  0  0  0  0  0  0  0  0
   -5.8260   -2.0288   -1.2998 H   0  0  0  0  0  0  0  0  0  0  0  0
   -4.2411   -1.2376   -1.5387 H   0  0  0  0  0  0  0  0  0  0  0  0
   -6.0416   -0.1005   -0.1138 H   0  0  0  0  0  0  0  0  0  0  0  0
   -5.6159   -1.1980    1.2112 H   0  0  0  0  0  0  0  0  0  0  0  0
   -4.2215    0.5590    1.6400 H   0  0  0  0  0  0  0  0  0  0  0  0
   -4.0454    1.0568   -0.0852 H   0  0  0  0  0  0  0  0  0  0  0  0
    4.5609    0.5599   -0.3266 H   0  0  0  0  0  0  0  0  0  0  0  0
  1  2  1  0
  2  3  2  0
  3  4  1  0
  4  5  1  0
  4  6  2  0
  6  7  1  0
  7  8  1  0
  8  9  1  0
  9 10  1  0
 10 11  2  0
 11 12  1  0
 12 13  2  0
 13 14  1  0
 14 15  2  0
 14 16  1  0
 16 17  2  0
 17 18  1  0
 18 19  2  0
 19 20  1  0
 12 21  1  0
 21 22  1  0
 22 23  1  0
 23 24  1  0
 24 25  1  0
 25 26  1  0
 26 27  1  0
  7 28  2  0
 28  2  1  0
 15 10  1  0
 20 16  1  0
 27 21  1  0
  1 29  1  0
  1 30  1  0
  1 31  1  0
  3 32  1  0
  6 33  1  0
  8 34  1  0
  8 35  1  0
  9 36  1  0
 11 37  1  0
 17 38  1  0
 18 39  1  0
 19 40  1  0
 22 41  1  0
 22 42  1  0
 23 43  1  0
 23 44  1  0
 24 45  1  0
 24 46  1  0
 25 47  1  0
 25 48  1  0
 26 49  1  0
 26 50  1  0
 27 51  1  0
 27 52  1  0
 28 53  1  0
M  END
$$$$
[H]c1nc([H])c2c([H])c3c(nc2c1[H])[C@]([H])(C([H])([H])C([H])([H])[H])C([H])([H])N([H])C3=O
     RDKit          3D

 30 32  0  0  0  0  0  0  0  0999 V2000
   -2.4191    1.5659    0.2415 C   0  0  0  0  0  0  0  0  0  0  0  0
   -2.2782    0.8300   -1.0521 C   0  0  0  0  0  0  0  0  0  0  0  0
   -1.6517   -0.5379   -0.8748 C   0  0  2  0  0  0  0  0  0  0  0  0
   -2.4971   -1.3702    0.0318 C   0  0  0  0  0  0  0  0  0  0  0  0
   -1.7830   -2.5395    0.5176 N   0  0  0  0  0  0  0  0  0  0  0  0
   -0.4407   -2.4344    1.0034 C   0  0  0  0  0  0  0  0  0  0  0  0
    0.0388   -3.2696    1.8056 O   0  0  0  0  0  0  0  0  0  0  0  0
    0.3259   -1.2905    0.4998 C   0  0  0  0  0  0  0  0  0  0  0  0
    1.6344   -1.1116    0.9207 C   0  0  0  0  0  0  0  0  0  0  0  0
    2.3816   -0.0417    0.4647 C   0  0  0  0  0  0  0  0  0  0  0  0
    3.6860    0.1926    0.8440 C   0  0  0  0  0  0  0  0  0  0  0  0
    4.3901    1.2433    0.3837 N   0  0  0  0  0  0  0  0  0  0  0  0
    3.8330    2.1250   -0.4847 C   0  0  0  0  0  0  0  0  0  0  0  0
    2.5288    1.8880   -0.8621 C   0  0  0  0  0  0  0  0  0  0  0  0
    1.7689    0.8247   -0.4161 C   0  0  0  0  0  0  0  0  0  0  0  0
    0.4981    0.6275   -0.8080 N   0  0  0  0  0  0  0  0  0  0  0  0
   -0.2496   -0.4052   -0.3790 C   0  0  0  0  0  0  0  0  0  0  0  0
   -3.3346    1.2267    0.7547 H   0  0  0  0  0  0  0  0  0  0  0  0
   -2.5753    2.6517    0.0068 H   0  0  0  0  0  0  0  0  0  0  0  0
   -1.5116    1.5292    0.8744 H   0  0  0  0  0  0  0  0  0  0  0  0
   -1.7497    1.4366   -1.8034 H   0  0  0  0  0  0  0  0  0  0  0  0
   -3.3062    0.6588   -1.4620 H   0  0  0  0  0  0  0  0  0  0  0  0
   -1.5836   -1.0579   -1.8515 H   0  0  0  0  0  0  0  0  0  0  0  0
   -2.8634   -0.7663    0.8951 H   0  0  0  0  0  0  0  0  0  0  0  0
   -3.3843   -1.7473   -0.5266 H   0  0  0  0  0  0  0  0  0  0  0  0
   -2.2127   -3.4974    0.5343 H   0  0  0  0  0  0  0  0  0  0  0  0
    2.1014   -1.7896    1.6047 H   0  0  0  0  0  0  0  0  0  0  0  0
    4.1751   -0.4776    1.5317 H   0  0  0  0  0  0  0  0  0  0  0  0
    4.4151    2.9631   -0.8433 H   0  0  0  0  0  0  0  0  0  0  0  0
    2.0635    2.5737   -1.5509 H   0  0  0  0  0  0  0  0  0  0  0  0
  1  2  1  0
  2  3  1  0
  3  4  1  0
  4  5  1  0
  5  6  1  0
  6  7  2  0
  6  8  1  0
  8  9  2  0
  9 10  1  0
 10 11  2  0
 11 12  1  0
 12 13  2  0
 13 14  1  0
 14 15  2  0
 15 16  1  0
 16 17  2  0
 17  3  1  0
 17  8  1  0
 15 10  1  0
  1 18  1  0
  1 19  1  0
  1 20  1  0
  2 21  1  0
  2 22  1  0
  3 23  1  6
  4 24  1  0
  4 25  1  0
  5 26  1  0
  9 27  1  0
 11 28  1  0
 13 29  1  0
 14 30  1  0
M  END
$$$$
[H]c1c([H])c([H])c(C([H])([H])[H])c(-c2c([H])c(C(=O)N3c4c([H])c([H])c([H])c([H])c4C([H])([H])C([H])(N4C([H])([H])C([H])([H])N(C(=O)OC([H])([H])C([H])([H])[H])C([H])([H])C4([H])[H])C3([H])[H])c([H])c(OC(F)(F)F)c2N([H])C(=O)N([H])c2c([H])c([H])c(C(F)(F)F)c([H])c2[H])c1[H]
     RDKit          3D

 92 97  0  0  0  0  0  0  0  0999 V2000
    9.9653    4.4085   -0.0825 C   0  0  0  0  0  0  0  0  0  0  0  0
   10.2953    3.0930   -0.7188 C   0  0  0  0  0  0  0  0  0  0  0  0
    9.1280    2.3180   -0.9843 O   0  0  0  0  0  0  0  0  0  0  0  0
    8.2835    1.9393    0.0627 C   0  0  0  0  0  0  0  0  0  0  0  0
    8.6288    2.3272    1.1963 O   0  0  0  0  0  0  0  0  0  0  0  0
    7.0996    1.1700   -0.0918 N   0  0  0  0  0  0  0  0  0  0  0  0
    6.6192    0.6721   -1.3356 C   0  0  0  0  0  0  0  0  0  0  0  0
    5.2014    0.1686   -1.3672 C   0  0  0  0  0  0  0  0  0  0  0  0
    4.6877   -0.0464   -0.0990 N   0  0  0  0  0  0  0  0  0  0  0  0
    4.9081    1.0400    0.8371 C   0  0  0  0  0  0  0  0  0  0  0  0
    6.3827    0.9171    1.1813 C   0  0  0  0  0  0  0  0  0  0  0  0
    3.8161   -1.0257    0.2857 C   0  0  0  0  0  0  0  0  0  0  0  0
    2.4212   -1.1105   -0.2287 C   0  0  0  0  0  0  0  0  0  0  0  0
    1.7427   -2.2334    0.3982 N   0  0  0  0  0  0  0  0  0  0  0  0
    0.4022   -2.6224    0.1888 C   0  0  0  0  0  0  0  0  0  0  0  0
    0.0966   -3.8100    0.6542 O   0  0  0  0  0  0  0  0  0  0  0  0
   -0.7009   -1.9637   -0.4188 C   0  0  0  0  0  0  0  0  0  0  0  0
   -1.9794   -2.3994   -0.1000 C   0  0  0  0  0  0  0  0  0  0  0  0
   -3.1401   -1.8540   -0.5905 C   0  0  0  0  0  0  0  0  0  0  0  0
   -4.4470   -2.3757   -0.2299 C   0  0  0  0  0  0  0  0  0  0  0  0
   -5.3464   -2.7308   -1.1766 C   0  0  0  0  0  0  0  0  0  0  0  0
   -6.6020   -3.2552   -0.8717 C   0  0  0  0  0  0  0  0  0  0  0  0
   -6.9219   -3.4149    0.4513 C   0  0  0  0  0  0  0  0  0  0  0  0
   -6.0223   -3.0616    1.4043 C   0  0  0  0  0  0  0  0  0  0  0  0
   -4.7636   -2.5342    1.1155 C   0  0  0  0  0  0  0  0  0  0  0  0
   -3.8789   -2.1752    2.2344 C   0  0  0  0  0  0  0  0  0  0  0  0
   -3.0474   -0.7999   -1.4651 C   0  0  0  0  0  0  0  0  0  0  0  0
   -4.2576   -0.2058   -1.9417 N   0  0  0  0  0  0  0  0  0  0  0  0
   -4.9841    0.7361   -1.1948 C   0  0  0  0  0  0  0  0  0  0  0  0
   -4.4995    1.0340   -0.0638 O   0  0  0  0  0  0  0  0  0  0  0  0
   -6.1607    1.3255   -1.6396 N   0  0  0  0  0  0  0  0  0  0  0  0
   -6.9431    2.3018   -0.9716 C   0  0  0  0  0  0  0  0  0  0  0  0
   -6.4495    3.1346   -0.0027 C   0  0  0  0  0  0  0  0  0  0  0  0
   -7.2664    4.0830    0.6114 C   0  0  0  0  0  0  0  0  0  0  0  0
   -8.5935    4.2351    0.2870 C   0  0  0  0  0  0  0  0  0  0  0  0
   -9.0952    3.4065   -0.6792 C   0  0  0  0  0  0  0  0  0  0  0  0
   -8.2956    2.4684   -1.2897 C   0  0  0  0  0  0  0  0  0  0  0  0
   -9.4589    5.2580    0.9121 C   0  0  0  0  0  0  0  0  0  0  0  0
  -10.2842    4.7248    1.8673 F   0  0  0  0  0  0  0  0  0  0  0  0
  -10.1995    5.8840   -0.0857 F   0  0  0  0  0  0  0  0  0  0  0  0
   -8.7062    6.2632    1.5177 F   0  0  0  0  0  0  0  0  0  0  0  0
   -1.8249   -0.3148   -1.8374 C   0  0  0  0  0  0  0  0  0  0  0  0
   -1.5786    0.7068   -2.6956 O   0  0  0  0  0  0  0  0  0  0  0  0
   -1.3213    2.0132   -2.4367 C   0  0  0  0  0  0  0  0  0  0  0  0
   -2.2196    2.7779   -1.7872 F   0  0  0  0  0  0  0  0  0  0  0  0
   -0.1092    2.0650   -1.7042 F   0  0  0  0  0  0  0  0  0  0  0  0
   -1.0753    2.6383   -3.6841 F   0  0  0  0  0  0  0  0  0  0  0  0
   -0.6457   -0.9261   -1.2876 C   0  0  0  0  0  0  0  0  0  0  0  0
    2.5002   -3.0480    1.3363 C   0  0  0  0  0  0  0  0  0  0  0  0
    1.9261   -3.6860    2.4119 C   0  0  0  0  0  0  0  0  0  0  0  0
    2.6687   -4.4737    3.2932 C   0  0  0  0  0  0  0  0  0  0  0  0
    4.0146   -4.6289    3.0972 C   0  0  0  0  0  0  0  0  0  0  0  0
    4.6176   -3.9801    2.0023 C   0  0  0  0  0  0  0  0  0  0  0  0
    3.8830   -3.2259    1.1680 C   0  0  0  0  0  0  0  0  0  0  0  0
    4.4457   -2.4281    0.0494 C   0  0  0  0  0  0  0  0  0  0  0  0
   10.1960    4.3403    1.0269 H   0  0  0  0  0  0  0  0  0  0  0  0
   10.5986    5.2539   -0.4309 H   0  0  0  0  0  0  0  0  0  0  0  0
    8.9203    4.7258   -0.1549 H   0  0  0  0  0  0  0  0  0  0  0  0
   11.0247    2.5602   -0.1073 H   0  0  0  0  0  0  0  0  0  0  0  0
   10.7622    3.3016   -1.7064 H   0  0  0  0  0  0  0  0  0  0  0  0
    7.3499   -0.0979   -1.6897 H   0  0  0  0  0  0  0  0  0  0  0  0
    6.7488    1.5190   -2.0768 H   0  0  0  0  0  0  0  0  0  0  0  0
    5.2362   -0.8110   -1.9286 H   0  0  0  0  0  0  0  0  0  0  0  0
    4.6177    0.8418   -2.0517 H   0  0  0  0  0  0  0  0  0  0  0  0
    4.8023    2.0041    0.2590 H   0  0  0  0  0  0  0  0  0  0  0  0
    4.2301    0.9458    1.6766 H   0  0  0  0  0  0  0  0  0  0  0  0
    6.6334    1.6672    1.9487 H   0  0  0  0  0  0  0  0  0  0  0  0
    6.6361   -0.1042    1.4580 H   0  0  0  0  0  0  0  0  0  0  0  0
    3.7021   -0.9823    1.4218 H   0  0  0  0  0  0  0  0  0  0  0  0
    1.8631   -0.1587   -0.0270 H   0  0  0  0  0  0  0  0  0  0  0  0
    2.4119   -1.2849   -1.3126 H   0  0  0  0  0  0  0  0  0  0  0  0
   -2.1098   -3.2329    0.5805 H   0  0  0  0  0  0  0  0  0  0  0  0
   -5.1059   -2.6320   -2.2167 H   0  0  0  0  0  0  0  0  0  0  0  0
   -7.3012   -3.5257   -1.6371 H   0  0  0  0  0  0  0  0  0  0  0  0
   -7.9133   -3.8351    0.7036 H   0  0  0  0  0  0  0  0  0  0  0  0
   -6.2877   -3.1978    2.4365 H   0  0  0  0  0  0  0  0  0  0  0  0
   -4.5413   -1.8395    3.0922 H   0  0  0  0  0  0  0  0  0  0  0  0
   -3.2042   -1.3266    2.0455 H   0  0  0  0  0  0  0  0  0  0  0  0
   -3.3096   -3.0771    2.6236 H   0  0  0  0  0  0  0  0  0  0  0  0
   -4.5851   -0.4793   -2.8846 H   0  0  0  0  0  0  0  0  0  0  0  0
   -6.5377    1.0188   -2.5891 H   0  0  0  0  0  0  0  0  0  0  0  0
   -5.4280    3.0944    0.3162 H   0  0  0  0  0  0  0  0  0  0  0  0
   -6.8351    4.7138    1.3661 H   0  0  0  0  0  0  0  0  0  0  0  0
  -10.1563    3.5261   -0.9494 H   0  0  0  0  0  0  0  0  0  0  0  0
   -8.7126    1.8129   -2.0550 H   0  0  0  0  0  0  0  0  0  0  0  0
    0.2818   -0.5229   -1.6211 H   0  0  0  0  0  0  0  0  0  0  0  0
    0.8963   -3.5580    2.6113 H   0  0  0  0  0  0  0  0  0  0  0  0
    2.1968   -4.9759    4.1474 H   0  0  0  0  0  0  0  0  0  0  0  0
    4.6419   -5.2254    3.7547 H   0  0  0  0  0  0  0  0  0  0  0  0
    5.6725   -4.0973    1.8425 H   0  0  0  0  0  0  0  0  0  0  0  0
    4.1568   -2.8487   -0.9097 H   0  0  0  0  0  0  0  0  0  0  0  0
    5.5326   -2.2922    0.1092 H   0  0  0  0  0  0  0  0  0  0  0  0
  1  2  1  0
  2  3  1  0
  3  4  1  0
  4  5  2  0
  4  6  1  0
  6  7  1  0
  7  8  1  0
  8  9  1  0
  9 10  1  0
 10 11  1  0
  9 12  1  0
 12 13  1  0
 13 14  1  0
 14 15  1  0
 15 16  2  0
 15 17  1  0
 17 18  2  0
 18 19  1  0
 19 20  1  0
 20 21  2  0
 21 22  1  0
 22 23  2  0
 23 24  1  0
 24 25  2  0
 25 26  1  0
 19 27  2  0
 27 28  1  0
 28 29  1  0
 29 30  2  0
 29 31  1  0
 31 32  1  0
 32 33  2  0
 33 34  1  0
 34 35  2  0
 35 36  1  0
 36 37  2  0
 35 38  1  0
 38 39  1  0
 38 40  1  0
 38 41  1  0
 27 42  1  0
 42 43  1  0
 43 44  1  0
 44 45  1  0
 44 46  1  0
 44 47  1  0
 42 48  2  0
 14 49  1  0
 49 50  2  0
 50 51  1  0
 51 52  2  0
 52 53  1  0
 53 54  2  0
 54 55  1  0
 11  6  1  0
 55 12  1  0
 48 17  1  0
 54 49  1  0
 25 20  1  0
 37 32  1  0
  1 56  1  0
  1 57  1  0
  1 58  1  0
  2 59  1  0
  2 60  1  0
  7 61  1  0
  7 62  1  0
  8 63  1  0
  8 64  1  0
 10 65  1  0
 10 66  1  0
 11 67  1  0
 11 68  1  0
 12 69  1  0
 13 70  1  0
 13 71  1  0
 18 72  1  0
 21 73  1  0
 22 74  1  0
 23 75  1  0
 24 76  1  0
 26 77  1  0
 26 78  1  0
 26 79  1  0
 28 80  1  0
 31 81  1  0
 33 82  1  0
 34 83  1  0
 36 84  1  0
 37 85  1  0
 48 86  1  0
 50 87  1  0
 51 88  1  0
 52 89  1  0
 53 90  1  0
 55 91  1  0
 55 92  1  0
M  END
$$$$
[H]c1c([H])c([H])c(C([H])([H])n2c(C([H])([H])C([H])([H])[H])c(C(=O)C(=O)N([H])[H])c3c(OC([H])([H])C(=O)N([H])S(=O)(=O)c4c([H])c([H])c([H])c([H])c4[H])c([H])c4c([H])c([H])c([H])c([H])c4c32)c([H])c1[H]
     RDKit          3D

 68 72  0  0  0  0  0  0  0  0999 V2000
   -3.2759    2.5432   -1.4773 C   0  0  0  0  0  0  0  0  0  0  0  0
   -3.0141    1.2020   -2.1569 C   0  0  0  0  0  0  0  0  0  0  0  0
   -2.3881    0.2515   -1.1897 C   0  0  0  0  0  0  0  0  0  0  0  0
   -1.0756    0.3725   -0.8474 C   0  0  0  0  0  0  0  0  0  0  0  0
   -0.1040    1.3464   -1.3036 C   0  0  0  0  0  0  0  0  0  0  0  0
    0.0522    2.4104   -0.6881 O   0  0  0  0  0  0  0  0  0  0  0  0
    0.6731    1.0147   -2.5164 C   0  0  0  0  0  0  0  0  0  0  0  0
    1.6188    1.9458   -3.0256 N   0  0  0  0  0  0  0  0  0  0  0  0
    0.5154   -0.0783   -3.1133 O   0  0  0  0  0  0  0  0  0  0  0  0
   -0.8090   -0.6365    0.0456 C   0  0  0  0  0  0  0  0  0  0  0  0
    0.3586   -0.9857    0.6908 C   0  0  0  0  0  0  0  0  0  0  0  0
    1.5348   -0.2625    0.5162 O   0  0  0  0  0  0  0  0  0  0  0  0
    2.7186   -0.6550    1.1969 C   0  0  0  0  0  0  0  0  0  0  0  0
    3.8655    0.2154    0.9224 C   0  0  0  0  0  0  0  0  0  0  0  0
    4.9603   -0.0898    1.4520 O   0  0  0  0  0  0  0  0  0  0  0  0
    3.7926    1.3614    0.1035 N   0  0  0  0  0  0  0  0  0  0  0  0
    5.0810    2.4142   -0.2606 S   0  0  0  0  0  0  0  0  0  0  0  0
    5.1895    3.4806    0.8032 O   0  0  0  0  0  0  0  0  0  0  0  0
    4.7781    3.0954   -1.5804 O   0  0  0  0  0  0  0  0  0  0  0  0
    6.6338    1.6351   -0.3696 C   0  0  0  0  0  0  0  0  0  0  0  0
    7.0849    1.0727   -1.5381 C   0  0  0  0  0  0  0  0  0  0  0  0
    8.3349    0.4768   -1.5544 C   0  0  0  0  0  0  0  0  0  0  0  0
    9.1619    0.4124   -0.4611 C   0  0  0  0  0  0  0  0  0  0  0  0
    8.6859    0.9869    0.7086 C   0  0  0  0  0  0  0  0  0  0  0  0
    7.4429    1.5831    0.7370 C   0  0  0  0  0  0  0  0  0  0  0  0
    0.3702   -2.0678    1.5272 C   0  0  0  0  0  0  0  0  0  0  0  0
   -0.7795   -2.7960    1.7181 C   0  0  0  0  0  0  0  0  0  0  0  0
   -0.7716   -3.8968    2.5524 C   0  0  0  0  0  0  0  0  0  0  0  0
   -1.8911   -4.6461    2.7558 C   0  0  0  0  0  0  0  0  0  0  0  0
   -3.0415   -4.3007    2.1230 C   0  0  0  0  0  0  0  0  0  0  0  0
   -3.0948   -3.1987    1.2740 C   0  0  0  0  0  0  0  0  0  0  0  0
   -1.9729   -2.4518    1.0715 C   0  0  0  0  0  0  0  0  0  0  0  0
   -2.0131   -1.3525    0.2128 C   0  0  0  0  0  0  0  0  0  0  0  0
   -2.9543   -0.8138   -0.5299 N   0  0  0  0  0  0  0  0  0  0  0  0
   -4.3228   -1.1605   -0.7669 C   0  0  0  0  0  0  0  0  0  0  0  0
   -5.3145   -0.3639   -0.0097 C   0  0  0  0  0  0  0  0  0  0  0  0
   -5.3766   -0.2085    1.3388 C   0  0  0  0  0  0  0  0  0  0  0  0
   -6.3574    0.5266    1.9554 C   0  0  0  0  0  0  0  0  0  0  0  0
   -7.3585    1.1668    1.2546 C   0  0  0  0  0  0  0  0  0  0  0  0
   -7.3250    1.0303   -0.1121 C   0  0  0  0  0  0  0  0  0  0  0  0
   -6.3301    0.2856   -0.7244 C   0  0  0  0  0  0  0  0  0  0  0  0
   -3.1299    2.4599   -0.3747 H   0  0  0  0  0  0  0  0  0  0  0  0
   -2.6553    3.3154   -1.9274 H   0  0  0  0  0  0  0  0  0  0  0  0
   -4.3388    2.8340   -1.6118 H   0  0  0  0  0  0  0  0  0  0  0  0
   -2.2884    1.3976   -3.0093 H   0  0  0  0  0  0  0  0  0  0  0  0
   -3.9228    0.8714   -2.6289 H   0  0  0  0  0  0  0  0  0  0  0  0
    1.9498    1.9220   -4.0130 H   0  0  0  0  0  0  0  0  0  0  0  0
    2.0289    2.7028   -2.4302 H   0  0  0  0  0  0  0  0  0  0  0  0
    2.5658   -0.6535    2.2999 H   0  0  0  0  0  0  0  0  0  0  0  0
    2.9668   -1.7029    0.9305 H   0  0  0  0  0  0  0  0  0  0  0  0
    2.8553    1.5730   -0.3044 H   0  0  0  0  0  0  0  0  0  0  0  0
    6.4927    1.0860   -2.4308 H   0  0  0  0  0  0  0  0  0  0  0  0
    8.7271    0.0164   -2.4743 H   0  0  0  0  0  0  0  0  0  0  0  0
   10.1460   -0.0603   -0.4856 H   0  0  0  0  0  0  0  0  0  0  0  0
    9.3417    0.9324    1.5640 H   0  0  0  0  0  0  0  0  0  0  0  0
    7.1336    2.0119    1.6825 H   0  0  0  0  0  0  0  0  0  0  0  0
    1.2481   -2.4007    2.0656 H   0  0  0  0  0  0  0  0  0  0  0  0
    0.1573   -4.1652    3.0561 H   0  0  0  0  0  0  0  0  0  0  0  0
   -1.8549   -5.5094    3.4191 H   0  0  0  0  0  0  0  0  0  0  0  0
   -3.9537   -4.8896    2.2725 H   0  0  0  0  0  0  0  0  0  0  0  0
   -4.0303   -2.9970    0.8499 H   0  0  0  0  0  0  0  0  0  0  0  0
   -4.5700   -2.2260   -0.8950 H   0  0  0  0  0  0  0  0  0  0  0  0
   -4.5372   -0.8424   -1.8794 H   0  0  0  0  0  0  0  0  0  0  0  0
   -4.6381   -0.6613    1.9723 H   0  0  0  0  0  0  0  0  0  0  0  0
   -6.3803    0.6318    3.0340 H   0  0  0  0  0  0  0  0  0  0  0  0
   -8.1325    1.7466    1.7420 H   0  0  0  0  0  0  0  0  0  0  0  0
   -8.1036    1.5264   -0.6776 H   0  0  0  0  0  0  0  0  0  0  0  0
   -6.3598    0.2154   -1.7951 H   0  0  0  0  0  0  0  0  0  0  0  0
  1  2  1  0
  2  3  1  0
  3  4  2  0
  4  5  1  0
  5  6  2  0
  5  7  1  0
  7  8  1  0
  7  9  2  0
  4 10  1  0
 10 11  2  0
 11 12  1  0
 12 13  1  0
 13 14  1  0
 14 15  2  0
 14 16  1  0
 16 17  1  0
 17 18  2  0
 17 19  2  0
 17 20  1  0
 20 21  2  0
 21 22  1  0
 22 23  2  0
 23 24  1  0
 24 25  2  0
 11 26  1  0
 26 27  2  0
 27 28  1  0
 28 29  2  0
 29 30  1  0
 30 31  2  0
 31 32  1  0
 32 33  2  0
 33 34  1  0
 34 35  1  0
 35 36  1  0
 36 37  2  0
 37 38  1  0
 38 39  2  0
 39 40  1  0
 40 41  2  0
 34  3  1  0
 41 36  1  0
 33 10  1  0
 25 20  1  0
 32 27  1  0
  1 42  1  0
  1 43  1  0
  1 44  1  0
  2 45  1  0
  2 46  1  0
  8 47  1  0
  8 48  1  0
 13 49  1  0
 13 50  1  0
 16 51  1  0
 21 52  1  0
 22 53  1  0
 23 54  1  0
 24 55  1  0
 25 56  1  0
 26 57  1  0
 28 58  1  0
 29 59  1  0
 30 60  1  0
 31 61  1  0
 35 62  1  0
 35 63  1  0
 37 64  1  0
 38 65  1  0
 39 66  1  0
 40 67  1  0
 41 68  1  0
M  END
$$$$
[H]OC([H])([H])C([H])([H])N1C([H])([H])C([H])([H])N(C([H])([H])c2c([H])c([H])c3c([H])nc(N([H])C4([H])C([H])([H])C([H])([H])N([H])C([H])([H])C4([H])[H])c([H])c3c2[H])C([H])([H])C1([H])[H]
     RDKit          3D

 58 61  0  0  0  0  0  0  0  0999 V2000
    7.7737    1.3355    1.2531 O   0  0  0  0  0  0  0  0  0  0  0  0
    7.4007    2.0595    0.1592 C   0  0  0  0  0  0  0  0  0  0  0  0
    6.7650    1.2080   -0.9055 C   0  0  0  0  0  0  0  0  0  0  0  0
    5.5660    0.5253   -0.4922 N   0  0  0  0  0  0  0  0  0  0  0  0
    5.0617   -0.1706   -1.6770 C   0  0  0  0  0  0  0  0  0  0  0  0
    3.7026   -0.8009   -1.3449 C   0  0  0  0  0  0  0  0  0  0  0  0
    3.7052   -1.1076    0.0438 N   0  0  0  0  0  0  0  0  0  0  0  0
    2.5371   -1.7197    0.5699 C   0  0  0  0  0  0  0  0  0  0  0  0
    1.3696   -0.8205    0.4180 C   0  0  0  0  0  0  0  0  0  0  0  0
    1.4745    0.5539    0.4099 C   0  0  0  0  0  0  0  0  0  0  0  0
    0.3790    1.3467    0.2679 C   0  0  0  0  0  0  0  0  0  0  0  0
   -0.8665    0.7513    0.1289 C   0  0  0  0  0  0  0  0  0  0  0  0
   -1.9728    1.5318   -0.0148 C   0  0  0  0  0  0  0  0  0  0  0  0
   -3.1858    0.9763   -0.1511 N   0  0  0  0  0  0  0  0  0  0  0  0
   -3.3965   -0.3513   -0.1562 C   0  0  0  0  0  0  0  0  0  0  0  0
   -4.7120   -0.9175   -0.3050 N   0  0  0  0  0  0  0  0  0  0  0  0
   -5.8843   -0.1155   -0.4554 C   0  0  0  0  0  0  0  0  0  0  0  0
   -7.0932   -1.0229   -0.6048 C   0  0  0  0  0  0  0  0  0  0  0  0
   -8.2838   -0.1884   -1.0205 C   0  0  0  0  0  0  0  0  0  0  0  0
   -8.1860    1.1690   -0.5213 N   0  0  0  0  0  0  0  0  0  0  0  0
   -7.5919    1.2179    0.7999 C   0  0  0  0  0  0  0  0  0  0  0  0
   -6.1637    0.7058    0.8113 C   0  0  0  0  0  0  0  0  0  0  0  0
   -2.2874   -1.1568   -0.0118 C   0  0  0  0  0  0  0  0  0  0  0  0
   -1.0109   -0.6280    0.1324 C   0  0  0  0  0  0  0  0  0  0  0  0
    0.1108   -1.4137    0.2774 C   0  0  0  0  0  0  0  0  0  0  0  0
    4.9535   -1.6284    0.4983 C   0  0  0  0  0  0  0  0  0  0  0  0
    5.9209   -0.4421    0.5358 C   0  0  0  0  0  0  0  0  0  0  0  0
    8.7740    1.3304    1.3153 H   0  0  0  0  0  0  0  0  0  0  0  0
    6.6817    2.8908    0.4273 H   0  0  0  0  0  0  0  0  0  0  0  0
    8.2906    2.5694   -0.3121 H   0  0  0  0  0  0  0  0  0  0  0  0
    6.4816    1.8283   -1.8058 H   0  0  0  0  0  0  0  0  0  0  0  0
    7.5293    0.4772   -1.2926 H   0  0  0  0  0  0  0  0  0  0  0  0
    4.8481    0.6196   -2.4322 H   0  0  0  0  0  0  0  0  0  0  0  0
    5.7831   -0.8940   -2.0574 H   0  0  0  0  0  0  0  0  0  0  0  0
    3.7251   -1.7852   -1.9013 H   0  0  0  0  0  0  0  0  0  0  0  0
    2.8768   -0.1924   -1.7031 H   0  0  0  0  0  0  0  0  0  0  0  0
    2.6308   -1.9772    1.6414 H   0  0  0  0  0  0  0  0  0  0  0  0
    2.3070   -2.7028    0.0608 H   0  0  0  0  0  0  0  0  0  0  0  0
    2.4466    1.0210    0.5187 H   0  0  0  0  0  0  0  0  0  0  0  0
    0.4941    2.4208    0.2656 H   0  0  0  0  0  0  0  0  0  0  0  0
   -1.8642    2.5993   -0.0177 H   0  0  0  0  0  0  0  0  0  0  0  0
   -4.7874   -1.9576   -0.2993 H   0  0  0  0  0  0  0  0  0  0  0  0
   -5.8436    0.5604   -1.3479 H   0  0  0  0  0  0  0  0  0  0  0  0
   -7.3151   -1.4281    0.4028 H   0  0  0  0  0  0  0  0  0  0  0  0
   -6.9282   -1.8167   -1.3536 H   0  0  0  0  0  0  0  0  0  0  0  0
   -8.2943   -0.1344   -2.1277 H   0  0  0  0  0  0  0  0  0  0  0  0
   -9.2062   -0.7042   -0.7156 H   0  0  0  0  0  0  0  0  0  0  0  0
   -7.7040    1.8026   -1.1968 H   0  0  0  0  0  0  0  0  0  0  0  0
   -7.6191    2.2728    1.1260 H   0  0  0  0  0  0  0  0  0  0  0  0
   -8.2529    0.6503    1.4861 H   0  0  0  0  0  0  0  0  0  0  0  0
   -5.4943    1.5647    0.8542 H   0  0  0  0  0  0  0  0  0  0  0  0
   -6.0884    0.0060    1.6595 H   0  0  0  0  0  0  0  0  0  0  0  0
   -2.3954   -2.2222   -0.0080 H   0  0  0  0  0  0  0  0  0  0  0  0
   -0.0189   -2.4840    0.2777 H   0  0  0  0  0  0  0  0  0  0  0  0
    4.8489   -2.0961    1.4846 H   0  0  0  0  0  0  0  0  0  0  0  0
    5.3234   -2.3529   -0.2383 H   0  0  0  0  0  0  0  0  0  0  0  0
    5.7429    0.0394    1.5131 H   0  0  0  0  0  0  0  0  0  0  0  0
    6.9424   -0.8028    0.4898 H   0  0  0  0  0  0  0  0  0  0  0  0
  1  2  1  0
  2  3  1  0
  3  4  1  0
  4  5  1  0
  5  6  1  0
  6  7  1  0
  7  8  1  0
  8  9  1  0
  9 10  2  0
 10 11  1  0
 11 12  2  0
 12 13  1  0
 13 14  2  0
 14 15  1  0
 15 16  1  0
 16 17  1  0
 17 18  1  0
 18 19  1  0
 19 20  1  0
 20 21  1  0
 21 22  1  0
 15 23  2  0
 23 24  1  0
 24 25  2  0
  7 26  1  0
 26 27  1  0
 27  4  1  0
 25  9  1  0
 24 12  1  0
 22 17  1  0
  1 28  1  0
  2 29  1  0
  2 30  1  0
  3 31  1  0
  3 32  1  0
  5 33  1  0
  5 34  1  0
  6 35  1  0
  6 36  1  0
  8 37  1  0
  8 38  1  0
 10 39  1  0
 11 40  1  0
 13 41  1  0
 16 42  1  0
 17 43  1  0
 18 44  1  0
 18 45  1  0
 19 46  1  0
 19 47  1  0
 20 48  1  0
 21 49  1  0
 21 50  1  0
 22 51  1  0
 22 52  1  0
 23 53  1  0
 25 54  1  0
 26 55  1  0
 26 56  1  0
 27 57  1  0
 27 58  1  0
M  END
$$$$
[H]c1nc2c([H])c(OC([H])([H])C([H])([H])C([H])([H])N3C([H])([H])C([H])([H])OC([H])([H])C3([H])[H])c(OC([H])([H])[H])c([H])c2c(Oc2c([H])c([H])c(N([H])C(=S)N([H])c3c([H])c([H])c(C(F)(F)F)c([H])c3[H])c([H])c2F)c1[H]
     RDKit          3D

 74 78  0  0  0  0  0  0  0  0999 V2000
   -1.5854    0.2430    2.7738 C   0  0  0  0  0  0  0  0  0  0  0  0
   -2.5070    0.0440    1.7562 O   0  0  0  0  0  0  0  0  0  0  0  0
   -2.2310    0.1000    0.3915 C   0  0  0  0  0  0  0  0  0  0  0  0
   -0.9768    0.3696   -0.1306 C   0  0  0  0  0  0  0  0  0  0  0  0
   -0.7449    0.4206   -1.4865 C   0  0  0  0  0  0  0  0  0  0  0  0
    0.5062    0.7147   -2.0054 C   0  0  0  0  0  0  0  0  0  0  0  0
    1.5911    0.9492   -1.2966 O   0  0  0  0  0  0  0  0  0  0  0  0
    2.5115    0.5250   -0.4631 C   0  0  0  0  0  0  0  0  0  0  0  0
    2.7528    1.0800    0.7645 C   0  0  0  0  0  0  0  0  0  0  0  0
    3.7551    0.5663    1.5545 C   0  0  0  0  0  0  0  0  0  0  0  0
    4.5464   -0.4827    1.2023 C   0  0  0  0  0  0  0  0  0  0  0  0
    5.5765   -1.0618    1.9983 N   0  0  0  0  0  0  0  0  0  0  0  0
    6.9454   -0.9228    1.5518 C   0  0  0  0  0  0  0  0  0  0  0  0
    8.0560   -1.5708    2.5041 S   0  0  0  0  0  0  0  0  0  0  0  0
    7.3022   -0.2269    0.3783 N   0  0  0  0  0  0  0  0  0  0  0  0
    8.6442   -0.1438   -0.0289 C   0  0  0  0  0  0  0  0  0  0  0  0
    9.1500    1.0884   -0.4698 C   0  0  0  0  0  0  0  0  0  0  0  0
   10.4273    1.2494   -0.9048 C   0  0  0  0  0  0  0  0  0  0  0  0
   11.3004    0.1769   -0.9269 C   0  0  0  0  0  0  0  0  0  0  0  0
   10.8291   -1.0316   -0.5007 C   0  0  0  0  0  0  0  0  0  0  0  0
    9.5184   -1.2178   -0.0550 C   0  0  0  0  0  0  0  0  0  0  0  0
   12.6910    0.3662   -1.3955 C   0  0  0  0  0  0  0  0  0  0  0  0
   13.0998   -0.6513   -2.2292 F   0  0  0  0  0  0  0  0  0  0  0  0
   13.4979    0.4627   -0.2519 F   0  0  0  0  0  0  0  0  0  0  0  0
   12.8110    1.5895   -2.0673 F   0  0  0  0  0  0  0  0  0  0  0  0
    4.3210   -1.0747   -0.0522 C   0  0  0  0  0  0  0  0  0  0  0  0
    3.3321   -0.5654   -0.8297 C   0  0  0  0  0  0  0  0  0  0  0  0
    3.1178   -1.1772   -2.0390 F   0  0  0  0  0  0  0  0  0  0  0  0
    0.6566    0.7768   -3.4277 C   0  0  0  0  0  0  0  0  0  0  0  0
   -0.4483    0.5390   -4.1888 C   0  0  0  0  0  0  0  0  0  0  0  0
   -1.6486    0.2543   -3.6491 N   0  0  0  0  0  0  0  0  0  0  0  0
   -1.8122    0.1902   -2.3093 C   0  0  0  0  0  0  0  0  0  0  0  0
   -3.0700   -0.0760   -1.7598 C   0  0  0  0  0  0  0  0  0  0  0  0
   -3.3228   -0.1342   -0.4251 C   0  0  0  0  0  0  0  0  0  0  0  0
   -4.6008   -0.4036    0.0756 O   0  0  0  0  0  0  0  0  0  0  0  0
   -5.6152   -0.6054   -0.8600 C   0  0  0  0  0  0  0  0  0  0  0  0
   -6.9788   -0.8612   -0.3109 C   0  0  0  0  0  0  0  0  0  0  0  0
   -7.3863    0.3462    0.4945 C   0  0  0  0  0  0  0  0  0  0  0  0
   -8.6798    0.2676    1.0855 N   0  0  0  0  0  0  0  0  0  0  0  0
   -9.7721    0.2818    0.1799 C   0  0  0  0  0  0  0  0  0  0  0  0
  -10.9681    0.8935    0.8998 C   0  0  0  0  0  0  0  0  0  0  0  0
  -11.0232    0.4706    2.2180 O   0  0  0  0  0  0  0  0  0  0  0  0
  -10.4061   -0.7954    2.3609 C   0  0  0  0  0  0  0  0  0  0  0  0
   -8.8806   -0.6521    2.1528 C   0  0  0  0  0  0  0  0  0  0  0  0
   -2.0924    0.6356    3.7167 H   0  0  0  0  0  0  0  0  0  0  0  0
   -0.7890    0.9535    2.4549 H   0  0  0  0  0  0  0  0  0  0  0  0
   -1.1645   -0.7391    3.0808 H   0  0  0  0  0  0  0  0  0  0  0  0
   -0.1552    0.5411    0.5311 H   0  0  0  0  0  0  0  0  0  0  0  0
    2.1717    1.9259    1.1549 H   0  0  0  0  0  0  0  0  0  0  0  0
    3.9504    1.0089    2.5425 H   0  0  0  0  0  0  0  0  0  0  0  0
    5.3433   -1.5704    2.8720 H   0  0  0  0  0  0  0  0  0  0  0  0
    6.5645    0.2418   -0.2331 H   0  0  0  0  0  0  0  0  0  0  0  0
    8.4473    1.9114   -0.4400 H   0  0  0  0  0  0  0  0  0  0  0  0
   10.8131    2.2062   -1.2481 H   0  0  0  0  0  0  0  0  0  0  0  0
   11.4884   -1.8943   -0.5171 H   0  0  0  0  0  0  0  0  0  0  0  0
    9.1889   -2.1913    0.2568 H   0  0  0  0  0  0  0  0  0  0  0  0
    4.9322   -1.9235   -0.3712 H   0  0  0  0  0  0  0  0  0  0  0  0
    1.6313    0.9972   -3.8331 H   0  0  0  0  0  0  0  0  0  0  0  0
   -0.3286    0.5958   -5.2882 H   0  0  0  0  0  0  0  0  0  0  0  0
   -3.8961   -0.2377   -2.4837 H   0  0  0  0  0  0  0  0  0  0  0  0
   -5.6075    0.2941   -1.5251 H   0  0  0  0  0  0  0  0  0  0  0  0
   -5.3681   -1.4714   -1.5374 H   0  0  0  0  0  0  0  0  0  0  0  0
   -7.0218   -1.7880    0.2463 H   0  0  0  0  0  0  0  0  0  0  0  0
   -7.7433   -0.9447   -1.1214 H   0  0  0  0  0  0  0  0  0  0  0  0
   -6.6591    0.5476    1.2802 H   0  0  0  0  0  0  0  0  0  0  0  0
   -7.3916    1.2396   -0.1740 H   0  0  0  0  0  0  0  0  0  0  0  0
  -10.0019   -0.7550   -0.1600 H   0  0  0  0  0  0  0  0  0  0  0  0
   -9.5082    0.8798   -0.7636 H   0  0  0  0  0  0  0  0  0  0  0  0
  -10.8159    1.9694    0.8836 H   0  0  0  0  0  0  0  0  0  0  0  0
  -11.8953    0.6236    0.3379 H   0  0  0  0  0  0  0  0  0  0  0  0
  -10.8622   -1.4422    1.5956 H   0  0  0  0  0  0  0  0  0  0  0  0
  -10.6015   -1.0834    3.4016 H   0  0  0  0  0  0  0  0  0  0  0  0
   -8.4109   -0.3073    3.0919 H   0  0  0  0  0  0  0  0  0  0  0  0
   -8.4994   -1.6714    1.9708 H   0  0  0  0  0  0  0  0  0  0  0  0
  1  2  1  0
  2  3  1  0
  3  4  2  0
  4  5  1  0
  5  6  2  0
  6  7  1  0
  7  8  1  0
  8  9  2  0
  9 10  1  0
 10 11  2  0
 11 12  1  0
 12 13  1  0
 13 14  2  0
 13 15  1  0
 15 16  1  0
 16 17  2  0
 17 18  1  0
 18 19  2  0
 19 20  1  0
 20 21  2  0
 19 22  1  0
 22 23  1  0
 22 24  1  0
 22 25  1  0
 11 26  1  0
 26 27  2  0
 27 28  1  0
  6 29  1  0
 29 30  2  0
 30 31  1  0
 31 32  2  0
 32 33  1  0
 33 34  2  0
 34 35  1  0
 35 36  1  0
 36 37  1  0
 37 38  1  0
 38 39  1  0
 39 40  1  0
 40 41  1  0
 41 42  1  0
 42 43  1  0
 43 44  1  0
 34  3  1  0
 44 39  1  0
 32  5  1  0
 27  8  1  0
 21 16  1  0
  1 45  1  0
  1 46  1  0
  1 47  1  0
  4 48  1  0
  9 49  1  0
 10 50  1  0
 12 51  1  0
 15 52  1  0
 17 53  1  0
 18 54  1  0
 20 55  1  0
 21 56  1  0
 26 57  1  0
 29 58  1  0
 30 59  1  0
 33 60  1  0
 36 61  1  0
 36 62  1  0
 37 63  1  0
 37 64  1  0
 38 65  1  0
 38 66  1  0
 40 67  1  0
 40 68  1  0
 41 69  1  0
 41 70  1  0
 43 71  1  0
 43 72  1  0
 44 73  1  0
 44 74  1  0
M  END
$$$$
[H]OC([H])([H])C([H])([H])C#CC([H])([H])C([H])([H])Oc1c([H])c([H])c(C#Cc2c([H])c([H])c(OC([H])([H])C([H])([H])F)c([H])c2[H])c([H])c1[H]
     RDKit          3D

 47 48  0  0  0  0  0  0  0  0999 V2000
    9.2587    1.3677   -2.2402 F   0  0  0  0  0  0  0  0  0  0  0  0
    9.2010    1.6363   -0.8730 C   0  0  0  0  0  0  0  0  0  0  0  0
    9.2699    0.3093   -0.1727 C   0  0  0  0  0  0  0  0  0  0  0  0
    8.2810   -0.5970   -0.4586 O   0  0  0  0  0  0  0  0  0  0  0  0
    6.9425   -0.6071   -0.2774 C   0  0  0  0  0  0  0  0  0  0  0  0
    6.2778    0.4265    0.3251 C   0  0  0  0  0  0  0  0  0  0  0  0
    4.8829    0.3587    0.4820 C   0  0  0  0  0  0  0  0  0  0  0  0
    4.1410   -0.7162    0.0518 C   0  0  0  0  0  0  0  0  0  0  0  0
    4.8112   -1.7578   -0.5547 C   0  0  0  0  0  0  0  0  0  0  0  0
    6.1731   -1.7004   -0.7126 C   0  0  0  0  0  0  0  0  0  0  0  0
    2.7175   -0.7971    0.2060 C   0  0  0  0  0  0  0  0  0  0  0  0
    1.5184   -0.8566    0.3180 C   0  0  0  0  0  0  0  0  0  0  0  0
    0.0931   -0.9067    0.4609 C   0  0  0  0  0  0  0  0  0  0  0  0
   -0.6329   -1.5250   -0.5347 C   0  0  0  0  0  0  0  0  0  0  0  0
   -2.0142   -1.5924   -0.4301 C   0  0  0  0  0  0  0  0  0  0  0  0
   -2.7110   -1.0598    0.6437 C   0  0  0  0  0  0  0  0  0  0  0  0
   -4.1000   -1.1614    0.6877 O   0  0  0  0  0  0  0  0  0  0  0  0
   -4.7471   -0.5998    1.8056 C   0  0  0  0  0  0  0  0  0  0  0  0
   -6.2481   -0.7809    1.7248 C   0  0  0  0  0  0  0  0  0  0  0  0
   -6.8161   -0.1454    0.5349 C   0  0  0  0  0  0  0  0  0  0  0  0
   -7.3019    0.3812   -0.4349 C   0  0  0  0  0  0  0  0  0  0  0  0
   -7.9140    1.0190   -1.6002 C   0  0  0  0  0  0  0  0  0  0  0  0
   -8.9155    2.0924   -1.1608 C   0  0  0  0  0  0  0  0  0  0  0  0
   -9.5001    2.7018   -2.2507 O   0  0  0  0  0  0  0  0  0  0  0  0
   -1.9716   -0.4448    1.6309 C   0  0  0  0  0  0  0  0  0  0  0  0
   -0.6027   -0.3785    1.5265 C   0  0  0  0  0  0  0  0  0  0  0  0
    8.3470    2.2387   -0.5956 H   0  0  0  0  0  0  0  0  0  0  0  0
   10.1386    2.2392   -0.6617 H   0  0  0  0  0  0  0  0  0  0  0  0
   10.2542   -0.1992   -0.3586 H   0  0  0  0  0  0  0  0  0  0  0  0
    9.2167    0.5711    0.9365 H   0  0  0  0  0  0  0  0  0  0  0  0
    6.7392    1.3153    0.7188 H   0  0  0  0  0  0  0  0  0  0  0  0
    4.3391    1.1778    0.9613 H   0  0  0  0  0  0  0  0  0  0  0  0
    4.2141   -2.6032   -0.8910 H   0  0  0  0  0  0  0  0  0  0  0  0
    6.6871   -2.5383   -1.1971 H   0  0  0  0  0  0  0  0  0  0  0  0
   -0.1743   -1.9692   -1.4100 H   0  0  0  0  0  0  0  0  0  0  0  0
   -2.5968   -2.0853   -1.2230 H   0  0  0  0  0  0  0  0  0  0  0  0
   -4.4240   -1.0378    2.7645 H   0  0  0  0  0  0  0  0  0  0  0  0
   -4.5552    0.5005    1.7766 H   0  0  0  0  0  0  0  0  0  0  0  0
   -6.5145   -1.8605    1.6758 H   0  0  0  0  0  0  0  0  0  0  0  0
   -6.6649   -0.3092    2.6619 H   0  0  0  0  0  0  0  0  0  0  0  0
   -8.4236    0.2463   -2.2066 H   0  0  0  0  0  0  0  0  0  0  0  0
   -7.1452    1.4974   -2.2308 H   0  0  0  0  0  0  0  0  0  0  0  0
   -9.6402    1.6789   -0.4405 H   0  0  0  0  0  0  0  0  0  0  0  0
   -8.3095    2.8713   -0.6143 H   0  0  0  0  0  0  0  0  0  0  0  0
   -9.0267    3.5210   -2.5530 H   0  0  0  0  0  0  0  0  0  0  0  0
   -2.5106   -0.0287    2.4689 H   0  0  0  0  0  0  0  0  0  0  0  0
   -0.0434    0.1081    2.3118 H   0  0  0  0  0  0  0  0  0  0  0  0
  1  2  1  0
  2  3  1  0
  3  4  1  0
  4  5  1  0
  5  6  2  0
  6  7  1  0
  7  8  2  0
  8  9  1  0
  9 10  2  0
  8 11  1  0
 11 12  3  0
 12 13  1  0
 13 14  2  0
 14 15  1  0
 15 16  2  0
 16 17  1  0
 17 18  1  0
 18 19  1  0
 19 20  1  0
 20 21  3  0
 21 22  1  0
 22 23  1  0
 23 24  1  0
 16 25  1  0
 25 26  2  0
 10  5  1  0
 26 13  1  0
  2 27  1  0
  2 28  1  0
  3 29  1  0
  3 30  1  0
  6 31  1  0
  7 32  1  0
  9 33  1  0
 10 34  1  0
 14 35  1  0
 15 36  1  0
 18 37  1  0
 18 38  1  0
 19 39  1  0
 19 40  1  0
 22 41  1  0
 22 42  1  0
 23 43  1  0
 23 44  1  0
 24 45  1  0
 25 46  1  0
 26 47  1  0
M  END
$$$$
[H]c1c(N([H])[H])c([H])c2c(C(=O)OC3([H])C4([H])C([H])([H])C5([H])C([H])([H])C([H])(C4([H])[H])C([H])([H])C3([H])C5([H])[H])[n+](OC([H])(C([H])([H])[H])C([H])([H])[H])c(C([H])([H])[H])nc2c1[H]
     RDKit          3D

 59 63  0  0  0  0  0  0  0  0999 V2000
   -0.9163   -2.6402   -1.9220 C   0  0  0  0  0  0  0  0  0  0  0  0
   -1.8466   -1.5907   -1.4211 C   0  0  0  0  0  0  0  0  0  0  0  0
   -3.2234   -1.9598   -2.0343 C   0  0  0  0  0  0  0  0  0  0  0  0
   -1.9302   -1.4806   -0.0063 O   0  0  0  0  0  0  0  0  0  0  0  0
   -2.4789   -0.3388    0.5734 N   0  0  0  0  0  0  0  0  0  0  0  0
   -3.7427   -0.4876    1.0200 C   0  0  0  0  0  0  0  0  0  0  0  0
   -4.3454   -1.8498    1.0424 C   0  0  0  0  0  0  0  0  0  0  0  0
   -4.4087    0.5733    1.4780 N   0  0  0  0  0  0  0  0  0  0  0  0
   -3.8282    1.7897    1.4991 C   0  0  0  0  0  0  0  0  0  0  0  0
   -4.5237    2.8779    1.9735 C   0  0  0  0  0  0  0  0  0  0  0  0
   -3.9398    4.1041    1.9985 C   0  0  0  0  0  0  0  0  0  0  0  0
   -2.6575    4.3220    1.5637 C   0  0  0  0  0  0  0  0  0  0  0  0
   -2.0418    5.6041    1.5880 N   0  0  0  0  0  0  0  0  0  0  0  0
   -1.9583    3.1942    1.0800 C   0  0  0  0  0  0  0  0  0  0  0  0
   -2.5233    1.9452    1.0434 C   0  0  0  0  0  0  0  0  0  0  0  0
   -1.8017    0.8327    0.5565 C   0  0  0  0  0  0  0  0  0  0  0  0
   -0.4089    0.9222    0.2339 C   0  0  0  0  0  0  0  0  0  0  0  0
    0.1709    2.0129    0.0687 O   0  0  0  0  0  0  0  0  0  0  0  0
    0.4690   -0.1721    0.0795 O   0  0  0  0  0  0  0  0  0  0  0  0
    1.8313    0.0199   -0.2158 C   0  0  0  0  0  0  0  0  0  0  0  0
    2.3821   -0.6404   -1.4139 C   0  0  0  0  0  0  0  0  0  0  0  0
    3.6697    0.1508   -1.7561 C   0  0  0  0  0  0  0  0  0  0  0  0
    4.6071    0.0955   -0.5858 C   0  0  0  0  0  0  0  0  0  0  0  0
    5.0642   -1.3407   -0.4030 C   0  0  0  0  0  0  0  0  0  0  0  0
    3.8528   -2.1665   -0.1205 C   0  0  0  0  0  0  0  0  0  0  0  0
    2.8343   -2.0613   -1.2543 C   0  0  0  0  0  0  0  0  0  0  0  0
    3.1257   -1.7047    1.1066 C   0  0  0  0  0  0  0  0  0  0  0  0
    2.7364   -0.2729    0.9941 C   0  0  0  0  0  0  0  0  0  0  0  0
    4.0189    0.5313    0.7177 C   0  0  0  0  0  0  0  0  0  0  0  0
   -1.4842   -3.4531   -2.4081 H   0  0  0  0  0  0  0  0  0  0  0  0
   -0.3054   -3.1039   -1.1134 H   0  0  0  0  0  0  0  0  0  0  0  0
   -0.2683   -2.1900   -2.7069 H   0  0  0  0  0  0  0  0  0  0  0  0
   -1.6233   -0.5956   -1.8479 H   0  0  0  0  0  0  0  0  0  0  0  0
   -2.9732   -2.0414   -3.1390 H   0  0  0  0  0  0  0  0  0  0  0  0
   -3.9461   -1.1605   -1.9555 H   0  0  0  0  0  0  0  0  0  0  0  0
   -3.5275   -2.9541   -1.7393 H   0  0  0  0  0  0  0  0  0  0  0  0
   -4.7741   -1.9406    2.0906 H   0  0  0  0  0  0  0  0  0  0  0  0
   -5.1987   -1.9850    0.3847 H   0  0  0  0  0  0  0  0  0  0  0  0
   -3.6133   -2.6624    0.9853 H   0  0  0  0  0  0  0  0  0  0  0  0
   -5.5397    2.6901    2.3150 H   0  0  0  0  0  0  0  0  0  0  0  0
   -4.5052    4.9447    2.3755 H   0  0  0  0  0  0  0  0  0  0  0  0
   -1.4362    5.9535    0.8374 H   0  0  0  0  0  0  0  0  0  0  0  0
   -2.2123    6.2350    2.4188 H   0  0  0  0  0  0  0  0  0  0  0  0
   -0.9561    3.4098    0.7502 H   0  0  0  0  0  0  0  0  0  0  0  0
    2.0048    1.1402   -0.3477 H   0  0  0  0  0  0  0  0  0  0  0  0
    1.6939   -0.5858   -2.2666 H   0  0  0  0  0  0  0  0  0  0  0  0
    3.3121    1.1807   -1.9583 H   0  0  0  0  0  0  0  0  0  0  0  0
    4.1606   -0.3038   -2.6154 H   0  0  0  0  0  0  0  0  0  0  0  0
    5.4725    0.7504   -0.8013 H   0  0  0  0  0  0  0  0  0  0  0  0
    5.7266   -1.3882    0.4794 H   0  0  0  0  0  0  0  0  0  0  0  0
    5.5583   -1.6431   -1.3256 H   0  0  0  0  0  0  0  0  0  0  0  0
    4.1710   -3.2219   -0.0265 H   0  0  0  0  0  0  0  0  0  0  0  0
    3.3827   -2.3386   -2.1803 H   0  0  0  0  0  0  0  0  0  0  0  0
    2.0567   -2.7823   -1.0222 H   0  0  0  0  0  0  0  0  0  0  0  0
    3.7524   -1.8221    1.9878 H   0  0  0  0  0  0  0  0  0  0  0  0
    2.1847   -2.3245    1.1672 H   0  0  0  0  0  0  0  0  0  0  0  0
    2.2450    0.0472    1.9121 H   0  0  0  0  0  0  0  0  0  0  0  0
    3.7417    1.6066    0.7472 H   0  0  0  0  0  0  0  0  0  0  0  0
    4.7139    0.2693    1.5190 H   0  0  0  0  0  0  0  0  0  0  0  0
  1  2  1  0
  2  3  1  0
  2  4  1  0
  4  5  1  0
  5  6  2  0
  6  7  1  0
  6  8  1  0
  8  9  2  0
  9 10  1  0
 10 11  2  0
 11 12  1  0
 12 13  1  0
 12 14  2  0
 14 15  1  0
 15 16  2  0
 16 17  1  0
 17 18  2  0
 17 19  1  0
 19 20  1  0
 20 21  1  0
 21 22  1  0
 22 23  1  0
 23 24  1  0
 24 25  1  0
 25 26  1  0
 25 27  1  0
 27 28  1  0
 28 29  1  0
 16  5  1  0
 28 20  1  0
 15  9  1  0
 26 21  1  0
 29 23  1  0
  1 30  1  0
  1 31  1  0
  1 32  1  0
  2 33  1  0
  3 34  1  0
  3 35  1  0
  3 36  1  0
  7 37  1  0
  7 38  1  0
  7 39  1  0
 10 40  1  0
 11 41  1  0
 13 42  1  0
 13 43  1  0
 14 44  1  0
 20 45  1  0
 21 46  1  0
 22 47  1  0
 22 48  1  0
 23 49  1  0
 24 50  1  0
 24 51  1  0
 25 52  1  0
 26 53  1  0
 26 54  1  0
 27 55  1  0
 27 56  1  0
 28 57  1  0
 29 58  1  0
 29 59  1  0
M  CHG  1   5   1
M  END
$$$$
[H]c1c([H])c([H])c(C([H])([H])N([H])[C@]2([H])C([H])([H])[C@@]3(OC([H])([H])[H])C(=O)c4c([H])c([H])c([H])c(c4[H])C([H])([H])[C@]32[H])c([H])c1[H]
     RDKit          2D

 44 47  0  0  0  0  0  0  0  0999 V2000
    2.5908   -0.8665    0.0000 C   0  0  0  0  0  0  0  0  0  0  0  0
    1.3515   -1.7115    0.0000 O   0  0  0  0  0  0  0  0  0  0  0  0
   -0.0000   -1.0607    0.0000 C   0  0  0  0  0  0  0  0  0  0  0  0
    1.0607    0.0000    0.0000 C   0  0  0  0  0  0  0  0  0  0  0  0
    0.0000    1.0607    0.0000 C   0  0  0  0  0  0  0  0  0  0  0  0
   -1.0607    2.1213    0.0000 N   0  0  0  0  0  0  0  0  0  0  0  0
   -0.6724    3.5702    0.0000 C   0  0  0  0  0  0  0  0  0  0  0  0
   -0.2842    5.0191    0.0000 C   0  0  0  0  0  0  0  0  0  0  0  0
    1.1647    5.4073    0.0000 C   0  0  0  0  0  0  0  0  0  0  0  0
    1.5529    6.8562    0.0000 C   0  0  0  0  0  0  0  0  0  0  0  0
    0.4923    7.9169    0.0000 C   0  0  0  0  0  0  0  0  0  0  0  0
   -0.9566    7.5286    0.0000 C   0  0  0  0  0  0  0  0  0  0  0  0
   -1.3449    6.0798    0.0000 C   0  0  0  0  0  0  0  0  0  0  0  0
   -1.0607    0.0000    0.0000 C   0  0  0  0  0  0  0  0  0  0  0  0
   -2.5512   -0.1679    0.0000 C   0  0  0  0  0  0  0  0  0  0  0  0
   -3.3493   -1.4380    0.0000 C   0  0  0  0  0  0  0  0  0  0  0  0
   -4.3358   -2.5728    0.0000 C   0  0  0  0  0  0  0  0  0  0  0  0
   -3.9476   -4.0217    0.0000 C   0  0  0  0  0  0  0  0  0  0  0  0
   -2.4987   -4.4099    0.0000 C   0  0  0  0  0  0  0  0  0  0  0  0
   -1.4380   -3.3493    0.0000 C   0  0  0  0  0  0  0  0  0  0  0  0
   -0.1679   -2.5512    0.0000 C   0  0  0  0  0  0  0  0  0  0  0  0
    1.1021   -3.3493    0.0000 O   0  0  0  0  0  0  0  0  0  0  0  0
   -2.8539   -2.8539    0.0000 C   0  0  0  0  0  0  0  0  0  0  0  0
    3.8302   -0.0215    0.0000 H   0  0  0  0  0  0  0  0  0  0  0  0
    3.4358   -2.1059    0.0000 H   0  0  0  0  0  0  0  0  0  0  0  0
    2.3873   -0.0045    0.0000 H   0  0  0  0  0  0  0  0  0  0  0  0
    1.6665    0.7755    0.0000 H   0  0  0  0  0  0  0  0  0  0  0  0
    1.7440   -0.4105    0.0000 H   0  0  0  0  0  0  0  0  0  0  0  0
    1.0607    2.1213    0.0000 H   0  0  0  0  0  0  0  0  0  0  0  0
   -2.5604    2.0952    0.0000 H   0  0  0  0  0  0  0  0  0  0  0  0
    0.7765    3.1820    0.0000 H   0  0  0  0  0  0  0  0  0  0  0  0
   -2.1213    3.9584    0.0000 H   0  0  0  0  0  0  0  0  0  0  0  0
    2.2253    4.3467    0.0000 H   0  0  0  0  0  0  0  0  0  0  0  0
    3.0018    7.2444    0.0000 H   0  0  0  0  0  0  0  0  0  0  0  0
    0.8805    9.3658    0.0000 H   0  0  0  0  0  0  0  0  0  0  0  0
   -2.0173    8.5893    0.0000 H   0  0  0  0  0  0  0  0  0  0  0  0
   -2.7938    5.6915    0.0000 H   0  0  0  0  0  0  0  0  0  0  0  0
   -1.7115    1.3515    0.0000 H   0  0  0  0  0  0  0  0  0  0  0  0
   -2.7490    1.3190    0.0000 H   0  0  0  0  0  0  0  0  0  0  0  0
   -3.9671    0.3275    0.0000 H   0  0  0  0  0  0  0  0  0  0  0  0
   -5.7847   -2.1846    0.0000 H   0  0  0  0  0  0  0  0  0  0  0  0
   -5.0082   -5.0824    0.0000 H   0  0  0  0  0  0  0  0  0  0  0  0
   -2.1105   -5.8588    0.0000 H   0  0  0  0  0  0  0  0  0  0  0  0
   -3.6263   -4.1397    0.0000 H   0  0  0  0  0  0  0  0  0  0  0  0
  1  2  1  0
  3  2  1  6
  3  4  1  0
  4  5  1  0
  5  6  1  0
  6  7  1  0
  7  8  1  0
  8  9  2  0
  9 10  1  0
 10 11  2  0
 11 12  1  0
 12 13  2  0
  5 14  1  0
 14 15  1  0
 15 16  1  0
 16 17  1  0
 17 18  2  0
 18 19  1  0
 19 20  2  0
 20 21  1  0
 21 22  2  0
 20 23  1  0
 14  3  1  0
 23 16  2  0
 21  3  1  0
 13  8  1  0
  1 24  1  0
  1 25  1  0
  1 26  1  0
  4 27  1  0
  4 28  1  0
  5 29  1  1
  6 30  1  0
  7 31  1  0
  7 32  1  0
  9 33  1  0
 10 34  1  0
 11 35  1  0
 12 36  1  0
 13 37  1  0
 14 38  1  6
 15 39  1  0
 15 40  1  0
 17 41  1  0
 18 42  1  0
 19 43  1  0
 23 44  1  0
M  END
$$$$
