[H]OC([H])([H])[C@@]1([H])O[C@@]([H])(c2c([H])c([H])c([H])c([H])c2[H])[C@]([H])(O[H])[C@@]([H])(O[H])[C@]1([H])O[H]
     RDKit          3D

 33 34  0  0  0  0  0  0  0  0999 V2000
   -3.7296   -1.6265    1.1618 O   0  0  0  0  0  0  0  0  0  0  0  0
   -2.5128   -1.8519    0.5649 C   0  0  0  0  0  0  0  0  0  0  0  0
   -1.6359   -0.6033    0.7189 C   0  0  1  0  0  0  0  0  0  0  0  0
   -0.4410   -0.8759    0.1115 O   0  0  0  0  0  0  0  0  0  0  0  0
    0.4162    0.2276    0.1069 C   0  0  2  0  0  0  0  0  0  0  0  0
   -0.1805    1.3152   -0.6824 C   0  0  2  0  0  0  0  0  0  0  0  0
    0.6324    2.4465   -0.8289 O   0  0  0  0  0  0  0  0  0  0  0  0
   -1.4720    1.7370    0.0524 C   0  0  1  0  0  0  0  0  0  0  0  0
   -2.0325    2.8545   -0.5135 O   0  0  0  0  0  0  0  0  0  0  0  0
   -2.3801    0.5390    0.0448 C   0  0  2  0  0  0  0  0  0  0  0  0
   -3.5450    0.7417    0.7565 O   0  0  0  0  0  0  0  0  0  0  0  0
    1.8011   -0.1594   -0.1652 C   0  0  0  0  0  0  0  0  0  0  0  0
    2.6570    0.3287   -1.0874 C   0  0  0  0  0  0  0  0  0  0  0  0
    3.9649   -0.1693   -1.1853 C   0  0  0  0  0  0  0  0  0  0  0  0
    4.4298   -1.1614   -0.3615 C   0  0  0  0  0  0  0  0  0  0  0  0
    3.5648   -1.6585    0.5738 C   0  0  0  0  0  0  0  0  0  0  0  0
    2.2960   -1.1767    0.6705 C   0  0  0  0  0  0  0  0  0  0  0  0
   -4.2683   -2.4665    1.0528 H   0  0  0  0  0  0  0  0  0  0  0  0
   -1.9869   -2.7176    1.0434 H   0  0  0  0  0  0  0  0  0  0  0  0
   -2.5828   -2.0317   -0.5324 H   0  0  0  0  0  0  0  0  0  0  0  0
   -1.5223   -0.3669    1.7992 H   0  0  0  0  0  0  0  0  0  0  0  0
    0.4131    0.5796    1.1902 H   0  0  0  0  0  0  0  0  0  0  0  0
   -0.5282    0.9194   -1.6597 H   0  0  0  0  0  0  0  0  0  0  0  0
    0.5261    2.7286   -1.7859 H   0  0  0  0  0  0  0  0  0  0  0  0
   -1.1462    1.8992    1.1139 H   0  0  0  0  0  0  0  0  0  0  0  0
   -1.7698    3.6422    0.0596 H   0  0  0  0  0  0  0  0  0  0  0  0
   -2.5561    0.2411   -0.9958 H   0  0  0  0  0  0  0  0  0  0  0  0
   -4.3308    0.9346    0.2059 H   0  0  0  0  0  0  0  0  0  0  0  0
    2.3272    1.1026   -1.7603 H   0  0  0  0  0  0  0  0  0  0  0  0
    4.5905    0.2629   -1.9383 H   0  0  0  0  0  0  0  0  0  0  0  0
    5.4315   -1.5619   -0.4163 H   0  0  0  0  0  0  0  0  0  0  0  0
    3.9081   -2.4549    1.2491 H   0  0  0  0  0  0  0  0  0  0  0  0
    1.6620   -1.6181    1.4371 H   0  0  0  0  0  0  0  0  0  0  0  0
  1  2  1  0
  2  3  1  0
  3  4  1  0
  4  5  1  0
  5  6  1  0
  6  7  1  0
  6  8  1  0
  8  9  1  0
  8 10  1  0
 10 11  1  0
  5 12  1  0
 12 13  2  0
 13 14  1  0
 14 15  2  0
 15 16  1  0
 16 17  2  0
 10  3  1  0
 17 12  1  0
  1 18  1  0
  2 19  1  0
  2 20  1  0
  3 21  1  1
  5 22  1  1
  6 23  1  6
  7 24  1  0
  8 25  1  1
  9 26  1  0
 10 27  1  6
 11 28  1  0
 13 29  1  0
 14 30  1  0
 15 31  1  0
 16 32  1  0
 17 33  1  0
M  END
$$$$
[H]c1nc(N([H])c2c([H])c([H])c(OC([H])([H])c3nc([H])c([H])c([H])c3[H])c(Cl)c2[H])c2c(O[C@@]([H])(C(=O)N(C([H])([H])[H])C([H])([H])[H])C([H])([H])[H])c([H])c([H])c([H])c2n1
     RDKit          3D

 58 61  0  0  0  0  0  0  0  0999 V2000
   -4.4693    0.5617   -0.0728 C   0  0  0  0  0  0  0  0  0  0  0  0
   -4.0827   -0.7057    0.7035 C   0  0  1  0  0  0  0  0  0  0  0  0
   -2.9799   -1.3208    0.1511 O   0  0  0  0  0  0  0  0  0  0  0  0
   -2.9001   -2.5941   -0.3421 C   0  0  0  0  0  0  0  0  0  0  0  0
   -4.0173   -3.4370   -0.3136 C   0  0  0  0  0  0  0  0  0  0  0  0
   -3.9394   -4.7180   -0.8129 C   0  0  0  0  0  0  0  0  0  0  0  0
   -2.7760   -5.2015   -1.3479 C   0  0  0  0  0  0  0  0  0  0  0  0
   -1.6498   -4.4083   -1.3975 C   0  0  0  0  0  0  0  0  0  0  0  0
   -0.5094   -4.8824   -1.9342 N   0  0  0  0  0  0  0  0  0  0  0  0
    0.5956   -4.1315   -2.0049 C   0  0  0  0  0  0  0  0  0  0  0  0
    0.5272   -2.9079   -1.5279 N   0  0  0  0  0  0  0  0  0  0  0  0
   -0.5967   -2.3527   -0.9654 C   0  0  0  0  0  0  0  0  0  0  0  0
   -0.5041   -1.0597   -0.4235 N   0  0  0  0  0  0  0  0  0  0  0  0
    0.7435   -0.3360   -0.6583 C   0  0  0  0  0  0  0  0  0  0  0  0
    1.2927    0.4145    0.3811 C   0  0  0  0  0  0  0  0  0  0  0  0
    2.4449    1.1443    0.2002 C   0  0  0  0  0  0  0  0  0  0  0  0
    3.0877    1.1538   -1.0123 C   0  0  0  0  0  0  0  0  0  0  0  0
    4.2611    1.8871   -1.2223 O   0  0  0  0  0  0  0  0  0  0  0  0
    4.8423    2.6549   -0.1935 C   0  0  0  0  0  0  0  0  0  0  0  0
    6.0638    3.2972   -0.7516 C   0  0  0  0  0  0  0  0  0  0  0  0
    7.2724    2.5994   -0.6548 C   0  0  0  0  0  0  0  0  0  0  0  0
    8.4475    3.1200   -1.1444 C   0  0  0  0  0  0  0  0  0  0  0  0
    8.3699    4.3748   -1.7396 C   0  0  0  0  0  0  0  0  0  0  0  0
    7.1838    5.0506   -1.8303 C   0  0  0  0  0  0  0  0  0  0  0  0
    6.0532    4.5065   -1.3382 N   0  0  0  0  0  0  0  0  0  0  0  0
    2.5696    0.4275   -2.0459 C   0  0  0  0  0  0  0  0  0  0  0  0
    3.3614    0.4089   -3.6241 Cl  0  0  0  0  0  0  0  0  0  0  0  0
    1.3969   -0.3107   -1.8515 C   0  0  0  0  0  0  0  0  0  0  0  0
   -1.7283   -3.1115   -0.8913 C   0  0  0  0  0  0  0  0  0  0  0  0
   -3.8355   -0.2439    2.1095 C   0  0  0  0  0  0  0  0  0  0  0  0
   -2.7021   -0.4552    2.5834 O   0  0  0  0  0  0  0  0  0  0  0  0
   -4.8124    0.3991    2.8837 N   0  0  0  0  0  0  0  0  0  0  0  0
   -6.1556    0.6839    2.4197 C   0  0  0  0  0  0  0  0  0  0  0  0
   -4.4909    0.8160    4.2320 C   0  0  0  0  0  0  0  0  0  0  0  0
   -5.5476    0.6052   -0.2675 H   0  0  0  0  0  0  0  0  0  0  0  0
   -4.1689    1.4800    0.4662 H   0  0  0  0  0  0  0  0  0  0  0  0
   -3.9062    0.5641   -1.0299 H   0  0  0  0  0  0  0  0  0  0  0  0
   -4.9640   -1.3473    0.7125 H   0  0  0  0  0  0  0  0  0  0  0  0
   -4.9308   -3.0580    0.1071 H   0  0  0  0  0  0  0  0  0  0  0  0
   -4.8469   -5.3163   -0.7575 H   0  0  0  0  0  0  0  0  0  0  0  0
   -2.7218   -6.2182   -1.7422 H   0  0  0  0  0  0  0  0  0  0  0  0
    1.5233   -4.5441   -2.4522 H   0  0  0  0  0  0  0  0  0  0  0  0
   -1.1492   -0.5083    0.1364 H   0  0  0  0  0  0  0  0  0  0  0  0
    0.7962    0.4103    1.3263 H   0  0  0  0  0  0  0  0  0  0  0  0
    2.8968    1.7413    0.9983 H   0  0  0  0  0  0  0  0  0  0  0  0
    4.1439    3.4645    0.1286 H   0  0  0  0  0  0  0  0  0  0  0  0
    5.1120    2.0641    0.6948 H   0  0  0  0  0  0  0  0  0  0  0  0
    7.2573    1.6176   -0.1738 H   0  0  0  0  0  0  0  0  0  0  0  0
    9.3859    2.5994   -1.0795 H   0  0  0  0  0  0  0  0  0  0  0  0
    9.2910    4.7886   -2.1261 H   0  0  0  0  0  0  0  0  0  0  0  0
    7.1830    6.0236   -2.3037 H   0  0  0  0  0  0  0  0  0  0  0  0
    1.0017   -0.8557   -2.7101 H   0  0  0  0  0  0  0  0  0  0  0  0
   -6.5694   -0.1136    1.7773 H   0  0  0  0  0  0  0  0  0  0  0  0
   -6.1394    1.6187    1.8244 H   0  0  0  0  0  0  0  0  0  0  0  0
   -6.8555    0.8629    3.2613 H   0  0  0  0  0  0  0  0  0  0  0  0
   -5.1901    1.5885    4.6138 H   0  0  0  0  0  0  0  0  0  0  0  0
   -4.4996   -0.0469    4.9436 H   0  0  0  0  0  0  0  0  0  0  0  0
   -3.4659    1.2564    4.3015 H   0  0  0  0  0  0  0  0  0  0  0  0
  1  2  1  0
  2  3  1  0
  3  4  1  0
  4  5  2  0
  5  6  1  0
  6  7  2  0
  7  8  1  0
  8  9  2  0
  9 10  1  0
 10 11  2  0
 11 12  1  0
 12 13  1  0
 13 14  1  0
 14 15  2  0
 15 16  1  0
 16 17  2  0
 17 18  1  0
 18 19  1  0
 19 20  1  0
 20 21  2  0
 21 22  1  0
 22 23  2  0
 23 24  1  0
 24 25  2  0
 17 26  1  0
 26 27  1  0
 26 28  2  0
 12 29  2  0
  2 30  1  0
 30 31  2  0
 30 32  1  0
 32 33  1  0
 32 34  1  0
 29  4  1  0
 29  8  1  0
 28 14  1  0
 25 20  1  0
  1 35  1  0
  1 36  1  0
  1 37  1  0
  2 38  1  1
  5 39  1  0
  6 40  1  0
  7 41  1  0
 10 42  1  0
 13 43  1  0
 15 44  1  0
 16 45  1  0
 19 46  1  0
 19 47  1  0
 21 48  1  0
 22 49  1  0
 23 50  1  0
 24 51  1  0
 28 52  1  0
 33 53  1  0
 33 54  1  0
 33 55  1  0
 34 56  1  0
 34 57  1  0
 34 58  1  0
M  END
$$$$
[H]O[C@]1([H])[C@]([H])(C([H])([H])C([H])([H])C([H])([H])N=C(N([H])[H])N([H])[H])O[C@@]([H])(n2c([H])c([H])c3c(N([H])[H])nc([H])nc32)[C@]1([H])O[H]
     RDKit          3D

 45 47  0  0  0  0  0  0  0  0999 V2000
    5.8041    0.8118    0.2074 N   0  0  0  0  0  0  0  0  0  0  0  0
    5.8023    0.4598   -1.1560 C   0  0  0  0  0  0  0  0  0  0  0  0
    7.0741    0.1257   -1.7355 N   0  0  0  0  0  0  0  0  0  0  0  0
    4.7980    0.4181   -1.8807 N   0  0  0  0  0  0  0  0  0  0  0  0
    3.4160    0.6737   -1.6665 C   0  0  0  0  0  0  0  0  0  0  0  0
    2.9957    0.9368   -0.2681 C   0  0  0  0  0  0  0  0  0  0  0  0
    1.5231    1.1940   -0.1087 C   0  0  0  0  0  0  0  0  0  0  0  0
    0.6317    0.0929   -0.5414 C   0  0  2  0  0  0  0  0  0  0  0  0
   -0.6851    0.4943   -0.3305 O   0  0  0  0  0  0  0  0  0  0  0  0
   -1.1299   -0.2006    0.7566 C   0  0  2  0  0  0  0  0  0  0  0  0
   -0.6089   -1.6134    0.4558 C   0  0  2  0  0  0  0  0  0  0  0  0
   -0.7007   -2.3452    1.6257 O   0  0  0  0  0  0  0  0  0  0  0  0
    0.8457   -1.2217    0.1440 C   0  0  2  0  0  0  0  0  0  0  0  0
    1.4737   -1.1342    1.3712 O   0  0  0  0  0  0  0  0  0  0  0  0
   -2.5465   -0.1869    0.9386 N   0  0  0  0  0  0  0  0  0  0  0  0
   -3.1684   -0.0735    2.1269 C   0  0  0  0  0  0  0  0  0  0  0  0
   -4.5351   -0.0932    1.9625 C   0  0  0  0  0  0  0  0  0  0  0  0
   -4.7574   -0.2250    0.6085 C   0  0  0  0  0  0  0  0  0  0  0  0
   -5.9333   -0.2987   -0.1179 C   0  0  0  0  0  0  0  0  0  0  0  0
   -7.1808   -0.2374    0.5501 N   0  0  0  0  0  0  0  0  0  0  0  0
   -5.8177   -0.4277   -1.4521 N   0  0  0  0  0  0  0  0  0  0  0  0
   -4.6009   -0.4799   -2.0257 C   0  0  0  0  0  0  0  0  0  0  0  0
   -3.4584   -0.4078   -1.3145 N   0  0  0  0  0  0  0  0  0  0  0  0
   -3.5116   -0.2788    0.0179 C   0  0  0  0  0  0  0  0  0  0  0  0
    5.6850    0.1361    0.9924 H   0  0  0  0  0  0  0  0  0  0  0  0
    5.9325    1.8174    0.4714 H   0  0  0  0  0  0  0  0  0  0  0  0
    7.5166   -0.7803   -1.4982 H   0  0  0  0  0  0  0  0  0  0  0  0
    7.5612    0.7718   -2.3876 H   0  0  0  0  0  0  0  0  0  0  0  0
    3.1185    1.4731   -2.3803 H   0  0  0  0  0  0  0  0  0  0  0  0
    2.8679   -0.2381   -2.0658 H   0  0  0  0  0  0  0  0  0  0  0  0
    3.4926    1.8808    0.0724 H   0  0  0  0  0  0  0  0  0  0  0  0
    3.3389    0.1489    0.4268 H   0  0  0  0  0  0  0  0  0  0  0  0
    1.2500    2.1020   -0.6851 H   0  0  0  0  0  0  0  0  0  0  0  0
    1.3594    1.4637    0.9635 H   0  0  0  0  0  0  0  0  0  0  0  0
    0.7205   -0.0059   -1.6653 H   0  0  0  0  0  0  0  0  0  0  0  0
   -0.5961    0.1439    1.6469 H   0  0  0  0  0  0  0  0  0  0  0  0
   -1.1034   -2.0642   -0.4030 H   0  0  0  0  0  0  0  0  0  0  0  0
   -1.1552   -1.8497    2.3578 H   0  0  0  0  0  0  0  0  0  0  0  0
    1.2612   -1.9830   -0.5248 H   0  0  0  0  0  0  0  0  0  0  0  0
    0.8735   -1.1776    2.1476 H   0  0  0  0  0  0  0  0  0  0  0  0
   -2.6772    0.0224    3.1026 H   0  0  0  0  0  0  0  0  0  0  0  0
   -5.2598   -0.0175    2.7643 H   0  0  0  0  0  0  0  0  0  0  0  0
   -7.4424    0.5609    1.1672 H   0  0  0  0  0  0  0  0  0  0  0  0
   -7.8823   -1.0005    0.4412 H   0  0  0  0  0  0  0  0  0  0  0  0
   -4.5912   -0.5850   -3.1115 H   0  0  0  0  0  0  0  0  0  0  0  0
  1  2  1  0
  2  3  1  0
  2  4  2  3
  4  5  1  0
  5  6  1  0
  6  7  1  0
  7  8  1  0
  8  9  1  0
  9 10  1  0
 10 11  1  0
 11 12  1  0
 11 13  1  0
 13 14  1  0
 10 15  1  0
 15 16  1  0
 16 17  2  0
 17 18  1  0
 18 19  2  0
 19 20  1  0
 19 21  1  0
 21 22  2  0
 22 23  1  0
 23 24  2  0
 13  8  1  0
 24 15  1  0
 24 18  1  0
  1 25  1  0
  1 26  1  0
  3 27  1  0
  3 28  1  0
  5 29  1  0
  5 30  1  0
  6 31  1  0
  6 32  1  0
  7 33  1  0
  7 34  1  0
  8 35  1  6
 10 36  1  1
 11 37  1  6
 12 38  1  0
 13 39  1  6
 14 40  1  0
 16 41  1  0
 17 42  1  0
 20 43  1  0
 20 44  1  0
 22 45  1  0
M  END
$$$$
[H]O[C@]1([H])C([H])([H])C([H])([H])[C@@]([H])(N([H])[C@]2([H])C([H])([H])C([H])([H])[C@]([H])(n3c([H])c(-c4c([H])c([H])c([H])c([H])c4[H])c4c(N([H])[H])nc([H])nc43)C([H])([H])C2([H])[H])C([H])([H])C1([H])[H]
     RDKit          3D

 61 65  0  0  0  0  0  0  0  0999 V2000
   -6.0008    1.6105    1.6106 N   0  0  0  0  0  0  0  0  0  0  0  0
   -4.5922    1.5702    1.7473 C   0  0  0  0  0  0  0  0  0  0  0  0
   -3.9381    2.4610    2.5333 N   0  0  0  0  0  0  0  0  0  0  0  0
   -2.6077    2.4069    2.7035 C   0  0  0  0  0  0  0  0  0  0  0  0
   -1.8467    1.4754    2.1158 N   0  0  0  0  0  0  0  0  0  0  0  0
   -2.4453    0.5642    1.3244 C   0  0  0  0  0  0  0  0  0  0  0  0
   -1.9587   -0.4672    0.6427 N   0  0  0  0  0  0  0  0  0  0  0  0
   -2.9653   -1.0889    0.0169 C   0  0  0  0  0  0  0  0  0  0  0  0
   -4.1619   -0.4423    0.2982 C   0  0  0  0  0  0  0  0  0  0  0  0
   -5.4695   -0.7695   -0.2306 C   0  0  0  0  0  0  0  0  0  0  0  0
   -6.1638    0.0706   -1.0624 C   0  0  0  0  0  0  0  0  0  0  0  0
   -7.4070   -0.2135   -1.5768 C   0  0  0  0  0  0  0  0  0  0  0  0
   -7.9974   -1.4099   -1.2419 C   0  0  0  0  0  0  0  0  0  0  0  0
   -7.3173   -2.2785   -0.4001 C   0  0  0  0  0  0  0  0  0  0  0  0
   -6.0761   -1.9785    0.1027 C   0  0  0  0  0  0  0  0  0  0  0  0
   -3.8251    0.5963    1.1256 C   0  0  0  0  0  0  0  0  0  0  0  0
   -0.5920   -0.9273    0.5565 C   0  0  2  0  0  0  0  0  0  0  0  0
    0.2256   -0.7589    1.7838 C   0  0  0  0  0  0  0  0  0  0  0  0
    1.4499    0.1262    1.5179 C   0  0  0  0  0  0  0  0  0  0  0  0
    2.3009   -0.5296    0.4325 C   0  0  1  0  0  0  0  0  0  0  0  0
    1.4782   -0.9801   -0.7254 C   0  0  0  0  0  0  0  0  0  0  0  0
    0.1002   -0.2994   -0.6156 C   0  0  0  0  0  0  0  0  0  0  0  0
    3.3764    0.3704    0.1195 N   0  0  0  0  0  0  0  0  0  0  0  0
    4.4622   -0.2640   -0.5916 C   0  0  1  0  0  0  0  0  0  0  0  0
    5.0274    0.7321   -1.5650 C   0  0  0  0  0  0  0  0  0  0  0  0
    5.9339    1.7355   -0.8671 C   0  0  0  0  0  0  0  0  0  0  0  0
    6.9449    1.0749    0.0308 C   0  0  2  0  0  0  0  0  0  0  0  0
    8.2523    1.4616   -0.2375 O   0  0  0  0  0  0  0  0  0  0  0  0
    6.8650   -0.4237   -0.1280 C   0  0  0  0  0  0  0  0  0  0  0  0
    5.4802   -0.8337    0.3555 C   0  0  0  0  0  0  0  0  0  0  0  0
   -6.6070    0.8237    1.9282 H   0  0  0  0  0  0  0  0  0  0  0  0
   -6.4645    2.4352    1.1925 H   0  0  0  0  0  0  0  0  0  0  0  0
   -2.1224    3.1556    3.3550 H   0  0  0  0  0  0  0  0  0  0  0  0
   -2.9219   -1.9774   -0.6288 H   0  0  0  0  0  0  0  0  0  0  0  0
   -5.7264    1.0369   -1.3587 H   0  0  0  0  0  0  0  0  0  0  0  0
   -7.9479    0.4681   -2.2399 H   0  0  0  0  0  0  0  0  0  0  0  0
   -8.9772   -1.6448   -1.6445 H   0  0  0  0  0  0  0  0  0  0  0  0
   -7.8135   -3.2218   -0.1422 H   0  0  0  0  0  0  0  0  0  0  0  0
   -5.5608   -2.6769    0.7523 H   0  0  0  0  0  0  0  0  0  0  0  0
   -0.6294   -2.0379    0.3129 H   0  0  0  0  0  0  0  0  0  0  0  0
   -0.2555   -0.4023    2.6795 H   0  0  0  0  0  0  0  0  0  0  0  0
    0.6922   -1.7536    2.0745 H   0  0  0  0  0  0  0  0  0  0  0  0
    2.0495    0.1177    2.4480 H   0  0  0  0  0  0  0  0  0  0  0  0
    1.1932    1.1540    1.2860 H   0  0  0  0  0  0  0  0  0  0  0  0
    2.7792   -1.4228    0.9343 H   0  0  0  0  0  0  0  0  0  0  0  0
    1.2479   -2.0777   -0.5609 H   0  0  0  0  0  0  0  0  0  0  0  0
    1.8790   -0.7876   -1.7211 H   0  0  0  0  0  0  0  0  0  0  0  0
    0.1903    0.7850   -0.4352 H   0  0  0  0  0  0  0  0  0  0  0  0
   -0.5044   -0.5196   -1.5183 H   0  0  0  0  0  0  0  0  0  0  0  0
    3.0587    1.2548   -0.3351 H   0  0  0  0  0  0  0  0  0  0  0  0
    4.0954   -1.1305   -1.2076 H   0  0  0  0  0  0  0  0  0  0  0  0
    5.5794    0.1743   -2.3565 H   0  0  0  0  0  0  0  0  0  0  0  0
    4.2319    1.2995   -2.0446 H   0  0  0  0  0  0  0  0  0  0  0  0
    6.4228    2.3307   -1.6583 H   0  0  0  0  0  0  0  0  0  0  0  0
    5.2544    2.4060   -0.2733 H   0  0  0  0  0  0  0  0  0  0  0  0
    6.6618    1.2920    1.0891 H   0  0  0  0  0  0  0  0  0  0  0  0
    8.2963    2.3616   -0.6337 H   0  0  0  0  0  0  0  0  0  0  0  0
    7.6612   -0.8652    0.4907 H   0  0  0  0  0  0  0  0  0  0  0  0
    6.9656   -0.7706   -1.1664 H   0  0  0  0  0  0  0  0  0  0  0  0
    5.4631   -1.9370    0.4011 H   0  0  0  0  0  0  0  0  0  0  0  0
    5.2766   -0.4603    1.3760 H   0  0  0  0  0  0  0  0  0  0  0  0
  1  2  1  0
  2  3  2  0
  3  4  1  0
  4  5  2  0
  5  6  1  0
  6  7  1  0
  7  8  1  0
  8  9  2  0
  9 10  1  0
 10 11  2  0
 11 12  1  0
 12 13  2  0
 13 14  1  0
 14 15  2  0
  9 16  1  0
  7 17  1  0
 17 18  1  0
 18 19  1  0
 19 20  1  0
 20 21  1  0
 21 22  1  0
 20 23  1  0
 23 24  1  0
 24 25  1  0
 25 26  1  0
 26 27  1  0
 27 28  1  0
 27 29  1  0
 29 30  1  0
 16  2  1  0
 22 17  1  0
 30 24  1  0
 16  6  2  0
 15 10  1  0
  1 31  1  0
  1 32  1  0
  4 33  1  0
  8 34  1  0
 11 35  1  0
 12 36  1  0
 13 37  1  0
 14 38  1  0
 15 39  1  0
 17 40  1  6
 18 41  1  0
 18 42  1  0
 19 43  1  0
 19 44  1  0
 20 45  1  1
 21 46  1  0
 21 47  1  0
 22 48  1  0
 22 49  1  0
 23 50  1  0
 24 51  1  6
 25 52  1  0
 25 53  1  0
 26 54  1  0
 26 55  1  0
 27 56  1  1
 28 57  1  0
 29 58  1  0
 29 59  1  0
 30 60  1  0
 30 61  1  0
M  END
$$$$
[H]c1nc(N2C([H])([H])C([H])([H])N(c3nc([H])c(C(F)(F)F)c([H])c3[H])[C@@]([H])(C([H])([H])[H])C2([H])[H])c([H])c(C(=O)N([H])[H])c1[H]
     RDKit          3D

 44 46  0  0  0  0  0  0  0  0999 V2000
   -0.1739    0.2244    2.1336 C   0  0  0  0  0  0  0  0  0  0  0  0
   -0.6486    0.9663    0.8841 C   0  0  1  0  0  0  0  0  0  0  0  0
    0.5937    1.3918    0.1322 C   0  0  0  0  0  0  0  0  0  0  0  0
    1.2109    0.2581   -0.4613 N   0  0  0  0  0  0  0  0  0  0  0  0
    0.4317   -0.5173   -1.4372 C   0  0  0  0  0  0  0  0  0  0  0  0
   -0.9135   -0.8312   -0.8813 C   0  0  0  0  0  0  0  0  0  0  0  0
   -1.4409    0.1078    0.0514 N   0  0  0  0  0  0  0  0  0  0  0  0
   -2.8672    0.1636    0.1633 C   0  0  0  0  0  0  0  0  0  0  0  0
   -3.6382    0.6695   -0.8359 C   0  0  0  0  0  0  0  0  0  0  0  0
   -5.0083    0.6508   -0.6799 C   0  0  0  0  0  0  0  0  0  0  0  0
   -5.5216    0.1180    0.4852 C   0  0  0  0  0  0  0  0  0  0  0  0
   -4.7200   -0.3886    1.4832 C   0  0  0  0  0  0  0  0  0  0  0  0
   -3.3887   -0.3510    1.2932 N   0  0  0  0  0  0  0  0  0  0  0  0
   -6.9925    0.0934    0.6598 C   0  0  0  0  0  0  0  0  0  0  0  0
   -7.3321   -0.5483    1.8442 F   0  0  0  0  0  0  0  0  0  0  0  0
   -7.4875    1.3887    0.6371 F   0  0  0  0  0  0  0  0  0  0  0  0
   -7.5354   -0.5894   -0.4093 F   0  0  0  0  0  0  0  0  0  0  0  0
    2.5535   -0.1972   -0.2313 C   0  0  0  0  0  0  0  0  0  0  0  0
    3.6471    0.5625   -0.5722 C   0  0  0  0  0  0  0  0  0  0  0  0
    4.9458    0.1066   -0.3743 C   0  0  0  0  0  0  0  0  0  0  0  0
    5.0852   -1.1500    0.1852 C   0  0  0  0  0  0  0  0  0  0  0  0
    3.9931   -1.9101    0.5293 C   0  0  0  0  0  0  0  0  0  0  0  0
    2.7562   -1.4076    0.3081 N   0  0  0  0  0  0  0  0  0  0  0  0
    6.1301    0.9130   -0.7451 C   0  0  0  0  0  0  0  0  0  0  0  0
    6.9615    0.3712   -1.7533 N   0  0  0  0  0  0  0  0  0  0  0  0
    6.3092    1.9843   -0.1631 O   0  0  0  0  0  0  0  0  0  0  0  0
    0.0973   -0.8036    1.9145 H   0  0  0  0  0  0  0  0  0  0  0  0
   -1.0673    0.1746    2.8174 H   0  0  0  0  0  0  0  0  0  0  0  0
    0.6151    0.7946    2.6265 H   0  0  0  0  0  0  0  0  0  0  0  0
   -1.2567    1.8523    1.1880 H   0  0  0  0  0  0  0  0  0  0  0  0
    1.2832    1.9619    0.7909 H   0  0  0  0  0  0  0  0  0  0  0  0
    0.2492    2.1231   -0.6412 H   0  0  0  0  0  0  0  0  0  0  0  0
    0.4398   -0.0216   -2.4251 H   0  0  0  0  0  0  0  0  0  0  0  0
    0.9523   -1.5032   -1.6174 H   0  0  0  0  0  0  0  0  0  0  0  0
   -1.6312   -0.8953   -1.7471 H   0  0  0  0  0  0  0  0  0  0  0  0
   -0.9433   -1.8441   -0.4142 H   0  0  0  0  0  0  0  0  0  0  0  0
   -3.1665    1.0721   -1.7336 H   0  0  0  0  0  0  0  0  0  0  0  0
   -5.6308    1.0453   -1.4514 H   0  0  0  0  0  0  0  0  0  0  0  0
   -5.1687   -0.8058    2.3725 H   0  0  0  0  0  0  0  0  0  0  0  0
    3.5506    1.5413   -1.0050 H   0  0  0  0  0  0  0  0  0  0  0  0
    6.1006   -1.4979    0.3326 H   0  0  0  0  0  0  0  0  0  0  0  0
    4.1395   -2.8783    0.9660 H   0  0  0  0  0  0  0  0  0  0  0  0
    7.9025    0.0184   -1.4846 H   0  0  0  0  0  0  0  0  0  0  0  0
    6.5851    0.3563   -2.7343 H   0  0  0  0  0  0  0  0  0  0  0  0
  1  2  1  0
  2  3  1  0
  3  4  1  0
  4  5  1  0
  5  6  1  0
  6  7  1  0
  7  8  1  0
  8  9  2  0
  9 10  1  0
 10 11  2  0
 11 12  1  0
 12 13  2  0
 11 14  1  0
 14 15  1  0
 14 16  1  0
 14 17  1  0
  4 18  1  0
 18 19  2  0
 19 20  1  0
 20 21  2  0
 21 22  1  0
 22 23  2  0
 20 24  1  0
 24 25  1  0
 24 26  2  0
  7  2  1  0
 13  8  1  0
 23 18  1  0
  1 27  1  0
  1 28  1  0
  1 29  1  0
  2 30  1  1
  3 31  1  0
  3 32  1  0
  5 33  1  0
  5 34  1  0
  6 35  1  0
  6 36  1  0
  9 37  1  0
 10 38  1  0
 12 39  1  0
 19 40  1  0
 21 41  1  0
 22 42  1  0
 25 43  1  0
 25 44  1  0
M  END
$$$$
[H]OC(=O)C([H])([H])Oc1c([H])c([H])c([H])c2c1c(C([H])([H])C(=O)N([H])[H])c(C([H])([H])C([H])([H])[H])n2C([H])([H])c1c([H])c([H])c([H])c([H])c1[H]
     RDKit          3D

 49 51  0  0  0  0  0  0  0  0999 V2000
   -1.3061   -1.1008   -3.3555 C   0  0  0  0  0  0  0  0  0  0  0  0
   -1.5935   -1.2392   -1.8788 C   0  0  0  0  0  0  0  0  0  0  0  0
   -0.7764   -0.3711   -1.0077 C   0  0  0  0  0  0  0  0  0  0  0  0
    0.5300   -0.6794   -0.6562 C   0  0  0  0  0  0  0  0  0  0  0  0
    1.3306   -1.8203   -1.0650 C   0  0  0  0  0  0  0  0  0  0  0  0
    2.0939   -1.7179   -2.3010 C   0  0  0  0  0  0  0  0  0  0  0  0
    2.8130   -2.8337   -2.8120 N   0  0  0  0  0  0  0  0  0  0  0  0
    2.1372   -0.6495   -2.9433 O   0  0  0  0  0  0  0  0  0  0  0  0
    1.0068    0.3297    0.1543 C   0  0  0  0  0  0  0  0  0  0  0  0
    2.2273    0.5273    0.7593 C   0  0  0  0  0  0  0  0  0  0  0  0
    3.2459   -0.3818    0.6275 O   0  0  0  0  0  0  0  0  0  0  0  0
    4.4853   -0.1439    1.2635 C   0  0  0  0  0  0  0  0  0  0  0  0
    5.4606   -1.2260    1.0100 C   0  0  0  0  0  0  0  0  0  0  0  0
    6.7370   -1.1885    1.5377 O   0  0  0  0  0  0  0  0  0  0  0  0
    5.1309   -2.2037    0.3009 O   0  0  0  0  0  0  0  0  0  0  0  0
    2.4013    1.6691    1.5051 C   0  0  0  0  0  0  0  0  0  0  0  0
    1.3931    2.5954    1.6506 C   0  0  0  0  0  0  0  0  0  0  0  0
    0.1858    2.3705    1.0349 C   0  0  0  0  0  0  0  0  0  0  0  0
   -0.0314    1.2382    0.2782 C   0  0  0  0  0  0  0  0  0  0  0  0
   -1.1218    0.8028   -0.4348 N   0  0  0  0  0  0  0  0  0  0  0  0
   -2.3456    1.5307   -0.4996 C   0  0  0  0  0  0  0  0  0  0  0  0
   -3.3785    1.2703    0.4962 C   0  0  0  0  0  0  0  0  0  0  0  0
   -4.4670    0.4706    0.1494 C   0  0  0  0  0  0  0  0  0  0  0  0
   -5.4944    0.1515    0.9723 C   0  0  0  0  0  0  0  0  0  0  0  0
   -5.5062    0.6333    2.2617 C   0  0  0  0  0  0  0  0  0  0  0  0
   -4.4482    1.4283    2.6436 C   0  0  0  0  0  0  0  0  0  0  0  0
   -3.4001    1.7497    1.7923 C   0  0  0  0  0  0  0  0  0  0  0  0
   -0.9178   -0.0759   -3.5458 H   0  0  0  0  0  0  0  0  0  0  0  0
   -2.2609   -1.1441   -3.9600 H   0  0  0  0  0  0  0  0  0  0  0  0
   -0.6635   -1.8724   -3.7720 H   0  0  0  0  0  0  0  0  0  0  0  0
   -1.5250   -2.3155   -1.5578 H   0  0  0  0  0  0  0  0  0  0  0  0
   -2.6558   -0.9899   -1.7553 H   0  0  0  0  0  0  0  0  0  0  0  0
    0.6060   -2.7016   -1.2139 H   0  0  0  0  0  0  0  0  0  0  0  0
    2.0038   -2.2269   -0.2815 H   0  0  0  0  0  0  0  0  0  0  0  0
    3.2717   -3.5452   -2.1955 H   0  0  0  0  0  0  0  0  0  0  0  0
    2.8861   -2.9499   -3.8459 H   0  0  0  0  0  0  0  0  0  0  0  0
    4.9510    0.8025    0.9310 H   0  0  0  0  0  0  0  0  0  0  0  0
    4.3491   -0.0361    2.3793 H   0  0  0  0  0  0  0  0  0  0  0  0
    7.5104   -0.7764    1.0321 H   0  0  0  0  0  0  0  0  0  0  0  0
    3.3458    1.8957    2.0165 H   0  0  0  0  0  0  0  0  0  0  0  0
    1.5193    3.4889    2.2295 H   0  0  0  0  0  0  0  0  0  0  0  0
   -0.5943    3.1284    1.1649 H   0  0  0  0  0  0  0  0  0  0  0  0
   -2.1210    2.6251   -0.4450 H   0  0  0  0  0  0  0  0  0  0  0  0
   -2.7850    1.3149   -1.5221 H   0  0  0  0  0  0  0  0  0  0  0  0
   -4.5223    0.0643   -0.8755 H   0  0  0  0  0  0  0  0  0  0  0  0
   -6.3091   -0.4746    0.6405 H   0  0  0  0  0  0  0  0  0  0  0  0
   -6.3041    0.4041    2.9473 H   0  0  0  0  0  0  0  0  0  0  0  0
   -4.4755    1.7999    3.6690 H   0  0  0  0  0  0  0  0  0  0  0  0
   -2.6183    2.3731    2.1347 H   0  0  0  0  0  0  0  0  0  0  0  0
  1  2  1  0
  2  3  1  0
  3  4  2  0
  4  5  1  0
  5  6  1  0
  6  7  1  0
  6  8  2  0
  4  9  1  0
  9 10  2  0
 10 11  1  0
 11 12  1  0
 12 13  1  0
 13 14  1  0
 13 15  2  0
 10 16  1  0
 16 17  2  0
 17 18  1  0
 18 19  2  0
 19 20  1  0
 20 21  1  0
 21 22  1  0
 22 23  2  0
 23 24  1  0
 24 25  2  0
 25 26  1  0
 26 27  2  0
 20  3  1  0
 27 22  1  0
 19  9  1  0
  1 28  1  0
  1 29  1  0
  1 30  1  0
  2 31  1  0
  2 32  1  0
  5 33  1  0
  5 34  1  0
  7 35  1  0
  7 36  1  0
 12 37  1  0
 12 38  1  0
 14 39  1  0
 16 40  1  0
 17 41  1  0
 18 42  1  0
 21 43  1  0
 21 44  1  0
 23 45  1  0
 24 46  1  0
 25 47  1  0
 26 48  1  0
 27 49  1  0
M  END
$$$$
[H]c1nc(-c2c([H])c(N([H])C(=O)c3c([H])c([H])c(C([H])([H])N4C([H])([H])C([H])([H])N(C([H])([H])[H])C([H])([H])C4([H])[H])c(C(F)(F)F)c3[H])c([H])c([H])c2C([H])([H])[H])c2c([H])c([H])n([H])c2n1
     RDKit          3D

 64 68  0  0  0  0  0  0  0  0999 V2000
    8.7959   -0.9154    0.8103 C   0  0  0  0  0  0  0  0  0  0  0  0
    7.3761   -0.6028    0.5817 N   0  0  0  0  0  0  0  0  0  0  0  0
    7.0798   -1.0455   -0.7467 C   0  0  0  0  0  0  0  0  0  0  0  0
    5.7466   -0.5646   -1.2777 C   0  0  0  0  0  0  0  0  0  0  0  0
    5.4180    0.7511   -0.7885 N   0  0  0  0  0  0  0  0  0  0  0  0
    4.4534    0.7283    0.2692 C   0  0  0  0  0  0  0  0  0  0  0  0
    3.1254    0.3558   -0.1953 C   0  0  0  0  0  0  0  0  0  0  0  0
    2.8701    0.1737   -1.5331 C   0  0  0  0  0  0  0  0  0  0  0  0
    1.5951   -0.1474   -2.0167 C   0  0  0  0  0  0  0  0  0  0  0  0
    0.5397   -0.2918   -1.1439 C   0  0  0  0  0  0  0  0  0  0  0  0
    0.8086   -0.1070    0.1841 C   0  0  0  0  0  0  0  0  0  0  0  0
    2.0497    0.2080    0.6814 C   0  0  0  0  0  0  0  0  0  0  0  0
    2.2636    0.3922    2.1347 C   0  0  0  0  0  0  0  0  0  0  0  0
    1.0335    0.1856    2.7859 F   0  0  0  0  0  0  0  0  0  0  0  0
    3.1108   -0.5371    2.6943 F   0  0  0  0  0  0  0  0  0  0  0  0
    2.5974    1.6979    2.4631 F   0  0  0  0  0  0  0  0  0  0  0  0
   -0.7958   -0.6401   -1.6716 C   0  0  0  0  0  0  0  0  0  0  0  0
   -0.8454   -1.1801   -2.7749 O   0  0  0  0  0  0  0  0  0  0  0  0
   -1.9264   -0.3421   -0.9011 N   0  0  0  0  0  0  0  0  0  0  0  0
   -3.2779   -0.5894   -1.2016 C   0  0  0  0  0  0  0  0  0  0  0  0
   -3.6847   -1.4624   -2.1746 C   0  0  0  0  0  0  0  0  0  0  0  0
   -5.0569   -1.6415   -2.4372 C   0  0  0  0  0  0  0  0  0  0  0  0
   -6.0238   -0.9578   -1.7371 C   0  0  0  0  0  0  0  0  0  0  0  0
   -7.4676   -1.1511   -2.0172 C   0  0  0  0  0  0  0  0  0  0  0  0
   -5.6274   -0.0770   -0.7556 C   0  0  0  0  0  0  0  0  0  0  0  0
   -4.2846    0.0873   -0.5108 C   0  0  0  0  0  0  0  0  0  0  0  0
   -6.6288    0.6609   -0.0035 C   0  0  0  0  0  0  0  0  0  0  0  0
   -7.5840    1.4010   -0.5954 N   0  0  0  0  0  0  0  0  0  0  0  0
   -8.4780    2.0570    0.1767 C   0  0  0  0  0  0  0  0  0  0  0  0
   -8.4374    1.9891    1.5192 N   0  0  0  0  0  0  0  0  0  0  0  0
   -7.5068    1.2658    2.1752 C   0  0  0  0  0  0  0  0  0  0  0  0
   -7.2443    1.0305    3.4748 N   0  0  0  0  0  0  0  0  0  0  0  0
   -6.1773    0.2203    3.5394 C   0  0  0  0  0  0  0  0  0  0  0  0
   -5.7408   -0.0746    2.2497 C   0  0  0  0  0  0  0  0  0  0  0  0
   -6.5818    0.5869    1.3845 C   0  0  0  0  0  0  0  0  0  0  0  0
    6.6029    1.4990   -0.4019 C   0  0  0  0  0  0  0  0  0  0  0  0
    7.2163    0.8019    0.8117 C   0  0  0  0  0  0  0  0  0  0  0  0
    9.2480   -0.2487    1.5604 H   0  0  0  0  0  0  0  0  0  0  0  0
    9.3138   -0.6777   -0.1648 H   0  0  0  0  0  0  0  0  0  0  0  0
    8.8611   -1.9754    1.0702 H   0  0  0  0  0  0  0  0  0  0  0  0
    7.0540   -2.1559   -0.7283 H   0  0  0  0  0  0  0  0  0  0  0  0
    7.8970   -0.7890   -1.4711 H   0  0  0  0  0  0  0  0  0  0  0  0
    4.9953   -1.3156   -1.0333 H   0  0  0  0  0  0  0  0  0  0  0  0
    5.8604   -0.5088   -2.3776 H   0  0  0  0  0  0  0  0  0  0  0  0
    4.4018    1.7368    0.7853 H   0  0  0  0  0  0  0  0  0  0  0  0
    4.8645    0.0500    1.0505 H   0  0  0  0  0  0  0  0  0  0  0  0
    3.6111    0.2789   -2.3121 H   0  0  0  0  0  0  0  0  0  0  0  0
    1.3941   -0.2907   -3.0674 H   0  0  0  0  0  0  0  0  0  0  0  0
   -0.0158   -0.2220    0.9105 H   0  0  0  0  0  0  0  0  0  0  0  0
   -1.7660    0.1415    0.0554 H   0  0  0  0  0  0  0  0  0  0  0  0
   -2.9740   -2.0453   -2.7609 H   0  0  0  0  0  0  0  0  0  0  0  0
   -5.3367   -2.3299   -3.2031 H   0  0  0  0  0  0  0  0  0  0  0  0
   -7.8971   -0.3776   -2.6622 H   0  0  0  0  0  0  0  0  0  0  0  0
   -7.5750   -2.1520   -2.4894 H   0  0  0  0  0  0  0  0  0  0  0  0
   -8.0287   -1.1894   -1.0608 H   0  0  0  0  0  0  0  0  0  0  0  0
   -3.9456    0.7879    0.2686 H   0  0  0  0  0  0  0  0  0  0  0  0
   -9.2285    2.6409   -0.3465 H   0  0  0  0  0  0  0  0  0  0  0  0
   -7.7864    1.4189    4.2776 H   0  0  0  0  0  0  0  0  0  0  0  0
   -5.7394   -0.1369    4.4537 H   0  0  0  0  0  0  0  0  0  0  0  0
   -4.8944   -0.7085    1.9737 H   0  0  0  0  0  0  0  0  0  0  0  0
    7.3239    1.4836   -1.2227 H   0  0  0  0  0  0  0  0  0  0  0  0
    6.2914    2.5031   -0.0885 H   0  0  0  0  0  0  0  0  0  0  0  0
    6.5773    0.9993    1.6992 H   0  0  0  0  0  0  0  0  0  0  0  0
    8.1811    1.3179    0.9957 H   0  0  0  0  0  0  0  0  0  0  0  0
  1  2  1  0
  2  3  1  0
  3  4  1  0
  4  5  1  0
  5  6  1  0
  6  7  1  0
  7  8  2  0
  8  9  1  0
  9 10  2  0
 10 11  1  0
 11 12  2  0
 12 13  1  0
 13 14  1  0
 13 15  1  0
 13 16  1  0
 10 17  1  0
 17 18  2  0
 17 19  1  0
 19 20  1  0
 20 21  2  0
 21 22  1  0
 22 23  2  0
 23 24  1  0
 23 25  1  0
 25 26  2  0
 25 27  1  0
 27 28  2  0
 28 29  1  0
 29 30  2  0
 30 31  1  0
 31 32  1  0
 32 33  1  0
 33 34  2  0
 34 35  1  0
  5 36  1  0
 36 37  1  0
 37  2  1  0
 12  7  1  0
 26 20  1  0
 35 27  1  0
 35 31  2  0
  1 38  1  0
  1 39  1  0
  1 40  1  0
  3 41  1  0
  3 42  1  0
  4 43  1  0
  4 44  1  0
  6 45  1  0
  6 46  1  0
  8 47  1  0
  9 48  1  0
 11 49  1  0
 19 50  1  0
 21 51  1  0
 22 52  1  0
 24 53  1  0
 24 54  1  0
 24 55  1  0
 26 56  1  0
 29 57  1  0
 32 58  1  0
 33 59  1  0
 34 60  1  0
 36 61  1  0
 36 62  1  0
 37 63  1  0
 37 64  1  0
M  END
$$$$
[H]C1=C(C(=O)N([H])c2c([H])c([H])c(C(C([H])([H])[H])(C([H])([H])[H])C([H])([H])[H])c([H])c2[H])C([H])([H])C([H])([H])N(c2nc([H])c([H])c([H])c2C(F)(F)F)C1([H])[H]
     RDKit          3D

 53 55  0  0  0  0  0  0  0  0999 V2000
   -6.4048    2.1374   -0.2112 C   0  0  0  0  0  0  0  0  0  0  0  0
   -6.2837    0.6126   -0.2029 C   0  0  0  0  0  0  0  0  0  0  0  0
   -7.1504    0.0862    0.9306 C   0  0  0  0  0  0  0  0  0  0  0  0
   -6.6762    0.0596   -1.5498 C   0  0  0  0  0  0  0  0  0  0  0  0
   -4.8773    0.2516    0.0950 C   0  0  0  0  0  0  0  0  0  0  0  0
   -4.6110   -1.0573    0.4974 C   0  0  0  0  0  0  0  0  0  0  0  0
   -3.2846   -1.4245    0.7574 C   0  0  0  0  0  0  0  0  0  0  0  0
   -2.2869   -0.5212    0.6186 C   0  0  0  0  0  0  0  0  0  0  0  0
   -0.9259   -0.8561    0.8690 N   0  0  0  0  0  0  0  0  0  0  0  0
   -0.0050   -0.7139   -0.2188 C   0  0  0  0  0  0  0  0  0  0  0  0
   -0.5644   -0.3235   -1.3302 O   0  0  0  0  0  0  0  0  0  0  0  0
    1.3939   -0.9419   -0.2055 C   0  0  0  0  0  0  0  0  0  0  0  0
    2.1522   -1.2985    0.7846 C   0  0  0  0  0  0  0  0  0  0  0  0
    3.6513   -1.4819    0.5368 C   0  0  0  0  0  0  0  0  0  0  0  0
    4.1355   -0.3644   -0.1907 N   0  0  0  0  0  0  0  0  0  0  0  0
    3.2151    0.2162   -1.2074 C   0  0  0  0  0  0  0  0  0  0  0  0
    2.1506   -0.7818   -1.5206 C   0  0  0  0  0  0  0  0  0  0  0  0
    5.3518    0.2890   -0.0841 C   0  0  0  0  0  0  0  0  0  0  0  0
    5.3878    1.5166    0.5547 N   0  0  0  0  0  0  0  0  0  0  0  0
    6.4967    2.2535    0.6586 C   0  0  0  0  0  0  0  0  0  0  0  0
    7.6785    1.8089    0.1186 C   0  0  0  0  0  0  0  0  0  0  0  0
    7.7028    0.5961   -0.5242 C   0  0  0  0  0  0  0  0  0  0  0  0
    6.5170   -0.1575   -0.6159 C   0  0  0  0  0  0  0  0  0  0  0  0
    6.6212   -1.4591   -1.2853 C   0  0  0  0  0  0  0  0  0  0  0  0
    5.7239   -1.6374   -2.3235 F   0  0  0  0  0  0  0  0  0  0  0  0
    7.9249   -1.5861   -1.8305 F   0  0  0  0  0  0  0  0  0  0  0  0
    6.4818   -2.4701   -0.3770 F   0  0  0  0  0  0  0  0  0  0  0  0
   -2.5751    0.7759    0.2176 C   0  0  0  0  0  0  0  0  0  0  0  0
   -3.8798    1.1732   -0.0475 C   0  0  0  0  0  0  0  0  0  0  0  0
   -7.5092    2.3895   -0.1798 H   0  0  0  0  0  0  0  0  0  0  0  0
   -6.0300    2.5362   -1.1663 H   0  0  0  0  0  0  0  0  0  0  0  0
   -5.8875    2.5354    0.6729 H   0  0  0  0  0  0  0  0  0  0  0  0
   -8.1712    0.5221    0.8858 H   0  0  0  0  0  0  0  0  0  0  0  0
   -7.2571   -0.9931    0.8546 H   0  0  0  0  0  0  0  0  0  0  0  0
   -6.6187    0.3412    1.8934 H   0  0  0  0  0  0  0  0  0  0  0  0
   -5.8155   -0.4639   -2.0423 H   0  0  0  0  0  0  0  0  0  0  0  0
   -7.0713    0.8899   -2.1622 H   0  0  0  0  0  0  0  0  0  0  0  0
   -7.5391   -0.6242   -1.3762 H   0  0  0  0  0  0  0  0  0  0  0  0
   -5.4076   -1.7857    0.6010 H   0  0  0  0  0  0  0  0  0  0  0  0
   -3.1292   -2.4469    1.0585 H   0  0  0  0  0  0  0  0  0  0  0  0
   -0.6304   -1.1906    1.8001 H   0  0  0  0  0  0  0  0  0  0  0  0
    1.7736   -1.4555    1.7365 H   0  0  0  0  0  0  0  0  0  0  0  0
    4.1175   -1.5147    1.5315 H   0  0  0  0  0  0  0  0  0  0  0  0
    3.7307   -2.4665    0.0653 H   0  0  0  0  0  0  0  0  0  0  0  0
    2.7252    1.0478   -0.6421 H   0  0  0  0  0  0  0  0  0  0  0  0
    3.8047    0.5275   -2.0697 H   0  0  0  0  0  0  0  0  0  0  0  0
    2.5965   -1.7757   -1.7566 H   0  0  0  0  0  0  0  0  0  0  0  0
    1.4923   -0.3918   -2.2969 H   0  0  0  0  0  0  0  0  0  0  0  0
    6.5010    3.2269    1.1703 H   0  0  0  0  0  0  0  0  0  0  0  0
    8.5937    2.4265    0.1988 H   0  0  0  0  0  0  0  0  0  0  0  0
    8.6213    0.2445   -0.9436 H   0  0  0  0  0  0  0  0  0  0  0  0
   -1.8194    1.5423    0.0855 H   0  0  0  0  0  0  0  0  0  0  0  0
   -4.1302    2.1773   -0.3621 H   0  0  0  0  0  0  0  0  0  0  0  0
  1  2  1  0
  2  3  1  0
  2  4  1  0
  2  5  1  0
  5  6  2  0
  6  7  1  0
  7  8  2  0
  8  9  1  0
  9 10  1  0
 10 11  2  0
 10 12  1  0
 12 13  2  0
 13 14  1  0
 14 15  1  0
 15 16  1  0
 16 17  1  0
 15 18  1  0
 18 19  2  0
 19 20  1  0
 20 21  2  0
 21 22  1  0
 22 23  2  0
 23 24  1  0
 24 25  1  0
 24 26  1  0
 24 27  1  0
  8 28  1  0
 28 29  2  0
 29  5  1  0
 17 12  1  0
 23 18  1  0
  1 30  1  0
  1 31  1  0
  1 32  1  0
  3 33  1  0
  3 34  1  0
  3 35  1  0
  4 36  1  0
  4 37  1  0
  4 38  1  0
  6 39  1  0
  7 40  1  0
  9 41  1  0
 13 42  1  0
 14 43  1  0
 14 44  1  0
 16 45  1  0
 16 46  1  0
 17 47  1  0
 17 48  1  0
 20 49  1  0
 21 50  1  0
 22 51  1  0
 28 52  1  0
 29 53  1  0
M  END
$$$$
[H]c1c([H])c(S(=O)(=O)N(C([H])([H])c2c([H])c([H])c3c(c2[H])OC([H])([H])O3)[C@]2([H])C([H])([H])N(c3nc(N([H])[H])nc4c([H])c([H])c([H])c([H])c34)C([H])([H])C2([H])[H])c([H])c([H])c1OC([H])([H])[H]
     RDKit          3D

 65 70  0  0  0  0  0  0  0  0999 V2000
    6.7357   -4.2138   -1.5764 C   0  0  0  0  0  0  0  0  0  0  0  0
    5.4019   -4.6408   -1.4815 O   0  0  0  0  0  0  0  0  0  0  0  0
    4.4542   -3.7833   -0.8926 C   0  0  0  0  0  0  0  0  0  0  0  0
    4.8233   -2.5505   -0.4179 C   0  0  0  0  0  0  0  0  0  0  0  0
    3.8904   -1.7130    0.1588 C   0  0  0  0  0  0  0  0  0  0  0  0
    2.5653   -2.0802    0.2785 C   0  0  0  0  0  0  0  0  0  0  0  0
    2.1964   -3.3108   -0.1951 C   0  0  0  0  0  0  0  0  0  0  0  0
    3.1290   -4.1738   -0.7833 C   0  0  0  0  0  0  0  0  0  0  0  0
    1.4194   -1.0046    1.0311 S   0  0  0  0  0  0  0  0  0  0  0  0
    2.2249   -0.3091    2.1377 O   0  0  0  0  0  0  0  0  0  0  0  0
    0.4232   -1.8474    1.8199 O   0  0  0  0  0  0  0  0  0  0  0  0
    0.7538    0.1639    0.0661 N   0  0  0  0  0  0  0  0  0  0  0  0
    1.6224    1.1101   -0.5188 C   0  0  0  0  0  0  0  0  0  0  0  0
    1.8915    2.3392    0.2446 C   0  0  0  0  0  0  0  0  0  0  0  0
    1.2780    2.6756    1.4241 C   0  0  0  0  0  0  0  0  0  0  0  0
    1.5909    3.8651    2.0941 C   0  0  0  0  0  0  0  0  0  0  0  0
    2.5263    4.7410    1.5930 C   0  0  0  0  0  0  0  0  0  0  0  0
    3.0387    5.9773    2.0253 O   0  0  0  0  0  0  0  0  0  0  0  0
    4.2695    6.2138    1.3361 C   0  0  0  0  0  0  0  0  0  0  0  0
    4.0275    5.4659    0.1521 O   0  0  0  0  0  0  0  0  0  0  0  0
    3.1491    4.4126    0.4072 C   0  0  0  0  0  0  0  0  0  0  0  0
    2.8416    3.2418   -0.2528 C   0  0  0  0  0  0  0  0  0  0  0  0
   -0.5605    0.1144   -0.4121 C   0  0  1  0  0  0  0  0  0  0  0  0
   -0.8850   -1.0042   -1.3638 C   0  0  0  0  0  0  0  0  0  0  0  0
   -2.0582   -1.7168   -0.7345 C   0  0  0  0  0  0  0  0  0  0  0  0
   -2.6671   -0.7184    0.0941 N   0  0  0  0  0  0  0  0  0  0  0  0
   -1.6230    0.1417    0.6049 C   0  0  0  0  0  0  0  0  0  0  0  0
   -4.0588   -0.5370    0.4349 C   0  0  0  0  0  0  0  0  0  0  0  0
   -4.4420   -0.7196    1.7253 N   0  0  0  0  0  0  0  0  0  0  0  0
   -5.7034   -0.5940    2.1550 C   0  0  0  0  0  0  0  0  0  0  0  0
   -6.0612   -0.7950    3.5206 N   0  0  0  0  0  0  0  0  0  0  0  0
   -6.6421   -0.2637    1.2331 N   0  0  0  0  0  0  0  0  0  0  0  0
   -6.3189   -0.0700   -0.0628 C   0  0  0  0  0  0  0  0  0  0  0  0
   -7.2852    0.2687   -0.9857 C   0  0  0  0  0  0  0  0  0  0  0  0
   -6.9626    0.4755   -2.3251 C   0  0  0  0  0  0  0  0  0  0  0  0
   -5.6519    0.3424   -2.7543 C   0  0  0  0  0  0  0  0  0  0  0  0
   -4.6989    0.0031   -1.8173 C   0  0  0  0  0  0  0  0  0  0  0  0
   -5.0049   -0.2043   -0.4923 C   0  0  0  0  0  0  0  0  0  0  0  0
    6.7251   -3.2492   -2.1522 H   0  0  0  0  0  0  0  0  0  0  0  0
    7.2251   -4.1162   -0.5971 H   0  0  0  0  0  0  0  0  0  0  0  0
    7.3283   -4.9458   -2.1599 H   0  0  0  0  0  0  0  0  0  0  0  0
    5.8416   -2.2381   -0.4961 H   0  0  0  0  0  0  0  0  0  0  0  0
    4.2016   -0.7288    0.5339 H   0  0  0  0  0  0  0  0  0  0  0  0
    1.1850   -3.6768   -0.1415 H   0  0  0  0  0  0  0  0  0  0  0  0
    2.8630   -5.1476   -1.1633 H   0  0  0  0  0  0  0  0  0  0  0  0
    2.6128    0.5999   -0.7038 H   0  0  0  0  0  0  0  0  0  0  0  0
    1.2966    1.4304   -1.5491 H   0  0  0  0  0  0  0  0  0  0  0  0
    0.5434    1.9944    1.8227 H   0  0  0  0  0  0  0  0  0  0  0  0
    1.0732    4.0780    3.0230 H   0  0  0  0  0  0  0  0  0  0  0  0
    4.4671    7.2690    1.1528 H   0  0  0  0  0  0  0  0  0  0  0  0
    5.1134    5.6791    1.8584 H   0  0  0  0  0  0  0  0  0  0  0  0
    3.3394    2.9896   -1.1920 H   0  0  0  0  0  0  0  0  0  0  0  0
   -0.6979    1.0699   -1.0408 H   0  0  0  0  0  0  0  0  0  0  0  0
   -1.2893   -0.6154   -2.3503 H   0  0  0  0  0  0  0  0  0  0  0  0
   -0.0811   -1.7229   -1.5320 H   0  0  0  0  0  0  0  0  0  0  0  0
   -1.6310   -2.5353   -0.0895 H   0  0  0  0  0  0  0  0  0  0  0  0
   -2.7284   -2.1465   -1.5111 H   0  0  0  0  0  0  0  0  0  0  0  0
   -1.3630   -0.2630    1.6079 H   0  0  0  0  0  0  0  0  0  0  0  0
   -2.0348    1.1972    0.7482 H   0  0  0  0  0  0  0  0  0  0  0  0
   -6.9327   -1.3085    3.7528 H   0  0  0  0  0  0  0  0  0  0  0  0
   -5.4837   -0.4473    4.3147 H   0  0  0  0  0  0  0  0  0  0  0  0
   -8.3084    0.3722   -0.6466 H   0  0  0  0  0  0  0  0  0  0  0  0
   -7.7735    0.7415   -3.0025 H   0  0  0  0  0  0  0  0  0  0  0  0
   -5.4196    0.5069   -3.7952 H   0  0  0  0  0  0  0  0  0  0  0  0
   -3.7016   -0.0882   -2.1613 H   0  0  0  0  0  0  0  0  0  0  0  0
  1  2  1  0
  2  3  1  0
  3  4  2  0
  4  5  1  0
  5  6  2  0
  6  7  1  0
  7  8  2  0
  6  9  1  0
  9 10  2  0
  9 11  2  0
  9 12  1  0
 12 13  1  0
 13 14  1  0
 14 15  2  0
 15 16  1  0
 16 17  2  0
 17 18  1  0
 18 19  1  0
 19 20  1  0
 20 21  1  0
 21 22  2  0
 12 23  1  0
 23 24  1  0
 24 25  1  0
 25 26  1  0
 26 27  1  0
 26 28  1  0
 28 29  2  0
 29 30  1  0
 30 31  1  0
 30 32  2  0
 32 33  1  0
 33 34  2  0
 34 35  1  0
 35 36  2  0
 36 37  1  0
 37 38  2  0
  8  3  1  0
 22 14  1  0
 27 23  1  0
 38 28  1  0
 21 17  1  0
 38 33  1  0
  1 39  1  0
  1 40  1  0
  1 41  1  0
  4 42  1  0
  5 43  1  0
  7 44  1  0
  8 45  1  0
 13 46  1  0
 13 47  1  0
 15 48  1  0
 16 49  1  0
 19 50  1  0
 19 51  1  0
 22 52  1  0
 23 53  1  6
 24 54  1  0
 24 55  1  0
 25 56  1  0
 25 57  1  0
 27 58  1  0
 27 59  1  0
 31 60  1  0
 31 61  1  0
 34 62  1  0
 35 63  1  0
 36 64  1  0
 37 65  1  0
M  END
$$$$
[H]Oc1c([H])c(O[H])c(C(=O)N2C([H])([H])c3c([H])c([H])c([H])c([H])c3C2([H])[H])c([H])c1O[H]
     RDKit          3D

 33 35  0  0  0  0  0  0  0  0999 V2000
    5.7221    0.5964    0.9068 O   0  0  0  0  0  0  0  0  0  0  0  0
    4.4228    0.4665    0.3756 C   0  0  0  0  0  0  0  0  0  0  0  0
    4.0750    1.1077   -0.7702 C   0  0  0  0  0  0  0  0  0  0  0  0
    2.7874    1.0278   -1.3682 C   0  0  0  0  0  0  0  0  0  0  0  0
    2.6032    1.7437   -2.5206 O   0  0  0  0  0  0  0  0  0  0  0  0
    1.8573    0.2424   -0.7225 C   0  0  0  0  0  0  0  0  0  0  0  0
    2.2245   -0.4098    0.4500 C   0  0  0  0  0  0  0  0  0  0  0  0
    3.4968   -0.3134    1.0175 C   0  0  0  0  0  0  0  0  0  0  0  0
    3.8232   -0.9788    2.1889 O   0  0  0  0  0  0  0  0  0  0  0  0
    0.5499    0.0404   -1.3120 C   0  0  0  0  0  0  0  0  0  0  0  0
    0.4434    0.3045   -2.5765 O   0  0  0  0  0  0  0  0  0  0  0  0
   -0.6354   -0.4038   -0.6977 N   0  0  0  0  0  0  0  0  0  0  0  0
   -1.8827   -0.5841   -1.4755 C   0  0  0  0  0  0  0  0  0  0  0  0
   -2.9293   -0.3583   -0.4635 C   0  0  0  0  0  0  0  0  0  0  0  0
   -4.2960   -0.0993   -0.6166 C   0  0  0  0  0  0  0  0  0  0  0  0
   -5.0770    0.0729    0.5006 C   0  0  0  0  0  0  0  0  0  0  0  0
   -4.5687    0.0012    1.7915 C   0  0  0  0  0  0  0  0  0  0  0  0
   -3.2158   -0.2560    1.8994 C   0  0  0  0  0  0  0  0  0  0  0  0
   -2.4028   -0.4338    0.7998 C   0  0  0  0  0  0  0  0  0  0  0  0
   -0.9171   -0.7162    0.6755 C   0  0  0  0  0  0  0  0  0  0  0  0
    6.3615    1.1802    0.3963 H   0  0  0  0  0  0  0  0  0  0  0  0
    4.7970    1.7413   -1.3094 H   0  0  0  0  0  0  0  0  0  0  0  0
    1.8314    1.8561   -3.0620 H   0  0  0  0  0  0  0  0  0  0  0  0
    1.5512   -1.0523    0.9834 H   0  0  0  0  0  0  0  0  0  0  0  0
    3.1943   -1.5549    2.6940 H   0  0  0  0  0  0  0  0  0  0  0  0
   -1.8960   -1.6669   -1.7265 H   0  0  0  0  0  0  0  0  0  0  0  0
   -1.9238    0.0817   -2.3352 H   0  0  0  0  0  0  0  0  0  0  0  0
   -4.6930   -0.0433   -1.6237 H   0  0  0  0  0  0  0  0  0  0  0  0
   -6.1482    0.2757    0.3724 H   0  0  0  0  0  0  0  0  0  0  0  0
   -5.2036    0.1404    2.6662 H   0  0  0  0  0  0  0  0  0  0  0  0
   -2.7874   -0.3182    2.8986 H   0  0  0  0  0  0  0  0  0  0  0  0
   -0.4594    0.0590    1.3340 H   0  0  0  0  0  0  0  0  0  0  0  0
   -0.7050   -1.7488    0.9569 H   0  0  0  0  0  0  0  0  0  0  0  0
  1  2  1  0
  2  3  2  0
  3  4  1  0
  4  5  1  0
  4  6  2  0
  6  7  1  0
  7  8  2  0
  8  9  1  0
  6 10  1  0
 10 11  2  0
 10 12  1  0
 12 13  1  0
 13 14  1  0
 14 15  2  0
 15 16  1  0
 16 17  2  0
 17 18  1  0
 18 19  2  0
 19 20  1  0
  8  2  1  0
 20 12  1  0
 19 14  1  0
  1 21  1  0
  3 22  1  0
  5 23  1  0
  7 24  1  0
  9 25  1  0
 13 26  1  0
 13 27  1  0
 15 28  1  0
 16 29  1  0
 17 30  1  0
 18 31  1  0
 20 32  1  0
 20 33  1  0
M  END
$$$$
[H]OC(=O)[C@@]1([H])C([H])([H])C([H])([H])[C@@]2([H])[C@]3([H])C([H])([H])C([H])([H])C4=C([H])C(=O)C([H])([H])C([H])([H])[C@]4(C([H])([H])[H])[C@@]3([H])C([H])([H])C([H])([H])[C@]12C([H])([H])[H]
     RDKit          3D

 51 54  0  0  0  0  0  0  0  0999 V2000
    2.1052    0.6234    1.6713 C   0  0  0  0  0  0  0  0  0  0  0  0
    2.0947    0.5006    0.1852 C   0  0  2  0  0  0  0  0  0  0  0  0
    1.3621    1.6228   -0.4753 C   0  0  0  0  0  0  0  0  0  0  0  0
   -0.0607    1.5987    0.0595 C   0  0  0  0  0  0  0  0  0  0  0  0
   -0.7245    0.3079   -0.2956 C   0  0  1  0  0  0  0  0  0  0  0  0
    0.0112   -0.9121    0.2106 C   0  0  1  0  0  0  0  0  0  0  0  0
   -0.5936   -2.0879   -0.5401 C   0  0  0  0  0  0  0  0  0  0  0  0
   -2.0598   -2.1700   -0.4884 C   0  0  0  0  0  0  0  0  0  0  0  0
   -2.7936   -0.9032   -0.2774 C   0  0  0  0  0  0  0  0  0  0  0  0
   -4.0628   -0.8776   -0.6298 C   0  0  0  0  0  0  0  0  0  0  0  0
   -4.8690    0.3233   -0.4610 C   0  0  0  0  0  0  0  0  0  0  0  0
   -6.0330    0.4337   -0.9172 O   0  0  0  0  0  0  0  0  0  0  0  0
   -4.2996    1.4724    0.2809 C   0  0  0  0  0  0  0  0  0  0  0  0
   -2.8084    1.5665    0.1345 C   0  0  0  0  0  0  0  0  0  0  0  0
   -2.1158    0.2589    0.3027 C   0  0  2  0  0  0  0  0  0  0  0  0
   -2.0112   -0.0006    1.8115 C   0  0  0  0  0  0  0  0  0  0  0  0
    1.4268   -0.8273   -0.1842 C   0  0  2  0  0  0  0  0  0  0  0  0
    2.3619   -1.7886    0.4544 C   0  0  0  0  0  0  0  0  0  0  0  0
    3.7248   -1.1711    0.1564 C   0  0  0  0  0  0  0  0  0  0  0  0
    3.4466    0.2139   -0.4037 C   0  0  2  0  0  0  0  0  0  0  0  0
    4.4730    1.1950   -0.0339 C   0  0  0  0  0  0  0  0  0  0  0  0
    5.7552    1.0101   -0.5331 O   0  0  0  0  0  0  0  0  0  0  0  0
    4.2265    2.1639    0.6982 O   0  0  0  0  0  0  0  0  0  0  0  0
    3.0232    0.2090    2.1349 H   0  0  0  0  0  0  0  0  0  0  0  0
    2.0506    1.7238    1.9165 H   0  0  0  0  0  0  0  0  0  0  0  0
    1.2478    0.1432    2.1752 H   0  0  0  0  0  0  0  0  0  0  0  0
    1.8493    2.5784   -0.1861 H   0  0  0  0  0  0  0  0  0  0  0  0
    1.3579    1.4479   -1.5580 H   0  0  0  0  0  0  0  0  0  0  0  0
   -0.6036    2.4136   -0.4280 H   0  0  0  0  0  0  0  0  0  0  0  0
   -0.0472    1.8181    1.1455 H   0  0  0  0  0  0  0  0  0  0  0  0
   -0.8073    0.2342   -1.3793 H   0  0  0  0  0  0  0  0  0  0  0  0
   -0.1471   -1.0669    1.3124 H   0  0  0  0  0  0  0  0  0  0  0  0
   -0.2020   -2.0106   -1.5888 H   0  0  0  0  0  0  0  0  0  0  0  0
   -0.1201   -3.0116   -0.1255 H   0  0  0  0  0  0  0  0  0  0  0  0
   -2.4137   -2.9305    0.2667 H   0  0  0  0  0  0  0  0  0  0  0  0
   -2.4209   -2.5823   -1.4748 H   0  0  0  0  0  0  0  0  0  0  0  0
   -4.5199   -1.7747   -1.0572 H   0  0  0  0  0  0  0  0  0  0  0  0
   -4.6415    1.4004    1.3299 H   0  0  0  0  0  0  0  0  0  0  0  0
   -4.7293    2.3998   -0.1502 H   0  0  0  0  0  0  0  0  0  0  0  0
   -2.4265    2.2586    0.9310 H   0  0  0  0  0  0  0  0  0  0  0  0
   -2.5722    2.0693   -0.8327 H   0  0  0  0  0  0  0  0  0  0  0  0
   -2.0645   -1.0882    2.0094 H   0  0  0  0  0  0  0  0  0  0  0  0
   -1.1274    0.4787    2.2401 H   0  0  0  0  0  0  0  0  0  0  0  0
   -2.9498    0.4262    2.2671 H   0  0  0  0  0  0  0  0  0  0  0  0
    1.5084   -0.9307   -1.2795 H   0  0  0  0  0  0  0  0  0  0  0  0
    2.2616   -2.7799   -0.0520 H   0  0  0  0  0  0  0  0  0  0  0  0
    2.2115   -1.9007    1.5470 H   0  0  0  0  0  0  0  0  0  0  0  0
    4.2183   -1.8142   -0.6238 H   0  0  0  0  0  0  0  0  0  0  0  0
    4.3642   -1.1363    1.0433 H   0  0  0  0  0  0  0  0  0  0  0  0
    3.3243    0.0981   -1.4909 H   0  0  0  0  0  0  0  0  0  0  0  0
    5.8200    0.7746   -1.5326 H   0  0  0  0  0  0  0  0  0  0  0  0
  2  1  1  1
  2  3  1  0
  3  4  1  0
  4  5  1  0
  5  6  1  0
  6  7  1  0
  7  8  1  0
  8  9  1  0
  9 10  2  0
 10 11  1  0
 11 12  2  0
 11 13  1  0
 13 14  1  0
 14 15  1  0
 15 16  1  1
  6 17  1  0
 17 18  1  0
 18 19  1  0
 19 20  1  0
 20 21  1  0
 21 22  1  0
 21 23  2  0
 17  2  1  0
 20  2  1  0
 15  5  1  0
 15  9  1  0
  1 24  1  0
  1 25  1  0
  1 26  1  0
  3 27  1  0
  3 28  1  0
  4 29  1  0
  4 30  1  0
  5 31  1  6
  6 32  1  1
  7 33  1  0
  7 34  1  0
  8 35  1  0
  8 36  1  0
 10 37  1  0
 13 38  1  0
 13 39  1  0
 14 40  1  0
 14 41  1  0
 16 42  1  0
 16 43  1  0
 16 44  1  0
 17 45  1  6
 18 46  1  0
 18 47  1  0
 19 48  1  0
 19 49  1  0
 20 50  1  6
 22 51  1  0
M  END
$$$$
[H]c1nc(N2C([H])([H])C([H])([H])N(c3nc(N4C([H])([H])C([H])([H])C(F)(F)C([H])([H])C4([H])[H])nc(C(F)(F)F)c3[H])[C@@]([H])(C([H])([H])[H])C2([H])[H])c([H])c(C#N)c1[H]
     RDKit          3D

 55 58  0  0  0  0  0  0  0  0999 V2000
    1.2864   -0.7906    1.6299 C   0  0  0  0  0  0  0  0  0  0  0  0
    1.2169    0.0969    0.3825 C   0  0  1  0  0  0  0  0  0  0  0  0
    2.4661    0.8140    0.0951 C   0  0  0  0  0  0  0  0  0  0  0  0
    3.4308    0.0064   -0.6458 N   0  0  0  0  0  0  0  0  0  0  0  0
    3.0776   -0.9714   -1.6118 C   0  0  0  0  0  0  0  0  0  0  0  0
    1.5801   -1.1353   -1.8125 C   0  0  0  0  0  0  0  0  0  0  0  0
    0.7745   -0.7621   -0.7305 N   0  0  0  0  0  0  0  0  0  0  0  0
   -0.5774   -1.1536   -0.5866 C   0  0  0  0  0  0  0  0  0  0  0  0
   -0.9780   -2.4558   -0.5619 C   0  0  0  0  0  0  0  0  0  0  0  0
   -2.3286   -2.7592   -0.3599 C   0  0  0  0  0  0  0  0  0  0  0  0
   -3.2029   -1.7531   -0.2005 N   0  0  0  0  0  0  0  0  0  0  0  0
   -2.8075   -0.4894   -0.2280 C   0  0  0  0  0  0  0  0  0  0  0  0
   -1.5241   -0.1983   -0.4154 N   0  0  0  0  0  0  0  0  0  0  0  0
   -3.7225    0.6146   -0.0621 N   0  0  0  0  0  0  0  0  0  0  0  0
   -4.7024    0.8549   -1.0741 C   0  0  0  0  0  0  0  0  0  0  0  0
   -5.8712    1.6572   -0.6648 C   0  0  0  0  0  0  0  0  0  0  0  0
   -6.0124    2.0068    0.7602 C   0  0  0  0  0  0  0  0  0  0  0  0
   -5.9202    3.3924    0.9656 F   0  0  0  0  0  0  0  0  0  0  0  0
   -7.2992    1.6777    1.2184 F   0  0  0  0  0  0  0  0  0  0  0  0
   -5.0553    1.3704    1.7017 C   0  0  0  0  0  0  0  0  0  0  0  0
   -3.6364    1.4392    1.1259 C   0  0  0  0  0  0  0  0  0  0  0  0
   -2.8075   -4.1624   -0.2819 C   0  0  0  0  0  0  0  0  0  0  0  0
   -3.8349   -4.3836   -1.1360 F   0  0  0  0  0  0  0  0  0  0  0  0
   -3.2624   -4.3418    1.0322 F   0  0  0  0  0  0  0  0  0  0  0  0
   -1.7707   -5.0636   -0.4738 F   0  0  0  0  0  0  0  0  0  0  0  0
    4.7897    0.2900   -0.3301 C   0  0  0  0  0  0  0  0  0  0  0  0
    5.1702    1.5784    0.0422 C   0  0  0  0  0  0  0  0  0  0  0  0
    6.4435    1.9230    0.4030 C   0  0  0  0  0  0  0  0  0  0  0  0
    7.4147    0.9551    0.4018 C   0  0  0  0  0  0  0  0  0  0  0  0
    7.0217   -0.3129    0.0311 C   0  0  0  0  0  0  0  0  0  0  0  0
    5.7593   -0.6355   -0.3227 N   0  0  0  0  0  0  0  0  0  0  0  0
    6.7786    3.2640    0.7730 C   0  0  0  0  0  0  0  0  0  0  0  0
    7.0351    4.3578    1.0502 N   0  0  0  0  0  0  0  0  0  0  0  0
    1.1734   -0.1596    2.5240 H   0  0  0  0  0  0  0  0  0  0  0  0
    2.2257   -1.3210    1.6999 H   0  0  0  0  0  0  0  0  0  0  0  0
    0.4168   -1.4893    1.6105 H   0  0  0  0  0  0  0  0  0  0  0  0
    0.4011    0.8150    0.5566 H   0  0  0  0  0  0  0  0  0  0  0  0
    2.3519    1.7828   -0.4116 H   0  0  0  0  0  0  0  0  0  0  0  0
    2.9452    1.0327    1.1058 H   0  0  0  0  0  0  0  0  0  0  0  0
    3.5297   -1.9717   -1.3694 H   0  0  0  0  0  0  0  0  0  0  0  0
    3.4989   -0.7089   -2.6162 H   0  0  0  0  0  0  0  0  0  0  0  0
    1.4228   -2.2054   -2.1355 H   0  0  0  0  0  0  0  0  0  0  0  0
    1.2966   -0.5524   -2.7453 H   0  0  0  0  0  0  0  0  0  0  0  0
   -0.3013   -3.2991   -0.6833 H   0  0  0  0  0  0  0  0  0  0  0  0
   -4.9882   -0.1123   -1.5285 H   0  0  0  0  0  0  0  0  0  0  0  0
   -4.1372    1.3790   -1.9105 H   0  0  0  0  0  0  0  0  0  0  0  0
   -6.7976    1.1180   -1.0174 H   0  0  0  0  0  0  0  0  0  0  0  0
   -5.8869    2.6165   -1.2552 H   0  0  0  0  0  0  0  0  0  0  0  0
   -5.3020    0.3081    1.9023 H   0  0  0  0  0  0  0  0  0  0  0  0
   -5.1094    1.8953    2.6806 H   0  0  0  0  0  0  0  0  0  0  0  0
   -2.9124    1.0015    1.8255 H   0  0  0  0  0  0  0  0  0  0  0  0
   -3.4178    2.5017    0.9064 H   0  0  0  0  0  0  0  0  0  0  0  0
    4.3846    2.3350    0.0278 H   0  0  0  0  0  0  0  0  0  0  0  0
    8.4537    1.1608    0.6583 H   0  0  0  0  0  0  0  0  0  0  0  0
    7.8208   -1.0571    0.0607 H   0  0  0  0  0  0  0  0  0  0  0  0
  1  2  1  0
  2  3  1  0
  3  4  1  0
  4  5  1  0
  5  6  1  0
  6  7  1  0
  7  8  1  0
  8  9  2  0
  9 10  1  0
 10 11  2  0
 11 12  1  0
 12 13  2  0
 12 14  1  0
 14 15  1  0
 15 16  1  0
 16 17  1  0
 17 18  1  0
 17 19  1  0
 17 20  1  0
 20 21  1  0
 10 22  1  0
 22 23  1  0
 22 24  1  0
 22 25  1  0
  4 26  1  0
 26 27  2  0
 27 28  1  0
 28 29  2  0
 29 30  1  0
 30 31  2  0
 28 32  1  0
 32 33  3  0
  7  2  1  0
 13  8  1  0
 21 14  1  0
 31 26  1  0
  1 34  1  0
  1 35  1  0
  1 36  1  0
  2 37  1  1
  3 38  1  0
  3 39  1  0
  5 40  1  0
  5 41  1  0
  6 42  1  0
  6 43  1  0
  9 44  1  0
 15 45  1  0
 15 46  1  0
 16 47  1  0
 16 48  1  0
 20 49  1  0
 20 50  1  0
 21 51  1  0
 21 52  1  0
 27 53  1  0
 29 54  1  0
 30 55  1  0
M  END
$$$$
[H]Oc1c([H])c(O[H])c(C([H])(C([H])([H])[H])C([H])([H])[H])c([H])c1C(=O)N1c2c([H])c([H])c(N([H])C(=O)C([H])([H])C([H])([H])C([H])([H])C([H])([H])C([H])([H])C([H])([H])C(=O)N([H])O[H])c([H])c2C([H])([H])C1([H])[H]
     RDKit          3D

 68 70  0  0  0  0  0  0  0  0999 V2000
   -7.2724    1.4489   -1.8242 C   0  0  0  0  0  0  0  0  0  0  0  0
   -8.1836    1.3216   -0.6281 C   0  0  0  0  0  0  0  0  0  0  0  0
   -8.4150    2.7129   -0.0469 C   0  0  0  0  0  0  0  0  0  0  0  0
   -7.5318    0.4925    0.3987 C   0  0  0  0  0  0  0  0  0  0  0  0
   -6.1778    0.1607    0.3100 C   0  0  0  0  0  0  0  0  0  0  0  0
   -5.5049   -0.6006    1.2473 C   0  0  0  0  0  0  0  0  0  0  0  0
   -4.0925   -0.8113    1.1178 C   0  0  0  0  0  0  0  0  0  0  0  0
   -3.4667   -1.0756    2.1976 O   0  0  0  0  0  0  0  0  0  0  0  0
   -3.3354   -0.7578   -0.0809 N   0  0  0  0  0  0  0  0  0  0  0  0
   -3.6975   -0.7149   -1.4573 C   0  0  0  0  0  0  0  0  0  0  0  0
   -2.6009   -1.5331   -2.1653 C   0  0  0  0  0  0  0  0  0  0  0  0
   -1.4201   -1.2524   -1.2871 C   0  0  0  0  0  0  0  0  0  0  0  0
   -0.0834   -1.3909   -1.5564 C   0  0  0  0  0  0  0  0  0  0  0  0
    0.8913   -1.0716   -0.6005 C   0  0  0  0  0  0  0  0  0  0  0  0
    2.2636   -1.2247   -0.9140 N   0  0  0  0  0  0  0  0  0  0  0  0
    3.3584   -1.0207   -0.0764 C   0  0  0  0  0  0  0  0  0  0  0  0
    3.3182   -0.6556    1.1359 O   0  0  0  0  0  0  0  0  0  0  0  0
    4.7235   -1.2638   -0.6897 C   0  0  0  0  0  0  0  0  0  0  0  0
    5.7477   -1.0099    0.3828 C   0  0  0  0  0  0  0  0  0  0  0  0
    7.1495   -1.2165   -0.0876 C   0  0  0  0  0  0  0  0  0  0  0  0
    7.5439   -0.3065   -1.2403 C   0  0  0  0  0  0  0  0  0  0  0  0
    7.4470    1.1334   -0.8902 C   0  0  0  0  0  0  0  0  0  0  0  0
    8.2743    1.6130    0.2419 C   0  0  0  0  0  0  0  0  0  0  0  0
    9.7141    1.4648    0.0461 C   0  0  0  0  0  0  0  0  0  0  0  0
   10.1728    1.0317   -1.0300 O   0  0  0  0  0  0  0  0  0  0  0  0
   10.6540    1.8041    1.0639 N   0  0  0  0  0  0  0  0  0  0  0  0
   11.9675    1.6630    0.8711 O   0  0  0  0  0  0  0  0  0  0  0  0
    0.4015   -0.6176    0.6021 C   0  0  0  0  0  0  0  0  0  0  0  0
   -0.9575   -0.4733    0.8856 C   0  0  0  0  0  0  0  0  0  0  0  0
   -1.8862   -0.7979   -0.0799 C   0  0  0  0  0  0  0  0  0  0  0  0
   -6.2521   -1.0392    2.3203 C   0  0  0  0  0  0  0  0  0  0  0  0
   -5.7615   -1.7978    3.3280 O   0  0  0  0  0  0  0  0  0  0  0  0
   -7.6265   -0.7046    2.4169 C   0  0  0  0  0  0  0  0  0  0  0  0
   -8.2462    0.0446    1.4732 C   0  0  0  0  0  0  0  0  0  0  0  0
   -9.6096    0.3756    1.5663 O   0  0  0  0  0  0  0  0  0  0  0  0
   -6.4116    2.0875   -1.5507 H   0  0  0  0  0  0  0  0  0  0  0  0
   -6.8970    0.4336   -2.0699 H   0  0  0  0  0  0  0  0  0  0  0  0
   -7.8240    1.8799   -2.7020 H   0  0  0  0  0  0  0  0  0  0  0  0
   -9.1497    0.8423   -0.9081 H   0  0  0  0  0  0  0  0  0  0  0  0
   -7.6390    3.3752   -0.4580 H   0  0  0  0  0  0  0  0  0  0  0  0
   -8.3637    2.6531    1.0609 H   0  0  0  0  0  0  0  0  0  0  0  0
   -9.3940    3.0946   -0.3364 H   0  0  0  0  0  0  0  0  0  0  0  0
   -5.6353    0.5609   -0.5340 H   0  0  0  0  0  0  0  0  0  0  0  0
   -4.6750   -1.1920   -1.7022 H   0  0  0  0  0  0  0  0  0  0  0  0
   -3.6963    0.3028   -1.8845 H   0  0  0  0  0  0  0  0  0  0  0  0
   -2.3821   -1.1207   -3.1544 H   0  0  0  0  0  0  0  0  0  0  0  0
   -2.8604   -2.6147   -2.1689 H   0  0  0  0  0  0  0  0  0  0  0  0
    0.2787   -1.7484   -2.5050 H   0  0  0  0  0  0  0  0  0  0  0  0
    2.4705   -1.5308   -1.9108 H   0  0  0  0  0  0  0  0  0  0  0  0
    4.8075   -0.5483   -1.5333 H   0  0  0  0  0  0  0  0  0  0  0  0
    4.7624   -2.3286   -1.0489 H   0  0  0  0  0  0  0  0  0  0  0  0
    5.5790    0.0112    0.7980 H   0  0  0  0  0  0  0  0  0  0  0  0
    5.5482   -1.7067    1.2214 H   0  0  0  0  0  0  0  0  0  0  0  0
    7.8770   -1.1991    0.7315 H   0  0  0  0  0  0  0  0  0  0  0  0
    7.1930   -2.2653   -0.5060 H   0  0  0  0  0  0  0  0  0  0  0  0
    8.5349   -0.6031   -1.5750 H   0  0  0  0  0  0  0  0  0  0  0  0
    6.7869   -0.4995   -2.0372 H   0  0  0  0  0  0  0  0  0  0  0  0
    7.8003    1.7025   -1.8038 H   0  0  0  0  0  0  0  0  0  0  0  0
    6.3904    1.4549   -0.7519 H   0  0  0  0  0  0  0  0  0  0  0  0
    8.0697    2.7004    0.3871 H   0  0  0  0  0  0  0  0  0  0  0  0
    7.9063    1.1364    1.1779 H   0  0  0  0  0  0  0  0  0  0  0  0
   10.3089    2.1697    1.9757 H   0  0  0  0  0  0  0  0  0  0  0  0
   12.4921    1.7679    1.6976 H   0  0  0  0  0  0  0  0  0  0  0  0
    1.0753   -0.3470    1.3892 H   0  0  0  0  0  0  0  0  0  0  0  0
   -1.2530   -0.1048    1.8663 H   0  0  0  0  0  0  0  0  0  0  0  0
   -4.8871   -2.1633    3.4657 H   0  0  0  0  0  0  0  0  0  0  0  0
   -8.2144   -1.0481    3.2606 H   0  0  0  0  0  0  0  0  0  0  0  0
  -10.1044    0.9172    0.8910 H   0  0  0  0  0  0  0  0  0  0  0  0
  1  2  1  0
  2  3  1  0
  2  4  1  0
  4  5  2  0
  5  6  1  0
  6  7  1  0
  7  8  2  0
  7  9  1  0
  9 10  1  0
 10 11  1  0
 11 12  1  0
 12 13  2  0
 13 14  1  0
 14 15  1  0
 15 16  1  0
 16 17  2  0
 16 18  1  0
 18 19  1  0
 19 20  1  0
 20 21  1  0
 21 22  1  0
 22 23  1  0
 23 24  1  0
 24 25  2  0
 24 26  1  0
 26 27  1  0
 14 28  2  0
 28 29  1  0
 29 30  2  0
  6 31  2  0
 31 32  1  0
 31 33  1  0
 33 34  2  0
 34 35  1  0
 34  4  1  0
 30  9  1  0
 30 12  1  0
  1 36  1  0
  1 37  1  0
  1 38  1  0
  2 39  1  0
  3 40  1  0
  3 41  1  0
  3 42  1  0
  5 43  1  0
 10 44  1  0
 10 45  1  0
 11 46  1  0
 11 47  1  0
 13 48  1  0
 15 49  1  0
 18 50  1  0
 18 51  1  0
 19 52  1  0
 19 53  1  0
 20 54  1  0
 20 55  1  0
 21 56  1  0
 21 57  1  0
 22 58  1  0
 22 59  1  0
 23 60  1  0
 23 61  1  0
 26 62  1  0
 27 63  1  0
 28 64  1  0
 29 65  1  0
 32 66  1  0
 33 67  1  0
 35 68  1  0
M  END
$$$$
[H]c1c(N([H])c2c([H])c(C([H])([H])[H])nn2[H])nc(Sc2c([H])c([H])c(N([H])C(=O)C3([H])C([H])([H])C3([H])[H])c([H])c2Cl)nc1N1C([H])([H])C([H])([H])N(C([H])([H])[H])C([H])([H])C1([H])[H]
     RDKit          3D

 61 65  0  0  0  0  0  0  0  0999 V2000
   -4.4746   -5.9679   -0.8681 C   0  0  0  0  0  0  0  0  0  0  0  0
   -4.0838   -4.6113   -0.6283 N   0  0  0  0  0  0  0  0  0  0  0  0
   -5.0811   -3.8211    0.0495 C   0  0  0  0  0  0  0  0  0  0  0  0
   -4.6448   -2.3607   -0.1239 C   0  0  0  0  0  0  0  0  0  0  0  0
   -3.3682   -2.2049    0.5309 N   0  0  0  0  0  0  0  0  0  0  0  0
   -2.6781   -3.3834    0.9931 C   0  0  0  0  0  0  0  0  0  0  0  0
   -2.8789   -4.5976    0.1534 C   0  0  0  0  0  0  0  0  0  0  0  0
   -2.7533   -0.9399    0.7459 C   0  0  0  0  0  0  0  0  0  0  0  0
   -3.4193    0.1791    0.3044 C   0  0  0  0  0  0  0  0  0  0  0  0
   -2.8226    1.4476    0.5087 C   0  0  0  0  0  0  0  0  0  0  0  0
   -3.5443    2.5678    0.0378 N   0  0  0  0  0  0  0  0  0  0  0  0
   -3.0899    3.8869    0.1635 C   0  0  0  0  0  0  0  0  0  0  0  0
   -3.7975    5.0154   -0.3007 C   0  0  0  0  0  0  0  0  0  0  0  0
   -3.0543    6.1053   -0.0051 C   0  0  0  0  0  0  0  0  0  0  0  0
   -3.4189    7.5284   -0.3154 C   0  0  0  0  0  0  0  0  0  0  0  0
   -1.9485    5.6803    0.6074 N   0  0  0  0  0  0  0  0  0  0  0  0
   -1.9622    4.3381    0.7136 N   0  0  0  0  0  0  0  0  0  0  0  0
   -1.6479    1.4793    1.1190 N   0  0  0  0  0  0  0  0  0  0  0  0
   -0.9844    0.4154    1.5554 C   0  0  0  0  0  0  0  0  0  0  0  0
    0.5534    0.4471    2.4069 S   0  0  0  0  0  0  0  0  0  0  0  0
    2.0080    0.3764    1.4300 C   0  0  0  0  0  0  0  0  0  0  0  0
    3.2325    0.4156    2.0800 C   0  0  0  0  0  0  0  0  0  0  0  0
    4.4512    0.3620    1.3766 C   0  0  0  0  0  0  0  0  0  0  0  0
    4.4616    0.2682    0.0172 C   0  0  0  0  0  0  0  0  0  0  0  0
    5.6435    0.1959   -0.7275 N   0  0  0  0  0  0  0  0  0  0  0  0
    6.9493   -0.0187   -0.2620 C   0  0  0  0  0  0  0  0  0  0  0  0
    7.2881   -0.1901    0.9267 O   0  0  0  0  0  0  0  0  0  0  0  0
    8.0873   -0.0541   -1.2547 C   0  0  0  0  0  0  0  0  0  0  0  0
    9.3656    0.5821   -0.7704 C   0  0  0  0  0  0  0  0  0  0  0  0
    9.2628   -0.9260   -0.9415 C   0  0  0  0  0  0  0  0  0  0  0  0
    3.2288    0.2282   -0.6463 C   0  0  0  0  0  0  0  0  0  0  0  0
    2.0529    0.2828    0.0713 C   0  0  0  0  0  0  0  0  0  0  0  0
    0.5738    0.2220   -0.8582 Cl  0  0  0  0  0  0  0  0  0  0  0  0
   -1.5713   -0.8004    1.3509 N   0  0  0  0  0  0  0  0  0  0  0  0
   -5.5197   -6.1749   -0.5477 H   0  0  0  0  0  0  0  0  0  0  0  0
   -4.4300   -6.1303   -1.9753 H   0  0  0  0  0  0  0  0  0  0  0  0
   -3.7589   -6.6699   -0.4235 H   0  0  0  0  0  0  0  0  0  0  0  0
   -5.1325   -4.0342    1.1286 H   0  0  0  0  0  0  0  0  0  0  0  0
   -6.0928   -3.9579   -0.3681 H   0  0  0  0  0  0  0  0  0  0  0  0
   -5.4122   -1.6650    0.2409 H   0  0  0  0  0  0  0  0  0  0  0  0
   -4.5705   -2.2007   -1.2236 H   0  0  0  0  0  0  0  0  0  0  0  0
   -1.5761   -3.1540    0.9650 H   0  0  0  0  0  0  0  0  0  0  0  0
   -2.9663   -3.5369    2.0568 H   0  0  0  0  0  0  0  0  0  0  0  0
   -2.9179   -5.4838    0.8525 H   0  0  0  0  0  0  0  0  0  0  0  0
   -2.0010   -4.8093   -0.5057 H   0  0  0  0  0  0  0  0  0  0  0  0
   -4.3722    0.1229   -0.1879 H   0  0  0  0  0  0  0  0  0  0  0  0
   -4.4900    2.4211   -0.4429 H   0  0  0  0  0  0  0  0  0  0  0  0
   -4.7601    4.9833   -0.8000 H   0  0  0  0  0  0  0  0  0  0  0  0
   -2.5141    8.1233   -0.5520 H   0  0  0  0  0  0  0  0  0  0  0  0
   -3.9550    7.9098    0.5761 H   0  0  0  0  0  0  0  0  0  0  0  0
   -4.0502    7.5114   -1.2076 H   0  0  0  0  0  0  0  0  0  0  0  0
   -1.1668    3.8264    1.1716 H   0  0  0  0  0  0  0  0  0  0  0  0
    3.2466    0.4893    3.1548 H   0  0  0  0  0  0  0  0  0  0  0  0
    5.3631    0.4076    1.9638 H   0  0  0  0  0  0  0  0  0  0  0  0
    5.5333    0.3239   -1.7813 H   0  0  0  0  0  0  0  0  0  0  0  0
    7.8409    0.0927   -2.3250 H   0  0  0  0  0  0  0  0  0  0  0  0
    9.9918    1.1248   -1.5016 H   0  0  0  0  0  0  0  0  0  0  0  0
    9.3870    1.0116    0.2354 H   0  0  0  0  0  0  0  0  0  0  0  0
    9.8295   -1.3506   -1.8080 H   0  0  0  0  0  0  0  0  0  0  0  0
    9.3181   -1.4827    0.0115 H   0  0  0  0  0  0  0  0  0  0  0  0
    3.2412    0.1541   -1.7145 H   0  0  0  0  0  0  0  0  0  0  0  0
  1  2  1  0
  2  3  1  0
  3  4  1  0
  4  5  1  0
  5  6  1  0
  6  7  1  0
  5  8  1  0
  8  9  2  0
  9 10  1  0
 10 11  1  0
 11 12  1  0
 12 13  2  0
 13 14  1  0
 14 15  1  0
 14 16  2  0
 16 17  1  0
 10 18  2  0
 18 19  1  0
 19 20  1  0
 20 21  1  0
 21 22  2  0
 22 23  1  0
 23 24  2  0
 24 25  1  0
 25 26  1  0
 26 27  2  0
 26 28  1  0
 28 29  1  0
 29 30  1  0
 24 31  1  0
 31 32  2  0
 32 33  1  0
 19 34  2  0
  7  2  1  0
 34  8  1  0
 17 12  1  0
 32 21  1  0
 30 28  1  0
  1 35  1  0
  1 36  1  0
  1 37  1  0
  3 38  1  0
  3 39  1  0
  4 40  1  0
  4 41  1  0
  6 42  1  0
  6 43  1  0
  7 44  1  0
  7 45  1  0
  9 46  1  0
 11 47  1  0
 13 48  1  0
 15 49  1  0
 15 50  1  0
 15 51  1  0
 17 52  1  0
 22 53  1  0
 23 54  1  0
 25 55  1  0
 28 56  1  0
 29 57  1  0
 29 58  1  0
 30 59  1  0
 30 60  1  0
 31 61  1  0
M  END
$$$$
[H]c1nc2c([H])c(OC([H])([H])C([H])([H])C([H])([H])N3C([H])([H])C([H])([H])C([H])([H])C([H])([H])C3([H])[H])c(OC([H])([H])[H])c([H])c2c(Oc2c([H])c([H])c(N([H])C(=O)C3(C(=O)N([H])c4c([H])c([H])c(F)c([H])c4[H])C([H])([H])C3([H])[H])c([H])c2F)c1[H]
     RDKit          3D

 82 87  0  0  0  0  0  0  0  0999 V2000
   -1.9209   -1.3333    3.0451 C   0  0  0  0  0  0  0  0  0  0  0  0
   -2.9832   -1.7818    2.2281 O   0  0  0  0  0  0  0  0  0  0  0  0
   -2.8786   -1.6448    0.8580 C   0  0  0  0  0  0  0  0  0  0  0  0
   -1.7316   -1.0680    0.2922 C   0  0  0  0  0  0  0  0  0  0  0  0
   -1.6665   -0.9491   -1.0819 C   0  0  0  0  0  0  0  0  0  0  0  0
   -0.4802   -0.3771   -1.6175 C   0  0  0  0  0  0  0  0  0  0  0  0
    0.4285   -0.0147   -0.7289 O   0  0  0  0  0  0  0  0  0  0  0  0
    1.6944    0.3930   -0.6360 C   0  0  0  0  0  0  0  0  0  0  0  0
    2.6188    0.4301   -1.6541 C   0  0  0  0  0  0  0  0  0  0  0  0
    3.9313    0.8745   -1.4820 C   0  0  0  0  0  0  0  0  0  0  0  0
    4.3763    1.3085   -0.2501 C   0  0  0  0  0  0  0  0  0  0  0  0
    5.7351    1.7029   -0.0852 N   0  0  0  0  0  0  0  0  0  0  0  0
    6.2268    2.6374    0.8165 C   0  0  0  0  0  0  0  0  0  0  0  0
    5.4560    3.2770    1.5746 O   0  0  0  0  0  0  0  0  0  0  0  0
    7.6644    2.9391    0.9238 C   0  0  0  0  0  0  0  0  0  0  0  0
    8.1038    4.3298    0.5798 C   0  0  0  0  0  0  0  0  0  0  0  0
    8.0915    3.9269    1.9833 C   0  0  0  0  0  0  0  0  0  0  0  0
    8.6209    1.8678    0.5623 C   0  0  0  0  0  0  0  0  0  0  0  0
    9.7692    2.2424    0.1832 O   0  0  0  0  0  0  0  0  0  0  0  0
    8.2825    0.5106    0.6434 N   0  0  0  0  0  0  0  0  0  0  0  0
    9.0724   -0.5986    0.3022 C   0  0  0  0  0  0  0  0  0  0  0  0
   10.2084   -0.5630   -0.4349 C   0  0  0  0  0  0  0  0  0  0  0  0
   10.9465   -1.7016   -0.7351 C   0  0  0  0  0  0  0  0  0  0  0  0
   10.4906   -2.9056   -0.2570 C   0  0  0  0  0  0  0  0  0  0  0  0
   11.1446   -4.0908   -0.4983 F   0  0  0  0  0  0  0  0  0  0  0  0
    9.3451   -2.9715    0.4910 C   0  0  0  0  0  0  0  0  0  0  0  0
    8.6479   -1.8328    0.7652 C   0  0  0  0  0  0  0  0  0  0  0  0
    3.4672    1.2778    0.7745 C   0  0  0  0  0  0  0  0  0  0  0  0
    2.1764    0.8442    0.6174 C   0  0  0  0  0  0  0  0  0  0  0  0
    1.3271    0.8450    1.6680 F   0  0  0  0  0  0  0  0  0  0  0  0
   -0.4426   -0.2893   -2.9832 C   0  0  0  0  0  0  0  0  0  0  0  0
   -1.5048   -0.7395   -3.7466 C   0  0  0  0  0  0  0  0  0  0  0  0
   -2.6043   -1.2729   -3.2053 N   0  0  0  0  0  0  0  0  0  0  0  0
   -2.6929   -1.3815   -1.8816 C   0  0  0  0  0  0  0  0  0  0  0  0
   -3.8279   -1.9550   -1.2977 C   0  0  0  0  0  0  0  0  0  0  0  0
   -3.9356   -2.0931    0.0657 C   0  0  0  0  0  0  0  0  0  0  0  0
   -4.9932   -2.6329    0.7070 O   0  0  0  0  0  0  0  0  0  0  0  0
   -6.1911   -3.1449    0.2709 C   0  0  0  0  0  0  0  0  0  0  0  0
   -7.1260   -2.1894   -0.4224 C   0  0  0  0  0  0  0  0  0  0  0  0
   -7.4688   -1.0934    0.5689 C   0  0  0  0  0  0  0  0  0  0  0  0
   -8.3291   -0.1089    0.0669 N   0  0  0  0  0  0  0  0  0  0  0  0
   -9.6473   -0.4624   -0.2620 C   0  0  0  0  0  0  0  0  0  0  0  0
  -10.5141    0.6511   -0.7176 C   0  0  0  0  0  0  0  0  0  0  0  0
  -10.0079    2.0229   -0.4173 C   0  0  0  0  0  0  0  0  0  0  0  0
   -8.5212    2.1759   -0.4928 C   0  0  0  0  0  0  0  0  0  0  0  0
   -7.8145    0.8762   -0.8225 C   0  0  0  0  0  0  0  0  0  0  0  0
   -0.9571   -1.8306    2.8366 H   0  0  0  0  0  0  0  0  0  0  0  0
   -2.2135   -1.4052    4.1324 H   0  0  0  0  0  0  0  0  0  0  0  0
   -1.7526   -0.2336    2.8951 H   0  0  0  0  0  0  0  0  0  0  0  0
   -0.9452   -0.7395    0.9402 H   0  0  0  0  0  0  0  0  0  0  0  0
    2.3175    0.0736   -2.6345 H   0  0  0  0  0  0  0  0  0  0  0  0
    4.6112    0.8751   -2.3332 H   0  0  0  0  0  0  0  0  0  0  0  0
    6.4199    1.2451   -0.7758 H   0  0  0  0  0  0  0  0  0  0  0  0
    9.0682    4.4257    0.0505 H   0  0  0  0  0  0  0  0  0  0  0  0
    7.3407    5.0399    0.2003 H   0  0  0  0  0  0  0  0  0  0  0  0
    7.3090    4.4067    2.6322 H   0  0  0  0  0  0  0  0  0  0  0  0
    8.9944    3.6337    2.5414 H   0  0  0  0  0  0  0  0  0  0  0  0
    7.3081    0.3234    1.0716 H   0  0  0  0  0  0  0  0  0  0  0  0
   10.5935    0.3593   -0.8357 H   0  0  0  0  0  0  0  0  0  0  0  0
   11.8477   -1.6521   -1.3218 H   0  0  0  0  0  0  0  0  0  0  0  0
    8.9858   -3.9396    0.8697 H   0  0  0  0  0  0  0  0  0  0  0  0
    7.7562   -1.9196    1.3508 H   0  0  0  0  0  0  0  0  0  0  0  0
    3.8168    1.6119    1.7731 H   0  0  0  0  0  0  0  0  0  0  0  0
    0.4064    0.1533   -3.4882 H   0  0  0  0  0  0  0  0  0  0  0  0
   -1.4365   -0.6527   -4.8218 H   0  0  0  0  0  0  0  0  0  0  0  0
   -4.5800   -2.2798   -1.9924 H   0  0  0  0  0  0  0  0  0  0  0  0
   -6.7356   -3.7231    1.0795 H   0  0  0  0  0  0  0  0  0  0  0  0
   -5.9359   -3.9712   -0.4667 H   0  0  0  0  0  0  0  0  0  0  0  0
   -8.0475   -2.8031   -0.6508 H   0  0  0  0  0  0  0  0  0  0  0  0
   -6.6975   -1.7771   -1.3246 H   0  0  0  0  0  0  0  0  0  0  0  0
   -6.4817   -0.5989    0.7986 H   0  0  0  0  0  0  0  0  0  0  0  0
   -7.8063   -1.5547    1.4933 H   0  0  0  0  0  0  0  0  0  0  0  0
   -9.6087   -1.2635   -1.0545 H   0  0  0  0  0  0  0  0  0  0  0  0
  -10.1067   -0.9890    0.6209 H   0  0  0  0  0  0  0  0  0  0  0  0
  -10.6583    0.5452   -1.8287 H   0  0  0  0  0  0  0  0  0  0  0  0
  -11.5245    0.5130   -0.2789 H   0  0  0  0  0  0  0  0  0  0  0  0
  -10.4700    2.7394   -1.1272 H   0  0  0  0  0  0  0  0  0  0  0  0
  -10.3387    2.3502    0.5933 H   0  0  0  0  0  0  0  0  0  0  0  0
   -8.2030    2.9114   -1.2614 H   0  0  0  0  0  0  0  0  0  0  0  0
   -8.0896    2.5269    0.4664 H   0  0  0  0  0  0  0  0  0  0  0  0
   -6.7254    1.0838   -0.6488 H   0  0  0  0  0  0  0  0  0  0  0  0
   -8.0046    0.5785   -1.8753 H   0  0  0  0  0  0  0  0  0  0  0  0
  1  2  1  0
  2  3  1  0
  3  4  2  0
  4  5  1  0
  5  6  2  0
  6  7  1  0
  7  8  1  0
  8  9  2  0
  9 10  1  0
 10 11  2  0
 11 12  1  0
 12 13  1  0
 13 14  2  0
 13 15  1  0
 15 16  1  0
 16 17  1  0
 15 18  1  0
 18 19  2  0
 18 20  1  0
 20 21  1  0
 21 22  2  0
 22 23  1  0
 23 24  2  0
 24 25  1  0
 24 26  1  0
 26 27  2  0
 11 28  1  0
 28 29  2  0
 29 30  1  0
  6 31  1  0
 31 32  2  0
 32 33  1  0
 33 34  2  0
 34 35  1  0
 35 36  2  0
 36 37  1  0
 37 38  1  0
 38 39  1  0
 39 40  1  0
 40 41  1  0
 41 42  1  0
 42 43  1  0
 43 44  1  0
 44 45  1  0
 45 46  1  0
 36  3  1  0
 46 41  1  0
 34  5  1  0
 29  8  1  0
 17 15  1  0
 27 21  1  0
  1 47  1  0
  1 48  1  0
  1 49  1  0
  4 50  1  0
  9 51  1  0
 10 52  1  0
 12 53  1  0
 16 54  1  0
 16 55  1  0
 17 56  1  0
 17 57  1  0
 20 58  1  0
 22 59  1  0
 23 60  1  0
 26 61  1  0
 27 62  1  0
 28 63  1  0
 31 64  1  0
 32 65  1  0
 35 66  1  0
 38 67  1  0
 38 68  1  0
 39 69  1  0
 39 70  1  0
 40 71  1  0
 40 72  1  0
 42 73  1  0
 42 74  1  0
 43 75  1  0
 43 76  1  0
 44 77  1  0
 44 78  1  0
 45 79  1  0
 45 80  1  0
 46 81  1  0
 46 82  1  0
M  END
$$$$
[H]c1nc2c([H])c(C(=O)N([H])C([H])([H])C([H])([H])C([H])([H])N3C([H])([H])C([H])([H])OC([H])([H])C3([H])[H])sc2c(Oc2c([H])c([H])c(N([H])C(=O)N([H])c3c([H])c(C([H])([H])[H])c([H])c([H])c3F)c(F)c2[H])c1[H]
     RDKit          3D

 70 74  0  0  0  0  0  0  0  0999 V2000
  -11.7118    3.1497    0.9322 C   0  0  0  0  0  0  0  0  0  0  0  0
  -11.7636    1.6869    0.6423 C   0  0  0  0  0  0  0  0  0  0  0  0
  -12.9330    1.0142    0.4356 C   0  0  0  0  0  0  0  0  0  0  0  0
  -12.9255   -0.3349    0.1830 C   0  0  0  0  0  0  0  0  0  0  0  0
  -11.7566   -1.0268    0.1336 C   0  0  0  0  0  0  0  0  0  0  0  0
  -11.7221   -2.3724   -0.1196 F   0  0  0  0  0  0  0  0  0  0  0  0
  -10.5435   -0.3412    0.3458 C   0  0  0  0  0  0  0  0  0  0  0  0
   -9.3827   -1.1130    0.3149 N   0  0  0  0  0  0  0  0  0  0  0  0
   -8.0528   -0.6268    0.3606 C   0  0  0  0  0  0  0  0  0  0  0  0
   -7.7452    0.5725    0.4205 O   0  0  0  0  0  0  0  0  0  0  0  0
   -6.9563   -1.5572    0.3396 N   0  0  0  0  0  0  0  0  0  0  0  0
   -5.5888   -1.2795    0.3655 C   0  0  0  0  0  0  0  0  0  0  0  0
   -5.0041   -0.0549    0.2117 C   0  0  0  0  0  0  0  0  0  0  0  0
   -3.6135    0.1025    0.2269 C   0  0  0  0  0  0  0  0  0  0  0  0
   -2.7791   -0.9588    0.3964 C   0  0  0  0  0  0  0  0  0  0  0  0
   -1.3833   -0.8348    0.4157 O   0  0  0  0  0  0  0  0  0  0  0  0
   -0.6139   -1.1090   -0.6967 C   0  0  0  0  0  0  0  0  0  0  0  0
   -1.1762   -1.5214   -1.8837 C   0  0  0  0  0  0  0  0  0  0  0  0
   -0.2600   -1.7577   -2.8989 C   0  0  0  0  0  0  0  0  0  0  0  0
    1.0424   -1.6105   -2.7750 N   0  0  0  0  0  0  0  0  0  0  0  0
    1.6242   -1.1992   -1.5989 C   0  0  0  0  0  0  0  0  0  0  0  0
    2.9439   -1.0228   -1.3802 C   0  0  0  0  0  0  0  0  0  0  0  0
    3.3194   -0.6069   -0.1334 C   0  0  0  0  0  0  0  0  0  0  0  0
    1.8340   -0.4752    0.6902 S   0  0  0  0  0  0  0  0  0  0  0  0
    0.7776   -0.9505   -0.5635 C   0  0  0  0  0  0  0  0  0  0  0  0
    4.6961   -0.3388    0.3553 C   0  0  0  0  0  0  0  0  0  0  0  0
    4.7621    0.0739    1.5351 O   0  0  0  0  0  0  0  0  0  0  0  0
    5.7951   -0.5576   -0.4972 N   0  0  0  0  0  0  0  0  0  0  0  0
    7.1715   -0.3033   -0.0582 C   0  0  0  0  0  0  0  0  0  0  0  0
    7.3538    1.1317    0.2539 C   0  0  0  0  0  0  0  0  0  0  0  0
    8.6812    1.5334    0.7639 C   0  0  0  0  0  0  0  0  0  0  0  0
    9.8279    1.3064   -0.0631 N   0  0  0  0  0  0  0  0  0  0  0  0
   10.9083    2.1150    0.5859 C   0  0  0  0  0  0  0  0  0  0  0  0
   12.1996    2.0019   -0.1447 C   0  0  0  0  0  0  0  0  0  0  0  0
   12.4778    0.6672   -0.4369 O   0  0  0  0  0  0  0  0  0  0  0  0
   11.7135   -0.1738    0.3566 C   0  0  0  0  0  0  0  0  0  0  0  0
   10.2492   -0.0866   -0.0251 C   0  0  0  0  0  0  0  0  0  0  0  0
   -3.3550   -2.2135    0.5544 C   0  0  0  0  0  0  0  0  0  0  0  0
   -4.7164   -2.3789    0.5404 C   0  0  0  0  0  0  0  0  0  0  0  0
   -5.2794   -3.6062    0.6952 F   0  0  0  0  0  0  0  0  0  0  0  0
  -10.5408    1.0002    0.5974 C   0  0  0  0  0  0  0  0  0  0  0  0
  -11.2997    3.2299    1.9633 H   0  0  0  0  0  0  0  0  0  0  0  0
  -12.7392    3.5650    0.8648 H   0  0  0  0  0  0  0  0  0  0  0  0
  -10.9983    3.6196    0.2281 H   0  0  0  0  0  0  0  0  0  0  0  0
  -13.8762    1.5194    0.4662 H   0  0  0  0  0  0  0  0  0  0  0  0
  -13.8555   -0.8971    0.0134 H   0  0  0  0  0  0  0  0  0  0  0  0
   -9.4840   -2.1722    0.2572 H   0  0  0  0  0  0  0  0  0  0  0  0
   -7.2905   -2.5813    0.2943 H   0  0  0  0  0  0  0  0  0  0  0  0
   -5.6142    0.8497    0.0570 H   0  0  0  0  0  0  0  0  0  0  0  0
   -3.2164    1.1032    0.0998 H   0  0  0  0  0  0  0  0  0  0  0  0
   -2.2260   -1.6326   -1.9563 H   0  0  0  0  0  0  0  0  0  0  0  0
   -0.7031   -2.0870   -3.8451 H   0  0  0  0  0  0  0  0  0  0  0  0
    3.7448   -1.1901   -2.1433 H   0  0  0  0  0  0  0  0  0  0  0  0
    5.6321   -0.9123   -1.4682 H   0  0  0  0  0  0  0  0  0  0  0  0
    7.3407   -0.9008    0.8575 H   0  0  0  0  0  0  0  0  0  0  0  0
    7.8640   -0.6382   -0.8705 H   0  0  0  0  0  0  0  0  0  0  0  0
    6.5882    1.5239    0.9737 H   0  0  0  0  0  0  0  0  0  0  0  0
    7.1444    1.7523   -0.6769 H   0  0  0  0  0  0  0  0  0  0  0  0
    8.5899    2.6417    1.0273 H   0  0  0  0  0  0  0  0  0  0  0  0
    8.8459    1.0721    1.7841 H   0  0  0  0  0  0  0  0  0  0  0  0
   10.5054    3.1658    0.4773 H   0  0  0  0  0  0  0  0  0  0  0  0
   10.9009    1.8332    1.6375 H   0  0  0  0  0  0  0  0  0  0  0  0
   12.9836    2.4926    0.4658 H   0  0  0  0  0  0  0  0  0  0  0  0
   12.1358    2.5738   -1.0960 H   0  0  0  0  0  0  0  0  0  0  0  0
   11.8639    0.0988    1.4055 H   0  0  0  0  0  0  0  0  0  0  0  0
   12.0606   -1.2292    0.1546 H   0  0  0  0  0  0  0  0  0  0  0  0
    9.6873   -0.6981    0.6689 H   0  0  0  0  0  0  0  0  0  0  0  0
   10.1732   -0.5508   -1.0500 H   0  0  0  0  0  0  0  0  0  0  0  0
   -2.6867   -3.0546    0.6900 H   0  0  0  0  0  0  0  0  0  0  0  0
   -9.6452    1.5600    0.7727 H   0  0  0  0  0  0  0  0  0  0  0  0
  1  2  1  0
  2  3  2  0
  3  4  1  0
  4  5  2  0
  5  6  1  0
  5  7  1  0
  7  8  1  0
  8  9  1  0
  9 10  2  0
  9 11  1  0
 11 12  1  0
 12 13  2  0
 13 14  1  0
 14 15  2  0
 15 16  1  0
 16 17  1  0
 17 18  2  0
 18 19  1  0
 19 20  2  0
 20 21  1  0
 21 22  1  0
 22 23  2  0
 23 24  1  0
 24 25  1  0
 23 26  1  0
 26 27  2  0
 26 28  1  0
 28 29  1  0
 29 30  1  0
 30 31  1  0
 31 32  1  0
 32 33  1  0
 33 34  1  0
 34 35  1  0
 35 36  1  0
 36 37  1  0
 15 38  1  0
 38 39  2  0
 39 40  1  0
  7 41  2  0
 41  2  1  0
 39 12  1  0
 25 17  1  0
 37 32  1  0
 25 21  2  0
  1 42  1  0
  1 43  1  0
  1 44  1  0
  3 45  1  0
  4 46  1  0
  8 47  1  0
 11 48  1  0
 13 49  1  0
 14 50  1  0
 18 51  1  0
 19 52  1  0
 22 53  1  0
 28 54  1  0
 29 55  1  0
 29 56  1  0
 30 57  1  0
 30 58  1  0
 31 59  1  0
 31 60  1  0
 33 61  1  0
 33 62  1  0
 34 63  1  0
 34 64  1  0
 36 65  1  0
 36 66  1  0
 37 67  1  0
 37 68  1  0
 38 69  1  0
 41 70  1  0
M  END
$$$$
[H]N([H])C1=N[C@]([H])(C([H])([H])[H])[C@]([H])(OC([H])([H])[H])C(=O)N1C([H])([H])[H]
     RDKit          3D

 25 25  0  0  0  0  0  0  0  0999 V2000
    3.0399   -0.6519   -0.1238 C   0  0  0  0  0  0  0  0  0  0  0  0
    1.7480   -0.2561   -0.4173 O   0  0  0  0  0  0  0  0  0  0  0  0
    0.8589   -0.4290    0.6255 C   0  0  1  0  0  0  0  0  0  0  0  0
    0.3670    0.9542    1.0205 C   0  0  1  0  0  0  0  0  0  0  0  0
    1.4608    1.9985    0.7405 C   0  0  0  0  0  0  0  0  0  0  0  0
   -0.8435    1.3552    0.4090 N   0  0  0  0  0  0  0  0  0  0  0  0
   -1.6833    0.6190   -0.1763 C   0  0  0  0  0  0  0  0  0  0  0  0
   -2.8882    1.1270   -0.7674 N   0  0  0  0  0  0  0  0  0  0  0  0
   -1.4485   -0.7848   -0.2710 N   0  0  0  0  0  0  0  0  0  0  0  0
   -2.4275   -1.6376   -0.9521 C   0  0  0  0  0  0  0  0  0  0  0  0
   -0.2720   -1.3097    0.2989 C   0  0  0  0  0  0  0  0  0  0  0  0
   -0.2051   -2.5331    0.5220 O   0  0  0  0  0  0  0  0  0  0  0  0
    3.5006   -0.1243    0.7100 H   0  0  0  0  0  0  0  0  0  0  0  0
    3.6546   -0.4453   -1.0257 H   0  0  0  0  0  0  0  0  0  0  0  0
    3.0773   -1.7720   -0.0001 H   0  0  0  0  0  0  0  0  0  0  0  0
    1.3554   -0.8664    1.5356 H   0  0  0  0  0  0  0  0  0  0  0  0
    0.2278    1.0165    2.1385 H   0  0  0  0  0  0  0  0  0  0  0  0
    1.7822    1.9690   -0.3099 H   0  0  0  0  0  0  0  0  0  0  0  0
    0.9836    2.9790    0.9598 H   0  0  0  0  0  0  0  0  0  0  0  0
    2.2698    1.7920    1.4669 H   0  0  0  0  0  0  0  0  0  0  0  0
   -2.8508    1.8439   -1.4998 H   0  0  0  0  0  0  0  0  0  0  0  0
   -3.7839    0.7529   -0.4365 H   0  0  0  0  0  0  0  0  0  0  0  0
   -1.8589   -2.3782   -1.5502 H   0  0  0  0  0  0  0  0  0  0  0  0
   -2.9934   -2.1862   -0.1907 H   0  0  0  0  0  0  0  0  0  0  0  0
   -3.0708   -1.0326   -1.6206 H   0  0  0  0  0  0  0  0  0  0  0  0
  1  2  1  0
  2  3  1  0
  3  4  1  0
  4  5  1  0
  4  6  1  0
  6  7  2  0
  7  8  1  0
  7  9  1  0
  9 10  1  0
  9 11  1  0
 11 12  2  0
 11  3  1  0
  1 13  1  0
  1 14  1  0
  1 15  1  0
  3 16  1  1
  4 17  1  1
  5 18  1  0
  5 19  1  0
  5 20  1  0
  8 21  1  0
  8 22  1  0
 10 23  1  0
 10 24  1  0
 10 25  1  0
M  END
$$$$
[H]OC([H])([H])[C@@]1([H])OC([H])([H])[C@@]([H])(O[H])[C@]([H])(O[H])[C@]1([H])O[H]
     RDKit          3D

 23 23  0  0  0  0  0  0  0  0999 V2000
    3.0214   -1.0371    0.7940 O   0  0  0  0  0  0  0  0  0  0  0  0
    2.0764   -0.0249    0.9715 C   0  0  0  0  0  0  0  0  0  0  0  0
    1.0765   -0.1009   -0.1605 C   0  0  1  0  0  0  0  0  0  0  0  0
    0.4111   -1.2962   -0.2202 O   0  0  0  0  0  0  0  0  0  0  0  0
   -0.8016   -1.3158    0.4335 C   0  0  0  0  0  0  0  0  0  0  0  0
   -1.8177   -0.3674   -0.1377 C   0  0  1  0  0  0  0  0  0  0  0  0
   -2.3102    0.4392    0.9139 O   0  0  0  0  0  0  0  0  0  0  0  0
   -1.0584    0.6026   -1.0451 C   0  0  2  0  0  0  0  0  0  0  0  0
   -0.5655   -0.1555   -2.1159 O   0  0  0  0  0  0  0  0  0  0  0  0
    0.1250    1.0519   -0.1740 C   0  0  2  0  0  0  0  0  0  0  0  0
    0.6753    2.2220   -0.6585 O   0  0  0  0  0  0  0  0  0  0  0  0
    3.6789   -0.8186    0.0826 H   0  0  0  0  0  0  0  0  0  0  0  0
    1.5769   -0.2075    1.9370 H   0  0  0  0  0  0  0  0  0  0  0  0
    2.5501    0.9620    0.9692 H   0  0  0  0  0  0  0  0  0  0  0  0
    1.6890   -0.0224   -1.1074 H   0  0  0  0  0  0  0  0  0  0  0  0
   -1.2210   -2.3498    0.2952 H   0  0  0  0  0  0  0  0  0  0  0  0
   -0.6956   -1.2005    1.5443 H   0  0  0  0  0  0  0  0  0  0  0  0
   -2.6468   -0.8478   -0.6602 H   0  0  0  0  0  0  0  0  0  0  0  0
   -2.7660   -0.0793    1.5973 H   0  0  0  0  0  0  0  0  0  0  0  0
   -1.6681    1.4487   -1.3613 H   0  0  0  0  0  0  0  0  0  0  0  0
   -1.0510   -1.0367   -2.1895 H   0  0  0  0  0  0  0  0  0  0  0  0
   -0.2467    1.2116    0.8727 H   0  0  0  0  0  0  0  0  0  0  0  0
   -0.0322    2.9224   -0.5810 H   0  0  0  0  0  0  0  0  0  0  0  0
  1  2  1  0
  2  3  1  0
  3  4  1  0
  4  5  1  0
  5  6  1  0
  6  7  1  0
  6  8  1  0
  8  9  1  0
  8 10  1  0
 10 11  1  0
 10  3  1  0
  1 12  1  0
  2 13  1  0
  2 14  1  0
  3 15  1  6
  5 16  1  0
  5 17  1  0
  6 18  1  6
  7 19  1  0
  8 20  1  6
  9 21  1  0
 10 22  1  1
 11 23  1  0
M  END
$$$$
[H]OC(=O)[C@@]([H])(N([H])[H])C([H])([H])OC(=O)C([H])([H])C([H])([H])C([H])([H])C([H])([H])C([H])([H])C([H])([H])C([H])([H])/C([H])=C(/[H])C([H])([H])C([H])([H])C([H])([H])C([H])([H])C([H])([H])C([H])([H])C([H])([H])C([H])([H])[H]
     RDKit          3D

 65 64  0  0  0  0  0  0  0  0999 V2000
   -8.2622    3.0043    0.0414 C   0  0  0  0  0  0  0  0  0  0  0  0
   -7.9923    1.7110    0.7504 C   0  0  0  0  0  0  0  0  0  0  0  0
   -7.8964    0.5425   -0.2096 C   0  0  0  0  0  0  0  0  0  0  0  0
   -7.6276   -0.7499    0.4867 C   0  0  0  0  0  0  0  0  0  0  0  0
   -6.3550   -0.7745    1.2630 C   0  0  0  0  0  0  0  0  0  0  0  0
   -5.1607   -0.5300    0.3816 C   0  0  0  0  0  0  0  0  0  0  0  0
   -3.8881   -0.5616    1.2005 C   0  0  0  0  0  0  0  0  0  0  0  0
   -2.6690   -0.3140    0.3085 C   0  0  0  0  0  0  0  0  0  0  0  0
   -2.5502   -1.3225   -0.7355 C   0  0  0  0  0  0  0  0  0  0  0  0
   -1.5169   -2.1099   -0.8613 C   0  0  0  0  0  0  0  0  0  0  0  0
   -0.3675   -2.0747    0.0218 C   0  0  0  0  0  0  0  0  0  0  0  0
    0.8540   -1.7485   -0.8337 C   0  0  0  0  0  0  0  0  0  0  0  0
    2.0771   -1.6996    0.0338 C   0  0  0  0  0  0  0  0  0  0  0  0
    3.3064   -1.4042   -0.7480 C   0  0  0  0  0  0  0  0  0  0  0  0
    3.2386   -0.0872   -1.4463 C   0  0  0  0  0  0  0  0  0  0  0  0
    3.0461    1.0694   -0.5316 C   0  0  0  0  0  0  0  0  0  0  0  0
    4.0681    1.2996    0.5055 C   0  0  0  0  0  0  0  0  0  0  0  0
    5.4317    1.5959   -0.0599 C   0  0  0  0  0  0  0  0  0  0  0  0
    5.5699    1.7021   -1.2898 O   0  0  0  0  0  0  0  0  0  0  0  0
    6.5023    1.7473    0.7477 O   0  0  0  0  0  0  0  0  0  0  0  0
    7.8093    1.9976    0.4823 C   0  0  0  0  0  0  0  0  0  0  0  0
    8.5891    0.9281   -0.1980 C   0  0  2  0  0  0  0  0  0  0  0  0
    8.1015    0.5853   -1.4840 N   0  0  0  0  0  0  0  0  0  0  0  0
    8.5985   -0.2936    0.6765 C   0  0  0  0  0  0  0  0  0  0  0  0
    8.1671   -1.5019    0.1695 O   0  0  0  0  0  0  0  0  0  0  0  0
    8.9931   -0.2159    1.8510 O   0  0  0  0  0  0  0  0  0  0  0  0
   -7.6967    2.9926   -0.9104 H   0  0  0  0  0  0  0  0  0  0  0  0
   -9.3311    3.2219   -0.0876 H   0  0  0  0  0  0  0  0  0  0  0  0
   -7.8131    3.8249    0.6531 H   0  0  0  0  0  0  0  0  0  0  0  0
   -7.0503    1.7298    1.3379 H   0  0  0  0  0  0  0  0  0  0  0  0
   -8.8074    1.5505    1.4760 H   0  0  0  0  0  0  0  0  0  0  0  0
   -8.8917    0.4560   -0.7060 H   0  0  0  0  0  0  0  0  0  0  0  0
   -7.1628    0.7199   -0.9941 H   0  0  0  0  0  0  0  0  0  0  0  0
   -7.5886   -1.5488   -0.2714 H   0  0  0  0  0  0  0  0  0  0  0  0
   -8.4785   -0.9589    1.1652 H   0  0  0  0  0  0  0  0  0  0  0  0
   -6.3763   -0.1005    2.1449 H   0  0  0  0  0  0  0  0  0  0  0  0
   -6.2378   -1.8053    1.6799 H   0  0  0  0  0  0  0  0  0  0  0  0
   -5.1613   -1.2728   -0.4246 H   0  0  0  0  0  0  0  0  0  0  0  0
   -5.1931    0.4731   -0.1022 H   0  0  0  0  0  0  0  0  0  0  0  0
   -3.8101   -1.5084    1.7388 H   0  0  0  0  0  0  0  0  0  0  0  0
   -3.9012    0.2578    1.9468 H   0  0  0  0  0  0  0  0  0  0  0  0
   -1.8205   -0.1296    0.9501 H   0  0  0  0  0  0  0  0  0  0  0  0
   -2.8641    0.6788   -0.2112 H   0  0  0  0  0  0  0  0  0  0  0  0
   -3.3942   -1.4082   -1.4505 H   0  0  0  0  0  0  0  0  0  0  0  0
   -1.5277   -2.8294   -1.6768 H   0  0  0  0  0  0  0  0  0  0  0  0
   -0.1875   -3.1446    0.3574 H   0  0  0  0  0  0  0  0  0  0  0  0
   -0.4215   -1.5007    0.9354 H   0  0  0  0  0  0  0  0  0  0  0  0
    0.8958   -2.5093   -1.6331 H   0  0  0  0  0  0  0  0  0  0  0  0
    0.6594   -0.7259   -1.2396 H   0  0  0  0  0  0  0  0  0  0  0  0
    2.1384   -2.6543    0.5981 H   0  0  0  0  0  0  0  0  0  0  0  0
    1.8750   -0.8978    0.7983 H   0  0  0  0  0  0  0  0  0  0  0  0
    4.2059   -1.5144   -0.1057 H   0  0  0  0  0  0  0  0  0  0  0  0
    3.4562   -2.1792   -1.5567 H   0  0  0  0  0  0  0  0  0  0  0  0
    4.1152    0.0431   -2.1172 H   0  0  0  0  0  0  0  0  0  0  0  0
    2.3212   -0.1106   -2.1117 H   0  0  0  0  0  0  0  0  0  0  0  0
    3.0332    1.9891   -1.1885 H   0  0  0  0  0  0  0  0  0  0  0  0
    2.0374    1.0074   -0.0530 H   0  0  0  0  0  0  0  0  0  0  0  0
    3.7573    2.1935    1.1006 H   0  0  0  0  0  0  0  0  0  0  0  0
    4.1565    0.4770    1.2498 H   0  0  0  0  0  0  0  0  0  0  0  0
    7.8715    2.9079   -0.2081 H   0  0  0  0  0  0  0  0  0  0  0  0
    8.3760    2.3155    1.4234 H   0  0  0  0  0  0  0  0  0  0  0  0
    9.6721    1.2750   -0.3125 H   0  0  0  0  0  0  0  0  0  0  0  0
    7.7210   -0.3805   -1.4756 H   0  0  0  0  0  0  0  0  0  0  0  0
    8.8334    0.6468   -2.2156 H   0  0  0  0  0  0  0  0  0  0  0  0
    8.5232   -2.3765    0.4901 H   0  0  0  0  0  0  0  0  0  0  0  0
  1  2  1  0
  2  3  1  0
  3  4  1  0
  4  5  1  0
  5  6  1  0
  6  7  1  0
  7  8  1  0
  8  9  1  0
  9 10  2  0
 10 11  1  0
 11 12  1  0
 12 13  1  0
 13 14  1  0
 14 15  1  0
 15 16  1  0
 16 17  1  0
 17 18  1  0
 18 19  2  0
 18 20  1  0
 20 21  1  0
 21 22  1  0
 22 23  1  0
 22 24  1  0
 24 25  1  0
 24 26  2  0
  1 27  1  0
  1 28  1  0
  1 29  1  0
  2 30  1  0
  2 31  1  0
  3 32  1  0
  3 33  1  0
  4 34  1  0
  4 35  1  0
  5 36  1  0
  5 37  1  0
  6 38  1  0
  6 39  1  0
  7 40  1  0
  7 41  1  0
  8 42  1  0
  8 43  1  0
  9 44  1  0
 10 45  1  0
 11 46  1  0
 11 47  1  0
 12 48  1  0
 12 49  1  0
 13 50  1  0
 13 51  1  0
 14 52  1  0
 14 53  1  0
 15 54  1  0
 15 55  1  0
 16 56  1  0
 16 57  1  0
 17 58  1  0
 17 59  1  0
 21 60  1  0
 21 61  1  0
 22 62  1  6
 23 63  1  0
 23 64  1  0
 25 65  1  0
M  END
$$$$
[H]c1c([H])c([H])c(C2=NC([H])([H])C([H])([H])N2[H])c([H])c1[H]
     RDKit          3D

 21 22  0  0  0  0  0  0  0  0999 V2000
   -2.8160    0.2177   -1.2322 C   0  0  0  0  0  0  0  0  0  0  0  0
   -3.0760    0.2968    0.2565 C   0  0  0  0  0  0  0  0  0  0  0  0
   -1.7456    0.3376    0.8124 N   0  0  0  0  0  0  0  0  0  0  0  0
   -0.8276    0.0101   -0.0169 C   0  0  0  0  0  0  0  0  0  0  0  0
   -1.4643   -0.2924   -1.2470 N   0  0  0  0  0  0  0  0  0  0  0  0
    0.6330   -0.0470    0.2451 C   0  0  0  0  0  0  0  0  0  0  0  0
    1.4752   -0.4233   -0.7738 C   0  0  0  0  0  0  0  0  0  0  0  0
    2.8479   -0.4805   -0.5396 C   0  0  0  0  0  0  0  0  0  0  0  0
    3.3507   -0.1580    0.7168 C   0  0  0  0  0  0  0  0  0  0  0  0
    2.5159    0.2194    1.7419 C   0  0  0  0  0  0  0  0  0  0  0  0
    1.1619    0.2653    1.4751 C   0  0  0  0  0  0  0  0  0  0  0  0
   -3.5424   -0.4317   -1.7306 H   0  0  0  0  0  0  0  0  0  0  0  0
   -2.7745    1.2430   -1.6550 H   0  0  0  0  0  0  0  0  0  0  0  0
   -3.5852    1.2455    0.4882 H   0  0  0  0  0  0  0  0  0  0  0  0
   -3.6566   -0.5869    0.6172 H   0  0  0  0  0  0  0  0  0  0  0  0
   -1.0034   -0.8035   -2.0206 H   0  0  0  0  0  0  0  0  0  0  0  0
    1.1484   -0.6841   -1.7652 H   0  0  0  0  0  0  0  0  0  0  0  0
    3.5375   -0.7659   -1.2966 H   0  0  0  0  0  0  0  0  0  0  0  0
    4.4221   -0.1942    0.9286 H   0  0  0  0  0  0  0  0  0  0  0  0
    2.9199    0.4730    2.7326 H   0  0  0  0  0  0  0  0  0  0  0  0
    0.4789    0.5592    2.2629 H   0  0  0  0  0  0  0  0  0  0  0  0
  1  2  1  0
  2  3  1  0
  3  4  2  0
  4  5  1  0
  4  6  1  0
  6  7  2  0
  7  8  1  0
  8  9  2  0
  9 10  1  0
 10 11  2  0
  5  1  1  0
 11  6  1  0
  1 12  1  0
  1 13  1  0
  2 14  1  0
  2 15  1  0
  5 16  1  0
  7 17  1  0
  8 18  1  0
  9 19  1  0
 10 20  1  0
 11 21  1  0
M  END
$$$$
[H]OC(C#Cc1nc([H])c(OC([H])([H])[C@@]2([H])C([H])([H])N([H])C([H])([H])C([H])([H])C2([H])[H])c2c1nc(-c1nonc1N([H])[H])n2C([H])([H])C([H])([H])[H])(C([H])([H])[H])C([H])([H])[H]
     RDKit          3D

 58 61  0  0  0  0  0  0  0  0999 V2000
    1.6416   -2.4836   -0.7595 C   0  0  0  0  0  0  0  0  0  0  0  0
    0.8857   -2.1647    0.4970 C   0  0  0  0  0  0  0  0  0  0  0  0
   -0.3932   -1.5807    0.3248 N   0  0  0  0  0  0  0  0  0  0  0  0
   -1.6164   -2.1012    0.2426 C   0  0  0  0  0  0  0  0  0  0  0  0
   -2.5057   -1.0428    0.0728 N   0  0  0  0  0  0  0  0  0  0  0  0
   -1.8383    0.0746    0.0529 C   0  0  0  0  0  0  0  0  0  0  0  0
   -2.2969    1.3913   -0.0933 C   0  0  0  0  0  0  0  0  0  0  0  0
   -1.3975    2.3860   -0.0809 N   0  0  0  0  0  0  0  0  0  0  0  0
   -0.0856    2.1538    0.0659 C   0  0  0  0  0  0  0  0  0  0  0  0
    0.3750    0.8394    0.2120 C   0  0  0  0  0  0  0  0  0  0  0  0
    1.7625    0.6421    0.3592 O   0  0  0  0  0  0  0  0  0  0  0  0
    2.6411    1.7393    0.3717 C   0  0  0  0  0  0  0  0  0  0  0  0
    4.0505    1.2495    0.5355 C   0  0  2  0  0  0  0  0  0  0  0  0
    5.0435    2.4061    0.5784 C   0  0  0  0  0  0  0  0  0  0  0  0
    6.3760    1.8727    0.0941 C   0  0  0  0  0  0  0  0  0  0  0  0
    6.4677    0.3711    0.3176 C   0  0  0  0  0  0  0  0  0  0  0  0
    5.5455   -0.3503   -0.5527 N   0  0  0  0  0  0  0  0  0  0  0  0
    4.3938    0.4851   -0.7515 C   0  0  0  0  0  0  0  0  0  0  0  0
   -0.5081   -0.2126    0.2068 C   0  0  0  0  0  0  0  0  0  0  0  0
   -3.7094    1.5883   -0.2478 C   0  0  0  0  0  0  0  0  0  0  0  0
   -4.9106    1.7784   -0.3806 C   0  0  0  0  0  0  0  0  0  0  0  0
   -6.3453    2.0314   -0.5387 C   0  0  0  0  0  0  0  0  0  0  0  0
   -6.9661    2.6037    0.6937 C   0  0  0  0  0  0  0  0  0  0  0  0
   -6.9777    0.7227   -0.9562 C   0  0  0  0  0  0  0  0  0  0  0  0
   -6.5806    2.9347   -1.5932 O   0  0  0  0  0  0  0  0  0  0  0  0
   -2.1229   -3.4548    0.2995 C   0  0  0  0  0  0  0  0  0  0  0  0
   -3.5012   -3.6362    0.1842 N   0  0  0  0  0  0  0  0  0  0  0  0
   -3.7679   -4.8820    0.2473 O   0  0  0  0  0  0  0  0  0  0  0  0
   -2.7391   -5.6074    0.3940 N   0  0  0  0  0  0  0  0  0  0  0  0
   -1.6749   -4.7022    0.4288 C   0  0  0  0  0  0  0  0  0  0  0  0
   -0.3478   -5.1391    0.5749 N   0  0  0  0  0  0  0  0  0  0  0  0
    1.2502   -3.3772   -1.2676 H   0  0  0  0  0  0  0  0  0  0  0  0
    1.7261   -1.6082   -1.4354 H   0  0  0  0  0  0  0  0  0  0  0  0
    2.6871   -2.7369   -0.4524 H   0  0  0  0  0  0  0  0  0  0  0  0
    0.8710   -3.0048    1.1883 H   0  0  0  0  0  0  0  0  0  0  0  0
    1.5516   -1.3866    1.0255 H   0  0  0  0  0  0  0  0  0  0  0  0
    0.6592    2.9381    0.0791 H   0  0  0  0  0  0  0  0  0  0  0  0
    2.6001    2.2902   -0.5996 H   0  0  0  0  0  0  0  0  0  0  0  0
    2.4074    2.4668    1.1773 H   0  0  0  0  0  0  0  0  0  0  0  0
    4.1960    0.6570    1.4375 H   0  0  0  0  0  0  0  0  0  0  0  0
    4.6893    3.2605   -0.0378 H   0  0  0  0  0  0  0  0  0  0  0  0
    5.1731    2.7708    1.6102 H   0  0  0  0  0  0  0  0  0  0  0  0
    6.5324    2.0599   -0.9919 H   0  0  0  0  0  0  0  0  0  0  0  0
    7.2093    2.3190    0.6834 H   0  0  0  0  0  0  0  0  0  0  0  0
    7.4780    0.0360    0.0580 H   0  0  0  0  0  0  0  0  0  0  0  0
    6.2888    0.1355    1.3680 H   0  0  0  0  0  0  0  0  0  0  0  0
    5.9907   -0.4915   -1.4882 H   0  0  0  0  0  0  0  0  0  0  0  0
    4.6246    1.2876   -1.5131 H   0  0  0  0  0  0  0  0  0  0  0  0
    3.5053   -0.0388   -1.0965 H   0  0  0  0  0  0  0  0  0  0  0  0
   -6.2419    3.2799    1.1847 H   0  0  0  0  0  0  0  0  0  0  0  0
   -7.2756    1.8299    1.4277 H   0  0  0  0  0  0  0  0  0  0  0  0
   -7.8363    3.2209    0.3898 H   0  0  0  0  0  0  0  0  0  0  0  0
   -7.8110    0.9143   -1.6630 H   0  0  0  0  0  0  0  0  0  0  0  0
   -6.2495    0.0863   -1.4849 H   0  0  0  0  0  0  0  0  0  0  0  0
   -7.4324    0.2122   -0.0779 H   0  0  0  0  0  0  0  0  0  0  0  0
   -5.8035    3.5774   -1.5492 H   0  0  0  0  0  0  0  0  0  0  0  0
    0.1013   -5.2568    1.5016 H   0  0  0  0  0  0  0  0  0  0  0  0
    0.2112   -5.3543   -0.2729 H   0  0  0  0  0  0  0  0  0  0  0  0
  1  2  1  0
  2  3  1  0
  3  4  1  0
  4  5  2  0
  5  6  1  0
  6  7  2  0
  7  8  1  0
  8  9  2  0
  9 10  1  0
 10 11  1  0
 11 12  1  0
 12 13  1  0
 13 14  1  0
 14 15  1  0
 15 16  1  0
 16 17  1  0
 17 18  1  0
 10 19  2  0
  7 20  1  0
 20 21  3  0
 21 22  1  0
 22 23  1  0
 22 24  1  0
 22 25  1  0
  4 26  1  0
 26 27  2  0
 27 28  1  0
 28 29  1  0
 29 30  2  0
 30 31  1  0
 19  3  1  0
 30 26  1  0
 19  6  1  0
 18 13  1  0
  1 32  1  0
  1 33  1  0
  1 34  1  0
  2 35  1  0
  2 36  1  0
  9 37  1  0
 12 38  1  0
 12 39  1  0
 13 40  1  1
 14 41  1  0
 14 42  1  0
 15 43  1  0
 15 44  1  0
 16 45  1  0
 16 46  1  0
 17 47  1  0
 18 48  1  0
 18 49  1  0
 23 50  1  0
 23 51  1  0
 23 52  1  0
 24 53  1  0
 24 54  1  0
 24 55  1  0
 25 56  1  0
 31 57  1  0
 31 58  1  0
M  END
$$$$
[H]c1nnc2c(nc([H])n2C([H])([H])[H])c1-c1c([H])c([H])c(F)c(-c2c([H])c([H])c(S(=O)(=O)N([H])[H])c([H])c2[H])c1[H]
     RDKit          3D

 41 44  0  0  0  0  0  0  0  0999 V2000
   -7.1028   -0.2300    1.2014 C   0  0  0  0  0  0  0  0  0  0  0  0
   -5.7959   -0.2900    0.5401 N   0  0  0  0  0  0  0  0  0  0  0  0
   -5.4207   -1.1651   -0.4103 C   0  0  0  0  0  0  0  0  0  0  0  0
   -4.1407   -0.9092   -0.7790 N   0  0  0  0  0  0  0  0  0  0  0  0
   -3.6817    0.1348   -0.0669 C   0  0  0  0  0  0  0  0  0  0  0  0
   -2.4670    0.7897   -0.0514 C   0  0  0  0  0  0  0  0  0  0  0  0
   -2.3362    1.8517    0.8295 C   0  0  0  0  0  0  0  0  0  0  0  0
   -3.3823    2.1658    1.5947 N   0  0  0  0  0  0  0  0  0  0  0  0
   -4.5423    1.5367    1.5766 N   0  0  0  0  0  0  0  0  0  0  0  0
   -4.7371    0.5023    0.7501 C   0  0  0  0  0  0  0  0  0  0  0  0
   -1.3530    0.3801   -0.9329 C   0  0  0  0  0  0  0  0  0  0  0  0
   -1.5831    0.1009   -2.2649 C   0  0  0  0  0  0  0  0  0  0  0  0
   -0.5326   -0.2799   -3.0731 C   0  0  0  0  0  0  0  0  0  0  0  0
    0.7679   -0.3957   -2.5943 C   0  0  0  0  0  0  0  0  0  0  0  0
    1.7936   -0.7685   -3.3769 F   0  0  0  0  0  0  0  0  0  0  0  0
    0.9938   -0.1160   -1.2641 C   0  0  0  0  0  0  0  0  0  0  0  0
   -0.0707    0.2709   -0.4403 C   0  0  0  0  0  0  0  0  0  0  0  0
    2.3520   -0.2242   -0.7235 C   0  0  0  0  0  0  0  0  0  0  0  0
    2.5387   -0.8784    0.4746 C   0  0  0  0  0  0  0  0  0  0  0  0
    3.8094   -1.0124    1.0437 C   0  0  0  0  0  0  0  0  0  0  0  0
    4.8925   -0.4868    0.4050 C   0  0  0  0  0  0  0  0  0  0  0  0
    4.7159    0.1662   -0.7883 C   0  0  0  0  0  0  0  0  0  0  0  0
    3.4554    0.3035   -1.3604 C   0  0  0  0  0  0  0  0  0  0  0  0
    6.4793   -0.6666    1.1374 S   0  0  0  0  0  0  0  0  0  0  0  0
    6.7275    0.7052    2.1610 N   0  0  0  0  0  0  0  0  0  0  0  0
    7.5314   -0.6136    0.0452 O   0  0  0  0  0  0  0  0  0  0  0  0
    6.6154   -1.9515    1.8613 O   0  0  0  0  0  0  0  0  0  0  0  0
   -7.8439   -0.7059    0.5526 H   0  0  0  0  0  0  0  0  0  0  0  0
   -7.4261    0.8190    1.3525 H   0  0  0  0  0  0  0  0  0  0  0  0
   -7.0395   -0.6978    2.1858 H   0  0  0  0  0  0  0  0  0  0  0  0
   -6.0830   -1.9517   -0.7997 H   0  0  0  0  0  0  0  0  0  0  0  0
   -1.3869    2.3616    0.8399 H   0  0  0  0  0  0  0  0  0  0  0  0
   -2.5930    0.1894   -2.6427 H   0  0  0  0  0  0  0  0  0  0  0  0
   -0.6810   -0.5030   -4.1114 H   0  0  0  0  0  0  0  0  0  0  0  0
    0.1190    0.4879    0.6030 H   0  0  0  0  0  0  0  0  0  0  0  0
    1.7019   -1.3122    1.0166 H   0  0  0  0  0  0  0  0  0  0  0  0
    3.9446   -1.5337    1.9948 H   0  0  0  0  0  0  0  0  0  0  0  0
    5.5563    0.5925   -1.3164 H   0  0  0  0  0  0  0  0  0  0  0  0
    3.3542    0.8263   -2.3015 H   0  0  0  0  0  0  0  0  0  0  0  0
    7.0419    1.4910    1.5479 H   0  0  0  0  0  0  0  0  0  0  0  0
    5.8089    1.0169    2.5661 H   0  0  0  0  0  0  0  0  0  0  0  0
  1  2  1  0
  2  3  1  0
  3  4  2  0
  4  5  1  0
  5  6  2  0
  6  7  1  0
  7  8  2  0
  8  9  1  0
  9 10  2  0
  6 11  1  0
 11 12  2  0
 12 13  1  0
 13 14  2  0
 14 15  1  0
 14 16  1  0
 16 17  2  0
 16 18  1  0
 18 19  2  0
 19 20  1  0
 20 21  2  0
 21 22  1  0
 22 23  2  0
 21 24  1  0
 24 25  1  0
 24 26  2  0
 24 27  2  0
 10  2  1  0
 17 11  1  0
 23 18  1  0
 10  5  1  0
  1 28  1  0
  1 29  1  0
  1 30  1  0
  3 31  1  0
  7 32  1  0
 12 33  1  0
 13 34  1  0
 17 35  1  0
 19 36  1  0
 20 37  1  0
 22 38  1  0
 23 39  1  0
 25 40  1  0
 25 41  1  0
M  END
$$$$
[H]c1c([H])c([H])c(C([H])([H])[C@@]([H])(C(=O)N([H])[H])N([H])C(=O)[C@@]([H])(N([H])C(=O)[C@@]2([H])C([H])([H])N([H])C([H])([H])C([H])([H])C2([H])[H])C([H])([H])C([H])(C([H])([H])[H])C([H])([H])[H])c([H])c1[H]
     RDKit          3D

 60 61  0  0  0  0  0  0  0  0999 V2000
    1.4163    4.6683   -0.5661 C   0  0  0  0  0  0  0  0  0  0  0  0
    1.4457    3.1293   -0.6935 C   0  0  0  0  0  0  0  0  0  0  0  0
    0.6217    2.8124   -1.8872 C   0  0  0  0  0  0  0  0  0  0  0  0
    1.0106    2.5917    0.6114 C   0  0  0  0  0  0  0  0  0  0  0  0
    0.9579    1.1175    0.7709 C   0  0  2  0  0  0  0  0  0  0  0  0
    2.2175    0.4641    0.5435 N   0  0  0  0  0  0  0  0  0  0  0  0
    2.8875   -0.3300    1.5046 C   0  0  0  0  0  0  0  0  0  0  0  0
    2.3591   -0.4847    2.6320 O   0  0  0  0  0  0  0  0  0  0  0  0
    4.1882   -0.9826    1.2252 C   0  0  2  0  0  0  0  0  0  0  0  0
    4.1185   -1.8318   -0.0162 C   0  0  0  0  0  0  0  0  0  0  0  0
    5.1271   -2.8998   -0.1392 C   0  0  0  0  0  0  0  0  0  0  0  0
    5.7282   -3.3996    1.1356 C   0  0  0  0  0  0  0  0  0  0  0  0
    5.8832   -2.3811    2.1379 N   0  0  0  0  0  0  0  0  0  0  0  0
    4.5581   -1.8575    2.4043 C   0  0  0  0  0  0  0  0  0  0  0  0
   -0.1821    0.4348    0.1345 C   0  0  0  0  0  0  0  0  0  0  0  0
   -0.0391   -0.6427   -0.5365 O   0  0  0  0  0  0  0  0  0  0  0  0
   -1.4883    0.9363    0.2360 N   0  0  0  0  0  0  0  0  0  0  0  0
   -2.6364    0.2580   -0.3915 C   0  0  1  0  0  0  0  0  0  0  0  0
   -3.5925   -0.1750    0.6651 C   0  0  0  0  0  0  0  0  0  0  0  0
   -4.7600   -0.8669    0.1121 C   0  0  0  0  0  0  0  0  0  0  0  0
   -4.7201   -2.2496   -0.1418 C   0  0  0  0  0  0  0  0  0  0  0  0
   -5.8061   -2.9386   -0.6264 C   0  0  0  0  0  0  0  0  0  0  0  0
   -6.9952   -2.2977   -0.8888 C   0  0  0  0  0  0  0  0  0  0  0  0
   -7.0762   -0.9453   -0.6545 C   0  0  0  0  0  0  0  0  0  0  0  0
   -5.9828   -0.2745   -0.1703 C   0  0  0  0  0  0  0  0  0  0  0  0
   -3.2388    1.2447   -1.2880 C   0  0  0  0  0  0  0  0  0  0  0  0
   -4.1176    0.8890   -2.3188 N   0  0  0  0  0  0  0  0  0  0  0  0
   -2.9744    2.4806   -1.1615 O   0  0  0  0  0  0  0  0  0  0  0  0
    1.6935    5.1251   -1.5256 H   0  0  0  0  0  0  0  0  0  0  0  0
    1.9900    4.9965    0.2996 H   0  0  0  0  0  0  0  0  0  0  0  0
    0.3495    4.9432   -0.3969 H   0  0  0  0  0  0  0  0  0  0  0  0
    2.5051    2.8977   -0.9442 H   0  0  0  0  0  0  0  0  0  0  0  0
    0.4244    1.7391   -2.0600 H   0  0  0  0  0  0  0  0  0  0  0  0
   -0.3385    3.3479   -1.9363 H   0  0  0  0  0  0  0  0  0  0  0  0
    1.1490    3.1331   -2.8467 H   0  0  0  0  0  0  0  0  0  0  0  0
    1.5783    3.0807    1.4648 H   0  0  0  0  0  0  0  0  0  0  0  0
   -0.0409    2.9795    0.7845 H   0  0  0  0  0  0  0  0  0  0  0  0
    0.7554    0.9543    1.8961 H   0  0  0  0  0  0  0  0  0  0  0  0
    2.6699    0.5826   -0.3881 H   0  0  0  0  0  0  0  0  0  0  0  0
    4.9712   -0.1986    1.1614 H   0  0  0  0  0  0  0  0  0  0  0  0
    3.0772   -2.1781   -0.1746 H   0  0  0  0  0  0  0  0  0  0  0  0
    4.2967   -1.1088   -0.8696 H   0  0  0  0  0  0  0  0  0  0  0  0
    4.6177   -3.7850   -0.6245 H   0  0  0  0  0  0  0  0  0  0  0  0
    5.9616   -2.6543   -0.8505 H   0  0  0  0  0  0  0  0  0  0  0  0
    6.7669   -3.7837    0.9192 H   0  0  0  0  0  0  0  0  0  0  0  0
    5.2010   -4.2627    1.5895 H   0  0  0  0  0  0  0  0  0  0  0  0
    6.4803   -1.5896    1.7994 H   0  0  0  0  0  0  0  0  0  0  0  0
    4.5783   -1.2675    3.3443 H   0  0  0  0  0  0  0  0  0  0  0  0
    3.8731   -2.7274    2.5104 H   0  0  0  0  0  0  0  0  0  0  0  0
   -1.6870    1.7951    0.7527 H   0  0  0  0  0  0  0  0  0  0  0  0
   -2.2687   -0.6298   -0.9118 H   0  0  0  0  0  0  0  0  0  0  0  0
   -3.9820    0.6828    1.2711 H   0  0  0  0  0  0  0  0  0  0  0  0
   -3.1298   -0.8741    1.4019 H   0  0  0  0  0  0  0  0  0  0  0  0
   -3.7586   -2.7372    0.0757 H   0  0  0  0  0  0  0  0  0  0  0  0
   -5.7473   -4.0005   -0.8068 H   0  0  0  0  0  0  0  0  0  0  0  0
   -7.8679   -2.8138   -1.2737 H   0  0  0  0  0  0  0  0  0  0  0  0
   -8.0252   -0.4322   -0.8639 H   0  0  0  0  0  0  0  0  0  0  0  0
   -6.0768    0.7986    0.0057 H   0  0  0  0  0  0  0  0  0  0  0  0
   -4.9286    1.5199   -2.5673 H   0  0  0  0  0  0  0  0  0  0  0  0
   -3.9977   -0.0019   -2.8688 H   0  0  0  0  0  0  0  0  0  0  0  0
  1  2  1  0
  2  3  1  0
  2  4  1  0
  4  5  1  0
  5  6  1  0
  6  7  1  0
  7  8  2  0
  7  9  1  0
  9 10  1  0
 10 11  1  0
 11 12  1  0
 12 13  1  0
 13 14  1  0
  5 15  1  0
 15 16  2  0
 15 17  1  0
 17 18  1  0
 18 19  1  0
 19 20  1  0
 20 21  2  0
 21 22  1  0
 22 23  2  0
 23 24  1  0
 24 25  2  0
 18 26  1  0
 26 27  1  0
 26 28  2  0
 14  9  1  0
 25 20  1  0
  1 29  1  0
  1 30  1  0
  1 31  1  0
  2 32  1  0
  3 33  1  0
  3 34  1  0
  3 35  1  0
  4 36  1  0
  4 37  1  0
  5 38  1  1
  6 39  1  0
  9 40  1  6
 10 41  1  0
 10 42  1  0
 11 43  1  0
 11 44  1  0
 12 45  1  0
 12 46  1  0
 13 47  1  0
 14 48  1  0
 14 49  1  0
 17 50  1  0
 18 51  1  6
 19 52  1  0
 19 53  1  0
 21 54  1  0
 22 55  1  0
 23 56  1  0
 24 57  1  0
 25 58  1  0
 27 59  1  0
 27 60  1  0
M  END
$$$$
[H]c1nc2c([H])c(OC([H])([H])C([H])([H])C([H])([H])N3C([H])([H])C([H])([H])N(C([H])([H])[H])C([H])([H])C3([H])[H])c(OC([H])([H])[H])c([H])c2c(N([H])c2c([H])c(OC([H])([H])[H])c(Cl)c([H])c2Cl)c1C#N
     RDKit          3D

 65 68  0  0  0  0  0  0  0  0999 V2000
   -5.2946    0.1799   -2.9709 C   0  0  0  0  0  0  0  0  0  0  0  0
   -6.0951   -0.9158   -2.5530 O   0  0  0  0  0  0  0  0  0  0  0  0
   -6.1608   -1.1576   -1.1778 C   0  0  0  0  0  0  0  0  0  0  0  0
   -5.4971   -0.3938   -0.2509 C   0  0  0  0  0  0  0  0  0  0  0  0
   -5.5371   -0.6002    1.1107 C   0  0  0  0  0  0  0  0  0  0  0  0
   -4.8166    0.2382    2.0340 N   0  0  0  0  0  0  0  0  0  0  0  0
   -4.0248    1.3195    1.6049 C   0  0  0  0  0  0  0  0  0  0  0  0
   -4.6352    2.5531    1.4917 C   0  0  0  0  0  0  0  0  0  0  0  0
   -3.8290    3.6094    1.0643 C   0  0  0  0  0  0  0  0  0  0  0  0
   -2.5270    3.4300    0.7791 N   0  0  0  0  0  0  0  0  0  0  0  0
   -1.9535    2.2186    0.8968 C   0  0  0  0  0  0  0  0  0  0  0  0
   -0.6053    1.9975    0.6091 C   0  0  0  0  0  0  0  0  0  0  0  0
   -0.0254    0.7512    0.7328 C   0  0  0  0  0  0  0  0  0  0  0  0
    1.3282    0.5594    0.4376 O   0  0  0  0  0  0  0  0  0  0  0  0
    2.1607    1.6065    0.0051 C   0  0  0  0  0  0  0  0  0  0  0  0
    3.5417    1.0243   -0.2125 C   0  0  0  0  0  0  0  0  0  0  0  0
    3.4226   -0.0554   -1.2622 C   0  0  0  0  0  0  0  0  0  0  0  0
    4.6627   -0.6900   -1.5641 N   0  0  0  0  0  0  0  0  0  0  0  0
    5.1982   -1.4923   -0.4904 C   0  0  0  0  0  0  0  0  0  0  0  0
    6.5388   -0.9813   -0.0123 C   0  0  0  0  0  0  0  0  0  0  0  0
    7.5161   -0.9508   -1.0794 N   0  0  0  0  0  0  0  0  0  0  0  0
    8.4297    0.1509   -0.7994 C   0  0  0  0  0  0  0  0  0  0  0  0
    6.9128   -0.6710   -2.3660 C   0  0  0  0  0  0  0  0  0  0  0  0
    5.6339    0.1418   -2.1961 C   0  0  0  0  0  0  0  0  0  0  0  0
   -0.7837   -0.3247    1.1524 C   0  0  0  0  0  0  0  0  0  0  0  0
   -0.1660   -1.5451    1.2609 O   0  0  0  0  0  0  0  0  0  0  0  0
   -0.8182   -2.7273    1.6769 C   0  0  0  0  0  0  0  0  0  0  0  0
   -2.1295   -0.1321    1.4455 C   0  0  0  0  0  0  0  0  0  0  0  0
   -2.6832    1.1246    1.3132 C   0  0  0  0  0  0  0  0  0  0  0  0
   -6.0331    2.7467    1.7978 C   0  0  0  0  0  0  0  0  0  0  0  0
   -7.1560    2.8867    2.0549 N   0  0  0  0  0  0  0  0  0  0  0  0
   -6.3055   -1.6561    1.5519 C   0  0  0  0  0  0  0  0  0  0  0  0
   -6.4410   -2.0259    3.2478 Cl  0  0  0  0  0  0  0  0  0  0  0  0
   -7.0004   -2.4646    0.6587 C   0  0  0  0  0  0  0  0  0  0  0  0
   -6.9278   -2.2166   -0.6919 C   0  0  0  0  0  0  0  0  0  0  0  0
   -7.7733   -3.1886   -1.8765 Cl  0  0  0  0  0  0  0  0  0  0  0  0
   -5.4136    0.3597   -4.0746 H   0  0  0  0  0  0  0  0  0  0  0  0
   -4.2180   -0.0377   -2.8166 H   0  0  0  0  0  0  0  0  0  0  0  0
   -5.5182    1.1093   -2.4102 H   0  0  0  0  0  0  0  0  0  0  0  0
   -4.8824    0.4495   -0.5886 H   0  0  0  0  0  0  0  0  0  0  0  0
   -4.9019    0.0142    3.0487 H   0  0  0  0  0  0  0  0  0  0  0  0
   -4.3295    4.5717    0.9823 H   0  0  0  0  0  0  0  0  0  0  0  0
   -0.0170    2.8280    0.2846 H   0  0  0  0  0  0  0  0  0  0  0  0
    1.7778    1.9385   -1.0008 H   0  0  0  0  0  0  0  0  0  0  0  0
    2.1821    2.4558    0.7154 H   0  0  0  0  0  0  0  0  0  0  0  0
    4.2210    1.8377   -0.5139 H   0  0  0  0  0  0  0  0  0  0  0  0
    3.9285    0.6049    0.7361 H   0  0  0  0  0  0  0  0  0  0  0  0
    2.9821    0.3266   -2.1992 H   0  0  0  0  0  0  0  0  0  0  0  0
    2.7315   -0.8214   -0.8541 H   0  0  0  0  0  0  0  0  0  0  0  0
    5.2338   -2.5366   -0.8312 H   0  0  0  0  0  0  0  0  0  0  0  0
    4.5037   -1.4099    0.3697 H   0  0  0  0  0  0  0  0  0  0  0  0
    6.3881   -0.0055    0.4627 H   0  0  0  0  0  0  0  0  0  0  0  0
    6.9097   -1.6815    0.7631 H   0  0  0  0  0  0  0  0  0  0  0  0
    7.9186    0.8915   -0.1786 H   0  0  0  0  0  0  0  0  0  0  0  0
    9.2446   -0.2873   -0.1540 H   0  0  0  0  0  0  0  0  0  0  0  0
    8.8635    0.5756   -1.7319 H   0  0  0  0  0  0  0  0  0  0  0  0
    7.6268   -0.0558   -2.9818 H   0  0  0  0  0  0  0  0  0  0  0  0
    6.6852   -1.5665   -2.9435 H   0  0  0  0  0  0  0  0  0  0  0  0
    5.9066    1.0433   -1.6186 H   0  0  0  0  0  0  0  0  0  0  0  0
    5.2600    0.4179   -3.1952 H   0  0  0  0  0  0  0  0  0  0  0  0
   -1.6281   -3.0342    0.9852 H   0  0  0  0  0  0  0  0  0  0  0  0
   -0.0534   -3.5288    1.7326 H   0  0  0  0  0  0  0  0  0  0  0  0
   -1.1857   -2.5572    2.7031 H   0  0  0  0  0  0  0  0  0  0  0  0
   -2.7370   -0.9576    1.7739 H   0  0  0  0  0  0  0  0  0  0  0  0
   -7.6050   -3.2933    0.9881 H   0  0  0  0  0  0  0  0  0  0  0  0
  1  2  1  0
  2  3  1  0
  3  4  2  0
  4  5  1  0
  5  6  1  0
  6  7  1  0
  7  8  2  0
  8  9  1  0
  9 10  2  0
 10 11  1  0
 11 12  2  0
 12 13  1  0
 13 14  1  0
 14 15  1  0
 15 16  1  0
 16 17  1  0
 17 18  1  0
 18 19  1  0
 19 20  1  0
 20 21  1  0
 21 22  1  0
 21 23  1  0
 23 24  1  0
 13 25  2  0
 25 26  1  0
 26 27  1  0
 25 28  1  0
 28 29  2  0
  8 30  1  0
 30 31  3  0
  5 32  2  0
 32 33  1  0
 32 34  1  0
 34 35  2  0
 35 36  1  0
 35  3  1  0
 29  7  1  0
 29 11  1  0
 24 18  1  0
  1 37  1  0
  1 38  1  0
  1 39  1  0
  4 40  1  0
  6 41  1  0
  9 42  1  0
 12 43  1  0
 15 44  1  0
 15 45  1  0
 16 46  1  0
 16 47  1  0
 17 48  1  0
 17 49  1  0
 19 50  1  0
 19 51  1  0
 20 52  1  0
 20 53  1  0
 22 54  1  0
 22 55  1  0
 22 56  1  0
 23 57  1  0
 23 58  1  0
 24 59  1  0
 24 60  1  0
 27 61  1  0
 27 62  1  0
 27 63  1  0
 28 64  1  0
 34 65  1  0
M  END
$$$$
[H]c1c([H])c(-c2nc(-c3c([H])c(C([H])([H])[H])nc(C([H])([H])[H])c3[H])c3n2C([H])([H])C([H])([H])OC([H])([H])C3([H])[H])c([H])c(F)c1OC(F)(F)F
     RDKit          3D

 49 52  0  0  0  0  0  0  0  0999 V2000
   -3.6938   -4.1367   -0.4002 C   0  0  0  0  0  0  0  0  0  0  0  0
   -3.5337   -2.7843    0.1667 C   0  0  0  0  0  0  0  0  0  0  0  0
   -2.4373   -2.0233   -0.2073 C   0  0  0  0  0  0  0  0  0  0  0  0
   -2.3147   -0.7662    0.3377 C   0  0  0  0  0  0  0  0  0  0  0  0
   -3.2710   -0.3371    1.2116 C   0  0  0  0  0  0  0  0  0  0  0  0
   -4.3624   -1.0978    1.5823 C   0  0  0  0  0  0  0  0  0  0  0  0
   -5.3994   -0.6234    2.5342 C   0  0  0  0  0  0  0  0  0  0  0  0
   -4.4571   -2.3222    1.0342 N   0  0  0  0  0  0  0  0  0  0  0  0
   -1.1372    0.0218   -0.0555 C   0  0  0  0  0  0  0  0  0  0  0  0
    0.0919   -0.4976   -0.0408 N   0  0  0  0  0  0  0  0  0  0  0  0
    1.0184    0.4301   -0.4536 C   0  0  0  0  0  0  0  0  0  0  0  0
    2.4378    0.1058   -0.5096 C   0  0  0  0  0  0  0  0  0  0  0  0
    2.9140   -0.9726    0.2607 C   0  0  0  0  0  0  0  0  0  0  0  0
    4.2281   -1.3559    0.1851 C   0  0  0  0  0  0  0  0  0  0  0  0
    5.1487   -0.7338   -0.6242 C   0  0  0  0  0  0  0  0  0  0  0  0
    6.4799   -1.1046   -0.7142 O   0  0  0  0  0  0  0  0  0  0  0  0
    7.0540   -2.1590    0.0098 C   0  0  0  0  0  0  0  0  0  0  0  0
    6.9270   -1.9177    1.3440 F   0  0  0  0  0  0  0  0  0  0  0  0
    8.3978   -2.3177   -0.3325 F   0  0  0  0  0  0  0  0  0  0  0  0
    6.3930   -3.3311   -0.3703 F   0  0  0  0  0  0  0  0  0  0  0  0
    4.6944    0.3279   -1.3886 C   0  0  0  0  0  0  0  0  0  0  0  0
    5.5103    1.0095   -2.2165 F   0  0  0  0  0  0  0  0  0  0  0  0
    3.3692    0.7105   -1.3102 C   0  0  0  0  0  0  0  0  0  0  0  0
    0.3075    1.5242   -0.7112 N   0  0  0  0  0  0  0  0  0  0  0  0
    0.8742    2.7896   -1.0922 C   0  0  0  0  0  0  0  0  0  0  0  0
    0.2171    3.8988   -0.2683 C   0  0  0  0  0  0  0  0  0  0  0  0
   -1.0575    4.2022   -0.6308 O   0  0  0  0  0  0  0  0  0  0  0  0
   -1.9976    3.4538    0.0995 C   0  0  0  0  0  0  0  0  0  0  0  0
   -2.1822    2.1746   -0.6839 C   0  0  0  0  0  0  0  0  0  0  0  0
   -1.0186    1.3114   -0.4842 C   0  0  0  0  0  0  0  0  0  0  0  0
   -4.1956   -4.8341    0.3190 H   0  0  0  0  0  0  0  0  0  0  0  0
   -2.6929   -4.5376   -0.6813 H   0  0  0  0  0  0  0  0  0  0  0  0
   -4.3220   -4.1352   -1.3169 H   0  0  0  0  0  0  0  0  0  0  0  0
   -1.7136   -2.4369   -0.9129 H   0  0  0  0  0  0  0  0  0  0  0  0
   -3.1933    0.6349    1.6518 H   0  0  0  0  0  0  0  0  0  0  0  0
   -4.9787    0.2173    3.1529 H   0  0  0  0  0  0  0  0  0  0  0  0
   -6.2674   -0.2392    1.9923 H   0  0  0  0  0  0  0  0  0  0  0  0
   -5.6288   -1.4408    3.2450 H   0  0  0  0  0  0  0  0  0  0  0  0
    2.2024   -1.4662    0.8988 H   0  0  0  0  0  0  0  0  0  0  0  0
    4.5652   -2.1917    0.7912 H   0  0  0  0  0  0  0  0  0  0  0  0
    3.0341    1.5194   -1.9613 H   0  0  0  0  0  0  0  0  0  0  0  0
    1.9391    2.8456   -0.7325 H   0  0  0  0  0  0  0  0  0  0  0  0
    0.7810    2.9310   -2.1577 H   0  0  0  0  0  0  0  0  0  0  0  0
    0.3075    3.5532    0.7993 H   0  0  0  0  0  0  0  0  0  0  0  0
    0.8500    4.7975   -0.4058 H   0  0  0  0  0  0  0  0  0  0  0  0
   -1.6187    3.1776    1.0948 H   0  0  0  0  0  0  0  0  0  0  0  0
   -2.9534    3.9695    0.2089 H   0  0  0  0  0  0  0  0  0  0  0  0
   -2.1855    2.4695   -1.7846 H   0  0  0  0  0  0  0  0  0  0  0  0
   -3.1299    1.6868   -0.4725 H   0  0  0  0  0  0  0  0  0  0  0  0
  1  2  1  0
  2  3  2  0
  3  4  1  0
  4  5  2  0
  5  6  1  0
  6  7  1  0
  6  8  2  0
  4  9  1  0
  9 10  1  0
 10 11  2  0
 11 12  1  0
 12 13  2  0
 13 14  1  0
 14 15  2  0
 15 16  1  0
 16 17  1  0
 17 18  1  0
 17 19  1  0
 17 20  1  0
 15 21  1  0
 21 22  1  0
 21 23  2  0
 11 24  1  0
 24 25  1  0
 25 26  1  0
 26 27  1  0
 27 28  1  0
 28 29  1  0
 29 30  1  0
  8  2  1  0
 30  9  2  0
 23 12  1  0
 30 24  1  0
  1 31  1  0
  1 32  1  0
  1 33  1  0
  3 34  1  0
  5 35  1  0
  7 36  1  0
  7 37  1  0
  7 38  1  0
 13 39  1  0
 14 40  1  0
 23 41  1  0
 25 42  1  0
 25 43  1  0
 26 44  1  0
 26 45  1  0
 28 46  1  0
 28 47  1  0
 29 48  1  0
 29 49  1  0
M  END
$$$$
[H]OC(=O)C([H])([H])C([H])([H])[C@@]([H])(C(=O)N([H])[C@]([H])(C(=O)N([H])[C@]([H])(C(=O)N([H])[C@]([H])(C(=O)O[H])C([H])([H])C([H])([H])C(=O)O[H])C([H])([H])c1c([H])c([H])c(O[H])c([H])c1[H])C([H])([H])C([H])([H])C(=O)O[H])N([H])[H]
     RDKit          3D

 72 72  0  0  0  0  0  0  0  0999 V2000
    3.9537    1.7276    1.9715 N   0  0  0  0  0  0  0  0  0  0  0  0
    4.5155    1.6926    0.6148 C   0  0  1  0  0  0  0  0  0  0  0  0
    5.9655    1.3744    0.6578 C   0  0  0  0  0  0  0  0  0  0  0  0
    6.6642    1.3187   -0.6561 C   0  0  0  0  0  0  0  0  0  0  0  0
    6.6492    2.5461   -1.4496 C   0  0  0  0  0  0  0  0  0  0  0  0
    6.1708    3.7461   -0.9894 O   0  0  0  0  0  0  0  0  0  0  0  0
    7.1041    2.5470   -2.6508 O   0  0  0  0  0  0  0  0  0  0  0  0
    3.6793    0.7937   -0.2043 C   0  0  0  0  0  0  0  0  0  0  0  0
    3.9172    0.5891   -1.4266 O   0  0  0  0  0  0  0  0  0  0  0  0
    2.5714    0.1251    0.3504 N   0  0  0  0  0  0  0  0  0  0  0  0
    1.7201   -0.7685   -0.3893 C   0  0  1  0  0  0  0  0  0  0  0  0
    1.6165   -2.1263    0.2137 C   0  0  0  0  0  0  0  0  0  0  0  0
    1.0516   -2.1188    1.6197 C   0  0  0  0  0  0  0  0  0  0  0  0
    1.0053   -3.5222    2.0958 C   0  0  0  0  0  0  0  0  0  0  0  0
    1.4239   -4.6120    1.3205 O   0  0  0  0  0  0  0  0  0  0  0  0
    0.5790   -3.7917    3.2415 O   0  0  0  0  0  0  0  0  0  0  0  0
    0.3271   -0.1684   -0.4554 C   0  0  0  0  0  0  0  0  0  0  0  0
    0.2186    0.9200    0.1211 O   0  0  0  0  0  0  0  0  0  0  0  0
   -0.6588   -0.8422   -1.1177 N   0  0  0  0  0  0  0  0  0  0  0  0
   -2.0153   -0.5227   -1.3619 C   0  0  1  0  0  0  0  0  0  0  0  0
   -2.9815   -1.5128   -0.8694 C   0  0  0  0  0  0  0  0  0  0  0  0
   -2.8225   -2.8777   -1.4307 C   0  0  0  0  0  0  0  0  0  0  0  0
   -3.4529   -3.3351   -2.5684 C   0  0  0  0  0  0  0  0  0  0  0  0
   -3.2660   -4.6254   -3.0432 C   0  0  0  0  0  0  0  0  0  0  0  0
   -2.4329   -5.5115   -2.3900 C   0  0  0  0  0  0  0  0  0  0  0  0
   -2.2565   -6.7990   -2.8789 O   0  0  0  0  0  0  0  0  0  0  0  0
   -1.7985   -5.0616   -1.2510 C   0  0  0  0  0  0  0  0  0  0  0  0
   -1.9952   -3.7725   -0.7899 C   0  0  0  0  0  0  0  0  0  0  0  0
   -2.4196    0.8484   -0.9143 C   0  0  0  0  0  0  0  0  0  0  0  0
   -1.7279    1.8766   -1.1754 O   0  0  0  0  0  0  0  0  0  0  0  0
   -3.6061    1.0558   -0.1716 N   0  0  0  0  0  0  0  0  0  0  0  0
   -4.0003    2.4098    0.2444 C   0  0  1  0  0  0  0  0  0  0  0  0
   -3.3326    2.7262    1.5153 C   0  0  0  0  0  0  0  0  0  0  0  0
   -3.5920    4.0529    2.1367 C   0  0  0  0  0  0  0  0  0  0  0  0
   -2.7895    4.0557    3.4207 C   0  0  0  0  0  0  0  0  0  0  0  0
   -2.8609    5.2120    4.1756 O   0  0  0  0  0  0  0  0  0  0  0  0
   -2.1019    3.1119    3.8097 O   0  0  0  0  0  0  0  0  0  0  0  0
   -3.9521    3.3759   -0.8395 C   0  0  0  0  0  0  0  0  0  0  0  0
   -3.7495    4.7324   -0.7382 O   0  0  0  0  0  0  0  0  0  0  0  0
   -4.1086    2.9465   -2.0374 O   0  0  0  0  0  0  0  0  0  0  0  0
    3.9362    0.7887    2.3978 H   0  0  0  0  0  0  0  0  0  0  0  0
    2.9880    2.0862    1.8988 H   0  0  0  0  0  0  0  0  0  0  0  0
    4.3548    2.7197    0.1846 H   0  0  0  0  0  0  0  0  0  0  0  0
    6.4795    2.2016    1.2439 H   0  0  0  0  0  0  0  0  0  0  0  0
    6.1908    0.4280    1.2041 H   0  0  0  0  0  0  0  0  0  0  0  0
    7.7742    1.0880   -0.4619 H   0  0  0  0  0  0  0  0  0  0  0  0
    6.2649    0.4808   -1.2690 H   0  0  0  0  0  0  0  0  0  0  0  0
    5.4481    4.2903   -1.4280 H   0  0  0  0  0  0  0  0  0  0  0  0
    2.3311    0.2661    1.3454 H   0  0  0  0  0  0  0  0  0  0  0  0
    2.1401   -0.8423   -1.4087 H   0  0  0  0  0  0  0  0  0  0  0  0
    2.5913   -2.6786    0.1974 H   0  0  0  0  0  0  0  0  0  0  0  0
    0.9388   -2.7436   -0.4034 H   0  0  0  0  0  0  0  0  0  0  0  0
    1.6801   -1.5360    2.3218 H   0  0  0  0  0  0  0  0  0  0  0  0
   -0.0111   -1.7509    1.5856 H   0  0  0  0  0  0  0  0  0  0  0  0
    2.3585   -4.5615    0.9412 H   0  0  0  0  0  0  0  0  0  0  0  0
   -0.3683   -1.7991   -1.5590 H   0  0  0  0  0  0  0  0  0  0  0  0
   -2.0796   -0.3481   -2.5112 H   0  0  0  0  0  0  0  0  0  0  0  0
   -2.9305   -1.5775    0.2188 H   0  0  0  0  0  0  0  0  0  0  0  0
   -4.0245   -1.2030   -1.1449 H   0  0  0  0  0  0  0  0  0  0  0  0
   -4.0980   -2.6590   -3.0793 H   0  0  0  0  0  0  0  0  0  0  0  0
   -3.7816   -4.9642   -3.9512 H   0  0  0  0  0  0  0  0  0  0  0  0
   -2.8852   -7.5357   -2.5483 H   0  0  0  0  0  0  0  0  0  0  0  0
   -1.1388   -5.7735   -0.7420 H   0  0  0  0  0  0  0  0  0  0  0  0
   -1.4717   -3.4631    0.1175 H   0  0  0  0  0  0  0  0  0  0  0  0
   -4.2113    0.2821    0.1041 H   0  0  0  0  0  0  0  0  0  0  0  0
   -5.1240    2.2856    0.4784 H   0  0  0  0  0  0  0  0  0  0  0  0
   -3.5734    1.9583    2.3126 H   0  0  0  0  0  0  0  0  0  0  0  0
   -2.2064    2.6362    1.4270 H   0  0  0  0  0  0  0  0  0  0  0  0
   -3.1789    4.9091    1.5723 H   0  0  0  0  0  0  0  0  0  0  0  0
   -4.6281    4.2233    2.4605 H   0  0  0  0  0  0  0  0  0  0  0  0
   -3.7375    5.7029    4.2236 H   0  0  0  0  0  0  0  0  0  0  0  0
   -3.2394    5.2732   -1.4385 H   0  0  0  0  0  0  0  0  0  0  0  0
  1  2  1  0
  2  3  1  0
  3  4  1  0
  4  5  1  0
  5  6  1  0
  5  7  2  0
  2  8  1  0
  8  9  2  0
  8 10  1  0
 10 11  1  0
 11 12  1  0
 12 13  1  0
 13 14  1  0
 14 15  1  0
 14 16  2  0
 11 17  1  0
 17 18  2  0
 17 19  1  0
 19 20  1  0
 20 21  1  0
 21 22  1  0
 22 23  2  0
 23 24  1  0
 24 25  2  0
 25 26  1  0
 25 27  1  0
 27 28  2  0
 20 29  1  0
 29 30  2  0
 29 31  1  0
 31 32  1  0
 32 33  1  0
 33 34  1  0
 34 35  1  0
 35 36  1  0
 35 37  2  0
 32 38  1  0
 38 39  1  0
 38 40  2  0
 28 22  1  0
  1 41  1  0
  1 42  1  0
  2 43  1  6
  3 44  1  0
  3 45  1  0
  4 46  1  0
  4 47  1  0
  6 48  1  0
 10 49  1  0
 11 50  1  6
 12 51  1  0
 12 52  1  0
 13 53  1  0
 13 54  1  0
 15 55  1  0
 19 56  1  0
 20 57  1  6
 21 58  1  0
 21 59  1  0
 23 60  1  0
 24 61  1  0
 26 62  1  0
 27 63  1  0
 28 64  1  0
 31 65  1  0
 32 66  1  1
 33 67  1  0
 33 68  1  0
 34 69  1  0
 34 70  1  0
 36 71  1  0
 39 72  1  0
M  END
$$$$
[H]C([H])=C([H])C(=O)N([H])c1c([H])c([H])c([H])c(N([H])c2nc(N([H])c3c([H])c(OC([H])([H])[H])c(OC([H])([H])[H])c(OC([H])([H])[H])c3[H])nc([H])c2Cl)c1[H]
     RDKit          3D

 54 56  0  0  0  0  0  0  0  0999 V2000
   -5.4249    0.9160   -3.1247 C   0  0  0  0  0  0  0  0  0  0  0  0
   -6.1037    0.6365   -1.9160 O   0  0  0  0  0  0  0  0  0  0  0  0
   -5.3190    0.4319   -0.7859 C   0  0  0  0  0  0  0  0  0  0  0  0
   -3.9359    0.4939   -0.8177 C   0  0  0  0  0  0  0  0  0  0  0  0
   -3.1036    0.3019    0.2582 C   0  0  0  0  0  0  0  0  0  0  0  0
   -1.6927    0.3396    0.2304 N   0  0  0  0  0  0  0  0  0  0  0  0
   -0.8451    0.2295   -0.8888 C   0  0  0  0  0  0  0  0  0  0  0  0
   -1.2506    0.0547   -2.1466 N   0  0  0  0  0  0  0  0  0  0  0  0
   -0.4160   -0.0469   -3.1898 C   0  0  0  0  0  0  0  0  0  0  0  0
    0.9433    0.0255   -3.0165 C   0  0  0  0  0  0  0  0  0  0  0  0
    2.0549   -0.1063   -4.3802 Cl  0  0  0  0  0  0  0  0  0  0  0  0
    1.4080    0.2094   -1.7046 C   0  0  0  0  0  0  0  0  0  0  0  0
    2.7930    0.2632   -1.5219 N   0  0  0  0  0  0  0  0  0  0  0  0
    3.4962    0.4628   -0.3034 C   0  0  0  0  0  0  0  0  0  0  0  0
    2.9625    1.0227    0.8052 C   0  0  0  0  0  0  0  0  0  0  0  0
    3.7328    1.1457    1.9527 C   0  0  0  0  0  0  0  0  0  0  0  0
    5.0556    0.7001    1.9829 C   0  0  0  0  0  0  0  0  0  0  0  0
    5.6165    0.1349    0.8822 C   0  0  0  0  0  0  0  0  0  0  0  0
    6.9532   -0.3251    0.8240 N   0  0  0  0  0  0  0  0  0  0  0  0
    8.0050   -0.1119    1.7128 C   0  0  0  0  0  0  0  0  0  0  0  0
    7.8635    0.5813    2.7574 O   0  0  0  0  0  0  0  0  0  0  0  0
    9.3480   -0.6669    1.5138 C   0  0  0  0  0  0  0  0  0  0  0  0
    9.6898   -1.4142    0.4856 C   0  0  0  0  0  0  0  0  0  0  0  0
    4.7982    0.0346   -0.2450 C   0  0  0  0  0  0  0  0  0  0  0  0
    0.5086    0.3000   -0.7286 N   0  0  0  0  0  0  0  0  0  0  0  0
   -3.7601    0.0219    1.4750 C   0  0  0  0  0  0  0  0  0  0  0  0
   -5.1246   -0.0476    1.5480 C   0  0  0  0  0  0  0  0  0  0  0  0
   -5.7589   -0.3228    2.7466 O   0  0  0  0  0  0  0  0  0  0  0  0
   -4.9883   -0.5342    3.9067 C   0  0  0  0  0  0  0  0  0  0  0  0
   -5.9141    0.1554    0.4247 C   0  0  0  0  0  0  0  0  0  0  0  0
   -7.3028    0.0892    0.4759 O   0  0  0  0  0  0  0  0  0  0  0  0
   -7.8824   -1.1909    0.2382 C   0  0  0  0  0  0  0  0  0  0  0  0
   -6.1911    1.0481   -3.9349 H   0  0  0  0  0  0  0  0  0  0  0  0
   -4.7994    0.0572   -3.4531 H   0  0  0  0  0  0  0  0  0  0  0  0
   -4.8293    1.8308   -3.0958 H   0  0  0  0  0  0  0  0  0  0  0  0
   -3.5234    0.7290   -1.7901 H   0  0  0  0  0  0  0  0  0  0  0  0
   -1.2303    0.4725    1.1803 H   0  0  0  0  0  0  0  0  0  0  0  0
   -0.7901   -0.1909   -4.2144 H   0  0  0  0  0  0  0  0  0  0  0  0
    3.3999    0.1458   -2.3980 H   0  0  0  0  0  0  0  0  0  0  0  0
    1.9482    1.4012    0.8386 H   0  0  0  0  0  0  0  0  0  0  0  0
    3.3325    1.5888    2.8546 H   0  0  0  0  0  0  0  0  0  0  0  0
    5.6075    0.8146    2.9141 H   0  0  0  0  0  0  0  0  0  0  0  0
    7.1911   -0.9295   -0.0272 H   0  0  0  0  0  0  0  0  0  0  0  0
   10.1103   -0.4350    2.2829 H   0  0  0  0  0  0  0  0  0  0  0  0
    8.9896   -1.6645   -0.2810 H   0  0  0  0  0  0  0  0  0  0  0  0
   10.6898   -1.8114    0.3633 H   0  0  0  0  0  0  0  0  0  0  0  0
    5.2516   -0.4221   -1.1332 H   0  0  0  0  0  0  0  0  0  0  0  0
   -3.1201   -0.1361    2.3488 H   0  0  0  0  0  0  0  0  0  0  0  0
   -4.2819    0.3155    4.0950 H   0  0  0  0  0  0  0  0  0  0  0  0
   -5.6376   -0.5830    4.8096 H   0  0  0  0  0  0  0  0  0  0  0  0
   -4.4347   -1.4885    3.7508 H   0  0  0  0  0  0  0  0  0  0  0  0
   -7.8716   -1.3846   -0.8701 H   0  0  0  0  0  0  0  0  0  0  0  0
   -8.9166   -1.1415    0.6333 H   0  0  0  0  0  0  0  0  0  0  0  0
   -7.3007   -2.0002    0.6909 H   0  0  0  0  0  0  0  0  0  0  0  0
  1  2  1  0
  2  3  1  0
  3  4  2  0
  4  5  1  0
  5  6  1  0
  6  7  1  0
  7  8  2  0
  8  9  1  0
  9 10  2  0
 10 11  1  0
 10 12  1  0
 12 13  1  0
 13 14  1  0
 14 15  2  0
 15 16  1  0
 16 17  2  0
 17 18  1  0
 18 19  1  0
 19 20  1  0
 20 21  2  0
 20 22  1  0
 22 23  2  3
 18 24  2  0
 12 25  2  0
  5 26  2  0
 26 27  1  0
 27 28  1  0
 28 29  1  0
 27 30  2  0
 30 31  1  0
 31 32  1  0
 30  3  1  0
 25  7  1  0
 24 14  1  0
  1 33  1  0
  1 34  1  0
  1 35  1  0
  4 36  1  0
  6 37  1  0
  9 38  1  0
 13 39  1  0
 15 40  1  0
 16 41  1  0
 17 42  1  0
 19 43  1  0
 22 44  1  0
 23 45  1  0
 23 46  1  0
 24 47  1  0
 26 48  1  0
 29 49  1  0
 29 50  1  0
 29 51  1  0
 32 52  1  0
 32 53  1  0
 32 54  1  0
M  END
$$$$
[H]C([H])=C([H])C(=O)N([H])c1c([H])c([H])c([H])c(N([H])c2nc(N([H])c3c([H])c([H])c(N4C([H])([H])C([H])([H])C([H])(N5C([H])([H])C([H])([H])N(C([H])([H])[H])C([H])([H])C5([H])[H])C([H])([H])C4([H])[H])c([H])c3OC([H])([H])[H])nc([H])c2Cl)c1[H]
     RDKit          3D

 78 82  0  0  0  0  0  0  0  0999 V2000
   -0.8343   -1.2107    3.1325 C   0  0  0  0  0  0  0  0  0  0  0  0
   -1.2492   -1.3856    1.7920 O   0  0  0  0  0  0  0  0  0  0  0  0
   -0.3559   -1.2182    0.7524 C   0  0  0  0  0  0  0  0  0  0  0  0
    0.9266   -0.8232    0.9112 C   0  0  0  0  0  0  0  0  0  0  0  0
    1.7726   -0.6695   -0.1679 C   0  0  0  0  0  0  0  0  0  0  0  0
    1.3295   -0.9116   -1.4673 C   0  0  0  0  0  0  0  0  0  0  0  0
   -0.0518   -1.3215   -1.5804 C   0  0  0  0  0  0  0  0  0  0  0  0
   -0.8801   -1.4835   -0.5393 C   0  0  0  0  0  0  0  0  0  0  0  0
   -2.2475   -1.7354   -0.5780 N   0  0  0  0  0  0  0  0  0  0  0  0
   -3.1397   -1.4850   -1.7140 C   0  0  0  0  0  0  0  0  0  0  0  0
   -2.7734   -1.0366   -2.8292 N   0  0  0  0  0  0  0  0  0  0  0  0
   -3.7226   -0.6835   -3.8136 C   0  0  0  0  0  0  0  0  0  0  0  0
   -5.0495   -0.8473   -3.5349 C   0  0  0  0  0  0  0  0  0  0  0  0
   -6.2546   -0.4462   -4.7112 Cl  0  0  0  0  0  0  0  0  0  0  0  0
   -5.4959   -1.3728   -2.2848 C   0  0  0  0  0  0  0  0  0  0  0  0
   -6.8022   -1.4498   -2.0501 N   0  0  0  0  0  0  0  0  0  0  0  0
   -7.7401   -1.7065   -1.1092 C   0  0  0  0  0  0  0  0  0  0  0  0
   -7.8386   -2.6950   -0.1745 C   0  0  0  0  0  0  0  0  0  0  0  0
   -8.6852   -2.7244    0.9150 C   0  0  0  0  0  0  0  0  0  0  0  0
   -9.5602   -1.6571    1.1594 C   0  0  0  0  0  0  0  0  0  0  0  0
   -9.4917   -0.5072    0.1442 C   0  0  0  0  0  0  0  0  0  0  0  0
   -9.9461    0.5909    0.5432 N   0  0  0  0  0  0  0  0  0  0  0  0
  -10.5105    1.8803    1.0278 C   0  0  0  0  0  0  0  0  0  0  0  0
  -11.6585    1.8174    1.5697 O   0  0  0  0  0  0  0  0  0  0  0  0
   -9.6472    2.9728    0.8346 C   0  0  0  0  0  0  0  0  0  0  0  0
   -9.7512    4.1957    1.2912 C   0  0  0  0  0  0  0  0  0  0  0  0
   -8.6543   -0.5893   -0.8603 C   0  0  0  0  0  0  0  0  0  0  0  0
   -4.4737   -1.6545   -1.4347 N   0  0  0  0  0  0  0  0  0  0  0  0
    3.1087   -0.2666    0.0462 N   0  0  0  0  0  0  0  0  0  0  0  0
    3.8887   -1.0507    1.0152 C   0  0  0  0  0  0  0  0  0  0  0  0
    5.1418   -0.2640    1.3450 C   0  0  0  0  0  0  0  0  0  0  0  0
    5.9565    0.0228    0.1165 C   0  0  0  0  0  0  0  0  0  0  0  0
    5.0590    0.5370   -1.0109 C   0  0  0  0  0  0  0  0  0  0  0  0
    3.6979    0.8754   -0.5397 C   0  0  0  0  0  0  0  0  0  0  0  0
    6.9195    1.0591    0.4441 N   0  0  0  0  0  0  0  0  0  0  0  0
    7.8545    0.6083    1.4746 C   0  0  0  0  0  0  0  0  0  0  0  0
    8.7194    1.8007    1.8035 C   0  0  0  0  0  0  0  0  0  0  0  0
    9.5963    2.1150    0.7207 N   0  0  0  0  0  0  0  0  0  0  0  0
   10.9126    1.5228    0.9598 C   0  0  0  0  0  0  0  0  0  0  0  0
    9.1176    1.6575   -0.5387 C   0  0  0  0  0  0  0  0  0  0  0  0
    7.6266    1.6054   -0.6846 C   0  0  0  0  0  0  0  0  0  0  0  0
    0.1290   -1.6908    3.4047 H   0  0  0  0  0  0  0  0  0  0  0  0
   -1.5682   -1.9833    3.6748 H   0  0  0  0  0  0  0  0  0  0  0  0
   -1.0610   -0.2607    3.5776 H   0  0  0  0  0  0  0  0  0  0  0  0
    1.2430   -0.4934    1.9421 H   0  0  0  0  0  0  0  0  0  0  0  0
    1.9528   -0.9239   -2.2895 H   0  0  0  0  0  0  0  0  0  0  0  0
   -0.3054   -1.5514   -2.6264 H   0  0  0  0  0  0  0  0  0  0  0  0
   -2.7167   -2.2027    0.2831 H   0  0  0  0  0  0  0  0  0  0  0  0
   -3.3966   -0.2682   -4.7347 H   0  0  0  0  0  0  0  0  0  0  0  0
   -7.4324   -1.3851   -3.0661 H   0  0  0  0  0  0  0  0  0  0  0  0
   -7.2060   -3.5900   -0.3122 H   0  0  0  0  0  0  0  0  0  0  0  0
   -8.7510   -3.5133    1.5748 H   0  0  0  0  0  0  0  0  0  0  0  0
  -10.2060   -1.5477    1.9495 H   0  0  0  0  0  0  0  0  0  0  0  0
  -11.1726    0.0062    0.8698 H   0  0  0  0  0  0  0  0  0  0  0  0
   -8.6884    2.8091    0.1411 H   0  0  0  0  0  0  0  0  0  0  0  0
  -10.6595    4.4238    1.9354 H   0  0  0  0  0  0  0  0  0  0  0  0
   -9.0147    4.9566    1.2036 H   0  0  0  0  0  0  0  0  0  0  0  0
   -8.6073    0.1707   -1.6062 H   0  0  0  0  0  0  0  0  0  0  0  0
    3.3092   -1.2960    1.8699 H   0  0  0  0  0  0  0  0  0  0  0  0
    4.1723   -1.9651    0.4437 H   0  0  0  0  0  0  0  0  0  0  0  0
    4.8327    0.6944    1.7917 H   0  0  0  0  0  0  0  0  0  0  0  0
    5.7671   -0.8967    2.0212 H   0  0  0  0  0  0  0  0  0  0  0  0
    6.4261   -0.9367   -0.2363 H   0  0  0  0  0  0  0  0  0  0  0  0
    5.4582    1.4800   -1.4366 H   0  0  0  0  0  0  0  0  0  0  0  0
    5.1305   -0.2083   -1.8319 H   0  0  0  0  0  0  0  0  0  0  0  0
    3.8202    1.7020    0.2057 H   0  0  0  0  0  0  0  0  0  0  0  0
    3.1214    1.2911   -1.3979 H   0  0  0  0  0  0  0  0  0  0  0  0
    8.5024   -0.2268    1.1469 H   0  0  0  0  0  0  0  0  0  0  0  0
    7.2028    0.3618    2.3590 H   0  0  0  0  0  0  0  0  0  0  0  0
    9.3264    1.6460    2.7548 H   0  0  0  0  0  0  0  0  0  0  0  0
    8.0579    2.6650    1.9620 H   0  0  0  0  0  0  0  0  0  0  0  0
   11.7040    2.3126    0.9805 H   0  0  0  0  0  0  0  0  0  0  0  0
   10.9960    0.9756    1.9193 H   0  0  0  0  0  0  0  0  0  0  0  0
   11.1727    0.8249    0.1571 H   0  0  0  0  0  0  0  0  0  0  0  0
    9.5527    0.6742   -0.8114 H   0  0  0  0  0  0  0  0  0  0  0  0
    9.4700    2.3793   -1.3242 H   0  0  0  0  0  0  0  0  0  0  0  0
    7.1820    2.5858   -0.8859 H   0  0  0  0  0  0  0  0  0  0  0  0
    7.4428    0.9152   -1.5682 H   0  0  0  0  0  0  0  0  0  0  0  0
  1  2  1  0
  2  3  1  0
  3  4  2  0
  4  5  1  0
  5  6  2  0
  6  7  1  0
  7  8  2  0
  8  9  1  0
  9 10  1  0
 10 11  2  0
 11 12  1  0
 12 13  2  0
 13 14  1  0
 13 15  1  0
 15 16  1  0
 16 17  1  0
 17 18  2  0
 18 19  1  0
 19 20  2  0
 20 21  1  0
 21 22  1  0
 22 23  1  0
 23 24  2  0
 23 25  1  0
 25 26  2  3
 21 27  2  0
 15 28  2  0
  5 29  1  0
 29 30  1  0
 30 31  1  0
 31 32  1  0
 32 33  1  0
 33 34  1  0
 32 35  1  0
 35 36  1  0
 36 37  1  0
 37 38  1  0
 38 39  1  0
 38 40  1  0
 40 41  1  0
  8  3  1  0
 28 10  1  0
 34 29  1  0
 41 35  1  0
 27 17  1  0
  1 42  1  0
  1 43  1  0
  1 44  1  0
  4 45  1  0
  6 46  1  0
  7 47  1  0
  9 48  1  0
 12 49  1  0
 16 50  1  0
 18 51  1  0
 19 52  1  0
 20 53  1  0
 22 54  1  0
 25 55  1  0
 26 56  1  0
 26 57  1  0
 27 58  1  0
 30 59  1  0
 30 60  1  0
 31 61  1  0
 31 62  1  0
 32 63  1  0
 33 64  1  0
 33 65  1  0
 34 66  1  0
 34 67  1  0
 36 68  1  0
 36 69  1  0
 37 70  1  0
 37 71  1  0
 39 72  1  0
 39 73  1  0
 39 74  1  0
 40 75  1  0
 40 76  1  0
 41 77  1  0
 41 78  1  0
M  END
$$$$
[H]ON([H])C(=O)C([H])([H])C([H])([H])C([H])([H])C([H])([H])C([H])([H])[C@@]([H])(C(=O)N([H])c1c([H])c([H])c([H])c([H])c1[H])N([H])C(=O)OC([H])([H])c1c([H])c([H])c([H])c([H])c1[H]
     RDKit          3D

 57 58  0  0  0  0  0  0  0  0999 V2000
    6.6139   -3.9331   -1.6183 O   0  0  0  0  0  0  0  0  0  0  0  0
    5.3317   -3.9209   -1.2076 N   0  0  0  0  0  0  0  0  0  0  0  0
    4.8399   -2.8737   -0.3623 C   0  0  0  0  0  0  0  0  0  0  0  0
    5.6449   -1.9791   -0.0248 O   0  0  0  0  0  0  0  0  0  0  0  0
    3.4649   -2.8305    0.0978 C   0  0  0  0  0  0  0  0  0  0  0  0
    3.0173   -1.6690    0.8911 C   0  0  0  0  0  0  0  0  0  0  0  0
    3.0892   -0.3299    0.1897 C   0  0  0  0  0  0  0  0  0  0  0  0
    2.5922    0.7855    1.0761 C   0  0  0  0  0  0  0  0  0  0  0  0
    1.2232    0.7224    1.5684 C   0  0  0  0  0  0  0  0  0  0  0  0
    0.0411    0.7411    0.7198 C   0  0  2  0  0  0  0  0  0  0  0  0
   -0.1333   -0.3069   -0.2496 N   0  0  0  0  0  0  0  0  0  0  0  0
   -1.0664   -1.3928   -0.0274 C   0  0  0  0  0  0  0  0  0  0  0  0
   -1.7575   -1.4660    1.0118 O   0  0  0  0  0  0  0  0  0  0  0  0
   -1.2069   -2.3747   -0.9730 O   0  0  0  0  0  0  0  0  0  0  0  0
   -2.0801   -3.4369   -0.8248 C   0  0  0  0  0  0  0  0  0  0  0  0
   -3.4984   -3.1251   -0.6858 C   0  0  0  0  0  0  0  0  0  0  0  0
   -4.1370   -3.3245    0.5124 C   0  0  0  0  0  0  0  0  0  0  0  0
   -5.4951   -3.0277    0.6514 C   0  0  0  0  0  0  0  0  0  0  0  0
   -6.1740   -2.5356   -0.4279 C   0  0  0  0  0  0  0  0  0  0  0  0
   -5.5351   -2.3361   -1.6267 C   0  0  0  0  0  0  0  0  0  0  0  0
   -4.2072   -2.6328   -1.7408 C   0  0  0  0  0  0  0  0  0  0  0  0
   -0.2638    2.0231    0.0414 C   0  0  0  0  0  0  0  0  0  0  0  0
   -0.5895    2.0721   -1.1492 O   0  0  0  0  0  0  0  0  0  0  0  0
   -0.1804    3.2190    0.7731 N   0  0  0  0  0  0  0  0  0  0  0  0
   -0.4207    4.5336    0.3186 C   0  0  0  0  0  0  0  0  0  0  0  0
   -0.6490    5.5172    1.2771 C   0  0  0  0  0  0  0  0  0  0  0  0
   -0.8706    6.8153    0.8978 C   0  0  0  0  0  0  0  0  0  0  0  0
   -0.8751    7.1871   -0.4261 C   0  0  0  0  0  0  0  0  0  0  0  0
   -0.6525    6.2391   -1.3979 C   0  0  0  0  0  0  0  0  0  0  0  0
   -0.4310    4.9363   -0.9926 C   0  0  0  0  0  0  0  0  0  0  0  0
    7.0598   -3.1089   -1.3009 H   0  0  0  0  0  0  0  0  0  0  0  0
    4.7242   -4.6995   -1.5307 H   0  0  0  0  0  0  0  0  0  0  0  0
    3.2517   -3.7685    0.6641 H   0  0  0  0  0  0  0  0  0  0  0  0
    2.7748   -2.8867   -0.7995 H   0  0  0  0  0  0  0  0  0  0  0  0
    1.9652   -1.9070    1.2294 H   0  0  0  0  0  0  0  0  0  0  0  0
    3.5584   -1.5818    1.8853 H   0  0  0  0  0  0  0  0  0  0  0  0
    4.1996   -0.1030    0.0830 H   0  0  0  0  0  0  0  0  0  0  0  0
    2.6173   -0.4221   -0.7789 H   0  0  0  0  0  0  0  0  0  0  0  0
    2.9011    1.7872    0.6735 H   0  0  0  0  0  0  0  0  0  0  0  0
    3.2647    0.7023    1.9955 H   0  0  0  0  0  0  0  0  0  0  0  0
    1.1288    1.5069    2.3923 H   0  0  0  0  0  0  0  0  0  0  0  0
    1.1545   -0.2369    2.1982 H   0  0  0  0  0  0  0  0  0  0  0  0
   -0.8413    0.5984    1.4414 H   0  0  0  0  0  0  0  0  0  0  0  0
    0.3903   -0.3061   -1.1501 H   0  0  0  0  0  0  0  0  0  0  0  0
   -1.7003   -4.0350    0.0594 H   0  0  0  0  0  0  0  0  0  0  0  0
   -1.8811   -4.1440   -1.6873 H   0  0  0  0  0  0  0  0  0  0  0  0
   -3.6511   -3.7107    1.3982 H   0  0  0  0  0  0  0  0  0  0  0  0
   -5.9859   -3.1848    1.5850 H   0  0  0  0  0  0  0  0  0  0  0  0
   -7.2298   -2.2882   -0.3756 H   0  0  0  0  0  0  0  0  0  0  0  0
   -6.0888   -1.9375   -2.4976 H   0  0  0  0  0  0  0  0  0  0  0  0
   -3.7054   -2.4769   -2.6798 H   0  0  0  0  0  0  0  0  0  0  0  0
    0.1078    3.1520    1.8132 H   0  0  0  0  0  0  0  0  0  0  0  0
   -0.6535    5.2525    2.3479 H   0  0  0  0  0  0  0  0  0  0  0  0
   -1.0422    7.5378    1.6817 H   0  0  0  0  0  0  0  0  0  0  0  0
   -1.0545    8.2244   -0.6865 H   0  0  0  0  0  0  0  0  0  0  0  0
   -0.6506    6.5056   -2.4519 H   0  0  0  0  0  0  0  0  0  0  0  0
   -0.2485    4.2339   -1.8010 H   0  0  0  0  0  0  0  0  0  0  0  0
  1  2  1  0
  2  3  1  0
  3  4  2  0
  3  5  1  0
  5  6  1  0
  6  7  1  0
  7  8  1  0
  8  9  1  0
  9 10  1  0
 10 11  1  0
 11 12  1  0
 12 13  2  0
 12 14  1  0
 14 15  1  0
 15 16  1  0
 16 17  2  0
 17 18  1  0
 18 19  2  0
 19 20  1  0
 20 21  2  0
 10 22  1  0
 22 23  2  0
 22 24  1  0
 24 25  1  0
 25 26  2  0
 26 27  1  0
 27 28  2  0
 28 29  1  0
 29 30  2  0
 21 16  1  0
 30 25  1  0
  1 31  1  0
  2 32  1  0
  5 33  1  0
  5 34  1  0
  6 35  1  0
  6 36  1  0
  7 37  1  0
  7 38  1  0
  8 39  1  0
  8 40  1  0
  9 41  1  0
  9 42  1  0
 10 43  1  1
 11 44  1  0
 15 45  1  0
 15 46  1  0
 17 47  1  0
 18 48  1  0
 19 49  1  0
 20 50  1  0
 21 51  1  0
 24 52  1  0
 26 53  1  0
 27 54  1  0
 28 55  1  0
 29 56  1  0
 30 57  1  0
M  END
$$$$
[H]c1nc([H])c(N([H])C(=O)N2C([H])([H])C([H])([H])c3c([H])c([H])c([H])c([H])c3[C@@]2([H])c2c([H])c([H])c(OC(F)(F)F)c([H])c2[H])c([H])c1[H]
     RDKit          3D

 48 51  0  0  0  0  0  0  0  0999 V2000
    5.7229    1.8921   -1.4135 F   0  0  0  0  0  0  0  0  0  0  0  0
    5.2174    2.8893   -0.6122 C   0  0  0  0  0  0  0  0  0  0  0  0
    5.8191    4.0776   -1.0344 F   0  0  0  0  0  0  0  0  0  0  0  0
    5.6193    2.6148    0.6825 F   0  0  0  0  0  0  0  0  0  0  0  0
    3.8345    3.0606   -0.7367 O   0  0  0  0  0  0  0  0  0  0  0  0
    2.8915    2.0919   -0.4713 C   0  0  0  0  0  0  0  0  0  0  0  0
    2.3530    1.9504    0.7652 C   0  0  0  0  0  0  0  0  0  0  0  0
    1.4177    0.9674    0.9697 C   0  0  0  0  0  0  0  0  0  0  0  0
    0.9770    0.0937   -0.0157 C   0  0  0  0  0  0  0  0  0  0  0  0
    1.5356    0.2578   -1.2530 C   0  0  0  0  0  0  0  0  0  0  0  0
    2.4914    1.2547   -1.4821 C   0  0  0  0  0  0  0  0  0  0  0  0
   -0.0415   -0.9403    0.2940 C   0  0  1  0  0  0  0  0  0  0  0  0
   -1.0701   -1.0640   -0.6939 N   0  0  0  0  0  0  0  0  0  0  0  0
   -1.0161   -2.1866   -1.6469 C   0  0  0  0  0  0  0  0  0  0  0  0
   -1.1011   -3.4344   -0.7640 C   0  0  0  0  0  0  0  0  0  0  0  0
    0.1230   -3.4398    0.0736 C   0  0  0  0  0  0  0  0  0  0  0  0
    0.7338   -4.6760    0.3305 C   0  0  0  0  0  0  0  0  0  0  0  0
    1.8642   -4.6765    1.1125 C   0  0  0  0  0  0  0  0  0  0  0  0
    2.3706   -3.5004    1.6209 C   0  0  0  0  0  0  0  0  0  0  0  0
    1.7675   -2.2974    1.3649 C   0  0  0  0  0  0  0  0  0  0  0  0
    0.6141   -2.2701    0.5701 C   0  0  0  0  0  0  0  0  0  0  0  0
   -2.1524   -0.1827   -0.7813 C   0  0  0  0  0  0  0  0  0  0  0  0
   -2.9805   -0.3543   -1.7100 O   0  0  0  0  0  0  0  0  0  0  0  0
   -2.3210    0.8692    0.1401 N   0  0  0  0  0  0  0  0  0  0  0  0
   -3.3591    1.8271    0.1749 C   0  0  0  0  0  0  0  0  0  0  0  0
   -3.1783    2.9881    0.9384 C   0  0  0  0  0  0  0  0  0  0  0  0
   -4.1597    3.9459    1.0226 C   0  0  0  0  0  0  0  0  0  0  0  0
   -5.3645    3.8243    0.3703 C   0  0  0  0  0  0  0  0  0  0  0  0
   -5.5312    2.7134   -0.3569 N   0  0  0  0  0  0  0  0  0  0  0  0
   -4.5725    1.7402   -0.4607 C   0  0  0  0  0  0  0  0  0  0  0  0
    2.6265    2.5848    1.6195 H   0  0  0  0  0  0  0  0  0  0  0  0
    0.9685    0.8357    1.9654 H   0  0  0  0  0  0  0  0  0  0  0  0
    1.2747   -0.3522   -2.0862 H   0  0  0  0  0  0  0  0  0  0  0  0
    2.9045    1.3485   -2.4697 H   0  0  0  0  0  0  0  0  0  0  0  0
   -0.5365   -0.6725    1.2673 H   0  0  0  0  0  0  0  0  0  0  0  0
   -0.0716   -2.2536   -2.1890 H   0  0  0  0  0  0  0  0  0  0  0  0
   -1.8695   -2.2067   -2.3205 H   0  0  0  0  0  0  0  0  0  0  0  0
   -1.2096   -4.3513   -1.3752 H   0  0  0  0  0  0  0  0  0  0  0  0
   -1.9789   -3.2999   -0.1054 H   0  0  0  0  0  0  0  0  0  0  0  0
    0.3215   -5.5944   -0.0781 H   0  0  0  0  0  0  0  0  0  0  0  0
    2.3901   -5.6081    1.3514 H   0  0  0  0  0  0  0  0  0  0  0  0
    3.2749   -3.4957    2.2473 H   0  0  0  0  0  0  0  0  0  0  0  0
    2.1548   -1.3620    1.7636 H   0  0  0  0  0  0  0  0  0  0  0  0
   -1.6052    0.9780    0.9353 H   0  0  0  0  0  0  0  0  0  0  0  0
   -2.2259    3.1125    1.4683 H   0  0  0  0  0  0  0  0  0  0  0  0
   -4.0071    4.8437    1.6193 H   0  0  0  0  0  0  0  0  0  0  0  0
   -6.1219    4.5913    0.4513 H   0  0  0  0  0  0  0  0  0  0  0  0
   -4.7939    0.8663   -1.0620 H   0  0  0  0  0  0  0  0  0  0  0  0
  1  2  1  0
  2  3  1  0
  2  4  1  0
  2  5  1  0
  5  6  1  0
  6  7  2  0
  7  8  1  0
  8  9  2  0
  9 10  1  0
 10 11  2  0
  9 12  1  0
 12 13  1  0
 13 14  1  0
 14 15  1  0
 15 16  1  0
 16 17  2  0
 17 18  1  0
 18 19  2  0
 19 20  1  0
 20 21  2  0
 13 22  1  0
 22 23  2  0
 22 24  1  0
 24 25  1  0
 25 26  2  0
 26 27  1  0
 27 28  2  0
 28 29  1  0
 29 30  2  0
 11  6  1  0
 21 12  1  0
 30 25  1  0
 21 16  1  0
  7 31  1  0
  8 32  1  0
 10 33  1  0
 11 34  1  0
 12 35  1  1
 14 36  1  0
 14 37  1  0
 15 38  1  0
 15 39  1  0
 17 40  1  0
 18 41  1  0
 19 42  1  0
 20 43  1  0
 24 44  1  0
 26 45  1  0
 27 46  1  0
 28 47  1  0
 30 48  1  0
M  END
$$$$
[H]O[C@]1([H])[C@@]([H])(C([H])([H])OP(=O)(O[H])O[H])OC([H])(n2c([H])c([H])c(=O)n([H])c2=S)[C@]1([H])O[H]
     RDKit          3D

 34 35  0  0  0  0  0  0  0  0999 V2000
    5.6107   -0.0282    0.0914 O   0  0  0  0  0  0  0  0  0  0  0  0
    4.4903    0.3959    1.2653 P   0  0  0  0  0  0  0  0  0  0  0  0
    5.0121    1.7281    2.1614 O   0  0  0  0  0  0  0  0  0  0  0  0
    4.3358   -0.7833    2.1997 O   0  0  0  0  0  0  0  0  0  0  0  0
    2.9484    0.6885    0.5819 O   0  0  0  0  0  0  0  0  0  0  0  0
    2.3287   -0.5246    0.4683 C   0  0  0  0  0  0  0  0  0  0  0  0
    0.9582   -0.4868   -0.1123 C   0  0  1  0  0  0  0  0  0  0  0  0
    0.0494    0.2599    0.5823 O   0  0  0  0  0  0  0  0  0  0  0  0
   -0.9644    0.6396   -0.2531 C   0  0  0  0  0  0  0  0  0  0  0  0
   -0.6289    0.1487   -1.6468 C   0  0  2  0  0  0  0  0  0  0  0  0
   -1.0509   -1.1643   -1.8464 O   0  0  0  0  0  0  0  0  0  0  0  0
    0.8970    0.0739   -1.5044 C   0  0  2  0  0  0  0  0  0  0  0  0
    1.4065   -0.7692   -2.4666 O   0  0  0  0  0  0  0  0  0  0  0  0
   -2.2696    0.2086    0.1576 N   0  0  0  0  0  0  0  0  0  0  0  0
   -3.2242    0.1119   -0.7831 C   0  0  0  0  0  0  0  0  0  0  0  0
   -4.5134   -0.2905   -0.5097 C   0  0  0  0  0  0  0  0  0  0  0  0
   -4.8381   -0.6109    0.8029 C   0  0  0  0  0  0  0  0  0  0  0  0
   -6.0005   -0.9785    1.0761 O   0  0  0  0  0  0  0  0  0  0  0  0
   -3.8559   -0.5015    1.7141 N   0  0  0  0  0  0  0  0  0  0  0  0
   -2.6027   -0.1063    1.4257 C   0  0  0  0  0  0  0  0  0  0  0  0
   -1.4416    0.0137    2.5562 S   0  0  0  0  0  0  0  0  0  0  0  0
    5.6148    0.5704   -0.6835 H   0  0  0  0  0  0  0  0  0  0  0  0
    4.7209    1.5984    3.0980 H   0  0  0  0  0  0  0  0  0  0  0  0
    2.9583   -1.1648   -0.1977 H   0  0  0  0  0  0  0  0  0  0  0  0
    2.2830   -1.0498    1.4364 H   0  0  0  0  0  0  0  0  0  0  0  0
    0.5790   -1.5344   -0.1541 H   0  0  0  0  0  0  0  0  0  0  0  0
   -1.0150    1.7646   -0.3379 H   0  0  0  0  0  0  0  0  0  0  0  0
   -0.9365    0.8275   -2.4377 H   0  0  0  0  0  0  0  0  0  0  0  0
   -1.4693   -1.2962   -2.7318 H   0  0  0  0  0  0  0  0  0  0  0  0
    1.3149    1.0969   -1.5444 H   0  0  0  0  0  0  0  0  0  0  0  0
    1.6706   -1.6075   -2.0408 H   0  0  0  0  0  0  0  0  0  0  0  0
   -2.9936    0.3557   -1.8076 H   0  0  0  0  0  0  0  0  0  0  0  0
   -5.2773   -0.3665   -1.2701 H   0  0  0  0  0  0  0  0  0  0  0  0
   -4.0968   -0.7433    2.7108 H   0  0  0  0  0  0  0  0  0  0  0  0
  1  2  1  0
  2  3  1  0
  2  4  2  0
  2  5  1  0
  5  6  1  0
  6  7  1  0
  7  8  1  0
  8  9  1  0
  9 10  1  0
 10 11  1  0
 10 12  1  0
 12 13  1  0
  9 14  1  0
 14 15  1  0
 15 16  2  0
 16 17  1  0
 17 18  2  0
 17 19  1  0
 19 20  1  0
 20 21  2  0
 12  7  1  0
 20 14  1  0
  1 22  1  0
  3 23  1  0
  6 24  1  0
  6 25  1  0
  7 26  1  6
  9 27  1  0
 10 28  1  6
 11 29  1  0
 12 30  1  1
 13 31  1  0
 15 32  1  0
 16 33  1  0
 19 34  1  0
M  END
$$$$
[H]c1nc(N2C([H])([H])c3c(nc([H])c([H])c3[H])C([H])([H])C2([H])[H])c2c([C@@]3([H])C([H])([H])OC([H])([H])C3([H])[H])nc(C([H])([H])[H])n2n1
     RDKit          3D

 45 49  0  0  0  0  0  0  0  0999 V2000
    4.8800   -2.2369    0.3170 C   0  0  0  0  0  0  0  0  0  0  0  0
    3.5779   -1.5621    0.1412 C   0  0  0  0  0  0  0  0  0  0  0  0
    3.3373   -0.2924   -0.1377 N   0  0  0  0  0  0  0  0  0  0  0  0
    1.9893   -0.0637   -0.2043 C   0  0  0  0  0  0  0  0  0  0  0  0
    1.4493    1.2537   -0.4235 C   0  0  2  0  0  0  0  0  0  0  0  0
    2.5739    2.1358   -1.0276 C   0  0  0  0  0  0  0  0  0  0  0  0
    2.5202    3.4066   -0.2342 C   0  0  0  0  0  0  0  0  0  0  0  0
    2.3258    2.8619    1.0613 O   0  0  0  0  0  0  0  0  0  0  0  0
    1.2539    2.0186    0.8931 C   0  0  0  0  0  0  0  0  0  0  0  0
    1.3926   -1.2730    0.0487 C   0  0  0  0  0  0  0  0  0  0  0  0
    0.1094   -1.6666    0.1266 C   0  0  0  0  0  0  0  0  0  0  0  0
   -0.1926   -2.9770    0.4196 N   0  0  0  0  0  0  0  0  0  0  0  0
    0.7874   -3.8374    0.6197 C   0  0  0  0  0  0  0  0  0  0  0  0
    2.0605   -3.4268    0.5365 N   0  0  0  0  0  0  0  0  0  0  0  0
    2.3814   -2.1745    0.2580 N   0  0  0  0  0  0  0  0  0  0  0  0
   -1.0010   -0.8147   -0.1222 N   0  0  0  0  0  0  0  0  0  0  0  0
   -1.3897   -0.5258   -1.4664 C   0  0  0  0  0  0  0  0  0  0  0  0
   -2.8655   -0.9476   -1.5814 C   0  0  0  0  0  0  0  0  0  0  0  0
   -3.6154   -0.0746   -0.6648 C   0  0  0  0  0  0  0  0  0  0  0  0
   -4.8078    0.4153   -1.0329 N   0  0  0  0  0  0  0  0  0  0  0  0
   -5.5588    1.2212   -0.2305 C   0  0  0  0  0  0  0  0  0  0  0  0
   -5.0165    1.5104    1.0012 C   0  0  0  0  0  0  0  0  0  0  0  0
   -3.8036    1.0352    1.4229 C   0  0  0  0  0  0  0  0  0  0  0  0
   -3.0889    0.2179    0.5570 C   0  0  0  0  0  0  0  0  0  0  0  0
   -1.7481   -0.3270    1.0047 C   0  0  0  0  0  0  0  0  0  0  0  0
    5.6345   -1.9738   -0.4540 H   0  0  0  0  0  0  0  0  0  0  0  0
    4.7620   -3.3480    0.2644 H   0  0  0  0  0  0  0  0  0  0  0  0
    5.3518   -1.9406    1.2899 H   0  0  0  0  0  0  0  0  0  0  0  0
    0.6296    1.4517   -1.0590 H   0  0  0  0  0  0  0  0  0  0  0  0
    3.5650    1.6780   -0.8555 H   0  0  0  0  0  0  0  0  0  0  0  0
    2.4164    2.2912   -2.1088 H   0  0  0  0  0  0  0  0  0  0  0  0
    1.6904    4.0543   -0.5351 H   0  0  0  0  0  0  0  0  0  0  0  0
    3.4933    3.8864   -0.3104 H   0  0  0  0  0  0  0  0  0  0  0  0
    0.3293    2.6600    0.8314 H   0  0  0  0  0  0  0  0  0  0  0  0
    1.1686    1.3430    1.7560 H   0  0  0  0  0  0  0  0  0  0  0  0
    0.6010   -4.9048    0.8585 H   0  0  0  0  0  0  0  0  0  0  0  0
   -1.4243    0.5733   -1.7053 H   0  0  0  0  0  0  0  0  0  0  0  0
   -0.7864   -1.0541   -2.2332 H   0  0  0  0  0  0  0  0  0  0  0  0
   -3.0115   -1.9907   -1.2134 H   0  0  0  0  0  0  0  0  0  0  0  0
   -3.2102   -0.8461   -2.6391 H   0  0  0  0  0  0  0  0  0  0  0  0
   -6.5270    1.6194   -0.5321 H   0  0  0  0  0  0  0  0  0  0  0  0
   -5.5892    2.1546    1.6780 H   0  0  0  0  0  0  0  0  0  0  0  0
   -3.3498    1.2433    2.3840 H   0  0  0  0  0  0  0  0  0  0  0  0
   -1.2424    0.4123    1.6167 H   0  0  0  0  0  0  0  0  0  0  0  0
   -2.0522   -1.1858    1.6849 H   0  0  0  0  0  0  0  0  0  0  0  0
  1  2  1  0
  2  3  2  0
  3  4  1  0
  4  5  1  0
  5  6  1  0
  6  7  1  0
  7  8  1  0
  8  9  1  0
  4 10  2  0
 10 11  1  0
 11 12  2  0
 12 13  1  0
 13 14  2  0
 14 15  1  0
 11 16  1  0
 16 17  1  0
 17 18  1  0
 18 19  1  0
 19 20  2  0
 20 21  1  0
 21 22  2  0
 22 23  1  0
 23 24  2  0
 24 25  1  0
 15  2  1  0
 25 16  1  0
  9  5  1  0
 15 10  1  0
 24 19  1  0
  1 26  1  0
  1 27  1  0
  1 28  1  0
  5 29  1  6
  6 30  1  0
  6 31  1  0
  7 32  1  0
  7 33  1  0
  9 34  1  0
  9 35  1  0
 13 36  1  0
 17 37  1  0
 17 38  1  0
 18 39  1  0
 18 40  1  0
 21 41  1  0
 22 42  1  0
 23 43  1  0
 25 44  1  0
 25 45  1  0
M  END
$$$$
[H]OC(=O)[C@@]1([H])N(C(=O)c2[se]c(-c3c([H])c([H])c(OC([H])([H])C([H])(C([H])([H])[H])C([H])([H])[H])c(C#N)c3[H])nc2C([H])([H])[H])C([H])([H])C([H])([H])C1([H])[H]
     RDKit          3D

 52 54  0  0  0  0  0  0  0  0999 V2000
    8.9245   -0.8666    0.7183 C   0  0  0  0  0  0  0  0  0  0  0  0
    7.4072   -0.9589    0.7147 C   0  0  0  0  0  0  0  0  0  0  0  0
    6.9054   -0.7072    2.0965 C   0  0  0  0  0  0  0  0  0  0  0  0
    6.8366    0.0755   -0.2854 C   0  0  0  0  0  0  0  0  0  0  0  0
    5.5470    0.1141   -0.4045 O   0  0  0  0  0  0  0  0  0  0  0  0
    4.2602    0.1925   -0.3542 C   0  0  0  0  0  0  0  0  0  0  0  0
    3.5645    0.5126    0.8323 C   0  0  0  0  0  0  0  0  0  0  0  0
    2.1953    0.5805    0.8194 C   0  0  0  0  0  0  0  0  0  0  0  0
    1.4642    0.3473   -0.3137 C   0  0  0  0  0  0  0  0  0  0  0  0
    2.1257    0.0368   -1.4685 C   0  0  0  0  0  0  0  0  0  0  0  0
    3.4880   -0.0456   -1.5176 C   0  0  0  0  0  0  0  0  0  0  0  0
    4.2015   -0.3710   -2.7222 C   0  0  0  0  0  0  0  0  0  0  0  0
    4.7489   -0.6308   -3.6893 N   0  0  0  0  0  0  0  0  0  0  0  0
    0.0327    0.4296   -0.2758 C   0  0  0  0  0  0  0  0  0  0  0  0
   -0.9561    0.2991   -1.0452 N   0  0  0  0  0  0  0  0  0  0  0  0
   -2.2105    0.3912   -0.9225 C   0  0  0  0  0  0  0  0  0  0  0  0
   -3.1227    0.2271   -2.1855 C   0  0  0  0  0  0  0  0  0  0  0  0
   -2.8839    0.6831    0.1888 C   0  0  0  0  0  0  0  0  0  0  0  0
   -1.0545    0.8825    1.4186 Se  0  0  0  0  0  2  0  0  0  0  0  0
   -4.1149    0.8176    0.8715 C   0  0  0  0  0  0  0  0  0  0  0  0
   -3.9679    1.3694    2.0816 O   0  0  0  0  0  0  0  0  0  0  0  0
   -5.4476    0.5133    0.5923 N   0  0  0  0  0  0  0  0  0  0  0  0
   -6.5098    0.8825    1.5767 C   0  0  0  0  0  0  0  0  0  0  0  0
   -7.2565   -0.4057    1.6706 C   0  0  0  0  0  0  0  0  0  0  0  0
   -7.2131   -0.9812    0.2839 C   0  0  0  0  0  0  0  0  0  0  0  0
   -6.1310   -0.1425   -0.4405 C   0  0  1  0  0  0  0  0  0  0  0  0
   -6.8609    0.7730   -1.3644 C   0  0  0  0  0  0  0  0  0  0  0  0
   -7.6060    0.2234   -2.4115 O   0  0  0  0  0  0  0  0  0  0  0  0
   -6.8633    2.0139   -1.2806 O   0  0  0  0  0  0  0  0  0  0  0  0
    9.1917    0.1446    0.3796 H   0  0  0  0  0  0  0  0  0  0  0  0
    9.3970   -1.6651    0.1123 H   0  0  0  0  0  0  0  0  0  0  0  0
    9.3031   -0.9978    1.7587 H   0  0  0  0  0  0  0  0  0  0  0  0
    7.1426   -1.9558    0.3128 H   0  0  0  0  0  0  0  0  0  0  0  0
    7.6377   -0.8868    2.8875 H   0  0  0  0  0  0  0  0  0  0  0  0
    5.9836   -1.3278    2.2358 H   0  0  0  0  0  0  0  0  0  0  0  0
    6.5426    0.3611    2.1347 H   0  0  0  0  0  0  0  0  0  0  0  0
    7.3550   -0.1169   -1.2804 H   0  0  0  0  0  0  0  0  0  0  0  0
    7.2366    1.0901    0.0757 H   0  0  0  0  0  0  0  0  0  0  0  0
    4.1556    0.6972    1.7171 H   0  0  0  0  0  0  0  0  0  0  0  0
    1.6821    0.8247    1.7290 H   0  0  0  0  0  0  0  0  0  0  0  0
    1.5587   -0.1478   -2.3635 H   0  0  0  0  0  0  0  0  0  0  0  0
   -2.5308    0.3567   -3.1007 H   0  0  0  0  0  0  0  0  0  0  0  0
   -3.5298   -0.7835   -2.2095 H   0  0  0  0  0  0  0  0  0  0  0  0
   -3.8662    1.0324   -2.2066 H   0  0  0  0  0  0  0  0  0  0  0  0
   -6.0732    1.2155    2.5254 H   0  0  0  0  0  0  0  0  0  0  0  0
   -7.0991    1.6931    1.1277 H   0  0  0  0  0  0  0  0  0  0  0  0
   -8.3095   -0.1492    1.9669 H   0  0  0  0  0  0  0  0  0  0  0  0
   -6.8626   -1.0974    2.4290 H   0  0  0  0  0  0  0  0  0  0  0  0
   -8.1431   -0.8360   -0.2546 H   0  0  0  0  0  0  0  0  0  0  0  0
   -6.8954   -2.0456    0.3263 H   0  0  0  0  0  0  0  0  0  0  0  0
   -5.5316   -0.8892   -1.0382 H   0  0  0  0  0  0  0  0  0  0  0  0
   -7.8476   -0.7721   -2.4488 H   0  0  0  0  0  0  0  0  0  0  0  0
  1  2  1  0
  2  3  1  0
  2  4  1  0
  4  5  1  0
  5  6  1  0
  6  7  2  0
  7  8  1  0
  8  9  2  0
  9 10  1  0
 10 11  2  0
 11 12  1  0
 12 13  3  0
  9 14  1  0
 14 15  2  0
 15 16  1  0
 16 17  1  0
 16 18  2  0
 18 19  1  0
 18 20  1  0
 20 21  2  0
 20 22  1  0
 22 23  1  0
 23 24  1  0
 24 25  1  0
 25 26  1  0
 26 27  1  0
 27 28  1  0
 27 29  2  0
 11  6  1  0
 19 14  1  0
 26 22  1  0
  1 30  1  0
  1 31  1  0
  1 32  1  0
  2 33  1  0
  3 34  1  0
  3 35  1  0
  3 36  1  0
  4 37  1  0
  4 38  1  0
  7 39  1  0
  8 40  1  0
 10 41  1  0
 17 42  1  0
 17 43  1  0
 17 44  1  0
 23 45  1  0
 23 46  1  0
 24 47  1  0
 24 48  1  0
 25 49  1  0
 25 50  1  0
 26 51  1  6
 28 52  1  0
M  END
$$$$
[H]Oc1c([H])c([H])c2c(c1[H])C([H])([H])C([H])([H])[C@]1([H])[C@]2([H])C([H])([H])C([H])([H])[C@]2(C([H])([H])[H])C(=O)C([H])([H])C([H])([H])[C@]21[H]
     RDKit          3D

 42 45  0  0  0  0  0  0  0  0999 V2000
   -2.3836   -1.3778    0.8257 C   0  0  0  0  0  0  0  0  0  0  0  0
   -2.3951   -0.3698   -0.2852 C   0  0  2  0  0  0  0  0  0  0  0  0
   -1.7598   -0.9004   -1.5153 C   0  0  0  0  0  0  0  0  0  0  0  0
   -0.3170   -1.2045   -1.2834 C   0  0  0  0  0  0  0  0  0  0  0  0
    0.4177   -0.0069   -0.7638 C   0  0  1  0  0  0  0  0  0  0  0  0
   -0.2761    0.5001    0.5086 C   0  0  1  0  0  0  0  0  0  0  0  0
    0.5549    1.5641    1.1385 C   0  0  0  0  0  0  0  0  0  0  0  0
    1.7980    0.8874    1.7105 C   0  0  0  0  0  0  0  0  0  0  0  0
    2.4881    0.1807    0.6011 C   0  0  0  0  0  0  0  0  0  0  0  0
    3.8402   -0.0585    0.7570 C   0  0  0  0  0  0  0  0  0  0  0  0
    4.5868   -0.7091   -0.2117 C   0  0  0  0  0  0  0  0  0  0  0  0
    5.9465   -0.9509   -0.0576 O   0  0  0  0  0  0  0  0  0  0  0  0
    3.9471   -1.1249   -1.3612 C   0  0  0  0  0  0  0  0  0  0  0  0
    2.5817   -0.8803   -1.5123 C   0  0  0  0  0  0  0  0  0  0  0  0
    1.8436   -0.2328   -0.5460 C   0  0  0  0  0  0  0  0  0  0  0  0
   -1.6400    0.9102    0.1012 C   0  0  2  0  0  0  0  0  0  0  0  0
   -2.5077    1.4699    1.1580 C   0  0  0  0  0  0  0  0  0  0  0  0
   -3.9136    1.1834    0.6475 C   0  0  0  0  0  0  0  0  0  0  0  0
   -3.7498    0.1559   -0.4387 C   0  0  0  0  0  0  0  0  0  0  0  0
   -4.6384   -0.0938   -1.2208 O   0  0  0  0  0  0  0  0  0  0  0  0
   -3.3914   -1.8879    0.8200 H   0  0  0  0  0  0  0  0  0  0  0  0
   -1.6472   -2.1791    0.7081 H   0  0  0  0  0  0  0  0  0  0  0  0
   -2.2742   -0.9449    1.8221 H   0  0  0  0  0  0  0  0  0  0  0  0
   -2.2635   -1.8816   -1.7581 H   0  0  0  0  0  0  0  0  0  0  0  0
   -1.8882   -0.2573   -2.3877 H   0  0  0  0  0  0  0  0  0  0  0  0
    0.1290   -1.4583   -2.2896 H   0  0  0  0  0  0  0  0  0  0  0  0
   -0.1406   -2.1118   -0.6652 H   0  0  0  0  0  0  0  0  0  0  0  0
    0.2900    0.8123   -1.5159 H   0  0  0  0  0  0  0  0  0  0  0  0
   -0.3503   -0.3647    1.1951 H   0  0  0  0  0  0  0  0  0  0  0  0
    0.8623    2.3405    0.4054 H   0  0  0  0  0  0  0  0  0  0  0  0
    0.0062    2.0374    1.9702 H   0  0  0  0  0  0  0  0  0  0  0  0
    2.4773    1.6117    2.1919 H   0  0  0  0  0  0  0  0  0  0  0  0
    1.4380    0.0989    2.4174 H   0  0  0  0  0  0  0  0  0  0  0  0
    4.3787    0.2541    1.6485 H   0  0  0  0  0  0  0  0  0  0  0  0
    6.5810   -0.2178   -0.4065 H   0  0  0  0  0  0  0  0  0  0  0  0
    4.5311   -1.6331   -2.1172 H   0  0  0  0  0  0  0  0  0  0  0  0
    2.1491   -1.2339   -2.4373 H   0  0  0  0  0  0  0  0  0  0  0  0
   -1.6750    1.5692   -0.7863 H   0  0  0  0  0  0  0  0  0  0  0  0
   -2.3459    1.0738    2.1671 H   0  0  0  0  0  0  0  0  0  0  0  0
   -2.3932    2.5875    1.2018 H   0  0  0  0  0  0  0  0  0  0  0  0
   -4.5388    0.7605    1.4490 H   0  0  0  0  0  0  0  0  0  0  0  0
   -4.3579    2.0825    0.1732 H   0  0  0  0  0  0  0  0  0  0  0  0
  2  1  1  1
  2  3  1  0
  3  4  1  0
  4  5  1  0
  5  6  1  0
  6  7  1  0
  7  8  1  0
  8  9  1  0
  9 10  2  0
 10 11  1  0
 11 12  1  0
 11 13  2  0
 13 14  1  0
 14 15  2  0
  6 16  1  0
 16 17  1  0
 17 18  1  0
 18 19  1  0
 19 20  2  0
 16  2  1  0
 19  2  1  0
 15  5  1  0
 15  9  1  0
  1 21  1  0
  1 22  1  0
  1 23  1  0
  3 24  1  0
  3 25  1  0
  4 26  1  0
  4 27  1  0
  5 28  1  6
  6 29  1  1
  7 30  1  0
  7 31  1  0
  8 32  1  0
  8 33  1  0
 10 34  1  0
 12 35  1  0
 13 36  1  0
 14 37  1  0
 16 38  1  6
 17 39  1  0
 17 40  1  0
 18 41  1  0
 18 42  1  0
M  END
$$$$
[H]c1c([H])c([H])c(Oc2c([H])c([H])c(-c3nn([C@]4([H])C([H])([H])[C@@]5(C([H])([H])N(C(=O)C#CC([H])([H])[H])C([H])([H])C5([H])[H])C4([H])[H])c(N([H])[H])c3C(=O)N([H])[H])c([H])c2[H])c([H])c1[H]
     RDKit          3D

 62 66  0  0  0  0  0  0  0  0999 V2000
   -5.3807    5.0423    0.8042 C   0  0  0  0  0  0  0  0  0  0  0  0
   -5.8887    3.7217    0.3975 C   0  0  0  0  0  0  0  0  0  0  0  0
   -6.3078    2.6375    0.0680 C   0  0  0  0  0  0  0  0  0  0  0  0
   -6.8191    1.3484   -0.3486 C   0  0  0  0  0  0  0  0  0  0  0  0
   -7.8461    1.3854   -1.1094 O   0  0  0  0  0  0  0  0  0  0  0  0
   -6.2242    0.1451    0.0580 N   0  0  0  0  0  0  0  0  0  0  0  0
   -6.6419   -1.1812   -0.2912 C   0  0  0  0  0  0  0  0  0  0  0  0
   -5.3690   -2.0191   -0.2562 C   0  0  0  0  0  0  0  0  0  0  0  0
   -4.3220   -1.0901    0.2637 C   0  0  2  0  0  0  0  0  0  0  0  0
   -3.2363   -0.6827   -0.6752 C   0  0  0  0  0  0  0  0  0  0  0  0
   -2.2644   -0.8500    0.4760 C   0  0  1  0  0  0  0  0  0  0  0  0
   -3.2409   -1.7541    1.1202 C   0  0  0  0  0  0  0  0  0  0  0  0
   -0.9792   -1.3650    0.0798 N   0  0  0  0  0  0  0  0  0  0  0  0
    0.1320   -0.7013    0.3184 N   0  0  0  0  0  0  0  0  0  0  0  0
    1.2238   -1.3698   -0.1401 C   0  0  0  0  0  0  0  0  0  0  0  0
    0.7486   -2.5295   -0.6984 C   0  0  0  0  0  0  0  0  0  0  0  0
    1.4243   -3.6556   -1.3205 C   0  0  0  0  0  0  0  0  0  0  0  0
    2.8112   -3.7708   -1.4653 N   0  0  0  0  0  0  0  0  0  0  0  0
    0.7457   -4.6342   -1.7786 O   0  0  0  0  0  0  0  0  0  0  0  0
   -0.6328   -2.4745   -0.5353 C   0  0  0  0  0  0  0  0  0  0  0  0
   -1.5383   -3.4754   -0.9715 N   0  0  0  0  0  0  0  0  0  0  0  0
    2.6012   -0.9366   -0.0178 C   0  0  0  0  0  0  0  0  0  0  0  0
    3.4505   -0.7589   -1.0617 C   0  0  0  0  0  0  0  0  0  0  0  0
    4.7846   -0.3646   -0.8973 C   0  0  0  0  0  0  0  0  0  0  0  0
    5.2632   -0.1446    0.3762 C   0  0  0  0  0  0  0  0  0  0  0  0
    6.5765    0.2425    0.5242 O   0  0  0  0  0  0  0  0  0  0  0  0
    6.9870    1.5709    0.5338 C   0  0  0  0  0  0  0  0  0  0  0  0
    8.3077    1.8810    0.6840 C   0  0  0  0  0  0  0  0  0  0  0  0
    8.7014    3.2100    0.6916 C   0  0  0  0  0  0  0  0  0  0  0  0
    7.7720    4.2172    0.5492 C   0  0  0  0  0  0  0  0  0  0  0  0
    6.4241    3.8950    0.3962 C   0  0  0  0  0  0  0  0  0  0  0  0
    6.0365    2.5629    0.3894 C   0  0  0  0  0  0  0  0  0  0  0  0
    4.4301   -0.3133    1.4724 C   0  0  0  0  0  0  0  0  0  0  0  0
    3.1284   -0.7019    1.2602 C   0  0  0  0  0  0  0  0  0  0  0  0
   -5.0749    0.0144    0.9080 C   0  0  0  0  0  0  0  0  0  0  0  0
   -6.0368    5.4250    1.6237 H   0  0  0  0  0  0  0  0  0  0  0  0
   -5.3960    5.7646   -0.0641 H   0  0  0  0  0  0  0  0  0  0  0  0
   -4.3460    4.9302    1.1658 H   0  0  0  0  0  0  0  0  0  0  0  0
   -7.3744   -1.5187    0.4707 H   0  0  0  0  0  0  0  0  0  0  0  0
   -7.0677   -1.2476   -1.3163 H   0  0  0  0  0  0  0  0  0  0  0  0
   -5.1397   -2.4611   -1.2326 H   0  0  0  0  0  0  0  0  0  0  0  0
   -5.5245   -2.8163    0.5137 H   0  0  0  0  0  0  0  0  0  0  0  0
   -3.0424   -1.3364   -1.5264 H   0  0  0  0  0  0  0  0  0  0  0  0
   -3.2698    0.4064   -0.9752 H   0  0  0  0  0  0  0  0  0  0  0  0
   -2.1795    0.0916    1.0655 H   0  0  0  0  0  0  0  0  0  0  0  0
   -3.2423   -2.8297    0.8571 H   0  0  0  0  0  0  0  0  0  0  0  0
   -3.4892   -1.5431    2.1858 H   0  0  0  0  0  0  0  0  0  0  0  0
    3.3905   -3.9234   -0.6223 H   0  0  0  0  0  0  0  0  0  0  0  0
    3.3058   -3.7104   -2.3958 H   0  0  0  0  0  0  0  0  0  0  0  0
   -1.9268   -3.3938   -1.9349 H   0  0  0  0  0  0  0  0  0  0  0  0
   -1.8223   -4.2712   -0.3877 H   0  0  0  0  0  0  0  0  0  0  0  0
    3.0817   -0.9081   -2.0833 H   0  0  0  0  0  0  0  0  0  0  0  0
    5.3917   -0.2472   -1.7801 H   0  0  0  0  0  0  0  0  0  0  0  0
    9.0567    1.0884    0.7983 H   0  0  0  0  0  0  0  0  0  0  0  0
    9.7609    3.4766    0.8114 H   0  0  0  0  0  0  0  0  0  0  0  0
    8.0597    5.2516    0.5528 H   0  0  0  0  0  0  0  0  0  0  0  0
    5.7021    4.6873    0.2853 H   0  0  0  0  0  0  0  0  0  0  0  0
    4.9935    2.3352    0.2705 H   0  0  0  0  0  0  0  0  0  0  0  0
    4.8006   -0.1409    2.4855 H   0  0  0  0  0  0  0  0  0  0  0  0
    2.4546   -0.8414    2.1031 H   0  0  0  0  0  0  0  0  0  0  0  0
   -5.4269   -0.3317    1.9036 H   0  0  0  0  0  0  0  0  0  0  0  0
   -4.4960    0.9630    1.0018 H   0  0  0  0  0  0  0  0  0  0  0  0
  1  2  1  0
  2  3  3  0
  3  4  1  0
  4  5  2  0
  4  6  1  0
  6  7  1  0
  7  8  1  0
  9  8  1  6
  9 10  1  0
 10 11  1  0
 11 12  1  0
 11 13  1  0
 13 14  1  0
 14 15  2  0
 15 16  1  0
 16 17  1  0
 17 18  1  0
 17 19  2  0
 16 20  2  0
 20 21  1  0
 15 22  1  0
 22 23  2  0
 23 24  1  0
 24 25  2  0
 25 26  1  0
 26 27  1  0
 27 28  2  0
 28 29  1  0
 29 30  2  0
 30 31  1  0
 31 32  2  0
 25 33  1  0
 33 34  2  0
  9 35  1  0
 35  6  1  0
 12  9  1  0
 20 13  1  0
 34 22  1  0
 32 27  1  0
  1 36  1  0
  1 37  1  0
  1 38  1  0
  7 39  1  0
  7 40  1  0
  8 41  1  0
  8 42  1  0
 10 43  1  0
 10 44  1  0
 11 45  1  1
 12 46  1  0
 12 47  1  0
 18 48  1  0
 18 49  1  0
 21 50  1  0
 21 51  1  0
 23 52  1  0
 24 53  1  0
 28 54  1  0
 29 55  1  0
 30 56  1  0
 31 57  1  0
 32 58  1  0
 33 59  1  0
 34 60  1  0
 35 61  1  0
 35 62  1  0
M  END
$$$$
[H]c1nc(N2C([H])([H])c3c([H])nc(C([H])([H])[H])nc3C([H])([H])C2([H])[H])c2c([C@@]3([H])C([H])([H])OC([H])([H])C3([H])[H])nc(C([H])([H])[H])n2n1
     RDKit          3D

 47 51  0  0  0  0  0  0  0  0999 V2000
   -5.3816    1.5186   -0.1248 C   0  0  0  0  0  0  0  0  0  0  0  0
   -3.9613    1.0692   -0.1340 C   0  0  0  0  0  0  0  0  0  0  0  0
   -3.4883   -0.1349   -0.4698 N   0  0  0  0  0  0  0  0  0  0  0  0
   -2.1309   -0.1583   -0.3147 C   0  0  0  0  0  0  0  0  0  0  0  0
   -1.3780   -1.3606   -0.5561 C   0  0  2  0  0  0  0  0  0  0  0  0
   -2.1443   -2.1945   -1.6220 C   0  0  0  0  0  0  0  0  0  0  0  0
   -3.2718   -2.7969   -0.8378 C   0  0  0  0  0  0  0  0  0  0  0  0
   -3.0608   -2.4945    0.4893 O   0  0  0  0  0  0  0  0  0  0  0  0
   -1.6647   -2.3282    0.6277 C   0  0  0  0  0  0  0  0  0  0  0  0
   -1.8015    1.0941    0.1302 C   0  0  0  0  0  0  0  0  0  0  0  0
   -0.6185    1.6720    0.4147 C   0  0  0  0  0  0  0  0  0  0  0  0
   -0.6029    3.0015    0.8011 N   0  0  0  0  0  0  0  0  0  0  0  0
   -1.7268    3.7071    0.8966 C   0  0  0  0  0  0  0  0  0  0  0  0
   -2.9003    3.1364    0.6182 N   0  0  0  0  0  0  0  0  0  0  0  0
   -2.9323    1.8432    0.2375 N   0  0  0  0  0  0  0  0  0  0  0  0
    0.6191    0.9864    0.3890 N   0  0  0  0  0  0  0  0  0  0  0  0
    1.0281    0.1843    1.4971 C   0  0  0  0  0  0  0  0  0  0  0  0
    1.9849   -0.9241    1.1669 C   0  0  0  0  0  0  0  0  0  0  0  0
    3.1357   -0.3240    0.4086 C   0  0  0  0  0  0  0  0  0  0  0  0
    4.3853   -0.7414    0.6031 N   0  0  0  0  0  0  0  0  0  0  0  0
    5.4336   -0.2295   -0.0582 C   0  0  0  0  0  0  0  0  0  0  0  0
    6.8258   -0.7209    0.1838 C   0  0  0  0  0  0  0  0  0  0  0  0
    5.1735    0.7436   -0.9468 N   0  0  0  0  0  0  0  0  0  0  0  0
    3.9422    1.2193   -1.1988 C   0  0  0  0  0  0  0  0  0  0  0  0
    2.8681    0.6697   -0.4958 C   0  0  0  0  0  0  0  0  0  0  0  0
    1.4817    1.1584   -0.7498 C   0  0  0  0  0  0  0  0  0  0  0  0
   -5.8289    1.4863   -1.1412 H   0  0  0  0  0  0  0  0  0  0  0  0
   -5.4814    2.5087    0.3643 H   0  0  0  0  0  0  0  0  0  0  0  0
   -5.9443    0.7357    0.4741 H   0  0  0  0  0  0  0  0  0  0  0  0
   -0.3729   -1.3603   -0.8547 H   0  0  0  0  0  0  0  0  0  0  0  0
   -2.4858   -1.4373   -2.3654 H   0  0  0  0  0  0  0  0  0  0  0  0
   -1.4634   -2.9287   -2.0545 H   0  0  0  0  0  0  0  0  0  0  0  0
   -4.2716   -2.4675   -1.2146 H   0  0  0  0  0  0  0  0  0  0  0  0
   -3.2761   -3.9260   -0.9326 H   0  0  0  0  0  0  0  0  0  0  0  0
   -1.1304   -3.2756    0.5110 H   0  0  0  0  0  0  0  0  0  0  0  0
   -1.5185   -1.8067    1.5620 H   0  0  0  0  0  0  0  0  0  0  0  0
   -1.6618    4.7709    1.2092 H   0  0  0  0  0  0  0  0  0  0  0  0
    0.1088   -0.1978    1.9924 H   0  0  0  0  0  0  0  0  0  0  0  0
    1.5316    0.8962    2.2264 H   0  0  0  0  0  0  0  0  0  0  0  0
    1.5380   -1.6669    0.5111 H   0  0  0  0  0  0  0  0  0  0  0  0
    2.3484   -1.3501    2.1277 H   0  0  0  0  0  0  0  0  0  0  0  0
    6.9271   -1.7895   -0.1615 H   0  0  0  0  0  0  0  0  0  0  0  0
    7.5431   -0.1186   -0.3682 H   0  0  0  0  0  0  0  0  0  0  0  0
    7.0913   -0.6783    1.2701 H   0  0  0  0  0  0  0  0  0  0  0  0
    3.7840    2.0189   -1.9357 H   0  0  0  0  0  0  0  0  0  0  0  0
    1.6254    2.2620   -0.9808 H   0  0  0  0  0  0  0  0  0  0  0  0
    1.1235    0.7287   -1.6843 H   0  0  0  0  0  0  0  0  0  0  0  0
  1  2  1  0
  2  3  2  0
  3  4  1  0
  4  5  1  0
  5  6  1  0
  6  7  1  0
  7  8  1  0
  8  9  1  0
  4 10  2  0
 10 11  1  0
 11 12  2  0
 12 13  1  0
 13 14  2  0
 14 15  1  0
 11 16  1  0
 16 17  1  0
 17 18  1  0
 18 19  1  0
 19 20  2  0
 20 21  1  0
 21 22  1  0
 21 23  2  0
 23 24  1  0
 24 25  2  0
 25 26  1  0
 15  2  1  0
 26 16  1  0
  9  5  1  0
 15 10  1  0
 25 19  1  0
  1 27  1  0
  1 28  1  0
  1 29  1  0
  5 30  1  6
  6 31  1  0
  6 32  1  0
  7 33  1  0
  7 34  1  0
  9 35  1  0
  9 36  1  0
 13 37  1  0
 17 38  1  0
 17 39  1  0
 18 40  1  0
 18 41  1  0
 22 42  1  0
 22 43  1  0
 22 44  1  0
 24 45  1  0
 26 46  1  0
 26 47  1  0
M  END
$$$$
[H]O[C@@]1([H])[C@]([H])(O[H])[C@@]([H])(O[H])[C@]([H])(n2c([H])nc3c(N([H])[H])nc(N([H])[H])nc32)O[C@]1([H])C([H])([H])OP(=O)(O[H])OP(=O)(O[H])O[H]
     RDKit          3D

 48 50  0  0  0  0  0  0  0  0999 V2000
   -2.6019    3.5981    1.8491 N   0  0  0  0  0  0  0  0  0  0  0  0
   -3.1768    2.5875    1.0076 C   0  0  0  0  0  0  0  0  0  0  0  0
   -4.3538    2.7838    0.4209 N   0  0  0  0  0  0  0  0  0  0  0  0
   -4.9516    1.8663   -0.3873 C   0  0  0  0  0  0  0  0  0  0  0  0
   -6.2094    2.1191   -0.9927 N   0  0  0  0  0  0  0  0  0  0  0  0
   -4.2739    0.6805   -0.5875 C   0  0  0  0  0  0  0  0  0  0  0  0
   -4.6034   -0.3943   -1.3184 N   0  0  0  0  0  0  0  0  0  0  0  0
   -3.5977   -1.2651   -1.1697 C   0  0  0  0  0  0  0  0  0  0  0  0
   -2.6421   -0.7825   -0.3713 N   0  0  0  0  0  0  0  0  0  0  0  0
   -1.3988   -1.3527    0.0665 C   0  0  2  0  0  0  0  0  0  0  0  0
   -0.2846   -0.7429   -0.5257 O   0  0  0  0  0  0  0  0  0  0  0  0
    0.8213   -1.1999    0.1882 C   0  0  2  0  0  0  0  0  0  0  0  0
    1.9391   -0.1871    0.1510 C   0  0  0  0  0  0  0  0  0  0  0  0
    2.3783    0.0948   -1.1164 O   0  0  0  0  0  0  0  0  0  0  0  0
    3.6220    1.2348   -1.0156 P   0  0  0  0  0  0  0  0  0  0  0  0
    3.0283    2.6264   -0.2172 O   0  0  0  0  0  0  0  0  0  0  0  0
    3.9958    1.6162   -2.4398 O   0  0  0  0  0  0  0  0  0  0  0  0
    4.9431    0.5945   -0.2162 O   0  0  0  0  0  0  0  0  0  0  0  0
    5.8845    1.8164    0.4989 P   0  0  0  0  0  0  0  0  0  0  0  0
    5.9282    1.6394    2.1683 O   0  0  0  0  0  0  0  0  0  0  0  0
    7.4237    1.7591   -0.1854 O   0  0  0  0  0  0  0  0  0  0  0  0
    5.3089    3.1891    0.1683 O   0  0  0  0  0  0  0  0  0  0  0  0
    1.2042   -2.5379   -0.3463 C   0  0  1  0  0  0  0  0  0  0  0  0
    1.8188   -3.2618    0.6730 O   0  0  0  0  0  0  0  0  0  0  0  0
   -0.0153   -3.2170   -0.8874 C   0  0  2  0  0  0  0  0  0  0  0  0
   -0.1248   -3.0915   -2.2519 O   0  0  0  0  0  0  0  0  0  0  0  0
   -1.2851   -2.8233   -0.1521 C   0  0  1  0  0  0  0  0  0  0  0  0
   -1.2100   -3.4692    1.1037 O   0  0  0  0  0  0  0  0  0  0  0  0
   -3.0599    0.4475    0.0024 C   0  0  0  0  0  0  0  0  0  0  0  0
   -2.5406    1.4160    0.7904 N   0  0  0  0  0  0  0  0  0  0  0  0
   -2.9985    4.5485    1.8342 H   0  0  0  0  0  0  0  0  0  0  0  0
   -1.8076    3.3478    2.4465 H   0  0  0  0  0  0  0  0  0  0  0  0
   -7.0508    2.2942   -0.4120 H   0  0  0  0  0  0  0  0  0  0  0  0
   -6.3051    2.1323   -2.0263 H   0  0  0  0  0  0  0  0  0  0  0  0
   -3.5777   -2.2372   -1.6456 H   0  0  0  0  0  0  0  0  0  0  0  0
   -1.3106   -1.1074    1.1656 H   0  0  0  0  0  0  0  0  0  0  0  0
    0.5612   -1.3418    1.2751 H   0  0  0  0  0  0  0  0  0  0  0  0
    1.5173    0.7560    0.5919 H   0  0  0  0  0  0  0  0  0  0  0  0
    2.7761   -0.4704    0.8186 H   0  0  0  0  0  0  0  0  0  0  0  0
    2.7914    2.3497    0.6965 H   0  0  0  0  0  0  0  0  0  0  0  0
    5.5702    0.7707    2.4738 H   0  0  0  0  0  0  0  0  0  0  0  0
    7.9773    2.5004    0.1830 H   0  0  0  0  0  0  0  0  0  0  0  0
    1.9705   -2.4175   -1.1523 H   0  0  0  0  0  0  0  0  0  0  0  0
    2.3494   -4.0204    0.3532 H   0  0  0  0  0  0  0  0  0  0  0  0
    0.1141   -4.3197   -0.6775 H   0  0  0  0  0  0  0  0  0  0  0  0
   -0.7465   -2.3655   -2.5083 H   0  0  0  0  0  0  0  0  0  0  0  0
   -2.1190   -3.2871   -0.6806 H   0  0  0  0  0  0  0  0  0  0  0  0
   -1.6780   -2.8769    1.7688 H   0  0  0  0  0  0  0  0  0  0  0  0
  1  2  1  0
  2  3  2  0
  3  4  1  0
  4  5  1  0
  4  6  2  0
  6  7  1  0
  7  8  2  0
  8  9  1  0
  9 10  1  0
 10 11  1  0
 11 12  1  0
 12 13  1  0
 13 14  1  0
 14 15  1  0
 15 16  1  0
 15 17  2  0
 15 18  1  0
 18 19  1  0
 19 20  1  0
 19 21  1  0
 19 22  2  0
 12 23  1  0
 23 24  1  0
 23 25  1  0
 25 26  1  0
 25 27  1  0
 27 28  1  0
  9 29  1  0
 29 30  2  0
 30  2  1  0
 29  6  1  0
 27 10  1  0
  1 31  1  0
  1 32  1  0
  5 33  1  0
  5 34  1  0
  8 35  1  0
 10 36  1  1
 12 37  1  1
 13 38  1  0
 13 39  1  0
 16 40  1  0
 20 41  1  0
 21 42  1  0
 23 43  1  6
 24 44  1  0
 25 45  1  6
 26 46  1  0
 27 47  1  6
 28 48  1  0
M  END
$$$$
[H]Oc1c([H])c([H])c2c(c1[H])C([H])([H])C([H])([H])C1([H])C2([H])C([H])([H])C([H])([H])[C@@]2(C([H])([H])[H])C1([H])C([H])([H])C([H])([H])[C@@]2(O[H])C([H])([H])O[H]
     RDKit          3D

 48 51  0  0  0  0  0  0  0  0999 V2000
   -1.4658    2.1228   -0.0459 C   0  0  0  0  0  0  0  0  0  0  0  0
   -1.7506    0.6842    0.4194 C   0  0  2  0  0  0  0  0  0  0  0  0
   -1.1384    0.5512    1.7586 C   0  0  0  0  0  0  0  0  0  0  0  0
    0.3492    0.6262    1.6317 C   0  0  0  0  0  0  0  0  0  0  0  0
    0.9230   -0.2896    0.5986 C   0  0  0  0  0  0  0  0  0  0  0  0
    0.2910   -0.1371   -0.7695 C   0  0  0  0  0  0  0  0  0  0  0  0
    0.7354   -1.2970   -1.6364 C   0  0  0  0  0  0  0  0  0  0  0  0
    2.1354   -1.7287   -1.4223 C   0  0  0  0  0  0  0  0  0  0  0  0
    2.9655   -0.8631   -0.5884 C   0  0  0  0  0  0  0  0  0  0  0  0
    4.3211   -0.7817   -0.8225 C   0  0  0  0  0  0  0  0  0  0  0  0
    5.1217    0.0311   -0.0436 C   0  0  0  0  0  0  0  0  0  0  0  0
    6.5072    0.1235   -0.2719 O   0  0  0  0  0  0  0  0  0  0  0  0
    4.5279    0.7556    0.9706 C   0  0  0  0  0  0  0  0  0  0  0  0
    3.1715    0.6648    1.1937 C   0  0  0  0  0  0  0  0  0  0  0  0
    2.3667   -0.1277    0.4402 C   0  0  0  0  0  0  0  0  0  0  0  0
   -1.1908   -0.2849   -0.5803 C   0  0  0  0  0  0  0  0  0  0  0  0
   -2.0124   -0.0257   -1.7899 C   0  0  0  0  0  0  0  0  0  0  0  0
   -3.3447    0.4517   -1.2335 C   0  0  0  0  0  0  0  0  0  0  0  0
   -3.1963    0.4624    0.2805 C   0  0  2  0  0  0  0  0  0  0  0  0
   -3.9002    1.5577    0.7824 O   0  0  0  0  0  0  0  0  0  0  0  0
   -3.7512   -0.8348    0.7355 C   0  0  0  0  0  0  0  0  0  0  0  0
   -3.7743   -1.0650    2.0785 O   0  0  0  0  0  0  0  0  0  0  0  0
   -1.8893    2.8242    0.7107 H   0  0  0  0  0  0  0  0  0  0  0  0
   -1.8941    2.3105   -1.0482 H   0  0  0  0  0  0  0  0  0  0  0  0
   -0.3977    2.3279   -0.1171 H   0  0  0  0  0  0  0  0  0  0  0  0
   -1.3961   -0.3443    2.3264 H   0  0  0  0  0  0  0  0  0  0  0  0
   -1.4646    1.4314    2.3774 H   0  0  0  0  0  0  0  0  0  0  0  0
    0.7799    0.3147    2.6129 H   0  0  0  0  0  0  0  0  0  0  0  0
    0.6552    1.6843    1.5064 H   0  0  0  0  0  0  0  0  0  0  0  0
    0.7237   -1.3320    0.9268 H   0  0  0  0  0  0  0  0  0  0  0  0
    0.5913    0.8333   -1.1944 H   0  0  0  0  0  0  0  0  0  0  0  0
    0.0674   -2.1848   -1.4297 H   0  0  0  0  0  0  0  0  0  0  0  0
    0.5249   -1.0549   -2.7156 H   0  0  0  0  0  0  0  0  0  0  0  0
    2.6349   -1.8144   -2.4295 H   0  0  0  0  0  0  0  0  0  0  0  0
    2.1993   -2.7674   -0.9834 H   0  0  0  0  0  0  0  0  0  0  0  0
    4.7719   -1.3642   -1.6315 H   0  0  0  0  0  0  0  0  0  0  0  0
    6.8916   -0.4266   -1.0258 H   0  0  0  0  0  0  0  0  0  0  0  0
    5.1822    1.3829    1.5629 H   0  0  0  0  0  0  0  0  0  0  0  0
    2.7200    1.2376    1.9912 H   0  0  0  0  0  0  0  0  0  0  0  0
   -1.3655   -1.3140   -0.2202 H   0  0  0  0  0  0  0  0  0  0  0  0
   -2.1175   -0.9881   -2.3469 H   0  0  0  0  0  0  0  0  0  0  0  0
   -1.5749    0.6935   -2.4998 H   0  0  0  0  0  0  0  0  0  0  0  0
   -4.1130   -0.2688   -1.5831 H   0  0  0  0  0  0  0  0  0  0  0  0
   -3.6409    1.4347   -1.6312 H   0  0  0  0  0  0  0  0  0  0  0  0
   -4.2878    1.2891    1.6340 H   0  0  0  0  0  0  0  0  0  0  0  0
   -4.8316   -0.8533    0.3926 H   0  0  0  0  0  0  0  0  0  0  0  0
   -3.3003   -1.7086    0.2274 H   0  0  0  0  0  0  0  0  0  0  0  0
   -3.3599   -1.9388    2.3149 H   0  0  0  0  0  0  0  0  0  0  0  0
  2  1  1  6
  2  3  1  0
  3  4  1  0
  4  5  1  0
  5  6  1  0
  6  7  1  0
  7  8  1  0
  8  9  1  0
  9 10  2  0
 10 11  1  0
 11 12  1  0
 11 13  2  0
 13 14  1  0
 14 15  2  0
  6 16  1  0
 16 17  1  0
 17 18  1  0
 18 19  1  0
 19 20  1  1
 19 21  1  0
 21 22  1  0
 16  2  1  0
 19  2  1  0
 15  5  1  0
 15  9  1  0
  1 23  1  0
  1 24  1  0
  1 25  1  0
  3 26  1  0
  3 27  1  0
  4 28  1  0
  4 29  1  0
  5 30  1  0
  6 31  1  0
  7 32  1  0
  7 33  1  0
  8 34  1  0
  8 35  1  0
 10 36  1  0
 12 37  1  0
 13 38  1  0
 14 39  1  0
 16 40  1  0
 17 41  1  0
 17 42  1  0
 18 43  1  0
 18 44  1  0
 20 45  1  0
 21 46  1  0
 21 47  1  0
 22 48  1  0
M  END
$$$$
[H]c1nc(N2C([H])([H])C([H])([H])N(C([H])([H])[H])C([H])([H])C2([H])[H])c([H])c(-c2c([H])c([H])c(F)c([H])c2C([H])([H])[H])c1N(C(=O)C(c1c([H])c(C(F)(F)F)c([H])c(C(F)(F)F)c1[H])(C([H])([H])[H])C([H])([H])[H])C([H])([H])[H]
     RDKit          3D

 73 76  0  0  0  0  0  0  0  0999 V2000
   -1.1640   -2.3750   -0.7312 C   0  0  0  0  0  0  0  0  0  0  0  0
   -0.8577   -1.0628   -0.2207 N   0  0  0  0  0  0  0  0  0  0  0  0
   -1.8010   -0.2086    0.3222 C   0  0  0  0  0  0  0  0  0  0  0  0
   -1.3286    1.0156    0.5011 O   0  0  0  0  0  0  0  0  0  0  0  0
   -3.1678   -0.3836    0.7497 C   0  0  0  0  0  0  0  0  0  0  0  0
   -3.3191    0.4958    2.0339 C   0  0  0  0  0  0  0  0  0  0  0  0
   -3.4563   -1.8316    1.1918 C   0  0  0  0  0  0  0  0  0  0  0  0
   -4.2372   -0.0282   -0.1691 C   0  0  0  0  0  0  0  0  0  0  0  0
   -4.3080   -0.3553   -1.4862 C   0  0  0  0  0  0  0  0  0  0  0  0
   -5.3921   -0.0529   -2.3140 C   0  0  0  0  0  0  0  0  0  0  0  0
   -6.4583    0.6173   -1.7827 C   0  0  0  0  0  0  0  0  0  0  0  0
   -6.4195    0.9748   -0.4342 C   0  0  0  0  0  0  0  0  0  0  0  0
   -5.3588    0.6720    0.3571 C   0  0  0  0  0  0  0  0  0  0  0  0
   -7.6032    1.7005    0.1021 C   0  0  0  0  0  0  0  0  0  0  0  0
   -8.7291    1.4135   -0.6627 F   0  0  0  0  0  0  0  0  0  0  0  0
   -7.3278    3.0628    0.0278 F   0  0  0  0  0  0  0  0  0  0  0  0
   -7.8470    1.2518    1.3700 F   0  0  0  0  0  0  0  0  0  0  0  0
   -5.4131   -0.4744   -3.7214 C   0  0  0  0  0  0  0  0  0  0  0  0
   -4.3242   -0.0759   -4.4503 F   0  0  0  0  0  0  0  0  0  0  0  0
   -5.5254   -1.8580   -3.7377 F   0  0  0  0  0  0  0  0  0  0  0  0
   -6.5645    0.0381   -4.3249 F   0  0  0  0  0  0  0  0  0  0  0  0
    0.5073   -0.6716   -0.3063 C   0  0  0  0  0  0  0  0  0  0  0  0
    1.0137   -0.5090   -1.6032 C   0  0  0  0  0  0  0  0  0  0  0  0
    2.3021   -0.1874   -1.8104 N   0  0  0  0  0  0  0  0  0  0  0  0
    3.1850   -0.0018   -0.8017 C   0  0  0  0  0  0  0  0  0  0  0  0
    2.6821   -0.1588    0.4685 C   0  0  0  0  0  0  0  0  0  0  0  0
    1.3553   -0.4925    0.7497 C   0  0  0  0  0  0  0  0  0  0  0  0
    0.9277   -0.6883    2.1192 C   0  0  0  0  0  0  0  0  0  0  0  0
    0.4286   -1.8850    2.5570 C   0  0  0  0  0  0  0  0  0  0  0  0
    0.1174   -2.0021    3.9078 C   0  0  0  0  0  0  0  0  0  0  0  0
    0.3171   -0.9355    4.7744 C   0  0  0  0  0  0  0  0  0  0  0  0
   -0.0037   -1.0990    6.0742 F   0  0  0  0  0  0  0  0  0  0  0  0
    0.8226    0.2511    4.2945 C   0  0  0  0  0  0  0  0  0  0  0  0
    1.1398    0.4104    2.9642 C   0  0  0  0  0  0  0  0  0  0  0  0
    1.6477    1.7056    2.4640 C   0  0  0  0  0  0  0  0  0  0  0  0
    4.5406    0.2773   -1.0202 N   0  0  0  0  0  0  0  0  0  0  0  0
    5.5811   -0.3224   -0.1323 C   0  0  0  0  0  0  0  0  0  0  0  0
    6.4392   -1.2247   -1.0348 C   0  0  0  0  0  0  0  0  0  0  0  0
    6.8115   -0.5744   -2.2207 N   0  0  0  0  0  0  0  0  0  0  0  0
    8.1965   -0.3071   -2.3976 C   0  0  0  0  0  0  0  0  0  0  0  0
    5.8731    0.1410   -2.9773 C   0  0  0  0  0  0  0  0  0  0  0  0
    5.0877    1.0847   -2.0505 C   0  0  0  0  0  0  0  0  0  0  0  0
   -0.4428   -2.6605   -1.5612 H   0  0  0  0  0  0  0  0  0  0  0  0
   -1.0051   -3.1806    0.0151 H   0  0  0  0  0  0  0  0  0  0  0  0
   -2.1486   -2.5288   -1.1487 H   0  0  0  0  0  0  0  0  0  0  0  0
   -4.1042    0.0258    2.6812 H   0  0  0  0  0  0  0  0  0  0  0  0
   -2.3835    0.4200    2.6058 H   0  0  0  0  0  0  0  0  0  0  0  0
   -3.4806    1.5439    1.8058 H   0  0  0  0  0  0  0  0  0  0  0  0
   -2.5309   -2.2598    1.5952 H   0  0  0  0  0  0  0  0  0  0  0  0
   -4.1848   -1.7864    2.0588 H   0  0  0  0  0  0  0  0  0  0  0  0
   -3.9442   -2.3621    0.3804 H   0  0  0  0  0  0  0  0  0  0  0  0
   -3.4998   -0.8686   -1.9858 H   0  0  0  0  0  0  0  0  0  0  0  0
   -7.3141    0.8488   -2.4013 H   0  0  0  0  0  0  0  0  0  0  0  0
   -5.3635    0.9609    1.3970 H   0  0  0  0  0  0  0  0  0  0  0  0
    0.3216   -0.6566   -2.4383 H   0  0  0  0  0  0  0  0  0  0  0  0
    3.3259   -0.0260    1.3362 H   0  0  0  0  0  0  0  0  0  0  0  0
    0.2888   -2.7364    1.9065 H   0  0  0  0  0  0  0  0  0  0  0  0
   -0.2831   -2.9483    4.2873 H   0  0  0  0  0  0  0  0  0  0  0  0
    0.9651    1.0569    5.0041 H   0  0  0  0  0  0  0  0  0  0  0  0
    1.1225    2.4970    3.0873 H   0  0  0  0  0  0  0  0  0  0  0  0
    2.7205    1.8533    2.6736 H   0  0  0  0  0  0  0  0  0  0  0  0
    1.3472    1.9269    1.4287 H   0  0  0  0  0  0  0  0  0  0  0  0
    5.0630   -0.9503    0.5832 H   0  0  0  0  0  0  0  0  0  0  0  0
    6.1605    0.4710    0.3089 H   0  0  0  0  0  0  0  0  0  0  0  0
    7.3444   -1.4930   -0.4500 H   0  0  0  0  0  0  0  0  0  0  0  0
    5.8659   -2.1779   -1.2037 H   0  0  0  0  0  0  0  0  0  0  0  0
    8.7447   -1.2051   -2.7576 H   0  0  0  0  0  0  0  0  0  0  0  0
    8.4363    0.5546   -3.0255 H   0  0  0  0  0  0  0  0  0  0  0  0
    8.6174   -0.0968   -1.3684 H   0  0  0  0  0  0  0  0  0  0  0  0
    5.2127   -0.5448   -3.4951 H   0  0  0  0  0  0  0  0  0  0  0  0
    6.4616    0.7581   -3.7336 H   0  0  0  0  0  0  0  0  0  0  0  0
    4.4059    1.6904   -2.6360 H   0  0  0  0  0  0  0  0  0  0  0  0
    5.9113    1.7277   -1.5890 H   0  0  0  0  0  0  0  0  0  0  0  0
  1  2  1  0
  2  3  1  0
  3  4  2  0
  3  5  1  0
  5  6  1  0
  5  7  1  0
  5  8  1  0
  8  9  2  0
  9 10  1  0
 10 11  2  0
 11 12  1  0
 12 13  2  0
 12 14  1  0
 14 15  1  0
 14 16  1  0
 14 17  1  0
 10 18  1  0
 18 19  1  0
 18 20  1  0
 18 21  1  0
  2 22  1  0
 22 23  2  0
 23 24  1  0
 24 25  2  0
 25 26  1  0
 26 27  2  0
 27 28  1  0
 28 29  2  0
 29 30  1  0
 30 31  2  0
 31 32  1  0
 31 33  1  0
 33 34  2  0
 34 35  1  0
 25 36  1  0
 36 37  1  0
 37 38  1  0
 38 39  1  0
 39 40  1  0
 39 41  1  0
 41 42  1  0
 13  8  1  0
 27 22  1  0
 34 28  1  0
 42 36  1  0
  1 43  1  0
  1 44  1  0
  1 45  1  0
  6 46  1  0
  6 47  1  0
  6 48  1  0
  7 49  1  0
  7 50  1  0
  7 51  1  0
  9 52  1  0
 11 53  1  0
 13 54  1  0
 23 55  1  0
 26 56  1  0
 29 57  1  0
 30 58  1  0
 33 59  1  0
 35 60  1  0
 35 61  1  0
 35 62  1  0
 37 63  1  0
 37 64  1  0
 38 65  1  0
 38 66  1  0
 40 67  1  0
 40 68  1  0
 40 69  1  0
 41 70  1  0
 41 71  1  0
 42 72  1  0
 42 73  1  0
M  END
$$$$
[H]OC(=O)C([H])([H])[C@@]([H])(C(=O)N([H])[C@]([H])(C(=O)N([H])[C@]([H])(C(=O)O[H])C([H])([H])C([H])([H])C([H])([H])C([H])([H])N([H])[H])C([H])([H])c1c([H])c([H])c(O[H])c([H])c1[H])N([H])C(=O)/C([H])=C(\[H])c1c([H])c([H])c(-c2c([H])c([H])c([H])c(OC([H])([H])[H])c2[H])c([H])c1[H]
     RDKit          3D

 88 90  0  0  0  0  0  0  0  0999 V2000
   13.5032    0.2614   -2.9879 C   0  0  0  0  0  0  0  0  0  0  0  0
   12.1722    0.6770   -2.7799 O   0  0  0  0  0  0  0  0  0  0  0  0
   11.4339    0.0697   -1.7777 C   0  0  0  0  0  0  0  0  0  0  0  0
   12.0244   -0.9220   -1.0135 C   0  0  0  0  0  0  0  0  0  0  0  0
   11.3350   -1.5647    0.0039 C   0  0  0  0  0  0  0  0  0  0  0  0
   10.0399   -1.1844    0.2303 C   0  0  0  0  0  0  0  0  0  0  0  0
    9.3942   -0.1992   -0.5012 C   0  0  0  0  0  0  0  0  0  0  0  0
   10.1114    0.4149   -1.5009 C   0  0  0  0  0  0  0  0  0  0  0  0
    8.0106    0.1447   -0.1988 C   0  0  0  0  0  0  0  0  0  0  0  0
    7.5461    0.0630    1.0958 C   0  0  0  0  0  0  0  0  0  0  0  0
    6.2173    0.3620    1.4336 C   0  0  0  0  0  0  0  0  0  0  0  0
    5.3126    0.7533    0.4786 C   0  0  0  0  0  0  0  0  0  0  0  0
    3.9078    1.0684    0.7571 C   0  0  0  0  0  0  0  0  0  0  0  0
    3.3730    0.9785    1.9597 C   0  0  0  0  0  0  0  0  0  0  0  0
    2.0024    1.2785    2.2699 C   0  0  0  0  0  0  0  0  0  0  0  0
    1.6004    1.1427    3.4668 O   0  0  0  0  0  0  0  0  0  0  0  0
    1.0661    1.7202    1.3056 N   0  0  0  0  0  0  0  0  0  0  0  0
   -0.3038    1.9745    1.7614 C   0  0  1  0  0  0  0  0  0  0  0  0
   -0.8359    3.2827    1.2555 C   0  0  0  0  0  0  0  0  0  0  0  0
   -0.0839    4.4600    1.6592 C   0  0  0  0  0  0  0  0  0  0  0  0
   -0.4673    5.7254    1.2637 O   0  0  0  0  0  0  0  0  0  0  0  0
    0.9432    4.3658    2.3853 O   0  0  0  0  0  0  0  0  0  0  0  0
   -1.1373    0.8551    1.1841 C   0  0  0  0  0  0  0  0  0  0  0  0
   -0.5771    0.0757    0.3841 O   0  0  0  0  0  0  0  0  0  0  0  0
   -2.5030    0.6939    1.5389 N   0  0  0  0  0  0  0  0  0  0  0  0
   -3.1810   -0.4453    0.8815 C   0  0  1  0  0  0  0  0  0  0  0  0
   -2.8424   -1.6139    1.8376 C   0  0  0  0  0  0  0  0  0  0  0  0
   -3.3892   -2.8960    1.4139 C   0  0  0  0  0  0  0  0  0  0  0  0
   -4.6156   -3.3163    1.8816 C   0  0  0  0  0  0  0  0  0  0  0  0
   -5.1054   -4.5516    1.4733 C   0  0  0  0  0  0  0  0  0  0  0  0
   -4.3651   -5.3225    0.6191 C   0  0  0  0  0  0  0  0  0  0  0  0
   -4.8711   -6.5512    0.2236 O   0  0  0  0  0  0  0  0  0  0  0  0
   -3.1492   -4.9009    0.1576 C   0  0  0  0  0  0  0  0  0  0  0  0
   -2.6449   -3.6828    0.5483 C   0  0  0  0  0  0  0  0  0  0  0  0
   -4.6155   -0.1823    0.8384 C   0  0  0  0  0  0  0  0  0  0  0  0
   -5.0862    0.6637    1.6813 O   0  0  0  0  0  0  0  0  0  0  0  0
   -5.5400   -0.7786   -0.0572 N   0  0  0  0  0  0  0  0  0  0  0  0
   -6.9329   -0.4474    0.0177 C   0  0  1  0  0  0  0  0  0  0  0  0
   -7.2956    0.7432   -0.8949 C   0  0  0  0  0  0  0  0  0  0  0  0
   -6.9892    0.4545   -2.3274 C   0  0  0  0  0  0  0  0  0  0  0  0
   -7.3722    1.6321   -3.1924 C   0  0  0  0  0  0  0  0  0  0  0  0
   -8.8499    1.8976   -3.0856 C   0  0  0  0  0  0  0  0  0  0  0  0
   -9.1584    3.0338   -3.9459 N   0  0  0  0  0  0  0  0  0  0  0  0
   -7.8422   -1.5620   -0.2543 C   0  0  0  0  0  0  0  0  0  0  0  0
   -9.2042   -1.3964   -0.1642 O   0  0  0  0  0  0  0  0  0  0  0  0
   -7.4087   -2.6917   -0.5744 O   0  0  0  0  0  0  0  0  0  0  0  0
    5.7930    0.8331   -0.8269 C   0  0  0  0  0  0  0  0  0  0  0  0
    7.0939    0.5420   -1.1658 C   0  0  0  0  0  0  0  0  0  0  0  0
   13.4833   -0.8266   -3.2278 H   0  0  0  0  0  0  0  0  0  0  0  0
   14.0146    0.8485   -3.7694 H   0  0  0  0  0  0  0  0  0  0  0  0
   14.0140    0.3448   -1.9963 H   0  0  0  0  0  0  0  0  0  0  0  0
   13.0464   -1.2353   -1.1881 H   0  0  0  0  0  0  0  0  0  0  0  0
   11.8241   -2.3286    0.5792 H   0  0  0  0  0  0  0  0  0  0  0  0
    9.4557   -1.6619    1.0190 H   0  0  0  0  0  0  0  0  0  0  0  0
    9.6834    1.1914   -2.1194 H   0  0  0  0  0  0  0  0  0  0  0  0
    8.2539   -0.2461    1.8676 H   0  0  0  0  0  0  0  0  0  0  0  0
    5.9154    0.2806    2.4575 H   0  0  0  0  0  0  0  0  0  0  0  0
    3.2337    1.3966   -0.0254 H   0  0  0  0  0  0  0  0  0  0  0  0
    4.0087    0.6545    2.7734 H   0  0  0  0  0  0  0  0  0  0  0  0
    1.2786    1.8750    0.3184 H   0  0  0  0  0  0  0  0  0  0  0  0
   -0.4022    1.8607    2.8482 H   0  0  0  0  0  0  0  0  0  0  0  0
   -0.8892    3.1716    0.1320 H   0  0  0  0  0  0  0  0  0  0  0  0
   -1.9156    3.3189    1.5695 H   0  0  0  0  0  0  0  0  0  0  0  0
   -0.8720    5.9556    0.3622 H   0  0  0  0  0  0  0  0  0  0  0  0
   -2.9888    1.3181    2.1997 H   0  0  0  0  0  0  0  0  0  0  0  0
   -2.7631   -0.6904   -0.0865 H   0  0  0  0  0  0  0  0  0  0  0  0
   -1.7287   -1.6798    1.9070 H   0  0  0  0  0  0  0  0  0  0  0  0
   -3.2253   -1.3241    2.8241 H   0  0  0  0  0  0  0  0  0  0  0  0
   -5.1805   -2.6819    2.5608 H   0  0  0  0  0  0  0  0  0  0  0  0
   -6.0813   -4.8923    1.8439 H   0  0  0  0  0  0  0  0  0  0  0  0
   -4.6253   -7.3507    0.8099 H   0  0  0  0  0  0  0  0  0  0  0  0
   -2.5291   -5.4915   -0.5276 H   0  0  0  0  0  0  0  0  0  0  0  0
   -1.6815   -3.3060    0.2044 H   0  0  0  0  0  0  0  0  0  0  0  0
   -5.1566   -1.4576   -0.7621 H   0  0  0  0  0  0  0  0  0  0  0  0
   -7.1359   -0.0404    1.0449 H   0  0  0  0  0  0  0  0  0  0  0  0
   -6.7123    1.6100   -0.5408 H   0  0  0  0  0  0  0  0  0  0  0  0
   -8.3505    0.9288   -0.7055 H   0  0  0  0  0  0  0  0  0  0  0  0
   -7.5154   -0.4729   -2.6683 H   0  0  0  0  0  0  0  0  0  0  0  0
   -5.9038    0.2519   -2.4705 H   0  0  0  0  0  0  0  0  0  0  0  0
   -7.0918    1.4900   -4.2481 H   0  0  0  0  0  0  0  0  0  0  0  0
   -6.8367    2.5543   -2.8450 H   0  0  0  0  0  0  0  0  0  0  0  0
   -9.1796    2.1022   -2.0640 H   0  0  0  0  0  0  0  0  0  0  0  0
   -9.3699    0.9957   -3.5013 H   0  0  0  0  0  0  0  0  0  0  0  0
   -9.7086    3.7124   -3.3701 H   0  0  0  0  0  0  0  0  0  0  0  0
   -9.7186    2.7105   -4.7547 H   0  0  0  0  0  0  0  0  0  0  0  0
   -9.6772   -0.5929   -0.5253 H   0  0  0  0  0  0  0  0  0  0  0  0
    5.0641    1.1444   -1.5810 H   0  0  0  0  0  0  0  0  0  0  0  0
    7.4501    0.6045   -2.1701 H   0  0  0  0  0  0  0  0  0  0  0  0
  1  2  1  0
  2  3  1  0
  3  4  2  0
  4  5  1  0
  5  6  2  0
  6  7  1  0
  7  8  2  0
  7  9  1  0
  9 10  2  0
 10 11  1  0
 11 12  2  0
 12 13  1  0
 13 14  2  0
 14 15  1  0
 15 16  2  0
 15 17  1  0
 17 18  1  0
 18 19  1  0
 19 20  1  0
 20 21  1  0
 20 22  2  0
 18 23  1  0
 23 24  2  0
 23 25  1  0
 25 26  1  0
 26 27  1  0
 27 28  1  0
 28 29  2  0
 29 30  1  0
 30 31  2  0
 31 32  1  0
 31 33  1  0
 33 34  2  0
 26 35  1  0
 35 36  2  0
 35 37  1  0
 37 38  1  0
 38 39  1  0
 39 40  1  0
 40 41  1  0
 41 42  1  0
 42 43  1  0
 38 44  1  0
 44 45  1  0
 44 46  2  0
 12 47  1  0
 47 48  2  0
  8  3  1  0
 48  9  1  0
 34 28  1  0
  1 49  1  0
  1 50  1  0
  1 51  1  0
  4 52  1  0
  5 53  1  0
  6 54  1  0
  8 55  1  0
 10 56  1  0
 11 57  1  0
 13 58  1  0
 14 59  1  0
 17 60  1  0
 18 61  1  1
 19 62  1  0
 19 63  1  0
 21 64  1  0
 25 65  1  0
 26 66  1  6
 27 67  1  0
 27 68  1  0
 29 69  1  0
 30 70  1  0
 32 71  1  0
 33 72  1  0
 34 73  1  0
 37 74  1  0
 38 75  1  1
 39 76  1  0
 39 77  1  0
 40 78  1  0
 40 79  1  0
 41 80  1  0
 41 81  1  0
 42 82  1  0
 42 83  1  0
 43 84  1  0
 43 85  1  0
 45 86  1  0
 47 87  1  0
 48 88  1  0
M  END
$$$$
[H]O[C@]1([H])[C@@]([H])(C([H])([H])OP(=O)(O[H])OP(=O)(O[H])OP(=O)(O[H])OC([H])([H])[C@@]2([H])O[C@]([H])(n3c([H])nc4c(N([H])[H])nc([H])nc43)[C@]([H])(O[H])[C@@]2([H])O[H])O[C@@]([H])(n2c([H])nc3c(N([H])[H])nc([H])nc32)[C@]1([H])O[H]
     RDKit          3D

 76 81  0  0  0  0  0  0  0  0999 V2000
    3.9932   -1.0937   -1.8752 O   0  0  0  0  0  0  0  0  0  0  0  0
    5.3065   -0.6712   -1.7248 C   0  0  1  0  0  0  0  0  0  0  0  0
    5.3729    0.8423   -1.5017 C   0  0  1  0  0  0  0  0  0  0  0  0
    4.1478    1.2714   -0.7136 C   0  0  0  0  0  0  0  0  0  0  0  0
    2.9790    1.0452   -1.4404 O   0  0  0  0  0  0  0  0  0  0  0  0
    1.6111    1.5209   -0.5689 P   0  0  0  0  0  0  0  0  0  0  0  0
    1.8279    3.1704   -0.1877 O   0  0  0  0  0  0  0  0  0  0  0  0
    0.4021    1.4230   -1.4367 O   0  0  0  0  0  0  0  0  0  0  0  0
    1.4976    0.6488    0.8556 O   0  0  0  0  0  0  0  0  0  0  0  0
    0.4153   -0.6178    0.7898 P   0  0  0  0  0  0  0  0  0  0  0  0
   -0.5158   -0.6796    2.2230 O   0  0  0  0  0  0  0  0  0  0  0  0
    1.1999   -1.9117    0.6942 O   0  0  0  0  0  0  0  0  0  0  0  0
   -0.6728   -0.4809   -0.4938 O   0  0  0  0  0  0  0  0  0  0  0  0
   -2.0165   -1.4576   -0.2954 P   0  0  0  0  0  0  0  0  0  0  0  0
   -1.8873   -2.3886    1.1322 O   0  0  0  0  0  0  0  0  0  0  0  0
   -2.0133   -2.4645   -1.4491 O   0  0  0  0  0  0  0  0  0  0  0  0
   -3.4644   -0.6313   -0.3660 O   0  0  0  0  0  0  0  0  0  0  0  0
   -3.7650    0.0414    0.8071 C   0  0  0  0  0  0  0  0  0  0  0  0
   -5.0836    0.7802    0.7107 C   0  0  1  0  0  0  0  0  0  0  0  0
   -6.1407   -0.0687    0.4567 O   0  0  0  0  0  0  0  0  0  0  0  0
   -7.2389    0.7354    0.7841 C   0  0  2  0  0  0  0  0  0  0  0  0
   -6.8800    1.1743    2.1829 C   0  0  2  0  0  0  0  0  0  0  0  0
   -7.5739    2.3093    2.5866 O   0  0  0  0  0  0  0  0  0  0  0  0
   -5.3873    1.4711    2.0219 C   0  0  2  0  0  0  0  0  0  0  0  0
   -5.1918    2.8462    1.8164 O   0  0  0  0  0  0  0  0  0  0  0  0
   -8.4872    0.0345    0.7209 N   0  0  0  0  0  0  0  0  0  0  0  0
   -9.2164   -0.5320    1.6982 C   0  0  0  0  0  0  0  0  0  0  0  0
  -10.3320   -1.0900    1.1995 N   0  0  0  0  0  0  0  0  0  0  0  0
  -10.3401   -0.8907   -0.1177 C   0  0  0  0  0  0  0  0  0  0  0  0
  -11.2357   -1.2475   -1.1070 C   0  0  0  0  0  0  0  0  0  0  0  0
  -12.4292   -1.9671   -0.8489 N   0  0  0  0  0  0  0  0  0  0  0  0
  -10.9270   -0.8757   -2.3732 N   0  0  0  0  0  0  0  0  0  0  0  0
   -9.8100   -0.1924   -2.6789 C   0  0  0  0  0  0  0  0  0  0  0  0
   -8.9468    0.1482   -1.7035 N   0  0  0  0  0  0  0  0  0  0  0  0
   -9.1820   -0.1862   -0.4094 C   0  0  0  0  0  0  0  0  0  0  0  0
    6.4743    1.0913   -0.7344 O   0  0  0  0  0  0  0  0  0  0  0  0
    6.8947   -0.0792   -0.1285 C   0  0  1  0  0  0  0  0  0  0  0  0
    5.9296   -1.1560   -0.4362 C   0  0  2  0  0  0  0  0  0  0  0  0
    6.4061   -2.4313   -0.4723 O   0  0  0  0  0  0  0  0  0  0  0  0
    8.2574   -0.3158   -0.5563 N   0  0  0  0  0  0  0  0  0  0  0  0
    8.7264   -1.1123   -1.5133 C   0  0  0  0  0  0  0  0  0  0  0  0
   10.0517   -0.9927   -1.5365 N   0  0  0  0  0  0  0  0  0  0  0  0
   10.4351   -0.1206   -0.5961 C   0  0  0  0  0  0  0  0  0  0  0  0
   11.6805    0.3388   -0.2253 C   0  0  0  0  0  0  0  0  0  0  0  0
   12.8886   -0.0804   -0.8438 N   0  0  0  0  0  0  0  0  0  0  0  0
   11.7502    1.2307    0.7750 N   0  0  0  0  0  0  0  0  0  0  0  0
   10.6364    1.6605    1.3943 C   0  0  0  0  0  0  0  0  0  0  0  0
    9.4149    1.2155    1.0370 N   0  0  0  0  0  0  0  0  0  0  0  0
    9.2971    0.3192    0.0374 C   0  0  0  0  0  0  0  0  0  0  0  0
    3.9813   -1.7760   -2.5934 H   0  0  0  0  0  0  0  0  0  0  0  0
    5.8828   -0.8881   -2.6238 H   0  0  0  0  0  0  0  0  0  0  0  0
    5.4686    1.3842   -2.4496 H   0  0  0  0  0  0  0  0  0  0  0  0
    4.0950    0.6696    0.2150 H   0  0  0  0  0  0  0  0  0  0  0  0
    4.1894    2.3220   -0.4162 H   0  0  0  0  0  0  0  0  0  0  0  0
    2.2999    3.2744    0.6766 H   0  0  0  0  0  0  0  0  0  0  0  0
   -0.3242    0.1123    2.7930 H   0  0  0  0  0  0  0  0  0  0  0  0
   -1.2855   -3.1714    0.9374 H   0  0  0  0  0  0  0  0  0  0  0  0
   -2.9530    0.6968    1.1246 H   0  0  0  0  0  0  0  0  0  0  0  0
   -3.8993   -0.7339    1.5978 H   0  0  0  0  0  0  0  0  0  0  0  0
   -5.0035    1.4921   -0.1389 H   0  0  0  0  0  0  0  0  0  0  0  0
   -7.1888    1.6155    0.1133 H   0  0  0  0  0  0  0  0  0  0  0  0
   -6.9853    0.3368    2.9014 H   0  0  0  0  0  0  0  0  0  0  0  0
   -7.1405    3.1520    2.3039 H   0  0  0  0  0  0  0  0  0  0  0  0
   -4.7933    1.0844    2.8580 H   0  0  0  0  0  0  0  0  0  0  0  0
   -4.3080    2.9755    1.3930 H   0  0  0  0  0  0  0  0  0  0  0  0
   -8.9493   -0.5441    2.7584 H   0  0  0  0  0  0  0  0  0  0  0  0
  -12.6927   -2.8425   -1.3626 H   0  0  0  0  0  0  0  0  0  0  0  0
  -13.0944   -1.6347   -0.1208 H   0  0  0  0  0  0  0  0  0  0  0  0
   -9.5772    0.0954   -3.6815 H   0  0  0  0  0  0  0  0  0  0  0  0
    6.9161    0.0487    0.9796 H   0  0  0  0  0  0  0  0  0  0  0  0
    5.1068   -1.1202    0.3229 H   0  0  0  0  0  0  0  0  0  0  0  0
    5.9119   -3.0176   -1.0777 H   0  0  0  0  0  0  0  0  0  0  0  0
    8.0709   -1.7242   -2.1283 H   0  0  0  0  0  0  0  0  0  0  0  0
   12.9278   -0.1376   -1.8709 H   0  0  0  0  0  0  0  0  0  0  0  0
   13.7540   -0.3381   -0.3037 H   0  0  0  0  0  0  0  0  0  0  0  0
   10.7318    2.3858    2.2033 H   0  0  0  0  0  0  0  0  0  0  0  0
  1  2  1  0
  2  3  1  0
  3  4  1  0
  4  5  1  0
  5  6  1  0
  6  7  1  0
  6  8  2  0
  6  9  1  0
  9 10  1  0
 10 11  1  0
 10 12  2  0
 10 13  1  0
 13 14  1  0
 14 15  1  0
 14 16  2  0
 14 17  1  0
 17 18  1  0
 18 19  1  0
 19 20  1  0
 20 21  1  0
 21 22  1  0
 22 23  1  0
 22 24  1  0
 24 25  1  0
 21 26  1  0
 26 27  1  0
 27 28  2  0
 28 29  1  0
 29 30  2  0
 30 31  1  0
 30 32  1  0
 32 33  2  0
 33 34  1  0
 34 35  2  0
  3 36  1  0
 36 37  1  0
 37 38  1  0
 38 39  1  0
 37 40  1  0
 40 41  1  0
 41 42  2  0
 42 43  1  0
 43 44  2  0
 44 45  1  0
 44 46  1  0
 46 47  2  0
 47 48  1  0
 48 49  2  0
 38  2  1  0
 49 40  1  0
 24 19  1  0
 35 26  1  0
 49 43  1  0
 35 29  1  0
  1 50  1  0
  2 51  1  6
  3 52  1  6
  4 53  1  0
  4 54  1  0
  7 55  1  0
 11 56  1  0
 15 57  1  0
 18 58  1  0
 18 59  1  0
 19 60  1  6
 21 61  1  6
 22 62  1  1
 23 63  1  0
 24 64  1  1
 25 65  1  0
 27 66  1  0
 31 67  1  0
 31 68  1  0
 33 69  1  0
 37 70  1  1
 38 71  1  1
 39 72  1  0
 41 73  1  0
 45 74  1  0
 45 75  1  0
 47 76  1  0
M  END
$$$$
[H]c1nc(O[C@]2([H])C([H])([H])[C@@]3([H])N([C@@]([H])(c4c([H])c([H])c(F)c([H])c4[H])C([H])([H])[H])[C@]([H])(C([H])([H])C3([H])[H])C2([H])[H])c([H])c(C#N)c1[H]
     RDKit          3D

 48 51  0  0  0  0  0  0  0  0999 V2000
   -2.3516   -0.0892   -2.0403 C   0  0  0  0  0  0  0  0  0  0  0  0
   -2.3697   -0.6241   -0.5854 C   0  0  1  0  0  0  0  0  0  0  0  0
   -1.2166   -0.2401    0.0112 N   0  0  0  0  0  0  0  0  0  0  0  0
   -0.6734    0.9679    0.2883 C   0  0  1  0  0  0  0  0  0  0  0  0
   -0.1302    0.8790    1.7282 C   0  0  0  0  0  0  0  0  0  0  0  0
   -0.1477   -0.6070    2.0326 C   0  0  0  0  0  0  0  0  0  0  0  0
   -0.4042   -1.2122    0.6750 C   0  0  2  0  0  0  0  0  0  0  0  0
    0.8603   -1.3540   -0.0973 C   0  0  0  0  0  0  0  0  0  0  0  0
    1.4861   -0.0668   -0.5280 C   0  0  1  0  0  0  0  0  0  0  0  0
    0.6076    1.1176   -0.5643 C   0  0  0  0  0  0  0  0  0  0  0  0
    2.6455    0.2102    0.2410 O   0  0  0  0  0  0  0  0  0  0  0  0
    3.9324    0.1966   -0.3161 C   0  0  0  0  0  0  0  0  0  0  0  0
    5.0310    0.4635    0.4667 C   0  0  0  0  0  0  0  0  0  0  0  0
    6.3122    0.4574   -0.0539 C   0  0  0  0  0  0  0  0  0  0  0  0
    6.5019    0.1754   -1.3996 C   0  0  0  0  0  0  0  0  0  0  0  0
    5.3894   -0.0899   -2.1701 C   0  0  0  0  0  0  0  0  0  0  0  0
    4.1481   -0.0721   -1.6128 N   0  0  0  0  0  0  0  0  0  0  0  0
    7.4608    0.7354    0.7559 C   0  0  0  0  0  0  0  0  0  0  0  0
    8.3926    0.9601    1.3961 N   0  0  0  0  0  0  0  0  0  0  0  0
   -3.6931   -0.3077   -0.0666 C   0  0  0  0  0  0  0  0  0  0  0  0
   -4.1294    0.9436    0.2051 C   0  0  0  0  0  0  0  0  0  0  0  0
   -5.3883    1.1851    0.7106 C   0  0  0  0  0  0  0  0  0  0  0  0
   -6.2314    0.1294    0.9482 C   0  0  0  0  0  0  0  0  0  0  0  0
   -7.4835    0.3604    1.4493 F   0  0  0  0  0  0  0  0  0  0  0  0
   -5.8272   -1.1584    0.6857 C   0  0  0  0  0  0  0  0  0  0  0  0
   -4.5624   -1.3665    0.1807 C   0  0  0  0  0  0  0  0  0  0  0  0
   -2.6250    0.9805   -1.9439 H   0  0  0  0  0  0  0  0  0  0  0  0
   -3.1252   -0.6733   -2.5809 H   0  0  0  0  0  0  0  0  0  0  0  0
   -1.3419   -0.2076   -2.4312 H   0  0  0  0  0  0  0  0  0  0  0  0
   -2.2843   -1.7601   -0.7891 H   0  0  0  0  0  0  0  0  0  0  0  0
   -1.2074    1.9116    0.2332 H   0  0  0  0  0  0  0  0  0  0  0  0
   -0.8131    1.4409    2.4214 H   0  0  0  0  0  0  0  0  0  0  0  0
    0.8876    1.2665    1.8174 H   0  0  0  0  0  0  0  0  0  0  0  0
   -0.9839   -0.8778    2.7258 H   0  0  0  0  0  0  0  0  0  0  0  0
    0.8456   -0.9192    2.4425 H   0  0  0  0  0  0  0  0  0  0  0  0
   -0.9321   -2.1778    0.7132 H   0  0  0  0  0  0  0  0  0  0  0  0
    1.5915   -1.8934    0.5396 H   0  0  0  0  0  0  0  0  0  0  0  0
    0.6537   -2.0430   -0.9516 H   0  0  0  0  0  0  0  0  0  0  0  0
    1.8622   -0.2524   -1.5800 H   0  0  0  0  0  0  0  0  0  0  0  0
    1.1201    2.0621   -0.2123 H   0  0  0  0  0  0  0  0  0  0  0  0
    0.2420    1.3679   -1.5814 H   0  0  0  0  0  0  0  0  0  0  0  0
    4.9222    0.6858    1.5150 H   0  0  0  0  0  0  0  0  0  0  0  0
    7.4727    0.1555   -1.8574 H   0  0  0  0  0  0  0  0  0  0  0  0
    5.5551   -0.3082   -3.2168 H   0  0  0  0  0  0  0  0  0  0  0  0
   -3.4749    1.8044    0.0107 H   0  0  0  0  0  0  0  0  0  0  0  0
   -5.7183    2.2142    0.9234 H   0  0  0  0  0  0  0  0  0  0  0  0
   -6.5275   -1.9743    0.8889 H   0  0  0  0  0  0  0  0  0  0  0  0
   -4.2787   -2.3960   -0.0141 H   0  0  0  0  0  0  0  0  0  0  0  0
  1  2  1  0
  2  3  1  0
  3  4  1  0
  4  5  1  0
  5  6  1  0
  6  7  1  0
  7  8  1  0
  8  9  1  0
  9 10  1  0
  9 11  1  0
 11 12  1  0
 12 13  2  0
 13 14  1  0
 14 15  2  0
 15 16  1  0
 16 17  2  0
 14 18  1  0
 18 19  3  0
  2 20  1  0
 20 21  2  0
 21 22  1  0
 22 23  2  0
 23 24  1  0
 23 25  1  0
 25 26  2  0
  7  3  1  0
 17 12  1  0
 26 20  1  0
 10  4  1  0
  1 27  1  0
  1 28  1  0
  1 29  1  0
  2 30  1  6
  4 31  1  1
  5 32  1  0
  5 33  1  0
  6 34  1  0
  6 35  1  0
  7 36  1  1
  8 37  1  0
  8 38  1  0
  9 39  1  6
 10 40  1  0
 10 41  1  0
 13 42  1  0
 15 43  1  0
 16 44  1  0
 21 45  1  0
 22 46  1  0
 25 47  1  0
 26 48  1  0
M  END
$$$$
[H]c1nc(-c2nc(-c3nc([H])c([H])c([H])c3[H])c([H])c(N3C([H])([H])C([H])([H])N(c4c([H])c(F)c([H])c(F)c4[H])C([H])([H])[C@@]3([H])C([H])([H])[H])n2)c([H])c([H])c1[H]
     RDKit          3D

 55 59  0  0  0  0  0  0  0  0999 V2000
    1.0961   -1.1292   -2.6361 C   0  0  0  0  0  0  0  0  0  0  0  0
    1.6434   -0.2346   -1.6061 C   0  0  2  0  0  0  0  0  0  0  0  0
    2.5405   -0.9396   -0.5715 C   0  0  0  0  0  0  0  0  0  0  0  0
    3.2595    0.1349    0.0764 N   0  0  0  0  0  0  0  0  0  0  0  0
    2.8002    1.4883    0.1388 C   0  0  0  0  0  0  0  0  0  0  0  0
    1.3814    1.7391   -0.2090 C   0  0  0  0  0  0  0  0  0  0  0  0
    0.7458    0.5477   -0.8257 N   0  0  0  0  0  0  0  0  0  0  0  0
   -0.6116    0.3354   -0.5505 C   0  0  0  0  0  0  0  0  0  0  0  0
   -1.2923   -0.8462   -0.6377 C   0  0  0  0  0  0  0  0  0  0  0  0
   -2.6292   -0.9111   -0.3590 C   0  0  0  0  0  0  0  0  0  0  0  0
   -3.2712    0.2233    0.0079 N   0  0  0  0  0  0  0  0  0  0  0  0
   -2.6475    1.3996    0.1070 C   0  0  0  0  0  0  0  0  0  0  0  0
   -1.3413    1.4173   -0.1748 N   0  0  0  0  0  0  0  0  0  0  0  0
   -3.2952    2.6327    0.4943 C   0  0  0  0  0  0  0  0  0  0  0  0
   -4.6359    2.6212    0.7825 C   0  0  0  0  0  0  0  0  0  0  0  0
   -5.3048    3.7708    1.1564 C   0  0  0  0  0  0  0  0  0  0  0  0
   -4.5834    4.9310    1.2311 C   0  0  0  0  0  0  0  0  0  0  0  0
   -3.2305    4.9045    0.9328 C   0  0  0  0  0  0  0  0  0  0  0  0
   -2.6032    3.7682    0.5706 N   0  0  0  0  0  0  0  0  0  0  0  0
   -3.3884   -2.1757   -0.4482 C   0  0  0  0  0  0  0  0  0  0  0  0
   -2.8459   -3.3652   -0.8072 C   0  0  0  0  0  0  0  0  0  0  0  0
   -3.6630   -4.4921   -0.8579 C   0  0  0  0  0  0  0  0  0  0  0  0
   -4.9987   -4.3804   -0.5446 C   0  0  0  0  0  0  0  0  0  0  0  0
   -5.5210   -3.1584   -0.1832 C   0  0  0  0  0  0  0  0  0  0  0  0
   -4.7183   -2.1137   -0.1461 N   0  0  0  0  0  0  0  0  0  0  0  0
    4.5032   -0.1587    0.6967 C   0  0  0  0  0  0  0  0  0  0  0  0
    5.3252    0.8061    1.2409 C   0  0  0  0  0  0  0  0  0  0  0  0
    6.5233    0.5136    1.8425 C   0  0  0  0  0  0  0  0  0  0  0  0
    7.2883    1.4974    2.3591 F   0  0  0  0  0  0  0  0  0  0  0  0
    6.9448   -0.7833    1.9199 C   0  0  0  0  0  0  0  0  0  0  0  0
    6.1628   -1.7889    1.3924 C   0  0  0  0  0  0  0  0  0  0  0  0
    6.5787   -3.0716    1.4687 F   0  0  0  0  0  0  0  0  0  0  0  0
    4.9454   -1.4613    0.7843 C   0  0  0  0  0  0  0  0  0  0  0  0
    0.0880   -0.9328   -2.9926 H   0  0  0  0  0  0  0  0  0  0  0  0
    1.1256   -2.2060   -2.2940 H   0  0  0  0  0  0  0  0  0  0  0  0
    1.7578   -1.1427   -3.5483 H   0  0  0  0  0  0  0  0  0  0  0  0
    2.3448    0.4963   -2.1315 H   0  0  0  0  0  0  0  0  0  0  0  0
    3.1946   -1.6623   -1.0960 H   0  0  0  0  0  0  0  0  0  0  0  0
    1.8373   -1.4173    0.1429 H   0  0  0  0  0  0  0  0  0  0  0  0
    2.9468    1.8305    1.2054 H   0  0  0  0  0  0  0  0  0  0  0  0
    3.5199    2.1226   -0.4441 H   0  0  0  0  0  0  0  0  0  0  0  0
    1.3600    2.5069   -1.0260 H   0  0  0  0  0  0  0  0  0  0  0  0
    0.7692    2.1228    0.6052 H   0  0  0  0  0  0  0  0  0  0  0  0
   -0.7669   -1.7360   -0.9185 H   0  0  0  0  0  0  0  0  0  0  0  0
   -5.2130    1.6864    0.7213 H   0  0  0  0  0  0  0  0  0  0  0  0
   -6.3579    3.6895    1.3677 H   0  0  0  0  0  0  0  0  0  0  0  0
   -5.0895    5.8434    1.5223 H   0  0  0  0  0  0  0  0  0  0  0  0
   -2.7020    5.8363    1.0045 H   0  0  0  0  0  0  0  0  0  0  0  0
   -1.7940   -3.4271   -1.0491 H   0  0  0  0  0  0  0  0  0  0  0  0
   -3.1960   -5.4188   -1.1480 H   0  0  0  0  0  0  0  0  0  0  0  0
   -5.6491   -5.2669   -0.5833 H   0  0  0  0  0  0  0  0  0  0  0  0
   -6.5913   -3.1199    0.0570 H   0  0  0  0  0  0  0  0  0  0  0  0
    4.9686    1.8417    1.1678 H   0  0  0  0  0  0  0  0  0  0  0  0
    7.8984   -1.0605    2.3945 H   0  0  0  0  0  0  0  0  0  0  0  0
    4.3914   -2.3069    0.3980 H   0  0  0  0  0  0  0  0  0  0  0  0
  1  2  1  0
  2  3  1  0
  3  4  1  0
  4  5  1  0
  5  6  1  0
  6  7  1  0
  7  8  1  0
  8  9  2  0
  9 10  1  0
 10 11  2  0
 11 12  1  0
 12 13  2  0
 12 14  1  0
 14 15  2  0
 15 16  1  0
 16 17  2  0
 17 18  1  0
 18 19  2  0
 10 20  1  0
 20 21  2  0
 21 22  1  0
 22 23  2  0
 23 24  1  0
 24 25  2  0
  4 26  1  0
 26 27  2  0
 27 28  1  0
 28 29  1  0
 28 30  2  0
 30 31  1  0
 31 32  1  0
 31 33  2  0
  7  2  1  0
 13  8  1  0
 19 14  1  0
 25 20  1  0
 33 26  1  0
  1 34  1  0
  1 35  1  0
  1 36  1  0
  2 37  1  6
  3 38  1  0
  3 39  1  0
  5 40  1  0
  5 41  1  0
  6 42  1  0
  6 43  1  0
  9 44  1  0
 15 45  1  0
 16 46  1  0
 17 47  1  0
 18 48  1  0
 21 49  1  0
 22 50  1  0
 23 51  1  0
 24 52  1  0
 27 53  1  0
 30 54  1  0
 33 55  1  0
M  END
$$$$
[H]OC(=O)c1c([H])c([H])c2c(nc(N([H])c3c([H])c([H])c([H])c(C(F)(F)F)c3[H])c3c([H])c([H])nc([H])c32)c1[H]
     RDKit          3D

 40 43  0  0  0  0  0  0  0  0999 V2000
   -2.7453    4.2887    1.9477 O   0  0  0  0  0  0  0  0  0  0  0  0
   -3.6979    3.2939    1.8023 C   0  0  0  0  0  0  0  0  0  0  0  0
   -4.8604    3.4491    2.2099 O   0  0  0  0  0  0  0  0  0  0  0  0
   -3.3223    2.0333    1.1529 C   0  0  0  0  0  0  0  0  0  0  0  0
   -4.2552    1.0855    0.8375 C   0  0  0  0  0  0  0  0  0  0  0  0
   -3.9632   -0.1366    0.2587 C   0  0  0  0  0  0  0  0  0  0  0  0
   -2.6554   -0.4326   -0.0138 C   0  0  0  0  0  0  0  0  0  0  0  0
   -1.6591    0.4811    0.2828 C   0  0  0  0  0  0  0  0  0  0  0  0
   -2.0035    1.7004    0.8635 C   0  0  0  0  0  0  0  0  0  0  0  0
   -0.3516    0.1727    0.0430 N   0  0  0  0  0  0  0  0  0  0  0  0
    0.0442   -0.9991   -0.4787 C   0  0  0  0  0  0  0  0  0  0  0  0
    1.4068   -1.3743   -0.6223 N   0  0  0  0  0  0  0  0  0  0  0  0
    2.6125   -0.7104   -0.4226 C   0  0  0  0  0  0  0  0  0  0  0  0
    3.7849   -1.4561   -0.6059 C   0  0  0  0  0  0  0  0  0  0  0  0
    5.0006   -0.8704   -0.4108 C   0  0  0  0  0  0  0  0  0  0  0  0
    5.1320    0.4481   -0.0311 C   0  0  0  0  0  0  0  0  0  0  0  0
    3.9849    1.1719    0.1488 C   0  0  0  0  0  0  0  0  0  0  0  0
    2.7493    0.5850   -0.0439 C   0  0  0  0  0  0  0  0  0  0  0  0
    4.1232    2.5881    0.5638 C   0  0  0  0  0  0  0  0  0  0  0  0
    5.4504    2.8495    0.9762 F   0  0  0  0  0  0  0  0  0  0  0  0
    3.3355    2.7925    1.6732 F   0  0  0  0  0  0  0  0  0  0  0  0
    3.7323    3.4394   -0.4369 F   0  0  0  0  0  0  0  0  0  0  0  0
   -0.9623   -1.9291   -0.7903 C   0  0  0  0  0  0  0  0  0  0  0  0
   -0.6460   -3.1455   -1.3369 C   0  0  0  0  0  0  0  0  0  0  0  0
   -1.6649   -4.0571   -1.6338 C   0  0  0  0  0  0  0  0  0  0  0  0
   -2.9456   -3.7480   -1.3870 N   0  0  0  0  0  0  0  0  0  0  0  0
   -3.2833   -2.5669   -0.8550 C   0  0  0  0  0  0  0  0  0  0  0  0
   -2.3146   -1.6496   -0.5581 C   0  0  0  0  0  0  0  0  0  0  0  0
   -2.6010    4.9548    1.1665 H   0  0  0  0  0  0  0  0  0  0  0  0
   -5.2768    1.3654    1.0891 H   0  0  0  0  0  0  0  0  0  0  0  0
   -4.7539   -0.8145    0.0360 H   0  0  0  0  0  0  0  0  0  0  0  0
   -1.2060    2.4191    1.0856 H   0  0  0  0  0  0  0  0  0  0  0  0
    1.5213   -2.4285   -0.9266 H   0  0  0  0  0  0  0  0  0  0  0  0
    3.7507   -2.5215   -0.9208 H   0  0  0  0  0  0  0  0  0  0  0  0
    5.9025   -1.4852   -0.5549 H   0  0  0  0  0  0  0  0  0  0  0  0
    6.1207    0.8335    0.1066 H   0  0  0  0  0  0  0  0  0  0  0  0
    1.8583    1.2242    0.1046 H   0  0  0  0  0  0  0  0  0  0  0  0
    0.3705   -3.4461   -1.5633 H   0  0  0  0  0  0  0  0  0  0  0  0
   -1.3847   -5.0124   -2.0526 H   0  0  0  0  0  0  0  0  0  0  0  0
   -4.3273   -2.3925   -0.7036 H   0  0  0  0  0  0  0  0  0  0  0  0
  1  2  1  0
  2  3  2  0
  2  4  1  0
  4  5  2  0
  5  6  1  0
  6  7  2  0
  7  8  1  0
  8  9  2  0
  8 10  1  0
 10 11  2  0
 11 12  1  0
 12 13  1  0
 13 14  2  0
 14 15  1  0
 15 16  2  0
 16 17  1  0
 17 18  2  0
 17 19  1  0
 19 20  1  0
 19 21  1  0
 19 22  1  0
 11 23  1  0
 23 24  2  0
 24 25  1  0
 25 26  2  0
 26 27  1  0
 27 28  2  0
  9  4  1  0
 18 13  1  0
 28 23  1  0
 28  7  1  0
  1 29  1  0
  5 30  1  0
  6 31  1  0
  9 32  1  0
 12 33  1  0
 14 34  1  0
 15 35  1  0
 16 36  1  0
 18 37  1  0
 24 38  1  0
 25 39  1  0
 27 40  1  0
M  END
$$$$
[H]c1c([H])c([H])c(C([H])([H])OC(=O)N([H])[C@]([H])(C(=O)N([H])[C@]([H])(C(=O)N([H])[C@]([H])(C(=O)N([H])C([H])([H])[H])C([H])([H])c2c([H])c([H])c([H])c([H])c2[H])C([H])([H])C([H])(C([H])([H])[H])C([H])([H])[H])C([H])([H])C([H])(C([H])([H])[H])C([H])([H])[H])c([H])c1[H]
     RDKit          3D

 81 82  0  0  0  0  0  0  0  0999 V2000
   -6.5533   -0.9620    3.7093 C   0  0  0  0  0  0  0  0  0  0  0  0
   -5.3206   -0.3255    3.3693 N   0  0  0  0  0  0  0  0  0  0  0  0
   -4.7528   -0.4761    2.0865 C   0  0  0  0  0  0  0  0  0  0  0  0
   -5.3465   -1.1805    1.2404 O   0  0  0  0  0  0  0  0  0  0  0  0
   -3.4941    0.1685    1.7340 C   0  0  2  0  0  0  0  0  0  0  0  0
   -3.4857    1.6739    1.8311 C   0  0  0  0  0  0  0  0  0  0  0  0
   -4.4405    2.3674    0.9659 C   0  0  0  0  0  0  0  0  0  0  0  0
   -5.6886    2.6936    1.4454 C   0  0  0  0  0  0  0  0  0  0  0  0
   -6.6278    3.3444    0.6607 C   0  0  0  0  0  0  0  0  0  0  0  0
   -6.2989    3.6736   -0.6384 C   0  0  0  0  0  0  0  0  0  0  0  0
   -5.0452    3.3413   -1.1070 C   0  0  0  0  0  0  0  0  0  0  0  0
   -4.1173    2.7023   -0.3428 C   0  0  0  0  0  0  0  0  0  0  0  0
   -3.0681   -0.1895    0.3622 N   0  0  0  0  0  0  0  0  0  0  0  0
   -1.8173   -0.8098    0.1753 C   0  0  0  0  0  0  0  0  0  0  0  0
   -1.1303   -1.0204    1.2446 O   0  0  0  0  0  0  0  0  0  0  0  0
   -1.2333   -1.2282   -1.1227 C   0  0  2  0  0  0  0  0  0  0  0  0
   -1.8889   -2.3860   -1.7650 C   0  0  0  0  0  0  0  0  0  0  0  0
   -3.3064   -2.3081   -2.1614 C   0  0  0  0  0  0  0  0  0  0  0  0
   -3.6671   -1.2724   -3.1688 C   0  0  0  0  0  0  0  0  0  0  0  0
   -3.7752   -3.6754   -2.7059 C   0  0  0  0  0  0  0  0  0  0  0  0
    0.1504   -1.7171   -0.8186 N   0  0  0  0  0  0  0  0  0  0  0  0
    1.2594   -0.9154   -1.0780 C   0  0  0  0  0  0  0  0  0  0  0  0
    1.0892    0.2326   -1.5591 O   0  0  0  0  0  0  0  0  0  0  0  0
    2.6416   -1.4009   -0.7920 C   0  0  2  0  0  0  0  0  0  0  0  0
    2.5673   -2.6132    0.0633 C   0  0  0  0  0  0  0  0  0  0  0  0
    3.8509   -3.2458    0.4674 C   0  0  0  0  0  0  0  0  0  0  0  0
    4.7818   -2.3873    1.2782 C   0  0  0  0  0  0  0  0  0  0  0  0
    3.4894   -4.4354    1.3726 C   0  0  0  0  0  0  0  0  0  0  0  0
    3.4271   -0.3122   -0.3067 N   0  0  0  0  0  0  0  0  0  0  0  0
    4.3822    0.3209   -1.1594 C   0  0  0  0  0  0  0  0  0  0  0  0
    4.5568   -0.0486   -2.3453 O   0  0  0  0  0  0  0  0  0  0  0  0
    5.1560    1.3757   -0.6986 O   0  0  0  0  0  0  0  0  0  0  0  0
    6.0976    2.0144   -1.5293 C   0  0  0  0  0  0  0  0  0  0  0  0
    6.7838    3.1007   -0.7328 C   0  0  0  0  0  0  0  0  0  0  0  0
    7.3301    4.2100   -1.3147 C   0  0  0  0  0  0  0  0  0  0  0  0
    7.9549    5.1771   -0.5715 C   0  0  0  0  0  0  0  0  0  0  0  0
    8.0542    5.0585    0.8202 C   0  0  0  0  0  0  0  0  0  0  0  0
    7.4937    3.9297    1.3743 C   0  0  0  0  0  0  0  0  0  0  0  0
    6.8647    2.9534    0.6405 C   0  0  0  0  0  0  0  0  0  0  0  0
   -7.2334   -1.1161    2.8696 H   0  0  0  0  0  0  0  0  0  0  0  0
   -7.0506   -0.3295    4.4877 H   0  0  0  0  0  0  0  0  0  0  0  0
   -6.3336   -1.9425    4.2226 H   0  0  0  0  0  0  0  0  0  0  0  0
   -4.8215    0.2637    4.0770 H   0  0  0  0  0  0  0  0  0  0  0  0
   -2.6988   -0.1934    2.4056 H   0  0  0  0  0  0  0  0  0  0  0  0
   -2.4810    2.0558    1.6370 H   0  0  0  0  0  0  0  0  0  0  0  0
   -3.7359    1.9366    2.8941 H   0  0  0  0  0  0  0  0  0  0  0  0
   -6.0144    2.4653    2.4735 H   0  0  0  0  0  0  0  0  0  0  0  0
   -7.6162    3.6007    1.0479 H   0  0  0  0  0  0  0  0  0  0  0  0
   -7.0253    4.1930   -1.2909 H   0  0  0  0  0  0  0  0  0  0  0  0
   -4.7526    3.5893   -2.1346 H   0  0  0  0  0  0  0  0  0  0  0  0
   -3.1149    2.4327   -0.7046 H   0  0  0  0  0  0  0  0  0  0  0  0
   -3.7324    0.0542   -0.4090 H   0  0  0  0  0  0  0  0  0  0  0  0
   -1.0976   -0.3215   -1.7349 H   0  0  0  0  0  0  0  0  0  0  0  0
   -1.7878   -3.2486   -1.0309 H   0  0  0  0  0  0  0  0  0  0  0  0
   -1.3088   -2.7580   -2.6635 H   0  0  0  0  0  0  0  0  0  0  0  0
   -3.9668   -2.1434   -1.2565 H   0  0  0  0  0  0  0  0  0  0  0  0
   -4.1182   -0.3719   -2.7254 H   0  0  0  0  0  0  0  0  0  0  0  0
   -2.8091   -1.0500   -3.8386 H   0  0  0  0  0  0  0  0  0  0  0  0
   -4.4772   -1.6965   -3.8347 H   0  0  0  0  0  0  0  0  0  0  0  0
   -3.1673   -4.4685   -2.1872 H   0  0  0  0  0  0  0  0  0  0  0  0
   -3.5680   -3.7642   -3.7870 H   0  0  0  0  0  0  0  0  0  0  0  0
   -4.8384   -3.8570   -2.4524 H   0  0  0  0  0  0  0  0  0  0  0  0
    0.2559   -2.6613   -0.4067 H   0  0  0  0  0  0  0  0  0  0  0  0
    3.0603   -1.6741   -1.8131 H   0  0  0  0  0  0  0  0  0  0  0  0
    2.0336   -3.3982   -0.5765 H   0  0  0  0  0  0  0  0  0  0  0  0
    1.8986   -2.4890    0.9449 H   0  0  0  0  0  0  0  0  0  0  0  0
    4.3752   -3.6849   -0.4242 H   0  0  0  0  0  0  0  0  0  0  0  0
    5.3792   -3.0188    2.0033 H   0  0  0  0  0  0  0  0  0  0  0  0
    4.2440   -1.6805    1.9373 H   0  0  0  0  0  0  0  0  0  0  0  0
    5.5529   -1.9056    0.6455 H   0  0  0  0  0  0  0  0  0  0  0  0
    4.3202   -4.6284    2.0850 H   0  0  0  0  0  0  0  0  0  0  0  0
    3.2182   -5.3265    0.7773 H   0  0  0  0  0  0  0  0  0  0  0  0
    2.6083   -4.0991    1.9660 H   0  0  0  0  0  0  0  0  0  0  0  0
    3.3227    0.0482    0.6560 H   0  0  0  0  0  0  0  0  0  0  0  0
    5.6206    2.4717   -2.4203 H   0  0  0  0  0  0  0  0  0  0  0  0
    6.8380    1.2784   -1.9066 H   0  0  0  0  0  0  0  0  0  0  0  0
    7.2560    4.3072   -2.4000 H   0  0  0  0  0  0  0  0  0  0  0  0
    8.3886    6.0606   -1.0412 H   0  0  0  0  0  0  0  0  0  0  0  0
    8.5438    5.8111    1.4280 H   0  0  0  0  0  0  0  0  0  0  0  0
    7.5433    3.7798    2.4703 H   0  0  0  0  0  0  0  0  0  0  0  0
    6.4172    2.0511    1.0870 H   0  0  0  0  0  0  0  0  0  0  0  0
  1  2  1  0
  2  3  1  0
  3  4  2  0
  3  5  1  0
  5  6  1  0
  6  7  1  0
  7  8  2  0
  8  9  1  0
  9 10  2  0
 10 11  1  0
 11 12  2  0
  5 13  1  0
 13 14  1  0
 14 15  2  0
 14 16  1  0
 16 17  1  0
 17 18  1  0
 18 19  1  0
 18 20  1  0
 16 21  1  0
 21 22  1  0
 22 23  2  0
 22 24  1  0
 24 25  1  0
 25 26  1  0
 26 27  1  0
 26 28  1  0
 24 29  1  0
 29 30  1  0
 30 31  2  0
 30 32  1  0
 32 33  1  0
 33 34  1  0
 34 35  2  0
 35 36  1  0
 36 37  2  0
 37 38  1  0
 38 39  2  0
 12  7  1  0
 39 34  1  0
  1 40  1  0
  1 41  1  0
  1 42  1  0
  2 43  1  0
  5 44  1  1
  6 45  1  0
  6 46  1  0
  8 47  1  0
  9 48  1  0
 10 49  1  0
 11 50  1  0
 12 51  1  0
 13 52  1  0
 16 53  1  6
 17 54  1  0
 17 55  1  0
 18 56  1  0
 19 57  1  0
 19 58  1  0
 19 59  1  0
 20 60  1  0
 20 61  1  0
 20 62  1  0
 21 63  1  0
 24 64  1  6
 25 65  1  0
 25 66  1  0
 26 67  1  0
 27 68  1  0
 27 69  1  0
 27 70  1  0
 28 71  1  0
 28 72  1  0
 28 73  1  0
 29 74  1  0
 33 75  1  0
 33 76  1  0
 35 77  1  0
 36 78  1  0
 37 79  1  0
 38 80  1  0
 39 81  1  0
M  END
$$$$
[H]C([H])=C([H])C(=O)N1C([H])([H])C([H])([H])C([H])([H])[C@@]([H])(c2nc(-c3c([H])c([H])c(C(=O)N([H])c4nc([H])c([H])c(C(F)(F)F)c4[H])c([H])c3[H])c3c(N([H])[H])nc([H])c([H])n23)C1([H])[H]
     RDKit          3D

 63 67  0  0  0  0  0  0  0  0999 V2000
   -0.4270   -3.7327   -0.1707 N   0  0  0  0  0  0  0  0  0  0  0  0
    0.9148   -3.5053    0.2403 C   0  0  0  0  0  0  0  0  0  0  0  0
    1.7477   -4.6569    0.2656 N   0  0  0  0  0  0  0  0  0  0  0  0
    3.0742   -4.3364    0.4665 C   0  0  0  0  0  0  0  0  0  0  0  0
    3.4384   -3.1168    0.5468 C   0  0  0  0  0  0  0  0  0  0  0  0
    2.6728   -1.9729    0.5010 N   0  0  0  0  0  0  0  0  0  0  0  0
    2.8898   -0.7015    0.5978 C   0  0  0  0  0  0  0  0  0  0  0  0
    1.6984   -0.0849    0.5889 N   0  0  0  0  0  0  0  0  0  0  0  0
    0.7283   -1.0008    0.4499 C   0  0  0  0  0  0  0  0  0  0  0  0
   -0.7441   -0.7286    0.5117 C   0  0  0  0  0  0  0  0  0  0  0  0
   -1.4646   -0.2911   -0.4386 C   0  0  0  0  0  0  0  0  0  0  0  0
   -2.7808    0.1291   -0.3439 C   0  0  0  0  0  0  0  0  0  0  0  0
   -3.4160    0.0653    0.9839 C   0  0  0  0  0  0  0  0  0  0  0  0
   -2.6167   -0.3924    2.0068 C   0  0  0  0  0  0  0  0  0  0  0  0
   -1.2751   -0.8027    1.7949 C   0  0  0  0  0  0  0  0  0  0  0  0
   -4.7983    0.3601    0.9127 C   0  0  0  0  0  0  0  0  0  0  0  0
   -5.2663    1.2355    1.5700 O   0  0  0  0  0  0  0  0  0  0  0  0
   -5.6034   -0.5092    0.0298 N   0  0  0  0  0  0  0  0  0  0  0  0
   -6.9255   -0.0319   -0.2096 C   0  0  0  0  0  0  0  0  0  0  0  0
   -7.0087    1.3570   -0.5063 C   0  0  0  0  0  0  0  0  0  0  0  0
   -8.2538    1.9581   -0.4112 C   0  0  0  0  0  0  0  0  0  0  0  0
   -9.2805    1.1625   -0.0128 C   0  0  0  0  0  0  0  0  0  0  0  0
   -9.1882   -0.1928    0.2354 C   0  0  0  0  0  0  0  0  0  0  0  0
   -7.9447   -0.7854    0.1303 N   0  0  0  0  0  0  0  0  0  0  0  0
   -8.3461    3.4401   -0.5971 C   0  0  0  0  0  0  0  0  0  0  0  0
   -7.5848    4.0435    0.4054 F   0  0  0  0  0  0  0  0  0  0  0  0
   -7.8335    3.7451   -1.8364 F   0  0  0  0  0  0  0  0  0  0  0  0
   -9.6613    3.7780   -0.4314 F   0  0  0  0  0  0  0  0  0  0  0  0
    1.3535   -2.2126    0.3615 C   0  0  0  0  0  0  0  0  0  0  0  0
    4.1399    0.0903    0.6653 C   0  0  2  0  0  0  0  0  0  0  0  0
    3.9139    1.1897   -0.4150 C   0  0  0  0  0  0  0  0  0  0  0  0
    4.4126    0.7411   -1.7819 C   0  0  0  0  0  0  0  0  0  0  0  0
    5.9091    0.7964   -1.6998 C   0  0  0  0  0  0  0  0  0  0  0  0
    6.3057    0.2275   -0.4220 N   0  0  0  0  0  0  0  0  0  0  0  0
    5.3635   -0.6456    0.2448 C   0  0  0  0  0  0  0  0  0  0  0  0
    7.3355    0.8248    0.3382 C   0  0  0  0  0  0  0  0  0  0  0  0
    8.2798   -0.1253    0.7785 O   0  0  0  0  0  0  0  0  0  0  0  0
    7.4438    2.0973    0.7234 C   0  0  0  0  0  0  0  0  0  0  0  0
    7.0098    3.2340    0.5202 C   0  0  0  0  0  0  0  0  0  0  0  0
   -1.1127   -3.6384    0.5215 H   0  0  0  0  0  0  0  0  0  0  0  0
   -0.5403   -3.9688   -1.1832 H   0  0  0  0  0  0  0  0  0  0  0  0
    3.7859   -5.1510    0.4937 H   0  0  0  0  0  0  0  0  0  0  0  0
    4.5036   -2.8331    0.8430 H   0  0  0  0  0  0  0  0  0  0  0  0
   -1.1330   -0.1120   -1.5011 H   0  0  0  0  0  0  0  0  0  0  0  0
   -3.4129    0.4632   -1.0805 H   0  0  0  0  0  0  0  0  0  0  0  0
   -3.0094   -0.5020    2.9931 H   0  0  0  0  0  0  0  0  0  0  0  0
   -0.7160   -1.1039    2.6269 H   0  0  0  0  0  0  0  0  0  0  0  0
   -5.1638   -1.2677   -0.4864 H   0  0  0  0  0  0  0  0  0  0  0  0
   -6.1329    1.8858   -0.8125 H   0  0  0  0  0  0  0  0  0  0  0  0
  -10.2617    1.6302    0.0683 H   0  0  0  0  0  0  0  0  0  0  0  0
   -9.9745   -0.8230    0.5644 H   0  0  0  0  0  0  0  0  0  0  0  0
    4.2941    0.6429    1.6025 H   0  0  0  0  0  0  0  0  0  0  0  0
    2.8055    1.3557   -0.5400 H   0  0  0  0  0  0  0  0  0  0  0  0
    4.3188    2.1304   -0.0576 H   0  0  0  0  0  0  0  0  0  0  0  0
    4.0688   -0.2894   -1.9450 H   0  0  0  0  0  0  0  0  0  0  0  0
    4.0178    1.4758   -2.5272 H   0  0  0  0  0  0  0  0  0  0  0  0
    6.3735    1.7649   -1.9121 H   0  0  0  0  0  0  0  0  0  0  0  0
    6.4111    0.0513   -2.4161 H   0  0  0  0  0  0  0  0  0  0  0  0
    5.1981   -1.4377   -0.4842 H   0  0  0  0  0  0  0  0  0  0  0  0
    5.8682   -0.9556    1.1977 H   0  0  0  0  0  0  0  0  0  0  0  0
    7.8413    2.0823    1.9635 H   0  0  0  0  0  0  0  0  0  0  0  0
    6.2543    3.7411   -0.1125 H   0  0  0  0  0  0  0  0  0  0  0  0
    7.5043    4.2098    0.9978 H   0  0  0  0  0  0  0  0  0  0  0  0
  1  2  1  0
  2  3  2  0
  3  4  1  0
  4  5  2  0
  5  6  1  0
  6  7  1  0
  7  8  2  0
  8  9  1  0
  9 10  1  0
 10 11  2  0
 11 12  1  0
 12 13  2  0
 13 14  1  0
 14 15  2  0
 13 16  1  0
 16 17  2  0
 16 18  1  0
 18 19  1  0
 19 20  2  0
 20 21  1  0
 21 22  2  0
 22 23  1  0
 23 24  2  0
 21 25  1  0
 25 26  1  0
 25 27  1  0
 25 28  1  0
  9 29  2  0
  7 30  1  0
 30 31  1  0
 31 32  1  0
 32 33  1  0
 33 34  1  0
 34 35  1  0
 34 36  1  0
 36 37  2  0
 36 38  1  0
 38 39  2  3
 29  2  1  0
 35 30  1  0
 29  6  1  0
 15 10  1  0
 24 19  1  0
  1 40  1  0
  1 41  1  0
  4 42  1  0
  5 43  1  0
 11 44  1  0
 12 45  1  0
 14 46  1  0
 15 47  1  0
 18 48  1  0
 20 49  1  0
 22 50  1  0
 23 51  1  0
 30 52  1  1
 31 53  1  0
 31 54  1  0
 32 55  1  0
 32 56  1  0
 33 57  1  0
 33 58  1  0
 35 59  1  0
 35 60  1  0
 38 61  1  0
 39 62  1  0
 39 63  1  0
M  END
$$$$
[H]c1nc(OC([H])([H])[H])c(N([H])S(=O)(=O)C([H])([H])[H])c([H])c1-c1c([H])c(OC([H])([H])[H])c2nc(-c3c(C([H])([H])[H])nn(C([H])([H])[H])c3C([H])([H])[H])n([H])c2c1[H]
     RDKit          3D

 56 59  0  0  0  0  0  0  0  0999 V2000
    6.5515   -3.5850    1.6902 C   0  0  0  0  0  0  0  0  0  0  0  0
    6.3392   -2.2493    1.2577 O   0  0  0  0  0  0  0  0  0  0  0  0
    5.0532   -1.7884    0.9370 C   0  0  0  0  0  0  0  0  0  0  0  0
    3.9845   -2.5986    1.0302 N   0  0  0  0  0  0  0  0  0  0  0  0
    2.7568   -2.1523    0.7222 C   0  0  0  0  0  0  0  0  0  0  0  0
    2.5516   -0.8543    0.3019 C   0  0  0  0  0  0  0  0  0  0  0  0
    3.6558   -0.0331    0.2104 C   0  0  0  0  0  0  0  0  0  0  0  0
    4.9307   -0.4789    0.5250 C   0  0  0  0  0  0  0  0  0  0  0  0
    6.0641    0.3502    0.4348 N   0  0  0  0  0  0  0  0  0  0  0  0
    5.9289    2.0032   -0.0447 S   0  0  0  0  0  0  0  0  0  0  0  0
    4.9205    2.8997    1.1094 C   0  0  0  0  0  0  0  0  0  0  0  0
    5.3128    2.0642   -1.4124 O   0  0  0  0  0  0  0  0  0  0  0  0
    7.2893    2.6308   -0.1526 O   0  0  0  0  0  0  0  0  0  0  0  0
    1.1959   -0.4358   -0.0158 C   0  0  0  0  0  0  0  0  0  0  0  0
    0.9732    0.5290   -0.9934 C   0  0  0  0  0  0  0  0  0  0  0  0
   -0.3095    0.9218   -1.2910 C   0  0  0  0  0  0  0  0  0  0  0  0
   -0.5114    1.8781   -2.2616 O   0  0  0  0  0  0  0  0  0  0  0  0
    0.6034    2.4306   -2.9261 C   0  0  0  0  0  0  0  0  0  0  0  0
   -1.4112    0.3892   -0.6481 C   0  0  0  0  0  0  0  0  0  0  0  0
   -2.7355    0.5624   -0.7157 N   0  0  0  0  0  0  0  0  0  0  0  0
   -3.3896   -0.2426    0.1706 C   0  0  0  0  0  0  0  0  0  0  0  0
   -2.4074   -0.9180    0.7855 N   0  0  0  0  0  0  0  0  0  0  0  0
   -1.1899   -0.5581    0.3115 C   0  0  0  0  0  0  0  0  0  0  0  0
    0.0986   -0.9588    0.6167 C   0  0  0  0  0  0  0  0  0  0  0  0
   -4.8342   -0.2946    0.3456 C   0  0  0  0  0  0  0  0  0  0  0  0
   -5.5245   -1.0905    1.2251 C   0  0  0  0  0  0  0  0  0  0  0  0
   -5.0113   -2.0804    2.2042 C   0  0  0  0  0  0  0  0  0  0  0  0
   -6.8438   -0.7847    1.0198 N   0  0  0  0  0  0  0  0  0  0  0  0
   -6.9653    0.1258    0.0900 N   0  0  0  0  0  0  0  0  0  0  0  0
   -8.2056    0.7206   -0.4205 C   0  0  0  0  0  0  0  0  0  0  0  0
   -5.7526    0.4744   -0.3715 C   0  0  0  0  0  0  0  0  0  0  0  0
   -5.3767    1.4478   -1.4078 C   0  0  0  0  0  0  0  0  0  0  0  0
    7.4113   -3.6167    2.4026 H   0  0  0  0  0  0  0  0  0  0  0  0
    5.6212   -3.9304    2.1981 H   0  0  0  0  0  0  0  0  0  0  0  0
    6.7519   -4.2163    0.7938 H   0  0  0  0  0  0  0  0  0  0  0  0
    1.8864   -2.8170    0.7996 H   0  0  0  0  0  0  0  0  0  0  0  0
    3.5185    0.9815   -0.1154 H   0  0  0  0  0  0  0  0  0  0  0  0
    6.9988   -0.0248    0.6567 H   0  0  0  0  0  0  0  0  0  0  0  0
    4.6818    2.2656    1.9919 H   0  0  0  0  0  0  0  0  0  0  0  0
    5.4885    3.7780    1.4656 H   0  0  0  0  0  0  0  0  0  0  0  0
    4.0124    3.2423    0.6050 H   0  0  0  0  0  0  0  0  0  0  0  0
    1.8408    0.9392   -1.4902 H   0  0  0  0  0  0  0  0  0  0  0  0
    1.1249    1.6210   -3.4721 H   0  0  0  0  0  0  0  0  0  0  0  0
    1.2431    2.9072   -2.1555 H   0  0  0  0  0  0  0  0  0  0  0  0
    0.2833    3.1784   -3.6911 H   0  0  0  0  0  0  0  0  0  0  0  0
   -2.5223   -1.6293    1.5298 H   0  0  0  0  0  0  0  0  0  0  0  0
    0.2460   -1.7139    1.3840 H   0  0  0  0  0  0  0  0  0  0  0  0
   -4.4084   -1.5908    2.9989 H   0  0  0  0  0  0  0  0  0  0  0  0
   -5.8974   -2.5018    2.7582 H   0  0  0  0  0  0  0  0  0  0  0  0
   -4.5090   -2.9456    1.7294 H   0  0  0  0  0  0  0  0  0  0  0  0
   -9.0504    0.0207   -0.2281 H   0  0  0  0  0  0  0  0  0  0  0  0
   -8.0731    0.8218   -1.5167 H   0  0  0  0  0  0  0  0  0  0  0  0
   -8.3605    1.7033    0.0347 H   0  0  0  0  0  0  0  0  0  0  0  0
   -4.6962    2.2321   -1.0130 H   0  0  0  0  0  0  0  0  0  0  0  0
   -6.3209    1.9932   -1.6960 H   0  0  0  0  0  0  0  0  0  0  0  0
   -5.0118    0.9779   -2.3360 H   0  0  0  0  0  0  0  0  0  0  0  0
  1  2  1  0
  2  3  1  0
  3  4  2  0
  4  5  1  0
  5  6  2  0
  6  7  1  0
  7  8  2  0
  8  9  1  0
  9 10  1  0
 10 11  1  0
 10 12  2  0
 10 13  2  0
  6 14  1  0
 14 15  2  0
 15 16  1  0
 16 17  1  0
 17 18  1  0
 16 19  2  0
 19 20  1  0
 20 21  2  0
 21 22  1  0
 22 23  1  0
 23 24  2  0
 21 25  1  0
 25 26  1  0
 26 27  1  0
 26 28  2  0
 28 29  1  0
 29 30  1  0
 29 31  1  0
 31 32  1  0
  8  3  1  0
 24 14  1  0
 31 25  2  0
 23 19  1  0
  1 33  1  0
  1 34  1  0
  1 35  1  0
  5 36  1  0
  7 37  1  0
  9 38  1  0
 11 39  1  0
 11 40  1  0
 11 41  1  0
 15 42  1  0
 18 43  1  0
 18 44  1  0
 18 45  1  0
 22 46  1  0
 24 47  1  0
 27 48  1  0
 27 49  1  0
 27 50  1  0
 30 51  1  0
 30 52  1  0
 30 53  1  0
 32 54  1  0
 32 55  1  0
 32 56  1  0
M  END
$$$$
[H]c1nc2c(-c3c([H])c(C([H])([H])[H])nc4c([H])c([H])c([H])c([H])c34)c([H])nn2c([H])c1-c1c([H])c([H])c(N2C([H])([H])C([H])([H])N([H])C([H])([H])C2([H])[H])c([H])c1[H]
     RDKit          3D

 56 61  0  0  0  0  0  0  0  0999 V2000
   -6.3154    3.5447   -0.4711 C   0  0  0  0  0  0  0  0  0  0  0  0
   -6.1979    2.0562   -0.2917 C   0  0  0  0  0  0  0  0  0  0  0  0
   -5.0353    1.4691    0.1287 C   0  0  0  0  0  0  0  0  0  0  0  0
   -4.8831    0.0850    0.3183 C   0  0  0  0  0  0  0  0  0  0  0  0
   -3.6262   -0.4331    0.8409 C   0  0  0  0  0  0  0  0  0  0  0  0
   -3.5215   -1.1485    2.0168 C   0  0  0  0  0  0  0  0  0  0  0  0
   -2.2322   -1.4052    2.2236 N   0  0  0  0  0  0  0  0  0  0  0  0
   -1.4765   -0.9054    1.2584 N   0  0  0  0  0  0  0  0  0  0  0  0
   -0.1466   -0.9213    1.0595 C   0  0  0  0  0  0  0  0  0  0  0  0
    0.3787   -0.3068   -0.0547 C   0  0  0  0  0  0  0  0  0  0  0  0
   -0.4834    0.3035   -0.9284 C   0  0  0  0  0  0  0  0  0  0  0  0
   -1.8278    0.2947   -0.6847 N   0  0  0  0  0  0  0  0  0  0  0  0
   -2.3344   -0.3040    0.4018 C   0  0  0  0  0  0  0  0  0  0  0  0
    1.8183   -0.2829   -0.2554 C   0  0  0  0  0  0  0  0  0  0  0  0
    2.4361    0.7582   -0.9227 C   0  0  0  0  0  0  0  0  0  0  0  0
    3.8037    0.8101   -1.0770 C   0  0  0  0  0  0  0  0  0  0  0  0
    4.6362   -0.1752   -0.5743 C   0  0  0  0  0  0  0  0  0  0  0  0
    4.0173   -1.2034    0.0832 C   0  0  0  0  0  0  0  0  0  0  0  0
    2.6406   -1.2630    0.2425 C   0  0  0  0  0  0  0  0  0  0  0  0
    6.0396   -0.0841   -0.7406 N   0  0  0  0  0  0  0  0  0  0  0  0
    6.6762    0.8052   -1.7066 C   0  0  0  0  0  0  0  0  0  0  0  0
    8.0461    1.1438   -1.1186 C   0  0  0  0  0  0  0  0  0  0  0  0
    7.9335    1.3772    0.3143 N   0  0  0  0  0  0  0  0  0  0  0  0
    7.6548    0.1344    1.0279 C   0  0  0  0  0  0  0  0  0  0  0  0
    6.9925   -0.8510    0.0613 C   0  0  0  0  0  0  0  0  0  0  0  0
   -5.9585   -0.7034    0.0636 C   0  0  0  0  0  0  0  0  0  0  0  0
   -5.8943   -2.0720    0.2058 C   0  0  0  0  0  0  0  0  0  0  0  0
   -7.0089   -2.8794   -0.0734 C   0  0  0  0  0  0  0  0  0  0  0  0
   -8.1766   -2.2834   -0.4944 C   0  0  0  0  0  0  0  0  0  0  0  0
   -8.2174   -0.9169   -0.6300 C   0  0  0  0  0  0  0  0  0  0  0  0
   -7.1446   -0.0969   -0.3661 C   0  0  0  0  0  0  0  0  0  0  0  0
   -7.2362    1.2432   -0.5307 N   0  0  0  0  0  0  0  0  0  0  0  0
   -5.2866    3.9483   -0.5106 H   0  0  0  0  0  0  0  0  0  0  0  0
   -6.8305    3.8240   -1.3958 H   0  0  0  0  0  0  0  0  0  0  0  0
   -6.7900    3.9786    0.4427 H   0  0  0  0  0  0  0  0  0  0  0  0
   -4.1803    2.0821    0.3286 H   0  0  0  0  0  0  0  0  0  0  0  0
   -4.3254   -1.4653    2.6861 H   0  0  0  0  0  0  0  0  0  0  0  0
    0.5489   -1.3997    1.7341 H   0  0  0  0  0  0  0  0  0  0  0  0
   -0.1302    0.8050   -1.8245 H   0  0  0  0  0  0  0  0  0  0  0  0
    1.8084    1.5419   -1.3293 H   0  0  0  0  0  0  0  0  0  0  0  0
    4.1880    1.6625   -1.6139 H   0  0  0  0  0  0  0  0  0  0  0  0
    4.5734   -2.0016    0.4990 H   0  0  0  0  0  0  0  0  0  0  0  0
    2.1971   -2.0965    0.7655 H   0  0  0  0  0  0  0  0  0  0  0  0
    6.8342    0.2452   -2.6523 H   0  0  0  0  0  0  0  0  0  0  0  0
    6.1749    1.7569   -1.8513 H   0  0  0  0  0  0  0  0  0  0  0  0
    8.7610    0.3575   -1.3626 H   0  0  0  0  0  0  0  0  0  0  0  0
    8.4086    2.0902   -1.5617 H   0  0  0  0  0  0  0  0  0  0  0  0
    8.9020    1.6633    0.6288 H   0  0  0  0  0  0  0  0  0  0  0  0
    6.9935    0.3595    1.8895 H   0  0  0  0  0  0  0  0  0  0  0  0
    8.5878   -0.3510    1.3754 H   0  0  0  0  0  0  0  0  0  0  0  0
    6.5474   -1.6220    0.6792 H   0  0  0  0  0  0  0  0  0  0  0  0
    7.7822   -1.2706   -0.5962 H   0  0  0  0  0  0  0  0  0  0  0  0
   -4.9733   -2.5591    0.5199 H   0  0  0  0  0  0  0  0  0  0  0  0
   -6.9314   -3.9527    0.0476 H   0  0  0  0  0  0  0  0  0  0  0  0
   -9.0560   -2.8979   -0.7128 H   0  0  0  0  0  0  0  0  0  0  0  0
   -9.1604   -0.4882   -0.9649 H   0  0  0  0  0  0  0  0  0  0  0  0
  1  2  1  0
  2  3  2  0
  3  4  1  0
  4  5  1  0
  5  6  1  0
  6  7  2  0
  7  8  1  0
  8  9  1  0
  9 10  2  0
 10 11  1  0
 11 12  2  0
 12 13  1  0
 10 14  1  0
 14 15  2  0
 15 16  1  0
 16 17  2  0
 17 18  1  0
 18 19  2  0
 17 20  1  0
 20 21  1  0
 21 22  1  0
 22 23  1  0
 23 24  1  0
 24 25  1  0
  4 26  2  0
 26 27  1  0
 27 28  2  0
 28 29  1  0
 29 30  2  0
 30 31  1  0
 31 32  2  0
 32  2  1  0
 13  5  2  0
 19 14  1  0
 25 20  1  0
 31 26  1  0
 13  8  1  0
  1 33  1  0
  1 34  1  0
  1 35  1  0
  3 36  1  0
  6 37  1  0
  9 38  1  0
 11 39  1  0
 15 40  1  0
 16 41  1  0
 18 42  1  0
 19 43  1  0
 21 44  1  0
 21 45  1  0
 22 46  1  0
 22 47  1  0
 23 48  1  0
 24 49  1  0
 24 50  1  0
 25 51  1  0
 25 52  1  0
 27 53  1  0
 28 54  1  0
 29 55  1  0
 30 56  1  0
M  END
$$$$
[H]c1nc(N([H])c2c([H])c([H])c(N3C([H])([H])C([H])([H])OC([H])([H])C3([H])[H])c([H])c2OC([H])([H])[H])nc(N([H])c2c([H])c([H])c([H])c([H])c2S(=O)(=O)C([H])(C([H])([H])[H])C([H])([H])[H])c1F
     RDKit          3D

 63 66  0  0  0  0  0  0  0  0999 V2000
    3.5366   -2.2349   -2.4245 C   0  0  0  0  0  0  0  0  0  0  0  0
    2.8175   -1.4597   -1.5183 O   0  0  0  0  0  0  0  0  0  0  0  0
    3.3645   -0.7599   -0.4740 C   0  0  0  0  0  0  0  0  0  0  0  0
    4.7141   -0.7886   -0.2581 C   0  0  0  0  0  0  0  0  0  0  0  0
    5.3231   -0.1084    0.7708 C   0  0  0  0  0  0  0  0  0  0  0  0
    4.4999    0.6210    1.5973 C   0  0  0  0  0  0  0  0  0  0  0  0
    3.1111    0.6545    1.3809 C   0  0  0  0  0  0  0  0  0  0  0  0
    2.5086   -0.0218    0.3574 C   0  0  0  0  0  0  0  0  0  0  0  0
    1.1278   -0.0148    0.0861 N   0  0  0  0  0  0  0  0  0  0  0  0
    0.0841    0.6124    0.8061 C   0  0  0  0  0  0  0  0  0  0  0  0
    0.2263    1.3329    1.9191 N   0  0  0  0  0  0  0  0  0  0  0  0
   -0.7761    1.9127    2.5755 C   0  0  0  0  0  0  0  0  0  0  0  0
   -2.0422    1.7548    2.0668 C   0  0  0  0  0  0  0  0  0  0  0  0
   -3.0824    2.3220    2.6931 F   0  0  0  0  0  0  0  0  0  0  0  0
   -2.2820    1.0093    0.8955 C   0  0  0  0  0  0  0  0  0  0  0  0
   -3.6066    0.8973    0.4683 N   0  0  0  0  0  0  0  0  0  0  0  0
   -4.0536    0.2262   -0.6700 C   0  0  0  0  0  0  0  0  0  0  0  0
   -3.2899   -0.3363   -1.6620 C   0  0  0  0  0  0  0  0  0  0  0  0
   -3.7958   -0.9719   -2.7947 C   0  0  0  0  0  0  0  0  0  0  0  0
   -5.1460   -1.0574   -2.9589 C   0  0  0  0  0  0  0  0  0  0  0  0
   -5.9653   -0.5131   -2.0001 C   0  0  0  0  0  0  0  0  0  0  0  0
   -5.4440    0.1138   -0.8814 C   0  0  0  0  0  0  0  0  0  0  0  0
   -6.5269    0.7810    0.2902 S   0  0  0  0  0  0  0  0  0  0  0  0
   -6.3270    0.2039    1.6781 O   0  0  0  0  0  0  0  0  0  0  0  0
   -6.4653    2.2847    0.3591 O   0  0  0  0  0  0  0  0  0  0  0  0
   -8.2191    0.4202   -0.2083 C   0  0  0  0  0  0  0  0  0  0  0  0
   -8.5512   -1.0301   -0.1033 C   0  0  0  0  0  0  0  0  0  0  0  0
   -9.1038    1.2374    0.7576 C   0  0  0  0  0  0  0  0  0  0  0  0
   -1.1973    0.4862    0.3420 N   0  0  0  0  0  0  0  0  0  0  0  0
    6.7346   -0.1495    0.9680 N   0  0  0  0  0  0  0  0  0  0  0  0
    7.2717    0.5207    2.1216 C   0  0  0  0  0  0  0  0  0  0  0  0
    8.7656    0.3839    2.1635 C   0  0  0  0  0  0  0  0  0  0  0  0
    9.2381    0.7536    0.9048 O   0  0  0  0  0  0  0  0  0  0  0  0
    9.0188   -0.3311    0.0598 C   0  0  0  0  0  0  0  0  0  0  0  0
    7.6073   -0.8287    0.0554 C   0  0  0  0  0  0  0  0  0  0  0  0
    4.2203   -2.8881   -1.8049 H   0  0  0  0  0  0  0  0  0  0  0  0
    4.1266   -1.6796   -3.1596 H   0  0  0  0  0  0  0  0  0  0  0  0
    2.8699   -2.9186   -2.9883 H   0  0  0  0  0  0  0  0  0  0  0  0
    5.3743   -1.3768   -0.9186 H   0  0  0  0  0  0  0  0  0  0  0  0
    4.9490    1.1797    2.4331 H   0  0  0  0  0  0  0  0  0  0  0  0
    2.5393    1.2575    2.0791 H   0  0  0  0  0  0  0  0  0  0  0  0
    0.7911   -0.5584   -0.7929 H   0  0  0  0  0  0  0  0  0  0  0  0
   -0.6292    2.4990    3.4896 H   0  0  0  0  0  0  0  0  0  0  0  0
   -4.3569    1.3738    1.0549 H   0  0  0  0  0  0  0  0  0  0  0  0
   -2.1988   -0.2806   -1.5709 H   0  0  0  0  0  0  0  0  0  0  0  0
   -3.1205   -1.3897   -3.5303 H   0  0  0  0  0  0  0  0  0  0  0  0
   -5.5395   -1.5541   -3.8467 H   0  0  0  0  0  0  0  0  0  0  0  0
   -7.0514   -0.5925   -2.1712 H   0  0  0  0  0  0  0  0  0  0  0  0
   -8.3466    0.8413   -1.2183 H   0  0  0  0  0  0  0  0  0  0  0  0
   -9.1540   -1.1790    0.8282 H   0  0  0  0  0  0  0  0  0  0  0  0
   -7.6560   -1.6725    0.0161 H   0  0  0  0  0  0  0  0  0  0  0  0
   -9.0808   -1.3786   -0.9918 H   0  0  0  0  0  0  0  0  0  0  0  0
   -9.3406    0.5922    1.6050 H   0  0  0  0  0  0  0  0  0  0  0  0
   -8.5134    2.0914    1.1105 H   0  0  0  0  0  0  0  0  0  0  0  0
   -9.9946    1.6244    0.2214 H   0  0  0  0  0  0  0  0  0  0  0  0
    6.8906    0.0074    3.0485 H   0  0  0  0  0  0  0  0  0  0  0  0
    6.9435    1.5808    2.1630 H   0  0  0  0  0  0  0  0  0  0  0  0
    9.2375    1.0353    2.9152 H   0  0  0  0  0  0  0  0  0  0  0  0
    9.0355   -0.6558    2.4158 H   0  0  0  0  0  0  0  0  0  0  0  0
    9.4024   -0.0803   -0.9649 H   0  0  0  0  0  0  0  0  0  0  0  0
    9.6792   -1.1422    0.4195 H   0  0  0  0  0  0  0  0  0  0  0  0
    7.2624   -0.7386   -1.0084 H   0  0  0  0  0  0  0  0  0  0  0  0
    7.5855   -1.9199    0.3590 H   0  0  0  0  0  0  0  0  0  0  0  0
  1  2  1  0
  2  3  1  0
  3  4  2  0
  4  5  1  0
  5  6  2  0
  6  7  1  0
  7  8  2  0
  8  9  1  0
  9 10  1  0
 10 11  2  0
 11 12  1  0
 12 13  2  0
 13 14  1  0
 13 15  1  0
 15 16  1  0
 16 17  1  0
 17 18  2  0
 18 19  1  0
 19 20  2  0
 20 21  1  0
 21 22  2  0
 22 23  1  0
 23 24  2  0
 23 25  2  0
 23 26  1  0
 26 27  1  0
 26 28  1  0
 15 29  2  0
  5 30  1  0
 30 31  1  0
 31 32  1  0
 32 33  1  0
 33 34  1  0
 34 35  1  0
  8  3  1  0
 29 10  1  0
 35 30  1  0
 22 17  1  0
  1 36  1  0
  1 37  1  0
  1 38  1  0
  4 39  1  0
  6 40  1  0
  7 41  1  0
  9 42  1  0
 12 43  1  0
 16 44  1  0
 18 45  1  0
 19 46  1  0
 20 47  1  0
 21 48  1  0
 26 49  1  0
 27 50  1  0
 27 51  1  0
 27 52  1  0
 28 53  1  0
 28 54  1  0
 28 55  1  0
 31 56  1  0
 31 57  1  0
 32 58  1  0
 32 59  1  0
 34 60  1  0
 34 61  1  0
 35 62  1  0
 35 63  1  0
M  END
$$$$
[H]c1c2c(c3c(nnn3[H])c1[H])C([H])([H])C1(C([H])([H])C([H])([H])C([H])([H])C([H])([H])[H])C2=C(Br)C(=O)C([H])([H])C1([H])[H]
     RDKit          3D

 40 43  0  0  0  0  0  0  0  0999 V2000
    4.0335    1.7871    0.6671 C   0  0  0  0  0  0  0  0  0  0  0  0
    2.5314    1.3725    0.5935 C   0  0  0  0  0  0  0  0  0  0  0  0
    2.3624    0.3921   -0.5211 C   0  0  0  0  0  0  0  0  0  0  0  0
    1.0637   -0.1215   -0.8891 C   0  0  0  0  0  0  0  0  0  0  0  0
    0.1535   -0.8549   -0.0217 C   0  0  0  0  0  0  0  0  0  0  0  0
   -0.3993   -0.1575    1.1842 C   0  0  0  0  0  0  0  0  0  0  0  0
   -1.6138    0.5537    0.6591 C   0  0  0  0  0  0  0  0  0  0  0  0
   -2.0080   -0.0863   -0.4924 C   0  0  0  0  0  0  0  0  0  0  0  0
   -3.1232    0.3639   -1.2094 C   0  0  0  0  0  0  0  0  0  0  0  0
   -3.8060    1.4753   -0.7083 C   0  0  0  0  0  0  0  0  0  0  0  0
   -3.4036    2.1118    0.4486 C   0  0  0  0  0  0  0  0  0  0  0  0
   -3.8859    3.1640    1.1031 N   0  0  0  0  0  0  0  0  0  0  0  0
   -3.1164    3.3660    2.1739 N   0  0  0  0  0  0  0  0  0  0  0  0
   -2.1606    2.4579    2.2006 N   0  0  0  0  0  0  0  0  0  0  0  0
   -2.2835    1.6402    1.1464 C   0  0  0  0  0  0  0  0  0  0  0  0
   -1.1188   -1.2027   -0.7713 C   0  0  0  0  0  0  0  0  0  0  0  0
   -1.2408   -2.3079   -1.4828 C   0  0  0  0  0  0  0  0  0  0  0  0
   -2.8642   -2.7249   -2.4213 Br  0  0  0  0  0  0  0  0  0  0  0  0
   -0.1486   -3.2643   -1.5966 C   0  0  0  0  0  0  0  0  0  0  0  0
   -0.2334   -4.2532   -2.3671 O   0  0  0  0  0  0  0  0  0  0  0  0
    1.0667   -3.0350   -0.7752 C   0  0  0  0  0  0  0  0  0  0  0  0
    0.6743   -2.2177    0.4237 C   0  0  0  0  0  0  0  0  0  0  0  0
    4.6612    0.9203    0.4399 H   0  0  0  0  0  0  0  0  0  0  0  0
    4.2371    2.5904   -0.0569 H   0  0  0  0  0  0  0  0  0  0  0  0
    4.2748    2.1571    1.6651 H   0  0  0  0  0  0  0  0  0  0  0  0
    1.9004    2.2439    0.5957 H   0  0  0  0  0  0  0  0  0  0  0  0
    2.4291    0.8356    1.5944 H   0  0  0  0  0  0  0  0  0  0  0  0
    3.1434   -0.3958   -0.3078 H   0  0  0  0  0  0  0  0  0  0  0  0
    2.8110    0.8716   -1.4656 H   0  0  0  0  0  0  0  0  0  0  0  0
    1.1235   -0.7193   -1.8719 H   0  0  0  0  0  0  0  0  0  0  0  0
    0.4629    0.7879   -1.2892 H   0  0  0  0  0  0  0  0  0  0  0  0
    0.2713    0.5177    1.6855 H   0  0  0  0  0  0  0  0  0  0  0  0
   -0.7617   -0.9844    1.8734 H   0  0  0  0  0  0  0  0  0  0  0  0
   -3.4858   -0.0712   -2.1033 H   0  0  0  0  0  0  0  0  0  0  0  0
   -4.6779    1.8237   -1.2726 H   0  0  0  0  0  0  0  0  0  0  0  0
   -1.4289    2.4111    2.9503 H   0  0  0  0  0  0  0  0  0  0  0  0
    1.8398   -2.5450   -1.4180 H   0  0  0  0  0  0  0  0  0  0  0  0
    1.4785   -4.0296   -0.4411 H   0  0  0  0  0  0  0  0  0  0  0  0
    1.4437   -2.1473    1.1957 H   0  0  0  0  0  0  0  0  0  0  0  0
   -0.2017   -2.7253    0.8828 H   0  0  0  0  0  0  0  0  0  0  0  0
  1  2  1  0
  2  3  1  0
  3  4  1  0
  4  5  1  0
  5  6  1  0
  6  7  1  0
  7  8  2  0
  8  9  1  0
  9 10  2  0
 10 11  1  0
 11 12  1  0
 12 13  2  0
 13 14  1  0
 14 15  1  0
  8 16  1  0
 16 17  2  0
 17 18  1  0
 17 19  1  0
 19 20  2  0
 19 21  1  0
 21 22  1  0
 16  5  1  0
 22  5  1  0
 15  7  1  0
 15 11  2  0
  1 23  1  0
  1 24  1  0
  1 25  1  0
  2 26  1  0
  2 27  1  0
  3 28  1  0
  3 29  1  0
  4 30  1  0
  4 31  1  0
  6 32  1  0
  6 33  1  0
  9 34  1  0
 10 35  1  0
 14 36  1  0
 21 37  1  0
 21 38  1  0
 22 39  1  0
 22 40  1  0
M  END
$$$$
[H]c1nn([H])c(N([H])C(=O)C(=O)[C@@]([H])(N([H])C(=O)O[C@]([H])(C([H])([H])n2nc(-c3c([H])c([H])c(C(F)(F)F)c([H])c3[H])c([H])c2[H])C(C([H])([H])[H])(C([H])([H])[H])C([H])([H])[H])C([H])([H])C([H])([H])C([H])([H])C([H])([H])[H])c1[H]
     RDKit          3D

 73 75  0  0  0  0  0  0  0  0999 V2000
   -4.1106   -4.0046    0.8117 C   0  0  0  0  0  0  0  0  0  0  0  0
   -4.1580   -3.6071   -0.6428 C   0  0  0  0  0  0  0  0  0  0  0  0
   -3.5868   -2.1848   -0.7498 C   0  0  0  0  0  0  0  0  0  0  0  0
   -4.4588   -1.2839    0.0808 C   0  0  0  0  0  0  0  0  0  0  0  0
   -3.9318    0.1524   -0.0836 C   0  0  2  0  0  0  0  0  0  0  0  0
   -2.5869    0.1737    0.3723 N   0  0  0  0  0  0  0  0  0  0  0  0
   -1.4856    0.1880   -0.5031 C   0  0  0  0  0  0  0  0  0  0  0  0
   -1.6192    0.1655   -1.7671 O   0  0  0  0  0  0  0  0  0  0  0  0
   -0.2435    0.2298    0.0003 O   0  0  0  0  0  0  0  0  0  0  0  0
    1.0090    0.2238   -0.6797 C   0  0  2  0  0  0  0  0  0  0  0  0
    1.7734   -0.9009   -0.0666 C   0  0  0  0  0  0  0  0  0  0  0  0
    3.1083   -1.1819   -0.5279 N   0  0  0  0  0  0  0  0  0  0  0  0
    3.4878   -2.0076   -1.5469 C   0  0  0  0  0  0  0  0  0  0  0  0
    4.8568   -2.0450   -1.6542 C   0  0  0  0  0  0  0  0  0  0  0  0
    5.3332   -1.2132   -0.6622 C   0  0  0  0  0  0  0  0  0  0  0  0
    4.2524   -0.7365   -0.0354 N   0  0  0  0  0  0  0  0  0  0  0  0
    6.7462   -0.8753   -0.3372 C   0  0  0  0  0  0  0  0  0  0  0  0
    7.0317    0.0187    0.6712 C   0  0  0  0  0  0  0  0  0  0  0  0
    8.3044    0.3778    1.0297 C   0  0  0  0  0  0  0  0  0  0  0  0
    9.3481   -0.1894    0.3330 C   0  0  0  0  0  0  0  0  0  0  0  0
    9.0878   -1.0836   -0.6808 C   0  0  0  0  0  0  0  0  0  0  0  0
    7.7891   -1.4350   -1.0251 C   0  0  0  0  0  0  0  0  0  0  0  0
   10.7342    0.1791    0.6869 C   0  0  0  0  0  0  0  0  0  0  0  0
   11.5585   -0.9106    0.6822 F   0  0  0  0  0  0  0  0  0  0  0  0
   11.1549    1.1531   -0.2306 F   0  0  0  0  0  0  0  0  0  0  0  0
   10.7120    0.7616    1.9516 F   0  0  0  0  0  0  0  0  0  0  0  0
    1.6021    1.6003   -0.3817 C   0  0  0  0  0  0  0  0  0  0  0  0
    1.7647    1.7232    1.1063 C   0  0  0  0  0  0  0  0  0  0  0  0
    2.8338    1.9275   -1.1560 C   0  0  0  0  0  0  0  0  0  0  0  0
    0.4893    2.6114   -0.7282 C   0  0  0  0  0  0  0  0  0  0  0  0
   -4.7990    1.0928    0.6597 C   0  0  0  0  0  0  0  0  0  0  0  0
   -4.3194    1.7450    1.6051 O   0  0  0  0  0  0  0  0  0  0  0  0
   -6.1945    1.2776    0.3224 C   0  0  0  0  0  0  0  0  0  0  0  0
   -6.6268    0.6464   -0.6696 O   0  0  0  0  0  0  0  0  0  0  0  0
   -7.0595    2.1120    1.0462 N   0  0  0  0  0  0  0  0  0  0  0  0
   -8.4321    2.3162    0.7981 C   0  0  0  0  0  0  0  0  0  0  0  0
   -9.1932    1.7565   -0.1777 C   0  0  0  0  0  0  0  0  0  0  0  0
  -10.5045    2.2385   -0.0618 C   0  0  0  0  0  0  0  0  0  0  0  0
  -10.4947    3.0691    0.9735 N   0  0  0  0  0  0  0  0  0  0  0  0
   -9.2875    3.1271    1.4871 N   0  0  0  0  0  0  0  0  0  0  0  0
   -4.2657   -5.1099    0.8483 H   0  0  0  0  0  0  0  0  0  0  0  0
   -4.8910   -3.5109    1.4046 H   0  0  0  0  0  0  0  0  0  0  0  0
   -3.0713   -3.7517    1.1758 H   0  0  0  0  0  0  0  0  0  0  0  0
   -5.2437   -3.5795   -0.9642 H   0  0  0  0  0  0  0  0  0  0  0  0
   -3.6166   -4.3022   -1.3033 H   0  0  0  0  0  0  0  0  0  0  0  0
   -3.6113   -1.9247   -1.8351 H   0  0  0  0  0  0  0  0  0  0  0  0
   -2.5328   -2.2189   -0.4365 H   0  0  0  0  0  0  0  0  0  0  0  0
   -4.4164   -1.5661    1.1551 H   0  0  0  0  0  0  0  0  0  0  0  0
   -5.5227   -1.3651   -0.1911 H   0  0  0  0  0  0  0  0  0  0  0  0
   -3.9622    0.3375   -1.1621 H   0  0  0  0  0  0  0  0  0  0  0  0
   -2.4118    0.1768    1.4024 H   0  0  0  0  0  0  0  0  0  0  0  0
    0.9014    0.0901   -1.7601 H   0  0  0  0  0  0  0  0  0  0  0  0
    1.8755   -0.7412    1.0582 H   0  0  0  0  0  0  0  0  0  0  0  0
    1.1874   -1.8547   -0.1404 H   0  0  0  0  0  0  0  0  0  0  0  0
    2.7795   -2.5455   -2.1841 H   0  0  0  0  0  0  0  0  0  0  0  0
    5.4270   -2.6025   -2.3846 H   0  0  0  0  0  0  0  0  0  0  0  0
    6.1985    0.4487    1.1996 H   0  0  0  0  0  0  0  0  0  0  0  0
    8.4500    1.0870    1.8427 H   0  0  0  0  0  0  0  0  0  0  0  0
    9.9248   -1.5359   -1.2225 H   0  0  0  0  0  0  0  0  0  0  0  0
    7.6472   -2.1347   -1.8115 H   0  0  0  0  0  0  0  0  0  0  0  0
    0.9117    1.1596    1.6078 H   0  0  0  0  0  0  0  0  0  0  0  0
    1.6037    2.7973    1.4262 H   0  0  0  0  0  0  0  0  0  0  0  0
    2.6766    1.3053    1.5099 H   0  0  0  0  0  0  0  0  0  0  0  0
    2.6263    2.8813   -1.6939 H   0  0  0  0  0  0  0  0  0  0  0  0
    3.0268    1.1774   -1.9453 H   0  0  0  0  0  0  0  0  0  0  0  0
    3.6460    2.1405   -0.4647 H   0  0  0  0  0  0  0  0  0  0  0  0
   -0.3319    2.4746   -0.0095 H   0  0  0  0  0  0  0  0  0  0  0  0
    0.9080    3.6446   -0.6728 H   0  0  0  0  0  0  0  0  0  0  0  0
    0.1310    2.4023   -1.7454 H   0  0  0  0  0  0  0  0  0  0  0  0
   -6.6742    2.6534    1.8896 H   0  0  0  0  0  0  0  0  0  0  0  0
   -8.9145    1.0607   -0.9441 H   0  0  0  0  0  0  0  0  0  0  0  0
  -11.3362    1.9775   -0.6885 H   0  0  0  0  0  0  0  0  0  0  0  0
   -9.0039    3.7206    2.3064 H   0  0  0  0  0  0  0  0  0  0  0  0
  1  2  1  0
  2  3  1  0
  3  4  1  0
  4  5  1  0
  5  6  1  0
  6  7  1  0
  7  8  2  0
  7  9  1  0
  9 10  1  0
 10 11  1  0
 11 12  1  0
 12 13  1  0
 13 14  2  0
 14 15  1  0
 15 16  2  0
 15 17  1  0
 17 18  2  0
 18 19  1  0
 19 20  2  0
 20 21  1  0
 21 22  2  0
 20 23  1  0
 23 24  1  0
 23 25  1  0
 23 26  1  0
 10 27  1  0
 27 28  1  0
 27 29  1  0
 27 30  1  0
  5 31  1  0
 31 32  2  0
 31 33  1  0
 33 34  2  0
 33 35  1  0
 35 36  1  0
 36 37  2  0
 37 38  1  0
 38 39  2  0
 39 40  1  0
 16 12  1  0
 22 17  1  0
 40 36  1  0
  1 41  1  0
  1 42  1  0
  1 43  1  0
  2 44  1  0
  2 45  1  0
  3 46  1  0
  3 47  1  0
  4 48  1  0
  4 49  1  0
  5 50  1  6
  6 51  1  0
 10 52  1  6
 11 53  1  0
 11 54  1  0
 13 55  1  0
 14 56  1  0
 18 57  1  0
 19 58  1  0
 21 59  1  0
 22 60  1  0
 28 61  1  0
 28 62  1  0
 28 63  1  0
 29 64  1  0
 29 65  1  0
 29 66  1  0
 30 67  1  0
 30 68  1  0
 30 69  1  0
 35 70  1  0
 37 71  1  0
 38 72  1  0
 40 73  1  0
M  END
$$$$
[H]O[C@]1([H])[C@@]([H])(C([H])([H])OS(=O)(=O)N([H])C(=O)[C@@]([H])(N([H])[H])C([H])([H])C([H])(C([H])([H])[H])C([H])([H])[H])O[C@@]([H])(n2c([H])nc3c(N([H])[H])nc([H])c([H])c32)[C@]1([H])O[H]
     RDKit          3D

 57 59  0  0  0  0  0  0  0  0999 V2000
    5.9382    1.8038   -0.9890 C   0  0  0  0  0  0  0  0  0  0  0  0
    6.3125    1.3645    0.4049 C   0  0  0  0  0  0  0  0  0  0  0  0
    7.6959    0.7439    0.3434 C   0  0  0  0  0  0  0  0  0  0  0  0
    5.3361    0.4810    1.0825 C   0  0  0  0  0  0  0  0  0  0  0  0
    5.0568   -0.8363    0.4135 C   0  0  2  0  0  0  0  0  0  0  0  0
    4.5437   -0.5586   -0.9143 N   0  0  0  0  0  0  0  0  0  0  0  0
    3.9256   -1.4936    1.1720 C   0  0  0  0  0  0  0  0  0  0  0  0
    4.0917   -1.7933    2.3754 O   0  0  0  0  0  0  0  0  0  0  0  0
    2.7033   -1.7645    0.5449 N   0  0  0  0  0  0  0  0  0  0  0  0
    1.3257   -2.4918    1.3029 S   0  0  0  0  0  0  0  0  0  0  0  0
    1.5289   -2.7039    2.7602 O   0  0  0  0  0  0  0  0  0  0  0  0
    1.0284   -3.8060    0.6450 O   0  0  0  0  0  0  0  0  0  0  0  0
   -0.0444   -1.5009    1.0081 O   0  0  0  0  0  0  0  0  0  0  0  0
   -0.3086   -1.6629   -0.3237 C   0  0  0  0  0  0  0  0  0  0  0  0
   -1.4011   -0.8905   -0.9196 C   0  0  1  0  0  0  0  0  0  0  0  0
   -2.6735   -1.0440   -0.4342 O   0  0  0  0  0  0  0  0  0  0  0  0
   -3.3439   -0.1484   -1.2747 C   0  0  2  0  0  0  0  0  0  0  0  0
   -2.5754    1.1340   -1.0394 C   0  0  2  0  0  0  0  0  0  0  0  0
   -2.6781    1.9990   -2.1277 O   0  0  0  0  0  0  0  0  0  0  0  0
   -1.1646    0.6224   -0.8621 C   0  0  2  0  0  0  0  0  0  0  0  0
   -0.3379    1.0407   -1.8952 O   0  0  0  0  0  0  0  0  0  0  0  0
   -4.7344   -0.0269   -1.0851 N   0  0  0  0  0  0  0  0  0  0  0  0
   -5.6322   -0.0229   -2.1130 C   0  0  0  0  0  0  0  0  0  0  0  0
   -6.8718    0.1249   -1.6199 N   0  0  0  0  0  0  0  0  0  0  0  0
   -6.7553    0.2148   -0.2615 C   0  0  0  0  0  0  0  0  0  0  0  0
   -7.6998    0.3771    0.7319 C   0  0  0  0  0  0  0  0  0  0  0  0
   -9.0755    0.4805    0.3737 N   0  0  0  0  0  0  0  0  0  0  0  0
   -7.2728    0.4352    1.9947 N   0  0  0  0  0  0  0  0  0  0  0  0
   -5.9551    0.3409    2.3214 C   0  0  0  0  0  0  0  0  0  0  0  0
   -5.0005    0.1802    1.3546 C   0  0  0  0  0  0  0  0  0  0  0  0
   -5.4144    0.1169    0.0388 C   0  0  0  0  0  0  0  0  0  0  0  0
    4.8994    2.1266   -1.0895 H   0  0  0  0  0  0  0  0  0  0  0  0
    6.5378    2.7489   -1.1948 H   0  0  0  0  0  0  0  0  0  0  0  0
    6.2881    1.1118   -1.7862 H   0  0  0  0  0  0  0  0  0  0  0  0
    6.4057    2.2846    1.0241 H   0  0  0  0  0  0  0  0  0  0  0  0
    8.4748    1.4363    0.7306 H   0  0  0  0  0  0  0  0  0  0  0  0
    7.7693   -0.1853    0.9604 H   0  0  0  0  0  0  0  0  0  0  0  0
    7.9369    0.5072   -0.7150 H   0  0  0  0  0  0  0  0  0  0  0  0
    4.3513    1.0227    1.1258 H   0  0  0  0  0  0  0  0  0  0  0  0
    5.7051    0.2838    2.1134 H   0  0  0  0  0  0  0  0  0  0  0  0
    5.9474   -1.4806    0.3596 H   0  0  0  0  0  0  0  0  0  0  0  0
    3.7406    0.0743   -0.9217 H   0  0  0  0  0  0  0  0  0  0  0  0
    4.5138   -1.3779   -1.5256 H   0  0  0  0  0  0  0  0  0  0  0  0
    2.6011   -1.5126   -0.4756 H   0  0  0  0  0  0  0  0  0  0  0  0
   -0.4156   -2.7616   -0.5708 H   0  0  0  0  0  0  0  0  0  0  0  0
    0.6375   -1.3857   -0.8770 H   0  0  0  0  0  0  0  0  0  0  0  0
   -1.4587   -1.1127   -2.0260 H   0  0  0  0  0  0  0  0  0  0  0  0
   -3.0708   -0.4867   -2.3175 H   0  0  0  0  0  0  0  0  0  0  0  0
   -2.8686    1.6622   -0.1351 H   0  0  0  0  0  0  0  0  0  0  0  0
   -2.8730    2.9162   -1.8484 H   0  0  0  0  0  0  0  0  0  0  0  0
   -0.7442    0.8930    0.1267 H   0  0  0  0  0  0  0  0  0  0  0  0
   -0.7903    1.1504   -2.7488 H   0  0  0  0  0  0  0  0  0  0  0  0
   -5.3704   -0.1270   -3.1591 H   0  0  0  0  0  0  0  0  0  0  0  0
   -9.4024    0.0070   -0.4907 H   0  0  0  0  0  0  0  0  0  0  0  0
   -9.7733    0.9983    0.9168 H   0  0  0  0  0  0  0  0  0  0  0  0
   -5.6528    0.3922    3.3724 H   0  0  0  0  0  0  0  0  0  0  0  0
   -3.9362    0.0994    1.5434 H   0  0  0  0  0  0  0  0  0  0  0  0
  1  2  1  0
  2  3  1  0
  2  4  1  0
  4  5  1  0
  5  6  1  0
  5  7  1  0
  7  8  2  0
  7  9  1  0
  9 10  1  0
 10 11  2  0
 10 12  2  0
 10 13  1  0
 13 14  1  0
 14 15  1  0
 15 16  1  0
 16 17  1  0
 17 18  1  0
 18 19  1  0
 18 20  1  0
 20 21  1  0
 17 22  1  0
 22 23  1  0
 23 24  2  0
 24 25  1  0
 25 26  2  0
 26 27  1  0
 26 28  1  0
 28 29  2  0
 29 30  1  0
 30 31  2  0
 20 15  1  0
 31 22  1  0
 31 25  1  0
  1 32  1  0
  1 33  1  0
  1 34  1  0
  2 35  1  0
  3 36  1  0
  3 37  1  0
  3 38  1  0
  4 39  1  0
  4 40  1  0
  5 41  1  6
  6 42  1  0
  6 43  1  0
  9 44  1  0
 14 45  1  0
 14 46  1  0
 15 47  1  6
 17 48  1  6
 18 49  1  1
 19 50  1  0
 20 51  1  1
 21 52  1  0
 23 53  1  0
 27 54  1  0
 27 55  1  0
 29 56  1  0
 30 57  1  0
M  END
$$$$
[H]N=C(c1c([H])c([H])c([H])c(C([H])([H])[C@@]([H])(C(=O)N2C([H])([H])C([H])([H])N(S(=O)(=O)C([H])([H])[H])C([H])([H])C2([H])[H])N([H])S(=O)(=O)c2c([H])c([H])c3c([H])c([H])c([H])c([H])c3c2[H])c1[H])N([H])[H]
     RDKit          3D

 66 69  0  0  0  0  0  0  0  0999 V2000
    1.0640    3.7150   -1.8680 N   0  0  0  0  0  0  0  0  0  0  0  0
    0.4655    3.0574   -2.9813 C   0  0  0  0  0  0  0  0  0  0  0  0
    0.2126    3.7765   -3.9978 N   0  0  0  0  0  0  0  0  0  0  0  0
    0.1791    1.6232   -2.8964 C   0  0  0  0  0  0  0  0  0  0  0  0
   -0.4142    0.9722   -3.9406 C   0  0  0  0  0  0  0  0  0  0  0  0
   -0.6665   -0.4051   -3.8115 C   0  0  0  0  0  0  0  0  0  0  0  0
   -0.2988   -1.0192   -2.6389 C   0  0  0  0  0  0  0  0  0  0  0  0
    0.2981   -0.3930   -1.5749 C   0  0  0  0  0  0  0  0  0  0  0  0
    0.6638   -1.0771   -0.3542 C   0  0  0  0  0  0  0  0  0  0  0  0
    0.1025   -0.8585    0.9507 C   0  0  2  0  0  0  0  0  0  0  0  0
    0.8907   -1.8144    1.8568 N   0  0  0  0  0  0  0  0  0  0  0  0
    2.0260   -0.9874    2.7982 S   0  0  0  0  0  0  0  0  0  0  0  0
    1.2502   -0.0356    3.7051 O   0  0  0  0  0  0  0  0  0  0  0  0
    2.7118   -1.9550    3.7293 O   0  0  0  0  0  0  0  0  0  0  0  0
    3.2562   -0.1460    1.9297 C   0  0  0  0  0  0  0  0  0  0  0  0
    3.1843    1.2037    1.5664 C   0  0  0  0  0  0  0  0  0  0  0  0
    4.1982    1.8233    0.8793 C   0  0  0  0  0  0  0  0  0  0  0  0
    5.3403    1.1072    0.5229 C   0  0  0  0  0  0  0  0  0  0  0  0
    6.3899    1.6685   -0.1554 C   0  0  0  0  0  0  0  0  0  0  0  0
    7.5263    0.9781   -0.5094 C   0  0  0  0  0  0  0  0  0  0  0  0
    7.6003   -0.3773   -0.1477 C   0  0  0  0  0  0  0  0  0  0  0  0
    6.5716   -0.9426    0.5228 C   0  0  0  0  0  0  0  0  0  0  0  0
    5.4214   -0.2167    0.8735 C   0  0  0  0  0  0  0  0  0  0  0  0
    4.3957   -0.8496    1.5706 C   0  0  0  0  0  0  0  0  0  0  0  0
   -1.2298   -0.8043    1.4228 C   0  0  0  0  0  0  0  0  0  0  0  0
   -1.2558   -1.0566    2.7887 O   0  0  0  0  0  0  0  0  0  0  0  0
   -2.5342   -0.5864    1.0335 N   0  0  0  0  0  0  0  0  0  0  0  0
   -3.6213   -0.5107    2.0686 C   0  0  0  0  0  0  0  0  0  0  0  0
   -4.5385   -1.6505    1.8288 C   0  0  0  0  0  0  0  0  0  0  0  0
   -5.0017   -1.7017    0.4594 N   0  0  0  0  0  0  0  0  0  0  0  0
   -4.5633   -0.5350   -0.2853 C   0  0  0  0  0  0  0  0  0  0  0  0
   -3.0373   -0.4593   -0.2894 C   0  0  0  0  0  0  0  0  0  0  0  0
   -6.7125   -1.7562    0.4463 S   0  0  0  0  0  0  0  0  0  0  0  0
   -7.3715   -0.2926    1.1830 C   0  0  0  0  0  0  0  0  0  0  0  0
   -7.2187   -2.9116    1.2667 O   0  0  0  0  0  0  0  0  0  0  0  0
   -7.1962   -1.8548   -0.9723 O   0  0  0  0  0  0  0  0  0  0  0  0
    0.5375    0.9774   -1.7302 C   0  0  0  0  0  0  0  0  0  0  0  0
    0.4740    3.9715   -1.0631 H   0  0  0  0  0  0  0  0  0  0  0  0
    2.0730    3.9150   -1.9042 H   0  0  0  0  0  0  0  0  0  0  0  0
   -0.2198    3.3628   -4.8354 H   0  0  0  0  0  0  0  0  0  0  0  0
   -0.6970    1.4549   -4.8457 H   0  0  0  0  0  0  0  0  0  0  0  0
   -1.1359   -0.9285   -4.6240 H   0  0  0  0  0  0  0  0  0  0  0  0
   -0.4898   -2.1003   -2.5213 H   0  0  0  0  0  0  0  0  0  0  0  0
    0.5806   -2.2104   -0.6119 H   0  0  0  0  0  0  0  0  0  0  0  0
    1.8254   -1.0048   -0.2070 H   0  0  0  0  0  0  0  0  0  0  0  0
    0.5895    0.1937    1.2805 H   0  0  0  0  0  0  0  0  0  0  0  0
    1.3383   -2.5089    1.2618 H   0  0  0  0  0  0  0  0  0  0  0  0
    2.3056    1.7612    1.8344 H   0  0  0  0  0  0  0  0  0  0  0  0
    4.1728    2.8629    0.5821 H   0  0  0  0  0  0  0  0  0  0  0  0
    6.3171    2.7184   -0.4277 H   0  0  0  0  0  0  0  0  0  0  0  0
    8.3371    1.4113   -1.0390 H   0  0  0  0  0  0  0  0  0  0  0  0
    8.4888   -0.9193   -0.4291 H   0  0  0  0  0  0  0  0  0  0  0  0
    6.6023   -1.9921    0.8165 H   0  0  0  0  0  0  0  0  0  0  0  0
    4.4759   -1.8879    1.8325 H   0  0  0  0  0  0  0  0  0  0  0  0
   -3.2135   -0.5080    3.0713 H   0  0  0  0  0  0  0  0  0  0  0  0
   -4.1852    0.4394    1.9024 H   0  0  0  0  0  0  0  0  0  0  0  0
   -3.9725   -2.6061    2.0160 H   0  0  0  0  0  0  0  0  0  0  0  0
   -5.3561   -1.6503    2.5798 H   0  0  0  0  0  0  0  0  0  0  0  0
   -5.0190    0.3992    0.0164 H   0  0  0  0  0  0  0  0  0  0  0  0
   -4.8338   -0.7306   -1.3508 H   0  0  0  0  0  0  0  0  0  0  0  0
   -2.6680   -1.2878   -0.9512 H   0  0  0  0  0  0  0  0  0  0  0  0
   -2.7208    0.4932   -0.7291 H   0  0  0  0  0  0  0  0  0  0  0  0
   -6.7683    0.1163    2.0096 H   0  0  0  0  0  0  0  0  0  0  0  0
   -7.4969    0.5523    0.4556 H   0  0  0  0  0  0  0  0  0  0  0  0
   -8.4411   -0.4890    1.5200 H   0  0  0  0  0  0  0  0  0  0  0  0
    1.0114    1.4667   -0.8893 H   0  0  0  0  0  0  0  0  0  0  0  0
  1  2  1  0
  2  3  2  3
  2  4  1  0
  4  5  2  0
  5  6  1  0
  6  7  2  0
  7  8  1  0
  8  9  1  0
  9 10  1  0
 10 11  1  0
 11 12  1  0
 12 13  2  0
 12 14  2  0
 12 15  1  0
 15 16  2  0
 16 17  1  0
 17 18  2  0
 18 19  1  0
 19 20  2  0
 20 21  1  0
 21 22  2  0
 22 23  1  0
 23 24  2  0
 10 25  1  0
 25 26  2  0
 25 27  1  0
 27 28  1  0
 28 29  1  0
 29 30  1  0
 30 31  1  0
 31 32  1  0
 30 33  1  0
 33 34  1  0
 33 35  2  0
 33 36  2  0
  8 37  2  0
 37  4  1  0
 24 15  1  0
 32 27  1  0
 23 18  1  0
  1 38  1  0
  1 39  1  0
  3 40  1  0
  5 41  1  0
  6 42  1  0
  7 43  1  0
  9 44  1  0
  9 45  1  0
 10 46  1  1
 11 47  1  0
 16 48  1  0
 17 49  1  0
 19 50  1  0
 20 51  1  0
 21 52  1  0
 22 53  1  0
 24 54  1  0
 28 55  1  0
 28 56  1  0
 29 57  1  0
 29 58  1  0
 31 59  1  0
 31 60  1  0
 32 61  1  0
 32 62  1  0
 34 63  1  0
 34 64  1  0
 34 65  1  0
 37 66  1  0
M  END
$$$$
[H]c1nc2c(nc([H])c(=O)n2[H])c(Oc2c([H])c([H])c(N([H])C(=O)N([H])c3c([H])c(C(C([H])([H])[H])(C([H])([H])[H])C([H])([H])[H])nn3-c3c([H])c([H])c(C([H])([H])[H])c([H])c3[H])c3c([H])c([H])c([H])c([H])c23)c1[H]
     RDKit          3D

 71 76  0  0  0  0  0  0  0  0999 V2000
   -1.7713    3.3527    3.7236 C   0  0  0  0  0  0  0  0  0  0  0  0
   -2.3047    2.2767    2.8331 C   0  0  0  0  0  0  0  0  0  0  0  0
   -2.8534    2.5775    1.5837 C   0  0  0  0  0  0  0  0  0  0  0  0
   -3.3340    1.5671    0.7858 C   0  0  0  0  0  0  0  0  0  0  0  0
   -3.2957    0.2244    1.1780 C   0  0  0  0  0  0  0  0  0  0  0  0
   -2.7466   -0.0306    2.4147 C   0  0  0  0  0  0  0  0  0  0  0  0
   -2.2601    0.9624    3.2310 C   0  0  0  0  0  0  0  0  0  0  0  0
   -3.8598   -0.7513    0.3203 N   0  0  0  0  0  0  0  0  0  0  0  0
   -5.1106   -0.5257   -0.1397 N   0  0  0  0  0  0  0  0  0  0  0  0
   -5.5595   -1.5367   -0.8389 C   0  0  0  0  0  0  0  0  0  0  0  0
   -4.5750   -2.4794   -0.8528 C   0  0  0  0  0  0  0  0  0  0  0  0
   -3.4754   -1.9287   -0.0855 C   0  0  0  0  0  0  0  0  0  0  0  0
   -2.2787   -2.6374   -0.0407 N   0  0  0  0  0  0  0  0  0  0  0  0
   -0.9397   -2.3461    0.0627 C   0  0  0  0  0  0  0  0  0  0  0  0
   -0.2030   -3.4050    0.2999 O   0  0  0  0  0  0  0  0  0  0  0  0
   -0.2861   -1.1128   -0.0617 N   0  0  0  0  0  0  0  0  0  0  0  0
    1.1288   -0.9182    0.0456 C   0  0  0  0  0  0  0  0  0  0  0  0
    2.0248   -1.9561   -0.0618 C   0  0  0  0  0  0  0  0  0  0  0  0
    3.4048   -1.7222   -0.0113 C   0  0  0  0  0  0  0  0  0  0  0  0
    3.9222   -0.4599    0.1450 C   0  0  0  0  0  0  0  0  0  0  0  0
    5.2697   -0.3305    0.1791 O   0  0  0  0  0  0  0  0  0  0  0  0
    6.1416    0.2443   -0.6887 C   0  0  0  0  0  0  0  0  0  0  0  0
    5.7859    0.7878   -1.8941 C   0  0  0  0  0  0  0  0  0  0  0  0
    6.6849    1.3662   -2.7561 C   0  0  0  0  0  0  0  0  0  0  0  0
    7.9788    1.4206   -2.4396 N   0  0  0  0  0  0  0  0  0  0  0  0
    8.3891    0.9004   -1.2617 C   0  0  0  0  0  0  0  0  0  0  0  0
    9.7170    0.9831   -0.9915 N   0  0  0  0  0  0  0  0  0  0  0  0
   10.1604    0.4732    0.1757 C   0  0  0  0  0  0  0  0  0  0  0  0
   11.3944    0.5617    0.4076 O   0  0  0  0  0  0  0  0  0  0  0  0
    9.2810   -0.1118    1.0588 C   0  0  0  0  0  0  0  0  0  0  0  0
    7.9440   -0.1880    0.7734 N   0  0  0  0  0  0  0  0  0  0  0  0
    7.5085    0.3153   -0.3801 C   0  0  0  0  0  0  0  0  0  0  0  0
    3.0314    0.5728    0.2535 C   0  0  0  0  0  0  0  0  0  0  0  0
    3.5015    1.8448    0.4459 C   0  0  0  0  0  0  0  0  0  0  0  0
    2.6208    2.9118    0.5870 C   0  0  0  0  0  0  0  0  0  0  0  0
    1.2617    2.7061    0.5370 C   0  0  0  0  0  0  0  0  0  0  0  0
    0.7668    1.4194    0.3447 C   0  0  0  0  0  0  0  0  0  0  0  0
    1.6495    0.3796    0.2076 C   0  0  0  0  0  0  0  0  0  0  0  0
   -6.9068   -1.6819   -1.5229 C   0  0  0  0  0  0  0  0  0  0  0  0
   -6.8171   -2.7590   -2.5822 C   0  0  0  0  0  0  0  0  0  0  0  0
   -7.2161   -0.3728   -2.1855 C   0  0  0  0  0  0  0  0  0  0  0  0
   -7.8961   -2.0457   -0.4470 C   0  0  0  0  0  0  0  0  0  0  0  0
   -2.4018    3.3600    4.6448 H   0  0  0  0  0  0  0  0  0  0  0  0
   -1.8447    4.3415    3.2372 H   0  0  0  0  0  0  0  0  0  0  0  0
   -0.7181    3.0645    3.9616 H   0  0  0  0  0  0  0  0  0  0  0  0
   -2.8691    3.6132    1.3093 H   0  0  0  0  0  0  0  0  0  0  0  0
   -3.7643    1.7736   -0.1796 H   0  0  0  0  0  0  0  0  0  0  0  0
   -2.7036   -1.0521    2.7429 H   0  0  0  0  0  0  0  0  0  0  0  0
   -1.8262    0.7388    4.2205 H   0  0  0  0  0  0  0  0  0  0  0  0
   -4.5926   -3.4441   -1.3336 H   0  0  0  0  0  0  0  0  0  0  0  0
   -2.5055   -3.7597    0.0730 H   0  0  0  0  0  0  0  0  0  0  0  0
   -0.8244   -0.2414   -0.3007 H   0  0  0  0  0  0  0  0  0  0  0  0
    1.7431   -2.9845   -0.2124 H   0  0  0  0  0  0  0  0  0  0  0  0
    4.0515   -2.5987   -0.1006 H   0  0  0  0  0  0  0  0  0  0  0  0
    4.7499    0.7674   -2.1996 H   0  0  0  0  0  0  0  0  0  0  0  0
    6.3640    1.7847   -3.6931 H   0  0  0  0  0  0  0  0  0  0  0  0
   10.3842    1.4276   -1.6595 H   0  0  0  0  0  0  0  0  0  0  0  0
    9.6815   -0.5060    1.9798 H   0  0  0  0  0  0  0  0  0  0  0  0
    4.5718    2.0165    0.5169 H   0  0  0  0  0  0  0  0  0  0  0  0
    3.0467    3.8934    0.7352 H   0  0  0  0  0  0  0  0  0  0  0  0
    0.5763    3.5282    0.6462 H   0  0  0  0  0  0  0  0  0  0  0  0
   -0.2991    1.3577    0.3245 H   0  0  0  0  0  0  0  0  0  0  0  0
   -6.4847   -3.7340   -2.1599 H   0  0  0  0  0  0  0  0  0  0  0  0
   -6.0819   -2.4478   -3.3217 H   0  0  0  0  0  0  0  0  0  0  0  0
   -7.8129   -2.8054   -3.0705 H   0  0  0  0  0  0  0  0  0  0  0  0
   -6.4081   -0.1444   -2.9120 H   0  0  0  0  0  0  0  0  0  0  0  0
   -7.3573    0.4533   -1.4712 H   0  0  0  0  0  0  0  0  0  0  0  0
   -8.1330   -0.5198   -2.8128 H   0  0  0  0  0  0  0  0  0  0  0  0
   -8.3790   -1.1397   -0.0421 H   0  0  0  0  0  0  0  0  0  0  0  0
   -7.3655   -2.5395    0.4099 H   0  0  0  0  0  0  0  0  0  0  0  0
   -8.6752   -2.7512   -0.8188 H   0  0  0  0  0  0  0  0  0  0  0  0
  1  2  1  0
  2  3  2  0
  3  4  1  0
  4  5  2  0
  5  6  1  0
  6  7  2  0
  5  8  1  0
  8  9  1  0
  9 10  2  0
 10 11  1  0
 11 12  2  0
 12 13  1  0
 13 14  1  0
 14 15  2  0
 14 16  1  0
 16 17  1  0
 17 18  2  0
 18 19  1  0
 19 20  2  0
 20 21  1  0
 21 22  1  0
 22 23  2  0
 23 24  1  0
 24 25  2  0
 25 26  1  0
 26 27  1  0
 27 28  1  0
 28 29  2  0
 28 30  1  0
 30 31  2  0
 31 32  1  0
 20 33  1  0
 33 34  2  0
 34 35  1  0
 35 36  2  0
 36 37  1  0
 37 38  2  0
 10 39  1  0
 39 40  1  0
 39 41  1  0
 39 42  1  0
  7  2  1  0
 12  8  1  0
 38 17  1  0
 32 22  1  0
 38 33  1  0
 32 26  2  0
  1 43  1  0
  1 44  1  0
  1 45  1  0
  3 46  1  0
  4 47  1  0
  6 48  1  0
  7 49  1  0
 11 50  1  0
 13 51  1  0
 16 52  1  0
 18 53  1  0
 19 54  1  0
 23 55  1  0
 24 56  1  0
 27 57  1  0
 30 58  1  0
 34 59  1  0
 35 60  1  0
 36 61  1  0
 37 62  1  0
 40 63  1  0
 40 64  1  0
 40 65  1  0
 41 66  1  0
 41 67  1  0
 41 68  1  0
 42 69  1  0
 42 70  1  0
 42 71  1  0
M  END
$$$$
[H]c1c([H])c([H])c(C([H])([H])[C@@]2([H])C(=O)N([H])[C@@]([H])(C([H])([H])C([H])([H])C([H])([H])N=C(N([H])[H])N([H])[H])C(=O)N([H])[C@@]([H])(C([H])([H])c3c([H])n([H])c4c([H])c([H])c([H])c([H])c34)C(=O)N([H])[C@@]([H])(C([H])([H])c3c([H])c([H])c([H])c([H])c3[H])C(=O)N3C([H])([H])C([H])([H])C([H])([H])[C@@]3([H])C(=O)N2[H])c([H])c1[H]
     RDKit          3D

101106  0  0  0  0  0  0  0  0999 V2000
    7.1602    4.1600    1.3323 N   0  0  0  0  0  0  0  0  0  0  0  0
    5.9304    3.8471    0.6682 C   0  0  0  0  0  0  0  0  0  0  0  0
    5.5893    4.4220   -0.5827 N   0  0  0  0  0  0  0  0  0  0  0  0
    5.1531    3.0152    1.2701 N   0  0  0  0  0  0  0  0  0  0  0  0
    3.8641    2.6228    0.6779 C   0  0  0  0  0  0  0  0  0  0  0  0
    3.6509    1.1908    0.9943 C   0  0  0  0  0  0  0  0  0  0  0  0
    2.4032    0.5835    0.5163 C   0  0  0  0  0  0  0  0  0  0  0  0
    2.0995    0.4971   -0.9216 C   0  0  2  0  0  0  0  0  0  0  0  0
    3.0728   -0.2404   -1.6927 N   0  0  0  0  0  0  0  0  0  0  0  0
    2.8277   -1.5573   -2.0970 C   0  0  0  0  0  0  0  0  0  0  0  0
    3.2674   -1.9902   -3.1939 O   0  0  0  0  0  0  0  0  0  0  0  0
    2.0468   -2.4861   -1.2523 C   0  0  2  0  0  0  0  0  0  0  0  0
    3.0691   -3.2657   -0.4454 C   0  0  0  0  0  0  0  0  0  0  0  0
    2.5184   -4.2497    0.4670 C   0  0  0  0  0  0  0  0  0  0  0  0
    2.1806   -3.9056    1.7536 C   0  0  0  0  0  0  0  0  0  0  0  0
    1.6567   -4.8485    2.6405 C   0  0  0  0  0  0  0  0  0  0  0  0
    1.4757   -6.1400    2.2219 C   0  0  0  0  0  0  0  0  0  0  0  0
    1.8101   -6.4967    0.9359 C   0  0  0  0  0  0  0  0  0  0  0  0
    2.3259   -5.5512    0.0751 C   0  0  0  0  0  0  0  0  0  0  0  0
    1.2585   -3.3110   -2.1319 N   0  0  0  0  0  0  0  0  0  0  0  0
   -0.0378   -3.8136   -1.8729 C   0  0  0  0  0  0  0  0  0  0  0  0
   -0.2772   -4.9513   -2.3927 O   0  0  0  0  0  0  0  0  0  0  0  0
   -1.0823   -3.1329   -1.0738 C   0  0  2  0  0  0  0  0  0  0  0  0
   -1.5708   -4.1691   -0.0434 C   0  0  0  0  0  0  0  0  0  0  0  0
   -2.4923   -5.0018   -0.9052 C   0  0  0  0  0  0  0  0  0  0  0  0
   -2.8766   -4.1663   -2.0793 C   0  0  0  0  0  0  0  0  0  0  0  0
   -2.3089   -2.8777   -1.7673 N   0  0  0  0  0  0  0  0  0  0  0  0
   -2.7725   -1.5773   -2.0334 C   0  0  0  0  0  0  0  0  0  0  0  0
   -3.5123   -1.3572   -3.0597 O   0  0  0  0  0  0  0  0  0  0  0  0
   -2.4920   -0.3655   -1.2245 C   0  0  2  0  0  0  0  0  0  0  0  0
   -3.7317    0.0328   -0.4443 C   0  0  0  0  0  0  0  0  0  0  0  0
   -4.2267   -0.9796    0.4829 C   0  0  0  0  0  0  0  0  0  0  0  0
   -5.1702   -1.8864    0.0511 C   0  0  0  0  0  0  0  0  0  0  0  0
   -5.7046   -2.8810    0.8395 C   0  0  0  0  0  0  0  0  0  0  0  0
   -5.2682   -2.9778    2.1472 C   0  0  0  0  0  0  0  0  0  0  0  0
   -4.3214   -2.0678    2.5805 C   0  0  0  0  0  0  0  0  0  0  0  0
   -3.7935   -1.0771    1.7848 C   0  0  0  0  0  0  0  0  0  0  0  0
   -2.1976    0.7163   -2.1807 N   0  0  0  0  0  0  0  0  0  0  0  0
   -1.0802    1.5403   -2.1622 C   0  0  0  0  0  0  0  0  0  0  0  0
   -0.4501    1.7329   -3.2581 O   0  0  0  0  0  0  0  0  0  0  0  0
   -0.5421    2.2362   -0.9366 C   0  0  2  0  0  0  0  0  0  0  0  0
   -1.3754    3.4674   -0.7318 C   0  0  0  0  0  0  0  0  0  0  0  0
   -1.0032    4.2782    0.4245 C   0  0  0  0  0  0  0  0  0  0  0  0
   -0.0309    4.1409    1.3695 C   0  0  0  0  0  0  0  0  0  0  0  0
   -0.1235    5.1724    2.2202 N   0  0  0  0  0  0  0  0  0  0  0  0
   -1.1257    5.9903    1.8710 C   0  0  0  0  0  0  0  0  0  0  0  0
   -1.6467    7.1728    2.3909 C   0  0  0  0  0  0  0  0  0  0  0  0
   -2.7103    7.8297    1.8269 C   0  0  0  0  0  0  0  0  0  0  0  0
   -3.2753    7.2734    0.6900 C   0  0  0  0  0  0  0  0  0  0  0  0
   -2.7634    6.1025    0.1709 C   0  0  0  0  0  0  0  0  0  0  0  0
   -1.6890    5.4471    0.7482 C   0  0  0  0  0  0  0  0  0  0  0  0
    0.8244    2.6757   -1.1805 N   0  0  0  0  0  0  0  0  0  0  0  0
    1.8606    1.7856   -1.6134 C   0  0  0  0  0  0  0  0  0  0  0  0
    2.5855    2.1274   -2.6258 O   0  0  0  0  0  0  0  0  0  0  0  0
    7.1140    4.6801    2.2259 H   0  0  0  0  0  0  0  0  0  0  0  0
    8.0312    3.8497    0.8848 H   0  0  0  0  0  0  0  0  0  0  0  0
    5.2427    5.4002   -0.6209 H   0  0  0  0  0  0  0  0  0  0  0  0
    5.6947    3.8473   -1.4413 H   0  0  0  0  0  0  0  0  0  0  0  0
    3.0466    3.2521    1.1099 H   0  0  0  0  0  0  0  0  0  0  0  0
    3.9423    2.9001   -0.3764 H   0  0  0  0  0  0  0  0  0  0  0  0
    4.5667    0.5640    0.7520 H   0  0  0  0  0  0  0  0  0  0  0  0
    3.6400    1.1280    2.1342 H   0  0  0  0  0  0  0  0  0  0  0  0
    2.3032   -0.4593    0.9523 H   0  0  0  0  0  0  0  0  0  0  0  0
    1.5266    1.1193    1.0051 H   0  0  0  0  0  0  0  0  0  0  0  0
    1.0786   -0.0482   -1.0196 H   0  0  0  0  0  0  0  0  0  0  0  0
    3.9619    0.2567   -1.9325 H   0  0  0  0  0  0  0  0  0  0  0  0
    1.3261   -1.9868   -0.5758 H   0  0  0  0  0  0  0  0  0  0  0  0
    3.6850   -2.4741    0.0767 H   0  0  0  0  0  0  0  0  0  0  0  0
    3.7988   -3.7804   -1.1125 H   0  0  0  0  0  0  0  0  0  0  0  0
    2.3021   -2.9052    2.1336 H   0  0  0  0  0  0  0  0  0  0  0  0
    1.3841   -4.6019    3.6567 H   0  0  0  0  0  0  0  0  0  0  0  0
    1.0618   -6.8793    2.9239 H   0  0  0  0  0  0  0  0  0  0  0  0
    1.6589   -7.5291    0.6196 H   0  0  0  0  0  0  0  0  0  0  0  0
    2.5798   -5.8843   -0.9484 H   0  0  0  0  0  0  0  0  0  0  0  0
    1.6933   -3.5658   -3.0667 H   0  0  0  0  0  0  0  0  0  0  0  0
   -0.6845   -2.2394   -0.5477 H   0  0  0  0  0  0  0  0  0  0  0  0
   -2.1252   -3.6164    0.7455 H   0  0  0  0  0  0  0  0  0  0  0  0
   -0.6905   -4.6928    0.3227 H   0  0  0  0  0  0  0  0  0  0  0  0
   -3.4150   -5.1751   -0.2753 H   0  0  0  0  0  0  0  0  0  0  0  0
   -2.1038   -6.0045   -1.1426 H   0  0  0  0  0  0  0  0  0  0  0  0
   -3.9979   -4.1163   -2.1445 H   0  0  0  0  0  0  0  0  0  0  0  0
   -2.5717   -4.5645   -3.0677 H   0  0  0  0  0  0  0  0  0  0  0  0
   -1.6767   -0.4803   -0.4982 H   0  0  0  0  0  0  0  0  0  0  0  0
   -4.5150    0.2467   -1.2073 H   0  0  0  0  0  0  0  0  0  0  0  0
   -3.5759    0.9801    0.1093 H   0  0  0  0  0  0  0  0  0  0  0  0
   -5.5595   -1.8615   -0.9815 H   0  0  0  0  0  0  0  0  0  0  0  0
   -6.4417   -3.5857    0.4957 H   0  0  0  0  0  0  0  0  0  0  0  0
   -5.6752   -3.7600    2.7962 H   0  0  0  0  0  0  0  0  0  0  0  0
   -4.0170   -2.1956    3.6224 H   0  0  0  0  0  0  0  0  0  0  0  0
   -3.0545   -0.3899    2.1742 H   0  0  0  0  0  0  0  0  0  0  0  0
   -2.9204    0.8520   -2.9351 H   0  0  0  0  0  0  0  0  0  0  0  0
   -0.5406    1.5560   -0.0832 H   0  0  0  0  0  0  0  0  0  0  0  0
   -1.2317    4.1015   -1.6511 H   0  0  0  0  0  0  0  0  0  0  0  0
   -2.4604    3.2600   -0.6819 H   0  0  0  0  0  0  0  0  0  0  0  0
    0.6796    3.3171    1.3943 H   0  0  0  0  0  0  0  0  0  0  0  0
    0.5012    5.3171    3.0423 H   0  0  0  0  0  0  0  0  0  0  0  0
   -1.1980    7.5964    3.2766 H   0  0  0  0  0  0  0  0  0  0  0  0
   -3.1382    8.7417    2.1996 H   0  0  0  0  0  0  0  0  0  0  0  0
   -4.1093    7.7222    0.1864 H   0  0  0  0  0  0  0  0  0  0  0  0
   -3.2255    5.6856   -0.7231 H   0  0  0  0  0  0  0  0  0  0  0  0
    1.1303    3.6864   -1.0549 H   0  0  0  0  0  0  0  0  0  0  0  0
  1  2  1  0
  2  3  1  0
  2  4  2  3
  4  5  1  0
  5  6  1  0
  6  7  1  0
  7  8  1  0
  8  9  1  0
  9 10  1  0
 10 11  2  0
 10 12  1  0
 12 13  1  0
 13 14  1  0
 14 15  2  0
 15 16  1  0
 16 17  2  0
 17 18  1  0
 18 19  2  0
 12 20  1  0
 20 21  1  0
 21 22  2  0
 21 23  1  0
 23 24  1  0
 24 25  1  0
 25 26  1  0
 26 27  1  0
 27 28  1  0
 28 29  2  0
 28 30  1  0
 30 31  1  0
 31 32  1  0
 32 33  2  0
 33 34  1  0
 34 35  2  0
 35 36  1  0
 36 37  2  0
 30 38  1  0
 38 39  1  0
 39 40  2  0
 39 41  1  0
 41 42  1  0
 42 43  1  0
 43 44  2  0
 44 45  1  0
 45 46  1  0
 46 47  2  0
 47 48  1  0
 48 49  2  0
 49 50  1  0
 50 51  2  0
 41 52  1  0
 52 53  1  0
 53 54  2  0
 53  8  1  0
 19 14  1  0
 27 23  1  0
 37 32  1  0
 51 43  1  0
 51 46  1  0
  1 55  1  0
  1 56  1  0
  3 57  1  0
  3 58  1  0
  5 59  1  0
  5 60  1  0
  6 61  1  0
  6 62  1  0
  7 63  1  0
  7 64  1  0
  8 65  1  1
  9 66  1  0
 12 67  1  1
 13 68  1  0
 13 69  1  0
 15 70  1  0
 16 71  1  0
 17 72  1  0
 18 73  1  0
 19 74  1  0
 20 75  1  0
 23 76  1  1
 24 77  1  0
 24 78  1  0
 25 79  1  0
 25 80  1  0
 26 81  1  0
 26 82  1  0
 30 83  1  1
 31 84  1  0
 31 85  1  0
 33 86  1  0
 34 87  1  0
 35 88  1  0
 36 89  1  0
 37 90  1  0
 38 91  1  0
 41 92  1  1
 42 93  1  0
 42 94  1  0
 44 95  1  0
 45 96  1  0
 47 97  1  0
 48 98  1  0
 49 99  1  0
 50100  1  0
 52101  1  0
M  END
$$$$
[H]c1c(-c2c([H])c([H])c([H])c3c2c([H])c([H])n3[H])nnc(N2C([H])([H])[C@@]3([H])N(C([H])([H])[H])C([H])([H])[C@]2([H])C3([H])[H])c1[H]
     RDKit          3D

 42 46  0  0  0  0  0  0  0  0999 V2000
    5.5769    1.0822    0.7030 C   0  0  0  0  0  0  0  0  0  0  0  0
    5.0335   -0.2163    0.8254 N   0  0  0  0  0  0  0  0  0  0  0  0
    3.8659   -0.2939    1.6968 C   0  0  0  0  0  0  0  0  0  0  0  0
    2.8970   -1.2489    1.0337 C   0  0  2  0  0  0  0  0  0  0  0  0
    3.9024   -2.0773    0.2074 C   0  0  0  0  0  0  0  0  0  0  0  0
    4.5799   -0.8232   -0.3856 C   0  0  1  0  0  0  0  0  0  0  0  0
    3.3367   -0.1116   -0.9139 C   0  0  0  0  0  0  0  0  0  0  0  0
    2.2606   -0.5261   -0.0290 N   0  0  0  0  0  0  0  0  0  0  0  0
    0.8657   -0.2475   -0.2200 C   0  0  0  0  0  0  0  0  0  0  0  0
    0.4020    0.4608   -1.2917 C   0  0  0  0  0  0  0  0  0  0  0  0
   -0.9461    0.7426   -1.4968 C   0  0  0  0  0  0  0  0  0  0  0  0
   -1.8416    0.2739   -0.5589 C   0  0  0  0  0  0  0  0  0  0  0  0
   -1.3267   -0.4127    0.4677 N   0  0  0  0  0  0  0  0  0  0  0  0
   -0.0571   -0.6764    0.6582 N   0  0  0  0  0  0  0  0  0  0  0  0
   -3.2878    0.5282   -0.7002 C   0  0  0  0  0  0  0  0  0  0  0  0
   -3.7941    1.2369   -1.7645 C   0  0  0  0  0  0  0  0  0  0  0  0
   -5.1702    1.4742   -1.8914 C   0  0  0  0  0  0  0  0  0  0  0  0
   -6.0586    1.0099   -0.9619 C   0  0  0  0  0  0  0  0  0  0  0  0
   -5.5594    0.3032    0.1006 C   0  0  0  0  0  0  0  0  0  0  0  0
   -6.2545   -0.2359    1.1158 N   0  0  0  0  0  0  0  0  0  0  0  0
   -5.3787   -0.8328    1.9266 C   0  0  0  0  0  0  0  0  0  0  0  0
   -4.0945   -0.6583    1.3966 C   0  0  0  0  0  0  0  0  0  0  0  0
   -4.1969    0.0604    0.2389 C   0  0  0  0  0  0  0  0  0  0  0  0
    5.5594    1.5679    1.7205 H   0  0  0  0  0  0  0  0  0  0  0  0
    5.1573    1.7257   -0.0660 H   0  0  0  0  0  0  0  0  0  0  0  0
    6.6753    0.9751    0.4613 H   0  0  0  0  0  0  0  0  0  0  0  0
    4.1841   -0.6321    2.6872 H   0  0  0  0  0  0  0  0  0  0  0  0
    3.4550    0.7423    1.7564 H   0  0  0  0  0  0  0  0  0  0  0  0
    2.2842   -1.8279    1.6798 H   0  0  0  0  0  0  0  0  0  0  0  0
    4.5886   -2.6263    0.8570 H   0  0  0  0  0  0  0  0  0  0  0  0
    3.3938   -2.6623   -0.5575 H   0  0  0  0  0  0  0  0  0  0  0  0
    5.3129   -1.0509   -1.1299 H   0  0  0  0  0  0  0  0  0  0  0  0
    3.1429   -0.3740   -1.9720 H   0  0  0  0  0  0  0  0  0  0  0  0
    3.4177    0.9849   -0.8317 H   0  0  0  0  0  0  0  0  0  0  0  0
    1.1143    0.8227   -2.0200 H   0  0  0  0  0  0  0  0  0  0  0  0
   -1.2556    1.3105   -2.3681 H   0  0  0  0  0  0  0  0  0  0  0  0
   -3.1202    1.6183   -2.5173 H   0  0  0  0  0  0  0  0  0  0  0  0
   -5.5301    2.0341   -2.7399 H   0  0  0  0  0  0  0  0  0  0  0  0
   -7.1189    1.2014   -1.0737 H   0  0  0  0  0  0  0  0  0  0  0  0
   -7.2847   -0.2161    1.2793 H   0  0  0  0  0  0  0  0  0  0  0  0
   -5.5404   -1.3757    2.8466 H   0  0  0  0  0  0  0  0  0  0  0  0
   -3.1900   -1.0288    1.8312 H   0  0  0  0  0  0  0  0  0  0  0  0
  1  2  1  0
  2  3  1  0
  3  4  1  0
  4  5  1  0
  5  6  1  0
  6  7  1  0
  7  8  1  0
  8  9  1  0
  9 10  2  0
 10 11  1  0
 11 12  2  0
 12 13  1  0
 13 14  2  0
 12 15  1  0
 15 16  1  0
 16 17  2  0
 17 18  1  0
 18 19  2  0
 19 20  1  0
 20 21  1  0
 21 22  2  0
 22 23  1  0
  6  2  1  0
 14  9  1  0
 23 15  2  0
  8  4  1  0
 23 19  1  0
  1 24  1  0
  1 25  1  0
  1 26  1  0
  3 27  1  0
  3 28  1  0
  4 29  1  1
  5 30  1  0
  5 31  1  0
  6 32  1  6
  7 33  1  0
  7 34  1  0
 10 35  1  0
 11 36  1  0
 16 37  1  0
 17 38  1  0
 18 39  1  0
 20 40  1  0
 21 41  1  0
 22 42  1  0
M  END
$$$$
[H]c1nc(Oc2c([H])c([H])c(N([H])C(=O)N([H])c3c([H])c([H])c(C([H])([H])N4C([H])([H])C([H])([H])N(C([H])([H])C([H])([H])[H])C([H])([H])C4([H])[H])c(C(F)(F)F)c3[H])c([H])c2[H])c([H])c(N([H])C([H])([H])[H])n1
     RDKit          3D

 68 71  0  0  0  0  0  0  0  0999 V2000
  -10.2990   -0.3201   -0.2443 C   0  0  0  0  0  0  0  0  0  0  0  0
   -9.0487    0.5002   -0.4280 C   0  0  0  0  0  0  0  0  0  0  0  0
   -8.1793   -0.0359   -1.4572 N   0  0  0  0  0  0  0  0  0  0  0  0
   -7.0305    0.8062   -1.5517 C   0  0  0  0  0  0  0  0  0  0  0  0
   -5.7154    0.1130   -1.2911 C   0  0  0  0  0  0  0  0  0  0  0  0
   -5.7379   -0.8228   -0.2229 N   0  0  0  0  0  0  0  0  0  0  0  0
   -5.1553   -0.4373    1.0060 C   0  0  0  0  0  0  0  0  0  0  0  0
   -3.7153   -0.2169    1.0542 C   0  0  0  0  0  0  0  0  0  0  0  0
   -2.9459   -0.4458   -0.0457 C   0  0  0  0  0  0  0  0  0  0  0  0
   -1.5554   -0.2549    0.0222 C   0  0  0  0  0  0  0  0  0  0  0  0
   -0.9188    0.1543    1.1522 C   0  0  0  0  0  0  0  0  0  0  0  0
    0.4451    0.3547    1.3623 N   0  0  0  0  0  0  0  0  0  0  0  0
    1.4499   -0.2261    0.5465 C   0  0  0  0  0  0  0  0  0  0  0  0
    1.1958   -0.9699   -0.4220 O   0  0  0  0  0  0  0  0  0  0  0  0
    2.8063    0.0526    0.8476 N   0  0  0  0  0  0  0  0  0  0  0  0
    3.8841   -0.4730    0.1219 C   0  0  0  0  0  0  0  0  0  0  0  0
    5.0696    0.2695    0.1595 C   0  0  0  0  0  0  0  0  0  0  0  0
    6.1724   -0.1959   -0.5017 C   0  0  0  0  0  0  0  0  0  0  0  0
    6.1984   -1.3743   -1.2203 C   0  0  0  0  0  0  0  0  0  0  0  0
    7.3559   -1.8175   -1.8874 O   0  0  0  0  0  0  0  0  0  0  0  0
    8.4788   -0.9936   -1.7796 C   0  0  0  0  0  0  0  0  0  0  0  0
    9.3306   -1.0781   -0.6992 C   0  0  0  0  0  0  0  0  0  0  0  0
   10.4383   -0.2312   -0.6411 C   0  0  0  0  0  0  0  0  0  0  0  0
   11.3426   -0.2777    0.4449 N   0  0  0  0  0  0  0  0  0  0  0  0
   12.4721    0.6190    0.4560 C   0  0  0  0  0  0  0  0  0  0  0  0
   10.6148    0.6290   -1.6528 N   0  0  0  0  0  0  0  0  0  0  0  0
    9.7904    0.7181   -2.7086 C   0  0  0  0  0  0  0  0  0  0  0  0
    8.7293   -0.1014   -2.7527 N   0  0  0  0  0  0  0  0  0  0  0  0
    5.0337   -2.0940   -1.2508 C   0  0  0  0  0  0  0  0  0  0  0  0
    3.8935   -1.6380   -0.5818 C   0  0  0  0  0  0  0  0  0  0  0  0
   -1.7503    0.3770    2.2572 C   0  0  0  0  0  0  0  0  0  0  0  0
   -3.1090    0.2069    2.2445 C   0  0  0  0  0  0  0  0  0  0  0  0
   -3.9076    0.4692    3.4596 C   0  0  0  0  0  0  0  0  0  0  0  0
   -3.0267    0.8724    4.4765 F   0  0  0  0  0  0  0  0  0  0  0  0
   -4.5531   -0.6222    3.9660 F   0  0  0  0  0  0  0  0  0  0  0  0
   -4.7451    1.5847    3.3219 F   0  0  0  0  0  0  0  0  0  0  0  0
   -6.9874   -1.4884    0.0062 C   0  0  0  0  0  0  0  0  0  0  0  0
   -7.8513   -1.4181   -1.2341 C   0  0  0  0  0  0  0  0  0  0  0  0
  -10.0056   -1.2236    0.3376 H   0  0  0  0  0  0  0  0  0  0  0  0
  -11.0156    0.2828    0.3494 H   0  0  0  0  0  0  0  0  0  0  0  0
  -10.7451   -0.5533   -1.2099 H   0  0  0  0  0  0  0  0  0  0  0  0
   -9.3902    1.5064   -0.7967 H   0  0  0  0  0  0  0  0  0  0  0  0
   -8.5282    0.6942    0.5188 H   0  0  0  0  0  0  0  0  0  0  0  0
   -6.9427    1.2787   -2.5729 H   0  0  0  0  0  0  0  0  0  0  0  0
   -7.0852    1.6803   -0.8419 H   0  0  0  0  0  0  0  0  0  0  0  0
   -5.3787   -0.3639   -2.2424 H   0  0  0  0  0  0  0  0  0  0  0  0
   -4.9782    0.9378   -1.0987 H   0  0  0  0  0  0  0  0  0  0  0  0
   -5.3596   -1.2873    1.7313 H   0  0  0  0  0  0  0  0  0  0  0  0
   -5.7610    0.3966    1.4141 H   0  0  0  0  0  0  0  0  0  0  0  0
   -3.3300   -0.7898   -1.0118 H   0  0  0  0  0  0  0  0  0  0  0  0
   -0.9627   -0.4277   -0.8741 H   0  0  0  0  0  0  0  0  0  0  0  0
    0.7597    0.9698    2.1611 H   0  0  0  0  0  0  0  0  0  0  0  0
    3.0013    0.6928    1.6707 H   0  0  0  0  0  0  0  0  0  0  0  0
    5.0877    1.2125    0.7209 H   0  0  0  0  0  0  0  0  0  0  0  0
    7.0847    0.3965   -0.4601 H   0  0  0  0  0  0  0  0  0  0  0  0
    9.1416   -1.7902    0.0899 H   0  0  0  0  0  0  0  0  0  0  0  0
   11.2010   -0.9471    1.2284 H   0  0  0  0  0  0  0  0  0  0  0  0
   12.6067    1.1140   -0.5277 H   0  0  0  0  0  0  0  0  0  0  0  0
   13.4237    0.0623    0.6491 H   0  0  0  0  0  0  0  0  0  0  0  0
   12.3043    1.3858    1.2464 H   0  0  0  0  0  0  0  0  0  0  0  0
    9.9776    1.4417   -3.5159 H   0  0  0  0  0  0  0  0  0  0  0  0
    5.0003   -3.0327   -1.8043 H   0  0  0  0  0  0  0  0  0  0  0  0
    3.0130   -2.2945   -0.6480 H   0  0  0  0  0  0  0  0  0  0  0  0
   -1.3081    0.7006    3.1773 H   0  0  0  0  0  0  0  0  0  0  0  0
   -7.5417   -1.0573    0.8567 H   0  0  0  0  0  0  0  0  0  0  0  0
   -6.7530   -2.5420    0.2777 H   0  0  0  0  0  0  0  0  0  0  0  0
   -7.2335   -1.7544   -2.0856 H   0  0  0  0  0  0  0  0  0  0  0  0
   -8.7522   -2.0077   -1.0717 H   0  0  0  0  0  0  0  0  0  0  0  0
  1  2  1  0
  2  3  1  0
  3  4  1  0
  4  5  1  0
  5  6  1  0
  6  7  1  0
  7  8  1  0
  8  9  2  0
  9 10  1  0
 10 11  2  0
 11 12  1  0
 12 13  1  0
 13 14  2  0
 13 15  1  0
 15 16  1  0
 16 17  2  0
 17 18  1  0
 18 19  2  0
 19 20  1  0
 20 21  1  0
 21 22  2  0
 22 23  1  0
 23 24  1  0
 24 25  1  0
 23 26  2  0
 26 27  1  0
 27 28  2  0
 19 29  1  0
 29 30  2  0
 11 31  1  0
 31 32  2  0
 32 33  1  0
 33 34  1  0
 33 35  1  0
 33 36  1  0
  6 37  1  0
 37 38  1  0
 38  3  1  0
 32  8  1  0
 30 16  1  0
 28 21  1  0
  1 39  1  0
  1 40  1  0
  1 41  1  0
  2 42  1  0
  2 43  1  0
  4 44  1  0
  4 45  1  0
  5 46  1  0
  5 47  1  0
  7 48  1  0
  7 49  1  0
  9 50  1  0
 10 51  1  0
 12 52  1  0
 15 53  1  0
 17 54  1  0
 18 55  1  0
 22 56  1  0
 24 57  1  0
 25 58  1  0
 25 59  1  0
 25 60  1  0
 27 61  1  0
 29 62  1  0
 30 63  1  0
 31 64  1  0
 37 65  1  0
 37 66  1  0
 38 67  1  0
 38 68  1  0
M  END
$$$$
[H]C#C[C@]1(O[H])C([H])([H])C([H])([H])C2([H])C3([H])C([H])([H])C([H])([H])c4c([H])c(O[H])c([H])c([H])c4C3([H])C([H])([H])C([H])([H])[C@@]21C([H])([H])[H]
     RDKit          3D

 46 49  0  0  0  0  0  0  0  0999 V2000
    2.0404   -2.3652   -0.0362 C   0  0  0  0  0  0  0  0  0  0  0  0
    1.8627   -0.8498    0.1335 C   0  0  2  0  0  0  0  0  0  0  0  0
    1.0658   -0.6617    1.3957 C   0  0  0  0  0  0  0  0  0  0  0  0
   -0.3430   -1.1510    1.1789 C   0  0  0  0  0  0  0  0  0  0  0  0
   -0.9191   -0.7904   -0.1407 C   0  0  0  0  0  0  0  0  0  0  0  0
   -0.1443    0.2653   -0.8934 C   0  0  0  0  0  0  0  0  0  0  0  0
   -0.2778    1.6282   -0.3316 C   0  0  0  0  0  0  0  0  0  0  0  0
   -1.4317    1.7879    0.6410 C   0  0  0  0  0  0  0  0  0  0  0  0
   -2.5906    0.9255    0.3010 C   0  0  0  0  0  0  0  0  0  0  0  0
   -3.8682    1.4107    0.3786 C   0  0  0  0  0  0  0  0  0  0  0  0
   -4.9470    0.6106    0.0636 C   0  0  0  0  0  0  0  0  0  0  0  0
   -6.2643    1.0739    0.1321 O   0  0  0  0  0  0  0  0  0  0  0  0
   -4.6623   -0.6851   -0.3273 C   0  0  0  0  0  0  0  0  0  0  0  0
   -3.3835   -1.1841   -0.4093 C   0  0  0  0  0  0  0  0  0  0  0  0
   -2.3389   -0.3521   -0.0862 C   0  0  0  0  0  0  0  0  0  0  0  0
    1.2528   -0.2284   -1.0755 C   0  0  0  0  0  0  0  0  0  0  0  0
    2.2168    0.7990   -1.5808 C   0  0  0  0  0  0  0  0  0  0  0  0
    3.5478    0.1987   -1.1672 C   0  0  0  0  0  0  0  0  0  0  0  0
    3.2468   -0.2735    0.2383 C   0  0  2  0  0  0  0  0  0  0  0  0
    4.1835   -1.2448    0.6481 O   0  0  0  0  0  0  0  0  0  0  0  0
    3.3414    0.8071    1.2196 C   0  0  0  0  0  0  0  0  0  0  0  0
    3.4273    1.7071    2.0177 C   0  0  0  0  0  0  0  0  0  0  0  0
    1.0838   -2.9010    0.0660 H   0  0  0  0  0  0  0  0  0  0  0  0
    2.7502   -2.7809    0.6766 H   0  0  0  0  0  0  0  0  0  0  0  0
    2.4546   -2.4828   -1.0743 H   0  0  0  0  0  0  0  0  0  0  0  0
    1.5200   -1.3663    2.1543 H   0  0  0  0  0  0  0  0  0  0  0  0
    1.1367    0.3328    1.8371 H   0  0  0  0  0  0  0  0  0  0  0  0
   -0.4043   -2.2717    1.3113 H   0  0  0  0  0  0  0  0  0  0  0  0
   -0.9783   -0.7485    2.0061 H   0  0  0  0  0  0  0  0  0  0  0  0
   -0.9152   -1.7018   -0.8080 H   0  0  0  0  0  0  0  0  0  0  0  0
   -0.6138    0.2838   -1.9244 H   0  0  0  0  0  0  0  0  0  0  0  0
   -0.4633    2.3916   -1.1452 H   0  0  0  0  0  0  0  0  0  0  0  0
    0.6142    2.0104    0.2053 H   0  0  0  0  0  0  0  0  0  0  0  0
   -1.7905    2.8377    0.6200 H   0  0  0  0  0  0  0  0  0  0  0  0
   -1.0921    1.6283    1.7070 H   0  0  0  0  0  0  0  0  0  0  0  0
   -4.0986    2.4385    0.6885 H   0  0  0  0  0  0  0  0  0  0  0  0
   -6.6244    1.4927   -0.7180 H   0  0  0  0  0  0  0  0  0  0  0  0
   -5.4992   -1.3281   -0.5788 H   0  0  0  0  0  0  0  0  0  0  0  0
   -3.1697   -2.2064   -0.7184 H   0  0  0  0  0  0  0  0  0  0  0  0
    1.2101   -1.0323   -1.8707 H   0  0  0  0  0  0  0  0  0  0  0  0
    2.0885    1.8025   -1.1844 H   0  0  0  0  0  0  0  0  0  0  0  0
    2.1948    0.8136   -2.7101 H   0  0  0  0  0  0  0  0  0  0  0  0
    4.3679    0.9343   -1.2103 H   0  0  0  0  0  0  0  0  0  0  0  0
    3.7117   -0.6913   -1.7982 H   0  0  0  0  0  0  0  0  0  0  0  0
    3.9810   -1.3941    1.6148 H   0  0  0  0  0  0  0  0  0  0  0  0
    3.5211    2.5110    2.7229 H   0  0  0  0  0  0  0  0  0  0  0  0
  2  1  1  6
  2  3  1  0
  3  4  1  0
  4  5  1  0
  5  6  1  0
  6  7  1  0
  7  8  1  0
  8  9  1  0
  9 10  2  0
 10 11  1  0
 11 12  1  0
 11 13  2  0
 13 14  1  0
 14 15  2  0
  6 16  1  0
 16 17  1  0
 17 18  1  0
 18 19  1  0
 19 20  1  0
 19 21  1  1
 21 22  3  0
 16  2  1  0
 19  2  1  0
 15  5  1  0
 15  9  1  0
  1 23  1  0
  1 24  1  0
  1 25  1  0
  3 26  1  0
  3 27  1  0
  4 28  1  0
  4 29  1  0
  5 30  1  0
  6 31  1  0
  7 32  1  0
  7 33  1  0
  8 34  1  0
  8 35  1  0
 10 36  1  0
 12 37  1  0
 13 38  1  0
 14 39  1  0
 16 40  1  0
 17 41  1  0
 17 42  1  0
 18 43  1  0
 18 44  1  0
 20 45  1  0
 22 46  1  0
M  END
$$$$
[H]c1nc2c(c([H])c([H])n2[H])c(-c2c([H])c([H])c(S(=O)(=O)N([H])[H])c([H])c2[H])c1[H]
     RDKit          3D

 30 32  0  0  0  0  0  0  0  0999 V2000
    5.2782   -0.4059    0.9564 N   0  0  0  0  0  0  0  0  0  0  0  0
    4.2776   -1.0233   -0.2786 S   0  0  0  0  0  0  0  0  0  0  0  0
    4.2593   -2.5388   -0.1558 O   0  0  0  0  0  0  0  0  0  0  0  0
    4.8902   -0.6945   -1.6054 O   0  0  0  0  0  0  0  0  0  0  0  0
    2.6382   -0.4773   -0.1619 C   0  0  0  0  0  0  0  0  0  0  0  0
    1.7206   -1.2047    0.5718 C   0  0  0  0  0  0  0  0  0  0  0  0
    0.4090   -0.7938    0.6819 C   0  0  0  0  0  0  0  0  0  0  0  0
   -0.0207    0.3590    0.0589 C   0  0  0  0  0  0  0  0  0  0  0  0
    0.8816    1.0977   -0.6776 C   0  0  0  0  0  0  0  0  0  0  0  0
    2.2022    0.6884   -0.7913 C   0  0  0  0  0  0  0  0  0  0  0  0
   -1.3882    0.8413    0.1300 C   0  0  0  0  0  0  0  0  0  0  0  0
   -1.7083    2.1475    0.4428 C   0  0  0  0  0  0  0  0  0  0  0  0
   -3.0171    2.5665    0.5112 C   0  0  0  0  0  0  0  0  0  0  0  0
   -3.9961    1.6792    0.2670 N   0  0  0  0  0  0  0  0  0  0  0  0
   -3.7492    0.3868   -0.0446 C   0  0  0  0  0  0  0  0  0  0  0  0
   -4.5210   -0.6768   -0.3303 N   0  0  0  0  0  0  0  0  0  0  0  0
   -3.7944   -1.7665   -0.5819 C   0  0  0  0  0  0  0  0  0  0  0  0
   -2.4619   -1.3624   -0.4452 C   0  0  0  0  0  0  0  0  0  0  0  0
   -2.4165   -0.0318   -0.1123 C   0  0  0  0  0  0  0  0  0  0  0  0
    5.8990    0.3365    0.5731 H   0  0  0  0  0  0  0  0  0  0  0  0
    4.6697    0.0890    1.6745 H   0  0  0  0  0  0  0  0  0  0  0  0
    2.0752   -2.1062    1.0535 H   0  0  0  0  0  0  0  0  0  0  0  0
   -0.2737   -1.3904    1.2701 H   0  0  0  0  0  0  0  0  0  0  0  0
    0.6100    2.0146   -1.1931 H   0  0  0  0  0  0  0  0  0  0  0  0
    2.9020    1.2584   -1.3606 H   0  0  0  0  0  0  0  0  0  0  0  0
   -0.8722    2.8276    0.6322 H   0  0  0  0  0  0  0  0  0  0  0  0
   -3.2254    3.6123    0.7630 H   0  0  0  0  0  0  0  0  0  0  0  0
   -5.5618   -0.6418   -0.3497 H   0  0  0  0  0  0  0  0  0  0  0  0
   -4.0964   -2.7771   -0.8417 H   0  0  0  0  0  0  0  0  0  0  0  0
   -1.6098   -2.0135   -0.5877 H   0  0  0  0  0  0  0  0  0  0  0  0
  1  2  1  0
  2  3  2  0
  2  4  2  0
  2  5  1  0
  5  6  2  0
  6  7  1  0
  7  8  2  0
  8  9  1  0
  9 10  2  0
  8 11  1  0
 11 12  2  0
 12 13  1  0
 13 14  2  0
 14 15  1  0
 15 16  1  0
 16 17  1  0
 17 18  2  0
 18 19  1  0
 10  5  1  0
 19 11  1  0
 19 15  2  0
  1 20  1  0
  1 21  1  0
  6 22  1  0
  7 23  1  0
  9 24  1  0
 10 25  1  0
 12 26  1  0
 13 27  1  0
 16 28  1  0
 17 29  1  0
 18 30  1  0
M  END
$$$$
[H]c1nc2c([H])c(OC([H])([H])C([H])([H])C([H])([H])N3C([H])([H])C([H])([H])OC([H])([H])C3([H])[H])c(OC([H])([H])[H])c([H])c2c(Oc2c([H])c([H])c(N([H])C(=O)C3(C(=O)N([H])c4c([H])c([H])c(F)c([H])c4[H])C([H])([H])C3([H])[H])c([H])c2F)c1[H]
     RDKit          3D

 80 85  0  0  0  0  0  0  0  0999 V2000
   -3.8348   -0.7830   -2.5268 C   0  0  0  0  0  0  0  0  0  0  0  0
   -4.4085   -0.0831   -1.4692 O   0  0  0  0  0  0  0  0  0  0  0  0
   -3.7050    0.3915   -0.3940 C   0  0  0  0  0  0  0  0  0  0  0  0
   -2.3426    0.2299   -0.2625 C   0  0  0  0  0  0  0  0  0  0  0  0
   -1.6750    0.7344    0.8625 C   0  0  0  0  0  0  0  0  0  0  0  0
   -0.2898    0.5501    0.9662 C   0  0  0  0  0  0  0  0  0  0  0  0
    0.3435   -0.1256   -0.0602 O   0  0  0  0  0  0  0  0  0  0  0  0
    1.7161   -0.3803   -0.1332 C   0  0  0  0  0  0  0  0  0  0  0  0
    2.1597   -1.6934   -0.1033 C   0  0  0  0  0  0  0  0  0  0  0  0
    3.5189   -2.0068   -0.1774 C   0  0  0  0  0  0  0  0  0  0  0  0
    4.4887   -1.0391   -0.2815 C   0  0  0  0  0  0  0  0  0  0  0  0
    5.8792   -1.3421   -0.3734 N   0  0  0  0  0  0  0  0  0  0  0  0
    6.4824   -2.5462    0.0493 C   0  0  0  0  0  0  0  0  0  0  0  0
    5.8571   -3.4761    0.5938 O   0  0  0  0  0  0  0  0  0  0  0  0
    7.9663   -2.7108   -0.2057 C   0  0  0  0  0  0  0  0  0  0  0  0
    8.3768   -4.0792   -0.7264 C   0  0  0  0  0  0  0  0  0  0  0  0
    8.5635   -3.7277    0.7383 C   0  0  0  0  0  0  0  0  0  0  0  0
    8.7412   -1.5075   -0.5379 C   0  0  0  0  0  0  0  0  0  0  0  0
    9.2658   -1.4618   -1.7261 O   0  0  0  0  0  0  0  0  0  0  0  0
    8.9847   -0.4096    0.2987 N   0  0  0  0  0  0  0  0  0  0  0  0
    9.7265    0.7540   -0.0941 C   0  0  0  0  0  0  0  0  0  0  0  0
   10.8357    1.1147    0.5958 C   0  0  0  0  0  0  0  0  0  0  0  0
   11.5248    2.2599    0.2548 C   0  0  0  0  0  0  0  0  0  0  0  0
   11.0639    3.0368   -0.8057 C   0  0  0  0  0  0  0  0  0  0  0  0
   11.7002    4.1760   -1.1980 F   0  0  0  0  0  0  0  0  0  0  0  0
    9.9259    2.6771   -1.5228 C   0  0  0  0  0  0  0  0  0  0  0  0
    9.2822    1.5333   -1.1426 C   0  0  0  0  0  0  0  0  0  0  0  0
    4.0405    0.2679   -0.3104 C   0  0  0  0  0  0  0  0  0  0  0  0
    2.6818    0.5942   -0.2385 C   0  0  0  0  0  0  0  0  0  0  0  0
    2.2895    1.9005   -0.2942 F   0  0  0  0  0  0  0  0  0  0  0  0
    0.3644    1.0374    2.0620 C   0  0  0  0  0  0  0  0  0  0  0  0
   -0.3737    1.7049    3.0395 C   0  0  0  0  0  0  0  0  0  0  0  0
   -1.7048    1.8658    2.9116 N   0  0  0  0  0  0  0  0  0  0  0  0
   -2.3620    1.3966    1.8519 C   0  0  0  0  0  0  0  0  0  0  0  0
   -3.7219    1.5655    1.7321 C   0  0  0  0  0  0  0  0  0  0  0  0
   -4.3695    1.0741    0.6362 C   0  0  0  0  0  0  0  0  0  0  0  0
   -5.7174    1.2662    0.5493 O   0  0  0  0  0  0  0  0  0  0  0  0
   -6.4811    1.9426    1.5276 C   0  0  0  0  0  0  0  0  0  0  0  0
   -7.9347    2.0328    1.1448 C   0  0  0  0  0  0  0  0  0  0  0  0
   -8.4979    0.6486    1.0445 C   0  0  0  0  0  0  0  0  0  0  0  0
   -9.9036    0.6228    0.6831 N   0  0  0  0  0  0  0  0  0  0  0  0
  -10.3079   -0.7910    0.8619 C   0  0  0  0  0  0  0  0  0  0  0  0
  -11.6524   -1.0829    0.2872 C   0  0  0  0  0  0  0  0  0  0  0  0
  -11.9057   -0.4129   -0.9237 O   0  0  0  0  0  0  0  0  0  0  0  0
  -10.6875   -0.1604   -1.5210 C   0  0  0  0  0  0  0  0  0  0  0  0
   -9.9805    0.9527   -0.7449 C   0  0  0  0  0  0  0  0  0  0  0  0
   -3.5752   -1.8606   -2.2552 H   0  0  0  0  0  0  0  0  0  0  0  0
   -4.5499   -0.8738   -3.3932 H   0  0  0  0  0  0  0  0  0  0  0  0
   -2.9103   -0.3554   -2.9443 H   0  0  0  0  0  0  0  0  0  0  0  0
   -1.7881   -0.2915   -1.0522 H   0  0  0  0  0  0  0  0  0  0  0  0
    1.4435   -2.4997   -0.0192 H   0  0  0  0  0  0  0  0  0  0  0  0
    3.8115   -3.0467   -0.1742 H   0  0  0  0  0  0  0  0  0  0  0  0
    6.5102   -0.6145   -0.7952 H   0  0  0  0  0  0  0  0  0  0  0  0
    9.3550   -4.1910   -1.2604 H   0  0  0  0  0  0  0  0  0  0  0  0
    7.5489   -4.7822   -0.9962 H   0  0  0  0  0  0  0  0  0  0  0  0
    7.9285   -4.2048    1.5021 H   0  0  0  0  0  0  0  0  0  0  0  0
    9.5761   -3.4402    1.0968 H   0  0  0  0  0  0  0  0  0  0  0  0
    8.6269   -0.4382    1.3024 H   0  0  0  0  0  0  0  0  0  0  0  0
   11.2158    0.5228    1.4404 H   0  0  0  0  0  0  0  0  0  0  0  0
   12.4267    2.5904    0.7817 H   0  0  0  0  0  0  0  0  0  0  0  0
    9.5578    3.2991   -2.3588 H   0  0  0  0  0  0  0  0  0  0  0  0
    8.3940    1.2002   -1.6567 H   0  0  0  0  0  0  0  0  0  0  0  0
    4.7885    1.0431   -0.3850 H   0  0  0  0  0  0  0  0  0  0  0  0
    1.4077    0.9219    2.2023 H   0  0  0  0  0  0  0  0  0  0  0  0
    0.1267    2.1033    3.9130 H   0  0  0  0  0  0  0  0  0  0  0  0
   -4.2450    2.0957    2.5441 H   0  0  0  0  0  0  0  0  0  0  0  0
   -6.0816    2.9259    1.7614 H   0  0  0  0  0  0  0  0  0  0  0  0
   -6.4223    1.2583    2.4406 H   0  0  0  0  0  0  0  0  0  0  0  0
   -8.0945    2.6326    0.2433 H   0  0  0  0  0  0  0  0  0  0  0  0
   -8.4948    2.5991    1.9539 H   0  0  0  0  0  0  0  0  0  0  0  0
   -7.8870    0.1130    0.2654 H   0  0  0  0  0  0  0  0  0  0  0  0
   -8.3089    0.1370    2.0005 H   0  0  0  0  0  0  0  0  0  0  0  0
   -9.4878   -1.3997    0.4459 H   0  0  0  0  0  0  0  0  0  0  0  0
  -10.2930   -0.9120    1.9864 H   0  0  0  0  0  0  0  0  0  0  0  0
  -11.6772   -2.1790    0.0299 H   0  0  0  0  0  0  0  0  0  0  0  0
  -12.4398   -0.9525    1.0381 H   0  0  0  0  0  0  0  0  0  0  0  0
  -10.0219   -1.0279   -1.4792 H   0  0  0  0  0  0  0  0  0  0  0  0
  -10.8743    0.1453   -2.5500 H   0  0  0  0  0  0  0  0  0  0  0  0
  -10.5228    1.8993   -0.8854 H   0  0  0  0  0  0  0  0  0  0  0  0
   -8.9666    1.0724   -1.1712 H   0  0  0  0  0  0  0  0  0  0  0  0
  1  2  1  0
  2  3  1  0
  3  4  2  0
  4  5  1  0
  5  6  2  0
  6  7  1  0
  7  8  1  0
  8  9  2  0
  9 10  1  0
 10 11  2  0
 11 12  1  0
 12 13  1  0
 13 14  2  0
 13 15  1  0
 15 16  1  0
 16 17  1  0
 15 18  1  0
 18 19  2  0
 18 20  1  0
 20 21  1  0
 21 22  2  0
 22 23  1  0
 23 24  2  0
 24 25  1  0
 24 26  1  0
 26 27  2  0
 11 28  1  0
 28 29  2  0
 29 30  1  0
  6 31  1  0
 31 32  2  0
 32 33  1  0
 33 34  2  0
 34 35  1  0
 35 36  2  0
 36 37  1  0
 37 38  1  0
 38 39  1  0
 39 40  1  0
 40 41  1  0
 41 42  1  0
 42 43  1  0
 43 44  1  0
 44 45  1  0
 45 46  1  0
 36  3  1  0
 46 41  1  0
 34  5  1  0
 29  8  1  0
 17 15  1  0
 27 21  1  0
  1 47  1  0
  1 48  1  0
  1 49  1  0
  4 50  1  0
  9 51  1  0
 10 52  1  0
 12 53  1  0
 16 54  1  0
 16 55  1  0
 17 56  1  0
 17 57  1  0
 20 58  1  0
 22 59  1  0
 23 60  1  0
 26 61  1  0
 27 62  1  0
 28 63  1  0
 31 64  1  0
 32 65  1  0
 35 66  1  0
 38 67  1  0
 38 68  1  0
 39 69  1  0
 39 70  1  0
 40 71  1  0
 40 72  1  0
 42 73  1  0
 42 74  1  0
 43 75  1  0
 43 76  1  0
 45 77  1  0
 45 78  1  0
 46 79  1  0
 46 80  1  0
M  END
$$$$
[H]N=C(N([H])[H])N([H])C([H])([H])C([H])([H])C([H])([H])[C@]([H])(C([H])=O)N([H])C(=O)[C@@]1([H])N(C(=O)[C@@]([H])(N([H])S(=O)(=O)C([H])([H])c2c([H])c([H])c([H])c([H])c2[H])C([H])([H])c2c([H])c([H])c([H])c([H])c2[H])C([H])([H])C([H])([H])C1([H])[H]
     RDKit          3D

 75 77  0  0  0  0  0  0  0  0999 V2000
    9.4312    0.7388    1.2838 N   0  0  0  0  0  0  0  0  0  0  0  0
    8.7546    1.3815    0.1943 C   0  0  0  0  0  0  0  0  0  0  0  0
    9.3244    1.4001   -0.9808 N   0  0  0  0  0  0  0  0  0  0  0  0
    7.4869    2.0018    0.3325 N   0  0  0  0  0  0  0  0  0  0  0  0
    6.4148    1.3827    1.0784 C   0  0  0  0  0  0  0  0  0  0  0  0
    5.1521    2.2245    1.0380 C   0  0  0  0  0  0  0  0  0  0  0  0
    4.6779    2.3777   -0.3730 C   0  0  0  0  0  0  0  0  0  0  0  0
    3.4073    3.2287   -0.4781 C   0  0  1  0  0  0  0  0  0  0  0  0
    2.3438    2.6432    0.2876 N   0  0  0  0  0  0  0  0  0  0  0  0
    1.3307    1.8123   -0.2797 C   0  0  0  0  0  0  0  0  0  0  0  0
    1.4063    1.5920   -1.5157 O   0  0  0  0  0  0  0  0  0  0  0  0
    0.2558    1.2512    0.5753 C   0  0  2  0  0  0  0  0  0  0  0  0
    0.9107    0.5432    1.7711 C   0  0  0  0  0  0  0  0  0  0  0  0
    1.1933   -0.8394    1.2226 C   0  0  0  0  0  0  0  0  0  0  0  0
    0.4585   -0.9396   -0.0941 C   0  0  0  0  0  0  0  0  0  0  0  0
   -0.4825    0.1685   -0.0186 N   0  0  0  0  0  0  0  0  0  0  0  0
   -1.8452    0.1938   -0.4202 C   0  0  0  0  0  0  0  0  0  0  0  0
   -2.4818    1.2534   -0.2619 O   0  0  0  0  0  0  0  0  0  0  0  0
   -2.5578   -0.9720   -1.0128 C   0  0  2  0  0  0  0  0  0  0  0  0
   -1.9877   -1.2269   -2.4208 C   0  0  0  0  0  0  0  0  0  0  0  0
   -2.6475   -2.3676   -3.0685 C   0  0  0  0  0  0  0  0  0  0  0  0
   -3.7933   -2.2065   -3.8604 C   0  0  0  0  0  0  0  0  0  0  0  0
   -4.3819   -3.2979   -4.4558 C   0  0  0  0  0  0  0  0  0  0  0  0
   -3.8748   -4.5622   -4.2969 C   0  0  0  0  0  0  0  0  0  0  0  0
   -2.7440   -4.7311   -3.5176 C   0  0  0  0  0  0  0  0  0  0  0  0
   -2.1514   -3.6409   -2.9194 C   0  0  0  0  0  0  0  0  0  0  0  0
   -3.9751   -0.8297   -1.0624 N   0  0  0  0  0  0  0  0  0  0  0  0
   -4.9351   -1.8953   -0.2118 S   0  0  0  0  0  0  0  0  0  0  0  0
   -4.9479   -3.3176   -0.6689 O   0  0  0  0  0  0  0  0  0  0  0  0
   -6.3951   -1.4276   -0.4546 O   0  0  0  0  0  0  0  0  0  0  0  0
   -4.7841   -1.9267    1.5465 C   0  0  0  0  0  0  0  0  0  0  0  0
   -5.2045   -0.6994    2.2298 C   0  0  0  0  0  0  0  0  0  0  0  0
   -6.5609   -0.5274    2.5821 C   0  0  0  0  0  0  0  0  0  0  0  0
   -6.9799    0.6074    3.2301 C   0  0  0  0  0  0  0  0  0  0  0  0
   -6.0914    1.6154    3.5584 C   0  0  0  0  0  0  0  0  0  0  0  0
   -4.7760    1.4540    3.2201 C   0  0  0  0  0  0  0  0  0  0  0  0
   -4.3690    0.3151    2.5725 C   0  0  0  0  0  0  0  0  0  0  0  0
    3.6704    4.6271   -0.1571 C   0  0  0  0  0  0  0  0  0  0  0  0
    3.0222    5.2286    0.7028 O   0  0  0  0  0  0  0  0  0  0  0  0
    9.4715   -0.3092    1.2977 H   0  0  0  0  0  0  0  0  0  0  0  0
    9.8624    1.3318    2.0283 H   0  0  0  0  0  0  0  0  0  0  0  0
    8.8533    1.8583   -1.7774 H   0  0  0  0  0  0  0  0  0  0  0  0
    7.2875    2.9462   -0.1045 H   0  0  0  0  0  0  0  0  0  0  0  0
    6.2365    0.3618    0.6948 H   0  0  0  0  0  0  0  0  0  0  0  0
    6.7409    1.2672    2.1264 H   0  0  0  0  0  0  0  0  0  0  0  0
    4.4010    1.7005    1.6704 H   0  0  0  0  0  0  0  0  0  0  0  0
    5.4153    3.2196    1.4361 H   0  0  0  0  0  0  0  0  0  0  0  0
    4.5691    1.4193   -0.9210 H   0  0  0  0  0  0  0  0  0  0  0  0
    5.4480    2.9608   -0.9349 H   0  0  0  0  0  0  0  0  0  0  0  0
    3.1522    3.1545   -1.5815 H   0  0  0  0  0  0  0  0  0  0  0  0
    2.3563    2.8712    1.3244 H   0  0  0  0  0  0  0  0  0  0  0  0
   -0.4111    2.0504    0.9724 H   0  0  0  0  0  0  0  0  0  0  0  0
    0.1140    0.4767    2.5411 H   0  0  0  0  0  0  0  0  0  0  0  0
    1.8227    1.0628    2.1029 H   0  0  0  0  0  0  0  0  0  0  0  0
    2.2864   -1.0212    1.0825 H   0  0  0  0  0  0  0  0  0  0  0  0
    0.7731   -1.6276    1.9063 H   0  0  0  0  0  0  0  0  0  0  0  0
    1.0958   -0.8065   -0.9770 H   0  0  0  0  0  0  0  0  0  0  0  0
   -0.0626   -1.9177   -0.1898 H   0  0  0  0  0  0  0  0  0  0  0  0
   -2.2996   -1.8408   -0.4084 H   0  0  0  0  0  0  0  0  0  0  0  0
   -0.9285   -1.4767   -2.2976 H   0  0  0  0  0  0  0  0  0  0  0  0
   -2.0820   -0.2945   -3.0305 H   0  0  0  0  0  0  0  0  0  0  0  0
   -4.2175   -1.2443   -4.0072 H   0  0  0  0  0  0  0  0  0  0  0  0
   -5.2740   -3.2060   -5.0790 H   0  0  0  0  0  0  0  0  0  0  0  0
   -4.3794   -5.4060   -4.7903 H   0  0  0  0  0  0  0  0  0  0  0  0
   -2.3455   -5.7170   -3.3919 H   0  0  0  0  0  0  0  0  0  0  0  0
   -1.2832   -3.8209   -2.3315 H   0  0  0  0  0  0  0  0  0  0  0  0
   -4.2897    0.1657   -1.0786 H   0  0  0  0  0  0  0  0  0  0  0  0
   -5.2976   -2.8073    1.9854 H   0  0  0  0  0  0  0  0  0  0  0  0
   -3.6942   -2.0969    1.8321 H   0  0  0  0  0  0  0  0  0  0  0  0
   -7.2186   -1.3260    2.3136 H   0  0  0  0  0  0  0  0  0  0  0  0
   -8.0306    0.7214    3.4957 H   0  0  0  0  0  0  0  0  0  0  0  0
   -6.4432    2.5239    4.0785 H   0  0  0  0  0  0  0  0  0  0  0  0
   -4.0433    2.2240    3.4593 H   0  0  0  0  0  0  0  0  0  0  0  0
   -3.3017    0.2102    2.3185 H   0  0  0  0  0  0  0  0  0  0  0  0
    4.4425    5.1831   -0.6623 H   0  0  0  0  0  0  0  0  0  0  0  0
  1  2  1  0
  2  3  2  3
  2  4  1  0
  4  5  1  0
  5  6  1  0
  6  7  1  0
  7  8  1  0
  8  9  1  0
  9 10  1  0
 10 11  2  0
 10 12  1  0
 12 13  1  0
 13 14  1  0
 14 15  1  0
 15 16  1  0
 16 17  1  0
 17 18  2  0
 17 19  1  0
 19 20  1  0
 20 21  1  0
 21 22  2  0
 22 23  1  0
 23 24  2  0
 24 25  1  0
 25 26  2  0
 19 27  1  0
 27 28  1  0
 28 29  2  0
 28 30  2  0
 28 31  1  0
 31 32  1  0
 32 33  2  0
 33 34  1  0
 34 35  2  0
 35 36  1  0
 36 37  2  0
  8 38  1  0
 38 39  2  0
 16 12  1  0
 26 21  1  0
 37 32  1  0
  1 40  1  0
  1 41  1  0
  3 42  1  0
  4 43  1  0
  5 44  1  0
  5 45  1  0
  6 46  1  0
  6 47  1  0
  7 48  1  0
  7 49  1  0
  8 50  1  6
  9 51  1  0
 12 52  1  1
 13 53  1  0
 13 54  1  0
 14 55  1  0
 14 56  1  0
 15 57  1  0
 15 58  1  0
 19 59  1  1
 20 60  1  0
 20 61  1  0
 22 62  1  0
 23 63  1  0
 24 64  1  0
 25 65  1  0
 26 66  1  0
 27 67  1  0
 31 68  1  0
 31 69  1  0
 33 70  1  0
 34 71  1  0
 35 72  1  0
 36 73  1  0
 37 74  1  0
 38 75  1  0
M  END
$$$$
[H]OC([H])([H])C([H])(n1nc([H])c(-c2c([H])c(OC([H])([H])[H])c([H])c3c2-c2c([H])c([H])c([H])c([H])c2C3(O[H])C(F)(F)F)c1[H])C([H])([H])O[H]
     RDKit          3D

 49 52  0  0  0  0  0  0  0  0999 V2000
   -3.1666    4.8999    0.6163 C   0  0  0  0  0  0  0  0  0  0  0  0
   -2.0011    4.2676    0.1758 O   0  0  0  0  0  0  0  0  0  0  0  0
   -1.8249    2.8908    0.1149 C   0  0  0  0  0  0  0  0  0  0  0  0
   -2.7500    1.9774    0.4708 C   0  0  0  0  0  0  0  0  0  0  0  0
   -2.5098    0.5980    0.3844 C   0  0  0  0  0  0  0  0  0  0  0  0
   -1.2892    0.1521   -0.0785 C   0  0  0  0  0  0  0  0  0  0  0  0
   -1.3158   -1.3125   -0.0765 C   0  0  0  0  0  0  0  0  0  0  0  0
   -0.3494   -2.2258   -0.4581 C   0  0  0  0  0  0  0  0  0  0  0  0
   -0.6440   -3.5841   -0.3600 C   0  0  0  0  0  0  0  0  0  0  0  0
   -1.8426   -4.0463    0.0948 C   0  0  0  0  0  0  0  0  0  0  0  0
   -2.7756   -3.1086    0.4630 C   0  0  0  0  0  0  0  0  0  0  0  0
   -2.5454   -1.7305    0.3899 C   0  0  0  0  0  0  0  0  0  0  0  0
   -3.3462   -0.5582    0.7020 C   0  0  0  0  0  0  0  0  0  0  0  0
   -3.6057   -0.5185    2.0719 O   0  0  0  0  0  0  0  0  0  0  0  0
   -4.6774   -0.5347   -0.0216 C   0  0  0  0  0  0  0  0  0  0  0  0
   -4.5368   -0.5307   -1.3786 F   0  0  0  0  0  0  0  0  0  0  0  0
   -5.3952   -1.6465    0.4199 F   0  0  0  0  0  0  0  0  0  0  0  0
   -5.3790    0.5595    0.4148 F   0  0  0  0  0  0  0  0  0  0  0  0
   -0.3163    1.0656   -0.4506 C   0  0  0  0  0  0  0  0  0  0  0  0
   -0.6170    2.4423   -0.3425 C   0  0  0  0  0  0  0  0  0  0  0  0
    1.0145    0.7021   -0.8967 C   0  0  0  0  0  0  0  0  0  0  0  0
    1.4330    0.6460   -2.2007 C   0  0  0  0  0  0  0  0  0  0  0  0
    2.7598    0.3331   -2.1633 N   0  0  0  0  0  0  0  0  0  0  0  0
    3.1769    0.1952   -0.9272 N   0  0  0  0  0  0  0  0  0  0  0  0
    2.1185    0.4177   -0.1209 C   0  0  0  0  0  0  0  0  0  0  0  0
    4.5405   -0.1369   -0.5606 C   0  0  0  0  0  0  0  0  0  0  0  0
    4.7281   -0.0678    0.9399 C   0  0  0  0  0  0  0  0  0  0  0  0
    4.4588    1.2027    1.4380 O   0  0  0  0  0  0  0  0  0  0  0  0
    4.8269   -1.5512   -1.0044 C   0  0  0  0  0  0  0  0  0  0  0  0
    6.1135   -1.9433   -0.6890 O   0  0  0  0  0  0  0  0  0  0  0  0
   -3.0125    5.1810    1.6814 H   0  0  0  0  0  0  0  0  0  0  0  0
   -4.0816    4.2745    0.4998 H   0  0  0  0  0  0  0  0  0  0  0  0
   -3.3160    5.8381    0.0073 H   0  0  0  0  0  0  0  0  0  0  0  0
   -3.6978    2.2971    0.8340 H   0  0  0  0  0  0  0  0  0  0  0  0
    0.6211   -1.9930   -0.8417 H   0  0  0  0  0  0  0  0  0  0  0  0
    0.1201   -4.2931   -0.6611 H   0  0  0  0  0  0  0  0  0  0  0  0
   -2.0518   -5.0984    0.1636 H   0  0  0  0  0  0  0  0  0  0  0  0
   -3.7343   -3.4122    0.8302 H   0  0  0  0  0  0  0  0  0  0  0  0
   -3.3132   -1.3479    2.4903 H   0  0  0  0  0  0  0  0  0  0  0  0
    0.1700    3.1184   -0.6452 H   0  0  0  0  0  0  0  0  0  0  0  0
    0.8005    0.8219   -3.0464 H   0  0  0  0  0  0  0  0  0  0  0  0
    2.1901    0.3660    0.9576 H   0  0  0  0  0  0  0  0  0  0  0  0
    5.2801    0.5317   -1.0157 H   0  0  0  0  0  0  0  0  0  0  0  0
    5.7991   -0.2693    1.1485 H   0  0  0  0  0  0  0  0  0  0  0  0
    4.1464   -0.8642    1.4403 H   0  0  0  0  0  0  0  0  0  0  0  0
    4.2551    1.0727    2.4115 H   0  0  0  0  0  0  0  0  0  0  0  0
    4.1351   -2.2185   -0.4238 H   0  0  0  0  0  0  0  0  0  0  0  0
    4.6434   -1.6673   -2.0983 H   0  0  0  0  0  0  0  0  0  0  0  0
    6.7637   -1.1917   -0.6995 H   0  0  0  0  0  0  0  0  0  0  0  0
  1  2  1  0
  2  3  1  0
  3  4  2  0
  4  5  1  0
  5  6  2  0
  6  7  1  0
  7  8  2  0
  8  9  1  0
  9 10  2  0
 10 11  1  0
 11 12  2  0
 12 13  1  0
 13 14  1  0
 13 15  1  0
 15 16  1  0
 15 17  1  0
 15 18  1  0
  6 19  1  0
 19 20  2  0
 19 21  1  0
 21 22  1  0
 22 23  2  0
 23 24  1  0
 24 25  1  0
 24 26  1  0
 26 27  1  0
 27 28  1  0
 26 29  1  0
 29 30  1  0
 20  3  1  0
 25 21  2  0
 13  5  1  0
 12  7  1  0
  1 31  1  0
  1 32  1  0
  1 33  1  0
  4 34  1  0
  8 35  1  0
  9 36  1  0
 10 37  1  0
 11 38  1  0
 14 39  1  0
 20 40  1  0
 22 41  1  0
 25 42  1  0
 26 43  1  0
 27 44  1  0
 27 45  1  0
 28 46  1  0
 29 47  1  0
 29 48  1  0
 30 49  1  0
M  END
$$$$
[H]c1nc([H])c(C#Cc2c([H])c(C(=O)N([H])c3c([H])c([H])c(C([H])([H])N4C([H])([H])C([H])([H])N(C([H])([H])[H])C([H])([H])C4([H])[H])c(C(F)(F)F)c3[H])c([H])c([H])c2C([H])([H])[H])c([H])c1[H]
     RDKit          3D

 63 66  0  0  0  0  0  0  0  0999 V2000
   -9.2322   -0.7461    0.9563 C   0  0  0  0  0  0  0  0  0  0  0  0
   -7.8651   -0.3495    0.6787 N   0  0  0  0  0  0  0  0  0  0  0  0
   -7.5369   -0.7020   -0.6888 C   0  0  0  0  0  0  0  0  0  0  0  0
   -6.1378   -0.2704   -1.0601 C   0  0  0  0  0  0  0  0  0  0  0  0
   -5.7888    1.0113   -0.5421 N   0  0  0  0  0  0  0  0  0  0  0  0
   -4.8235    1.0418    0.5027 C   0  0  0  0  0  0  0  0  0  0  0  0
   -3.4699    0.6253    0.1952 C   0  0  0  0  0  0  0  0  0  0  0  0
   -3.1016    0.2789   -1.0784 C   0  0  0  0  0  0  0  0  0  0  0  0
   -1.8289   -0.0940   -1.4238 C   0  0  0  0  0  0  0  0  0  0  0  0
   -0.8185   -0.1384   -0.4624 C   0  0  0  0  0  0  0  0  0  0  0  0
    0.4790   -0.5296   -0.8045 N   0  0  0  0  0  0  0  0  0  0  0  0
    1.6294   -0.4585   -0.0358 C   0  0  0  0  0  0  0  0  0  0  0  0
    1.6915   -0.0101    1.1283 O   0  0  0  0  0  0  0  0  0  0  0  0
    2.9350   -0.9374   -0.5786 C   0  0  0  0  0  0  0  0  0  0  0  0
    2.9939   -1.8172   -1.6215 C   0  0  0  0  0  0  0  0  0  0  0  0
    4.2134   -2.2249   -2.0976 C   0  0  0  0  0  0  0  0  0  0  0  0
    5.3729   -1.7452   -1.5215 C   0  0  0  0  0  0  0  0  0  0  0  0
    6.6907   -2.1871   -2.0378 C   0  0  0  0  0  0  0  0  0  0  0  0
    5.3493   -0.8558   -0.4667 C   0  0  0  0  0  0  0  0  0  0  0  0
    4.1072   -0.4711   -0.0181 C   0  0  0  0  0  0  0  0  0  0  0  0
    6.5252   -0.3310    0.1632 C   0  0  0  0  0  0  0  0  0  0  0  0
    7.5313    0.1093    0.6783 C   0  0  0  0  0  0  0  0  0  0  0  0
    8.7365    0.6237    1.2684 C   0  0  0  0  0  0  0  0  0  0  0  0
    9.9063    0.7764    0.5300 C   0  0  0  0  0  0  0  0  0  0  0  0
   11.0636    1.2697    1.0948 C   0  0  0  0  0  0  0  0  0  0  0  0
   11.0371    1.6107    2.4148 C   0  0  0  0  0  0  0  0  0  0  0  0
    9.9384    1.4793    3.1538 N   0  0  0  0  0  0  0  0  0  0  0  0
    8.8016    0.9938    2.5954 C   0  0  0  0  0  0  0  0  0  0  0  0
   -1.1686    0.2009    0.7966 C   0  0  0  0  0  0  0  0  0  0  0  0
   -2.4774    0.5835    1.1486 C   0  0  0  0  0  0  0  0  0  0  0  0
   -2.8110    0.9376    2.5401 C   0  0  0  0  0  0  0  0  0  0  0  0
   -1.6335    0.8319    3.3051 F   0  0  0  0  0  0  0  0  0  0  0  0
   -3.6626    0.0072    3.1472 F   0  0  0  0  0  0  0  0  0  0  0  0
   -3.2256    2.2327    2.7194 F   0  0  0  0  0  0  0  0  0  0  0  0
   -6.9464    1.7832   -0.1054 C   0  0  0  0  0  0  0  0  0  0  0  0
   -7.7655    1.0668    0.9257 C   0  0  0  0  0  0  0  0  0  0  0  0
   -9.3404   -1.8506    0.9819 H   0  0  0  0  0  0  0  0  0  0  0  0
   -9.5502   -0.2801    1.9233 H   0  0  0  0  0  0  0  0  0  0  0  0
   -9.8736   -0.3874    0.1117 H   0  0  0  0  0  0  0  0  0  0  0  0
   -8.2827   -0.2955   -1.3962 H   0  0  0  0  0  0  0  0  0  0  0  0
   -7.5744   -1.8088   -0.7598 H   0  0  0  0  0  0  0  0  0  0  0  0
   -5.4316   -1.0800   -0.8122 H   0  0  0  0  0  0  0  0  0  0  0  0
   -6.1412   -0.1907   -2.1873 H   0  0  0  0  0  0  0  0  0  0  0  0
   -5.2626    0.5559    1.4027 H   0  0  0  0  0  0  0  0  0  0  0  0
   -4.7573    2.1356    0.8112 H   0  0  0  0  0  0  0  0  0  0  0  0
   -3.8073    0.2894   -1.9257 H   0  0  0  0  0  0  0  0  0  0  0  0
   -1.5651   -0.3649   -2.4471 H   0  0  0  0  0  0  0  0  0  0  0  0
    0.5919   -0.9334   -1.7928 H   0  0  0  0  0  0  0  0  0  0  0  0
    2.0729   -2.2122   -2.0878 H   0  0  0  0  0  0  0  0  0  0  0  0
    4.2498   -2.9338   -2.9383 H   0  0  0  0  0  0  0  0  0  0  0  0
    6.6616   -2.2989   -3.1483 H   0  0  0  0  0  0  0  0  0  0  0  0
    7.5020   -1.4786   -1.7859 H   0  0  0  0  0  0  0  0  0  0  0  0
    6.9373   -3.1827   -1.5865 H   0  0  0  0  0  0  0  0  0  0  0  0
    4.0368    0.2408    0.8253 H   0  0  0  0  0  0  0  0  0  0  0  0
    9.8380    0.4807   -0.5120 H   0  0  0  0  0  0  0  0  0  0  0  0
   11.9427    1.3623    0.4564 H   0  0  0  0  0  0  0  0  0  0  0  0
   11.9381    2.0029    2.8855 H   0  0  0  0  0  0  0  0  0  0  0  0
    7.9197    0.8920    3.2026 H   0  0  0  0  0  0  0  0  0  0  0  0
   -0.4945    0.2038    1.6386 H   0  0  0  0  0  0  0  0  0  0  0  0
   -7.6039    2.0737   -0.9387 H   0  0  0  0  0  0  0  0  0  0  0  0
   -6.5582    2.7161    0.3548 H   0  0  0  0  0  0  0  0  0  0  0  0
   -8.7837    1.5498    0.9176 H   0  0  0  0  0  0  0  0  0  0  0  0
   -7.3729    1.1986    1.9629 H   0  0  0  0  0  0  0  0  0  0  0  0
  1  2  1  0
  2  3  1  0
  3  4  1  0
  4  5  1  0
  5  6  1  0
  6  7  1  0
  7  8  2  0
  8  9  1  0
  9 10  2  0
 10 11  1  0
 11 12  1  0
 12 13  2  0
 12 14  1  0
 14 15  2  0
 15 16  1  0
 16 17  2  0
 17 18  1  0
 17 19  1  0
 19 20  2  0
 19 21  1  0
 21 22  3  0
 22 23  1  0
 23 24  2  0
 24 25  1  0
 25 26  2  0
 26 27  1  0
 27 28  2  0
 10 29  1  0
 29 30  2  0
 30 31  1  0
 31 32  1  0
 31 33  1  0
 31 34  1  0
  5 35  1  0
 35 36  1  0
 36  2  1  0
 30  7  1  0
 20 14  1  0
 28 23  1  0
  1 37  1  0
  1 38  1  0
  1 39  1  0
  3 40  1  0
  3 41  1  0
  4 42  1  0
  4 43  1  0
  6 44  1  0
  6 45  1  0
  8 46  1  0
  9 47  1  0
 11 48  1  0
 15 49  1  0
 16 50  1  0
 18 51  1  0
 18 52  1  0
 18 53  1  0
 20 54  1  0
 24 55  1  0
 25 56  1  0
 26 57  1  0
 28 58  1  0
 29 59  1  0
 35 60  1  0
 35 61  1  0
 36 62  1  0
 36 63  1  0
M  END
$$$$
[H]/C(C(=O)N1C([H])([H])C([H])([H])C([H])([H])[C@@]([H])(n2nc(-c3c([H])c([H])c(Oc4c([H])c([H])c([H])c([H])c4[H])c([H])c3[H])c3c(N([H])[H])nc([H])nc32)C1([H])[H])=C(/[H])C([H])([H])N(C([H])([H])[H])C([H])([H])[H]
     RDKit          3D

 68 72  0  0  0  0  0  0  0  0999 V2000
   -6.2361    3.7076   -0.3725 C   0  0  0  0  0  0  0  0  0  0  0  0
   -7.1462    3.2511    0.6535 N   0  0  0  0  0  0  0  0  0  0  0  0
   -8.3764    2.7490    0.0474 C   0  0  0  0  0  0  0  0  0  0  0  0
   -6.5490    2.1900    1.4787 C   0  0  0  0  0  0  0  0  0  0  0  0
   -6.3625    0.9536    0.7025 C   0  0  0  0  0  0  0  0  0  0  0  0
   -5.1945    0.3581    0.4935 C   0  0  0  0  0  0  0  0  0  0  0  0
   -5.1198   -0.8680   -0.2939 C   0  0  0  0  0  0  0  0  0  0  0  0
   -6.2034   -1.3272   -0.7618 O   0  0  0  0  0  0  0  0  0  0  0  0
   -3.9018   -1.5379   -0.5407 N   0  0  0  0  0  0  0  0  0  0  0  0
   -3.9287   -2.7570   -1.3481 C   0  0  0  0  0  0  0  0  0  0  0  0
   -2.9077   -2.6693   -2.4723 C   0  0  0  0  0  0  0  0  0  0  0  0
   -1.5723   -2.2270   -1.9672 C   0  0  0  0  0  0  0  0  0  0  0  0
   -1.6225   -2.1903   -0.4493 C   0  0  2  0  0  0  0  0  0  0  0  0
   -2.6049   -1.1151   -0.0527 C   0  0  0  0  0  0  0  0  0  0  0  0
   -0.2922   -1.9324    0.0755 N   0  0  0  0  0  0  0  0  0  0  0  0
    0.7816   -1.5326   -0.5599 N   0  0  0  0  0  0  0  0  0  0  0  0
    1.8504   -1.4170    0.2793 C   0  0  0  0  0  0  0  0  0  0  0  0
    3.1890   -1.0317   -0.1183 C   0  0  0  0  0  0  0  0  0  0  0  0
    3.8645   -1.7689   -1.0932 C   0  0  0  0  0  0  0  0  0  0  0  0
    5.1139   -1.3832   -1.5274 C   0  0  0  0  0  0  0  0  0  0  0  0
    5.7213   -0.2520   -0.9995 C   0  0  0  0  0  0  0  0  0  0  0  0
    6.9959    0.1100   -1.4653 O   0  0  0  0  0  0  0  0  0  0  0  0
    7.5965    1.2372   -0.9131 C   0  0  0  0  0  0  0  0  0  0  0  0
    8.3892    1.1539    0.2129 C   0  0  0  0  0  0  0  0  0  0  0  0
    8.9896    2.2625    0.7696 C   0  0  0  0  0  0  0  0  0  0  0  0
    8.8220    3.5157    0.2183 C   0  0  0  0  0  0  0  0  0  0  0  0
    8.0300    3.6148   -0.9112 C   0  0  0  0  0  0  0  0  0  0  0  0
    7.4295    2.5047   -1.4671 C   0  0  0  0  0  0  0  0  0  0  0  0
    5.0616    0.4701   -0.0468 C   0  0  0  0  0  0  0  0  0  0  0  0
    3.8142    0.0734    0.3767 C   0  0  0  0  0  0  0  0  0  0  0  0
    1.4287   -1.7669    1.5236 C   0  0  0  0  0  0  0  0  0  0  0  0
    2.0332   -1.8690    2.7670 C   0  0  0  0  0  0  0  0  0  0  0  0
    3.4164   -1.5956    2.9550 N   0  0  0  0  0  0  0  0  0  0  0  0
    1.2620   -2.2789    3.7987 N   0  0  0  0  0  0  0  0  0  0  0  0
   -0.0362   -2.5883    3.6838 C   0  0  0  0  0  0  0  0  0  0  0  0
   -0.5883   -2.4813    2.4681 N   0  0  0  0  0  0  0  0  0  0  0  0
    0.0712   -2.0877    1.3740 C   0  0  0  0  0  0  0  0  0  0  0  0
   -5.2109    3.6468    0.0390 H   0  0  0  0  0  0  0  0  0  0  0  0
   -6.3421    3.1163   -1.3225 H   0  0  0  0  0  0  0  0  0  0  0  0
   -6.4184    4.7538   -0.6572 H   0  0  0  0  0  0  0  0  0  0  0  0
   -8.9315    2.2146    0.8217 H   0  0  0  0  0  0  0  0  0  0  0  0
   -8.9061    3.6352   -0.3684 H   0  0  0  0  0  0  0  0  0  0  0  0
   -8.1510    2.1015   -0.8297 H   0  0  0  0  0  0  0  0  0  0  0  0
   -7.2672    2.0680    2.3335 H   0  0  0  0  0  0  0  0  0  0  0  0
   -5.5998    2.5533    1.9084 H   0  0  0  0  0  0  0  0  0  0  0  0
   -7.2486    0.4942    0.2679 H   0  0  0  0  0  0  0  0  0  0  0  0
   -4.2963    0.8077    0.9240 H   0  0  0  0  0  0  0  0  0  0  0  0
   -3.8547   -3.6733   -0.7631 H   0  0  0  0  0  0  0  0  0  0  0  0
   -4.9231   -2.8277   -1.8865 H   0  0  0  0  0  0  0  0  0  0  0  0
   -3.3392   -1.9281   -3.2089 H   0  0  0  0  0  0  0  0  0  0  0  0
   -2.8794   -3.6788   -2.9474 H   0  0  0  0  0  0  0  0  0  0  0  0
   -1.3941   -1.1836   -2.2974 H   0  0  0  0  0  0  0  0  0  0  0  0
   -0.7277   -2.8311   -2.3364 H   0  0  0  0  0  0  0  0  0  0  0  0
   -2.0044   -3.1820   -0.1074 H   0  0  0  0  0  0  0  0  0  0  0  0
   -2.6105   -0.9455    1.0443 H   0  0  0  0  0  0  0  0  0  0  0  0
   -2.3160   -0.1952   -0.6121 H   0  0  0  0  0  0  0  0  0  0  0  0
    3.3512   -2.6398   -1.4735 H   0  0  0  0  0  0  0  0  0  0  0  0
    5.6079   -1.9770   -2.2846 H   0  0  0  0  0  0  0  0  0  0  0  0
    8.5511    0.1949    0.6817 H   0  0  0  0  0  0  0  0  0  0  0  0
    9.6105    2.1966    1.6524 H   0  0  0  0  0  0  0  0  0  0  0  0
    9.2963    4.3871    0.6595 H   0  0  0  0  0  0  0  0  0  0  0  0
    7.9081    4.6111   -1.3341 H   0  0  0  0  0  0  0  0  0  0  0  0
    6.8034    2.6018   -2.3648 H   0  0  0  0  0  0  0  0  0  0  0  0
    5.5196    1.3448    0.3683 H   0  0  0  0  0  0  0  0  0  0  0  0
    3.3094    0.7054    1.1367 H   0  0  0  0  0  0  0  0  0  0  0  0
    3.6744   -0.7045    3.4232 H   0  0  0  0  0  0  0  0  0  0  0  0
    4.1944   -2.2227    2.6587 H   0  0  0  0  0  0  0  0  0  0  0  0
   -0.6238   -2.9181    4.5557 H   0  0  0  0  0  0  0  0  0  0  0  0
  1  2  1  0
  2  3  1  0
  2  4  1  0
  4  5  1  0
  5  6  2  0
  6  7  1  0
  7  8  2  0
  7  9  1  0
  9 10  1  0
 10 11  1  0
 11 12  1  0
 12 13  1  0
 13 14  1  0
 13 15  1  0
 15 16  1  0
 16 17  2  0
 17 18  1  0
 18 19  2  0
 19 20  1  0
 20 21  2  0
 21 22  1  0
 22 23  1  0
 23 24  2  0
 24 25  1  0
 25 26  2  0
 26 27  1  0
 27 28  2  0
 21 29  1  0
 29 30  2  0
 17 31  1  0
 31 32  2  0
 32 33  1  0
 32 34  1  0
 34 35  2  0
 35 36  1  0
 36 37  2  0
 14  9  1  0
 37 15  1  0
 30 18  1  0
 37 31  1  0
 28 23  1  0
  1 38  1  0
  1 39  1  0
  1 40  1  0
  3 41  1  0
  3 42  1  0
  3 43  1  0
  4 44  1  0
  4 45  1  0
  5 46  1  0
  6 47  1  0
 10 48  1  0
 10 49  1  0
 11 50  1  0
 11 51  1  0
 12 52  1  0
 12 53  1  0
 13 54  1  1
 14 55  1  0
 14 56  1  0
 19 57  1  0
 20 58  1  0
 24 59  1  0
 25 60  1  0
 26 61  1  0
 27 62  1  0
 28 63  1  0
 29 64  1  0
 30 65  1  0
 33 66  1  0
 33 67  1  0
 35 68  1  0
M  END
$$$$
[H]ON(C([H])=O)[C@@]([H])(C([H])([H])[H])[C@]([H])(C(=O)N([H])[C@]([H])(C(=O)N([H])C([H])([H])[H])C(C([H])([H])[H])(C([H])([H])[H])C([H])([H])[H])C([H])([H])C([H])(C([H])([H])[H])C([H])([H])[H]
     RDKit          3D

 54 53  0  0  0  0  0  0  0  0999 V2000
    4.3785    0.2555    3.2596 C   0  0  0  0  0  0  0  0  0  0  0  0
    3.8744    0.4787    1.8991 N   0  0  0  0  0  0  0  0  0  0  0  0
    2.6755   -0.1353    1.4939 C   0  0  0  0  0  0  0  0  0  0  0  0
    2.0849   -0.8736    2.4003 O   0  0  0  0  0  0  0  0  0  0  0  0
    2.0267   -0.0322    0.1793 C   0  0  1  0  0  0  0  0  0  0  0  0
    0.5892   -0.0087    0.3168 N   0  0  0  0  0  0  0  0  0  0  0  0
   -0.2827   -1.0209   -0.1300 C   0  0  0  0  0  0  0  0  0  0  0  0
    0.2525   -2.0184   -0.6932 O   0  0  0  0  0  0  0  0  0  0  0  0
   -1.7465   -0.9786    0.0209 C   0  0  2  0  0  0  0  0  0  0  0  0
   -2.4317    0.1676   -0.6141 C   0  0  0  0  0  0  0  0  0  0  0  0
   -2.2735    0.2955   -2.0827 C   0  0  0  0  0  0  0  0  0  0  0  0
   -2.7774   -0.8732   -2.8778 C   0  0  0  0  0  0  0  0  0  0  0  0
   -3.0216    1.5212   -2.5733 C   0  0  0  0  0  0  0  0  0  0  0  0
   -2.0495   -1.0471    1.5124 C   0  0  2  0  0  0  0  0  0  0  0  0
   -1.4783   -2.3671    2.0599 C   0  0  0  0  0  0  0  0  0  0  0  0
   -3.4300   -0.9125    1.8246 N   0  0  0  0  0  0  0  0  0  0  0  0
   -3.8508    0.0533    2.6564 O   0  0  0  0  0  0  0  0  0  0  0  0
   -4.3692   -1.7977    1.2583 C   0  0  0  0  0  0  0  0  0  0  0  0
   -5.5817   -1.6669    1.5448 O   0  0  0  0  0  0  0  0  0  0  0  0
    2.6349    0.9862   -0.6920 C   0  0  0  0  0  0  0  0  0  0  0  0
    2.6576    2.3777   -0.1415 C   0  0  0  0  0  0  0  0  0  0  0  0
    4.0169    0.5823   -1.1019 C   0  0  0  0  0  0  0  0  0  0  0  0
    1.8468    1.0396   -2.0524 C   0  0  0  0  0  0  0  0  0  0  0  0
    5.0931   -0.5914    3.2342 H   0  0  0  0  0  0  0  0  0  0  0  0
    4.9120    1.1302    3.6412 H   0  0  0  0  0  0  0  0  0  0  0  0
    3.5219   -0.0543    3.8876 H   0  0  0  0  0  0  0  0  0  0  0  0
    4.4688    1.1070    1.3402 H   0  0  0  0  0  0  0  0  0  0  0  0
    2.3165   -1.0368   -0.3336 H   0  0  0  0  0  0  0  0  0  0  0  0
    0.1608    0.8208    0.7821 H   0  0  0  0  0  0  0  0  0  0  0  0
   -2.1982   -1.9099   -0.3906 H   0  0  0  0  0  0  0  0  0  0  0  0
   -3.5109    0.1331   -0.3695 H   0  0  0  0  0  0  0  0  0  0  0  0
   -2.0488    1.1170   -0.1555 H   0  0  0  0  0  0  0  0  0  0  0  0
   -1.2149    0.4498   -2.3675 H   0  0  0  0  0  0  0  0  0  0  0  0
   -1.9576   -1.6224   -3.0336 H   0  0  0  0  0  0  0  0  0  0  0  0
   -3.6930   -1.3235   -2.4696 H   0  0  0  0  0  0  0  0  0  0  0  0
   -3.0310   -0.5059   -3.8959 H   0  0  0  0  0  0  0  0  0  0  0  0
   -4.0991    1.2381   -2.5953 H   0  0  0  0  0  0  0  0  0  0  0  0
   -2.7589    1.7659   -3.6259 H   0  0  0  0  0  0  0  0  0  0  0  0
   -2.9104    2.3762   -1.8959 H   0  0  0  0  0  0  0  0  0  0  0  0
   -1.4824   -0.2584    2.0615 H   0  0  0  0  0  0  0  0  0  0  0  0
   -0.3848   -2.2925    1.9635 H   0  0  0  0  0  0  0  0  0  0  0  0
   -1.8975   -3.2104    1.4621 H   0  0  0  0  0  0  0  0  0  0  0  0
   -1.7301   -2.4184    3.1272 H   0  0  0  0  0  0  0  0  0  0  0  0
   -3.2765    0.8545    2.5035 H   0  0  0  0  0  0  0  0  0  0  0  0
   -4.1135   -2.6017    0.5773 H   0  0  0  0  0  0  0  0  0  0  0  0
    2.4818    2.4367    0.9514 H   0  0  0  0  0  0  0  0  0  0  0  0
    3.6131    2.8709   -0.4360 H   0  0  0  0  0  0  0  0  0  0  0  0
    1.8550    2.9635   -0.6298 H   0  0  0  0  0  0  0  0  0  0  0  0
    4.0300    0.2137   -2.1707 H   0  0  0  0  0  0  0  0  0  0  0  0
    4.7599    1.4003   -0.9996 H   0  0  0  0  0  0  0  0  0  0  0  0
    4.2908   -0.3363   -0.5192 H   0  0  0  0  0  0  0  0  0  0  0  0
    0.8675    1.5220   -1.8612 H   0  0  0  0  0  0  0  0  0  0  0  0
    1.8057    0.0405   -2.4854 H   0  0  0  0  0  0  0  0  0  0  0  0
    2.3860    1.6962   -2.7645 H   0  0  0  0  0  0  0  0  0  0  0  0
  1  2  1  0
  2  3  1  0
  3  4  2  0
  3  5  1  0
  5  6  1  0
  6  7  1  0
  7  8  2  0
  7  9  1  0
  9 10  1  0
 10 11  1  0
 11 12  1  0
 11 13  1  0
  9 14  1  0
 14 15  1  0
 14 16  1  0
 16 17  1  0
 16 18  1  0
 18 19  2  0
  5 20  1  0
 20 21  1  0
 20 22  1  0
 20 23  1  0
  1 24  1  0
  1 25  1  0
  1 26  1  0
  2 27  1  0
  5 28  1  6
  6 29  1  0
  9 30  1  6
 10 31  1  0
 10 32  1  0
 11 33  1  0
 12 34  1  0
 12 35  1  0
 12 36  1  0
 13 37  1  0
 13 38  1  0
 13 39  1  0
 14 40  1  1
 15 41  1  0
 15 42  1  0
 15 43  1  0
 17 44  1  0
 18 45  1  0
 21 46  1  0
 21 47  1  0
 21 48  1  0
 22 49  1  0
 22 50  1  0
 22 51  1  0
 23 52  1  0
 23 53  1  0
 23 54  1  0
M  END
$$$$
[H]c1c([H])c(C([H])([H])N([H])C(=O)c2nc(-c3c([H])c([H])c(OC([H])([H])[H])c4nc(C(F)(F)F)c([H])c([H])c34)oc2C([H])([H])N([H])[H])c(F)c([H])c1F
     RDKit          3D

 52 55  0  0  0  0  0  0  0  0999 V2000
   -7.5672   -1.8917   -1.6289 C   0  0  0  0  0  0  0  0  0  0  0  0
   -6.8017   -0.8555   -1.1161 O   0  0  0  0  0  0  0  0  0  0  0  0
   -5.4543   -0.9377   -0.8834 C   0  0  0  0  0  0  0  0  0  0  0  0
   -4.6781   -2.0608   -1.0862 C   0  0  0  0  0  0  0  0  0  0  0  0
   -3.3214   -1.9781   -0.8177 C   0  0  0  0  0  0  0  0  0  0  0  0
   -2.6785   -0.8555   -0.3624 C   0  0  0  0  0  0  0  0  0  0  0  0
   -1.2226   -0.8551   -0.2191 C   0  0  0  0  0  0  0  0  0  0  0  0
   -0.3476    0.1503   -0.2811 N   0  0  0  0  0  0  0  0  0  0  0  0
    0.8959   -0.2474   -0.1304 C   0  0  0  0  0  0  0  0  0  0  0  0
    2.1375    0.4397   -0.3941 C   0  0  0  0  0  0  0  0  0  0  0  0
    2.0466    1.3152   -1.4055 O   0  0  0  0  0  0  0  0  0  0  0  0
    3.3897    0.3656    0.1668 N   0  0  0  0  0  0  0  0  0  0  0  0
    4.4386    1.1429   -0.4529 C   0  0  0  0  0  0  0  0  0  0  0  0
    5.7860    0.9835    0.0651 C   0  0  0  0  0  0  0  0  0  0  0  0
    6.1031    0.2579    1.1604 C   0  0  0  0  0  0  0  0  0  0  0  0
    7.4284    0.1481    1.6156 C   0  0  0  0  0  0  0  0  0  0  0  0
    8.4671    0.8057    0.9172 C   0  0  0  0  0  0  0  0  0  0  0  0
    9.7599    0.6915    1.3456 F   0  0  0  0  0  0  0  0  0  0  0  0
    8.1022    1.5333   -0.1846 C   0  0  0  0  0  0  0  0  0  0  0  0
    6.8203    1.6326   -0.6137 C   0  0  0  0  0  0  0  0  0  0  0  0
    6.4612    2.3537   -1.7121 F   0  0  0  0  0  0  0  0  0  0  0  0
    0.7911   -1.6427    0.0592 C   0  0  0  0  0  0  0  0  0  0  0  0
    2.0128   -2.4538    0.2820 C   0  0  0  0  0  0  0  0  0  0  0  0
    1.6574   -3.8757    0.2157 N   0  0  0  0  0  0  0  0  0  0  0  0
   -0.4651   -1.9484   -0.0036 O   0  0  0  0  0  0  0  0  0  0  0  0
   -3.4511    0.2605   -0.1517 C   0  0  0  0  0  0  0  0  0  0  0  0
   -2.9130    1.4136    0.3621 C   0  0  0  0  0  0  0  0  0  0  0  0
   -3.6999    2.5448    0.6286 C   0  0  0  0  0  0  0  0  0  0  0  0
   -5.0522    2.4358    0.3457 C   0  0  0  0  0  0  0  0  0  0  0  0
   -5.5640    1.3080   -0.1496 N   0  0  0  0  0  0  0  0  0  0  0  0
   -4.8542    0.2092   -0.4143 C   0  0  0  0  0  0  0  0  0  0  0  0
   -5.8979    3.6325    0.6258 C   0  0  0  0  0  0  0  0  0  0  0  0
   -5.1140    4.7252    0.8997 F   0  0  0  0  0  0  0  0  0  0  0  0
   -6.6805    3.8878   -0.4445 F   0  0  0  0  0  0  0  0  0  0  0  0
   -6.6898    3.4067    1.7477 F   0  0  0  0  0  0  0  0  0  0  0  0
   -6.9621   -2.7984   -1.7980 H   0  0  0  0  0  0  0  0  0  0  0  0
   -8.3955   -2.1558   -0.9593 H   0  0  0  0  0  0  0  0  0  0  0  0
   -8.0041   -1.5997   -2.6465 H   0  0  0  0  0  0  0  0  0  0  0  0
   -5.1351   -2.9648   -1.4346 H   0  0  0  0  0  0  0  0  0  0  0  0
   -2.7508   -2.8897   -0.9833 H   0  0  0  0  0  0  0  0  0  0  0  0
    3.5711   -0.2070    1.0159 H   0  0  0  0  0  0  0  0  0  0  0  0
    4.4292    0.8935   -1.5787 H   0  0  0  0  0  0  0  0  0  0  0  0
    4.0755    2.2135   -0.4284 H   0  0  0  0  0  0  0  0  0  0  0  0
    5.3401   -0.2544    1.7648 H   0  0  0  0  0  0  0  0  0  0  0  0
    7.6632   -0.4223    2.4860 H   0  0  0  0  0  0  0  0  0  0  0  0
    8.8934    2.0256   -0.7288 H   0  0  0  0  0  0  0  0  0  0  0  0
    2.8879   -2.1512   -0.2484 H   0  0  0  0  0  0  0  0  0  0  0  0
    2.2698   -2.3541    1.4282 H   0  0  0  0  0  0  0  0  0  0  0  0
    2.4945   -4.3811   -0.2473 H   0  0  0  0  0  0  0  0  0  0  0  0
    0.8758   -3.9137   -0.5163 H   0  0  0  0  0  0  0  0  0  0  0  0
   -1.8713    1.4981    0.5872 H   0  0  0  0  0  0  0  0  0  0  0  0
   -3.2262    3.4196    1.0069 H   0  0  0  0  0  0  0  0  0  0  0  0
  1  2  1  0
  2  3  1  0
  3  4  2  0
  4  5  1  0
  5  6  2  0
  6  7  1  0
  7  8  2  0
  8  9  1  0
  9 10  1  0
 10 11  2  0
 10 12  1  0
 12 13  1  0
 13 14  1  0
 14 15  2  0
 15 16  1  0
 16 17  2  0
 17 18  1  0
 17 19  1  0
 19 20  2  0
 20 21  1  0
  9 22  2  0
 22 23  1  0
 23 24  1  0
 22 25  1  0
  6 26  1  0
 26 27  2  0
 27 28  1  0
 28 29  2  0
 29 30  1  0
 30 31  2  0
 29 32  1  0
 32 33  1  0
 32 34  1  0
 32 35  1  0
 31  3  1  0
 25  7  1  0
 31 26  1  0
 20 14  1  0
  1 36  1  0
  1 37  1  0
  1 38  1  0
  4 39  1  0
  5 40  1  0
 12 41  1  0
 13 42  1  0
 13 43  1  0
 15 44  1  0
 16 45  1  0
 19 46  1  0
 23 47  1  0
 23 48  1  0
 24 49  1  0
 24 50  1  0
 27 51  1  0
 28 52  1  0
M  END
$$$$
[H]Oc1c([H])c(C([H])([H])[H])c2c(oc(=O)c3c(O[H])c([H])c(O[H])c([H])c32)c1[H]
     RDKit          3D

 29 31  0  0  0  0  0  0  0  0999 V2000
   -1.5540    2.0115   -0.0779 C   0  0  0  0  0  0  0  0  0  0  0  0
   -1.6875    0.5760    0.0494 C   0  0  0  0  0  0  0  0  0  0  0  0
   -2.9993    0.0311    0.1531 C   0  0  0  0  0  0  0  0  0  0  0  0
   -3.2530   -1.3047    0.2737 C   0  0  0  0  0  0  0  0  0  0  0  0
   -4.5438   -1.7832    0.3710 O   0  0  0  0  0  0  0  0  0  0  0  0
   -2.2059   -2.1757    0.2976 C   0  0  0  0  0  0  0  0  0  0  0  0
   -0.9131   -1.7095    0.2013 C   0  0  0  0  0  0  0  0  0  0  0  0
    0.0740   -2.5715    0.2271 O   0  0  0  0  0  0  0  0  0  0  0  0
    1.3147   -2.2232    0.1427 C   0  0  0  0  0  0  0  0  0  0  0  0
    2.2415   -3.0642    0.1693 O   0  0  0  0  0  0  0  0  0  0  0  0
    1.6542   -0.8950    0.0192 C   0  0  0  0  0  0  0  0  0  0  0  0
    2.9696   -0.5208   -0.0696 C   0  0  0  0  0  0  0  0  0  0  0  0
    3.9322   -1.5159   -0.0322 O   0  0  0  0  0  0  0  0  0  0  0  0
    3.2978    0.8039   -0.1911 C   0  0  0  0  0  0  0  0  0  0  0  0
    2.3256    1.7611   -0.2250 C   0  0  0  0  0  0  0  0  0  0  0  0
    2.6257    3.1012   -0.3464 O   0  0  0  0  0  0  0  0  0  0  0  0
    0.9672    1.3930   -0.1348 C   0  0  0  0  0  0  0  0  0  0  0  0
    0.6594    0.0754   -0.0150 C   0  0  0  0  0  0  0  0  0  0  0  0
   -0.6661   -0.3326    0.0778 C   0  0  0  0  0  0  0  0  0  0  0  0
   -2.6501    2.3997   -0.0722 H   0  0  0  0  0  0  0  0  0  0  0  0
   -1.3408    2.4378   -1.0826 H   0  0  0  0  0  0  0  0  0  0  0  0
   -1.2712    2.5988    0.8209 H   0  0  0  0  0  0  0  0  0  0  0  0
   -3.8357    0.6980    0.1365 H   0  0  0  0  0  0  0  0  0  0  0  0
   -5.0476   -2.0276   -0.4797 H   0  0  0  0  0  0  0  0  0  0  0  0
   -2.3586   -3.2327    0.3908 H   0  0  0  0  0  0  0  0  0  0  0  0
    4.8965   -1.2344   -0.0979 H   0  0  0  0  0  0  0  0  0  0  0  0
    4.3544    1.0599   -0.2590 H   0  0  0  0  0  0  0  0  0  0  0  0
    2.6827    3.4649   -1.3101 H   0  0  0  0  0  0  0  0  0  0  0  0
    0.3312    2.1787   -0.1676 H   0  0  0  0  0  0  0  0  0  0  0  0
  1  2  1  0
  2  3  2  0
  3  4  1  0
  4  5  1  0
  4  6  2  0
  6  7  1  0
  7  8  1  0
  8  9  1  0
  9 10  2  0
  9 11  1  0
 11 12  2  0
 12 13  1  0
 12 14  1  0
 14 15  2  0
 15 16  1  0
 15 17  1  0
 17 18  2  0
 18 19  1  0
 19  2  1  0
 19  7  2  0
 18 11  1  0
  1 20  1  0
  1 21  1  0
  1 22  1  0
  3 23  1  0
  5 24  1  0
  6 25  1  0
 13 26  1  0
 14 27  1  0
 16 28  1  0
 17 29  1  0
M  END
$$$$
[H]c1nn2c([H])c(-c3c([H])c([H])c([H])c([H])c3[H])c([H])c2c(N([H])[C@]2([H])C([H])([H])C([H])([H])[C@@](N([H])[H])(C([H])([H])[H])C2(C([H])([H])[H])C([H])([H])[H])c1C(=O)N([H])[H]
     RDKit          3D

 55 58  0  0  0  0  0  0  0  0999 V2000
   -4.2713    1.4762    0.8879 C   0  0  0  0  0  0  0  0  0  0  0  0
   -3.4586    1.1237   -0.3248 C   0  0  2  0  0  0  0  0  0  0  0  0
   -3.6512    2.1679   -1.2808 N   0  0  0  0  0  0  0  0  0  0  0  0
   -3.8396   -0.1812   -0.9391 C   0  0  0  0  0  0  0  0  0  0  0  0
   -2.5720   -1.0278   -0.8839 C   0  0  0  0  0  0  0  0  0  0  0  0
   -1.9511   -0.4982    0.3806 C   0  0  1  0  0  0  0  0  0  0  0  0
   -0.9520   -1.1590    1.0480 N   0  0  0  0  0  0  0  0  0  0  0  0
    0.1802   -1.9144    0.6659 C   0  0  0  0  0  0  0  0  0  0  0  0
    0.0531   -3.2790    0.5378 C   0  0  0  0  0  0  0  0  0  0  0  0
    1.1961   -3.9714    0.0999 C   0  0  0  0  0  0  0  0  0  0  0  0
    2.3403   -3.3386   -0.1713 N   0  0  0  0  0  0  0  0  0  0  0  0
    2.4563   -2.0328   -0.0415 N   0  0  0  0  0  0  0  0  0  0  0  0
    3.5275   -1.2657   -0.2477 C   0  0  0  0  0  0  0  0  0  0  0  0
    3.1882    0.0377    0.0389 C   0  0  0  0  0  0  0  0  0  0  0  0
    1.8836   -0.0202    0.4147 C   0  0  0  0  0  0  0  0  0  0  0  0
    1.3787   -1.3129    0.3774 C   0  0  0  0  0  0  0  0  0  0  0  0
    4.0767    1.2005   -0.0564 C   0  0  0  0  0  0  0  0  0  0  0  0
    3.9302    2.2806    0.7796 C   0  0  0  0  0  0  0  0  0  0  0  0
    4.7595    3.3795    0.6991 C   0  0  0  0  0  0  0  0  0  0  0  0
    5.7704    3.3930   -0.2542 C   0  0  0  0  0  0  0  0  0  0  0  0
    5.9349    2.3313   -1.0954 C   0  0  0  0  0  0  0  0  0  0  0  0
    5.0918    1.2513   -0.9896 C   0  0  0  0  0  0  0  0  0  0  0  0
   -1.1132   -4.0685    0.9165 C   0  0  0  0  0  0  0  0  0  0  0  0
   -1.1614   -5.4661    0.6792 N   0  0  0  0  0  0  0  0  0  0  0  0
   -2.0891   -3.5340    1.4547 O   0  0  0  0  0  0  0  0  0  0  0  0
   -1.9603    0.9609    0.0839 C   0  0  0  0  0  0  0  0  0  0  0  0
   -1.1930    1.4064   -1.1071 C   0  0  0  0  0  0  0  0  0  0  0  0
   -1.6358    1.7464    1.3032 C   0  0  0  0  0  0  0  0  0  0  0  0
   -4.0859    2.5505    1.1221 H   0  0  0  0  0  0  0  0  0  0  0  0
   -4.1874    0.8035    1.7375 H   0  0  0  0  0  0  0  0  0  0  0  0
   -5.3445    1.4581    0.5487 H   0  0  0  0  0  0  0  0  0  0  0  0
   -3.8949    1.8279   -2.2453 H   0  0  0  0  0  0  0  0  0  0  0  0
   -4.4304    2.8393   -1.0229 H   0  0  0  0  0  0  0  0  0  0  0  0
   -4.5791   -0.6696   -0.2551 H   0  0  0  0  0  0  0  0  0  0  0  0
   -4.2283   -0.1034   -1.9724 H   0  0  0  0  0  0  0  0  0  0  0  0
   -2.9083   -2.0607   -0.8579 H   0  0  0  0  0  0  0  0  0  0  0  0
   -2.0043   -0.7658   -1.8020 H   0  0  0  0  0  0  0  0  0  0  0  0
   -2.8922   -0.5840    1.1056 H   0  0  0  0  0  0  0  0  0  0  0  0
   -0.9941   -1.1149    2.1420 H   0  0  0  0  0  0  0  0  0  0  0  0
    1.1014   -5.0581   -0.0082 H   0  0  0  0  0  0  0  0  0  0  0  0
    4.5312   -1.5705   -0.5872 H   0  0  0  0  0  0  0  0  0  0  0  0
    1.2938    0.8371    0.7138 H   0  0  0  0  0  0  0  0  0  0  0  0
    3.1435    2.2656    1.5185 H   0  0  0  0  0  0  0  0  0  0  0  0
    4.6730    4.2427    1.3383 H   0  0  0  0  0  0  0  0  0  0  0  0
    6.4479    4.2361   -0.3552 H   0  0  0  0  0  0  0  0  0  0  0  0
    6.7341    2.3668   -1.8332 H   0  0  0  0  0  0  0  0  0  0  0  0
    5.2392    0.4139   -1.6699 H   0  0  0  0  0  0  0  0  0  0  0  0
   -0.7302   -6.1470    1.3379 H   0  0  0  0  0  0  0  0  0  0  0  0
   -1.6316   -5.8785   -0.1674 H   0  0  0  0  0  0  0  0  0  0  0  0
   -0.5209    0.5790   -1.4921 H   0  0  0  0  0  0  0  0  0  0  0  0
   -0.4402    2.1724   -0.7473 H   0  0  0  0  0  0  0  0  0  0  0  0
   -1.7323    1.8932   -1.9047 H   0  0  0  0  0  0  0  0  0  0  0  0
   -2.4380    1.7913    2.0390 H   0  0  0  0  0  0  0  0  0  0  0  0
   -1.2615    2.7425    0.9889 H   0  0  0  0  0  0  0  0  0  0  0  0
   -0.7789    1.2470    1.8164 H   0  0  0  0  0  0  0  0  0  0  0  0
  1  2  1  0
  2  3  1  6
  2  4  1  0
  4  5  1  0
  5  6  1  0
  6  7  1  0
  7  8  1  0
  8  9  2  0
  9 10  1  0
 10 11  2  0
 11 12  1  0
 12 13  1  0
 13 14  2  0
 14 15  1  0
 15 16  2  0
 14 17  1  0
 17 18  2  0
 18 19  1  0
 19 20  2  0
 20 21  1  0
 21 22  2  0
  9 23  1  0
 23 24  1  0
 23 25  2  0
  6 26  1  0
 26 27  1  0
 26 28  1  0
 26  2  1  0
 16  8  1  0
 22 17  1  0
 16 12  1  0
  1 29  1  0
  1 30  1  0
  1 31  1  0
  3 32  1  0
  3 33  1  0
  4 34  1  0
  4 35  1  0
  5 36  1  0
  5 37  1  0
  6 38  1  1
  7 39  1  0
 10 40  1  0
 13 41  1  0
 15 42  1  0
 18 43  1  0
 19 44  1  0
 20 45  1  0
 21 46  1  0
 22 47  1  0
 24 48  1  0
 24 49  1  0
 27 50  1  0
 27 51  1  0
 27 52  1  0
 28 53  1  0
 28 54  1  0
 28 55  1  0
M  END
$$$$
[H]OC(=O)[C@@]1([H])N(C(=O)C([H])([H])N([H])C(=O)[C@@]([H])(S[H])C([H])([H])c2c([H])c([H])c([H])c([H])c2[H])[C@@]([H])(c2c([H])c([H])c([H])c([H])c2[H])C([H])([H])C1([H])[H]
     RDKit          3D

 53 55  0  0  0  0  0  0  0  0999 V2000
   -2.8120   -4.5943    1.1437 O   0  0  0  0  0  0  0  0  0  0  0  0
   -2.7142   -3.5491    0.2492 C   0  0  0  0  0  0  0  0  0  0  0  0
   -1.9717   -3.6011   -0.7203 O   0  0  0  0  0  0  0  0  0  0  0  0
   -3.5510   -2.3459    0.5119 C   0  0  2  0  0  0  0  0  0  0  0  0
   -4.7129   -2.4100   -0.5386 C   0  0  0  0  0  0  0  0  0  0  0  0
   -4.7580   -0.9919   -1.1477 C   0  0  0  0  0  0  0  0  0  0  0  0
   -4.1534   -0.2461   -0.0332 C   0  0  1  0  0  0  0  0  0  0  0  0
   -2.9635   -1.0889    0.2226 N   0  0  0  0  0  0  0  0  0  0  0  0
   -1.6792   -0.5941    0.2852 C   0  0  0  0  0  0  0  0  0  0  0  0
   -1.4687    0.5387   -0.3289 O   0  0  0  0  0  0  0  0  0  0  0  0
   -0.4584   -1.1009    0.9447 C   0  0  0  0  0  0  0  0  0  0  0  0
    0.6758   -0.2707    0.7796 N   0  0  0  0  0  0  0  0  0  0  0  0
    1.7358    0.5053    0.6253 C   0  0  0  0  0  0  0  0  0  0  0  0
    1.8228    1.7541    0.9316 O   0  0  0  0  0  0  0  0  0  0  0  0
    3.0601    0.0191    0.0451 C   0  0  1  0  0  0  0  0  0  0  0  0
    2.7905   -0.3024   -1.7000 S   0  0  0  0  0  0  0  0  0  0  0  0
    4.1124    1.0750    0.2275 C   0  0  0  0  0  0  0  0  0  0  0  0
    5.4418    0.7069   -0.2963 C   0  0  0  0  0  0  0  0  0  0  0  0
    5.8425    1.0128   -1.5762 C   0  0  0  0  0  0  0  0  0  0  0  0
    7.0777    0.6840   -2.0760 C   0  0  0  0  0  0  0  0  0  0  0  0
    7.9735    0.0219   -1.2920 C   0  0  0  0  0  0  0  0  0  0  0  0
    7.5837   -0.2928    0.0045 C   0  0  0  0  0  0  0  0  0  0  0  0
    6.3460    0.0292    0.5276 C   0  0  0  0  0  0  0  0  0  0  0  0
   -4.0008    1.1632   -0.0356 C   0  0  0  0  0  0  0  0  0  0  0  0
   -3.6175    1.7896    1.1673 C   0  0  0  0  0  0  0  0  0  0  0  0
   -3.4563    3.1603    1.2352 C   0  0  0  0  0  0  0  0  0  0  0  0
   -3.6661    3.9538    0.1254 C   0  0  0  0  0  0  0  0  0  0  0  0
   -4.0374    3.3605   -1.0489 C   0  0  0  0  0  0  0  0  0  0  0  0
   -4.1954    2.0042   -1.1067 C   0  0  0  0  0  0  0  0  0  0  0  0
   -1.9805   -5.0524    1.4848 H   0  0  0  0  0  0  0  0  0  0  0  0
   -3.9766   -2.3094    1.5256 H   0  0  0  0  0  0  0  0  0  0  0  0
   -5.6157   -2.5756    0.0478 H   0  0  0  0  0  0  0  0  0  0  0  0
   -4.4699   -3.1480   -1.3006 H   0  0  0  0  0  0  0  0  0  0  0  0
   -5.8225   -0.7048   -1.3178 H   0  0  0  0  0  0  0  0  0  0  0  0
   -4.1946   -1.0262   -2.0734 H   0  0  0  0  0  0  0  0  0  0  0  0
   -4.8153   -0.5664    0.8916 H   0  0  0  0  0  0  0  0  0  0  0  0
   -0.6908   -1.2222    2.0403 H   0  0  0  0  0  0  0  0  0  0  0  0
   -0.1806   -2.1512    0.6363 H   0  0  0  0  0  0  0  0  0  0  0  0
   -0.0265    0.7442    1.3439 H   0  0  0  0  0  0  0  0  0  0  0  0
    3.3588   -0.8840    0.6259 H   0  0  0  0  0  0  0  0  0  0  0  0
    3.2016   -1.5932   -2.1020 H   0  0  0  0  0  0  0  0  0  0  0  0
    3.8076    2.0341   -0.2829 H   0  0  0  0  0  0  0  0  0  0  0  0
    4.1937    1.3667    1.3055 H   0  0  0  0  0  0  0  0  0  0  0  0
    5.1500    1.5474   -2.2440 H   0  0  0  0  0  0  0  0  0  0  0  0
    7.3328    0.9546   -3.1109 H   0  0  0  0  0  0  0  0  0  0  0  0
    8.9331   -0.2273   -1.7052 H   0  0  0  0  0  0  0  0  0  0  0  0
    8.3373   -0.8287    0.6113 H   0  0  0  0  0  0  0  0  0  0  0  0
    6.0620   -0.2235    1.5355 H   0  0  0  0  0  0  0  0  0  0  0  0
   -3.4555    1.1714    2.0303 H   0  0  0  0  0  0  0  0  0  0  0  0
   -3.1643    3.6708    2.1329 H   0  0  0  0  0  0  0  0  0  0  0  0
   -3.5352    5.0464    0.1944 H   0  0  0  0  0  0  0  0  0  0  0  0
   -4.2001    3.9908   -1.9263 H   0  0  0  0  0  0  0  0  0  0  0  0
   -4.4951    1.5962   -2.0575 H   0  0  0  0  0  0  0  0  0  0  0  0
  1  2  1  0
  2  3  2  0
  2  4  1  0
  4  5  1  0
  5  6  1  0
  6  7  1  0
  7  8  1  0
  8  9  1  0
  9 10  2  0
  9 11  1  0
 11 12  1  0
 12 13  1  0
 13 14  2  0
 13 15  1  0
 15 16  1  0
 15 17  1  0
 17 18  1  0
 18 19  2  0
 19 20  1  0
 20 21  2  0
 21 22  1  0
 22 23  2  0
  7 24  1  0
 24 25  2  0
 25 26  1  0
 26 27  2  0
 27 28  1  0
 28 29  2  0
  8  4  1  0
 23 18  1  0
 29 24  1  0
  1 30  1  0
  4 31  1  1
  5 32  1  0
  5 33  1  0
  6 34  1  0
  6 35  1  0
  7 36  1  1
 11 37  1  0
 11 38  1  0
 12 39  1  0
 15 40  1  1
 16 41  1  0
 17 42  1  0
 17 43  1  0
 19 44  1  0
 20 45  1  0
 21 46  1  0
 22 47  1  0
 23 48  1  0
 25 49  1  0
 26 50  1  0
 27 51  1  0
 28 52  1  0
 29 53  1  0
M  END
$$$$
[H]c1c([H])c([H])c2c(c1[H])c1c(n2C([H])([H])[H])C([H])([H])N(C(=O)c2c(C([H])([H])[H])c([H])c3c(c2[H])c(=O)n(C([H])([H])[H])c(=O)n3C([H])([H])[H])C([H])([H])C1([H])[H]
     RDKit          3D

 55 59  0  0  0  0  0  0  0  0999 V2000
   -1.7001    3.3848   -0.3224 C   0  0  0  0  0  0  0  0  0  0  0  0
   -2.0608    1.9818   -0.6499 C   0  0  0  0  0  0  0  0  0  0  0  0
   -3.3056    1.5317   -0.2237 C   0  0  0  0  0  0  0  0  0  0  0  0
   -3.7088    0.2576   -0.4856 C   0  0  0  0  0  0  0  0  0  0  0  0
   -4.9212   -0.1670   -0.0656 N   0  0  0  0  0  0  0  0  0  0  0  0
   -5.8146    0.7189    0.6688 C   0  0  0  0  0  0  0  0  0  0  0  0
   -5.2418   -1.4383   -0.3654 C   0  0  0  0  0  0  0  0  0  0  0  0
   -6.3682   -1.8499    0.0188 O   0  0  0  0  0  0  0  0  0  0  0  0
   -4.4405   -2.2757   -1.0391 N   0  0  0  0  0  0  0  0  0  0  0  0
   -4.8629   -3.6417   -1.3245 C   0  0  0  0  0  0  0  0  0  0  0  0
   -3.2435   -1.8628   -1.4561 C   0  0  0  0  0  0  0  0  0  0  0  0
   -2.4614   -2.6369   -2.0984 O   0  0  0  0  0  0  0  0  0  0  0  0
   -2.8404   -0.5715   -1.1881 C   0  0  0  0  0  0  0  0  0  0  0  0
   -1.6045   -0.1276   -1.6123 C   0  0  0  0  0  0  0  0  0  0  0  0
   -1.1983    1.1629   -1.3460 C   0  0  0  0  0  0  0  0  0  0  0  0
    0.1237    1.6504   -1.7953 C   0  0  0  0  0  0  0  0  0  0  0  0
    0.2063    2.1894   -2.9405 O   0  0  0  0  0  0  0  0  0  0  0  0
    1.2678    1.5210   -0.9730 N   0  0  0  0  0  0  0  0  0  0  0  0
    2.5313    2.0141   -1.4623 C   0  0  0  0  0  0  0  0  0  0  0  0
    3.5651    2.1584   -0.3645 C   0  0  0  0  0  0  0  0  0  0  0  0
    3.6410    0.8228    0.3088 C   0  0  0  0  0  0  0  0  0  0  0  0
    2.4701    0.1865    0.6638 C   0  0  0  0  0  0  0  0  0  0  0  0
    1.2030    0.9128    0.3325 C   0  0  0  0  0  0  0  0  0  0  0  0
    2.7316   -0.9935    1.2531 N   0  0  0  0  0  0  0  0  0  0  0  0
    1.7191   -1.9307    1.7558 C   0  0  0  0  0  0  0  0  0  0  0  0
    4.0667   -1.1150    1.2766 C   0  0  0  0  0  0  0  0  0  0  0  0
    4.8749   -2.1130    1.7583 C   0  0  0  0  0  0  0  0  0  0  0  0
    6.2431   -1.9738    1.6490 C   0  0  0  0  0  0  0  0  0  0  0  0
    6.8364   -0.8664    1.0721 C   0  0  0  0  0  0  0  0  0  0  0  0
    6.0263    0.1396    0.5865 C   0  0  0  0  0  0  0  0  0  0  0  0
    4.6508   -0.0157    0.7041 C   0  0  0  0  0  0  0  0  0  0  0  0
   -1.1400    3.4297    0.6338 H   0  0  0  0  0  0  0  0  0  0  0  0
   -1.1512    3.8553   -1.1644 H   0  0  0  0  0  0  0  0  0  0  0  0
   -2.6325    3.9942   -0.1958 H   0  0  0  0  0  0  0  0  0  0  0  0
   -3.9909    2.1817    0.3291 H   0  0  0  0  0  0  0  0  0  0  0  0
   -6.1152    1.5911    0.0276 H   0  0  0  0  0  0  0  0  0  0  0  0
   -6.7469    0.1520    0.8571 H   0  0  0  0  0  0  0  0  0  0  0  0
   -5.3326    1.0667    1.5854 H   0  0  0  0  0  0  0  0  0  0  0  0
   -5.7055   -3.9263   -0.6663 H   0  0  0  0  0  0  0  0  0  0  0  0
   -5.2278   -3.7435   -2.3703 H   0  0  0  0  0  0  0  0  0  0  0  0
   -4.0012   -4.3165   -1.1181 H   0  0  0  0  0  0  0  0  0  0  0  0
   -0.9889   -0.8322   -2.1516 H   0  0  0  0  0  0  0  0  0  0  0  0
    2.9323    1.2079   -2.1449 H   0  0  0  0  0  0  0  0  0  0  0  0
    2.4223    2.9497   -2.0510 H   0  0  0  0  0  0  0  0  0  0  0  0
    3.2658    2.9608    0.3235 H   0  0  0  0  0  0  0  0  0  0  0  0
    4.5343    2.3640   -0.8753 H   0  0  0  0  0  0  0  0  0  0  0  0
    1.1462    1.7504    1.0808 H   0  0  0  0  0  0  0  0  0  0  0  0
    0.3847    0.2053    0.4502 H   0  0  0  0  0  0  0  0  0  0  0  0
    0.8907   -1.3434    2.1979 H   0  0  0  0  0  0  0  0  0  0  0  0
    1.2760   -2.4431    0.8591 H   0  0  0  0  0  0  0  0  0  0  0  0
    2.1484   -2.6685    2.4303 H   0  0  0  0  0  0  0  0  0  0  0  0
    4.4204   -2.9897    2.2145 H   0  0  0  0  0  0  0  0  0  0  0  0
    6.8951   -2.7684    2.0323 H   0  0  0  0  0  0  0  0  0  0  0  0
    7.9157   -0.7646    0.9900 H   0  0  0  0  0  0  0  0  0  0  0  0
    6.4162    1.0337    0.1232 H   0  0  0  0  0  0  0  0  0  0  0  0
  1  2  1  0
  2  3  2  0
  3  4  1  0
  4  5  1  0
  5  6  1  0
  5  7  1  0
  7  8  2  0
  7  9  1  0
  9 10  1  0
  9 11  1  0
 11 12  2  0
 11 13  1  0
 13 14  1  0
 14 15  2  0
 15 16  1  0
 16 17  2  0
 16 18  1  0
 18 19  1  0
 19 20  1  0
 20 21  1  0
 21 22  2  0
 22 23  1  0
 22 24  1  0
 24 25  1  0
 24 26  1  0
 26 27  2  0
 27 28  1  0
 28 29  2  0
 29 30  1  0
 30 31  2  0
 15  2  1  0
 23 18  1  0
 31 26  1  0
 13  4  2  0
 31 21  1  0
  1 32  1  0
  1 33  1  0
  1 34  1  0
  3 35  1  0
  6 36  1  0
  6 37  1  0
  6 38  1  0
 10 39  1  0
 10 40  1  0
 10 41  1  0
 14 42  1  0
 19 43  1  0
 19 44  1  0
 20 45  1  0
 20 46  1  0
 23 47  1  0
 23 48  1  0
 25 49  1  0
 25 50  1  0
 25 51  1  0
 27 52  1  0
 28 53  1  0
 29 54  1  0
 30 55  1  0
M  END
$$$$
[H]N=C(N([H])[H])N([H])C([H])([H])C([H])([H])C([H])([H])[C@@]([H])(C(=O)N([H])[C@]([H])(C(=O)N([H])[C@]([H])(C(=O)O[H])C([H])([H])C([H])([H])C([H])([H])C([H])([H])N([H])[H])C([H])([H])C([H])([H])C([H])([H])N([H])C(=N[H])N([H])[H])N([H])C(=O)[C@@]([H])(N([H])C(=O)[C@@]([H])(N([H])C(=O)OC([H])([H])c1c([H])c([H])c([H])c([H])c1[H])C([H])([H])C(=O)O[H])C([H])([H])C([H])(C([H])([H])[H])C([H])([H])[H]
     RDKit          3D

118118  0  0  0  0  0  0  0  0999 V2000
   -1.6601    0.5083   -6.3799 C   0  0  0  0  0  0  0  0  0  0  0  0
   -1.1958    0.1829   -4.9340 C   0  0  0  0  0  0  0  0  0  0  0  0
   -0.7523   -1.2600   -4.9961 C   0  0  0  0  0  0  0  0  0  0  0  0
   -2.3627    0.4395   -4.0616 C   0  0  0  0  0  0  0  0  0  0  0  0
   -2.2558    0.2421   -2.6152 C   0  0  2  0  0  0  0  0  0  0  0  0
   -3.6309    0.5796   -2.0708 N   0  0  0  0  0  0  0  0  0  0  0  0
   -4.1665   -0.1060   -1.0207 C   0  0  0  0  0  0  0  0  0  0  0  0
   -3.3728   -1.0868   -0.5675 O   0  0  0  0  0  0  0  0  0  0  0  0
   -5.3996   -0.0358   -0.2511 C   0  0  2  0  0  0  0  0  0  0  0  0
   -5.6827    1.2721    0.4286 C   0  0  0  0  0  0  0  0  0  0  0  0
   -5.8898    2.3962   -0.4561 C   0  0  0  0  0  0  0  0  0  0  0  0
   -5.5864    3.7246   -0.1501 O   0  0  0  0  0  0  0  0  0  0  0  0
   -6.3823    2.2169   -1.6139 O   0  0  0  0  0  0  0  0  0  0  0  0
   -5.5140   -1.0489    0.7809 N   0  0  0  0  0  0  0  0  0  0  0  0
   -6.5881   -1.9519    0.8211 C   0  0  0  0  0  0  0  0  0  0  0  0
   -7.4811   -1.8663   -0.0902 O   0  0  0  0  0  0  0  0  0  0  0  0
   -6.7080   -2.9071    1.7920 O   0  0  0  0  0  0  0  0  0  0  0  0
   -7.7325   -3.8395    1.9276 C   0  0  0  0  0  0  0  0  0  0  0  0
   -7.4303   -4.7026    3.1280 C   0  0  0  0  0  0  0  0  0  0  0  0
   -6.7652   -5.8774    2.9901 C   0  0  0  0  0  0  0  0  0  0  0  0
   -6.4868   -6.6520    4.1141 C   0  0  0  0  0  0  0  0  0  0  0  0
   -6.9071   -6.1855    5.3389 C   0  0  0  0  0  0  0  0  0  0  0  0
   -7.5760   -4.9966    5.4467 C   0  0  0  0  0  0  0  0  0  0  0  0
   -7.8660   -4.2057    4.3441 C   0  0  0  0  0  0  0  0  0  0  0  0
   -1.3390    1.2737   -1.9789 C   0  0  0  0  0  0  0  0  0  0  0  0
   -1.9016    2.1823   -1.2848 O   0  0  0  0  0  0  0  0  0  0  0  0
    0.0528    1.2762   -2.1052 N   0  0  0  0  0  0  0  0  0  0  0  0
    1.0330    2.1650   -1.5981 C   0  0  1  0  0  0  0  0  0  0  0  0
    0.6913    3.3850   -0.8535 C   0  0  0  0  0  0  0  0  0  0  0  0
    0.0023    4.4925   -1.5838 C   0  0  0  0  0  0  0  0  0  0  0  0
   -0.3017    5.5880   -0.5460 C   0  0  0  0  0  0  0  0  0  0  0  0
   -0.9660    6.7218   -1.1416 N   0  0  0  0  0  0  0  0  0  0  0  0
   -0.3281    7.5959   -2.0412 C   0  0  0  0  0  0  0  0  0  0  0  0
    1.0725    7.5448   -2.2754 N   0  0  0  0  0  0  0  0  0  0  0  0
   -1.0115    8.4794   -2.6772 N   0  0  0  0  0  0  0  0  0  0  0  0
    2.2126    1.4736   -1.0844 C   0  0  0  0  0  0  0  0  0  0  0  0
    2.7734    0.5495   -1.7678 O   0  0  0  0  0  0  0  0  0  0  0  0
    2.8249    1.7587    0.1920 N   0  0  0  0  0  0  0  0  0  0  0  0
    4.0262    1.0336    0.5814 C   0  0  1  0  0  0  0  0  0  0  0  0
    4.7525    1.7509    1.6889 C   0  0  0  0  0  0  0  0  0  0  0  0
    5.1497    3.1158    1.2343 C   0  0  0  0  0  0  0  0  0  0  0  0
    5.8418    3.9322    2.2976 C   0  0  0  0  0  0  0  0  0  0  0  0
    7.0398    3.2698    2.7609 N   0  0  0  0  0  0  0  0  0  0  0  0
    7.8869    3.8415    3.7464 C   0  0  0  0  0  0  0  0  0  0  0  0
    8.3196    5.1945    3.7490 N   0  0  0  0  0  0  0  0  0  0  0  0
    8.2905    3.0715    4.7108 N   0  0  0  0  0  0  0  0  0  0  0  0
    3.6675   -0.3787    1.0440 C   0  0  0  0  0  0  0  0  0  0  0  0
    2.6613   -0.4953    1.7466 O   0  0  0  0  0  0  0  0  0  0  0  0
    4.4628   -1.4532    0.6638 N   0  0  0  0  0  0  0  0  0  0  0  0
    4.2021   -2.8292    1.0622 C   0  0  1  0  0  0  0  0  0  0  0  0
    3.2018   -3.3885    0.1123 C   0  0  0  0  0  0  0  0  0  0  0  0
    2.7910   -4.7928    0.1985 C   0  0  0  0  0  0  0  0  0  0  0  0
    3.8186   -5.7511   -0.3144 C   0  0  0  0  0  0  0  0  0  0  0  0
    3.3951   -7.2142   -0.1277 C   0  0  0  0  0  0  0  0  0  0  0  0
    3.1912   -7.5113    1.2676 N   0  0  0  0  0  0  0  0  0  0  0  0
    5.4125   -3.5524    1.3567 C   0  0  0  0  0  0  0  0  0  0  0  0
    5.5219   -4.5250    2.3801 O   0  0  0  0  0  0  0  0  0  0  0  0
    6.5074   -3.3723    0.7175 O   0  0  0  0  0  0  0  0  0  0  0  0
   -1.8630    1.5754   -6.5003 H   0  0  0  0  0  0  0  0  0  0  0  0
   -2.5997   -0.0587   -6.5145 H   0  0  0  0  0  0  0  0  0  0  0  0
   -0.8962    0.1223   -7.0836 H   0  0  0  0  0  0  0  0  0  0  0  0
   -0.3472    0.8579   -4.7812 H   0  0  0  0  0  0  0  0  0  0  0  0
   -1.4346   -1.7792   -5.7329 H   0  0  0  0  0  0  0  0  0  0  0  0
   -0.9297   -1.7656   -4.0250 H   0  0  0  0  0  0  0  0  0  0  0  0
    0.2942   -1.2869   -5.3255 H   0  0  0  0  0  0  0  0  0  0  0  0
   -2.6817    1.5133   -4.2562 H   0  0  0  0  0  0  0  0  0  0  0  0
   -3.2607   -0.1332   -4.4539 H   0  0  0  0  0  0  0  0  0  0  0  0
   -1.9296   -0.7009   -2.2092 H   0  0  0  0  0  0  0  0  0  0  0  0
   -4.0753    1.3543   -2.5788 H   0  0  0  0  0  0  0  0  0  0  0  0
   -6.2669   -0.1804   -0.9682 H   0  0  0  0  0  0  0  0  0  0  0  0
   -4.9456    1.4865    1.2396 H   0  0  0  0  0  0  0  0  0  0  0  0
   -6.6498    1.1049    0.9998 H   0  0  0  0  0  0  0  0  0  0  0  0
   -5.8158    4.4984   -0.7295 H   0  0  0  0  0  0  0  0  0  0  0  0
   -4.7789   -1.0925    1.5097 H   0  0  0  0  0  0  0  0  0  0  0  0
   -8.6969   -3.3377    2.1198 H   0  0  0  0  0  0  0  0  0  0  0  0
   -7.8358   -4.4996    1.0472 H   0  0  0  0  0  0  0  0  0  0  0  0
   -6.4521   -6.2090    2.0082 H   0  0  0  0  0  0  0  0  0  0  0  0
   -5.9614   -7.5843    4.0426 H   0  0  0  0  0  0  0  0  0  0  0  0
   -6.7012   -6.7743    6.2320 H   0  0  0  0  0  0  0  0  0  0  0  0
   -7.8895   -4.6636    6.4324 H   0  0  0  0  0  0  0  0  0  0  0  0
   -8.3834   -3.2837    4.4454 H   0  0  0  0  0  0  0  0  0  0  0  0
    0.4272    0.4186   -2.6698 H   0  0  0  0  0  0  0  0  0  0  0  0
    1.4611    2.6912   -2.6238 H   0  0  0  0  0  0  0  0  0  0  0  0
   -0.0091    3.1065   -0.0050 H   0  0  0  0  0  0  0  0  0  0  0  0
    1.6184    3.8669   -0.4052 H   0  0  0  0  0  0  0  0  0  0  0  0
    0.8338    4.9929   -2.1999 H   0  0  0  0  0  0  0  0  0  0  0  0
   -0.7932    4.2963   -2.2619 H   0  0  0  0  0  0  0  0  0  0  0  0
    0.6345    5.9185   -0.0567 H   0  0  0  0  0  0  0  0  0  0  0  0
   -0.9034    5.1244    0.2690 H   0  0  0  0  0  0  0  0  0  0  0  0
   -1.9698    6.8528   -0.8642 H   0  0  0  0  0  0  0  0  0  0  0  0
    1.7181    7.9640   -1.6011 H   0  0  0  0  0  0  0  0  0  0  0  0
    1.5121    7.0920   -3.1183 H   0  0  0  0  0  0  0  0  0  0  0  0
   -2.0374    8.5240   -2.5049 H   0  0  0  0  0  0  0  0  0  0  0  0
    2.4080    2.4686    0.8128 H   0  0  0  0  0  0  0  0  0  0  0  0
    4.5850    0.8616   -0.3409 H   0  0  0  0  0  0  0  0  0  0  0  0
    5.6289    1.1344    2.0208 H   0  0  0  0  0  0  0  0  0  0  0  0
    4.1233    1.8566    2.6001 H   0  0  0  0  0  0  0  0  0  0  0  0
    5.8490    2.9984    0.3591 H   0  0  0  0  0  0  0  0  0  0  0  0
    4.2594    3.6226    0.8396 H   0  0  0  0  0  0  0  0  0  0  0  0
    6.1521    4.8942    1.7989 H   0  0  0  0  0  0  0  0  0  0  0  0
    5.1454    4.2006    3.1241 H   0  0  0  0  0  0  0  0  0  0  0  0
    7.3127    2.3427    2.3686 H   0  0  0  0  0  0  0  0  0  0  0  0
    8.1771    5.7563    4.6120 H   0  0  0  0  0  0  0  0  0  0  0  0
    8.7637    5.6407    2.9267 H   0  0  0  0  0  0  0  0  0  0  0  0
    7.9821    2.0863    4.7152 H   0  0  0  0  0  0  0  0  0  0  0  0
    5.2981   -1.3174    0.0658 H   0  0  0  0  0  0  0  0  0  0  0  0
    3.6390   -2.7434    2.0869 H   0  0  0  0  0  0  0  0  0  0  0  0
    2.3277   -2.6701    0.0756 H   0  0  0  0  0  0  0  0  0  0  0  0
    3.6409   -3.2415   -0.9380 H   0  0  0  0  0  0  0  0  0  0  0  0
    2.5444   -5.0819    1.2814 H   0  0  0  0  0  0  0  0  0  0  0  0
    1.8303   -4.9470   -0.3623 H   0  0  0  0  0  0  0  0  0  0  0  0
    3.7649   -5.5764   -1.4802 H   0  0  0  0  0  0  0  0  0  0  0  0
    4.8180   -5.5633   -0.0657 H   0  0  0  0  0  0  0  0  0  0  0  0
    4.1446   -7.8823   -0.5548 H   0  0  0  0  0  0  0  0  0  0  0  0
    2.4315   -7.3056   -0.6765 H   0  0  0  0  0  0  0  0  0  0  0  0
    4.1588   -7.6225    1.6958 H   0  0  0  0  0  0  0  0  0  0  0  0
    2.6565   -8.4056    1.3339 H   0  0  0  0  0  0  0  0  0  0  0  0
    6.4047   -4.7901    2.7894 H   0  0  0  0  0  0  0  0  0  0  0  0
  1  2  1  0
  2  3  1  0
  2  4  1  0
  4  5  1  0
  5  6  1  0
  6  7  1  0
  7  8  2  0
  7  9  1  0
  9 10  1  0
 10 11  1  0
 11 12  1  0
 11 13  2  0
  9 14  1  0
 14 15  1  0
 15 16  2  0
 15 17  1  0
 17 18  1  0
 18 19  1  0
 19 20  2  0
 20 21  1  0
 21 22  2  0
 22 23  1  0
 23 24  2  0
  5 25  1  0
 25 26  2  0
 25 27  1  0
 27 28  1  0
 28 29  1  0
 29 30  1  0
 30 31  1  0
 31 32  1  0
 32 33  1  0
 33 34  1  0
 33 35  2  3
 28 36  1  0
 36 37  2  0
 36 38  1  0
 38 39  1  0
 39 40  1  0
 40 41  1  0
 41 42  1  0
 42 43  1  0
 43 44  1  0
 44 45  1  0
 44 46  2  3
 39 47  1  0
 47 48  2  0
 47 49  1  0
 49 50  1  0
 50 51  1  0
 51 52  1  0
 52 53  1  0
 53 54  1  0
 54 55  1  0
 50 56  1  0
 56 57  1  0
 56 58  2  0
 24 19  1  0
  1 59  1  0
  1 60  1  0
  1 61  1  0
  2 62  1  0
  3 63  1  0
  3 64  1  0
  3 65  1  0
  4 66  1  0
  4 67  1  0
  5 68  1  6
  6 69  1  0
  9 70  1  6
 10 71  1  0
 10 72  1  0
 12 73  1  0
 14 74  1  0
 18 75  1  0
 18 76  1  0
 20 77  1  0
 21 78  1  0
 22 79  1  0
 23 80  1  0
 24 81  1  0
 27 82  1  0
 28 83  1  6
 29 84  1  0
 29 85  1  0
 30 86  1  0
 30 87  1  0
 31 88  1  0
 31 89  1  0
 32 90  1  0
 34 91  1  0
 34 92  1  0
 35 93  1  0
 38 94  1  0
 39 95  1  6
 40 96  1  0
 40 97  1  0
 41 98  1  0
 41 99  1  0
 42100  1  0
 42101  1  0
 43102  1  0
 45103  1  0
 45104  1  0
 46105  1  0
 49106  1  0
 50107  1  1
 51108  1  0
 51109  1  0
 52110  1  0
 52111  1  0
 53112  1  0
 53113  1  0
 54114  1  0
 54115  1  0
 55116  1  0
 55117  1  0
 57118  1  0
M  END
$$$$
[H]O[C@@]1([H])C([H])([H])N(c2nc3c([H])c(-c4noc(=O)n4[H])nc(-c4c([H])nc([H])c(Cl)c4[H])c3n2C([H])([H])[C@]2([H])C([H])([H])C([H])([H])[C@@]([H])(C([H])([H])[H])C([H])([H])C2([H])[H])[C@]([H])(C([H])([H])[H])C1([H])[H]
     RDKit          3D

 67 72  0  0  0  0  0  0  0  0999 V2000
    4.6800    0.4742    1.7288 C   0  0  0  0  0  0  0  0  0  0  0  0
    4.0564   -0.8765    1.8732 C   0  0  1  0  0  0  0  0  0  0  0  0
    2.7462   -0.7374    2.6021 C   0  0  0  0  0  0  0  0  0  0  0  0
    1.5995   -0.9049    1.6057 C   0  0  0  0  0  0  0  0  0  0  0  0
    1.8107   -0.0705    0.3875 C   0  0  2  0  0  0  0  0  0  0  0  0
    0.6766   -0.0175   -0.5472 C   0  0  0  0  0  0  0  0  0  0  0  0
   -0.5878    0.4407   -0.1682 N   0  0  0  0  0  0  0  0  0  0  0  0
   -0.9500    1.7513   -0.0299 C   0  0  0  0  0  0  0  0  0  0  0  0
   -2.2229    1.8439    0.3678 N   0  0  0  0  0  0  0  0  0  0  0  0
   -2.7021    0.6242    0.4893 C   0  0  0  0  0  0  0  0  0  0  0  0
   -3.9668    0.1732    0.8759 C   0  0  0  0  0  0  0  0  0  0  0  0
   -4.2543   -1.1667    0.9316 C   0  0  0  0  0  0  0  0  0  0  0  0
   -3.3057   -2.0239    0.6072 N   0  0  0  0  0  0  0  0  0  0  0  0
   -2.0521   -1.5908    0.2227 C   0  0  0  0  0  0  0  0  0  0  0  0
   -1.2104   -2.6935   -0.1653 C   0  0  0  0  0  0  0  0  0  0  0  0
   -0.8868   -3.6351    0.7771 C   0  0  0  0  0  0  0  0  0  0  0  0
   -0.2482   -4.7545    0.4233 N   0  0  0  0  0  0  0  0  0  0  0  0
    0.0986   -5.0008   -0.8516 C   0  0  0  0  0  0  0  0  0  0  0  0
   -0.1971   -4.0954   -1.8482 C   0  0  0  0  0  0  0  0  0  0  0  0
    0.2397   -4.3854   -3.5170 Cl  0  0  0  0  0  0  0  0  0  0  0  0
   -0.8660   -2.9319   -1.4507 C   0  0  0  0  0  0  0  0  0  0  0  0
   -1.6844   -0.2770    0.1501 C   0  0  0  0  0  0  0  0  0  0  0  0
   -5.5926   -1.6111    1.3450 C   0  0  0  0  0  0  0  0  0  0  0  0
   -5.9822   -2.8907    1.4344 N   0  0  0  0  0  0  0  0  0  0  0  0
   -7.2325   -2.9416    1.8302 O   0  0  0  0  0  0  0  0  0  0  0  0
   -7.6540   -1.7100    1.9974 C   0  0  0  0  0  0  0  0  0  0  0  0
   -8.8211   -1.4457    2.3754 O   0  0  0  0  0  0  0  0  0  0  0  0
   -6.6371   -0.8646    1.6971 N   0  0  0  0  0  0  0  0  0  0  0  0
   -0.1037    2.8532   -0.2909 N   0  0  0  0  0  0  0  0  0  0  0  0
    0.8083    3.5253    0.5793 C   0  0  0  0  0  0  0  0  0  0  0  0
    1.9426    3.9418   -0.3469 C   0  0  2  0  0  0  0  0  0  0  0  0
    2.2941    5.2784   -0.1540 O   0  0  0  0  0  0  0  0  0  0  0  0
    1.4060    3.7955   -1.7535 C   0  0  0  0  0  0  0  0  0  0  0  0
   -0.0473    3.5600   -1.5373 C   0  0  1  0  0  0  0  0  0  0  0  0
   -0.7698    2.9031   -2.6798 C   0  0  0  0  0  0  0  0  0  0  0  0
    2.9590   -0.8117   -0.3552 C   0  0  0  0  0  0  0  0  0  0  0  0
    3.8284   -1.5811    0.5800 C   0  0  0  0  0  0  0  0  0  0  0  0
    4.0832    1.2987    2.1747 H   0  0  0  0  0  0  0  0  0  0  0  0
    4.7746    0.6954    0.6482 H   0  0  0  0  0  0  0  0  0  0  0  0
    5.6785    0.5336    2.2438 H   0  0  0  0  0  0  0  0  0  0  0  0
    4.7599   -1.5060    2.4746 H   0  0  0  0  0  0  0  0  0  0  0  0
    2.6551    0.2214    3.1504 H   0  0  0  0  0  0  0  0  0  0  0  0
    2.6609   -1.5516    3.3260 H   0  0  0  0  0  0  0  0  0  0  0  0
    0.6798   -0.7265    2.1546 H   0  0  0  0  0  0  0  0  0  0  0  0
    1.6529   -1.9936    1.3239 H   0  0  0  0  0  0  0  0  0  0  0  0
    2.3137    0.8942    0.6061 H   0  0  0  0  0  0  0  0  0  0  0  0
    0.6736   -0.9153   -1.1456 H   0  0  0  0  0  0  0  0  0  0  0  0
    1.0234    0.7605   -1.3489 H   0  0  0  0  0  0  0  0  0  0  0  0
   -4.7092    0.9102    1.1289 H   0  0  0  0  0  0  0  0  0  0  0  0
   -1.1534   -3.4633    1.8104 H   0  0  0  0  0  0  0  0  0  0  0  0
    0.6130   -5.9254   -1.0695 H   0  0  0  0  0  0  0  0  0  0  0  0
   -1.0851   -2.2331   -2.2732 H   0  0  0  0  0  0  0  0  0  0  0  0
   -6.6793    0.1608    1.7382 H   0  0  0  0  0  0  0  0  0  0  0  0
    0.3738    4.4549    1.0025 H   0  0  0  0  0  0  0  0  0  0  0  0
    1.1815    2.8499    1.3994 H   0  0  0  0  0  0  0  0  0  0  0  0
    2.8458    3.3191   -0.1829 H   0  0  0  0  0  0  0  0  0  0  0  0
    2.1479    5.5679    0.7820 H   0  0  0  0  0  0  0  0  0  0  0  0
    1.5815    4.7282   -2.3552 H   0  0  0  0  0  0  0  0  0  0  0  0
    1.9180    2.9375   -2.2271 H   0  0  0  0  0  0  0  0  0  0  0  0
   -0.5296    4.5615   -1.3649 H   0  0  0  0  0  0  0  0  0  0  0  0
   -1.0252    3.6841   -3.4144 H   0  0  0  0  0  0  0  0  0  0  0  0
   -0.1793    2.0683   -3.0979 H   0  0  0  0  0  0  0  0  0  0  0  0
   -1.7198    2.4922   -2.2717 H   0  0  0  0  0  0  0  0  0  0  0  0
    2.4685   -1.5277   -1.0759 H   0  0  0  0  0  0  0  0  0  0  0  0
    3.5347   -0.1245   -0.9737 H   0  0  0  0  0  0  0  0  0  0  0  0
    3.4710   -2.6218    0.7160 H   0  0  0  0  0  0  0  0  0  0  0  0
    4.8184   -1.6963    0.0612 H   0  0  0  0  0  0  0  0  0  0  0  0
  1  2  1  0
  2  3  1  0
  3  4  1  0
  4  5  1  0
  5  6  1  0
  6  7  1  0
  7  8  1  0
  8  9  2  0
  9 10  1  0
 10 11  2  0
 11 12  1  0
 12 13  2  0
 13 14  1  0
 14 15  1  0
 15 16  2  0
 16 17  1  0
 17 18  2  0
 18 19  1  0
 19 20  1  0
 19 21  2  0
 14 22  2  0
 12 23  1  0
 23 24  2  0
 24 25  1  0
 25 26  1  0
 26 27  2  0
 26 28  1  0
  8 29  1  0
 29 30  1  0
 30 31  1  0
 31 32  1  0
 31 33  1  0
 33 34  1  0
 34 35  1  0
  5 36  1  0
 36 37  1  0
 37  2  1  0
 22  7  1  0
 28 23  1  0
 34 29  1  0
 22 10  1  0
 21 15  1  0
  1 38  1  0
  1 39  1  0
  1 40  1  0
  2 41  1  1
  3 42  1  0
  3 43  1  0
  4 44  1  0
  4 45  1  0
  5 46  1  1
  6 47  1  0
  6 48  1  0
 11 49  1  0
 16 50  1  0
 18 51  1  0
 21 52  1  0
 28 53  1  0
 30 54  1  0
 30 55  1  0
 31 56  1  6
 32 57  1  0
 33 58  1  0
 33 59  1  0
 34 60  1  1
 35 61  1  0
 35 62  1  0
 35 63  1  0
 36 64  1  0
 36 65  1  0
 37 66  1  0
 37 67  1  0
M  END
$$$$
[H]c1nc2c(c([H])c([H])n2[H])c(-c2nc(N3C([H])([H])C([H])([H])OC([H])([H])[C@@]3([H])C([H])([H])[H])nc(C3(S(=O)(=O)C([H])([H])[H])C([H])([H])C3([H])[H])c2[H])c1[H]
     RDKit          3D

 52 56  0  0  0  0  0  0  0  0999 V2000
    3.0384   -1.1359   -2.3362 C   0  0  0  0  0  0  0  0  0  0  0  0
    3.7136   -0.5191   -1.1630 C   0  0  2  0  0  0  0  0  0  0  0  0
    4.7364   -1.4429   -0.5219 C   0  0  0  0  0  0  0  0  0  0  0  0
    5.4951   -0.7623    0.3875 O   0  0  0  0  0  0  0  0  0  0  0  0
    4.9795    0.3869    0.9129 C   0  0  0  0  0  0  0  0  0  0  0  0
    3.4808    0.3922    1.1154 C   0  0  0  0  0  0  0  0  0  0  0  0
    2.8558   -0.0743   -0.1100 N   0  0  0  0  0  0  0  0  0  0  0  0
    1.4253   -0.0626   -0.1358 C   0  0  0  0  0  0  0  0  0  0  0  0
    0.8264    1.1068    0.1836 N   0  0  0  0  0  0  0  0  0  0  0  0
   -0.4998    1.2844    0.2367 C   0  0  0  0  0  0  0  0  0  0  0  0
   -1.2694    0.1604   -0.0649 C   0  0  0  0  0  0  0  0  0  0  0  0
   -0.6794   -1.0379   -0.3891 C   0  0  0  0  0  0  0  0  0  0  0  0
    0.6673   -1.1066   -0.4148 N   0  0  0  0  0  0  0  0  0  0  0  0
   -1.4865   -2.1915   -0.7617 C   0  0  0  0  0  0  0  0  0  0  0  0
   -1.0408   -3.0766   -1.7489 C   0  0  0  0  0  0  0  0  0  0  0  0
   -1.7888   -4.1880   -2.0674 C   0  0  0  0  0  0  0  0  0  0  0  0
   -2.9434   -4.4255   -1.4335 N   0  0  0  0  0  0  0  0  0  0  0  0
   -3.4034   -3.6056   -0.4844 C   0  0  0  0  0  0  0  0  0  0  0  0
   -4.5039   -3.6729    0.2877 N   0  0  0  0  0  0  0  0  0  0  0  0
   -4.5300   -2.6411    1.1279 C   0  0  0  0  0  0  0  0  0  0  0  0
   -3.4038   -1.8709    0.8944 C   0  0  0  0  0  0  0  0  0  0  0  0
   -2.6759   -2.4617   -0.1261 C   0  0  0  0  0  0  0  0  0  0  0  0
   -1.1175    2.5870    0.5980 C   0  0  0  0  0  0  0  0  0  0  0  0
   -0.9476    3.6840   -0.4379 C   0  0  0  0  0  0  0  0  0  0  0  0
   -0.1174    3.7311    0.7836 C   0  0  0  0  0  0  0  0  0  0  0  0
   -2.6222    2.6465    1.4968 S   0  0  0  0  0  0  0  0  0  0  0  0
   -3.0160    4.3688    1.7685 C   0  0  0  0  0  0  0  0  0  0  0  0
   -3.7324    2.0743    0.6356 O   0  0  0  0  0  0  0  0  0  0  0  0
   -2.4959    1.8971    2.7780 O   0  0  0  0  0  0  0  0  0  0  0  0
    3.8503   -1.3658   -3.0802 H   0  0  0  0  0  0  0  0  0  0  0  0
    2.4173   -0.3578   -2.8743 H   0  0  0  0  0  0  0  0  0  0  0  0
    2.4890   -2.0538   -2.1511 H   0  0  0  0  0  0  0  0  0  0  0  0
    4.2456    0.3998   -1.5611 H   0  0  0  0  0  0  0  0  0  0  0  0
    4.1607   -2.2125    0.0323 H   0  0  0  0  0  0  0  0  0  0  0  0
    5.3305   -1.8992   -1.3492 H   0  0  0  0  0  0  0  0  0  0  0  0
    5.3345    1.3299    0.4413 H   0  0  0  0  0  0  0  0  0  0  0  0
    5.4114    0.4509    1.9677 H   0  0  0  0  0  0  0  0  0  0  0  0
    3.1655    1.4143    1.4070 H   0  0  0  0  0  0  0  0  0  0  0  0
    3.2691   -0.3270    1.9513 H   0  0  0  0  0  0  0  0  0  0  0  0
   -2.3427    0.2916   -0.0858 H   0  0  0  0  0  0  0  0  0  0  0  0
   -0.0982   -2.8822   -2.2527 H   0  0  0  0  0  0  0  0  0  0  0  0
   -1.4798   -4.9017   -2.8342 H   0  0  0  0  0  0  0  0  0  0  0  0
   -5.2758   -4.4026    0.2838 H   0  0  0  0  0  0  0  0  0  0  0  0
   -5.2743   -2.4067    1.8730 H   0  0  0  0  0  0  0  0  0  0  0  0
   -3.1537   -0.9741    1.4570 H   0  0  0  0  0  0  0  0  0  0  0  0
   -0.4706    3.4084   -1.4039 H   0  0  0  0  0  0  0  0  0  0  0  0
   -1.7460    4.4659   -0.5032 H   0  0  0  0  0  0  0  0  0  0  0  0
   -0.2885    4.4576    1.5952 H   0  0  0  0  0  0  0  0  0  0  0  0
    0.9492    3.4870    0.6321 H   0  0  0  0  0  0  0  0  0  0  0  0
   -3.3570    4.7555    0.7824 H   0  0  0  0  0  0  0  0  0  0  0  0
   -3.8988    4.3775    2.4445 H   0  0  0  0  0  0  0  0  0  0  0  0
   -2.1819    4.9010    2.2171 H   0  0  0  0  0  0  0  0  0  0  0  0
  1  2  1  0
  2  3  1  0
  3  4  1  0
  4  5  1  0
  5  6  1  0
  6  7  1  0
  7  8  1  0
  8  9  2  0
  9 10  1  0
 10 11  2  0
 11 12  1  0
 12 13  2  0
 12 14  1  0
 14 15  2  0
 15 16  1  0
 16 17  2  0
 17 18  1  0
 18 19  1  0
 19 20  1  0
 20 21  2  0
 21 22  1  0
 10 23  1  0
 23 24  1  0
 24 25  1  0
 23 26  1  0
 26 27  1  0
 26 28  2  0
 26 29  2  0
  7  2  1  0
 13  8  1  0
 22 14  1  0
 25 23  1  0
 22 18  2  0
  1 30  1  0
  1 31  1  0
  1 32  1  0
  2 33  1  6
  3 34  1  0
  3 35  1  0
  5 36  1  0
  5 37  1  0
  6 38  1  0
  6 39  1  0
 11 40  1  0
 15 41  1  0
 16 42  1  0
 19 43  1  0
 20 44  1  0
 21 45  1  0
 24 46  1  0
 24 47  1  0
 25 48  1  0
 25 49  1  0
 27 50  1  0
 27 51  1  0
 27 52  1  0
M  END
$$$$
[H]c1c([H])c(C(F)(F)F)c([H])c(C([H])([H])Oc2c([H])c([H])c3c(C([H])([H])[H])c(C([H])([H])[H])c(=O)oc3c2[H])c1[H]
     RDKit          3D

 40 42  0  0  0  0  0  0  0  0999 V2000
   -5.0803   -0.1947   -1.3925 C   0  0  0  0  0  0  0  0  0  0  0  0
   -4.2134    0.3478   -0.3242 C   0  0  0  0  0  0  0  0  0  0  0  0
   -4.7515    1.2417    0.5791 C   0  0  0  0  0  0  0  0  0  0  0  0
   -6.1591    1.7165    0.5914 C   0  0  0  0  0  0  0  0  0  0  0  0
   -3.8817    1.7608    1.5466 C   0  0  0  0  0  0  0  0  0  0  0  0
   -4.3562    2.5849    2.3910 O   0  0  0  0  0  0  0  0  0  0  0  0
   -2.6249    1.4183    1.5942 O   0  0  0  0  0  0  0  0  0  0  0  0
   -2.1099    0.5625    0.7327 C   0  0  0  0  0  0  0  0  0  0  0  0
   -0.7619    0.2267    0.8419 C   0  0  0  0  0  0  0  0  0  0  0  0
   -0.2262   -0.6771   -0.0569 C   0  0  0  0  0  0  0  0  0  0  0  0
    1.1162   -1.0326    0.0199 O   0  0  0  0  0  0  0  0  0  0  0  0
    1.9191   -0.4567    1.0284 C   0  0  0  0  0  0  0  0  0  0  0  0
    3.3274   -0.8384    0.6898 C   0  0  0  0  0  0  0  0  0  0  0  0
    3.6843   -2.1008    0.3696 C   0  0  0  0  0  0  0  0  0  0  0  0
    4.9868   -2.3434   -0.0576 C   0  0  0  0  0  0  0  0  0  0  0  0
    5.8903   -1.3006   -0.1493 C   0  0  0  0  0  0  0  0  0  0  0  0
    5.4987   -0.0243    0.1843 C   0  0  0  0  0  0  0  0  0  0  0  0
    4.2293    0.2264    0.6060 C   0  0  0  0  0  0  0  0  0  0  0  0
    6.4098    1.1756    0.1065 C   0  0  0  0  0  0  0  0  0  0  0  0
    5.7765    2.1279   -0.6958 F   0  0  0  0  0  0  0  0  0  0  0  0
    6.5317    1.6558    1.3859 F   0  0  0  0  0  0  0  0  0  0  0  0
    7.6054    0.8602   -0.4868 F   0  0  0  0  0  0  0  0  0  0  0  0
   -1.0101   -1.2591   -1.0690 C   0  0  0  0  0  0  0  0  0  0  0  0
   -2.3333   -0.9294   -1.1782 C   0  0  0  0  0  0  0  0  0  0  0  0
   -2.8699   -0.0201   -0.2711 C   0  0  0  0  0  0  0  0  0  0  0  0
   -4.9482    0.3700   -2.3512 H   0  0  0  0  0  0  0  0  0  0  0  0
   -4.8985   -1.2899   -1.5615 H   0  0  0  0  0  0  0  0  0  0  0  0
   -6.1597   -0.1317   -1.1498 H   0  0  0  0  0  0  0  0  0  0  0  0
   -6.3575    2.1330    1.6141 H   0  0  0  0  0  0  0  0  0  0  0  0
   -6.8986    0.9795    0.3049 H   0  0  0  0  0  0  0  0  0  0  0  0
   -6.1844    2.5428   -0.1910 H   0  0  0  0  0  0  0  0  0  0  0  0
   -0.1640    0.7031    1.6342 H   0  0  0  0  0  0  0  0  0  0  0  0
    1.6403   -0.8606    2.0380 H   0  0  0  0  0  0  0  0  0  0  0  0
    1.7916    0.6371    0.9901 H   0  0  0  0  0  0  0  0  0  0  0  0
    2.9579   -2.9249    0.4446 H   0  0  0  0  0  0  0  0  0  0  0  0
    5.2590   -3.3398   -0.3109 H   0  0  0  0  0  0  0  0  0  0  0  0
    6.9013   -1.4353   -0.4826 H   0  0  0  0  0  0  0  0  0  0  0  0
    3.9099    1.2100    0.8825 H   0  0  0  0  0  0  0  0  0  0  0  0
   -0.4954   -1.9638   -1.7063 H   0  0  0  0  0  0  0  0  0  0  0  0
   -2.9507   -1.3576   -1.9187 H   0  0  0  0  0  0  0  0  0  0  0  0
  1  2  1  0
  2  3  2  0
  3  4  1  0
  3  5  1  0
  5  6  2  0
  5  7  1  0
  7  8  1  0
  8  9  2  0
  9 10  1  0
 10 11  1  0
 11 12  1  0
 12 13  1  0
 13 14  2  0
 14 15  1  0
 15 16  2  0
 16 17  1  0
 17 18  2  0
 17 19  1  0
 19 20  1  0
 19 21  1  0
 19 22  1  0
 10 23  2  0
 23 24  1  0
 24 25  2  0
 25  2  1  0
 25  8  1  0
 18 13  1  0
  1 26  1  0
  1 27  1  0
  1 28  1  0
  4 29  1  0
  4 30  1  0
  4 31  1  0
  9 32  1  0
 12 33  1  0
 12 34  1  0
 14 35  1  0
 15 36  1  0
 16 37  1  0
 18 38  1  0
 23 39  1  0
 24 40  1  0
M  END
$$$$
[H]O[C@@]1([H])C([H])([H])C([H])([H])[C@@]2([H])C([H])([H])N3C([H])([H])C([H])([H])c4c(n([H])c5c([H])c([H])c([H])c([H])c45)[C@@]3([H])C([H])([H])C2([H])[C@@]1([H])C(=O)OC([H])([H])[H]
     RDKit          3D

 52 56  0  0  0  0  0  0  0  0999 V2000
   -4.7931    2.4678    2.4459 C   0  0  0  0  0  0  0  0  0  0  0  0
   -4.4882    1.5841    1.3956 O   0  0  0  0  0  0  0  0  0  0  0  0
   -3.3035    0.8641    1.3244 C   0  0  0  0  0  0  0  0  0  0  0  0
   -2.4802    1.0308    2.2609 O   0  0  0  0  0  0  0  0  0  0  0  0
   -3.0737   -0.0423    0.1776 C   0  0  1  0  0  0  0  0  0  0  0  0
   -3.0982    0.7171   -1.1260 C   0  0  1  0  0  0  0  0  0  0  0  0
   -2.2404    1.8081   -0.9921 O   0  0  0  0  0  0  0  0  0  0  0  0
   -2.7473   -0.1477   -2.2807 C   0  0  0  0  0  0  0  0  0  0  0  0
   -2.5947   -1.5989   -1.9868 C   0  0  0  0  0  0  0  0  0  0  0  0
   -1.7966   -1.9138   -0.7438 C   0  0  1  0  0  0  0  0  0  0  0  0
   -0.4548   -2.4487   -1.0860 C   0  0  0  0  0  0  0  0  0  0  0  0
    0.6244   -2.1085   -0.2399 N   0  0  0  0  0  0  0  0  0  0  0  0
    1.8610   -2.4125   -0.8887 C   0  0  0  0  0  0  0  0  0  0  0  0
    2.5312   -1.1548   -1.4013 C   0  0  0  0  0  0  0  0  0  0  0  0
    2.7947   -0.3156   -0.2128 C   0  0  0  0  0  0  0  0  0  0  0  0
    1.8161   -0.2111    0.7500 C   0  0  0  0  0  0  0  0  0  0  0  0
    2.2826    0.5994    1.7321 N   0  0  0  0  0  0  0  0  0  0  0  0
    3.5061    1.0245    1.4589 C   0  0  0  0  0  0  0  0  0  0  0  0
    4.4009    1.8446    2.1119 C   0  0  0  0  0  0  0  0  0  0  0  0
    5.6221    2.0792    1.5214 C   0  0  0  0  0  0  0  0  0  0  0  0
    5.9861    1.5338    0.3149 C   0  0  0  0  0  0  0  0  0  0  0  0
    5.0764    0.7158   -0.3227 C   0  0  0  0  0  0  0  0  0  0  0  0
    3.8435    0.4534    0.2306 C   0  0  0  0  0  0  0  0  0  0  0  0
    0.5492   -0.9482    0.5342 C   0  0  1  0  0  0  0  0  0  0  0  0
   -0.5607    0.0144    0.0707 C   0  0  0  0  0  0  0  0  0  0  0  0
   -1.8069   -0.8044    0.2595 C   0  0  0  0  0  0  0  0  0  0  0  0
   -5.1971    1.9273    3.3370 H   0  0  0  0  0  0  0  0  0  0  0  0
   -5.4859    3.2680    2.1386 H   0  0  0  0  0  0  0  0  0  0  0  0
   -3.8419    2.9436    2.7809 H   0  0  0  0  0  0  0  0  0  0  0  0
   -3.9143   -0.7664    0.1402 H   0  0  0  0  0  0  0  0  0  0  0  0
   -4.1328    1.1607   -1.2056 H   0  0  0  0  0  0  0  0  0  0  0  0
   -2.6135    2.6486   -1.3255 H   0  0  0  0  0  0  0  0  0  0  0  0
   -1.8633    0.2667   -2.8085 H   0  0  0  0  0  0  0  0  0  0  0  0
   -3.5906   -0.0596   -3.0286 H   0  0  0  0  0  0  0  0  0  0  0  0
   -2.0601   -2.0520   -2.8493 H   0  0  0  0  0  0  0  0  0  0  0  0
   -3.6050   -2.0668   -1.9833 H   0  0  0  0  0  0  0  0  0  0  0  0
   -2.3610   -2.7578   -0.2375 H   0  0  0  0  0  0  0  0  0  0  0  0
   -0.4494   -3.5733   -1.1892 H   0  0  0  0  0  0  0  0  0  0  0  0
   -0.2014   -2.0898   -2.1247 H   0  0  0  0  0  0  0  0  0  0  0  0
    1.7052   -3.1281   -1.7108 H   0  0  0  0  0  0  0  0  0  0  0  0
    2.5593   -2.8493   -0.1202 H   0  0  0  0  0  0  0  0  0  0  0  0
    3.4768   -1.4293   -1.9045 H   0  0  0  0  0  0  0  0  0  0  0  0
    1.9130   -0.6097   -2.1238 H   0  0  0  0  0  0  0  0  0  0  0  0
    1.7347    0.8538    2.5994 H   0  0  0  0  0  0  0  0  0  0  0  0
    4.1944    2.3086    3.0555 H   0  0  0  0  0  0  0  0  0  0  0  0
    6.3244    2.7196    2.0288 H   0  0  0  0  0  0  0  0  0  0  0  0
    6.9471    1.7114   -0.1615 H   0  0  0  0  0  0  0  0  0  0  0  0
    5.3584    0.2840   -1.2732 H   0  0  0  0  0  0  0  0  0  0  0  0
    0.2085   -1.2464    1.5733 H   0  0  0  0  0  0  0  0  0  0  0  0
   -0.4966    0.8849    0.7497 H   0  0  0  0  0  0  0  0  0  0  0  0
   -0.3260    0.2563   -0.9665 H   0  0  0  0  0  0  0  0  0  0  0  0
   -1.7387   -1.2358    1.3015 H   0  0  0  0  0  0  0  0  0  0  0  0
  1  2  1  0
  2  3  1  0
  3  4  2  0
  3  5  1  0
  5  6  1  0
  6  7  1  0
  6  8  1  0
  8  9  1  0
  9 10  1  0
 10 11  1  0
 11 12  1  0
 12 13  1  0
 13 14  1  0
 14 15  1  0
 15 16  2  0
 16 17  1  0
 17 18  1  0
 18 19  2  0
 19 20  1  0
 20 21  2  0
 21 22  1  0
 22 23  2  0
 16 24  1  0
 24 25  1  0
 25 26  1  0
 26  5  1  0
 26 10  1  0
 24 12  1  0
 23 15  1  0
 23 18  1  0
  1 27  1  0
  1 28  1  0
  1 29  1  0
  5 30  1  6
  6 31  1  6
  7 32  1  0
  8 33  1  0
  8 34  1  0
  9 35  1  0
  9 36  1  0
 10 37  1  1
 11 38  1  0
 11 39  1  0
 13 40  1  0
 13 41  1  0
 14 42  1  0
 14 43  1  0
 17 44  1  0
 19 45  1  0
 20 46  1  0
 21 47  1  0
 22 48  1  0
 24 49  1  1
 25 50  1  0
 25 51  1  0
 26 52  1  0
M  END
$$$$
[H]c1c([H])c([H])c(C([H])([H])N2C([H])([H])C([H])([H])C3(OC(=O)c4c([H])c([H])c([H])c([H])c43)C([H])([H])C2([H])[H])c([H])c1[H]
     RDKit          3D

 41 44  0  0  0  0  0  0  0  0999 V2000
   -4.4833   -0.7469    2.9339 O   0  0  0  0  0  0  0  0  0  0  0  0
   -3.6614   -0.5474    1.9862 C   0  0  0  0  0  0  0  0  0  0  0  0
   -2.3738   -1.0073    1.8532 O   0  0  0  0  0  0  0  0  0  0  0  0
   -1.7851   -0.5659    0.6605 C   0  0  0  0  0  0  0  0  0  0  0  0
   -1.3905   -1.7135   -0.2436 C   0  0  0  0  0  0  0  0  0  0  0  0
    0.0487   -2.0765    0.0323 C   0  0  0  0  0  0  0  0  0  0  0  0
    0.9588   -1.0270   -0.3859 N   0  0  0  0  0  0  0  0  0  0  0  0
    2.2864   -1.3426    0.0736 C   0  0  0  0  0  0  0  0  0  0  0  0
    3.3296   -0.3957   -0.3081 C   0  0  0  0  0  0  0  0  0  0  0  0
    4.5206   -0.3999    0.4309 C   0  0  0  0  0  0  0  0  0  0  0  0
    5.5555    0.4575    0.1295 C   0  0  0  0  0  0  0  0  0  0  0  0
    5.4361    1.3419   -0.9133 C   0  0  0  0  0  0  0  0  0  0  0  0
    4.2617    1.3755   -1.6744 C   0  0  0  0  0  0  0  0  0  0  0  0
    3.2459    0.5046   -1.3466 C   0  0  0  0  0  0  0  0  0  0  0  0
    0.5142    0.2781    0.0305 C   0  0  0  0  0  0  0  0  0  0  0  0
   -0.5895    0.2642    1.0403 C   0  0  0  0  0  0  0  0  0  0  0  0
   -2.8550    0.2369    0.0272 C   0  0  0  0  0  0  0  0  0  0  0  0
   -2.9110    0.9404   -1.1671 C   0  0  0  0  0  0  0  0  0  0  0  0
   -4.0272    1.6330   -1.5700 C   0  0  0  0  0  0  0  0  0  0  0  0
   -5.1444    1.6398   -0.7684 C   0  0  0  0  0  0  0  0  0  0  0  0
   -5.1214    0.9526    0.4211 C   0  0  0  0  0  0  0  0  0  0  0  0
   -3.9775    0.2510    0.8196 C   0  0  0  0  0  0  0  0  0  0  0  0
   -2.0067   -2.5997   -0.0603 H   0  0  0  0  0  0  0  0  0  0  0  0
   -1.4873   -1.3578   -1.2892 H   0  0  0  0  0  0  0  0  0  0  0  0
    0.1801   -2.2816    1.1071 H   0  0  0  0  0  0  0  0  0  0  0  0
    0.2766   -2.9997   -0.5405 H   0  0  0  0  0  0  0  0  0  0  0  0
    2.2822   -1.5381    1.1648 H   0  0  0  0  0  0  0  0  0  0  0  0
    2.5503   -2.3339   -0.3955 H   0  0  0  0  0  0  0  0  0  0  0  0
    4.6369   -1.0764    1.2440 H   0  0  0  0  0  0  0  0  0  0  0  0
    6.4586    0.4225    0.7247 H   0  0  0  0  0  0  0  0  0  0  0  0
    6.2482    2.0025   -1.1365 H   0  0  0  0  0  0  0  0  0  0  0  0
    4.1984    2.0876   -2.4939 H   0  0  0  0  0  0  0  0  0  0  0  0
    2.3338    0.5112   -1.9195 H   0  0  0  0  0  0  0  0  0  0  0  0
    0.2118    0.8389   -0.8758 H   0  0  0  0  0  0  0  0  0  0  0  0
    1.3638    0.8212    0.5023 H   0  0  0  0  0  0  0  0  0  0  0  0
   -0.9440    1.3095    1.1578 H   0  0  0  0  0  0  0  0  0  0  0  0
   -0.1604   -0.0320    2.0196 H   0  0  0  0  0  0  0  0  0  0  0  0
   -2.0056    0.9113   -1.7763 H   0  0  0  0  0  0  0  0  0  0  0  0
   -3.9729    2.1488   -2.5150 H   0  0  0  0  0  0  0  0  0  0  0  0
   -6.0100    2.1757   -1.0789 H   0  0  0  0  0  0  0  0  0  0  0  0
   -5.9915    0.9373    1.0814 H   0  0  0  0  0  0  0  0  0  0  0  0
  1  2  2  0
  2  3  1  0
  3  4  1  0
  4  5  1  0
  5  6  1  0
  6  7  1  0
  7  8  1  0
  8  9  1  0
  9 10  2  0
 10 11  1  0
 11 12  2  0
 12 13  1  0
 13 14  2  0
  7 15  1  0
 15 16  1  0
  4 17  1  0
 17 18  2  0
 18 19  1  0
 19 20  2  0
 20 21  1  0
 21 22  2  0
 22  2  1  0
 16  4  1  0
 22 17  1  0
 14  9  1  0
  5 23  1  0
  5 24  1  0
  6 25  1  0
  6 26  1  0
  8 27  1  0
  8 28  1  0
 10 29  1  0
 11 30  1  0
 12 31  1  0
 13 32  1  0
 14 33  1  0
 15 34  1  0
 15 35  1  0
 16 36  1  0
 16 37  1  0
 18 38  1  0
 19 39  1  0
 20 40  1  0
 21 41  1  0
M  END
$$$$
[H]c1nc(N([H])c2c([H])c([H])c(N3C([H])([H])C([H])([H])C([H])(N(C([H])([H])[H])C([H])([H])[H])C([H])([H])C3([H])[H])c([H])c2OC([H])([H])[H])nc(N([H])c2c([H])c([H])c([H])c([H])c2S(=O)(=O)C([H])(C([H])([H])[H])C([H])([H])[H])c1Cl
     RDKit          3D

 73 76  0  0  0  0  0  0  0  0999 V2000
   -1.4887   -3.5880    1.2680 C   0  0  0  0  0  0  0  0  0  0  0  0
   -0.7608   -2.5452    0.6863 O   0  0  0  0  0  0  0  0  0  0  0  0
   -1.4161   -1.4468    0.1649 C   0  0  0  0  0  0  0  0  0  0  0  0
   -2.7697   -1.3138    0.1835 C   0  0  0  0  0  0  0  0  0  0  0  0
   -3.4310   -0.2298   -0.3300 C   0  0  0  0  0  0  0  0  0  0  0  0
   -2.6699    0.7643   -0.8887 C   0  0  0  0  0  0  0  0  0  0  0  0
   -1.2837    0.6857   -0.9374 C   0  0  0  0  0  0  0  0  0  0  0  0
   -0.6456   -0.4090   -0.4169 C   0  0  0  0  0  0  0  0  0  0  0  0
    0.7306   -0.5530   -0.4331 N   0  0  0  0  0  0  0  0  0  0  0  0
    1.7028    0.3458   -0.9492 C   0  0  0  0  0  0  0  0  0  0  0  0
    1.4800    1.5214   -1.5269 N   0  0  0  0  0  0  0  0  0  0  0  0
    2.4593    2.3096   -1.9876 C   0  0  0  0  0  0  0  0  0  0  0  0
    3.7698    1.9304   -1.8818 C   0  0  0  0  0  0  0  0  0  0  0  0
    5.0878    2.9156   -2.4745 Cl  0  0  0  0  0  0  0  0  0  0  0  0
    4.0678    0.6884   -1.2753 C   0  0  0  0  0  0  0  0  0  0  0  0
    5.4172    0.3014   -1.1217 N   0  0  0  0  0  0  0  0  0  0  0  0
    5.8705   -0.9049   -0.5954 C   0  0  0  0  0  0  0  0  0  0  0  0
    5.0906   -2.0601   -0.5353 C   0  0  0  0  0  0  0  0  0  0  0  0
    5.6105   -3.2759   -0.1172 C   0  0  0  0  0  0  0  0  0  0  0  0
    6.9209   -3.3878    0.2545 C   0  0  0  0  0  0  0  0  0  0  0  0
    7.6858   -2.2549    0.1966 C   0  0  0  0  0  0  0  0  0  0  0  0
    7.2100   -1.0030   -0.2158 C   0  0  0  0  0  0  0  0  0  0  0  0
    8.2797    0.3289   -0.1092 S   0  0  0  0  0  0  0  0  0  0  0  0
    9.7039   -0.2341    0.1061 O   0  0  0  0  0  0  0  0  0  0  0  0
    8.4312    1.1263   -1.3815 O   0  0  0  0  0  0  0  0  0  0  0  0
    8.0255    1.4139    1.2573 C   0  0  0  0  0  0  0  0  0  0  0  0
    9.1794    2.4149    1.3719 C   0  0  0  0  0  0  0  0  0  0  0  0
    6.7769    2.1937    1.2396 C   0  0  0  0  0  0  0  0  0  0  0  0
    3.0226    0.0056   -0.8635 N   0  0  0  0  0  0  0  0  0  0  0  0
   -4.8624   -0.0923   -0.3072 N   0  0  0  0  0  0  0  0  0  0  0  0
   -5.5849   -1.1673    0.3276 C   0  0  0  0  0  0  0  0  0  0  0  0
   -7.0407   -0.9434    0.5155 C   0  0  0  0  0  0  0  0  0  0  0  0
   -7.4356    0.4949    0.3818 C   0  0  0  0  0  0  0  0  0  0  0  0
   -6.9640    0.9951   -0.9680 C   0  0  0  0  0  0  0  0  0  0  0  0
   -5.4597    1.0612   -0.8960 C   0  0  0  0  0  0  0  0  0  0  0  0
   -8.8564    0.6589    0.5708 N   0  0  0  0  0  0  0  0  0  0  0  0
   -9.2782    2.0230    0.4605 C   0  0  0  0  0  0  0  0  0  0  0  0
   -9.6390   -0.2430   -0.2416 C   0  0  0  0  0  0  0  0  0  0  0  0
   -0.7931   -4.1921    1.9054 H   0  0  0  0  0  0  0  0  0  0  0  0
   -1.9544   -4.2113    0.4616 H   0  0  0  0  0  0  0  0  0  0  0  0
   -2.2604   -3.2007    1.9817 H   0  0  0  0  0  0  0  0  0  0  0  0
   -3.3514   -2.1246    0.6360 H   0  0  0  0  0  0  0  0  0  0  0  0
   -3.1295    1.6488   -1.3125 H   0  0  0  0  0  0  0  0  0  0  0  0
   -0.7832    1.5103   -1.3929 H   0  0  0  0  0  0  0  0  0  0  0  0
    1.1068   -1.4691    0.0044 H   0  0  0  0  0  0  0  0  0  0  0  0
    2.2213    3.2667   -2.4541 H   0  0  0  0  0  0  0  0  0  0  0  0
    6.1140    0.9939   -1.4647 H   0  0  0  0  0  0  0  0  0  0  0  0
    4.0603   -2.0188   -0.8381 H   0  0  0  0  0  0  0  0  0  0  0  0
    4.9515   -4.1295   -0.0940 H   0  0  0  0  0  0  0  0  0  0  0  0
    7.3564   -4.3431    0.5885 H   0  0  0  0  0  0  0  0  0  0  0  0
    8.7315   -2.3610    0.4975 H   0  0  0  0  0  0  0  0  0  0  0  0
    8.1309    0.7711    2.1790 H   0  0  0  0  0  0  0  0  0  0  0  0
    9.2341    2.9999    0.4280 H   0  0  0  0  0  0  0  0  0  0  0  0
    8.8903    3.1190    2.1704 H   0  0  0  0  0  0  0  0  0  0  0  0
   10.1385    1.9091    1.5465 H   0  0  0  0  0  0  0  0  0  0  0  0
    6.6586    2.6546    0.2401 H   0  0  0  0  0  0  0  0  0  0  0  0
    5.9200    1.5461    1.5414 H   0  0  0  0  0  0  0  0  0  0  0  0
    6.8570    3.0425    1.9945 H   0  0  0  0  0  0  0  0  0  0  0  0
   -5.4057   -2.0834   -0.2985 H   0  0  0  0  0  0  0  0  0  0  0  0
   -5.1129   -1.3839    1.3330 H   0  0  0  0  0  0  0  0  0  0  0  0
   -7.3369   -1.2598    1.5530 H   0  0  0  0  0  0  0  0  0  0  0  0
   -7.5857   -1.5404   -0.2484 H   0  0  0  0  0  0  0  0  0  0  0  0
   -6.9204    1.0822    1.1579 H   0  0  0  0  0  0  0  0  0  0  0  0
   -7.3716    2.0047   -1.1693 H   0  0  0  0  0  0  0  0  0  0  0  0
   -7.2424    0.3151   -1.7855 H   0  0  0  0  0  0  0  0  0  0  0  0
   -5.0229    1.2094   -1.9181 H   0  0  0  0  0  0  0  0  0  0  0  0
   -5.2243    1.9555   -0.2465 H   0  0  0  0  0  0  0  0  0  0  0  0
   -9.3583    2.3936   -0.5797 H   0  0  0  0  0  0  0  0  0  0  0  0
   -8.5425    2.6556    1.0032 H   0  0  0  0  0  0  0  0  0  0  0  0
  -10.3018    2.1167    0.9062 H   0  0  0  0  0  0  0  0  0  0  0  0
  -10.5738    0.3178   -0.5167 H   0  0  0  0  0  0  0  0  0  0  0  0
   -9.1485   -0.5590   -1.1630 H   0  0  0  0  0  0  0  0  0  0  0  0
   -9.8879   -1.1629    0.3397 H   0  0  0  0  0  0  0  0  0  0  0  0
  1  2  1  0
  2  3  1  0
  3  4  2  0
  4  5  1  0
  5  6  2  0
  6  7  1  0
  7  8  2  0
  8  9  1  0
  9 10  1  0
 10 11  2  0
 11 12  1  0
 12 13  2  0
 13 14  1  0
 13 15  1  0
 15 16  1  0
 16 17  1  0
 17 18  2  0
 18 19  1  0
 19 20  2  0
 20 21  1  0
 21 22  2  0
 22 23  1  0
 23 24  2  0
 23 25  2  0
 23 26  1  0
 26 27  1  0
 26 28  1  0
 15 29  2  0
  5 30  1  0
 30 31  1  0
 31 32  1  0
 32 33  1  0
 33 34  1  0
 34 35  1  0
 33 36  1  0
 36 37  1  0
 36 38  1  0
  8  3  1  0
 29 10  1  0
 35 30  1  0
 22 17  1  0
  1 39  1  0
  1 40  1  0
  1 41  1  0
  4 42  1  0
  6 43  1  0
  7 44  1  0
  9 45  1  0
 12 46  1  0
 16 47  1  0
 18 48  1  0
 19 49  1  0
 20 50  1  0
 21 51  1  0
 26 52  1  0
 27 53  1  0
 27 54  1  0
 27 55  1  0
 28 56  1  0
 28 57  1  0
 28 58  1  0
 31 59  1  0
 31 60  1  0
 32 61  1  0
 32 62  1  0
 33 63  1  0
 34 64  1  0
 34 65  1  0
 35 66  1  0
 35 67  1  0
 37 68  1  0
 37 69  1  0
 37 70  1  0
 38 71  1  0
 38 72  1  0
 38 73  1  0
M  END
$$$$
[H]c1nc([H])c(-c2c(OC([H])([H])C3([H])C([H])([H])C3([H])[H])nc3sc(N([H])C(=O)N([H])C([H])([H])C([H])([H])[H])nc3c2[H])c([H])c1[H]
     RDKit          3D

 45 48  0  0  0  0  0  0  0  0999 V2000
    8.4387   -0.8237    0.8897 C   0  0  0  0  0  0  0  0  0  0  0  0
    7.0882   -0.3217    0.4470 C   0  0  0  0  0  0  0  0  0  0  0  0
    6.0415   -0.9925    1.1807 N   0  0  0  0  0  0  0  0  0  0  0  0
    4.6882   -0.6770    0.9275 C   0  0  0  0  0  0  0  0  0  0  0  0
    4.4254    0.1907    0.0592 O   0  0  0  0  0  0  0  0  0  0  0  0
    3.6533   -1.3320    1.6445 N   0  0  0  0  0  0  0  0  0  0  0  0
    2.2861   -1.0062    1.3817 C   0  0  0  0  0  0  0  0  0  0  0  0
    1.8548   -0.1262    0.5092 N   0  0  0  0  0  0  0  0  0  0  0  0
    0.5773    0.0807    0.3628 C   0  0  0  0  0  0  0  0  0  0  0  0
   -0.0780    0.9740   -0.5126 C   0  0  0  0  0  0  0  0  0  0  0  0
   -1.4363    1.0982   -0.5716 C   0  0  0  0  0  0  0  0  0  0  0  0
   -2.0701    2.0518   -1.5148 C   0  0  0  0  0  0  0  0  0  0  0  0
   -3.1367    1.7091   -2.3042 C   0  0  0  0  0  0  0  0  0  0  0  0
   -3.6924    2.6482   -3.1709 C   0  0  0  0  0  0  0  0  0  0  0  0
   -3.1889    3.9405   -3.2590 C   0  0  0  0  0  0  0  0  0  0  0  0
   -2.1418    4.2324   -2.4659 N   0  0  0  0  0  0  0  0  0  0  0  0
   -1.5897    3.3402   -1.6214 C   0  0  0  0  0  0  0  0  0  0  0  0
   -2.2359    0.3309    0.2479 C   0  0  0  0  0  0  0  0  0  0  0  0
   -3.5968    0.4697    0.1750 O   0  0  0  0  0  0  0  0  0  0  0  0
   -4.4489   -0.2955    0.9941 C   0  0  0  0  0  0  0  0  0  0  0  0
   -4.3120   -1.7800    0.7895 C   0  0  0  0  0  0  0  0  0  0  0  0
   -4.5901   -2.3612   -0.5738 C   0  0  0  0  0  0  0  0  0  0  0  0
   -5.5904   -2.5164    0.5286 C   0  0  0  0  0  0  0  0  0  0  0  0
   -1.6342   -0.5359    1.0989 N   0  0  0  0  0  0  0  0  0  0  0  0
   -0.2718   -0.6536    1.1510 C   0  0  0  0  0  0  0  0  0  0  0  0
    0.8364   -1.5981    2.0552 S   0  0  0  0  0  0  0  0  0  0  0  0
    9.0736   -1.0139   -0.0050 H   0  0  0  0  0  0  0  0  0  0  0  0
    8.2879   -1.7596    1.4661 H   0  0  0  0  0  0  0  0  0  0  0  0
    8.9756   -0.0718    1.5001 H   0  0  0  0  0  0  0  0  0  0  0  0
    6.9513   -0.5745   -0.6306 H   0  0  0  0  0  0  0  0  0  0  0  0
    7.0142    0.7840    0.5257 H   0  0  0  0  0  0  0  0  0  0  0  0
    6.2828   -1.7029    1.8905 H   0  0  0  0  0  0  0  0  0  0  0  0
    3.8298   -2.0557    2.3710 H   0  0  0  0  0  0  0  0  0  0  0  0
    0.5065    1.6056   -1.1833 H   0  0  0  0  0  0  0  0  0  0  0  0
   -3.5508    0.7259   -2.2662 H   0  0  0  0  0  0  0  0  0  0  0  0
   -4.5334    2.4172   -3.8093 H   0  0  0  0  0  0  0  0  0  0  0  0
   -3.6074    4.6811   -3.9252 H   0  0  0  0  0  0  0  0  0  0  0  0
   -0.7349    3.6042   -0.9844 H   0  0  0  0  0  0  0  0  0  0  0  0
   -5.4914   -0.0088    0.7686 H   0  0  0  0  0  0  0  0  0  0  0  0
   -4.2427   -0.0466    2.0657 H   0  0  0  0  0  0  0  0  0  0  0  0
   -3.5170   -2.2782    1.3844 H   0  0  0  0  0  0  0  0  0  0  0  0
   -4.0326   -3.2712   -0.8718 H   0  0  0  0  0  0  0  0  0  0  0  0
   -4.8272   -1.6800   -1.4203 H   0  0  0  0  0  0  0  0  0  0  0  0
   -5.7271   -3.4679    1.0553 H   0  0  0  0  0  0  0  0  0  0  0  0
   -6.5333   -1.9332    0.4229 H   0  0  0  0  0  0  0  0  0  0  0  0
  1  2  1  0
  2  3  1  0
  3  4  1  0
  4  5  2  0
  4  6  1  0
  6  7  1  0
  7  8  2  0
  8  9  1  0
  9 10  2  0
 10 11  1  0
 11 12  1  0
 12 13  2  0
 13 14  1  0
 14 15  2  0
 15 16  1  0
 16 17  2  0
 11 18  2  0
 18 19  1  0
 19 20  1  0
 20 21  1  0
 21 22  1  0
 22 23  1  0
 18 24  1  0
 24 25  2  0
 25 26  1  0
 26  7  1  0
 25  9  1  0
 17 12  1  0
 23 21  1  0
  1 27  1  0
  1 28  1  0
  1 29  1  0
  2 30  1  0
  2 31  1  0
  3 32  1  0
  6 33  1  0
 10 34  1  0
 13 35  1  0
 14 36  1  0
 15 37  1  0
 17 38  1  0
 20 39  1  0
 20 40  1  0
 21 41  1  0
 22 42  1  0
 22 43  1  0
 23 44  1  0
 23 45  1  0
M  END
$$$$
[H]c1nc(N([H])c2c([H])c([H])c(N3C([H])([H])C([H])([H])C([H])(N4C([H])([H])C([H])([H])OC([H])([H])C4([H])[H])C([H])([H])C3([H])[H])c([H])c2OC([H])([H])[H])nc(N([H])c2c([H])c([H])c([H])c([H])c2S(=O)(=O)C([H])(C([H])([H])[H])C([H])([H])[H])c1Cl
     RDKit          3D

 78 82  0  0  0  0  0  0  0  0999 V2000
   -2.7990   -4.7366   -1.3510 C   0  0  0  0  0  0  0  0  0  0  0  0
   -1.4818   -4.2815   -1.0963 O   0  0  0  0  0  0  0  0  0  0  0  0
   -1.2626   -2.9268   -0.9115 C   0  0  0  0  0  0  0  0  0  0  0  0
   -2.2756   -1.9993   -0.9649 C   0  0  0  0  0  0  0  0  0  0  0  0
   -2.0617   -0.6368   -0.7804 C   0  0  0  0  0  0  0  0  0  0  0  0
   -0.7814   -0.2202   -0.5369 C   0  0  0  0  0  0  0  0  0  0  0  0
    0.2811   -1.1355   -0.4738 C   0  0  0  0  0  0  0  0  0  0  0  0
    0.0363   -2.4736   -0.6602 C   0  0  0  0  0  0  0  0  0  0  0  0
    1.0486   -3.4282   -0.5632 N   0  0  0  0  0  0  0  0  0  0  0  0
    2.4501   -3.2971   -0.5441 C   0  0  0  0  0  0  0  0  0  0  0  0
    3.1806   -4.4584   -0.3853 N   0  0  0  0  0  0  0  0  0  0  0  0
    4.4963   -4.5095   -0.3751 C   0  0  0  0  0  0  0  0  0  0  0  0
    5.2173   -3.3469   -0.5311 C   0  0  0  0  0  0  0  0  0  0  0  0
    6.9576   -3.3296   -0.5341 Cl  0  0  0  0  0  0  0  0  0  0  0  0
    4.5356   -2.1282   -0.6989 C   0  0  0  0  0  0  0  0  0  0  0  0
    5.3043   -0.9689   -0.8278 N   0  0  0  0  0  0  0  0  0  0  0  0
    4.9428    0.3708   -1.0715 C   0  0  0  0  0  0  0  0  0  0  0  0
    3.7071    0.7399   -1.5352 C   0  0  0  0  0  0  0  0  0  0  0  0
    3.4274    2.0598   -1.8188 C   0  0  0  0  0  0  0  0  0  0  0  0
    4.3635    3.0489   -1.6512 C   0  0  0  0  0  0  0  0  0  0  0  0
    5.6208    2.6944   -1.1820 C   0  0  0  0  0  0  0  0  0  0  0  0
    5.9101    1.3798   -0.8961 C   0  0  0  0  0  0  0  0  0  0  0  0
    7.5019    1.0371   -0.2945 S   0  0  0  0  0  0  0  0  0  0  0  0
    8.2978    0.1131   -1.1647 O   0  0  0  0  0  0  0  0  0  0  0  0
    8.2966    2.3490   -0.2987 O   0  0  0  0  0  0  0  0  0  0  0  0
    7.4681    0.4327    1.3549 C   0  0  0  0  0  0  0  0  0  0  0  0
    8.8634   -0.1388    1.7159 C   0  0  0  0  0  0  0  0  0  0  0  0
    7.0596    1.4683    2.3670 C   0  0  0  0  0  0  0  0  0  0  0  0
    3.1822   -2.2006   -0.6916 N   0  0  0  0  0  0  0  0  0  0  0  0
   -3.1115    0.3177   -0.8518 N   0  0  0  0  0  0  0  0  0  0  0  0
   -4.3569    0.0033   -1.5564 C   0  0  0  0  0  0  0  0  0  0  0  0
   -5.4456    0.9770   -1.1084 C   0  0  0  0  0  0  0  0  0  0  0  0
   -5.4163    1.0960    0.3875 C   0  0  0  0  0  0  0  0  0  0  0  0
   -4.1724    1.8834    0.7406 C   0  0  0  0  0  0  0  0  0  0  0  0
   -3.0537    1.6221   -0.2518 C   0  0  0  0  0  0  0  0  0  0  0  0
   -6.5566    1.8175    0.8825 N   0  0  0  0  0  0  0  0  0  0  0  0
   -6.4174    2.0469    2.3263 C   0  0  0  0  0  0  0  0  0  0  0  0
   -7.6213    2.8766    2.7374 C   0  0  0  0  0  0  0  0  0  0  0  0
   -8.8104    2.1862    2.5319 O   0  0  0  0  0  0  0  0  0  0  0  0
   -8.9221    1.9916    1.1601 C   0  0  0  0  0  0  0  0  0  0  0  0
   -7.7951    1.0731    0.7374 C   0  0  0  0  0  0  0  0  0  0  0  0
   -2.8361   -5.8616   -1.3099 H   0  0  0  0  0  0  0  0  0  0  0  0
   -3.1900   -4.3824   -2.3292 H   0  0  0  0  0  0  0  0  0  0  0  0
   -3.5377   -4.4041   -0.5867 H   0  0  0  0  0  0  0  0  0  0  0  0
   -3.2912   -2.3704   -1.1607 H   0  0  0  0  0  0  0  0  0  0  0  0
   -0.5304    0.8148   -0.3940 H   0  0  0  0  0  0  0  0  0  0  0  0
    1.2667   -0.7437   -0.2556 H   0  0  0  0  0  0  0  0  0  0  0  0
    0.7052   -4.4618   -0.4798 H   0  0  0  0  0  0  0  0  0  0  0  0
    5.0715   -5.4367   -0.2489 H   0  0  0  0  0  0  0  0  0  0  0  0
    6.3584   -1.1165   -0.7423 H   0  0  0  0  0  0  0  0  0  0  0  0
    2.9114   -0.0041   -1.7193 H   0  0  0  0  0  0  0  0  0  0  0  0
    2.4405    2.3544   -2.1905 H   0  0  0  0  0  0  0  0  0  0  0  0
    4.1803    4.0991   -1.8612 H   0  0  0  0  0  0  0  0  0  0  0  0
    6.3509    3.4879   -1.0554 H   0  0  0  0  0  0  0  0  0  0  0  0
    6.8109   -0.4447    1.4204 H   0  0  0  0  0  0  0  0  0  0  0  0
    8.9078   -1.1290    1.2165 H   0  0  0  0  0  0  0  0  0  0  0  0
    8.8703   -0.2948    2.7926 H   0  0  0  0  0  0  0  0  0  0  0  0
    9.6590    0.5303    1.3215 H   0  0  0  0  0  0  0  0  0  0  0  0
    6.3760    2.2282    1.9706 H   0  0  0  0  0  0  0  0  0  0  0  0
    8.0149    1.9242    2.7543 H   0  0  0  0  0  0  0  0  0  0  0  0
    6.5683    1.0168    3.2596 H   0  0  0  0  0  0  0  0  0  0  0  0
   -4.2295    0.1961   -2.6622 H   0  0  0  0  0  0  0  0  0  0  0  0
   -4.6789   -1.0320   -1.4555 H   0  0  0  0  0  0  0  0  0  0  0  0
   -6.3764    0.6017   -1.5329 H   0  0  0  0  0  0  0  0  0  0  0  0
   -5.2359    1.9773   -1.5346 H   0  0  0  0  0  0  0  0  0  0  0  0
   -5.4040    0.1109    0.8986 H   0  0  0  0  0  0  0  0  0  0  0  0
   -4.4001    2.9747    0.6779 H   0  0  0  0  0  0  0  0  0  0  0  0
   -3.8424    1.6927    1.7865 H   0  0  0  0  0  0  0  0  0  0  0  0
   -3.1634    2.3692   -1.0913 H   0  0  0  0  0  0  0  0  0  0  0  0
   -2.0806    1.8030    0.1914 H   0  0  0  0  0  0  0  0  0  0  0  0
   -6.4486    1.0642    2.8141 H   0  0  0  0  0  0  0  0  0  0  0  0
   -5.5199    2.6190    2.5767 H   0  0  0  0  0  0  0  0  0  0  0  0
   -7.6190    3.7806    2.0982 H   0  0  0  0  0  0  0  0  0  0  0  0
   -7.5723    3.1645    3.7921 H   0  0  0  0  0  0  0  0  0  0  0  0
   -8.6856    2.9938    0.6972 H   0  0  0  0  0  0  0  0  0  0  0  0
   -9.9176    1.6194    0.8580 H   0  0  0  0  0  0  0  0  0  0  0  0
   -7.9512    0.6460   -0.2539 H   0  0  0  0  0  0  0  0  0  0  0  0
   -7.7886    0.2449    1.4991 H   0  0  0  0  0  0  0  0  0  0  0  0
  1  2  1  0
  2  3  1  0
  3  4  2  0
  4  5  1  0
  5  6  2  0
  6  7  1  0
  7  8  2  0
  8  9  1  0
  9 10  1  0
 10 11  2  0
 11 12  1  0
 12 13  2  0
 13 14  1  0
 13 15  1  0
 15 16  1  0
 16 17  1  0
 17 18  2  0
 18 19  1  0
 19 20  2  0
 20 21  1  0
 21 22  2  0
 22 23  1  0
 23 24  2  0
 23 25  2  0
 23 26  1  0
 26 27  1  0
 26 28  1  0
 15 29  2  0
  5 30  1  0
 30 31  1  0
 31 32  1  0
 32 33  1  0
 33 34  1  0
 34 35  1  0
 33 36  1  0
 36 37  1  0
 37 38  1  0
 38 39  1  0
 39 40  1  0
 40 41  1  0
  8  3  1  0
 29 10  1  0
 35 30  1  0
 41 36  1  0
 22 17  1  0
  1 42  1  0
  1 43  1  0
  1 44  1  0
  4 45  1  0
  6 46  1  0
  7 47  1  0
  9 48  1  0
 12 49  1  0
 16 50  1  0
 18 51  1  0
 19 52  1  0
 20 53  1  0
 21 54  1  0
 26 55  1  0
 27 56  1  0
 27 57  1  0
 27 58  1  0
 28 59  1  0
 28 60  1  0
 28 61  1  0
 31 62  1  0
 31 63  1  0
 32 64  1  0
 32 65  1  0
 33 66  1  0
 34 67  1  0
 34 68  1  0
 35 69  1  0
 35 70  1  0
 37 71  1  0
 37 72  1  0
 38 73  1  0
 38 74  1  0
 40 75  1  0
 40 76  1  0
 41 77  1  0
 41 78  1  0
M  END
$$$$
[H]c1nc(-c2nc([H])c(C#Cc3nc(C([H])([H])[H])sc3[H])c([H])c2[H])c([H])c([H])c1[H]
     RDKit          3D

 31 33  0  0  0  0  0  0  0  0999 V2000
   -7.5947    0.1226   -0.5300 C   0  0  0  0  0  0  0  0  0  0  0  0
   -6.3734   -0.7468   -0.3200 C   0  0  0  0  0  0  0  0  0  0  0  0
   -5.1089   -0.3751   -0.2738 N   0  0  0  0  0  0  0  0  0  0  0  0
   -4.1719   -1.2662   -0.0825 C   0  0  0  0  0  0  0  0  0  0  0  0
   -4.5741   -2.5698    0.0623 C   0  0  0  0  0  0  0  0  0  0  0  0
   -6.2723   -2.4321   -0.0855 S   0  0  0  0  0  0  0  0  0  0  0  0
   -2.7335   -0.9535   -0.0152 C   0  0  0  0  0  0  0  0  0  0  0  0
   -1.5592   -0.6747    0.0364 C   0  0  0  0  0  0  0  0  0  0  0  0
   -0.1673   -0.3289    0.0775 C   0  0  0  0  0  0  0  0  0  0  0  0
    0.8078   -1.2931   -0.0346 C   0  0  0  0  0  0  0  0  0  0  0  0
    2.1416   -0.9776    0.0028 C   0  0  0  0  0  0  0  0  0  0  0  0
    2.5227    0.3248    0.1550 C   0  0  0  0  0  0  0  0  0  0  0  0
    1.5913    1.2757    0.2655 N   0  0  0  0  0  0  0  0  0  0  0  0
    0.2877    0.9754    0.2299 C   0  0  0  0  0  0  0  0  0  0  0  0
    3.9315    0.6919    0.1984 C   0  0  0  0  0  0  0  0  0  0  0  0
    4.3246    2.0012    0.3513 C   0  0  0  0  0  0  0  0  0  0  0  0
    5.6427    2.3908    0.3973 C   0  0  0  0  0  0  0  0  0  0  0  0
    6.6248    1.4345    0.2861 C   0  0  0  0  0  0  0  0  0  0  0  0
    6.2037    0.1193    0.1325 C   0  0  0  0  0  0  0  0  0  0  0  0
    4.9065   -0.2288    0.0914 N   0  0  0  0  0  0  0  0  0  0  0  0
   -8.4224   -0.2800    0.0680 H   0  0  0  0  0  0  0  0  0  0  0  0
   -7.8021    0.1702   -1.6173 H   0  0  0  0  0  0  0  0  0  0  0  0
   -7.2929    1.1257   -0.1715 H   0  0  0  0  0  0  0  0  0  0  0  0
   -3.9490   -3.4680    0.2308 H   0  0  0  0  0  0  0  0  0  0  0  0
    0.4472   -2.3137   -0.1539 H   0  0  0  0  0  0  0  0  0  0  0  0
    2.8591   -1.7623   -0.0884 H   0  0  0  0  0  0  0  0  0  0  0  0
   -0.4221    1.7732    0.3227 H   0  0  0  0  0  0  0  0  0  0  0  0
    3.5840    2.7869    0.4426 H   0  0  0  0  0  0  0  0  0  0  0  0
    5.9551    3.4146    0.5168 H   0  0  0  0  0  0  0  0  0  0  0  0
    7.6697    1.7089    0.3185 H   0  0  0  0  0  0  0  0  0  0  0  0
    6.9440   -0.6453    0.0436 H   0  0  0  0  0  0  0  0  0  0  0  0
  1  2  1  0
  2  3  2  0
  3  4  1  0
  4  5  2  0
  5  6  1  0
  4  7  1  0
  7  8  3  0
  8  9  1  0
  9 10  2  0
 10 11  1  0
 11 12  2  0
 12 13  1  0
 13 14  2  0
 12 15  1  0
 15 16  2  0
 16 17  1  0
 17 18  2  0
 18 19  1  0
 19 20  2  0
  6  2  1  0
 14  9  1  0
 20 15  1  0
  1 21  1  0
  1 22  1  0
  1 23  1  0
  5 24  1  0
 10 25  1  0
 11 26  1  0
 14 27  1  0
 16 28  1  0
 17 29  1  0
 18 30  1  0
 19 31  1  0
M  END
$$$$
[H]c1c([H])c([H])c2sc(C(=O)[C@@]([H])(N([H])C(=O)[C@@]([H])(N([H])C(=O)[C@@]([H])(N([H])C(=O)[C@@]([H])(N([H])C(=O)C([H])([H])[H])C([H])([H])C([H])([H])C([H])([H])C([H])([H])N([H])[H])C([H])([H])C([H])([H])C(=O)N([H])[H])C([H])([H])C([H])(C([H])([H])[H])C([H])([H])[H])C([H])([H])C([H])([H])C([H])([H])N=C(N([H])[H])N([H])[H])nc2c1[H]
     RDKit          3D

 99100  0  0  0  0  0  0  0  0999 V2000
    1.1257    0.5167    4.6122 C   0  0  0  0  0  0  0  0  0  0  0  0
    0.4139    1.7013    3.9848 C   0  0  0  0  0  0  0  0  0  0  0  0
   -0.1045    2.5884    5.0907 C   0  0  0  0  0  0  0  0  0  0  0  0
   -0.7309    1.2499    3.1006 C   0  0  0  0  0  0  0  0  0  0  0  0
   -0.3025    0.3849    1.9736 C   0  0  2  0  0  0  0  0  0  0  0  0
    0.6126    1.0218    1.0580 N   0  0  0  0  0  0  0  0  0  0  0  0
    1.9250    0.6805    0.7335 C   0  0  0  0  0  0  0  0  0  0  0  0
    2.3875   -0.3677    1.3179 O   0  0  0  0  0  0  0  0  0  0  0  0
    2.7926    1.3920   -0.1932 C   0  0  2  0  0  0  0  0  0  0  0  0
    2.2666    2.7059   -0.6518 C   0  0  0  0  0  0  0  0  0  0  0  0
    2.1272    3.6987    0.4721 C   0  0  0  0  0  0  0  0  0  0  0  0
    1.5749    4.9905   -0.0284 C   0  0  0  0  0  0  0  0  0  0  0  0
    1.3465    6.1063    0.8112 N   0  0  0  0  0  0  0  0  0  0  0  0
    1.2987    5.0974   -1.2413 O   0  0  0  0  0  0  0  0  0  0  0  0
    3.5096    0.6055   -1.1337 N   0  0  0  0  0  0  0  0  0  0  0  0
    4.9416    0.6707   -1.2544 C   0  0  0  0  0  0  0  0  0  0  0  0
    5.5870    1.4649   -0.4781 O   0  0  0  0  0  0  0  0  0  0  0  0
    5.7326   -0.1116   -2.2165 C   0  0  2  0  0  0  0  0  0  0  0  0
    5.5932   -1.5973   -1.8373 C   0  0  0  0  0  0  0  0  0  0  0  0
    6.4082   -2.4345   -2.8061 C   0  0  0  0  0  0  0  0  0  0  0  0
    6.2688   -3.8804   -2.4221 C   0  0  0  0  0  0  0  0  0  0  0  0
    6.7583   -4.1618   -1.0286 C   0  0  0  0  0  0  0  0  0  0  0  0
    8.1452   -3.8406   -0.8359 N   0  0  0  0  0  0  0  0  0  0  0  0
    7.1294    0.2677   -2.1263 N   0  0  0  0  0  0  0  0  0  0  0  0
    7.8151    0.6574   -3.2910 C   0  0  0  0  0  0  0  0  0  0  0  0
    9.2313    1.0658   -3.3185 C   0  0  0  0  0  0  0  0  0  0  0  0
    7.1965    0.6658   -4.3955 O   0  0  0  0  0  0  0  0  0  0  0  0
   -1.3575   -0.3547    1.2793 C   0  0  0  0  0  0  0  0  0  0  0  0
   -0.9355   -1.0692    0.2897 O   0  0  0  0  0  0  0  0  0  0  0  0
   -2.7269   -0.3936    1.5215 N   0  0  0  0  0  0  0  0  0  0  0  0
   -3.6532   -1.1999    0.7369 C   0  0  1  0  0  0  0  0  0  0  0  0
   -5.0155   -1.2659    1.3180 C   0  0  0  0  0  0  0  0  0  0  0  0
   -5.6654    0.1036    1.3986 C   0  0  0  0  0  0  0  0  0  0  0  0
   -7.0557   -0.0693    1.9754 C   0  0  0  0  0  0  0  0  0  0  0  0
   -7.7439    1.1889    2.0474 N   0  0  0  0  0  0  0  0  0  0  0  0
   -8.5505    1.5586    2.9535 C   0  0  0  0  0  0  0  0  0  0  0  0
   -8.9461    0.8081    4.0908 N   0  0  0  0  0  0  0  0  0  0  0  0
   -9.1198    2.8556    2.8176 N   0  0  0  0  0  0  0  0  0  0  0  0
   -3.8028   -0.5540   -0.6231 C   0  0  0  0  0  0  0  0  0  0  0  0
   -3.2821    0.5467   -0.8990 O   0  0  0  0  0  0  0  0  0  0  0  0
   -4.5834   -1.2683   -1.6265 C   0  0  0  0  0  0  0  0  0  0  0  0
   -5.2096   -2.4222   -1.6129 N   0  0  0  0  0  0  0  0  0  0  0  0
   -5.8386   -2.8542   -2.6742 C   0  0  0  0  0  0  0  0  0  0  0  0
   -6.5324   -4.0712   -2.7923 C   0  0  0  0  0  0  0  0  0  0  0  0
   -7.1357   -4.4160   -3.9502 C   0  0  0  0  0  0  0  0  0  0  0  0
   -7.1247   -3.6320   -5.0798 C   0  0  0  0  0  0  0  0  0  0  0  0
   -6.4530   -2.4403   -4.9858 C   0  0  0  0  0  0  0  0  0  0  0  0
   -5.8206   -2.0687   -3.7875 C   0  0  0  0  0  0  0  0  0  0  0  0
   -4.8977   -0.7383   -3.2577 S   0  0  0  0  0  0  0  0  0  0  0  0
    2.0695    0.2516    4.1133 H   0  0  0  0  0  0  0  0  0  0  0  0
    1.2833    0.6976    5.7169 H   0  0  0  0  0  0  0  0  0  0  0  0
    0.4285   -0.3371    4.5766 H   0  0  0  0  0  0  0  0  0  0  0  0
    1.1713    2.2069    3.3524 H   0  0  0  0  0  0  0  0  0  0  0  0
   -1.1976    2.6948    4.9654 H   0  0  0  0  0  0  0  0  0  0  0  0
    0.3924    3.5925    5.0095 H   0  0  0  0  0  0  0  0  0  0  0  0
    0.1169    2.1272    6.0956 H   0  0  0  0  0  0  0  0  0  0  0  0
   -1.1660    2.2055    2.6763 H   0  0  0  0  0  0  0  0  0  0  0  0
   -1.5653    0.8237    3.6963 H   0  0  0  0  0  0  0  0  0  0  0  0
    0.3403   -0.4384    2.4520 H   0  0  0  0  0  0  0  0  0  0  0  0
    0.1763    1.8549    0.5435 H   0  0  0  0  0  0  0  0  0  0  0  0
    3.6721    1.7609    0.5396 H   0  0  0  0  0  0  0  0  0  0  0  0
    2.8137    3.1281   -1.5155 H   0  0  0  0  0  0  0  0  0  0  0  0
    1.2225    2.5287   -1.0592 H   0  0  0  0  0  0  0  0  0  0  0  0
    3.1711    3.8957    0.9144 H   0  0  0  0  0  0  0  0  0  0  0  0
    1.5451    3.3890    1.3332 H   0  0  0  0  0  0  0  0  0  0  0  0
    2.1347    6.5760    1.2830 H   0  0  0  0  0  0  0  0  0  0  0  0
    0.3538    6.4460    0.9431 H   0  0  0  0  0  0  0  0  0  0  0  0
    3.0213   -0.0493   -1.7713 H   0  0  0  0  0  0  0  0  0  0  0  0
    5.4126    0.0410   -3.2665 H   0  0  0  0  0  0  0  0  0  0  0  0
    4.5402   -1.8451   -1.9333 H   0  0  0  0  0  0  0  0  0  0  0  0
    6.0346   -1.6884   -0.8348 H   0  0  0  0  0  0  0  0  0  0  0  0
    6.0483   -2.3077   -3.8340 H   0  0  0  0  0  0  0  0  0  0  0  0
    7.4833   -2.1425   -2.7913 H   0  0  0  0  0  0  0  0  0  0  0  0
    6.7957   -4.5448   -3.1543 H   0  0  0  0  0  0  0  0  0  0  0  0
    5.1748   -4.1423   -2.4329 H   0  0  0  0  0  0  0  0  0  0  0  0
    6.5962   -5.2645   -0.8713 H   0  0  0  0  0  0  0  0  0  0  0  0
    6.1142   -3.6846   -0.2591 H   0  0  0  0  0  0  0  0  0  0  0  0
    8.6390   -4.4718   -0.1663 H   0  0  0  0  0  0  0  0  0  0  0  0
    8.2888   -2.8436   -0.4958 H   0  0  0  0  0  0  0  0  0  0  0  0
    7.6266    0.2556   -1.2036 H   0  0  0  0  0  0  0  0  0  0  0  0
    9.7722    0.6913   -4.2337 H   0  0  0  0  0  0  0  0  0  0  0  0
    9.2377    2.1928   -3.4142 H   0  0  0  0  0  0  0  0  0  0  0  0
    9.8230    0.7359   -2.4530 H   0  0  0  0  0  0  0  0  0  0  0  0
   -3.1340    0.1669    2.2936 H   0  0  0  0  0  0  0  0  0  0  0  0
   -3.2190   -2.1637    0.5174 H   0  0  0  0  0  0  0  0  0  0  0  0
   -5.6197   -2.0236    0.8355 H   0  0  0  0  0  0  0  0  0  0  0  0
   -4.8746   -1.5587    2.4097 H   0  0  0  0  0  0  0  0  0  0  0  0
   -5.6658    0.6359    0.4221 H   0  0  0  0  0  0  0  0  0  0  0  0
   -5.0714    0.7389    2.1029 H   0  0  0  0  0  0  0  0  0  0  0  0
   -7.6179   -0.8355    1.4040 H   0  0  0  0  0  0  0  0  0  0  0  0
   -6.9275   -0.4547    3.0199 H   0  0  0  0  0  0  0  0  0  0  0  0
   -9.9121    0.4412    4.2599 H   0  0  0  0  0  0  0  0  0  0  0  0
   -8.2400    0.5826    4.8498 H   0  0  0  0  0  0  0  0  0  0  0  0
  -10.1469    2.9780    2.8446 H   0  0  0  0  0  0  0  0  0  0  0  0
   -8.4845    3.6599    2.6916 H   0  0  0  0  0  0  0  0  0  0  0  0
   -6.5963   -4.7672   -1.9451 H   0  0  0  0  0  0  0  0  0  0  0  0
   -7.6661   -5.3972   -3.9747 H   0  0  0  0  0  0  0  0  0  0  0  0
   -7.6222   -3.9753   -5.9566 H   0  0  0  0  0  0  0  0  0  0  0  0
   -6.3724   -1.7447   -5.7900 H   0  0  0  0  0  0  0  0  0  0  0  0
  1  2  1  0
  2  3  1  0
  2  4  1  0
  4  5  1  0
  5  6  1  0
  6  7  1  0
  7  8  2  0
  7  9  1  0
  9 10  1  0
 10 11  1  0
 11 12  1  0
 12 13  1  0
 12 14  2  0
  9 15  1  0
 15 16  1  0
 16 17  2  0
 16 18  1  0
 18 19  1  0
 19 20  1  0
 20 21  1  0
 21 22  1  0
 22 23  1  0
 18 24  1  0
 24 25  1  0
 25 26  1  0
 25 27  2  0
  5 28  1  0
 28 29  2  0
 28 30  1  0
 30 31  1  0
 31 32  1  0
 32 33  1  0
 33 34  1  0
 34 35  1  0
 35 36  2  3
 36 37  1  0
 36 38  1  0
 31 39  1  0
 39 40  2  0
 39 41  1  0
 41 42  2  0
 42 43  1  0
 43 44  2  0
 44 45  1  0
 45 46  2  0
 46 47  1  0
 47 48  2  0
 48 49  1  0
 49 41  1  0
 48 43  1  0
  1 50  1  0
  1 51  1  0
  1 52  1  0
  2 53  1  0
  3 54  1  0
  3 55  1  0
  3 56  1  0
  4 57  1  0
  4 58  1  0
  5 59  1  1
  6 60  1  0
  9 61  1  1
 10 62  1  0
 10 63  1  0
 11 64  1  0
 11 65  1  0
 13 66  1  0
 13 67  1  0
 15 68  1  0
 18 69  1  6
 19 70  1  0
 19 71  1  0
 20 72  1  0
 20 73  1  0
 21 74  1  0
 21 75  1  0
 22 76  1  0
 22 77  1  0
 23 78  1  0
 23 79  1  0
 24 80  1  0
 26 81  1  0
 26 82  1  0
 26 83  1  0
 30 84  1  0
 31 85  1  6
 32 86  1  0
 32 87  1  0
 33 88  1  0
 33 89  1  0
 34 90  1  0
 34 91  1  0
 37 92  1  0
 37 93  1  0
 38 94  1  0
 38 95  1  0
 44 96  1  0
 45 97  1  0
 46 98  1  0
 47 99  1  0
M  END
$$$$
[H]OC([H])([H])[C@@]1([H])O[C@]([H])(O[H])[C@]([H])(O[H])[C@@]([H])(O[H])[C@@]1([H])O[H]
     RDKit          3D

 24 24  0  0  0  0  0  0  0  0999 V2000
    3.0782   -0.1292   -0.2886 O   0  0  0  0  0  0  0  0  0  0  0  0
    2.0427    0.7754   -0.1103 C   0  0  0  0  0  0  0  0  0  0  0  0
    0.9787    0.2877    0.8164 C   0  0  1  0  0  0  0  0  0  0  0  0
   -0.0039    1.2402    0.9362 O   0  0  0  0  0  0  0  0  0  0  0  0
   -0.8328    1.3635   -0.1454 C   0  0  2  0  0  0  0  0  0  0  0  0
   -1.9545    2.1141    0.2758 O   0  0  0  0  0  0  0  0  0  0  0  0
   -1.4070    0.0185   -0.6025 C   0  0  2  0  0  0  0  0  0  0  0  0
   -2.7349    0.0908   -0.9148 O   0  0  0  0  0  0  0  0  0  0  0  0
   -1.0755   -0.9600    0.4917 C   0  0  1  0  0  0  0  0  0  0  0  0
   -1.6983   -2.1667    0.3855 O   0  0  0  0  0  0  0  0  0  0  0  0
    0.4558   -1.0790    0.4645 C   0  0  1  0  0  0  0  0  0  0  0  0
    0.7661   -1.4137   -0.8712 O   0  0  0  0  0  0  0  0  0  0  0  0
    3.2852   -0.1140   -1.2759 H   0  0  0  0  0  0  0  0  0  0  0  0
    1.6044    1.1406   -1.0520 H   0  0  0  0  0  0  0  0  0  0  0  0
    2.5052    1.6825    0.3760 H   0  0  0  0  0  0  0  0  0  0  0  0
    1.4544    0.1862    1.8344 H   0  0  0  0  0  0  0  0  0  0  0  0
   -0.3661    1.8923   -0.9943 H   0  0  0  0  0  0  0  0  0  0  0  0
   -1.7183    2.7728    0.9598 H   0  0  0  0  0  0  0  0  0  0  0  0
   -0.8200   -0.2856   -1.5024 H   0  0  0  0  0  0  0  0  0  0  0  0
   -2.9018   -0.4455   -1.7537 H   0  0  0  0  0  0  0  0  0  0  0  0
   -1.2916   -0.4251    1.4629 H   0  0  0  0  0  0  0  0  0  0  0  0
   -1.6664   -2.6066    1.2887 H   0  0  0  0  0  0  0  0  0  0  0  0
    0.8062   -1.8746    1.1450 H   0  0  0  0  0  0  0  0  0  0  0  0
    1.4945   -2.0645   -0.9258 H   0  0  0  0  0  0  0  0  0  0  0  0
  1  2  1  0
  2  3  1  0
  3  4  1  0
  4  5  1  0
  5  6  1  0
  5  7  1  0
  7  8  1  0
  7  9  1  0
  9 10  1  0
  9 11  1  0
 11 12  1  0
 11  3  1  0
  1 13  1  0
  2 14  1  0
  2 15  1  0
  3 16  1  1
  5 17  1  6
  6 18  1  0
  7 19  1  6
  8 20  1  0
  9 21  1  1
 10 22  1  0
 11 23  1  1
 12 24  1  0
M  END
$$$$
[H]ON([H])C(=O)C([H])([H])[C@]([H])(C(=O)N([H])[C@]([H])(C(=O)N([H])C([H])([H])[H])C([H])([H])c1c([H])c([H])c([H])c([H])c1[H])C([H])([H])C([H])(C([H])([H])[H])C([H])([H])[H]
     RDKit          3D

 52 52  0  0  0  0  0  0  0  0999 V2000
    3.1365    4.8571   -0.0959 C   0  0  0  0  0  0  0  0  0  0  0  0
    2.9872    3.4248    0.1065 N   0  0  0  0  0  0  0  0  0  0  0  0
    1.8678    2.6981   -0.3237 C   0  0  0  0  0  0  0  0  0  0  0  0
    0.9417    3.2852   -0.9096 O   0  0  0  0  0  0  0  0  0  0  0  0
    1.7835    1.2529   -0.0865 C   0  0  2  0  0  0  0  0  0  0  0  0
    2.9989    0.6559   -0.8049 C   0  0  0  0  0  0  0  0  0  0  0  0
    3.0560   -0.7991   -0.6601 C   0  0  0  0  0  0  0  0  0  0  0  0
    2.4350   -1.6081   -1.5846 C   0  0  0  0  0  0  0  0  0  0  0  0
    2.4689   -2.9980   -1.4778 C   0  0  0  0  0  0  0  0  0  0  0  0
    3.1465   -3.5722   -0.4120 C   0  0  0  0  0  0  0  0  0  0  0  0
    3.7749   -2.7795    0.5244 C   0  0  0  0  0  0  0  0  0  0  0  0
    3.7187   -1.3975    0.3836 C   0  0  0  0  0  0  0  0  0  0  0  0
    0.5777    0.6266   -0.5433 N   0  0  0  0  0  0  0  0  0  0  0  0
   -0.2123   -0.2244    0.2730 C   0  0  0  0  0  0  0  0  0  0  0  0
    0.1322   -0.4596    1.4595 O   0  0  0  0  0  0  0  0  0  0  0  0
   -1.4727   -0.8864   -0.2094 C   0  0  2  0  0  0  0  0  0  0  0  0
   -2.5470    0.0372   -0.6070 C   0  0  0  0  0  0  0  0  0  0  0  0
   -3.1363    0.9616    0.3896 C   0  0  0  0  0  0  0  0  0  0  0  0
   -4.2726    1.7634   -0.3283 C   0  0  0  0  0  0  0  0  0  0  0  0
   -2.1997    2.0756    0.8387 C   0  0  0  0  0  0  0  0  0  0  0  0
   -1.8309   -1.9619    0.7682 C   0  0  0  0  0  0  0  0  0  0  0  0
   -3.0096   -2.7572    0.4711 C   0  0  0  0  0  0  0  0  0  0  0  0
   -3.6530   -2.6791   -0.5850 O   0  0  0  0  0  0  0  0  0  0  0  0
   -3.5169   -3.7175    1.4220 N   0  0  0  0  0  0  0  0  0  0  0  0
   -4.5993   -4.4756    1.1985 O   0  0  0  0  0  0  0  0  0  0  0  0
    3.5679    5.2669    0.8374 H   0  0  0  0  0  0  0  0  0  0  0  0
    2.1653    5.3210   -0.3607 H   0  0  0  0  0  0  0  0  0  0  0  0
    3.9067    4.9871   -0.8912 H   0  0  0  0  0  0  0  0  0  0  0  0
    3.7613    2.9366    0.5987 H   0  0  0  0  0  0  0  0  0  0  0  0
    1.9620    1.0505    1.0034 H   0  0  0  0  0  0  0  0  0  0  0  0
    2.9271    0.9955   -1.8663 H   0  0  0  0  0  0  0  0  0  0  0  0
    3.8861    1.1723   -0.3859 H   0  0  0  0  0  0  0  0  0  0  0  0
    1.8955   -1.2090   -2.4307 H   0  0  0  0  0  0  0  0  0  0  0  0
    1.9835   -3.6391   -2.2001 H   0  0  0  0  0  0  0  0  0  0  0  0
    3.1696   -4.6576   -0.3339 H   0  0  0  0  0  0  0  0  0  0  0  0
    4.2877   -3.2763    1.3334 H   0  0  0  0  0  0  0  0  0  0  0  0
    4.2062   -0.7696    1.1098 H   0  0  0  0  0  0  0  0  0  0  0  0
    0.2616    0.7996   -1.5168 H   0  0  0  0  0  0  0  0  0  0  0  0
   -1.1436   -1.4245   -1.1485 H   0  0  0  0  0  0  0  0  0  0  0  0
   -2.0751    0.7175   -1.4028 H   0  0  0  0  0  0  0  0  0  0  0  0
   -3.3437   -0.4877   -1.1646 H   0  0  0  0  0  0  0  0  0  0  0  0
   -3.5767    0.5072    1.2784 H   0  0  0  0  0  0  0  0  0  0  0  0
   -5.1822    1.1279   -0.3746 H   0  0  0  0  0  0  0  0  0  0  0  0
   -4.4509    2.7117    0.2193 H   0  0  0  0  0  0  0  0  0  0  0  0
   -3.9400    2.0358   -1.3475 H   0  0  0  0  0  0  0  0  0  0  0  0
   -1.5092    1.7892    1.6383 H   0  0  0  0  0  0  0  0  0  0  0  0
   -2.7986    2.9241    1.2745 H   0  0  0  0  0  0  0  0  0  0  0  0
   -1.6734    2.5119   -0.0077 H   0  0  0  0  0  0  0  0  0  0  0  0
   -0.9525   -2.6861    0.7346 H   0  0  0  0  0  0  0  0  0  0  0  0
   -1.7997   -1.5976    1.8270 H   0  0  0  0  0  0  0  0  0  0  0  0
   -3.0071   -3.8173    2.3243 H   0  0  0  0  0  0  0  0  0  0  0  0
   -5.1030   -4.6123    2.0454 H   0  0  0  0  0  0  0  0  0  0  0  0
  1  2  1  0
  2  3  1  0
  3  4  2  0
  3  5  1  0
  5  6  1  0
  6  7  1  0
  7  8  2  0
  8  9  1  0
  9 10  2  0
 10 11  1  0
 11 12  2  0
  5 13  1  0
 13 14  1  0
 14 15  2  0
 14 16  1  0
 16 17  1  0
 17 18  1  0
 18 19  1  0
 18 20  1  0
 16 21  1  0
 21 22  1  0
 22 23  2  0
 22 24  1  0
 24 25  1  0
 12  7  1  0
  1 26  1  0
  1 27  1  0
  1 28  1  0
  2 29  1  0
  5 30  1  1
  6 31  1  0
  6 32  1  0
  8 33  1  0
  9 34  1  0
 10 35  1  0
 11 36  1  0
 12 37  1  0
 13 38  1  0
 16 39  1  6
 17 40  1  0
 17 41  1  0
 18 42  1  0
 19 43  1  0
 19 44  1  0
 19 45  1  0
 20 46  1  0
 20 47  1  0
 20 48  1  0
 21 49  1  0
 21 50  1  0
 24 51  1  0
 25 52  1  0
M  END
$$$$
[H]OC(=O)c1c([H])c([H])c([H])c(-c2c([H])c([H])c(/C([H])=C(\[H])C(=O)N3C([H])([H])C([H])([H])N(c4c([H])c([H])c([H])c(Cl)c4[H])C([H])([H])C3([H])[H])c([H])c2[H])c1[H]
     RDKit          3D

 55 58  0  0  0  0  0  0  0  0999 V2000
   -8.5498    2.0447    0.7634 O   0  0  0  0  0  0  0  0  0  0  0  0
   -8.9070    0.7373    0.9943 C   0  0  0  0  0  0  0  0  0  0  0  0
  -10.0573    0.4678    1.3853 O   0  0  0  0  0  0  0  0  0  0  0  0
   -7.9426   -0.3189    0.7813 C   0  0  0  0  0  0  0  0  0  0  0  0
   -8.2778   -1.6462    1.0079 C   0  0  0  0  0  0  0  0  0  0  0  0
   -7.3616   -2.6568    0.8065 C   0  0  0  0  0  0  0  0  0  0  0  0
   -6.0844   -2.3553    0.3717 C   0  0  0  0  0  0  0  0  0  0  0  0
   -5.7160   -1.0566    0.1371 C   0  0  0  0  0  0  0  0  0  0  0  0
   -6.6538   -0.0710    0.3476 C   0  0  0  0  0  0  0  0  0  0  0  0
   -4.3672   -0.6769   -0.3268 C   0  0  0  0  0  0  0  0  0  0  0  0
   -3.2754   -1.3880    0.0321 C   0  0  0  0  0  0  0  0  0  0  0  0
   -2.0178   -1.0031   -0.4224 C   0  0  0  0  0  0  0  0  0  0  0  0
   -1.8306    0.0882   -1.2355 C   0  0  0  0  0  0  0  0  0  0  0  0
   -0.5634    0.5542   -1.7483 C   0  0  0  0  0  0  0  0  0  0  0  0
    0.5652   -0.0560   -1.4626 C   0  0  0  0  0  0  0  0  0  0  0  0
    1.8158    0.4531   -2.0043 C   0  0  0  0  0  0  0  0  0  0  0  0
    1.7263    1.5010   -2.7512 O   0  0  0  0  0  0  0  0  0  0  0  0
    3.0758   -0.1262   -1.7586 N   0  0  0  0  0  0  0  0  0  0  0  0
    4.2617    0.4579   -2.3455 C   0  0  0  0  0  0  0  0  0  0  0  0
    5.5186   -0.0785   -1.6515 C   0  0  0  0  0  0  0  0  0  0  0  0
    5.2378   -0.0659   -0.2382 N   0  0  0  0  0  0  0  0  0  0  0  0
    4.0918   -0.8477    0.2575 C   0  0  0  0  0  0  0  0  0  0  0  0
    3.2359   -1.2833   -0.9414 C   0  0  0  0  0  0  0  0  0  0  0  0
    5.9898    0.6498    0.7144 C   0  0  0  0  0  0  0  0  0  0  0  0
    7.0438    1.4486    0.3348 C   0  0  0  0  0  0  0  0  0  0  0  0
    7.7775    2.1460    1.2887 C   0  0  0  0  0  0  0  0  0  0  0  0
    7.4220    2.0141    2.6007 C   0  0  0  0  0  0  0  0  0  0  0  0
    6.3649    1.2161    3.0072 C   0  0  0  0  0  0  0  0  0  0  0  0
    6.0164    1.1354    4.7208 Cl  0  0  0  0  0  0  0  0  0  0  0  0
    5.6368    0.5241    2.0628 C   0  0  0  0  0  0  0  0  0  0  0  0
   -3.0001    0.7891   -1.5761 C   0  0  0  0  0  0  0  0  0  0  0  0
   -4.2260    0.4080   -1.1288 C   0  0  0  0  0  0  0  0  0  0  0  0
   -9.1007    2.8443    1.1019 H   0  0  0  0  0  0  0  0  0  0  0  0
   -9.2888   -1.8536    1.3494 H   0  0  0  0  0  0  0  0  0  0  0  0
   -7.6367   -3.7050    0.9887 H   0  0  0  0  0  0  0  0  0  0  0  0
   -5.3718   -3.1558    0.2163 H   0  0  0  0  0  0  0  0  0  0  0  0
   -6.4227    0.9905    0.1782 H   0  0  0  0  0  0  0  0  0  0  0  0
   -3.3580   -2.2567    0.6698 H   0  0  0  0  0  0  0  0  0  0  0  0
   -1.1542   -1.5870   -0.1232 H   0  0  0  0  0  0  0  0  0  0  0  0
   -0.5447    1.4263   -2.3824 H   0  0  0  0  0  0  0  0  0  0  0  0
    0.5521   -0.9381   -0.8217 H   0  0  0  0  0  0  0  0  0  0  0  0
    4.3232    0.2943   -3.4352 H   0  0  0  0  0  0  0  0  0  0  0  0
    4.2493    1.5476   -2.1434 H   0  0  0  0  0  0  0  0  0  0  0  0
    6.3233    0.5986   -1.9549 H   0  0  0  0  0  0  0  0  0  0  0  0
    5.7270   -1.1210   -1.9775 H   0  0  0  0  0  0  0  0  0  0  0  0
    3.4427   -0.1185    0.8189 H   0  0  0  0  0  0  0  0  0  0  0  0
    4.3988   -1.6904    0.8728 H   0  0  0  0  0  0  0  0  0  0  0  0
    3.7974   -2.0782   -1.5212 H   0  0  0  0  0  0  0  0  0  0  0  0
    2.3167   -1.7083   -0.5097 H   0  0  0  0  0  0  0  0  0  0  0  0
    7.3710    1.5931   -0.6790 H   0  0  0  0  0  0  0  0  0  0  0  0
    8.6160    2.7813    0.9902 H   0  0  0  0  0  0  0  0  0  0  0  0
    8.0084    2.5696    3.3452 H   0  0  0  0  0  0  0  0  0  0  0  0
    4.8173   -0.0953    2.3729 H   0  0  0  0  0  0  0  0  0  0  0  0
   -2.8946    1.6713   -2.2269 H   0  0  0  0  0  0  0  0  0  0  0  0
   -5.1204    0.9861   -1.4195 H   0  0  0  0  0  0  0  0  0  0  0  0
  1  2  1  0
  2  3  2  0
  2  4  1  0
  4  5  2  0
  5  6  1  0
  6  7  2  0
  7  8  1  0
  8  9  2  0
  8 10  1  0
 10 11  2  0
 11 12  1  0
 12 13  2  0
 13 14  1  0
 14 15  2  0
 15 16  1  0
 16 17  2  0
 16 18  1  0
 18 19  1  0
 19 20  1  0
 20 21  1  0
 21 22  1  0
 22 23  1  0
 21 24  1  0
 24 25  2  0
 25 26  1  0
 26 27  2  0
 27 28  1  0
 28 29  1  0
 28 30  2  0
 13 31  1  0
 31 32  2  0
  9  4  1  0
 32 10  1  0
 23 18  1  0
 30 24  1  0
  1 33  1  0
  5 34  1  0
  6 35  1  0
  7 36  1  0
  9 37  1  0
 11 38  1  0
 12 39  1  0
 14 40  1  0
 15 41  1  0
 19 42  1  0
 19 43  1  0
 20 44  1  0
 20 45  1  0
 22 46  1  0
 22 47  1  0
 23 48  1  0
 23 49  1  0
 25 50  1  0
 26 51  1  0
 27 52  1  0
 30 53  1  0
 31 54  1  0
 32 55  1  0
M  END
$$$$
[H]N=C(N([H])[H])N([H])C([H])([H])C([H])([H])C([H])([H])[C@@]([H])(C(=O)c1nc([H])c([H])s1)N([H])C(=O)[C@@]([H])(N([H])C(=O)[C@@]([H])(N([H])[H])C([H])([H])c1c([H])c([H])c(O[H])c([H])c1[H])C([H])([H])c1c([H])c([H])c([H])c([H])c1[H]
     RDKit          3D

 72 74  0  0  0  0  0  0  0  0999 V2000
   -5.0091    1.1209    0.6811 N   0  0  0  0  0  0  0  0  0  0  0  0
   -3.9978    0.4189   -0.0933 C   0  0  1  0  0  0  0  0  0  0  0  0
   -3.2024    1.4292   -0.9033 C   0  0  0  0  0  0  0  0  0  0  0  0
   -4.0630    2.1921   -1.8334 C   0  0  0  0  0  0  0  0  0  0  0  0
   -4.2514    1.6949   -3.1035 C   0  0  0  0  0  0  0  0  0  0  0  0
   -5.0608    2.4077   -3.9844 C   0  0  0  0  0  0  0  0  0  0  0  0
   -5.6514    3.5876   -3.5672 C   0  0  0  0  0  0  0  0  0  0  0  0
   -6.4598    4.2949   -4.4543 O   0  0  0  0  0  0  0  0  0  0  0  0
   -5.4601    4.0847   -2.2897 C   0  0  0  0  0  0  0  0  0  0  0  0
   -4.6495    3.3679   -1.4124 C   0  0  0  0  0  0  0  0  0  0  0  0
   -3.0298   -0.2256    0.8194 C   0  0  0  0  0  0  0  0  0  0  0  0
   -3.1714   -0.0914    2.0521 O   0  0  0  0  0  0  0  0  0  0  0  0
   -1.9689   -0.9759    0.2989 N   0  0  0  0  0  0  0  0  0  0  0  0
   -1.0337   -1.5939    1.2298 C   0  0  1  0  0  0  0  0  0  0  0  0
   -1.2668   -3.0729    1.1375 C   0  0  0  0  0  0  0  0  0  0  0  0
   -1.0511   -3.6414   -0.2140 C   0  0  0  0  0  0  0  0  0  0  0  0
   -2.0588   -3.7326   -1.1686 C   0  0  0  0  0  0  0  0  0  0  0  0
   -1.8669   -4.2633   -2.4259 C   0  0  0  0  0  0  0  0  0  0  0  0
   -0.6246   -4.7346   -2.7817 C   0  0  0  0  0  0  0  0  0  0  0  0
    0.4009   -4.6647   -1.8700 C   0  0  0  0  0  0  0  0  0  0  0  0
    0.1786   -4.1240   -0.6082 C   0  0  0  0  0  0  0  0  0  0  0  0
    0.3190   -1.1444    0.9141 C   0  0  0  0  0  0  0  0  0  0  0  0
    0.5096   -0.3850   -0.0886 O   0  0  0  0  0  0  0  0  0  0  0  0
    1.4536   -1.5113    1.6789 N   0  0  0  0  0  0  0  0  0  0  0  0
    2.7552   -0.9886    1.2570 C   0  0  1  0  0  0  0  0  0  0  0  0
    3.2219    0.0603    2.2649 C   0  0  0  0  0  0  0  0  0  0  0  0
    2.1471    1.1566    2.2614 C   0  0  0  0  0  0  0  0  0  0  0  0
    2.5608    2.2434    3.2482 C   0  0  0  0  0  0  0  0  0  0  0  0
    3.8291    2.7840    2.8104 N   0  0  0  0  0  0  0  0  0  0  0  0
    3.8386    3.5322    1.6119 C   0  0  0  0  0  0  0  0  0  0  0  0
    4.6531    3.2132    0.5011 N   0  0  0  0  0  0  0  0  0  0  0  0
    3.0417    4.5622    1.5655 N   0  0  0  0  0  0  0  0  0  0  0  0
    3.6847   -2.1161    1.1708 C   0  0  0  0  0  0  0  0  0  0  0  0
    3.3680   -3.2917    1.4940 O   0  0  0  0  0  0  0  0  0  0  0  0
    5.0607   -1.8835    0.6835 C   0  0  0  0  0  0  0  0  0  0  0  0
    5.6345   -0.7656    0.2766 N   0  0  0  0  0  0  0  0  0  0  0  0
    6.8664   -0.7715   -0.1180 C   0  0  0  0  0  0  0  0  0  0  0  0
    7.5401   -1.9638   -0.0973 C   0  0  0  0  0  0  0  0  0  0  0  0
    6.3407   -3.0242    0.4995 S   0  0  0  0  0  0  0  0  0  0  0  0
   -5.9141    0.6274    0.6468 H   0  0  0  0  0  0  0  0  0  0  0  0
   -4.6745    1.3363    1.6468 H   0  0  0  0  0  0  0  0  0  0  0  0
   -4.4892   -0.2642   -0.7886 H   0  0  0  0  0  0  0  0  0  0  0  0
   -2.4111    0.8577   -1.4436 H   0  0  0  0  0  0  0  0  0  0  0  0
   -2.6778    2.0910   -0.1831 H   0  0  0  0  0  0  0  0  0  0  0  0
   -3.7947    0.7643   -3.4553 H   0  0  0  0  0  0  0  0  0  0  0  0
   -5.2106    2.0207   -4.9801 H   0  0  0  0  0  0  0  0  0  0  0  0
   -6.9004    5.1547   -4.1737 H   0  0  0  0  0  0  0  0  0  0  0  0
   -5.9138    5.0039   -1.9508 H   0  0  0  0  0  0  0  0  0  0  0  0
   -4.4829    3.7365   -0.4037 H   0  0  0  0  0  0  0  0  0  0  0  0
   -1.7896   -1.1273   -0.7189 H   0  0  0  0  0  0  0  0  0  0  0  0
   -1.2861   -1.3149    2.2865 H   0  0  0  0  0  0  0  0  0  0  0  0
   -0.6791   -3.6380    1.9164 H   0  0  0  0  0  0  0  0  0  0  0  0
   -2.3392   -3.2327    1.4449 H   0  0  0  0  0  0  0  0  0  0  0  0
   -3.0228   -3.3703   -0.9019 H   0  0  0  0  0  0  0  0  0  0  0  0
   -2.6772   -4.3215   -3.1548 H   0  0  0  0  0  0  0  0  0  0  0  0
   -0.5006   -5.1405   -3.7589 H   0  0  0  0  0  0  0  0  0  0  0  0
    1.3736   -5.0418   -2.1696 H   0  0  0  0  0  0  0  0  0  0  0  0
    1.0283   -4.1073    0.0458 H   0  0  0  0  0  0  0  0  0  0  0  0
    1.4135   -2.1254    2.5145 H   0  0  0  0  0  0  0  0  0  0  0  0
    2.6750   -0.4496    0.3000 H   0  0  0  0  0  0  0  0  0  0  0  0
    3.3662   -0.3491    3.2682 H   0  0  0  0  0  0  0  0  0  0  0  0
    4.1158    0.5370    1.8399 H   0  0  0  0  0  0  0  0  0  0  0  0
    1.1685    0.7772    2.5695 H   0  0  0  0  0  0  0  0  0  0  0  0
    2.0728    1.6275    1.2823 H   0  0  0  0  0  0  0  0  0  0  0  0
    1.7739    3.0015    3.2571 H   0  0  0  0  0  0  0  0  0  0  0  0
    2.6599    1.7868    4.2621 H   0  0  0  0  0  0  0  0  0  0  0  0
    4.6754    2.6051    3.3851 H   0  0  0  0  0  0  0  0  0  0  0  0
    4.9865    2.2487    0.3187 H   0  0  0  0  0  0  0  0  0  0  0  0
    4.9447    3.9573   -0.1765 H   0  0  0  0  0  0  0  0  0  0  0  0
    3.0165    5.1423    0.7008 H   0  0  0  0  0  0  0  0  0  0  0  0
    7.3774    0.1530   -0.4673 H   0  0  0  0  0  0  0  0  0  0  0  0
    8.5886   -2.1311   -0.4014 H   0  0  0  0  0  0  0  0  0  0  0  0
  1  2  1  0
  2  3  1  0
  3  4  1  0
  4  5  2  0
  5  6  1  0
  6  7  2  0
  7  8  1  0
  7  9  1  0
  9 10  2  0
  2 11  1  0
 11 12  2  0
 11 13  1  0
 13 14  1  0
 14 15  1  0
 15 16  1  0
 16 17  2  0
 17 18  1  0
 18 19  2  0
 19 20  1  0
 20 21  2  0
 14 22  1  0
 22 23  2  0
 22 24  1  0
 24 25  1  0
 25 26  1  0
 26 27  1  0
 27 28  1  0
 28 29  1  0
 29 30  1  0
 30 31  1  0
 30 32  2  3
 25 33  1  0
 33 34  2  0
 33 35  1  0
 35 36  2  0
 36 37  1  0
 37 38  2  0
 38 39  1  0
 10  4  1  0
 21 16  1  0
 39 35  1  0
  1 40  1  0
  1 41  1  0
  2 42  1  6
  3 43  1  0
  3 44  1  0
  5 45  1  0
  6 46  1  0
  8 47  1  0
  9 48  1  0
 10 49  1  0
 13 50  1  0
 14 51  1  1
 15 52  1  0
 15 53  1  0
 17 54  1  0
 18 55  1  0
 19 56  1  0
 20 57  1  0
 21 58  1  0
 24 59  1  0
 25 60  1  6
 26 61  1  0
 26 62  1  0
 27 63  1  0
 27 64  1  0
 28 65  1  0
 28 66  1  0
 29 67  1  0
 31 68  1  0
 31 69  1  0
 32 70  1  0
 37 71  1  0
 38 72  1  0
M  END
$$$$
[H]O[C@]([H])(C([H])([H])N([H])C(=O)c1c(C([H])([H])[H])c(/C([H])=C2\C(=O)N([H])c3c([H])c([H])c(F)c([H])c32)n([H])c1C([H])([H])[H])C([H])([H])N1C([H])([H])C([H])([H])OC([H])([H])C1([H])[H]
     RDKit          3D

 59 62  0  0  0  0  0  0  0  0999 V2000
   -0.0067    3.0051   -1.0071 C   0  0  0  0  0  0  0  0  0  0  0  0
   -0.8501    1.8317   -0.6247 C   0  0  0  0  0  0  0  0  0  0  0  0
   -2.0811    1.8440   -0.1243 N   0  0  0  0  0  0  0  0  0  0  0  0
   -2.5055    0.6096    0.0967 C   0  0  0  0  0  0  0  0  0  0  0  0
   -3.7672    0.1046    0.6046 C   0  0  0  0  0  0  0  0  0  0  0  0
   -4.9551    0.3616    0.1015 C   0  0  0  0  0  0  0  0  0  0  0  0
   -5.2686    1.1831   -1.0526 C   0  0  0  0  0  0  0  0  0  0  0  0
   -4.4447    1.7926   -1.8068 O   0  0  0  0  0  0  0  0  0  0  0  0
   -6.6877    1.1703   -1.1787 N   0  0  0  0  0  0  0  0  0  0  0  0
   -7.2854    0.3683   -0.1452 C   0  0  0  0  0  0  0  0  0  0  0  0
   -8.5932    0.0485    0.1572 C   0  0  0  0  0  0  0  0  0  0  0  0
   -8.8890   -0.7569    1.2253 C   0  0  0  0  0  0  0  0  0  0  0  0
   -7.8675   -1.2558    2.0099 C   0  0  0  0  0  0  0  0  0  0  0  0
   -8.1704   -2.0582    3.0732 F   0  0  0  0  0  0  0  0  0  0  0  0
   -6.5671   -0.9274    1.6946 C   0  0  0  0  0  0  0  0  0  0  0  0
   -6.2525   -0.1198    0.6256 C   0  0  0  0  0  0  0  0  0  0  0  0
   -1.4701   -0.2719   -0.2891 C   0  0  0  0  0  0  0  0  0  0  0  0
   -1.5634   -1.7560   -0.2190 C   0  0  0  0  0  0  0  0  0  0  0  0
   -0.4504    0.4817   -0.7334 C   0  0  0  0  0  0  0  0  0  0  0  0
    0.8421    0.0665   -1.2851 C   0  0  0  0  0  0  0  0  0  0  0  0
    1.4391    0.9461   -2.0019 O   0  0  0  0  0  0  0  0  0  0  0  0
    1.4641   -1.1610   -1.1017 N   0  0  0  0  0  0  0  0  0  0  0  0
    2.7215   -1.6317   -1.5988 C   0  0  0  0  0  0  0  0  0  0  0  0
    3.9100   -0.9040   -1.0858 C   0  0  1  0  0  0  0  0  0  0  0  0
    3.9623    0.4288   -1.4233 O   0  0  0  0  0  0  0  0  0  0  0  0
    3.9389   -1.0769    0.4336 C   0  0  0  0  0  0  0  0  0  0  0  0
    5.1145   -0.5489    1.0231 N   0  0  0  0  0  0  0  0  0  0  0  0
    6.3057   -1.2328    0.7606 C   0  0  0  0  0  0  0  0  0  0  0  0
    7.5650   -0.4418    0.7566 C   0  0  0  0  0  0  0  0  0  0  0  0
    7.4895    0.7846    1.3637 O   0  0  0  0  0  0  0  0  0  0  0  0
    6.4448    1.4794    0.7104 C   0  0  0  0  0  0  0  0  0  0  0  0
    5.1722    0.8464    1.2284 C   0  0  0  0  0  0  0  0  0  0  0  0
    0.0822    3.1015   -2.1049 H   0  0  0  0  0  0  0  0  0  0  0  0
    0.9945    2.8829   -0.5849 H   0  0  0  0  0  0  0  0  0  0  0  0
   -0.4526    3.9508   -0.6159 H   0  0  0  0  0  0  0  0  0  0  0  0
   -2.6066    2.7533    0.0695 H   0  0  0  0  0  0  0  0  0  0  0  0
   -3.7823   -0.5608    1.4939 H   0  0  0  0  0  0  0  0  0  0  0  0
   -7.2117    1.6663   -1.9082 H   0  0  0  0  0  0  0  0  0  0  0  0
   -9.3955    0.4290   -0.4451 H   0  0  0  0  0  0  0  0  0  0  0  0
   -9.9115   -1.0343    1.4983 H   0  0  0  0  0  0  0  0  0  0  0  0
   -5.7718   -1.3177    2.3089 H   0  0  0  0  0  0  0  0  0  0  0  0
   -2.6454   -2.0706   -0.0938 H   0  0  0  0  0  0  0  0  0  0  0  0
   -1.2591   -2.2559   -1.1569 H   0  0  0  0  0  0  0  0  0  0  0  0
   -1.0707   -2.1818    0.6776 H   0  0  0  0  0  0  0  0  0  0  0  0
    0.9409   -1.8713   -0.4745 H   0  0  0  0  0  0  0  0  0  0  0  0
    2.7227   -1.5655   -2.7387 H   0  0  0  0  0  0  0  0  0  0  0  0
    2.8856   -2.7214   -1.3345 H   0  0  0  0  0  0  0  0  0  0  0  0
    4.8252   -1.3984   -1.5342 H   0  0  0  0  0  0  0  0  0  0  0  0
    4.6728    0.6685   -2.0620 H   0  0  0  0  0  0  0  0  0  0  0  0
    3.8608   -2.1623    0.6551 H   0  0  0  0  0  0  0  0  0  0  0  0
    3.0333   -0.6218    0.8919 H   0  0  0  0  0  0  0  0  0  0  0  0
    6.4000   -2.0516    1.5425 H   0  0  0  0  0  0  0  0  0  0  0  0
    6.2394   -1.7948   -0.1894 H   0  0  0  0  0  0  0  0  0  0  0  0
    8.3678   -1.0168    1.3034 H   0  0  0  0  0  0  0  0  0  0  0  0
    7.9510   -0.2953   -0.2738 H   0  0  0  0  0  0  0  0  0  0  0  0
    6.5258    1.2239   -0.3654 H   0  0  0  0  0  0  0  0  0  0  0  0
    6.4620    2.5549    0.9159 H   0  0  0  0  0  0  0  0  0  0  0  0
    5.1227    1.0724    2.3311 H   0  0  0  0  0  0  0  0  0  0  0  0
    4.3267    1.4070    0.7958 H   0  0  0  0  0  0  0  0  0  0  0  0
  1  2  1  0
  2  3  1  0
  3  4  1  0
  4  5  1  0
  5  6  2  0
  6  7  1  0
  7  8  2  0
  7  9  1  0
  9 10  1  0
 10 11  2  0
 11 12  1  0
 12 13  2  0
 13 14  1  0
 13 15  1  0
 15 16  2  0
  4 17  2  0
 17 18  1  0
 17 19  1  0
 19 20  1  0
 20 21  2  0
 20 22  1  0
 22 23  1  0
 23 24  1  0
 24 25  1  0
 24 26  1  0
 26 27  1  0
 27 28  1  0
 28 29  1  0
 29 30  1  0
 30 31  1  0
 31 32  1  0
 19  2  2  0
 32 27  1  0
 16  6  1  0
 16 10  1  0
  1 33  1  0
  1 34  1  0
  1 35  1  0
  3 36  1  0
  5 37  1  0
  9 38  1  0
 11 39  1  0
 12 40  1  0
 15 41  1  0
 18 42  1  0
 18 43  1  0
 18 44  1  0
 22 45  1  0
 23 46  1  0
 23 47  1  0
 24 48  1  6
 25 49  1  0
 26 50  1  0
 26 51  1  0
 28 52  1  0
 28 53  1  0
 29 54  1  0
 29 55  1  0
 31 56  1  0
 31 57  1  0
 32 58  1  0
 32 59  1  0
M  END
$$$$
[H]c1c([H])c(N([H])C(=O)N([H])c2c([H])c([H])c(-c3c([H])c([H])c([H])c4c3c(N([H])[H])nn4[H])c([H])c2[H])c([H])c(C(F)(F)F)c1[H]
     RDKit          3D

 46 49  0  0  0  0  0  0  0  0999 V2000
   -4.0605    1.9129   -1.1031 N   0  0  0  0  0  0  0  0  0  0  0  0
   -5.1876    1.2698   -0.5327 C   0  0  0  0  0  0  0  0  0  0  0  0
   -6.4016    1.7605   -0.3192 N   0  0  0  0  0  0  0  0  0  0  0  0
   -7.2039    0.8613    0.1994 N   0  0  0  0  0  0  0  0  0  0  0  0
   -6.4704   -0.3031    0.3380 C   0  0  0  0  0  0  0  0  0  0  0  0
   -6.7958   -1.5060    0.8106 C   0  0  0  0  0  0  0  0  0  0  0  0
   -5.8556   -2.4904    0.8286 C   0  0  0  0  0  0  0  0  0  0  0  0
   -4.5693   -2.2953    0.3774 C   0  0  0  0  0  0  0  0  0  0  0  0
   -4.2178   -1.0216   -0.1193 C   0  0  0  0  0  0  0  0  0  0  0  0
   -2.8099   -0.8608   -0.4208 C   0  0  0  0  0  0  0  0  0  0  0  0
   -2.0375   -0.4096    0.6832 C   0  0  0  0  0  0  0  0  0  0  0  0
   -0.6895   -0.3104    0.5457 C   0  0  0  0  0  0  0  0  0  0  0  0
   -0.0067   -0.6345   -0.6471 C   0  0  0  0  0  0  0  0  0  0  0  0
    1.3907   -0.5482   -0.5047 N   0  0  0  0  0  0  0  0  0  0  0  0
    1.7887    0.8874   -0.1043 C   0  0  0  0  0  0  0  0  0  0  0  0
    0.9493    1.6503   -0.1204 O   0  0  0  0  0  0  0  0  0  0  0  0
    3.1638    0.8899    0.2101 N   0  0  0  0  0  0  0  0  0  0  0  0
    4.4081    0.9399    0.5069 C   0  0  0  0  0  0  0  0  0  0  0  0
    4.9349    1.5635    1.6790 C   0  0  0  0  0  0  0  0  0  0  0  0
    6.2247    1.5729    2.0419 C   0  0  0  0  0  0  0  0  0  0  0  0
    7.1712    0.9453    1.2555 C   0  0  0  0  0  0  0  0  0  0  0  0
    6.7062    0.3255    0.1088 C   0  0  0  0  0  0  0  0  0  0  0  0
    5.4182    0.3089   -0.2627 C   0  0  0  0  0  0  0  0  0  0  0  0
    7.7342   -0.3724   -0.7394 C   0  0  0  0  0  0  0  0  0  0  0  0
    8.0322   -1.5461   -0.0776 F   0  0  0  0  0  0  0  0  0  0  0  0
    8.8902    0.4135   -0.7791 F   0  0  0  0  0  0  0  0  0  0  0  0
    7.1915   -0.5841   -1.9568 F   0  0  0  0  0  0  0  0  0  0  0  0
   -0.7319   -1.0588   -1.6804 C   0  0  0  0  0  0  0  0  0  0  0  0
   -2.1639   -1.1666   -1.5481 C   0  0  0  0  0  0  0  0  0  0  0  0
   -5.1873   -0.0609   -0.1181 C   0  0  0  0  0  0  0  0  0  0  0  0
   -3.2292    2.1105   -0.5134 H   0  0  0  0  0  0  0  0  0  0  0  0
   -4.0237    2.1971   -2.1089 H   0  0  0  0  0  0  0  0  0  0  0  0
   -8.2273    0.9485    0.4785 H   0  0  0  0  0  0  0  0  0  0  0  0
   -7.8111   -1.7421    1.1461 H   0  0  0  0  0  0  0  0  0  0  0  0
   -6.0792   -3.5200    1.1862 H   0  0  0  0  0  0  0  0  0  0  0  0
   -3.8284   -3.0725    0.3704 H   0  0  0  0  0  0  0  0  0  0  0  0
   -2.5564   -0.1900    1.5757 H   0  0  0  0  0  0  0  0  0  0  0  0
   -0.0552    0.0452    1.3850 H   0  0  0  0  0  0  0  0  0  0  0  0
    2.0972   -1.2411   -0.6168 H   0  0  0  0  0  0  0  0  0  0  0  0
    3.0836    2.3140    0.2175 H   0  0  0  0  0  0  0  0  0  0  0  0
    4.1611    2.0733    2.2822 H   0  0  0  0  0  0  0  0  0  0  0  0
    6.5595    2.0812    2.9524 H   0  0  0  0  0  0  0  0  0  0  0  0
    8.2196    0.8905    1.4830 H   0  0  0  0  0  0  0  0  0  0  0  0
    5.0883   -0.1698   -1.1701 H   0  0  0  0  0  0  0  0  0  0  0  0
   -0.3057   -1.3570   -2.6568 H   0  0  0  0  0  0  0  0  0  0  0  0
   -2.7080   -1.5007   -2.3938 H   0  0  0  0  0  0  0  0  0  0  0  0
  1  2  1  0
  2  3  2  0
  3  4  1  0
  4  5  1  0
  5  6  2  0
  6  7  1  0
  7  8  2  0
  8  9  1  0
  9 10  1  0
 10 11  2  0
 11 12  1  0
 12 13  2  0
 13 14  1  0
 14 15  1  0
 15 16  2  0
 15 17  1  0
 17 18  1  0
 18 19  2  0
 19 20  1  0
 20 21  2  0
 21 22  1  0
 22 23  2  0
 22 24  1  0
 24 25  1  0
 24 26  1  0
 24 27  1  0
 13 28  1  0
 28 29  2  0
  9 30  2  0
 30  2  1  0
 30  5  1  0
 29 10  1  0
 23 18  1  0
  1 31  1  0
  1 32  1  0
  4 33  1  0
  6 34  1  0
  7 35  1  0
  8 36  1  0
 11 37  1  0
 12 38  1  0
 14 39  1  0
 17 40  1  0
 19 41  1  0
 20 42  1  0
 21 43  1  0
 23 44  1  0
 28 45  1  0
 29 46  1  0
M  END
$$$$
[H]Oc1c([H])c(C([H])([H])[H])c2c(oc(=O)c3c(O[H])c([H])c(OC([H])([H])[H])c([H])c32)c1O[H]
     RDKit          3D

 33 35  0  0  0  0  0  0  0  0999 V2000
    3.9081   -1.4397   -0.4085 C   0  0  0  0  0  0  0  0  0  0  0  0
    3.8448   -0.0424   -0.2785 O   0  0  0  0  0  0  0  0  0  0  0  0
    2.6523    0.6233   -0.1303 C   0  0  0  0  0  0  0  0  0  0  0  0
    2.6105    1.9874   -0.0049 C   0  0  0  0  0  0  0  0  0  0  0  0
    1.4370    2.6660    0.1428 C   0  0  0  0  0  0  0  0  0  0  0  0
    1.3731    4.0551    0.2718 O   0  0  0  0  0  0  0  0  0  0  0  0
    0.2682    1.9415    0.1647 C   0  0  0  0  0  0  0  0  0  0  0  0
    0.2805    0.5484    0.0395 C   0  0  0  0  0  0  0  0  0  0  0  0
    1.4558   -0.1263   -0.1089 C   0  0  0  0  0  0  0  0  0  0  0  0
   -0.9249   -0.1348    0.0620 C   0  0  0  0  0  0  0  0  0  0  0  0
   -0.9599   -1.4952   -0.0541 C   0  0  0  0  0  0  0  0  0  0  0  0
    0.1738   -2.3777   -0.1851 C   0  0  0  0  0  0  0  0  0  0  0  0
   -2.2594   -2.0742   -0.0181 C   0  0  0  0  0  0  0  0  0  0  0  0
   -3.4034   -1.3403    0.1230 C   0  0  0  0  0  0  0  0  0  0  0  0
   -4.6452   -1.9473    0.1526 O   0  0  0  0  0  0  0  0  0  0  0  0
   -3.3156    0.0109    0.2360 C   0  0  0  0  0  0  0  0  0  0  0  0
   -4.4509    0.7932    0.3813 O   0  0  0  0  0  0  0  0  0  0  0  0
   -2.0864    0.6288    0.2076 C   0  0  0  0  0  0  0  0  0  0  0  0
   -2.0471    1.9427    0.3214 O   0  0  0  0  0  0  0  0  0  0  0  0
   -0.9422    2.6147    0.3066 C   0  0  0  0  0  0  0  0  0  0  0  0
   -0.9260    3.8544    0.4160 O   0  0  0  0  0  0  0  0  0  0  0  0
    3.3644   -1.9641    0.4174 H   0  0  0  0  0  0  0  0  0  0  0  0
    4.9476   -1.8210   -0.3623 H   0  0  0  0  0  0  0  0  0  0  0  0
    3.4139   -1.7501   -1.3534 H   0  0  0  0  0  0  0  0  0  0  0  0
    3.5185    2.5673   -0.0196 H   0  0  0  0  0  0  0  0  0  0  0  0
    2.1633    4.6553    0.2669 H   0  0  0  0  0  0  0  0  0  0  0  0
    1.6154   -1.1341   -0.2232 H   0  0  0  0  0  0  0  0  0  0  0  0
    0.6370   -2.5039   -1.1871 H   0  0  0  0  0  0  0  0  0  0  0  0
    0.7987   -2.5834    0.7157 H   0  0  0  0  0  0  0  0  0  0  0  0
   -0.2937   -3.4423   -0.1810 H   0  0  0  0  0  0  0  0  0  0  0  0
   -2.3326   -3.1543   -0.1094 H   0  0  0  0  0  0  0  0  0  0  0  0
   -5.4554   -1.3586    0.2585 H   0  0  0  0  0  0  0  0  0  0  0  0
   -4.4204    1.8005    0.4679 H   0  0  0  0  0  0  0  0  0  0  0  0
  1  2  1  0
  2  3  1  0
  3  4  2  0
  4  5  1  0
  5  6  1  0
  5  7  2  0
  7  8  1  0
  8  9  2  0
  8 10  1  0
 10 11  2  0
 11 12  1  0
 11 13  1  0
 13 14  2  0
 14 15  1  0
 14 16  1  0
 16 17  1  0
 16 18  2  0
 18 19  1  0
 19 20  1  0
 20 21  2  0
  9  3  1  0
 18 10  1  0
 20  7  1  0
  1 22  1  0
  1 23  1  0
  1 24  1  0
  4 25  1  0
  6 26  1  0
  9 27  1  0
 12 28  1  0
 12 29  1  0
 12 30  1  0
 13 31  1  0
 15 32  1  0
 17 33  1  0
M  END
$$$$
[H]c1c([H])c(C(=O)N([H])c2nc3c(C4([H])C([H])([H])C([H])([H])N(C([H])([H])[H])C([H])([H])C4([H])[H])c([H])n([H])c3c([H])c2[H])c([H])c([H])c1Cl
     RDKit          3D

 47 50  0  0  0  0  0  0  0  0999 V2000
   -5.8570   -0.5066    0.6270 C   0  0  0  0  0  0  0  0  0  0  0  0
   -4.7061   -1.3023    0.9868 N   0  0  0  0  0  0  0  0  0  0  0  0
   -4.3866   -2.3077    0.0336 C   0  0  0  0  0  0  0  0  0  0  0  0
   -3.4701   -1.8522   -1.0769 C   0  0  0  0  0  0  0  0  0  0  0  0
   -2.2077   -1.1977   -0.5621 C   0  0  0  0  0  0  0  0  0  0  0  0
   -2.2626   -1.0738    0.9569 C   0  0  0  0  0  0  0  0  0  0  0  0
   -3.5827   -0.5073    1.4120 C   0  0  0  0  0  0  0  0  0  0  0  0
   -1.9409    0.1161   -1.1879 C   0  0  0  0  0  0  0  0  0  0  0  0
   -2.7933    0.9325   -1.8589 C   0  0  0  0  0  0  0  0  0  0  0  0
   -2.1438    2.0648   -2.2379 N   0  0  0  0  0  0  0  0  0  0  0  0
   -0.8713    2.0125   -1.8295 C   0  0  0  0  0  0  0  0  0  0  0  0
    0.2192    2.8418   -1.9337 C   0  0  0  0  0  0  0  0  0  0  0  0
    1.4152    2.4142   -1.3713 C   0  0  0  0  0  0  0  0  0  0  0  0
    1.5524    1.2264   -0.7294 C   0  0  0  0  0  0  0  0  0  0  0  0
    2.7416    0.7476   -0.1463 N   0  0  0  0  0  0  0  0  0  0  0  0
    3.9993    1.3495   -0.0627 C   0  0  0  0  0  0  0  0  0  0  0  0
    4.2930    2.4841   -0.4950 O   0  0  0  0  0  0  0  0  0  0  0  0
    5.0706    0.5737    0.5952 C   0  0  0  0  0  0  0  0  0  0  0  0
    6.0781    1.1483    1.3261 C   0  0  0  0  0  0  0  0  0  0  0  0
    7.0635    0.4072    1.9407 C   0  0  0  0  0  0  0  0  0  0  0  0
    7.0635   -0.9865    1.8351 C   0  0  0  0  0  0  0  0  0  0  0  0
    8.2736   -1.9684    2.5983 Cl  0  0  0  0  0  0  0  0  0  0  0  0
    6.0464   -1.5601    1.0972 C   0  0  0  0  0  0  0  0  0  0  0  0
    5.0694   -0.8004    0.4888 C   0  0  0  0  0  0  0  0  0  0  0  0
    0.4451    0.4252   -0.6422 N   0  0  0  0  0  0  0  0  0  0  0  0
   -0.7145    0.8061   -1.1706 C   0  0  0  0  0  0  0  0  0  0  0  0
   -5.8359    0.4523    1.1770 H   0  0  0  0  0  0  0  0  0  0  0  0
   -5.9345   -0.2704   -0.4438 H   0  0  0  0  0  0  0  0  0  0  0  0
   -6.8258   -1.0155    0.9149 H   0  0  0  0  0  0  0  0  0  0  0  0
   -3.8959   -3.1601    0.5529 H   0  0  0  0  0  0  0  0  0  0  0  0
   -5.3397   -2.6282   -0.4541 H   0  0  0  0  0  0  0  0  0  0  0  0
   -4.0162   -1.2325   -1.7847 H   0  0  0  0  0  0  0  0  0  0  0  0
   -3.2227   -2.8046   -1.6404 H   0  0  0  0  0  0  0  0  0  0  0  0
   -1.3654   -1.8666   -0.7868 H   0  0  0  0  0  0  0  0  0  0  0  0
   -2.1608   -2.0845    1.3907 H   0  0  0  0  0  0  0  0  0  0  0  0
   -1.4390   -0.4062    1.2553 H   0  0  0  0  0  0  0  0  0  0  0  0
   -3.5843   -0.4906    2.5163 H   0  0  0  0  0  0  0  0  0  0  0  0
   -3.7189    0.5540    1.0794 H   0  0  0  0  0  0  0  0  0  0  0  0
   -3.8559    0.7503   -2.0819 H   0  0  0  0  0  0  0  0  0  0  0  0
   -2.5446    2.8670   -2.7622 H   0  0  0  0  0  0  0  0  0  0  0  0
    0.1902    3.7963   -2.4298 H   0  0  0  0  0  0  0  0  0  0  0  0
    2.2557    3.0892   -1.4751 H   0  0  0  0  0  0  0  0  0  0  0  0
    2.6809   -0.2324    0.2881 H   0  0  0  0  0  0  0  0  0  0  0  0
    6.0524    2.2476    1.3907 H   0  0  0  0  0  0  0  0  0  0  0  0
    7.8386    0.8698    2.5071 H   0  0  0  0  0  0  0  0  0  0  0  0
    6.0304   -2.6369    1.0067 H   0  0  0  0  0  0  0  0  0  0  0  0
    4.2970   -1.2850   -0.0877 H   0  0  0  0  0  0  0  0  0  0  0  0
  1  2  1  0
  2  3  1  0
  3  4  1  0
  4  5  1  0
  5  6  1  0
  6  7  1  0
  5  8  1  0
  8  9  2  0
  9 10  1  0
 10 11  1  0
 11 12  2  0
 12 13  1  0
 13 14  2  0
 14 15  1  0
 15 16  1  0
 16 17  2  0
 16 18  1  0
 18 19  2  0
 19 20  1  0
 20 21  2  0
 21 22  1  0
 21 23  1  0
 23 24  2  0
 14 25  1  0
 25 26  2  0
  7  2  1  0
 26  8  1  0
 26 11  1  0
 24 18  1  0
  1 27  1  0
  1 28  1  0
  1 29  1  0
  3 30  1  0
  3 31  1  0
  4 32  1  0
  4 33  1  0
  5 34  1  0
  6 35  1  0
  6 36  1  0
  7 37  1  0
  7 38  1  0
  9 39  1  0
 10 40  1  0
 12 41  1  0
 13 42  1  0
 15 43  1  0
 19 44  1  0
 20 45  1  0
 23 46  1  0
 24 47  1  0
M  END
$$$$
[H]N=C(c1c([H])c([H])c([H])c(C([H])([H])C([H])(C(=O)N2C([H])([H])C([H])([H])C([H])(C([H])([H])[H])C([H])([H])C2([H])[H])N([H])S(=O)(=O)c2c([H])c([H])c([H])c3c([H])c([H])c([H])c([H])c23)c1[H])N([H])[H]
     RDKit          3D

 64 67  0  0  0  0  0  0  0  0999 V2000
    5.3437   -2.4475   -0.7664 C   0  0  0  0  0  0  0  0  0  0  0  0
    4.2990   -3.0964    0.1383 C   0  0  0  0  0  0  0  0  0  0  0  0
    2.9871   -3.3119   -0.5611 C   0  0  0  0  0  0  0  0  0  0  0  0
    1.8769   -2.4503    0.1273 C   0  0  0  0  0  0  0  0  0  0  0  0
    2.3436   -1.0965    0.0938 N   0  0  0  0  0  0  0  0  0  0  0  0
    3.6748   -0.8333    0.7013 C   0  0  0  0  0  0  0  0  0  0  0  0
    4.0960   -2.1571    1.3370 C   0  0  0  0  0  0  0  0  0  0  0  0
    1.5863    0.0078   -0.3455 C   0  0  0  0  0  0  0  0  0  0  0  0
    2.4159    0.8526   -0.9840 O   0  0  0  0  0  0  0  0  0  0  0  0
    0.2266    0.3318   -0.2293 C   0  0  0  0  0  0  0  0  0  0  0  0
    0.1505    1.8282   -0.7640 C   0  0  0  0  0  0  0  0  0  0  0  0
    0.6989    2.8792    0.0297 C   0  0  0  0  0  0  0  0  0  0  0  0
    1.5881    2.9428    1.0404 C   0  0  0  0  0  0  0  0  0  0  0  0
    1.9485    4.1392    1.6353 C   0  0  0  0  0  0  0  0  0  0  0  0
    1.4044    5.3596    1.2212 C   0  0  0  0  0  0  0  0  0  0  0  0
    0.4963    5.3304    0.1954 C   0  0  0  0  0  0  0  0  0  0  0  0
    0.1654    4.1490   -0.3666 C   0  0  0  0  0  0  0  0  0  0  0  0
   -0.1428    6.5704   -0.3183 C   0  0  0  0  0  0  0  0  0  0  0  0
   -1.1013    6.4382   -1.3739 N   0  0  0  0  0  0  0  0  0  0  0  0
    0.1253    7.7107    0.1878 N   0  0  0  0  0  0  0  0  0  0  0  0
   -0.8550   -0.2035   -1.0641 N   0  0  0  0  0  0  0  0  0  0  0  0
   -2.3136    0.1364   -0.1627 S   0  0  0  0  0  0  0  0  0  0  0  0
   -1.9327    1.0481    1.0088 O   0  0  0  0  0  0  0  0  0  0  0  0
   -3.2202    1.0438   -0.9823 O   0  0  0  0  0  0  0  0  0  0  0  0
   -3.1695   -1.2032    0.4830 C   0  0  0  0  0  0  0  0  0  0  0  0
   -3.1334   -1.4671    1.8763 C   0  0  0  0  0  0  0  0  0  0  0  0
   -3.8050   -2.5246    2.4318 C   0  0  0  0  0  0  0  0  0  0  0  0
   -4.5399   -3.3676    1.6502 C   0  0  0  0  0  0  0  0  0  0  0  0
   -4.5978   -3.1545    0.3182 C   0  0  0  0  0  0  0  0  0  0  0  0
   -5.3787   -3.9898   -0.4674 C   0  0  0  0  0  0  0  0  0  0  0  0
   -5.4876   -3.7634   -1.8403 C   0  0  0  0  0  0  0  0  0  0  0  0
   -4.8203   -2.7126   -2.4043 C   0  0  0  0  0  0  0  0  0  0  0  0
   -4.0291   -1.8633   -1.6280 C   0  0  0  0  0  0  0  0  0  0  0  0
   -3.9171   -2.0803   -0.2674 C   0  0  0  0  0  0  0  0  0  0  0  0
    5.9207   -3.1619   -1.3760 H   0  0  0  0  0  0  0  0  0  0  0  0
    5.9858   -1.8423   -0.0637 H   0  0  0  0  0  0  0  0  0  0  0  0
    4.7934   -1.7919   -1.4945 H   0  0  0  0  0  0  0  0  0  0  0  0
    4.7393   -4.0249    0.5371 H   0  0  0  0  0  0  0  0  0  0  0  0
    2.6545   -4.3489   -0.4819 H   0  0  0  0  0  0  0  0  0  0  0  0
    3.0882   -3.0339   -1.6067 H   0  0  0  0  0  0  0  0  0  0  0  0
    0.9935   -2.6046   -0.5702 H   0  0  0  0  0  0  0  0  0  0  0  0
    1.6336   -2.8468    1.0944 H   0  0  0  0  0  0  0  0  0  0  0  0
    4.4159   -0.5257   -0.0096 H   0  0  0  0  0  0  0  0  0  0  0  0
    3.5729   -0.1020    1.5530 H   0  0  0  0  0  0  0  0  0  0  0  0
    5.0317   -2.0643    1.8753 H   0  0  0  0  0  0  0  0  0  0  0  0
    3.3497   -2.6049    1.9858 H   0  0  0  0  0  0  0  0  0  0  0  0
   -0.0994    0.5174    0.8464 H   0  0  0  0  0  0  0  0  0  0  0  0
   -0.8903    2.0326   -1.0674 H   0  0  0  0  0  0  0  0  0  0  0  0
    0.6881    1.7057   -1.7716 H   0  0  0  0  0  0  0  0  0  0  0  0
    2.0028    2.0173    1.4144 H   0  0  0  0  0  0  0  0  0  0  0  0
    2.6568    4.1328    2.4285 H   0  0  0  0  0  0  0  0  0  0  0  0
    1.7002    6.2701    1.6883 H   0  0  0  0  0  0  0  0  0  0  0  0
   -0.5653    4.1883   -1.1839 H   0  0  0  0  0  0  0  0  0  0  0  0
   -0.7469    6.4016   -2.3578 H   0  0  0  0  0  0  0  0  0  0  0  0
   -2.1040    6.3497   -1.1638 H   0  0  0  0  0  0  0  0  0  0  0  0
    0.7635    7.9137    0.9557 H   0  0  0  0  0  0  0  0  0  0  0  0
   -0.8501   -1.2432   -1.1278 H   0  0  0  0  0  0  0  0  0  0  0  0
   -2.5475   -0.7805    2.4551 H   0  0  0  0  0  0  0  0  0  0  0  0
   -3.7580   -2.7137    3.4902 H   0  0  0  0  0  0  0  0  0  0  0  0
   -5.0863   -4.2363    2.0640 H   0  0  0  0  0  0  0  0  0  0  0  0
   -5.8893   -4.7951   -0.0343 H   0  0  0  0  0  0  0  0  0  0  0  0
   -6.0931   -4.3685   -2.4935 H   0  0  0  0  0  0  0  0  0  0  0  0
   -4.8691   -2.4620   -3.4820 H   0  0  0  0  0  0  0  0  0  0  0  0
   -3.4746   -1.0233   -2.0537 H   0  0  0  0  0  0  0  0  0  0  0  0
  1  2  1  0
  2  3  1  0
  3  4  1  0
  4  5  1  0
  5  6  1  0
  6  7  1  0
  5  8  1  0
  8  9  2  0
  8 10  1  0
 10 11  1  0
 11 12  1  0
 12 13  2  0
 13 14  1  0
 14 15  2  0
 15 16  1  0
 16 17  2  0
 16 18  1  0
 18 19  1  0
 18 20  2  3
 10 21  1  0
 21 22  1  0
 22 23  2  0
 22 24  2  0
 22 25  1  0
 25 26  2  0
 26 27  1  0
 27 28  2  0
 28 29  1  0
 29 30  2  0
 30 31  1  0
 31 32  2  0
 32 33  1  0
 33 34  2  0
  7  2  1  0
 17 12  1  0
 34 25  1  0
 34 29  1  0
  1 35  1  0
  1 36  1  0
  1 37  1  0
  2 38  1  0
  3 39  1  0
  3 40  1  0
  4 41  1  0
  4 42  1  0
  6 43  1  0
  6 44  1  0
  7 45  1  0
  7 46  1  0
 10 47  1  0
 11 48  1  0
 11 49  1  0
 13 50  1  0
 14 51  1  0
 15 52  1  0
 17 53  1  0
 19 54  1  0
 19 55  1  0
 20 56  1  0
 21 57  1  0
 26 58  1  0
 27 59  1  0
 28 60  1  0
 30 61  1  0
 31 62  1  0
 32 63  1  0
 33 64  1  0
M  END
$$$$
[H]O[C@]1([H])[C@]([H])(C([H])([H])OP(=O)(O[H])OP(=O)(O[H])OP(=O)(O[H])O[H])O[C@@]([H])(n2c([H])nc3c(N([H])[H])nc([H])nc32)[C@]1([H])O[H]
     RDKit          3D

 47 49  0  0  0  0  0  0  0  0999 V2000
   -8.0543    0.1763   -0.8270 N   0  0  0  0  0  0  0  0  0  0  0  0
   -6.7932   -0.0514   -0.2276 C   0  0  0  0  0  0  0  0  0  0  0  0
   -6.7611   -0.6076    1.0091 N   0  0  0  0  0  0  0  0  0  0  0  0
   -5.5834   -0.8361    1.6041 C   0  0  0  0  0  0  0  0  0  0  0  0
   -4.4377   -0.5257    1.0009 N   0  0  0  0  0  0  0  0  0  0  0  0
   -4.4252    0.0246   -0.2196 C   0  0  0  0  0  0  0  0  0  0  0  0
   -3.4406    0.4210   -1.0259 N   0  0  0  0  0  0  0  0  0  0  0  0
   -3.9896    0.9070   -2.1454 C   0  0  0  0  0  0  0  0  0  0  0  0
   -5.3386    0.8162   -2.0446 N   0  0  0  0  0  0  0  0  0  0  0  0
   -5.6168    0.2678   -0.8484 C   0  0  0  0  0  0  0  0  0  0  0  0
   -2.0232    0.3201   -0.6960 C   0  0  2  0  0  0  0  0  0  0  0  0
   -1.2438    0.9437   -1.6528 O   0  0  0  0  0  0  0  0  0  0  0  0
    0.0277    0.3918   -1.5141 C   0  0  1  0  0  0  0  0  0  0  0  0
    0.6981    0.9381   -0.2787 C   0  0  0  0  0  0  0  0  0  0  0  0
    1.9735    0.4117   -0.1020 O   0  0  0  0  0  0  0  0  0  0  0  0
    2.7348    1.0010    1.2575 P   0  0  0  0  0  0  0  0  0  0  0  0
    3.9313    2.0807    0.8255 O   0  0  0  0  0  0  0  0  0  0  0  0
    1.6899    1.7422    2.0866 O   0  0  0  0  0  0  0  0  0  0  0  0
    3.3568   -0.2131    2.2432 O   0  0  0  0  0  0  0  0  0  0  0  0
    4.9493   -0.5897    1.9217 P   0  0  0  0  0  0  0  0  0  0  0  0
    5.8450   -0.2765    3.3462 O   0  0  0  0  0  0  0  0  0  0  0  0
    5.0788   -2.0693    1.6075 O   0  0  0  0  0  0  0  0  0  0  0  0
    5.6247    0.3289    0.7007 O   0  0  0  0  0  0  0  0  0  0  0  0
    7.0550   -0.3591    0.1438 P   0  0  0  0  0  0  0  0  0  0  0  0
    7.3108    0.0109   -1.4875 O   0  0  0  0  0  0  0  0  0  0  0  0
    8.4006    0.2081    0.9995 O   0  0  0  0  0  0  0  0  0  0  0  0
    7.0483   -1.8641    0.2739 O   0  0  0  0  0  0  0  0  0  0  0  0
   -0.2623   -1.0784   -1.3618 C   0  0  1  0  0  0  0  0  0  0  0  0
    0.7591   -1.6445   -0.6022 O   0  0  0  0  0  0  0  0  0  0  0  0
   -1.5843   -1.1181   -0.6504 C   0  0  1  0  0  0  0  0  0  0  0  0
   -1.5264   -1.6459    0.6159 O   0  0  0  0  0  0  0  0  0  0  0  0
   -8.1909    0.1067   -1.8558 H   0  0  0  0  0  0  0  0  0  0  0  0
   -8.8802    0.4201   -0.2511 H   0  0  0  0  0  0  0  0  0  0  0  0
   -5.5314   -1.2791    2.5910 H   0  0  0  0  0  0  0  0  0  0  0  0
   -3.4953    1.3092   -3.0010 H   0  0  0  0  0  0  0  0  0  0  0  0
   -1.8915    0.8565    0.2587 H   0  0  0  0  0  0  0  0  0  0  0  0
    0.5980    0.6226   -2.4315 H   0  0  0  0  0  0  0  0  0  0  0  0
    0.7011    2.0452   -0.3722 H   0  0  0  0  0  0  0  0  0  0  0  0
    0.1102    0.6802    0.6076 H   0  0  0  0  0  0  0  0  0  0  0  0
    4.0691    2.0425   -0.1434 H   0  0  0  0  0  0  0  0  0  0  0  0
    5.3756    0.3782    3.9177 H   0  0  0  0  0  0  0  0  0  0  0  0
    6.4783    0.1996   -1.9688 H   0  0  0  0  0  0  0  0  0  0  0  0
    8.2902    0.0734    1.9742 H   0  0  0  0  0  0  0  0  0  0  0  0
   -0.3188   -1.5775   -2.3492 H   0  0  0  0  0  0  0  0  0  0  0  0
    1.0030   -2.5271   -1.0028 H   0  0  0  0  0  0  0  0  0  0  0  0
   -2.2911   -1.7271   -1.2670 H   0  0  0  0  0  0  0  0  0  0  0  0
   -1.4293   -1.0084    1.3411 H   0  0  0  0  0  0  0  0  0  0  0  0
  1  2  1  0
  2  3  2  0
  3  4  1  0
  4  5  2  0
  5  6  1  0
  6  7  1  0
  7  8  1  0
  8  9  2  0
  9 10  1  0
  7 11  1  0
 11 12  1  0
 12 13  1  0
 13 14  1  0
 14 15  1  0
 15 16  1  0
 16 17  1  0
 16 18  2  0
 16 19  1  0
 19 20  1  0
 20 21  1  0
 20 22  2  0
 20 23  1  0
 23 24  1  0
 24 25  1  0
 24 26  1  0
 24 27  2  0
 13 28  1  0
 28 29  1  0
 28 30  1  0
 30 31  1  0
 10  2  1  0
 30 11  1  0
 10  6  2  0
  1 32  1  0
  1 33  1  0
  4 34  1  0
  8 35  1  0
 11 36  1  1
 13 37  1  6
 14 38  1  0
 14 39  1  0
 17 40  1  0
 21 41  1  0
 25 42  1  0
 26 43  1  0
 28 44  1  6
 29 45  1  0
 30 46  1  6
 31 47  1  0
M  END
$$$$
[H]c1c([H])c([H])c(C(=C2C(=O)N([H])c3c([H])c([H])c(N([H])C4([H])C([H])([H])C([H])([H])N(C([H])([H])C([H])([H])[H])C([H])([H])C4([H])[H])c([H])c32)c2nc3c([H])c([H])c([H])c([H])c3n2[H])c([H])c1[H]
     RDKit          3D

 64 69  0  0  0  0  0  0  0  0999 V2000
    7.8891   -1.4619    1.7335 C   0  0  0  0  0  0  0  0  0  0  0  0
    7.5534   -0.8422    0.3867 C   0  0  0  0  0  0  0  0  0  0  0  0
    6.1336   -0.7921    0.2422 N   0  0  0  0  0  0  0  0  0  0  0  0
    5.7087   -0.2284   -0.9986 C   0  0  0  0  0  0  0  0  0  0  0  0
    4.2229    0.0571   -1.0364 C   0  0  0  0  0  0  0  0  0  0  0  0
    3.8389    1.0658   -0.0106 C   0  0  0  0  0  0  0  0  0  0  0  0
    4.7080    0.9711    1.2221 C   0  0  0  0  0  0  0  0  0  0  0  0
    5.4018   -0.3467    1.3804 C   0  0  0  0  0  0  0  0  0  0  0  0
    2.4372    0.9493    0.2991 N   0  0  0  0  0  0  0  0  0  0  0  0
    1.4073    1.2755   -0.6180 C   0  0  0  0  0  0  0  0  0  0  0  0
    1.6886    1.9895   -1.7431 C   0  0  0  0  0  0  0  0  0  0  0  0
    0.6932    2.2789   -2.6253 C   0  0  0  0  0  0  0  0  0  0  0  0
   -0.6078    1.8636   -2.4043 C   0  0  0  0  0  0  0  0  0  0  0  0
   -1.7915    2.0131   -3.1611 N   0  0  0  0  0  0  0  0  0  0  0  0
   -2.8795    1.3867   -2.5195 C   0  0  0  0  0  0  0  0  0  0  0  0
   -4.0445    1.3594   -2.9701 O   0  0  0  0  0  0  0  0  0  0  0  0
   -2.3600    0.7932   -1.2570 C   0  0  0  0  0  0  0  0  0  0  0  0
   -3.0379    0.1109   -0.3852 C   0  0  0  0  0  0  0  0  0  0  0  0
   -4.4731   -0.1719   -0.5615 C   0  0  0  0  0  0  0  0  0  0  0  0
   -5.4299    0.7430   -0.6982 N   0  0  0  0  0  0  0  0  0  0  0  0
   -6.6344    0.1738   -0.8246 C   0  0  0  0  0  0  0  0  0  0  0  0
   -7.9087    0.6464   -0.9880 C   0  0  0  0  0  0  0  0  0  0  0  0
   -8.9542   -0.2489   -1.0884 C   0  0  0  0  0  0  0  0  0  0  0  0
   -8.7294   -1.6071   -1.0263 C   0  0  0  0  0  0  0  0  0  0  0  0
   -7.4415   -2.0914   -0.8608 C   0  0  0  0  0  0  0  0  0  0  0  0
   -6.4029   -1.1945   -0.7614 C   0  0  0  0  0  0  0  0  0  0  0  0
   -5.0829   -1.3940   -0.6015 N   0  0  0  0  0  0  0  0  0  0  0  0
   -2.5583   -0.3257    0.8990 C   0  0  0  0  0  0  0  0  0  0  0  0
   -2.3306   -1.6322    1.1948 C   0  0  0  0  0  0  0  0  0  0  0  0
   -1.9801   -2.0231    2.4712 C   0  0  0  0  0  0  0  0  0  0  0  0
   -1.8512   -1.0979    3.4820 C   0  0  0  0  0  0  0  0  0  0  0  0
   -2.0774    0.2265    3.2007 C   0  0  0  0  0  0  0  0  0  0  0  0
   -2.4272    0.6155    1.9257 C   0  0  0  0  0  0  0  0  0  0  0  0
   -0.9061    1.1419   -1.2675 C   0  0  0  0  0  0  0  0  0  0  0  0
    0.0991    0.8435   -0.3720 C   0  0  0  0  0  0  0  0  0  0  0  0
    8.7566   -2.1615    1.6457 H   0  0  0  0  0  0  0  0  0  0  0  0
    8.1862   -0.6262    2.4168 H   0  0  0  0  0  0  0  0  0  0  0  0
    7.0484   -2.0524    2.1250 H   0  0  0  0  0  0  0  0  0  0  0  0
    8.0674    0.1275    0.2889 H   0  0  0  0  0  0  0  0  0  0  0  0
    7.9464   -1.5724   -0.3768 H   0  0  0  0  0  0  0  0  0  0  0  0
    5.9003   -0.9859   -1.8050 H   0  0  0  0  0  0  0  0  0  0  0  0
    6.2798    0.6717   -1.3060 H   0  0  0  0  0  0  0  0  0  0  0  0
    4.0111    0.4296   -2.0505 H   0  0  0  0  0  0  0  0  0  0  0  0
    3.6746   -0.9039   -0.9323 H   0  0  0  0  0  0  0  0  0  0  0  0
    3.9880    2.1171   -0.3906 H   0  0  0  0  0  0  0  0  0  0  0  0
    4.0106    1.0806    2.1021 H   0  0  0  0  0  0  0  0  0  0  0  0
    5.4304    1.8048    1.3068 H   0  0  0  0  0  0  0  0  0  0  0  0
    6.1324   -0.2171    2.2185 H   0  0  0  0  0  0  0  0  0  0  0  0
    4.6920   -1.1326    1.7570 H   0  0  0  0  0  0  0  0  0  0  0  0
    2.1613    0.6087    1.2441 H   0  0  0  0  0  0  0  0  0  0  0  0
    2.7071    2.3443   -1.9444 H   0  0  0  0  0  0  0  0  0  0  0  0
    0.8775    2.8477   -3.5390 H   0  0  0  0  0  0  0  0  0  0  0  0
   -1.8563    2.5198   -4.0756 H   0  0  0  0  0  0  0  0  0  0  0  0
   -8.1318    1.6961   -1.0415 H   0  0  0  0  0  0  0  0  0  0  0  0
   -9.9599    0.1280   -1.2161 H   0  0  0  0  0  0  0  0  0  0  0  0
   -9.5526   -2.2758   -1.1075 H   0  0  0  0  0  0  0  0  0  0  0  0
   -7.3023   -3.1662   -0.8165 H   0  0  0  0  0  0  0  0  0  0  0  0
   -4.5511   -2.2769   -0.5176 H   0  0  0  0  0  0  0  0  0  0  0  0
   -2.4040   -2.4078    0.4675 H   0  0  0  0  0  0  0  0  0  0  0  0
   -1.7961   -3.0757    2.7143 H   0  0  0  0  0  0  0  0  0  0  0  0
   -1.5692   -1.4331    4.4941 H   0  0  0  0  0  0  0  0  0  0  0  0
   -1.9747    0.9470    3.9949 H   0  0  0  0  0  0  0  0  0  0  0  0
   -2.6110    1.6596    1.6713 H   0  0  0  0  0  0  0  0  0  0  0  0
   -0.0338    0.2588    0.5180 H   0  0  0  0  0  0  0  0  0  0  0  0
  1  2  1  0
  2  3  1  0
  3  4  1  0
  4  5  1  0
  5  6  1  0
  6  7  1  0
  7  8  1  0
  6  9  1  0
  9 10  1  0
 10 11  2  0
 11 12  1  0
 12 13  2  0
 13 14  1  0
 14 15  1  0
 15 16  2  0
 15 17  1  0
 17 18  2  3
 18 19  1  0
 19 20  2  0
 20 21  1  0
 21 22  2  0
 22 23  1  0
 23 24  2  0
 24 25  1  0
 25 26  2  0
 26 27  1  0
 18 28  1  0
 28 29  2  0
 29 30  1  0
 30 31  2  0
 31 32  1  0
 32 33  2  0
 17 34  1  0
 34 35  2  0
  8  3  1  0
 35 10  1  0
 34 13  1  0
 27 19  1  0
 33 28  1  0
 26 21  1  0
  1 36  1  0
  1 37  1  0
  1 38  1  0
  2 39  1  0
  2 40  1  0
  4 41  1  0
  4 42  1  0
  5 43  1  0
  5 44  1  0
  6 45  1  0
  7 46  1  0
  7 47  1  0
  8 48  1  0
  8 49  1  0
  9 50  1  0
 11 51  1  0
 12 52  1  0
 14 53  1  0
 22 54  1  0
 23 55  1  0
 24 56  1  0
 25 57  1  0
 27 58  1  0
 29 59  1  0
 30 60  1  0
 31 61  1  0
 32 62  1  0
 33 63  1  0
 35 64  1  0
M  END
$$$$
[H]c1c([H])c([H])c2c(c1[H])C([H])([H])N([H])[C@@]([H])(N([H])C(=O)c1c([H])c(C(F)(F)F)c([H])c(C(F)(F)F)c1[H])C2([H])[H]
     RDKit          3D

 41 43  0  0  0  0  0  0  0  0999 V2000
   -5.3638    1.9378    2.3983 F   0  0  0  0  0  0  0  0  0  0  0  0
   -5.7285    1.5161    1.1313 C   0  0  0  0  0  0  0  0  0  0  0  0
   -6.8774    0.7456    1.1462 F   0  0  0  0  0  0  0  0  0  0  0  0
   -5.9419    2.6750    0.3644 F   0  0  0  0  0  0  0  0  0  0  0  0
   -4.6390    0.7248    0.5189 C   0  0  0  0  0  0  0  0  0  0  0  0
   -3.3339    0.8624    0.9961 C   0  0  0  0  0  0  0  0  0  0  0  0
   -2.3389    0.1320    0.4008 C   0  0  0  0  0  0  0  0  0  0  0  0
   -2.6796   -0.7186   -0.6563 C   0  0  0  0  0  0  0  0  0  0  0  0
   -3.9552   -0.8694   -1.1389 C   0  0  0  0  0  0  0  0  0  0  0  0
   -4.9425   -0.1301   -0.5324 C   0  0  0  0  0  0  0  0  0  0  0  0
   -4.2318   -1.8082   -2.2846 C   0  0  0  0  0  0  0  0  0  0  0  0
   -5.4222   -2.4366   -2.1539 F   0  0  0  0  0  0  0  0  0  0  0  0
   -4.1142   -1.0556   -3.4382 F   0  0  0  0  0  0  0  0  0  0  0  0
   -3.1585   -2.7084   -2.3308 F   0  0  0  0  0  0  0  0  0  0  0  0
   -0.9516    0.2150    0.8508 C   0  0  0  0  0  0  0  0  0  0  0  0
   -0.6270    0.2598    2.0515 O   0  0  0  0  0  0  0  0  0  0  0  0
    0.0367    0.2426   -0.1587 N   0  0  0  0  0  0  0  0  0  0  0  0
    1.4375    0.2951    0.2517 C   0  0  1  0  0  0  0  0  0  0  0  0
    2.1818   -0.8873   -0.3549 C   0  0  0  0  0  0  0  0  0  0  0  0
    3.6235   -0.7055   -0.0201 C   0  0  0  0  0  0  0  0  0  0  0  0
    4.3948   -1.7381    0.4576 C   0  0  0  0  0  0  0  0  0  0  0  0
    5.7205   -1.5139    0.7620 C   0  0  0  0  0  0  0  0  0  0  0  0
    6.2062   -0.2329    0.5639 C   0  0  0  0  0  0  0  0  0  0  0  0
    5.4103    0.8116    0.0775 C   0  0  0  0  0  0  0  0  0  0  0  0
    4.0945    0.5734   -0.2212 C   0  0  0  0  0  0  0  0  0  0  0  0
    3.1796    1.5870   -0.7691 C   0  0  0  0  0  0  0  0  0  0  0  0
    1.9458    1.5727   -0.0720 N   0  0  0  0  0  0  0  0  0  0  0  0
   -3.1419    1.5429    1.8152 H   0  0  0  0  0  0  0  0  0  0  0  0
   -1.8521   -1.2712   -1.0969 H   0  0  0  0  0  0  0  0  0  0  0  0
   -5.9525   -0.2445   -0.9110 H   0  0  0  0  0  0  0  0  0  0  0  0
   -0.1989    0.2287   -1.1820 H   0  0  0  0  0  0  0  0  0  0  0  0
    1.4982    0.1332    1.3781 H   0  0  0  0  0  0  0  0  0  0  0  0
    1.7725   -1.8488   -0.0186 H   0  0  0  0  0  0  0  0  0  0  0  0
    2.0788   -0.8385   -1.4782 H   0  0  0  0  0  0  0  0  0  0  0  0
    3.9909   -2.7453    0.6176 H   0  0  0  0  0  0  0  0  0  0  0  0
    6.3495   -2.3019    1.1439 H   0  0  0  0  0  0  0  0  0  0  0  0
    7.2434   -0.0480    0.7939 H   0  0  0  0  0  0  0  0  0  0  0  0
    5.8142    1.8173   -0.0790 H   0  0  0  0  0  0  0  0  0  0  0  0
    3.6176    2.6179   -0.7002 H   0  0  0  0  0  0  0  0  0  0  0  0
    2.9774    1.3512   -1.8560 H   0  0  0  0  0  0  0  0  0  0  0  0
    1.8779    2.2609    0.7151 H   0  0  0  0  0  0  0  0  0  0  0  0
  1  2  1  0
  2  3  1  0
  2  4  1  0
  2  5  1  0
  5  6  2  0
  6  7  1  0
  7  8  2  0
  8  9  1  0
  9 10  2  0
  9 11  1  0
 11 12  1  0
 11 13  1  0
 11 14  1  0
  7 15  1  0
 15 16  2  0
 15 17  1  0
 17 18  1  0
 18 19  1  0
 19 20  1  0
 20 21  2  0
 21 22  1  0
 22 23  2  0
 23 24  1  0
 24 25  2  0
 25 26  1  0
 26 27  1  0
 10  5  1  0
 27 18  1  0
 25 20  1  0
  6 28  1  0
  8 29  1  0
 10 30  1  0
 17 31  1  0
 18 32  1  1
 19 33  1  0
 19 34  1  0
 21 35  1  0
 22 36  1  0
 23 37  1  0
 24 38  1  0
 26 39  1  0
 26 40  1  0
 27 41  1  0
M  END
$$$$
[H]c1nc([H])c(-c2c(OC([H])([H])C3([H])C([H])([H])OC([H])([H])C3([H])[H])nc3sc(N([H])C(=O)N([H])C([H])([H])C([H])([H])[H])nc3c2[H])c([H])n1
     RDKit          3D

 48 51  0  0  0  0  0  0  0  0999 V2000
    7.8749    0.0287   -0.2037 C   0  0  0  0  0  0  0  0  0  0  0  0
    7.5792    0.8914   -1.3900 C   0  0  0  0  0  0  0  0  0  0  0  0
    6.4438    1.7763   -1.1550 N   0  0  0  0  0  0  0  0  0  0  0  0
    5.1673    1.2737   -0.8559 C   0  0  0  0  0  0  0  0  0  0  0  0
    5.0155    0.0069   -0.7926 O   0  0  0  0  0  0  0  0  0  0  0  0
    4.0851    2.1597   -0.6325 N   0  0  0  0  0  0  0  0  0  0  0  0
    2.7853    1.6322   -0.3276 C   0  0  0  0  0  0  0  0  0  0  0  0
    2.3849    0.3854   -0.2087 N   0  0  0  0  0  0  0  0  0  0  0  0
    1.1444    0.1237    0.0767 C   0  0  0  0  0  0  0  0  0  0  0  0
    0.5585   -1.1529    0.2380 C   0  0  0  0  0  0  0  0  0  0  0  0
   -0.7788   -1.2433    0.5412 C   0  0  0  0  0  0  0  0  0  0  0  0
   -1.4061   -2.5694    0.7074 C   0  0  0  0  0  0  0  0  0  0  0  0
   -2.5787   -2.9475    0.1393 C   0  0  0  0  0  0  0  0  0  0  0  0
   -3.0475   -4.2072    0.3815 N   0  0  0  0  0  0  0  0  0  0  0  0
   -2.3978   -5.0745    1.1519 C   0  0  0  0  0  0  0  0  0  0  0  0
   -1.2290   -4.7178    1.7265 N   0  0  0  0  0  0  0  0  0  0  0  0
   -0.7507   -3.4880    1.5029 C   0  0  0  0  0  0  0  0  0  0  0  0
   -1.6190   -0.1530    0.7057 C   0  0  0  0  0  0  0  0  0  0  0  0
   -2.9274   -0.3450    1.0064 O   0  0  0  0  0  0  0  0  0  0  0  0
   -3.8289    0.7159    1.1828 C   0  0  0  0  0  0  0  0  0  0  0  0
   -4.0139    1.6017   -0.0176 C   0  0  0  0  0  0  0  0  0  0  0  0
   -4.5391    0.7548   -1.1860 C   0  0  0  0  0  0  0  0  0  0  0  0
   -5.9872    0.5942   -0.7751 C   0  0  0  0  0  0  0  0  0  0  0  0
   -6.3185    1.8538   -0.3573 O   0  0  0  0  0  0  0  0  0  0  0  0
   -5.2496    2.4449    0.2544 C   0  0  0  0  0  0  0  0  0  0  0  0
   -1.0338    1.0602    0.5460 N   0  0  0  0  0  0  0  0  0  0  0  0
    0.2937    1.1839    0.2440 C   0  0  0  0  0  0  0  0  0  0  0  0
    1.3562    2.5114   -0.0258 S   0  0  0  0  0  0  0  0  0  0  0  0
    7.0694    0.0203    0.5620 H   0  0  0  0  0  0  0  0  0  0  0  0
    8.0342   -1.0077   -0.5531 H   0  0  0  0  0  0  0  0  0  0  0  0
    8.8195    0.3755    0.2907 H   0  0  0  0  0  0  0  0  0  0  0  0
    7.3940    0.2595   -2.2870 H   0  0  0  0  0  0  0  0  0  0  0  0
    8.4740    1.4971   -1.6180 H   0  0  0  0  0  0  0  0  0  0  0  0
    6.5980    2.8248   -1.2142 H   0  0  0  0  0  0  0  0  0  0  0  0
    4.2380    3.1847   -0.6905 H   0  0  0  0  0  0  0  0  0  0  0  0
    1.1441   -2.0553    0.1267 H   0  0  0  0  0  0  0  0  0  0  0  0
   -3.1111   -2.2726   -0.4808 H   0  0  0  0  0  0  0  0  0  0  0  0
   -2.7484   -6.0770    1.3586 H   0  0  0  0  0  0  0  0  0  0  0  0
    0.1863   -3.2231    1.9724 H   0  0  0  0  0  0  0  0  0  0  0  0
   -4.8227    0.3756    1.5482 H   0  0  0  0  0  0  0  0  0  0  0  0
   -3.4679    1.4036    2.0056 H   0  0  0  0  0  0  0  0  0  0  0  0
   -3.1518    2.2047   -0.2875 H   0  0  0  0  0  0  0  0  0  0  0  0
   -4.5205    1.3778   -2.0998 H   0  0  0  0  0  0  0  0  0  0  0  0
   -4.0093   -0.1915   -1.2825 H   0  0  0  0  0  0  0  0  0  0  0  0
   -6.1256   -0.1147    0.0575 H   0  0  0  0  0  0  0  0  0  0  0  0
   -6.5599    0.2874   -1.6738 H   0  0  0  0  0  0  0  0  0  0  0  0
   -5.0396    3.4551   -0.1552 H   0  0  0  0  0  0  0  0  0  0  0  0
   -5.3836    2.5756    1.3560 H   0  0  0  0  0  0  0  0  0  0  0  0
  1  2  1  0
  2  3  1  0
  3  4  1  0
  4  5  2  0
  4  6  1  0
  6  7  1  0
  7  8  2  0
  8  9  1  0
  9 10  2  0
 10 11  1  0
 11 12  1  0
 12 13  2  0
 13 14  1  0
 14 15  2  0
 15 16  1  0
 16 17  2  0
 11 18  2  0
 18 19  1  0
 19 20  1  0
 20 21  1  0
 21 22  1  0
 22 23  1  0
 23 24  1  0
 24 25  1  0
 18 26  1  0
 26 27  2  0
 27 28  1  0
 28  7  1  0
 27  9  1  0
 17 12  1  0
 25 21  1  0
  1 29  1  0
  1 30  1  0
  1 31  1  0
  2 32  1  0
  2 33  1  0
  3 34  1  0
  6 35  1  0
 10 36  1  0
 13 37  1  0
 15 38  1  0
 17 39  1  0
 20 40  1  0
 20 41  1  0
 21 42  1  0
 22 43  1  0
 22 44  1  0
 23 45  1  0
 23 46  1  0
 25 47  1  0
 25 48  1  0
M  END
$$$$
[H]c1c([H])c([H])c(C([H])([H])[C@@]2([H])C(=O)N([H])[C@@]([H])([C@@]([H])(C([H])([H])[H])C([H])([H])C([H])([H])[H])C(=O)N([H])[C@@]([H])([C@@]([H])(C([H])([H])[H])C([H])([H])C([H])([H])[H])C(=O)N([H])[C@@]([H])(C([H])([H])C([H])(C([H])([H])[H])C([H])([H])[H])C(=O)N([H])[C@@]([H])(C([H])(C([H])([H])[H])C([H])([H])[H])C(=O)N2[H])c([H])c1[H]
     RDKit          3D

 93 94  0  0  0  0  0  0  0  0999 V2000
    3.1290   -4.0187   -2.3198 C   0  0  0  0  0  0  0  0  0  0  0  0
    2.8285   -2.8599   -1.3709 C   0  0  0  0  0  0  0  0  0  0  0  0
    1.7088   -3.2923   -0.4819 C   0  0  2  0  0  0  0  0  0  0  0  0
    0.5033   -3.6202   -1.3430 C   0  0  0  0  0  0  0  0  0  0  0  0
    1.3608   -2.2775    0.5896 C   0  0  2  0  0  0  0  0  0  0  0  0
    2.5199   -2.0656    1.4166 N   0  0  0  0  0  0  0  0  0  0  0  0
    3.4532   -0.9769    1.2772 C   0  0  0  0  0  0  0  0  0  0  0  0
    4.6626   -1.2450    1.4727 O   0  0  0  0  0  0  0  0  0  0  0  0
    3.0522    0.3915    0.9239 C   0  0  2  0  0  0  0  0  0  0  0  0
    3.9269    1.4558    1.4220 C   0  0  0  0  0  0  0  0  0  0  0  0
    5.3176    1.5468    1.0485 C   0  0  0  0  0  0  0  0  0  0  0  0
    6.3036    1.1342    1.9146 C   0  0  0  0  0  0  0  0  0  0  0  0
    7.6549    1.1734    1.6341 C   0  0  0  0  0  0  0  0  0  0  0  0
    8.0554    1.6538    0.4160 C   0  0  0  0  0  0  0  0  0  0  0  0
    7.0927    2.0776   -0.4801 C   0  0  0  0  0  0  0  0  0  0  0  0
    5.7604    2.0265   -0.1735 C   0  0  0  0  0  0  0  0  0  0  0  0
    1.7121    0.6918    1.4701 N   0  0  0  0  0  0  0  0  0  0  0  0
    0.8104    1.6247    0.9675 C   0  0  0  0  0  0  0  0  0  0  0  0
    0.2654    2.4438    1.7920 O   0  0  0  0  0  0  0  0  0  0  0  0
    0.3863    1.7938   -0.4402 C   0  0  1  0  0  0  0  0  0  0  0  0
   -0.9388    2.3689   -0.5927 N   0  0  0  0  0  0  0  0  0  0  0  0
   -2.0910    1.8625   -1.1651 C   0  0  0  0  0  0  0  0  0  0  0  0
   -2.4122    2.3315   -2.3567 O   0  0  0  0  0  0  0  0  0  0  0  0
   -3.0597    0.8565   -0.6653 C   0  0  2  0  0  0  0  0  0  0  0  0
   -4.4801    1.2439   -1.0184 C   0  0  0  0  0  0  0  0  0  0  0  0
   -5.0436    2.4713   -0.4726 C   0  0  0  0  0  0  0  0  0  0  0  0
   -6.4930    2.5484   -1.0341 C   0  0  0  0  0  0  0  0  0  0  0  0
   -4.4665    3.7969   -0.7641 C   0  0  0  0  0  0  0  0  0  0  0  0
   -2.9635    0.5890    0.7549 N   0  0  0  0  0  0  0  0  0  0  0  0
   -2.3999   -0.4741    1.4345 C   0  0  0  0  0  0  0  0  0  0  0  0
   -2.1746   -0.2697    2.6936 O   0  0  0  0  0  0  0  0  0  0  0  0
   -2.0203   -1.8122    0.9207 C   0  0  1  0  0  0  0  0  0  0  0  0
   -0.9418   -2.3234    1.7565 N   0  0  0  0  0  0  0  0  0  0  0  0
    0.2521   -2.8993    1.3746 C   0  0  0  0  0  0  0  0  0  0  0  0
    0.4730   -4.1157    1.7187 O   0  0  0  0  0  0  0  0  0  0  0  0
   -3.1196   -2.8343    1.0001 C   0  0  1  0  0  0  0  0  0  0  0  0
   -3.6122   -3.0922    2.3929 C   0  0  0  0  0  0  0  0  0  0  0  0
   -4.3197   -2.5008    0.1332 C   0  0  0  0  0  0  0  0  0  0  0  0
   -5.3564   -3.6007    0.2889 C   0  0  0  0  0  0  0  0  0  0  0  0
    1.3356    2.8005   -1.0891 C   0  0  0  0  0  0  0  0  0  0  0  0
    0.9416    3.0254   -2.5443 C   0  0  0  0  0  0  0  0  0  0  0  0
    1.2825    4.1583   -0.4300 C   0  0  0  0  0  0  0  0  0  0  0  0
    4.2115   -4.2473   -2.3579 H   0  0  0  0  0  0  0  0  0  0  0  0
    2.6216   -4.9437   -1.9811 H   0  0  0  0  0  0  0  0  0  0  0  0
    2.7257   -3.7943   -3.3341 H   0  0  0  0  0  0  0  0  0  0  0  0
    2.5316   -1.9827   -1.9972 H   0  0  0  0  0  0  0  0  0  0  0  0
    3.7608   -2.6213   -0.8608 H   0  0  0  0  0  0  0  0  0  0  0  0
    2.0099   -4.2757   -0.0176 H   0  0  0  0  0  0  0  0  0  0  0  0
   -0.0263   -2.6681   -1.6159 H   0  0  0  0  0  0  0  0  0  0  0  0
    0.7858   -4.1197   -2.2815 H   0  0  0  0  0  0  0  0  0  0  0  0
   -0.2406   -4.2430   -0.8122 H   0  0  0  0  0  0  0  0  0  0  0  0
    0.9898   -1.3658    0.0879 H   0  0  0  0  0  0  0  0  0  0  0  0
    2.7056   -2.7510    2.1793 H   0  0  0  0  0  0  0  0  0  0  0  0
    2.8696    0.4395   -0.1902 H   0  0  0  0  0  0  0  0  0  0  0  0
    3.8678    1.4262    2.5563 H   0  0  0  0  0  0  0  0  0  0  0  0
    3.4454    2.4611    1.1961 H   0  0  0  0  0  0  0  0  0  0  0  0
    6.0731    0.7436    2.9213 H   0  0  0  0  0  0  0  0  0  0  0  0
    8.3964    0.8413    2.3415 H   0  0  0  0  0  0  0  0  0  0  0  0
    9.1165    1.6877    0.1942 H   0  0  0  0  0  0  0  0  0  0  0  0
    7.4539    2.4585   -1.4501 H   0  0  0  0  0  0  0  0  0  0  0  0
    5.0422    2.3575   -0.8745 H   0  0  0  0  0  0  0  0  0  0  0  0
    1.4583    0.1268    2.3201 H   0  0  0  0  0  0  0  0  0  0  0  0
    0.5137    0.8288   -0.9958 H   0  0  0  0  0  0  0  0  0  0  0  0
   -0.9944    3.3740   -0.2064 H   0  0  0  0  0  0  0  0  0  0  0  0
   -2.8347   -0.0832   -1.2001 H   0  0  0  0  0  0  0  0  0  0  0  0
   -4.5255    1.2829   -2.1310 H   0  0  0  0  0  0  0  0  0  0  0  0
   -5.1597    0.3998   -0.7481 H   0  0  0  0  0  0  0  0  0  0  0  0
   -5.2508    2.4267    0.6381 H   0  0  0  0  0  0  0  0  0  0  0  0
   -6.8779    1.5228   -1.2112 H   0  0  0  0  0  0  0  0  0  0  0  0
   -7.1407    3.1504   -0.3660 H   0  0  0  0  0  0  0  0  0  0  0  0
   -6.4193    3.1066   -1.9902 H   0  0  0  0  0  0  0  0  0  0  0  0
   -5.1482    4.5475   -0.2306 H   0  0  0  0  0  0  0  0  0  0  0  0
   -3.4796    4.0205   -0.3134 H   0  0  0  0  0  0  0  0  0  0  0  0
   -4.5443    4.1356   -1.8267 H   0  0  0  0  0  0  0  0  0  0  0  0
   -3.4217    1.3660    1.3471 H   0  0  0  0  0  0  0  0  0  0  0  0
   -1.6592   -1.7147   -0.1157 H   0  0  0  0  0  0  0  0  0  0  0  0
   -1.1114   -2.2386    2.8113 H   0  0  0  0  0  0  0  0  0  0  0  0
   -2.7334   -3.8005    0.6127 H   0  0  0  0  0  0  0  0  0  0  0  0
   -4.3542   -2.3038    2.7005 H   0  0  0  0  0  0  0  0  0  0  0  0
   -2.8495   -3.1681    3.1640 H   0  0  0  0  0  0  0  0  0  0  0  0
   -4.1927   -4.0589    2.4459 H   0  0  0  0  0  0  0  0  0  0  0  0
   -4.7083   -1.5372    0.5341 H   0  0  0  0  0  0  0  0  0  0  0  0
   -4.0146   -2.4195   -0.9072 H   0  0  0  0  0  0  0  0  0  0  0  0
   -5.9779   -3.4311    1.1967 H   0  0  0  0  0  0  0  0  0  0  0  0
   -4.8139   -4.5473    0.4420 H   0  0  0  0  0  0  0  0  0  0  0  0
   -5.9901   -3.6116   -0.6263 H   0  0  0  0  0  0  0  0  0  0  0  0
    2.3822    2.5000   -1.0835 H   0  0  0  0  0  0  0  0  0  0  0  0
    0.2179    3.8688   -2.6228 H   0  0  0  0  0  0  0  0  0  0  0  0
    1.8340    3.3253   -3.1268 H   0  0  0  0  0  0  0  0  0  0  0  0
    0.5308    2.1101   -2.9776 H   0  0  0  0  0  0  0  0  0  0  0  0
    0.3765    4.7402   -0.6907 H   0  0  0  0  0  0  0  0  0  0  0  0
    1.5310    4.1470    0.6444 H   0  0  0  0  0  0  0  0  0  0  0  0
    2.1211    4.7437   -0.9101 H   0  0  0  0  0  0  0  0  0  0  0  0
  1  2  1  0
  2  3  1  0
  3  4  1  0
  3  5  1  0
  5  6  1  0
  6  7  1  0
  7  8  2  0
  7  9  1  0
  9 10  1  0
 10 11  1  0
 11 12  2  0
 12 13  1  0
 13 14  2  0
 14 15  1  0
 15 16  2  0
  9 17  1  0
 17 18  1  0
 18 19  2  0
 18 20  1  0
 20 21  1  0
 21 22  1  0
 22 23  2  0
 22 24  1  0
 24 25  1  0
 25 26  1  0
 26 27  1  0
 26 28  1  0
 24 29  1  0
 29 30  1  0
 30 31  2  0
 30 32  1  0
 32 33  1  0
 33 34  1  0
 34 35  2  0
 32 36  1  0
 36 37  1  0
 36 38  1  0
 38 39  1  0
 20 40  1  0
 40 41  1  0
 40 42  1  0
 34  5  1  0
 16 11  1  0
  1 43  1  0
  1 44  1  0
  1 45  1  0
  2 46  1  0
  2 47  1  0
  3 48  1  1
  4 49  1  0
  4 50  1  0
  4 51  1  0
  5 52  1  6
  6 53  1  0
  9 54  1  6
 10 55  1  0
 10 56  1  0
 12 57  1  0
 13 58  1  0
 14 59  1  0
 15 60  1  0
 16 61  1  0
 17 62  1  0
 20 63  1  6
 21 64  1  0
 24 65  1  6
 25 66  1  0
 25 67  1  0
 26 68  1  0
 27 69  1  0
 27 70  1  0
 27 71  1  0
 28 72  1  0
 28 73  1  0
 28 74  1  0
 29 75  1  0
 32 76  1  6
 33 77  1  0
 36 78  1  6
 37 79  1  0
 37 80  1  0
 37 81  1  0
 38 82  1  0
 38 83  1  0
 39 84  1  0
 39 85  1  0
 39 86  1  0
 40 87  1  0
 41 88  1  0
 41 89  1  0
 41 90  1  0
 42 91  1  0
 42 92  1  0
 42 93  1  0
M  END
$$$$
[H]OC(=O)c1c([H])nc(/C([H])=C(\[H])c2c([H])c([H])c([H])c(/C([H])=C(\[H])c3c([H])c([H])c(OC([H])([H])C([H])([H])C([H])([H])C([H])([H])c4c([H])c([H])c([H])c([H])c4[H])c([H])c3[H])c2[H])c([H])c1[H]
     RDKit          3D

 65 68  0  0  0  0  0  0  0  0999 V2000
  -11.0418   -2.8809    3.6610 O   0  0  0  0  0  0  0  0  0  0  0  0
  -11.3190   -2.7200    2.3092 C   0  0  0  0  0  0  0  0  0  0  0  0
  -12.4311   -2.9987    1.8210 O   0  0  0  0  0  0  0  0  0  0  0  0
  -10.2646   -2.2083    1.4500 C   0  0  0  0  0  0  0  0  0  0  0  0
  -10.4792   -2.0244    0.0870 C   0  0  0  0  0  0  0  0  0  0  0  0
   -9.4535   -1.5351   -0.7030 C   0  0  0  0  0  0  0  0  0  0  0  0
   -8.2133   -1.2177   -0.1939 C   0  0  0  0  0  0  0  0  0  0  0  0
   -7.1482   -0.7041   -1.0426 C   0  0  0  0  0  0  0  0  0  0  0  0
   -5.9670   -0.4001   -0.5685 C   0  0  0  0  0  0  0  0  0  0  0  0
   -4.8481    0.1241   -1.3778 C   0  0  0  0  0  0  0  0  0  0  0  0
   -4.9379    0.3475   -2.7268 C   0  0  0  0  0  0  0  0  0  0  0  0
   -3.8886    0.8366   -3.4732 C   0  0  0  0  0  0  0  0  0  0  0  0
   -2.7150    1.1085   -2.8418 C   0  0  0  0  0  0  0  0  0  0  0  0
   -2.5976    0.8957   -1.5001 C   0  0  0  0  0  0  0  0  0  0  0  0
   -1.3436    1.1763   -0.7736 C   0  0  0  0  0  0  0  0  0  0  0  0
   -0.2564    1.6418   -1.3283 C   0  0  0  0  0  0  0  0  0  0  0  0
    0.9781    1.9254   -0.6522 C   0  0  0  0  0  0  0  0  0  0  0  0
    1.1344    1.7258    0.6880 C   0  0  0  0  0  0  0  0  0  0  0  0
    2.3302    2.0059    1.3112 C   0  0  0  0  0  0  0  0  0  0  0  0
    3.4370    2.5052    0.6098 C   0  0  0  0  0  0  0  0  0  0  0  0
    4.5600    2.7473    1.3163 O   0  0  0  0  0  0  0  0  0  0  0  0
    5.8143    3.2000    1.0384 C   0  0  0  0  0  0  0  0  0  0  0  0
    6.6689    2.3851    0.1199 C   0  0  0  0  0  0  0  0  0  0  0  0
    6.8975    0.9791    0.6694 C   0  0  0  0  0  0  0  0  0  0  0  0
    7.7731    0.1818   -0.2969 C   0  0  0  0  0  0  0  0  0  0  0  0
    7.9924   -1.1839    0.2415 C   0  0  0  0  0  0  0  0  0  0  0  0
    9.0400   -1.5105    1.0611 C   0  0  0  0  0  0  0  0  0  0  0  0
    9.2230   -2.7888    1.5497 C   0  0  0  0  0  0  0  0  0  0  0  0
    8.3196   -3.7959    1.2075 C   0  0  0  0  0  0  0  0  0  0  0  0
    7.2642   -3.4863    0.3874 C   0  0  0  0  0  0  0  0  0  0  0  0
    7.1041   -2.2083   -0.0852 C   0  0  0  0  0  0  0  0  0  0  0  0
    3.2783    2.7069   -0.7418 C   0  0  0  0  0  0  0  0  0  0  0  0
    2.0637    2.4157   -1.3414 C   0  0  0  0  0  0  0  0  0  0  0  0
   -3.6533    0.4026   -0.7441 C   0  0  0  0  0  0  0  0  0  0  0  0
   -8.0334   -1.4053    1.1264 N   0  0  0  0  0  0  0  0  0  0  0  0
   -9.0120   -1.8805    1.9249 C   0  0  0  0  0  0  0  0  0  0  0  0
  -11.5494   -2.3444    4.3466 H   0  0  0  0  0  0  0  0  0  0  0  0
  -11.4524   -2.2674   -0.3444 H   0  0  0  0  0  0  0  0  0  0  0  0
   -9.6585   -1.4073   -1.7488 H   0  0  0  0  0  0  0  0  0  0  0  0
   -7.3501   -0.5752   -2.0872 H   0  0  0  0  0  0  0  0  0  0  0  0
   -5.8357   -0.5582    0.5068 H   0  0  0  0  0  0  0  0  0  0  0  0
   -5.8695    0.1307   -3.2227 H   0  0  0  0  0  0  0  0  0  0  0  0
   -4.0247    0.9897   -4.5294 H   0  0  0  0  0  0  0  0  0  0  0  0
   -1.9064    1.4880   -3.4301 H   0  0  0  0  0  0  0  0  0  0  0  0
   -1.3072    0.9847    0.3125 H   0  0  0  0  0  0  0  0  0  0  0  0
   -0.2842    1.8356   -2.4105 H   0  0  0  0  0  0  0  0  0  0  0  0
    0.3064    1.3328    1.3163 H   0  0  0  0  0  0  0  0  0  0  0  0
    2.4041    1.8308    2.3751 H   0  0  0  0  0  0  0  0  0  0  0  0
    6.3895    3.2868    2.0157 H   0  0  0  0  0  0  0  0  0  0  0  0
    5.7527    4.2458    0.6236 H   0  0  0  0  0  0  0  0  0  0  0  0
    6.2263    2.3519   -0.8819 H   0  0  0  0  0  0  0  0  0  0  0  0
    7.6631    2.8963   -0.0243 H   0  0  0  0  0  0  0  0  0  0  0  0
    5.9359    0.4570    0.7737 H   0  0  0  0  0  0  0  0  0  0  0  0
    7.4334    1.0729    1.6349 H   0  0  0  0  0  0  0  0  0  0  0  0
    8.7740    0.6737   -0.3519 H   0  0  0  0  0  0  0  0  0  0  0  0
    7.3453    0.1866   -1.3127 H   0  0  0  0  0  0  0  0  0  0  0  0
    9.7411   -0.7516    1.3330 H   0  0  0  0  0  0  0  0  0  0  0  0
   10.0355   -3.0762    2.1950 H   0  0  0  0  0  0  0  0  0  0  0  0
    8.4363   -4.8062    1.5743 H   0  0  0  0  0  0  0  0  0  0  0  0
    6.5553   -4.2754    0.1186 H   0  0  0  0  0  0  0  0  0  0  0  0
    6.2718   -1.9666   -0.7313 H   0  0  0  0  0  0  0  0  0  0  0  0
    4.1075    3.1042   -1.3190 H   0  0  0  0  0  0  0  0  0  0  0  0
    1.9799    2.5870   -2.4024 H   0  0  0  0  0  0  0  0  0  0  0  0
   -3.5498    0.2346    0.3344 H   0  0  0  0  0  0  0  0  0  0  0  0
   -8.8453   -2.0231    2.9822 H   0  0  0  0  0  0  0  0  0  0  0  0
  1  2  1  0
  2  3  2  0
  2  4  1  0
  4  5  2  0
  5  6  1  0
  6  7  2  0
  7  8  1  0
  8  9  2  0
  9 10  1  0
 10 11  2  0
 11 12  1  0
 12 13  2  0
 13 14  1  0
 14 15  1  0
 15 16  2  0
 16 17  1  0
 17 18  2  0
 18 19  1  0
 19 20  2  0
 20 21  1  0
 21 22  1  0
 22 23  1  0
 23 24  1  0
 24 25  1  0
 25 26  1  0
 26 27  2  0
 27 28  1  0
 28 29  2  0
 29 30  1  0
 30 31  2  0
 20 32  1  0
 32 33  2  0
 14 34  2  0
  7 35  1  0
 35 36  2  0
 36  4  1  0
 34 10  1  0
 33 17  1  0
 31 26  1  0
  1 37  1  0
  5 38  1  0
  6 39  1  0
  8 40  1  0
  9 41  1  0
 11 42  1  0
 12 43  1  0
 13 44  1  0
 15 45  1  0
 16 46  1  0
 18 47  1  0
 19 48  1  0
 22 49  1  0
 22 50  1  0
 23 51  1  0
 23 52  1  0
 24 53  1  0
 24 54  1  0
 25 55  1  0
 25 56  1  0
 27 57  1  0
 28 58  1  0
 29 59  1  0
 30 60  1  0
 31 61  1  0
 32 62  1  0
 33 63  1  0
 34 64  1  0
 36 65  1  0
M  END
$$$$
[H]OC([H])([H])C([H])([H])n1nc([H])c(-c2c([H])c(OC([H])(C([H])([H])[H])C([H])([H])[H])c([H])c3c2-c2c([H])c([H])c([H])c([H])c2C3(O[H])C(F)(F)F)c1[H]
     RDKit          3D

 51 54  0  0  0  0  0  0  0  0999 V2000
   -4.3815    3.2390    0.2588 C   0  0  0  0  0  0  0  0  0  0  0  0
   -4.0028    2.0477    1.1572 C   0  0  0  0  0  0  0  0  0  0  0  0
   -4.6651    2.2482    2.5155 C   0  0  0  0  0  0  0  0  0  0  0  0
   -2.6368    1.9939    1.2554 O   0  0  0  0  0  0  0  0  0  0  0  0
   -1.7998    1.0161    0.8163 C   0  0  0  0  0  0  0  0  0  0  0  0
   -2.2253   -0.1151    0.1790 C   0  0  0  0  0  0  0  0  0  0  0  0
   -1.3814   -1.1161   -0.2707 C   0  0  0  0  0  0  0  0  0  0  0  0
   -0.0038   -0.9607   -0.0601 C   0  0  0  0  0  0  0  0  0  0  0  0
    0.6412   -2.1387   -0.6042 C   0  0  0  0  0  0  0  0  0  0  0  0
    1.9700   -2.5177   -0.6596 C   0  0  0  0  0  0  0  0  0  0  0  0
    2.3066   -3.7332   -1.2451 C   0  0  0  0  0  0  0  0  0  0  0  0
    1.3743   -4.5748   -1.7709 C   0  0  0  0  0  0  0  0  0  0  0  0
    0.0548   -4.1890   -1.7103 C   0  0  0  0  0  0  0  0  0  0  0  0
   -0.3352   -2.9835   -1.1355 C   0  0  0  0  0  0  0  0  0  0  0  0
   -1.6504   -2.3702   -0.9535 C   0  0  0  0  0  0  0  0  0  0  0  0
   -2.2716   -2.1908   -2.2021 O   0  0  0  0  0  0  0  0  0  0  0  0
   -2.5527   -3.2961   -0.1647 C   0  0  0  0  0  0  0  0  0  0  0  0
   -2.0156   -3.6440    1.0574 F   0  0  0  0  0  0  0  0  0  0  0  0
   -3.7885   -2.6956    0.0783 F   0  0  0  0  0  0  0  0  0  0  0  0
   -2.8342   -4.3820   -0.9638 F   0  0  0  0  0  0  0  0  0  0  0  0
    0.4739    0.1488    0.5687 C   0  0  0  0  0  0  0  0  0  0  0  0
   -0.4079    1.1276    1.0043 C   0  0  0  0  0  0  0  0  0  0  0  0
    1.8743    0.4314    0.7902 C   0  0  0  0  0  0  0  0  0  0  0  0
    2.6256    0.2446    1.9173 C   0  0  0  0  0  0  0  0  0  0  0  0
    3.8521    0.7059    1.6577 N   0  0  0  0  0  0  0  0  0  0  0  0
    3.8890    1.1689    0.4195 N   0  0  0  0  0  0  0  0  0  0  0  0
    5.0644    1.7496   -0.2084 C   0  0  0  0  0  0  0  0  0  0  0  0
    5.0672    3.2548    0.0587 C   0  0  0  0  0  0  0  0  0  0  0  0
    5.1019    3.5168    1.4224 O   0  0  0  0  0  0  0  0  0  0  0  0
    2.6866    1.0201   -0.1574 C   0  0  0  0  0  0  0  0  0  0  0  0
   -5.3891    3.6074    0.4869 H   0  0  0  0  0  0  0  0  0  0  0  0
   -4.3041    2.8882   -0.8017 H   0  0  0  0  0  0  0  0  0  0  0  0
   -3.6279    4.0281    0.3769 H   0  0  0  0  0  0  0  0  0  0  0  0
   -4.4196    1.1664    0.6535 H   0  0  0  0  0  0  0  0  0  0  0  0
   -3.8633    2.2174    3.2765 H   0  0  0  0  0  0  0  0  0  0  0  0
   -5.4120    1.4416    2.6549 H   0  0  0  0  0  0  0  0  0  0  0  0
   -5.1338    3.2518    2.5882 H   0  0  0  0  0  0  0  0  0  0  0  0
   -3.2745   -0.2659    0.0005 H   0  0  0  0  0  0  0  0  0  0  0  0
    2.7982   -1.9583   -0.2758 H   0  0  0  0  0  0  0  0  0  0  0  0
    3.3545   -4.0471   -1.2968 H   0  0  0  0  0  0  0  0  0  0  0  0
    1.5948   -5.5217   -2.2314 H   0  0  0  0  0  0  0  0  0  0  0  0
   -0.7176   -4.8324   -2.1219 H   0  0  0  0  0  0  0  0  0  0  0  0
   -3.2498   -2.1166   -2.0015 H   0  0  0  0  0  0  0  0  0  0  0  0
   -0.0602    2.0128    1.5044 H   0  0  0  0  0  0  0  0  0  0  0  0
    2.2701   -0.1942    2.8282 H   0  0  0  0  0  0  0  0  0  0  0  0
    4.9608    1.5935   -1.2989 H   0  0  0  0  0  0  0  0  0  0  0  0
    5.9917    1.3212    0.2020 H   0  0  0  0  0  0  0  0  0  0  0  0
    4.0874    3.6777   -0.3064 H   0  0  0  0  0  0  0  0  0  0  0  0
    5.9065    3.7245   -0.4914 H   0  0  0  0  0  0  0  0  0  0  0  0
    6.0623    3.6924    1.6713 H   0  0  0  0  0  0  0  0  0  0  0  0
    2.3964    1.3075   -1.1824 H   0  0  0  0  0  0  0  0  0  0  0  0
  1  2  1  0
  2  3  1  0
  2  4  1  0
  4  5  1  0
  5  6  2  0
  6  7  1  0
  7  8  2  0
  8  9  1  0
  9 10  2  0
 10 11  1  0
 11 12  2  0
 12 13  1  0
 13 14  2  0
 14 15  1  0
 15 16  1  0
 15 17  1  0
 17 18  1  0
 17 19  1  0
 17 20  1  0
  8 21  1  0
 21 22  2  0
 21 23  1  0
 23 24  1  0
 24 25  2  0
 25 26  1  0
 26 27  1  0
 27 28  1  0
 28 29  1  0
 26 30  1  0
 22  5  1  0
 30 23  2  0
 15  7  1  0
 14  9  1  0
  1 31  1  0
  1 32  1  0
  1 33  1  0
  2 34  1  0
  3 35  1  0
  3 36  1  0
  3 37  1  0
  6 38  1  0
 10 39  1  0
 11 40  1  0
 12 41  1  0
 13 42  1  0
 16 43  1  0
 22 44  1  0
 24 45  1  0
 27 46  1  0
 27 47  1  0
 28 48  1  0
 28 49  1  0
 29 50  1  0
 30 51  1  0
M  END
$$$$
[H]OC(=O)C([H])([H])N(C([H])([H])c1c([H])c([H])c([N+](=O)[O-])c([H])c1[H])S(=O)(=O)c1c([H])c([H])c(C(=O)N2C([H])([H])C([H])([H])C([H])([H])C2([H])[H])c([H])c1[H]
     RDKit          3D

 52 54  0  0  0  0  0  0  0  0999 V2000
   -1.4527   -4.6985    1.2149 O   0  0  0  0  0  0  0  0  0  0  0  0
   -1.9876   -3.4218    1.2172 C   0  0  0  0  0  0  0  0  0  0  0  0
   -2.8792   -3.1679    2.0686 O   0  0  0  0  0  0  0  0  0  0  0  0
   -1.5362   -2.3747    0.2544 C   0  0  0  0  0  0  0  0  0  0  0  0
   -2.2307   -1.1389    0.4338 N   0  0  0  0  0  0  0  0  0  0  0  0
   -2.6113   -0.4747   -0.7726 C   0  0  0  0  0  0  0  0  0  0  0  0
   -3.9978    0.0548   -0.7340 C   0  0  0  0  0  0  0  0  0  0  0  0
   -4.8266   -0.1482    0.3220 C   0  0  0  0  0  0  0  0  0  0  0  0
   -6.1148    0.3674    0.3109 C   0  0  0  0  0  0  0  0  0  0  0  0
   -6.6089    1.0934   -0.7437 C   0  0  0  0  0  0  0  0  0  0  0  0
   -5.7659    1.2981   -1.8144 C   0  0  0  0  0  0  0  0  0  0  0  0
   -4.4876    0.7874   -1.8051 C   0  0  0  0  0  0  0  0  0  0  0  0
   -7.9311    1.6036   -0.7159 N   0  0  0  0  0  0  0  0  0  0  0  0
   -8.7216    1.3598    0.3812 O   0  0  0  0  0  0  0  0  0  0  0  0
   -8.4106    2.2692   -1.6516 O   0  0  0  0  0  0  0  0  0  0  0  0
   -1.5040   -0.0568    1.5303 S   0  0  0  0  0  0  0  0  0  0  0  0
   -2.3437    1.1848    1.6072 O   0  0  0  0  0  0  0  0  0  0  0  0
   -1.3135   -0.6612    2.8948 O   0  0  0  0  0  0  0  0  0  0  0  0
    0.1052    0.4080    0.9710 C   0  0  0  0  0  0  0  0  0  0  0  0
    0.2345    1.5420    0.1984 C   0  0  0  0  0  0  0  0  0  0  0  0
    1.4720    1.8968   -0.2378 C   0  0  0  0  0  0  0  0  0  0  0  0
    2.6115    1.1317    0.0848 C   0  0  0  0  0  0  0  0  0  0  0  0
    2.4464    0.0092    0.8577 C   0  0  0  0  0  0  0  0  0  0  0  0
    1.1835   -0.3562    1.3039 C   0  0  0  0  0  0  0  0  0  0  0  0
    3.8932    1.5651   -0.3615 C   0  0  0  0  0  0  0  0  0  0  0  0
    3.9312    2.7527   -0.8925 O   0  0  0  0  0  0  0  0  0  0  0  0
    5.1255    0.9093   -0.3199 N   0  0  0  0  0  0  0  0  0  0  0  0
    5.5346   -0.3897    0.1230 C   0  0  0  0  0  0  0  0  0  0  0  0
    6.9129   -0.6678   -0.5043 C   0  0  0  0  0  0  0  0  0  0  0  0
    7.0196    0.4409   -1.5662 C   0  0  0  0  0  0  0  0  0  0  0  0
    6.4123    1.5642   -0.7586 C   0  0  0  0  0  0  0  0  0  0  0  0
   -2.1329   -5.4432    0.9930 H   0  0  0  0  0  0  0  0  0  0  0  0
   -1.6960   -2.7909   -0.7841 H   0  0  0  0  0  0  0  0  0  0  0  0
   -0.4325   -2.2919    0.3530 H   0  0  0  0  0  0  0  0  0  0  0  0
   -2.5414   -1.1273   -1.6719 H   0  0  0  0  0  0  0  0  0  0  0  0
   -1.9563    0.3997   -1.0100 H   0  0  0  0  0  0  0  0  0  0  0  0
   -4.4900   -0.7100    1.1725 H   0  0  0  0  0  0  0  0  0  0  0  0
   -6.7342    0.1799    1.1704 H   0  0  0  0  0  0  0  0  0  0  0  0
   -6.1576    1.8693   -2.6442 H   0  0  0  0  0  0  0  0  0  0  0  0
   -3.8476    0.9627   -2.6574 H   0  0  0  0  0  0  0  0  0  0  0  0
   -0.6512    2.1470   -0.0547 H   0  0  0  0  0  0  0  0  0  0  0  0
    1.6396    2.7761   -0.8500 H   0  0  0  0  0  0  0  0  0  0  0  0
    3.2587   -0.6286    1.1822 H   0  0  0  0  0  0  0  0  0  0  0  0
    1.0588   -1.2445    1.9134 H   0  0  0  0  0  0  0  0  0  0  0  0
    5.5880   -0.4120    1.2081 H   0  0  0  0  0  0  0  0  0  0  0  0
    4.8400   -1.1980   -0.2494 H   0  0  0  0  0  0  0  0  0  0  0  0
    6.8917   -1.6459   -1.0171 H   0  0  0  0  0  0  0  0  0  0  0  0
    7.7118   -0.5853    0.2383 H   0  0  0  0  0  0  0  0  0  0  0  0
    8.0493    0.6284   -1.8643 H   0  0  0  0  0  0  0  0  0  0  0  0
    6.3407    0.2029   -2.3980 H   0  0  0  0  0  0  0  0  0  0  0  0
    6.1128    2.4152   -1.3614 H   0  0  0  0  0  0  0  0  0  0  0  0
    6.9893    1.8142    0.1405 H   0  0  0  0  0  0  0  0  0  0  0  0
  1  2  1  0
  2  3  2  0
  2  4  1  0
  4  5  1  0
  5  6  1  0
  6  7  1  0
  7  8  2  0
  8  9  1  0
  9 10  2  0
 10 11  1  0
 11 12  2  0
 10 13  1  0
 13 14  1  0
 13 15  2  0
  5 16  1  0
 16 17  2  0
 16 18  2  0
 16 19  1  0
 19 20  2  0
 20 21  1  0
 21 22  2  0
 22 23  1  0
 23 24  2  0
 22 25  1  0
 25 26  2  0
 25 27  1  0
 27 28  1  0
 28 29  1  0
 29 30  1  0
 30 31  1  0
 12  7  1  0
 24 19  1  0
 31 27  1  0
  1 32  1  0
  4 33  1  0
  4 34  1  0
  6 35  1  0
  6 36  1  0
  8 37  1  0
  9 38  1  0
 11 39  1  0
 12 40  1  0
 20 41  1  0
 21 42  1  0
 23 43  1  0
 24 44  1  0
 28 45  1  0
 28 46  1  0
 29 47  1  0
 29 48  1  0
 30 49  1  0
 30 50  1  0
 31 51  1  0
 31 52  1  0
M  CHG  2  13   1  14  -1
M  END
$$$$
