[H]OC(=O)[C@@]([H])(N([H])C(=O)[C@@]([H])(N([H])C(=O)[C@@]([H])(N([H])C(=O)[C@@]([H])(N([H])C(=O)[C@@]([H])(N([H])[H])C([H])([H])C([H])([H])C([H])([H])C([H])([H])N([H])[H])C([H])([H])SC([H])(C([H])([H])[H])C([H])([H])[H])C([H])([H])C([H])(C([H])([H])[H])C([H])([H])[H])C([H])([H])C([H])(C([H])([H])[H])C([H])([H])[H])C([H])(C([H])([H])[H])C([H])([H])[H]
     RDKit          3D

 98 97  0  0  0  0  0  0  0  0999 V2000
   -0.7375   -3.9880   -2.0023 C   0  0  0  0  0  0  0  0  0  0  0  0
   -1.4181   -2.7301   -2.5621 C   0  0  0  0  0  0  0  0  0  0  0  0
   -1.2968   -2.7413   -4.0876 C   0  0  0  0  0  0  0  0  0  0  0  0
   -3.1113   -2.6991   -2.0962 S   0  0  0  0  0  0  0  0  0  0  0  0
   -3.5035   -2.3837   -0.3999 C   0  0  0  0  0  0  0  0  0  0  0  0
   -3.2686   -1.0030    0.1056 C   0  0  2  0  0  0  0  0  0  0  0  0
   -4.0314   -0.0680   -0.6949 N   0  0  0  0  0  0  0  0  0  0  0  0
   -5.0354    0.7548   -0.1649 C   0  0  0  0  0  0  0  0  0  0  0  0
   -5.3436    0.7365    1.0446 O   0  0  0  0  0  0  0  0  0  0  0  0
   -5.8423    1.7482   -1.0115 C   0  0  1  0  0  0  0  0  0  0  0  0
   -5.3520    1.4055   -2.3720 N   0  0  0  0  0  0  0  0  0  0  0  0
   -7.2600    1.4531   -0.8319 C   0  0  0  0  0  0  0  0  0  0  0  0
   -8.3894    2.1994   -1.3299 C   0  0  0  0  0  0  0  0  0  0  0  0
   -8.5794    2.5968   -2.7294 C   0  0  0  0  0  0  0  0  0  0  0  0
   -7.7130    3.6950   -3.2177 C   0  0  0  0  0  0  0  0  0  0  0  0
   -7.9411    3.9911   -4.6360 N   0  0  0  0  0  0  0  0  0  0  0  0
   -1.8181   -0.5978    0.2307 C   0  0  0  0  0  0  0  0  0  0  0  0
   -1.4096    0.3094   -0.5086 O   0  0  0  0  0  0  0  0  0  0  0  0
   -1.0104   -1.2558    1.1787 N   0  0  0  0  0  0  0  0  0  0  0  0
    0.2804   -1.2124    1.6540 C   0  0  1  0  0  0  0  0  0  0  0  0
    1.0785   -2.4664    1.7297 C   0  0  0  0  0  0  0  0  0  0  0  0
    0.6169   -3.5672    2.6185 C   0  0  0  0  0  0  0  0  0  0  0  0
    1.6835   -4.7115    2.5551 C   0  0  0  0  0  0  0  0  0  0  0  0
   -0.6524   -4.2574    2.2309 C   0  0  0  0  0  0  0  0  0  0  0  0
    1.1551   -0.0601    1.2396 C   0  0  0  0  0  0  0  0  0  0  0  0
    0.8790    0.8095    0.4272 O   0  0  0  0  0  0  0  0  0  0  0  0
    2.4535    0.0586    1.8562 N   0  0  0  0  0  0  0  0  0  0  0  0
    3.4014    1.1043    1.5906 C   0  0  1  0  0  0  0  0  0  0  0  0
    3.8793    1.8511    2.7923 C   0  0  0  0  0  0  0  0  0  0  0  0
    2.8502    2.5479    3.6039 C   0  0  0  0  0  0  0  0  0  0  0  0
    1.7827    1.7211    4.2125 C   0  0  0  0  0  0  0  0  0  0  0  0
    2.1777    3.6860    2.8554 C   0  0  0  0  0  0  0  0  0  0  0  0
    4.5241    0.4793    0.8162 C   0  0  0  0  0  0  0  0  0  0  0  0
    4.3335   -0.6810    0.3163 O   0  0  0  0  0  0  0  0  0  0  0  0
    5.7798    1.0890    0.6087 N   0  0  0  0  0  0  0  0  0  0  0  0
    6.8099    0.4215   -0.1611 C   0  0  1  0  0  0  0  0  0  0  0  0
    7.3642    1.2970   -1.2348 C   0  0  0  0  0  0  0  0  0  0  0  0
    8.0052    2.5378   -0.6985 C   0  0  0  0  0  0  0  0  0  0  0  0
    8.2263    0.5392   -2.1901 C   0  0  0  0  0  0  0  0  0  0  0  0
    7.8058   -0.2259    0.7088 C   0  0  0  0  0  0  0  0  0  0  0  0
    8.8331   -0.9570    0.1663 O   0  0  0  0  0  0  0  0  0  0  0  0
    7.7508   -0.1363    1.9617 O   0  0  0  0  0  0  0  0  0  0  0  0
   -0.8047   -4.8156   -2.7749 H   0  0  0  0  0  0  0  0  0  0  0  0
    0.3277   -3.7786   -1.8295 H   0  0  0  0  0  0  0  0  0  0  0  0
   -1.2771   -4.2692   -1.0901 H   0  0  0  0  0  0  0  0  0  0  0  0
   -0.8247   -1.8645   -2.2253 H   0  0  0  0  0  0  0  0  0  0  0  0
   -0.3934   -3.3901   -4.2896 H   0  0  0  0  0  0  0  0  0  0  0  0
   -1.1495   -1.7204   -4.4249 H   0  0  0  0  0  0  0  0  0  0  0  0
   -2.1513   -3.2738   -4.5576 H   0  0  0  0  0  0  0  0  0  0  0  0
   -2.9036   -3.0886    0.2601 H   0  0  0  0  0  0  0  0  0  0  0  0
   -4.5689   -2.7204   -0.1526 H   0  0  0  0  0  0  0  0  0  0  0  0
   -3.6499   -0.8901    1.1621 H   0  0  0  0  0  0  0  0  0  0  0  0
   -3.8391    0.0176   -1.7461 H   0  0  0  0  0  0  0  0  0  0  0  0
   -5.5495    2.7643   -0.8050 H   0  0  0  0  0  0  0  0  0  0  0  0
   -4.7982    2.1635   -2.7741 H   0  0  0  0  0  0  0  0  0  0  0  0
   -6.0842    0.9770   -2.9388 H   0  0  0  0  0  0  0  0  0  0  0  0
   -7.4306    1.3535    0.3189 H   0  0  0  0  0  0  0  0  0  0  0  0
   -7.3643    0.3162   -1.1048 H   0  0  0  0  0  0  0  0  0  0  0  0
   -8.6002    3.1082   -0.6350 H   0  0  0  0  0  0  0  0  0  0  0  0
   -9.3752    1.6059   -1.0780 H   0  0  0  0  0  0  0  0  0  0  0  0
   -8.4353    1.6676   -3.3876 H   0  0  0  0  0  0  0  0  0  0  0  0
   -9.6705    2.8698   -2.9445 H   0  0  0  0  0  0  0  0  0  0  0  0
   -6.6796    3.6065   -2.9773 H   0  0  0  0  0  0  0  0  0  0  0  0
   -8.0388    4.6537   -2.6373 H   0  0  0  0  0  0  0  0  0  0  0  0
   -7.0866    4.4921   -4.9934 H   0  0  0  0  0  0  0  0  0  0  0  0
   -8.2364    3.1832   -5.1877 H   0  0  0  0  0  0  0  0  0  0  0  0
   -1.6370   -1.9981    1.7327 H   0  0  0  0  0  0  0  0  0  0  0  0
    0.1099   -0.9492    2.8213 H   0  0  0  0  0  0  0  0  0  0  0  0
    1.0726   -2.9367    0.6607 H   0  0  0  0  0  0  0  0  0  0  0  0
    2.1687   -2.2985    1.9218 H   0  0  0  0  0  0  0  0  0  0  0  0
    0.5384   -3.2382    3.6649 H   0  0  0  0  0  0  0  0  0  0  0  0
    2.6866   -4.2850    2.3615 H   0  0  0  0  0  0  0  0  0  0  0  0
    1.6739   -5.1751    3.5475 H   0  0  0  0  0  0  0  0  0  0  0  0
    1.3478   -5.4129    1.7722 H   0  0  0  0  0  0  0  0  0  0  0  0
   -0.9113   -4.0788    1.1769 H   0  0  0  0  0  0  0  0  0  0  0  0
   -1.5069   -3.9910    2.8862 H   0  0  0  0  0  0  0  0  0  0  0  0
   -0.5763   -5.3820    2.3283 H   0  0  0  0  0  0  0  0  0  0  0  0
    2.7541   -0.6515    2.5609 H   0  0  0  0  0  0  0  0  0  0  0  0
    2.9231    1.7991    0.8339 H   0  0  0  0  0  0  0  0  0  0  0  0
    4.4646    1.1601    3.4364 H   0  0  0  0  0  0  0  0  0  0  0  0
    4.6641    2.5926    2.4253 H   0  0  0  0  0  0  0  0  0  0  0  0
    3.4189    3.0605    4.4455 H   0  0  0  0  0  0  0  0  0  0  0  0
    1.6042    2.0642    5.2834 H   0  0  0  0  0  0  0  0  0  0  0  0
    0.7823    1.8535    3.7448 H   0  0  0  0  0  0  0  0  0  0  0  0
    1.9754    0.6506    4.3023 H   0  0  0  0  0  0  0  0  0  0  0  0
    2.9044    4.1176    2.1663 H   0  0  0  0  0  0  0  0  0  0  0  0
    1.2195    3.3552    2.3937 H   0  0  0  0  0  0  0  0  0  0  0  0
    1.9314    4.4751    3.5892 H   0  0  0  0  0  0  0  0  0  0  0  0
    5.9596    2.0187    1.0203 H   0  0  0  0  0  0  0  0  0  0  0  0
    6.2923   -0.4428   -0.6862 H   0  0  0  0  0  0  0  0  0  0  0  0
    6.4669    1.6408   -1.8380 H   0  0  0  0  0  0  0  0  0  0  0  0
    7.7070    3.4042   -1.3071 H   0  0  0  0  0  0  0  0  0  0  0  0
    7.6083    2.7168    0.3276 H   0  0  0  0  0  0  0  0  0  0  0  0
    9.1224    2.4847   -0.7086 H   0  0  0  0  0  0  0  0  0  0  0  0
    7.6330   -0.3537   -2.5505 H   0  0  0  0  0  0  0  0  0  0  0  0
    9.2270    0.2827   -1.8465 H   0  0  0  0  0  0  0  0  0  0  0  0
    8.3617    1.1735   -3.1143 H   0  0  0  0  0  0  0  0  0  0  0  0
    8.6404   -1.9144   -0.1137 H   0  0  0  0  0  0  0  0  0  0  0  0
  1  2  1  0
  2  3  1  0
  2  4  1  0
  4  5  1  0
  5  6  1  0
  6  7  1  0
  7  8  1  0
  8  9  2  0
  8 10  1  0
 10 11  1  0
 10 12  1  0
 12 13  1  0
 13 14  1  0
 14 15  1  0
 15 16  1  0
  6 17  1  0
 17 18  2  0
 17 19  1  0
 19 20  1  0
 20 21  1  0
 21 22  1  0
 22 23  1  0
 22 24  1  0
 20 25  1  0
 25 26  2  0
 25 27  1  0
 27 28  1  0
 28 29  1  0
 29 30  1  0
 30 31  1  0
 30 32  1  0
 28 33  1  0
 33 34  2  0
 33 35  1  0
 35 36  1  0
 36 37  1  0
 37 38  1  0
 37 39  1  0
 36 40  1  0
 40 41  1  0
 40 42  2  0
  1 43  1  0
  1 44  1  0
  1 45  1  0
  2 46  1  0
  3 47  1  0
  3 48  1  0
  3 49  1  0
  5 50  1  0
  5 51  1  0
  6 52  1  1
  7 53  1  0
 10 54  1  1
 11 55  1  0
 11 56  1  0
 12 57  1  0
 12 58  1  0
 13 59  1  0
 13 60  1  0
 14 61  1  0
 14 62  1  0
 15 63  1  0
 15 64  1  0
 16 65  1  0
 16 66  1  0
 19 67  1  0
 20 68  1  1
 21 69  1  0
 21 70  1  0
 22 71  1  0
 23 72  1  0
 23 73  1  0
 23 74  1  0
 24 75  1  0
 24 76  1  0
 24 77  1  0
 27 78  1  0
 28 79  1  6
 29 80  1  0
 29 81  1  0
 30 82  1  0
 31 83  1  0
 31 84  1  0
 31 85  1  0
 32 86  1  0
 32 87  1  0
 32 88  1  0
 35 89  1  0
 36 90  1  6
 37 91  1  0
 38 92  1  0
 38 93  1  0
 38 94  1  0
 39 95  1  0
 39 96  1  0
 39 97  1  0
 41 98  1  0
M  END
$$$$
[H]C(=C1C(=O)/C(=N/OC([H])([H])C([H])([H])OC(=O)c2c([H])c([H])c(F)c([H])c2[H])OC([H])([H])C1([H])[H])c1c([H])c([H])c(C#N)c([H])c1[H]
     RDKit          3D

 47 49  0  0  0  0  0  0  0  0999 V2000
    8.6070    0.8435   -2.4387 F   0  0  0  0  0  0  0  0  0  0  0  0
    7.8509    0.2337   -1.3781 C   0  0  0  0  0  0  0  0  0  0  0  0
    6.5897   -0.1557   -1.7722 C   0  0  0  0  0  0  0  0  0  0  0  0
    5.7531   -0.4363   -0.6759 C   0  0  0  0  0  0  0  0  0  0  0  0
    6.2769   -0.2889    0.5830 C   0  0  0  0  0  0  0  0  0  0  0  0
    7.4988    0.0225    0.9527 C   0  0  0  0  0  0  0  0  0  0  0  0
    8.3652    0.3200   -0.1583 C   0  0  0  0  0  0  0  0  0  0  0  0
    5.0758    0.0585    1.5028 C   0  0  0  0  0  0  0  0  0  0  0  0
    5.0034    1.3471    1.6820 O   0  0  0  0  0  0  0  0  0  0  0  0
    4.1922   -0.6719    1.9390 O   0  0  0  0  0  0  0  0  0  0  0  0
    3.0645   -0.6482    2.5815 C   0  0  0  0  0  0  0  0  0  0  0  0
    1.8940   -0.3761    1.4549 C   0  0  0  0  0  0  0  0  0  0  0  0
    1.9853    0.9194    0.9726 O   0  0  0  0  0  0  0  0  0  0  0  0
    0.5641    1.4105    1.0591 N   0  0  0  0  0  0  0  0  0  0  0  0
   -0.3533    0.8300    0.4803 C   0  0  0  0  0  0  0  0  0  0  0  0
   -0.2889   -0.2174   -0.3817 O   0  0  0  0  0  0  0  0  0  0  0  0
   -1.3068   -1.0122   -0.9508 C   0  0  0  0  0  0  0  0  0  0  0  0
   -2.5857   -0.8118   -0.0598 C   0  0  0  0  0  0  0  0  0  0  0  0
   -2.8671    0.6562    0.0163 C   0  0  0  0  0  0  0  0  0  0  0  0
   -3.9284    1.2591   -0.2122 C   0  0  0  0  0  0  0  0  0  0  0  0
   -5.2393    0.6825   -0.5338 C   0  0  0  0  0  0  0  0  0  0  0  0
   -5.8430   -0.1827    0.3059 C   0  0  0  0  0  0  0  0  0  0  0  0
   -7.0021   -0.8316    0.1194 C   0  0  0  0  0  0  0  0  0  0  0  0
   -7.6378   -0.5631   -1.1170 C   0  0  0  0  0  0  0  0  0  0  0  0
   -7.0431    0.3283   -1.9489 C   0  0  0  0  0  0  0  0  0  0  0  0
   -5.8847    0.9944   -1.7038 C   0  0  0  0  0  0  0  0  0  0  0  0
   -8.8923   -1.1844   -1.4103 C   0  0  0  0  0  0  0  0  0  0  0  0
   -9.8602   -1.7333   -1.6528 N   0  0  0  0  0  0  0  0  0  0  0  0
   -1.7446    1.3497    0.7758 C   0  0  0  0  0  0  0  0  0  0  0  0
   -1.9841    2.2402    1.5417 O   0  0  0  0  0  0  0  0  0  0  0  0
    6.2895   -0.2228   -2.7927 H   0  0  0  0  0  0  0  0  0  0  0  0
    4.7552   -0.7387   -0.9026 H   0  0  0  0  0  0  0  0  0  0  0  0
    7.8513   -0.0291    1.9461 H   0  0  0  0  0  0  0  0  0  0  0  0
    9.3868    0.5614    0.0300 H   0  0  0  0  0  0  0  0  0  0  0  0
    2.5832   -1.1327    3.3216 H   0  0  0  0  0  0  0  0  0  0  0  0
    2.9826    0.5906    2.9612 H   0  0  0  0  0  0  0  0  0  0  0  0
    1.2344   -1.0864    1.4264 H   0  0  0  0  0  0  0  0  0  0  0  0
    2.7265   -0.9235    0.5431 H   0  0  0  0  0  0  0  0  0  0  0  0
   -1.5693   -0.7568   -1.9491 H   0  0  0  0  0  0  0  0  0  0  0  0
   -0.9408   -2.0238   -0.8129 H   0  0  0  0  0  0  0  0  0  0  0  0
   -2.4370   -1.3402    0.8421 H   0  0  0  0  0  0  0  0  0  0  0  0
   -3.4033   -1.2989   -0.7111 H   0  0  0  0  0  0  0  0  0  0  0  0
   -3.9724    2.3825   -0.2534 H   0  0  0  0  0  0  0  0  0  0  0  0
   -5.3532   -0.3501    1.3078 H   0  0  0  0  0  0  0  0  0  0  0  0
   -7.4602   -1.4762    0.8641 H   0  0  0  0  0  0  0  0  0  0  0  0
   -7.5024    0.5070   -2.9285 H   0  0  0  0  0  0  0  0  0  0  0  0
   -5.4303    1.6812   -2.4648 H   0  0  0  0  0  0  0  0  0  0  0  0
  1  2  1  0
  2  3  2  0
  3  4  1  0
  4  5  2  0
  5  6  1  0
  6  7  2  0
  5  8  1  0
  8  9  2  0
  8 10  1  0
 10 11  1  0
 11 12  1  0
 12 13  1  0
 13 14  1  0
 14 15  2  0
 15 16  1  0
 16 17  1  0
 17 18  1  0
 18 19  1  0
 19 20  2  3
 20 21  1  0
 21 22  2  0
 22 23  1  0
 23 24  2  0
 24 25  1  0
 25 26  2  0
 24 27  1  0
 27 28  3  0
 19 29  1  0
 29 30  2  0
  7  2  1  0
 29 15  1  0
 26 21  1  0
  3 31  1  0
  4 32  1  0
  6 33  1  0
  7 34  1  0
 11 35  1  0
 11 36  1  0
 12 37  1  0
 12 38  1  0
 17 39  1  0
 17 40  1  0
 18 41  1  0
 18 42  1  0
 20 43  1  0
 22 44  1  0
 23 45  1  0
 25 46  1  0
 26 47  1  0
M  END
$$$$
[H]c1c([H])c([H])c(C([H])([H])[C@@]([H])(C(=O)N([H])[H])N([H])C(=O)[C@@]([H])(N([H])C(=O)[C@@]([H])(N([H])C(=O)[C@@]([H])(N([H])[H])C([H])([H])C([H])(C([H])([H])[H])C([H])([H])[H])C([H])([H])c2c([H])c([H])c([H])c([H])c2[H])C([H])([H])c2c([H])c([H])c([H])c([H])c2[H])c([H])c1[H]
     RDKit          3D

 83 85  0  0  0  0  0  0  0  0999 V2000
   -5.3600    5.2395    1.4618 C   0  0  0  0  0  0  0  0  0  0  0  0
   -5.8598    3.8645    0.9883 C   0  0  0  0  0  0  0  0  0  0  0  0
   -6.6462    3.2457    2.1241 C   0  0  0  0  0  0  0  0  0  0  0  0
   -4.6336    3.0481    0.7199 C   0  0  0  0  0  0  0  0  0  0  0  0
   -4.9832    1.6844    0.2273 C   0  0  2  0  0  0  0  0  0  0  0  0
   -5.7521    0.8693    1.1055 N   0  0  0  0  0  0  0  0  0  0  0  0
   -3.7604    0.9736   -0.2159 C   0  0  0  0  0  0  0  0  0  0  0  0
   -2.9746    1.5356   -1.0038 O   0  0  0  0  0  0  0  0  0  0  0  0
   -3.4809   -0.3267    0.2457 N   0  0  0  0  0  0  0  0  0  0  0  0
   -2.3244   -1.0928   -0.1334 C   0  0  1  0  0  0  0  0  0  0  0  0
   -2.0820   -1.2277   -1.6064 C   0  0  0  0  0  0  0  0  0  0  0  0
   -3.1952   -1.9211   -2.3049 C   0  0  0  0  0  0  0  0  0  0  0  0
   -4.2351   -1.3007   -2.9487 C   0  0  0  0  0  0  0  0  0  0  0  0
   -5.2313   -2.0760   -3.5576 C   0  0  0  0  0  0  0  0  0  0  0  0
   -5.2188   -3.4531   -3.5423 C   0  0  0  0  0  0  0  0  0  0  0  0
   -4.1770   -4.0759   -2.8975 C   0  0  0  0  0  0  0  0  0  0  0  0
   -3.1976   -3.3190   -2.2986 C   0  0  0  0  0  0  0  0  0  0  0  0
   -1.1228   -0.7876    0.6649 C   0  0  0  0  0  0  0  0  0  0  0  0
   -1.2688    0.1001    1.5724 O   0  0  0  0  0  0  0  0  0  0  0  0
    0.1181   -1.4287    0.4536 N   0  0  0  0  0  0  0  0  0  0  0  0
    1.2983   -1.1254    1.2490 C   0  0  1  0  0  0  0  0  0  0  0  0
    1.7288   -2.2632    2.0906 C   0  0  0  0  0  0  0  0  0  0  0  0
    2.0792   -3.5093    1.4180 C   0  0  0  0  0  0  0  0  0  0  0  0
    1.0713   -4.3732    1.0758 C   0  0  0  0  0  0  0  0  0  0  0  0
    1.2751   -5.5840    0.4656 C   0  0  0  0  0  0  0  0  0  0  0  0
    2.5968   -5.9312    0.1889 C   0  0  0  0  0  0  0  0  0  0  0  0
    3.6165   -5.0700    0.5291 C   0  0  0  0  0  0  0  0  0  0  0  0
    3.3744   -3.8623    1.1412 C   0  0  0  0  0  0  0  0  0  0  0  0
    2.3147   -0.4926    0.4212 C   0  0  0  0  0  0  0  0  0  0  0  0
    2.0264   -0.2402   -0.7973 O   0  0  0  0  0  0  0  0  0  0  0  0
    3.5880   -0.1396    0.8848 N   0  0  0  0  0  0  0  0  0  0  0  0
    4.5196    0.5329   -0.0338 C   0  0  1  0  0  0  0  0  0  0  0  0
    4.9157    1.7866    0.6975 C   0  0  0  0  0  0  0  0  0  0  0  0
    5.8632    2.6765    0.0356 C   0  0  0  0  0  0  0  0  0  0  0  0
    5.4203    3.6476   -0.8423 C   0  0  0  0  0  0  0  0  0  0  0  0
    6.2878    4.5379   -1.4691 C   0  0  0  0  0  0  0  0  0  0  0  0
    7.6441    4.4918   -1.2408 C   0  0  0  0  0  0  0  0  0  0  0  0
    8.1031    3.5173   -0.3579 C   0  0  0  0  0  0  0  0  0  0  0  0
    7.2378    2.6442    0.2549 C   0  0  0  0  0  0  0  0  0  0  0  0
    5.6329   -0.3286   -0.4343 C   0  0  0  0  0  0  0  0  0  0  0  0
    6.5225    0.1093   -1.4597 N   0  0  0  0  0  0  0  0  0  0  0  0
    5.8958   -1.4644    0.0476 O   0  0  0  0  0  0  0  0  0  0  0  0
   -4.5679    5.5160    0.7086 H   0  0  0  0  0  0  0  0  0  0  0  0
   -4.9313    5.0945    2.4581 H   0  0  0  0  0  0  0  0  0  0  0  0
   -6.2293    5.9137    1.4481 H   0  0  0  0  0  0  0  0  0  0  0  0
   -6.4625    3.9478    0.0692 H   0  0  0  0  0  0  0  0  0  0  0  0
   -6.0199    2.7083    2.8383 H   0  0  0  0  0  0  0  0  0  0  0  0
   -7.4512    2.6082    1.7616 H   0  0  0  0  0  0  0  0  0  0  0  0
   -7.1896    4.1090    2.6437 H   0  0  0  0  0  0  0  0  0  0  0  0
   -3.9822    2.9698    1.6240 H   0  0  0  0  0  0  0  0  0  0  0  0
   -4.0405    3.5995   -0.0663 H   0  0  0  0  0  0  0  0  0  0  0  0
   -5.6107    1.7573   -0.7289 H   0  0  0  0  0  0  0  0  0  0  0  0
   -6.0574    0.0171    0.6143 H   0  0  0  0  0  0  0  0  0  0  0  0
   -5.2808    0.6044    1.9840 H   0  0  0  0  0  0  0  0  0  0  0  0
   -4.2013   -0.7412    0.9268 H   0  0  0  0  0  0  0  0  0  0  0  0
   -2.6097   -2.1740    0.1667 H   0  0  0  0  0  0  0  0  0  0  0  0
   -1.1908   -1.8979   -1.7423 H   0  0  0  0  0  0  0  0  0  0  0  0
   -1.8236   -0.2780   -2.1194 H   0  0  0  0  0  0  0  0  0  0  0  0
   -4.2755   -0.2215   -2.9931 H   0  0  0  0  0  0  0  0  0  0  0  0
   -6.0348   -1.5457   -4.0558 H   0  0  0  0  0  0  0  0  0  0  0  0
   -6.0203   -4.0152   -4.0337 H   0  0  0  0  0  0  0  0  0  0  0  0
   -4.1682   -5.1548   -2.8852 H   0  0  0  0  0  0  0  0  0  0  0  0
   -2.3642   -3.8116   -1.7831 H   0  0  0  0  0  0  0  0  0  0  0  0
    0.1592   -2.1549   -0.3168 H   0  0  0  0  0  0  0  0  0  0  0  0
    0.8909   -0.3539    2.0109 H   0  0  0  0  0  0  0  0  0  0  0  0
    2.6463   -1.9204    2.6504 H   0  0  0  0  0  0  0  0  0  0  0  0
    0.9757   -2.4134    2.9120 H   0  0  0  0  0  0  0  0  0  0  0  0
    0.0319   -4.0950    1.2965 H   0  0  0  0  0  0  0  0  0  0  0  0
    0.4582   -6.2525    0.2031 H   0  0  0  0  0  0  0  0  0  0  0  0
    2.7515   -6.8882   -0.2916 H   0  0  0  0  0  0  0  0  0  0  0  0
    4.6245   -5.3905    0.2907 H   0  0  0  0  0  0  0  0  0  0  0  0
    4.2034   -3.2169    1.4079 H   0  0  0  0  0  0  0  0  0  0  0  0
    3.8938   -0.3403    1.8594 H   0  0  0  0  0  0  0  0  0  0  0  0
    3.9050    0.8513   -0.9291 H   0  0  0  0  0  0  0  0  0  0  0  0
    3.9595    2.3565    0.8534 H   0  0  0  0  0  0  0  0  0  0  0  0
    5.2979    1.5632    1.7213 H   0  0  0  0  0  0  0  0  0  0  0  0
    4.3532    3.7057   -1.0397 H   0  0  0  0  0  0  0  0  0  0  0  0
    5.9096    5.2890   -2.1532 H   0  0  0  0  0  0  0  0  0  0  0  0
    8.3342    5.1740   -1.7155 H   0  0  0  0  0  0  0  0  0  0  0  0
    9.1688    3.4875   -0.1867 H   0  0  0  0  0  0  0  0  0  0  0  0
    7.6212    1.8823    0.9473 H   0  0  0  0  0  0  0  0  0  0  0  0
    7.4692   -0.2902   -1.6205 H   0  0  0  0  0  0  0  0  0  0  0  0
    6.2315    0.8897   -2.1214 H   0  0  0  0  0  0  0  0  0  0  0  0
  1  2  1  0
  2  3  1  0
  2  4  1  0
  4  5  1  0
  5  6  1  0
  5  7  1  0
  7  8  2  0
  7  9  1  0
  9 10  1  0
 10 11  1  0
 11 12  1  0
 12 13  2  0
 13 14  1  0
 14 15  2  0
 15 16  1  0
 16 17  2  0
 10 18  1  0
 18 19  2  0
 18 20  1  0
 20 21  1  0
 21 22  1  0
 22 23  1  0
 23 24  2  0
 24 25  1  0
 25 26  2  0
 26 27  1  0
 27 28  2  0
 21 29  1  0
 29 30  2  0
 29 31  1  0
 31 32  1  0
 32 33  1  0
 33 34  1  0
 34 35  2  0
 35 36  1  0
 36 37  2  0
 37 38  1  0
 38 39  2  0
 32 40  1  0
 40 41  1  0
 40 42  2  0
 17 12  1  0
 28 23  1  0
 39 34  1  0
  1 43  1  0
  1 44  1  0
  1 45  1  0
  2 46  1  0
  3 47  1  0
  3 48  1  0
  3 49  1  0
  4 50  1  0
  4 51  1  0
  5 52  1  6
  6 53  1  0
  6 54  1  0
  9 55  1  0
 10 56  1  1
 11 57  1  0
 11 58  1  0
 13 59  1  0
 14 60  1  0
 15 61  1  0
 16 62  1  0
 17 63  1  0
 20 64  1  0
 21 65  1  1
 22 66  1  0
 22 67  1  0
 24 68  1  0
 25 69  1  0
 26 70  1  0
 27 71  1  0
 28 72  1  0
 31 73  1  0
 32 74  1  6
 33 75  1  0
 33 76  1  0
 35 77  1  0
 36 78  1  0
 37 79  1  0
 38 80  1  0
 39 81  1  0
 41 82  1  0
 41 83  1  0
M  END
$$$$
[H]c1nc(N([H])c2c([H])c([H])c(N3C([H])([H])C([H])([H])N(C([H])([H])[H])C([H])([H])C3([H])[H])c([H])c2[H])nc([H])c1N([H])C(=O)c1c([H])c(N([H])C(=O)c2c([H])c([H])c([H])c(C(F)(F)F)c2[H])c([H])c([H])c1C([H])([H])[H]
     RDKit          3D

 73 77  0  0  0  0  0  0  0  0999 V2000
   11.1626   -1.4295   -0.2901 C   0  0  0  0  0  0  0  0  0  0  0  0
   10.8066   -1.1520   -1.6725 N   0  0  0  0  0  0  0  0  0  0  0  0
   10.4159    0.1876   -1.8989 C   0  0  0  0  0  0  0  0  0  0  0  0
    9.0068    0.3313   -2.4400 C   0  0  0  0  0  0  0  0  0  0  0  0
    8.1717   -0.5294   -1.6086 N   0  0  0  0  0  0  0  0  0  0  0  0
    8.5007   -1.9673   -1.7161 C   0  0  0  0  0  0  0  0  0  0  0  0
    9.9119   -2.1440   -2.1967 C   0  0  0  0  0  0  0  0  0  0  0  0
    7.1297   -0.0633   -0.7731 C   0  0  0  0  0  0  0  0  0  0  0  0
    6.2840    0.9745   -1.1097 C   0  0  0  0  0  0  0  0  0  0  0  0
    5.2833    1.4252   -0.2729 C   0  0  0  0  0  0  0  0  0  0  0  0
    5.0750    0.8551    0.9607 C   0  0  0  0  0  0  0  0  0  0  0  0
    4.0727    1.2666    1.8554 N   0  0  0  0  0  0  0  0  0  0  0  0
    2.7010    1.4154    1.6495 C   0  0  0  0  0  0  0  0  0  0  0  0
    2.0640    1.1508    0.5212 N   0  0  0  0  0  0  0  0  0  0  0  0
    0.7045    1.2644    0.3632 C   0  0  0  0  0  0  0  0  0  0  0  0
   -0.0701    1.6664    1.3890 C   0  0  0  0  0  0  0  0  0  0  0  0
   -1.4860    1.7401    1.4642 N   0  0  0  0  0  0  0  0  0  0  0  0
   -2.4284    1.0827    0.7153 C   0  0  0  0  0  0  0  0  0  0  0  0
   -2.0837    0.3640   -0.2539 O   0  0  0  0  0  0  0  0  0  0  0  0
   -3.8748    1.1632    1.0101 C   0  0  0  0  0  0  0  0  0  0  0  0
   -4.8233    1.0463   -0.0402 C   0  0  0  0  0  0  0  0  0  0  0  0
   -6.1401    1.1096    0.1741 C   0  0  0  0  0  0  0  0  0  0  0  0
   -7.1975    0.8936   -0.7958 N   0  0  0  0  0  0  0  0  0  0  0  0
   -8.1468   -0.1045   -0.4596 C   0  0  0  0  0  0  0  0  0  0  0  0
   -7.8757   -0.7207    0.6821 O   0  0  0  0  0  0  0  0  0  0  0  0
   -9.3264   -0.5507   -1.1186 C   0  0  0  0  0  0  0  0  0  0  0  0
   -9.9814    0.1544   -2.0771 C   0  0  0  0  0  0  0  0  0  0  0  0
  -11.1622   -0.3133   -2.6274 C   0  0  0  0  0  0  0  0  0  0  0  0
  -11.7323   -1.5005   -2.2409 C   0  0  0  0  0  0  0  0  0  0  0  0
  -11.0947   -2.2428   -1.2745 C   0  0  0  0  0  0  0  0  0  0  0  0
   -9.9266   -1.7682   -0.7404 C   0  0  0  0  0  0  0  0  0  0  0  0
  -11.6644   -3.5222   -0.8140 C   0  0  0  0  0  0  0  0  0  0  0  0
  -12.7917   -3.2654   -0.0486 F   0  0  0  0  0  0  0  0  0  0  0  0
  -11.9253   -4.4025   -1.8601 F   0  0  0  0  0  0  0  0  0  0  0  0
  -10.7612   -4.1640    0.0259 F   0  0  0  0  0  0  0  0  0  0  0  0
   -6.6025    1.3075    1.4993 C   0  0  0  0  0  0  0  0  0  0  0  0
   -5.6979    1.4181    2.5023 C   0  0  0  0  0  0  0  0  0  0  0  0
   -4.3071    1.3475    2.3005 C   0  0  0  0  0  0  0  0  0  0  0  0
   -3.4568    1.3682    3.5224 C   0  0  0  0  0  0  0  0  0  0  0  0
    0.6065    1.9579    2.6074 C   0  0  0  0  0  0  0  0  0  0  0  0
    1.9026    1.8263    2.6842 N   0  0  0  0  0  0  0  0  0  0  0  0
    5.9322   -0.2082    1.3194 C   0  0  0  0  0  0  0  0  0  0  0  0
    6.9250   -0.6545    0.4876 C   0  0  0  0  0  0  0  0  0  0  0  0
   11.0028   -2.4892   -0.1086 H   0  0  0  0  0  0  0  0  0  0  0  0
   12.2320   -1.2035   -0.1608 H   0  0  0  0  0  0  0  0  0  0  0  0
   10.5559   -0.8453    0.4460 H   0  0  0  0  0  0  0  0  0  0  0  0
   10.4807    0.7587   -0.9317 H   0  0  0  0  0  0  0  0  0  0  0  0
   11.1376    0.6785   -2.5712 H   0  0  0  0  0  0  0  0  0  0  0  0
    8.6993    1.3874   -2.3241 H   0  0  0  0  0  0  0  0  0  0  0  0
    8.9493   -0.0226   -3.4739 H   0  0  0  0  0  0  0  0  0  0  0  0
    8.2939   -2.4781   -0.7843 H   0  0  0  0  0  0  0  0  0  0  0  0
    7.8182   -2.3492   -2.5036 H   0  0  0  0  0  0  0  0  0  0  0  0
   10.0159   -2.2026   -3.2872 H   0  0  0  0  0  0  0  0  0  0  0  0
   10.2623   -3.1415   -1.7933 H   0  0  0  0  0  0  0  0  0  0  0  0
    6.3766    1.4861   -2.0566 H   0  0  0  0  0  0  0  0  0  0  0  0
    4.6281    2.2472   -0.5569 H   0  0  0  0  0  0  0  0  0  0  0  0
    4.4192    1.4847    2.8598 H   0  0  0  0  0  0  0  0  0  0  0  0
    0.2446    1.0282   -0.6036 H   0  0  0  0  0  0  0  0  0  0  0  0
   -1.8616    2.4790    2.1563 H   0  0  0  0  0  0  0  0  0  0  0  0
   -4.4587    0.9050   -1.0588 H   0  0  0  0  0  0  0  0  0  0  0  0
   -7.2179    1.4473   -1.6332 H   0  0  0  0  0  0  0  0  0  0  0  0
   -9.5830    1.0984   -2.4225 H   0  0  0  0  0  0  0  0  0  0  0  0
  -11.7002    0.2519   -3.3961 H   0  0  0  0  0  0  0  0  0  0  0  0
  -12.6727   -1.8372   -2.6929 H   0  0  0  0  0  0  0  0  0  0  0  0
   -9.3932   -2.3435    0.0247 H   0  0  0  0  0  0  0  0  0  0  0  0
   -7.6706    1.3801    1.6361 H   0  0  0  0  0  0  0  0  0  0  0  0
   -6.0166    1.5663    3.5297 H   0  0  0  0  0  0  0  0  0  0  0  0
   -3.2707    2.3812    3.8991 H   0  0  0  0  0  0  0  0  0  0  0  0
   -2.6120    0.7004    3.4318 H   0  0  0  0  0  0  0  0  0  0  0  0
   -4.0929    0.8304    4.3335 H   0  0  0  0  0  0  0  0  0  0  0  0
   -0.0160    2.2938    3.4484 H   0  0  0  0  0  0  0  0  0  0  0  0
    5.7611   -0.6407    2.2843 H   0  0  0  0  0  0  0  0  0  0  0  0
    7.5890   -1.4651    0.7519 H   0  0  0  0  0  0  0  0  0  0  0  0
  1  2  1  0
  2  3  1  0
  3  4  1  0
  4  5  1  0
  5  6  1  0
  6  7  1  0
  5  8  1  0
  8  9  2  0
  9 10  1  0
 10 11  2  0
 11 12  1  0
 12 13  1  0
 13 14  2  0
 14 15  1  0
 15 16  2  0
 16 17  1  0
 17 18  1  0
 18 19  2  0
 18 20  1  0
 20 21  2  0
 21 22  1  0
 22 23  1  0
 23 24  1  0
 24 25  2  0
 24 26  1  0
 26 27  2  0
 27 28  1  0
 28 29  2  0
 29 30  1  0
 30 31  2  0
 30 32  1  0
 32 33  1  0
 32 34  1  0
 32 35  1  0
 22 36  2  0
 36 37  1  0
 37 38  2  0
 38 39  1  0
 16 40  1  0
 40 41  2  0
 11 42  1  0
 42 43  2  0
  7  2  1  0
 43  8  1  0
 41 13  1  0
 38 20  1  0
 31 26  1  0
  1 44  1  0
  1 45  1  0
  1 46  1  0
  3 47  1  0
  3 48  1  0
  4 49  1  0
  4 50  1  0
  6 51  1  0
  6 52  1  0
  7 53  1  0
  7 54  1  0
  9 55  1  0
 10 56  1  0
 12 57  1  0
 15 58  1  0
 17 59  1  0
 21 60  1  0
 23 61  1  0
 27 62  1  0
 28 63  1  0
 29 64  1  0
 31 65  1  0
 36 66  1  0
 37 67  1  0
 39 68  1  0
 39 69  1  0
 39 70  1  0
 40 71  1  0
 42 72  1  0
 43 73  1  0
M  END
$$$$
[H]c1sc(N([H])C(=O)C([H])([H])c2c([H])c(C([H])([H])[H])c([H])c(C(F)(F)F)c2[H])nc1-c1c([H])c([H])c2c(c1[H])OC([H])([H])O2
     RDKit          3D

 44 47  0  0  0  0  0  0  0  0999 V2000
   -5.6339   -1.0919   -2.5653 C   0  0  0  0  0  0  0  0  0  0  0  0
   -4.9400   -0.7223   -1.3338 C   0  0  0  0  0  0  0  0  0  0  0  0
   -3.5876   -0.9712   -1.0991 C   0  0  0  0  0  0  0  0  0  0  0  0
   -3.0450   -0.5214    0.0613 C   0  0  0  0  0  0  0  0  0  0  0  0
   -1.5942   -0.8150    0.3253 C   0  0  0  0  0  0  0  0  0  0  0  0
   -1.3675   -0.7285    1.8262 C   0  0  0  0  0  0  0  0  0  0  0  0
   -2.1250   -1.4383    2.5357 O   0  0  0  0  0  0  0  0  0  0  0  0
   -0.4212    0.0915    2.4155 N   0  0  0  0  0  0  0  0  0  0  0  0
    0.7392    0.7281    1.8302 C   0  0  0  0  0  0  0  0  0  0  0  0
    1.7474    0.2828    1.1245 N   0  0  0  0  0  0  0  0  0  0  0  0
    2.5791    1.0593    0.5637 C   0  0  0  0  0  0  0  0  0  0  0  0
    2.3446    2.4398    0.7376 C   0  0  0  0  0  0  0  0  0  0  0  0
    0.9558    2.4202    1.7049 S   0  0  0  0  0  0  0  0  0  0  0  0
    3.8699    0.6695   -0.0891 C   0  0  0  0  0  0  0  0  0  0  0  0
    4.5282    1.5150   -0.9417 C   0  0  0  0  0  0  0  0  0  0  0  0
    5.7936    1.2199   -1.3956 C   0  0  0  0  0  0  0  0  0  0  0  0
    6.4398    0.0296   -0.9861 C   0  0  0  0  0  0  0  0  0  0  0  0
    7.6820   -0.5251   -1.2537 O   0  0  0  0  0  0  0  0  0  0  0  0
    7.6596   -1.8774   -0.8588 C   0  0  0  0  0  0  0  0  0  0  0  0
    6.6560   -1.9395    0.1202 O   0  0  0  0  0  0  0  0  0  0  0  0
    5.7938   -0.8197   -0.1450 C   0  0  0  0  0  0  0  0  0  0  0  0
    4.5309   -0.5011    0.2902 C   0  0  0  0  0  0  0  0  0  0  0  0
   -3.7594    0.1721    1.0238 C   0  0  0  0  0  0  0  0  0  0  0  0
   -5.1158    0.4231    0.7998 C   0  0  0  0  0  0  0  0  0  0  0  0
   -5.7174   -0.0252   -0.3933 C   0  0  0  0  0  0  0  0  0  0  0  0
   -5.8820    1.1428    1.8427 C   0  0  0  0  0  0  0  0  0  0  0  0
   -5.5781    2.4734    1.8290 F   0  0  0  0  0  0  0  0  0  0  0  0
   -7.2497    0.9035    1.8046 F   0  0  0  0  0  0  0  0  0  0  0  0
   -5.4488    0.6245    3.0881 F   0  0  0  0  0  0  0  0  0  0  0  0
   -6.5208   -0.4420   -2.7591 H   0  0  0  0  0  0  0  0  0  0  0  0
   -6.0032   -2.1477   -2.5838 H   0  0  0  0  0  0  0  0  0  0  0  0
   -4.9543   -1.0094   -3.4685 H   0  0  0  0  0  0  0  0  0  0  0  0
   -3.0618   -1.5069   -1.8865 H   0  0  0  0  0  0  0  0  0  0  0  0
   -1.2270   -1.7399   -0.0644 H   0  0  0  0  0  0  0  0  0  0  0  0
   -1.0319    0.0288   -0.1200 H   0  0  0  0  0  0  0  0  0  0  0  0
   -0.3885    0.1332    3.4846 H   0  0  0  0  0  0  0  0  0  0  0  0
    2.9583    3.2690    0.3107 H   0  0  0  0  0  0  0  0  0  0  0  0
    4.0338    2.4297   -1.2550 H   0  0  0  0  0  0  0  0  0  0  0  0
    6.3144    1.8683   -2.0699 H   0  0  0  0  0  0  0  0  0  0  0  0
    8.6556   -2.1754   -0.4415 H   0  0  0  0  0  0  0  0  0  0  0  0
    7.3811   -2.4876   -1.7406 H   0  0  0  0  0  0  0  0  0  0  0  0
    4.0417   -1.1687    0.9738 H   0  0  0  0  0  0  0  0  0  0  0  0
   -3.3013    0.5361    1.9110 H   0  0  0  0  0  0  0  0  0  0  0  0
   -6.7505    0.1938   -0.5157 H   0  0  0  0  0  0  0  0  0  0  0  0
  1  2  1  0
  2  3  2  0
  3  4  1  0
  4  5  1  0
  5  6  1  0
  6  7  2  0
  6  8  1  0
  8  9  1  0
  9 10  2  0
 10 11  1  0
 11 12  2  0
 12 13  1  0
 11 14  1  0
 14 15  2  0
 15 16  1  0
 16 17  2  0
 17 18  1  0
 18 19  1  0
 19 20  1  0
 20 21  1  0
 21 22  2  0
  4 23  2  0
 23 24  1  0
 24 25  2  0
 24 26  1  0
 26 27  1  0
 26 28  1  0
 26 29  1  0
 25  2  1  0
 13  9  1  0
 22 14  1  0
 21 17  1  0
  1 30  1  0
  1 31  1  0
  1 32  1  0
  3 33  1  0
  5 34  1  0
  5 35  1  0
  8 36  1  0
 12 37  1  0
 15 38  1  0
 16 39  1  0
 19 40  1  0
 19 41  1  0
 22 42  1  0
 23 43  1  0
 25 44  1  0
M  END
$$$$
[H]OC(=O)[C@@]1([H])N(C(=O)c2c([H])c([H])c(-c3c([H])c([H])c(-c4nnnn4[H])c([H])c3[H])c([H])c2[H])C([H])([H])C([H])([H])C1([H])[H]
     RDKit          3D

 44 47  0  0  0  0  0  0  0  0999 V2000
   -4.8444   -2.7774   -1.1237 O   0  0  0  0  0  0  0  0  0  0  0  0
   -4.5958   -1.4171   -1.0871 C   0  0  0  0  0  0  0  0  0  0  0  0
   -4.7453   -0.7645   -2.1428 O   0  0  0  0  0  0  0  0  0  0  0  0
   -4.1654   -0.7903    0.1905 C   0  0  2  0  0  0  0  0  0  0  0  0
   -5.3602   -0.9164    1.1853 C   0  0  0  0  0  0  0  0  0  0  0  0
   -6.2003    0.2417    0.7818 C   0  0  0  0  0  0  0  0  0  0  0  0
   -5.3280    1.1882    0.0191 C   0  0  0  0  0  0  0  0  0  0  0  0
   -3.9788    0.5991    0.1581 N   0  0  0  0  0  0  0  0  0  0  0  0
   -2.8485    1.4115    0.1799 C   0  0  0  0  0  0  0  0  0  0  0  0
   -3.0615    2.7189    0.2093 O   0  0  0  0  0  0  0  0  0  0  0  0
   -1.4517    1.0468    0.1766 C   0  0  0  0  0  0  0  0  0  0  0  0
   -0.4676    2.0118    0.4757 C   0  0  0  0  0  0  0  0  0  0  0  0
    0.8784    1.7518    0.4353 C   0  0  0  0  0  0  0  0  0  0  0  0
    1.3597    0.5146    0.0955 C   0  0  0  0  0  0  0  0  0  0  0  0
    0.4368   -0.4492   -0.2025 C   0  0  0  0  0  0  0  0  0  0  0  0
   -0.9444   -0.1788   -0.1610 C   0  0  0  0  0  0  0  0  0  0  0  0
    2.7951    0.2108    0.0453 C   0  0  0  0  0  0  0  0  0  0  0  0
    3.2671   -1.0606    0.3341 C   0  0  0  0  0  0  0  0  0  0  0  0
    4.6166   -1.3373    0.2844 C   0  0  0  0  0  0  0  0  0  0  0  0
    5.5181   -0.3570   -0.0524 C   0  0  0  0  0  0  0  0  0  0  0  0
    5.0574    0.8978   -0.3379 C   0  0  0  0  0  0  0  0  0  0  0  0
    3.7237    1.1696   -0.2883 C   0  0  0  0  0  0  0  0  0  0  0  0
    6.9564   -0.6870   -0.0964 C   0  0  0  0  0  0  0  0  0  0  0  0
    7.5186   -1.8629    0.1598 N   0  0  0  0  0  0  0  0  0  0  0  0
    8.8352   -1.7457    0.0101 N   0  0  0  0  0  0  0  0  0  0  0  0
    9.1050   -0.4866   -0.3431 N   0  0  0  0  0  0  0  0  0  0  0  0
    7.9421    0.1625   -0.4074 N   0  0  0  0  0  0  0  0  0  0  0  0
   -5.7723   -3.1181   -0.8971 H   0  0  0  0  0  0  0  0  0  0  0  0
   -3.3368   -1.3962    0.6534 H   0  0  0  0  0  0  0  0  0  0  0  0
   -5.8393   -1.8982    1.0564 H   0  0  0  0  0  0  0  0  0  0  0  0
   -4.8946   -0.7709    2.1781 H   0  0  0  0  0  0  0  0  0  0  0  0
   -7.1088   -0.0645    0.1978 H   0  0  0  0  0  0  0  0  0  0  0  0
   -6.6421    0.7733    1.6773 H   0  0  0  0  0  0  0  0  0  0  0  0
   -5.5766    1.2485   -1.0555 H   0  0  0  0  0  0  0  0  0  0  0  0
   -5.3436    2.2096    0.4939 H   0  0  0  0  0  0  0  0  0  0  0  0
   -0.8606    2.9919    0.7488 H   0  0  0  0  0  0  0  0  0  0  0  0
    1.5852    2.5349    0.6758 H   0  0  0  0  0  0  0  0  0  0  0  0
    0.7921   -1.4423   -0.4761 H   0  0  0  0  0  0  0  0  0  0  0  0
   -1.5901   -0.9818   -0.4448 H   0  0  0  0  0  0  0  0  0  0  0  0
    2.5660   -1.8364    0.5996 H   0  0  0  0  0  0  0  0  0  0  0  0
    4.9745   -2.3324    0.5115 H   0  0  0  0  0  0  0  0  0  0  0  0
    5.8098    1.6568   -0.6036 H   0  0  0  0  0  0  0  0  0  0  0  0
    3.3616    2.1641   -0.5148 H   0  0  0  0  0  0  0  0  0  0  0  0
    7.8573    1.1674   -0.6621 H   0  0  0  0  0  0  0  0  0  0  0  0
  1  2  1  0
  2  3  2  0
  2  4  1  0
  4  5  1  0
  5  6  1  0
  6  7  1  0
  7  8  1  0
  8  9  1  0
  9 10  2  0
  9 11  1  0
 11 12  2  0
 12 13  1  0
 13 14  2  0
 14 15  1  0
 15 16  2  0
 14 17  1  0
 17 18  2  0
 18 19  1  0
 19 20  2  0
 20 21  1  0
 21 22  2  0
 20 23  1  0
 23 24  2  0
 24 25  1  0
 25 26  2  0
 26 27  1  0
  8  4  1  0
 16 11  1  0
 22 17  1  0
 27 23  1  0
  1 28  1  0
  4 29  1  1
  5 30  1  0
  5 31  1  0
  6 32  1  0
  6 33  1  0
  7 34  1  0
  7 35  1  0
 12 36  1  0
 13 37  1  0
 15 38  1  0
 16 39  1  0
 18 40  1  0
 19 41  1  0
 21 42  1  0
 22 43  1  0
 27 44  1  0
M  END
$$$$
[H]O[C@]1([H])[C@]([H])(C([H])([H])O[Si](O[H])(C([H])([H])[H])C(F)(F)F)O[C@@]([H])(n2c([H])nc3c(N([H])[H])nc([H])nc32)[C@]1([H])O[H]
     RDKit          3D

 42 44  0  0  0  0  0  0  0  0999 V2000
    6.3774    1.8685    0.3848 N   0  0  0  0  0  0  0  0  0  0  0  0
    5.1226    1.4460    0.8661 C   0  0  0  0  0  0  0  0  0  0  0  0
    4.7061    1.5917    2.1370 N   0  0  0  0  0  0  0  0  0  0  0  0
    3.4999    1.1769    2.5659 C   0  0  0  0  0  0  0  0  0  0  0  0
    2.6501    0.5859    1.7068 N   0  0  0  0  0  0  0  0  0  0  0  0
    3.0023    0.4127    0.4373 C   0  0  0  0  0  0  0  0  0  0  0  0
    2.3224   -0.1448   -0.5792 N   0  0  0  0  0  0  0  0  0  0  0  0
    3.1368   -0.0649   -1.6467 C   0  0  0  0  0  0  0  0  0  0  0  0
    4.2957    0.5272   -1.3060 N   0  0  0  0  0  0  0  0  0  0  0  0
    4.2508    0.8391   -0.0177 C   0  0  0  0  0  0  0  0  0  0  0  0
    1.0097   -0.7274   -0.6221 C   0  0  2  0  0  0  0  0  0  0  0  0
    0.2057   -0.3482    0.4261 O   0  0  0  0  0  0  0  0  0  0  0  0
   -0.7982   -1.2703    0.5597 C   0  0  1  0  0  0  0  0  0  0  0  0
   -2.1253   -0.7502   -0.0015 C   0  0  0  0  0  0  0  0  0  0  0  0
   -2.5018    0.4173    0.6898 O   0  0  0  0  0  0  0  0  0  0  0  0
   -3.9648    1.0480    0.1190 Si  0  0  0  0  0  4  0  0  0  0  0  0
   -4.0744    2.8798    0.5299 C   0  0  0  0  0  0  0  0  0  0  0  0
   -4.1002    0.8792   -1.5730 O   0  0  0  0  0  0  0  0  0  0  0  0
   -5.4437    0.2152    0.9028 C   0  0  0  0  0  0  0  0  0  0  0  0
   -6.3787    1.1347    1.3159 F   0  0  0  0  0  0  0  0  0  0  0  0
   -6.0042   -0.7318    0.0531 F   0  0  0  0  0  0  0  0  0  0  0  0
   -5.0279   -0.4664    2.0426 F   0  0  0  0  0  0  0  0  0  0  0  0
   -0.3746   -2.5329   -0.1217 C   0  0  1  0  0  0  0  0  0  0  0  0
   -1.0811   -2.7524   -1.3116 O   0  0  0  0  0  0  0  0  0  0  0  0
    1.0974   -2.2275   -0.4312 C   0  0  1  0  0  0  0  0  0  0  0  0
    1.5467   -2.8915   -1.5396 O   0  0  0  0  0  0  0  0  0  0  0  0
    6.5327    2.2910   -0.5586 H   0  0  0  0  0  0  0  0  0  0  0  0
    7.2174    1.7614    0.9934 H   0  0  0  0  0  0  0  0  0  0  0  0
    3.2312    1.3318    3.6228 H   0  0  0  0  0  0  0  0  0  0  0  0
    2.9344   -0.4098   -2.6446 H   0  0  0  0  0  0  0  0  0  0  0  0
    0.4779   -0.5489   -1.5685 H   0  0  0  0  0  0  0  0  0  0  0  0
   -1.0045   -1.5142    1.6275 H   0  0  0  0  0  0  0  0  0  0  0  0
   -2.9324   -1.4708    0.1503 H   0  0  0  0  0  0  0  0  0  0  0  0
   -2.0282   -0.4642   -1.0652 H   0  0  0  0  0  0  0  0  0  0  0  0
   -4.4809    3.0231    1.5652 H   0  0  0  0  0  0  0  0  0  0  0  0
   -3.0737    3.3291    0.4950 H   0  0  0  0  0  0  0  0  0  0  0  0
   -4.7286    3.4040   -0.2023 H   0  0  0  0  0  0  0  0  0  0  0  0
   -4.5363    0.0318   -1.8464 H   0  0  0  0  0  0  0  0  0  0  0  0
   -0.4860   -3.4385    0.4823 H   0  0  0  0  0  0  0  0  0  0  0  0
   -0.9598   -2.0072   -1.9602 H   0  0  0  0  0  0  0  0  0  0  0  0
    1.6532   -2.4926    0.4848 H   0  0  0  0  0  0  0  0  0  0  0  0
    0.8349   -2.9401   -2.2232 H   0  0  0  0  0  0  0  0  0  0  0  0
  1  2  1  0
  2  3  2  0
  3  4  1  0
  4  5  2  0
  5  6  1  0
  6  7  1  0
  7  8  1  0
  8  9  2  0
  9 10  1  0
  7 11  1  0
 11 12  1  0
 12 13  1  0
 13 14  1  0
 14 15  1  0
 15 16  1  0
 16 17  1  0
 16 18  1  0
 16 19  1  0
 19 20  1  0
 19 21  1  0
 19 22  1  0
 13 23  1  0
 23 24  1  0
 23 25  1  0
 25 26  1  0
 10  2  1  0
 25 11  1  0
 10  6  2  0
  1 27  1  0
  1 28  1  0
  4 29  1  0
  8 30  1  0
 11 31  1  6
 13 32  1  1
 14 33  1  0
 14 34  1  0
 17 35  1  0
 17 36  1  0
 17 37  1  0
 18 38  1  0
 23 39  1  1
 24 40  1  0
 25 41  1  1
 26 42  1  0
M  END
$$$$
[H]/C(=C1/C(=O)c2c([H])c([N+](=O)[O-])c([H])c([H])c2N([H])C1=O)c1c([H])c([H])c([H])c([H])c1[H]
     RDKit          3D

 32 34  0  0  0  0  0  0  0  0999 V2000
   -5.8030    2.0471    0.6924 O   0  0  0  0  0  0  0  0  0  0  0  0
   -4.4671    1.9168    0.9466 N   0  0  0  0  0  0  0  0  0  0  0  0
   -3.9537    2.5453    1.8816 O   0  0  0  0  0  0  0  0  0  0  0  0
   -3.6587    1.0625    0.1443 C   0  0  0  0  0  0  0  0  0  0  0  0
   -4.2101    0.3413   -0.9111 C   0  0  0  0  0  0  0  0  0  0  0  0
   -3.4712   -0.4980   -1.7151 C   0  0  0  0  0  0  0  0  0  0  0  0
   -2.1019   -0.6528   -1.4839 C   0  0  0  0  0  0  0  0  0  0  0  0
   -1.5603    0.0574   -0.4457 C   0  0  0  0  0  0  0  0  0  0  0  0
   -2.3107    0.8988    0.3569 C   0  0  0  0  0  0  0  0  0  0  0  0
   -0.1150   -0.0534   -0.1424 C   0  0  0  0  0  0  0  0  0  0  0  0
    0.3884    0.5921    0.7980 O   0  0  0  0  0  0  0  0  0  0  0  0
    0.7181   -0.9151   -0.9478 C   0  0  0  0  0  0  0  0  0  0  0  0
    2.0036   -1.0968   -0.7410 C   0  0  0  0  0  0  0  0  0  0  0  0
    2.7090   -0.4546    0.3196 C   0  0  0  0  0  0  0  0  0  0  0  0
    3.5226    0.6422    0.1120 C   0  0  0  0  0  0  0  0  0  0  0  0
    4.2617    1.2125    1.1323 C   0  0  0  0  0  0  0  0  0  0  0  0
    4.2041    0.6911    2.4074 C   0  0  0  0  0  0  0  0  0  0  0  0
    3.4000   -0.4033    2.6435 C   0  0  0  0  0  0  0  0  0  0  0  0
    2.6609   -0.9647    1.5971 C   0  0  0  0  0  0  0  0  0  0  0  0
    0.0462   -1.6488   -2.0553 C   0  0  0  0  0  0  0  0  0  0  0  0
    0.7346   -2.4035   -2.7721 O   0  0  0  0  0  0  0  0  0  0  0  0
   -1.3369   -1.5204   -2.3193 N   0  0  0  0  0  0  0  0  0  0  0  0
   -5.2705    0.4473   -1.1062 H   0  0  0  0  0  0  0  0  0  0  0  0
   -3.8743   -1.0660   -2.5370 H   0  0  0  0  0  0  0  0  0  0  0  0
   -1.8367    1.4300    1.1565 H   0  0  0  0  0  0  0  0  0  0  0  0
    2.5166   -1.7797   -1.4406 H   0  0  0  0  0  0  0  0  0  0  0  0
    3.5963    1.0851   -0.8816 H   0  0  0  0  0  0  0  0  0  0  0  0
    4.9076    2.0783    0.9799 H   0  0  0  0  0  0  0  0  0  0  0  0
    4.7819    1.1310    3.2198 H   0  0  0  0  0  0  0  0  0  0  0  0
    3.3112   -0.8643    3.6326 H   0  0  0  0  0  0  0  0  0  0  0  0
    2.0254   -1.8216    1.7668 H   0  0  0  0  0  0  0  0  0  0  0  0
   -1.8182   -2.0357   -3.1001 H   0  0  0  0  0  0  0  0  0  0  0  0
  1  2  1  0
  2  3  2  0
  2  4  1  0
  4  5  2  0
  5  6  1  0
  6  7  2  0
  7  8  1  0
  8  9  2  0
  8 10  1  0
 10 11  2  0
 10 12  1  0
 12 13  2  0
 13 14  1  0
 14 15  2  0
 15 16  1  0
 16 17  2  0
 17 18  1  0
 18 19  2  0
 12 20  1  0
 20 21  2  0
 20 22  1  0
  9  4  1  0
 19 14  1  0
 22  7  1  0
  5 23  1  0
  6 24  1  0
  9 25  1  0
 13 26  1  0
 15 27  1  0
 16 28  1  0
 17 29  1  0
 18 30  1  0
 19 31  1  0
 22 32  1  0
M  CHG  2   1  -1   2   1
M  END
$$$$
[H]c1c([H])c(N([H])S(=O)(=O)c2c([H])c([H])c3c(c2[H])C([H])([H])C([H])([H])C(C([H])([H])[H])(C([H])([H])[H])O3)c([H])c(Cl)c1Cl
     RDKit          3D

 41 43  0  0  0  0  0  0  0  0999 V2000
    4.7863    1.9325   -0.1721 C   0  0  0  0  0  0  0  0  0  0  0  0
    3.5677    1.0514    0.0038 C   0  0  0  0  0  0  0  0  0  0  0  0
    2.8997    1.4528    1.3209 C   0  0  0  0  0  0  0  0  0  0  0  0
    3.9396   -0.3855    0.1154 C   0  0  0  0  0  0  0  0  0  0  0  0
    2.9151   -1.3748   -0.2919 C   0  0  0  0  0  0  0  0  0  0  0  0
    1.6517   -0.8168   -0.8160 C   0  0  0  0  0  0  0  0  0  0  0  0
    0.5330   -1.6140   -0.9350 C   0  0  0  0  0  0  0  0  0  0  0  0
   -0.6671   -1.1389   -1.4204 C   0  0  0  0  0  0  0  0  0  0  0  0
   -0.7427    0.1823   -1.7981 C   0  0  0  0  0  0  0  0  0  0  0  0
    0.3688    0.9893   -1.6839 C   0  0  0  0  0  0  0  0  0  0  0  0
    1.5727    0.4995   -1.1933 C   0  0  0  0  0  0  0  0  0  0  0  0
    2.6961    1.3168   -1.0780 O   0  0  0  0  0  0  0  0  0  0  0  0
   -2.1060   -2.1145   -1.5866 S   0  0  0  0  0  0  0  0  0  0  0  0
   -1.6380   -3.5198   -1.8851 O   0  0  0  0  0  0  0  0  0  0  0  0
   -2.8142   -1.6455   -2.8275 O   0  0  0  0  0  0  0  0  0  0  0  0
   -3.0850   -2.1000   -0.2015 N   0  0  0  0  0  0  0  0  0  0  0  0
   -3.7000   -0.9433    0.3462 C   0  0  0  0  0  0  0  0  0  0  0  0
   -4.3421   -0.0481   -0.4819 C   0  0  0  0  0  0  0  0  0  0  0  0
   -4.9309    1.0664    0.0771 C   0  0  0  0  0  0  0  0  0  0  0  0
   -4.8906    1.3025    1.4400 C   0  0  0  0  0  0  0  0  0  0  0  0
   -5.6417    2.7204    2.1354 Cl  0  0  0  0  0  0  0  0  0  0  0  0
   -4.2339    0.3772    2.2429 C   0  0  0  0  0  0  0  0  0  0  0  0
   -4.2026    0.7079    3.9645 Cl  0  0  0  0  0  0  0  0  0  0  0  0
   -3.6330   -0.7492    1.7221 C   0  0  0  0  0  0  0  0  0  0  0  0
    5.7201    1.4107    0.1740 H   0  0  0  0  0  0  0  0  0  0  0  0
    4.9551    2.1749   -1.2378 H   0  0  0  0  0  0  0  0  0  0  0  0
    4.6693    2.8928    0.3643 H   0  0  0  0  0  0  0  0  0  0  0  0
    3.0836    2.5031    1.5339 H   0  0  0  0  0  0  0  0  0  0  0  0
    1.7992    1.2403    1.2086 H   0  0  0  0  0  0  0  0  0  0  0  0
    3.2564    0.7981    2.1431 H   0  0  0  0  0  0  0  0  0  0  0  0
    4.3458   -0.5806    1.1520 H   0  0  0  0  0  0  0  0  0  0  0  0
    4.8448   -0.5376   -0.5435 H   0  0  0  0  0  0  0  0  0  0  0  0
    2.7061   -2.0747    0.5743 H   0  0  0  0  0  0  0  0  0  0  0  0
    3.2955   -2.0575   -1.1096 H   0  0  0  0  0  0  0  0  0  0  0  0
    0.5799   -2.6502   -0.6429 H   0  0  0  0  0  0  0  0  0  0  0  0
   -1.6617    0.6248   -2.1910 H   0  0  0  0  0  0  0  0  0  0  0  0
    0.3039    2.0249   -1.9825 H   0  0  0  0  0  0  0  0  0  0  0  0
   -3.2658   -2.9943    0.3061 H   0  0  0  0  0  0  0  0  0  0  0  0
   -4.3811   -0.2248   -1.5690 H   0  0  0  0  0  0  0  0  0  0  0  0
   -5.4366    1.7735   -0.5653 H   0  0  0  0  0  0  0  0  0  0  0  0
   -3.1172   -1.4718    2.3704 H   0  0  0  0  0  0  0  0  0  0  0  0
  1  2  1  0
  2  3  1  0
  2  4  1  0
  4  5  1  0
  5  6  1  0
  6  7  2  0
  7  8  1  0
  8  9  2  0
  9 10  1  0
 10 11  2  0
 11 12  1  0
  8 13  1  0
 13 14  2  0
 13 15  2  0
 13 16  1  0
 16 17  1  0
 17 18  2  0
 18 19  1  0
 19 20  2  0
 20 21  1  0
 20 22  1  0
 22 23  1  0
 22 24  2  0
 12  2  1  0
 24 17  1  0
 11  6  1  0
  1 25  1  0
  1 26  1  0
  1 27  1  0
  3 28  1  0
  3 29  1  0
  3 30  1  0
  4 31  1  0
  4 32  1  0
  5 33  1  0
  5 34  1  0
  7 35  1  0
  9 36  1  0
 10 37  1  0
 16 38  1  0
 18 39  1  0
 19 40  1  0
 24 41  1  0
M  END
$$$$
[H]c1c([H])c([H])c(Oc2c([H])c([H])c(-c3c([H])c([H])c([H])c4c3c(N([H])[H])nn4[H])c([H])c2[H])c([H])c1[H]
     RDKit          3D

 38 41  0  0  0  0  0  0  0  0999 V2000
   -2.8127    2.1991    1.3542 N   0  0  0  0  0  0  0  0  0  0  0  0
   -3.7836    1.4132    0.6821 C   0  0  0  0  0  0  0  0  0  0  0  0
   -5.1107    1.6992    0.6059 N   0  0  0  0  0  0  0  0  0  0  0  0
   -5.7357    0.7623   -0.0678 N   0  0  0  0  0  0  0  0  0  0  0  0
   -4.8429   -0.1635   -0.4532 C   0  0  0  0  0  0  0  0  0  0  0  0
   -4.9468   -1.3466   -1.1598 C   0  0  0  0  0  0  0  0  0  0  0  0
   -3.8465   -2.1376   -1.4107 C   0  0  0  0  0  0  0  0  0  0  0  0
   -2.6505   -1.7098   -0.9370 C   0  0  0  0  0  0  0  0  0  0  0  0
   -2.4585   -0.5241   -0.2133 C   0  0  0  0  0  0  0  0  0  0  0  0
   -1.1103   -0.1615    0.1936 C   0  0  0  0  0  0  0  0  0  0  0  0
   -0.4628    0.9639   -0.2473 C   0  0  0  0  0  0  0  0  0  0  0  0
    0.8326    1.2867    0.1750 C   0  0  0  0  0  0  0  0  0  0  0  0
    1.5125    0.4771    1.0584 C   0  0  0  0  0  0  0  0  0  0  0  0
    2.7969    0.7945    1.4790 O   0  0  0  0  0  0  0  0  0  0  0  0
    3.9453    0.3831    0.8432 C   0  0  0  0  0  0  0  0  0  0  0  0
    4.5306    1.1235   -0.1506 C   0  0  0  0  0  0  0  0  0  0  0  0
    5.6780    0.6858   -0.7669 C   0  0  0  0  0  0  0  0  0  0  0  0
    6.2782   -0.5025   -0.4131 C   0  0  0  0  0  0  0  0  0  0  0  0
    5.6648   -1.2271    0.5921 C   0  0  0  0  0  0  0  0  0  0  0  0
    4.5150   -0.8044    1.2210 C   0  0  0  0  0  0  0  0  0  0  0  0
    0.8698   -0.6571    1.5073 C   0  0  0  0  0  0  0  0  0  0  0  0
   -0.4060   -0.9743    1.0911 C   0  0  0  0  0  0  0  0  0  0  0  0
   -3.5835    0.2348    0.0164 C   0  0  0  0  0  0  0  0  0  0  0  0
   -2.4294    1.8935    2.2691 H   0  0  0  0  0  0  0  0  0  0  0  0
   -2.4649    3.0917    0.9504 H   0  0  0  0  0  0  0  0  0  0  0  0
   -6.7511    0.7472   -0.2653 H   0  0  0  0  0  0  0  0  0  0  0  0
   -5.9118   -1.6799   -1.5361 H   0  0  0  0  0  0  0  0  0  0  0  0
   -3.9813   -3.0654   -1.9742 H   0  0  0  0  0  0  0  0  0  0  0  0
   -1.7684   -2.3057   -1.1159 H   0  0  0  0  0  0  0  0  0  0  0  0
   -0.9820    1.6190   -0.9584 H   0  0  0  0  0  0  0  0  0  0  0  0
    1.3181    2.1846   -0.1919 H   0  0  0  0  0  0  0  0  0  0  0  0
    4.0812    2.0845   -0.4657 H   0  0  0  0  0  0  0  0  0  0  0  0
    6.1324    1.2755   -1.5489 H   0  0  0  0  0  0  0  0  0  0  0  0
    7.1959   -0.8613   -0.8999 H   0  0  0  0  0  0  0  0  0  0  0  0
    6.1412   -2.1778    0.8783 H   0  0  0  0  0  0  0  0  0  0  0  0
    4.0870   -1.4305    2.0075 H   0  0  0  0  0  0  0  0  0  0  0  0
    1.3899   -1.3196    2.2120 H   0  0  0  0  0  0  0  0  0  0  0  0
   -0.9296   -1.8706    1.4380 H   0  0  0  0  0  0  0  0  0  0  0  0
  1  2  1  0
  2  3  2  0
  3  4  1  0
  4  5  1  0
  5  6  2  0
  6  7  1  0
  7  8  2  0
  8  9  1  0
  9 10  1  0
 10 11  2  0
 11 12  1  0
 12 13  2  0
 13 14  1  0
 14 15  1  0
 15 16  2  0
 16 17  1  0
 17 18  2  0
 18 19  1  0
 19 20  2  0
 13 21  1  0
 21 22  2  0
  9 23  2  0
 23  2  1  0
 23  5  1  0
 22 10  1  0
 20 15  1  0
  1 24  1  0
  1 25  1  0
  4 26  1  0
  6 27  1  0
  7 28  1  0
  8 29  1  0
 11 30  1  0
 12 31  1  0
 16 32  1  0
 17 33  1  0
 18 34  1  0
 19 35  1  0
 20 36  1  0
 21 37  1  0
 22 38  1  0
M  END
$$$$
[H]c1c([H])c([H])c(C(=O)N([H])c2nnc(-c3c([H])c([H])c(Oc4c([H])c([H])c([N+](=O)[O-])c([H])c4Cl)c([H])c3[H])s2)c([H])c1[H]
     RDKit          3D

 44 47  0  0  0  0  0  0  0  0999 V2000
   -9.8478   -1.1893   -0.3569 O   0  0  0  0  0  0  0  0  0  0  0  0
   -8.9798   -0.7819    0.6216 N   0  0  0  0  0  0  0  0  0  0  0  0
   -9.3018   -0.8517    1.8373 O   0  0  0  0  0  0  0  0  0  0  0  0
   -7.6878   -0.2653    0.3329 C   0  0  0  0  0  0  0  0  0  0  0  0
   -7.2907   -0.1702   -0.9926 C   0  0  0  0  0  0  0  0  0  0  0  0
   -6.0380    0.3302   -1.2761 C   0  0  0  0  0  0  0  0  0  0  0  0
   -5.1437    0.7479   -0.2999 C   0  0  0  0  0  0  0  0  0  0  0  0
   -3.9441    1.2229   -0.6716 O   0  0  0  0  0  0  0  0  0  0  0  0
   -2.6793    0.8128   -0.4512 C   0  0  0  0  0  0  0  0  0  0  0  0
   -1.6169    1.5963   -0.8444 C   0  0  0  0  0  0  0  0  0  0  0  0
   -0.2940    1.1874   -0.6258 C   0  0  0  0  0  0  0  0  0  0  0  0
   -0.0590    0.0014   -0.0175 C   0  0  0  0  0  0  0  0  0  0  0  0
   -1.1190   -0.7812    0.3750 C   0  0  0  0  0  0  0  0  0  0  0  0
   -2.4225   -0.3830    0.1619 C   0  0  0  0  0  0  0  0  0  0  0  0
    1.3343   -0.4343    0.2156 C   0  0  0  0  0  0  0  0  0  0  0  0
    2.4642    0.1917   -0.0963 N   0  0  0  0  0  0  0  0  0  0  0  0
    3.5710   -0.3471    0.1873 N   0  0  0  0  0  0  0  0  0  0  0  0
    3.6052   -1.5256    0.7904 C   0  0  0  0  0  0  0  0  0  0  0  0
    4.7567   -2.2822    1.1858 N   0  0  0  0  0  0  0  0  0  0  0  0
    6.0697   -1.8576    0.9782 C   0  0  0  0  0  0  0  0  0  0  0  0
    7.0090   -2.6316    1.3810 O   0  0  0  0  0  0  0  0  0  0  0  0
    6.3836   -0.5894    0.3317 C   0  0  0  0  0  0  0  0  0  0  0  0
    6.5274    0.5593    1.0783 C   0  0  0  0  0  0  0  0  0  0  0  0
    6.8292    1.7736    0.4795 C   0  0  0  0  0  0  0  0  0  0  0  0
    6.9795    1.7830   -0.8961 C   0  0  0  0  0  0  0  0  0  0  0  0
    6.8436    0.6556   -1.6767 C   0  0  0  0  0  0  0  0  0  0  0  0
    6.5408   -0.5405   -1.0366 C   0  0  0  0  0  0  0  0  0  0  0  0
    1.9376   -1.8585    0.9484 S   0  0  0  0  0  0  0  0  0  0  0  0
   -5.5610    0.6440    1.0012 C   0  0  0  0  0  0  0  0  0  0  0  0
   -4.4782    1.1796    2.2599 Cl  0  0  0  0  0  0  0  0  0  0  0  0
   -6.8177    0.1434    1.3201 C   0  0  0  0  0  0  0  0  0  0  0  0
   -7.9481   -0.4814   -1.7915 H   0  0  0  0  0  0  0  0  0  0  0  0
   -5.7412    0.3988   -2.3140 H   0  0  0  0  0  0  0  0  0  0  0  0
   -1.7676    2.5381   -1.3272 H   0  0  0  0  0  0  0  0  0  0  0  0
    0.5449    1.8076   -0.9371 H   0  0  0  0  0  0  0  0  0  0  0  0
   -0.8919   -1.7186    0.8562 H   0  0  0  0  0  0  0  0  0  0  0  0
   -3.2063   -1.0486    0.4869 H   0  0  0  0  0  0  0  0  0  0  0  0
    4.5625   -3.1995    1.6536 H   0  0  0  0  0  0  0  0  0  0  0  0
    6.4089    0.5381    2.1378 H   0  0  0  0  0  0  0  0  0  0  0  0
    6.9469    2.6824    1.0343 H   0  0  0  0  0  0  0  0  0  0  0  0
    7.2178    2.7487   -1.3556 H   0  0  0  0  0  0  0  0  0  0  0  0
    6.9752    0.7389   -2.7453 H   0  0  0  0  0  0  0  0  0  0  0  0
    6.4362   -1.4219   -1.6623 H   0  0  0  0  0  0  0  0  0  0  0  0
   -7.1077    0.0776    2.3570 H   0  0  0  0  0  0  0  0  0  0  0  0
  1  2  1  0
  2  3  2  0
  2  4  1  0
  4  5  2  0
  5  6  1  0
  6  7  2  0
  7  8  1  0
  8  9  1  0
  9 10  2  0
 10 11  1  0
 11 12  2  0
 12 13  1  0
 13 14  2  0
 12 15  1  0
 15 16  2  0
 16 17  1  0
 17 18  2  0
 18 19  1  0
 19 20  1  0
 20 21  2  0
 20 22  1  0
 22 23  2  0
 23 24  1  0
 24 25  2  0
 25 26  1  0
 26 27  2  0
 18 28  1  0
  7 29  1  0
 29 30  1  0
 29 31  2  0
 31  4  1  0
 14  9  1  0
 28 15  1  0
 27 22  1  0
  5 32  1  0
  6 33  1  0
 10 34  1  0
 11 35  1  0
 13 36  1  0
 14 37  1  0
 19 38  1  0
 23 39  1  0
 24 40  1  0
 25 41  1  0
 26 42  1  0
 27 43  1  0
 31 44  1  0
M  CHG  2   1  -1   2   1
M  END
$$$$
[H][C](C([H])([H])[H])C([H])([H])[C@@]1([H])N([H])C(=O)[C@@]1([H])N([H])C(=O)[C@]1([H])C([H])([H])C([H])([H])C([H])([H])[C@@]1([H])N([H])C(=O)[C@@]([H])(N([H])C(=O)[C@@]([H])(N([H])C(=O)[C@@]([H])(N([H])C(=O)[C@@]([H])(N([H])C(=O)[C@]([H])(N([H])C(=O)c1c([H])c([H])c(F)c([H])c1[H])C([H])([H])[H])C([H])([H])c1c([H])c([H])c([H])c([H])c1[H])C([H])([H])[H])C([H])([H])[H])C([H])([H])[H]
     RDKit          3D

109112  0  0  0  0  0  0  0  0999 V2000
   -8.4189    2.1923    1.8921 C   0  0  0  0  0  0  0  0  0  0  0  0
   -8.8447    1.1764    0.8773 C   0  0  1  0  0  0  0  0  0  0  0  0
   -9.9053    1.7275    0.0593 N   0  0  0  0  0  0  0  0  0  0  0  0
  -11.1800    1.0448    0.0075 C   0  0  0  0  0  0  0  0  0  0  0  0
  -11.3228   -0.0179    0.6924 O   0  0  0  0  0  0  0  0  0  0  0  0
  -12.2661    1.5314   -0.7910 C   0  0  0  0  0  0  0  0  0  0  0  0
  -13.4094    0.7269   -0.8335 C   0  0  0  0  0  0  0  0  0  0  0  0
  -14.5140    1.0544   -1.5603 C   0  0  0  0  0  0  0  0  0  0  0  0
  -14.5098    2.2385   -2.2925 C   0  0  0  0  0  0  0  0  0  0  0  0
  -15.5701    2.6117   -3.0218 F   0  0  0  0  0  0  0  0  0  0  0  0
  -13.3728    3.0201   -2.2374 C   0  0  0  0  0  0  0  0  0  0  0  0
  -12.2549    2.7091   -1.5143 C   0  0  0  0  0  0  0  0  0  0  0  0
   -7.6219    0.8464    0.0058 C   0  0  0  0  0  0  0  0  0  0  0  0
   -7.6399    1.4716   -1.0752 O   0  0  0  0  0  0  0  0  0  0  0  0
   -6.7001   -0.0361    0.4504 N   0  0  0  0  0  0  0  0  0  0  0  0
   -5.7317   -0.9486    0.8913 C   0  0  1  0  0  0  0  0  0  0  0  0
   -5.5490   -2.1501   -0.0473 C   0  0  0  0  0  0  0  0  0  0  0  0
   -6.8098   -2.9019   -0.1672 C   0  0  0  0  0  0  0  0  0  0  0  0
   -7.7377   -2.5812   -1.1517 C   0  0  0  0  0  0  0  0  0  0  0  0
   -8.9323   -3.2547   -1.2714 C   0  0  0  0  0  0  0  0  0  0  0  0
   -9.2755   -4.2859   -0.4233 C   0  0  0  0  0  0  0  0  0  0  0  0
   -8.3522   -4.6346    0.5849 C   0  0  0  0  0  0  0  0  0  0  0  0
   -7.1601   -3.9322    0.6744 C   0  0  0  0  0  0  0  0  0  0  0  0
   -4.4303   -0.3113    1.1015 C   0  0  0  0  0  0  0  0  0  0  0  0
   -4.3423    0.9337    0.9931 O   0  0  0  0  0  0  0  0  0  0  0  0
   -3.2540   -1.0339    1.4274 N   0  0  0  0  0  0  0  0  0  0  0  0
   -1.9849   -0.3999    1.6570 C   0  0  1  0  0  0  0  0  0  0  0  0
   -1.0964   -1.1230    2.6447 C   0  0  0  0  0  0  0  0  0  0  0  0
   -1.1461   -0.3873    0.3509 C   0  0  0  0  0  0  0  0  0  0  0  0
   -1.4884   -1.1387   -0.5642 O   0  0  0  0  0  0  0  0  0  0  0  0
   -0.0530    0.4963    0.3237 N   0  0  0  0  0  0  0  0  0  0  0  0
    0.8719    0.6910   -0.7378 C   0  0  1  0  0  0  0  0  0  0  0  0
    0.5648    2.0576   -1.3538 C   0  0  0  0  0  0  0  0  0  0  0  0
    2.2325    0.7329   -0.1049 C   0  0  0  0  0  0  0  0  0  0  0  0
    2.2850    0.4842    1.1503 O   0  0  0  0  0  0  0  0  0  0  0  0
    3.4270    1.0242   -0.7852 N   0  0  0  0  0  0  0  0  0  0  0  0
    4.6929    1.0677   -0.1312 C   0  0  1  0  0  0  0  0  0  0  0  0
    4.6006    1.5246    1.3235 C   0  0  0  0  0  0  0  0  0  0  0  0
    5.4282   -0.2020   -0.1801 C   0  0  0  0  0  0  0  0  0  0  0  0
    4.9424   -1.1612   -0.8170 O   0  0  0  0  0  0  0  0  0  0  0  0
    6.6847   -0.3786    0.4753 N   0  0  0  0  0  0  0  0  0  0  0  0
    7.4003   -1.6261    0.3996 C   0  0  2  0  0  0  0  0  0  0  0  0
    7.3121   -2.4066    1.7333 C   0  0  0  0  0  0  0  0  0  0  0  0
    8.4536   -3.3831    1.6311 C   0  0  0  0  0  0  0  0  0  0  0  0
    9.3943   -2.8215    0.5647 C   0  0  0  0  0  0  0  0  0  0  0  0
    8.8771   -1.4419    0.3062 C   0  0  1  0  0  0  0  0  0  0  0  0
    9.3311   -0.8308   -0.9525 C   0  0  0  0  0  0  0  0  0  0  0  0
    8.4898   -0.5719   -1.8203 O   0  0  0  0  0  0  0  0  0  0  0  0
   10.7185   -0.5413   -1.1544 N   0  0  0  0  0  0  0  0  0  0  0  0
   11.2135    0.0865   -2.3621 C   0  0  2  0  0  0  0  0  0  0  0  0
   12.5972   -0.1492   -2.7203 C   0  0  0  0  0  0  0  0  0  0  0  0
   13.2038   -1.1058   -3.2520 O   0  0  0  0  0  0  0  0  0  0  0  0
   12.9785    1.1144   -2.2366 N   0  0  0  0  0  0  0  0  0  0  0  0
   11.6050    1.5420   -2.0563 C   0  0  2  0  0  0  0  0  0  0  0  0
   11.3495    1.8969   -0.6120 C   0  0  0  0  0  0  0  0  0  0  0  0
   11.7075    3.3024   -0.2381 C   0  0  0  0  0  3  0  0  0  0  0  0
   11.3602    3.5306    1.2380 C   0  0  0  0  0  0  0  0  0  0  0  0
   -7.4571    2.6677    1.6022 H   0  0  0  0  0  0  0  0  0  0  0  0
   -8.2994    1.6940    2.8758 H   0  0  0  0  0  0  0  0  0  0  0  0
   -9.2530    2.9240    1.9948 H   0  0  0  0  0  0  0  0  0  0  0  0
   -9.1987    0.2732    1.3615 H   0  0  0  0  0  0  0  0  0  0  0  0
   -9.7947    2.5895   -0.4975 H   0  0  0  0  0  0  0  0  0  0  0  0
  -13.4391   -0.2132   -0.2644 H   0  0  0  0  0  0  0  0  0  0  0  0
  -15.4067    0.4169   -1.5961 H   0  0  0  0  0  0  0  0  0  0  0  0
  -13.3438    3.9685   -2.8182 H   0  0  0  0  0  0  0  0  0  0  0  0
  -11.3765    3.3219   -1.4794 H   0  0  0  0  0  0  0  0  0  0  0  0
   -5.9759    0.1438   -0.6790 H   0  0  0  0  0  0  0  0  0  0  0  0
   -6.0155   -1.3991    1.9109 H   0  0  0  0  0  0  0  0  0  0  0  0
   -5.1698   -1.7925   -1.0021 H   0  0  0  0  0  0  0  0  0  0  0  0
   -4.7979   -2.8031    0.4018 H   0  0  0  0  0  0  0  0  0  0  0  0
   -7.4796   -1.7706   -1.8192 H   0  0  0  0  0  0  0  0  0  0  0  0
   -9.6425   -2.9645   -2.0689 H   0  0  0  0  0  0  0  0  0  0  0  0
  -10.2084   -4.8064   -0.5359 H   0  0  0  0  0  0  0  0  0  0  0  0
   -8.6250   -5.4408    1.2338 H   0  0  0  0  0  0  0  0  0  0  0  0
   -6.4675   -4.2180    1.4596 H   0  0  0  0  0  0  0  0  0  0  0  0
   -3.2766   -2.0834    1.5132 H   0  0  0  0  0  0  0  0  0  0  0  0
   -2.1417    0.6537    1.9149 H   0  0  0  0  0  0  0  0  0  0  0  0
   -1.7772   -1.7152    3.2848 H   0  0  0  0  0  0  0  0  0  0  0  0
   -0.4579   -0.4095    3.1616 H   0  0  0  0  0  0  0  0  0  0  0  0
   -0.4709   -1.8784    2.1073 H   0  0  0  0  0  0  0  0  0  0  0  0
    0.1071    1.1048    1.1892 H   0  0  0  0  0  0  0  0  0  0  0  0
    0.7981   -0.0705   -1.5312 H   0  0  0  0  0  0  0  0  0  0  0  0
    1.0017    2.1111   -2.3896 H   0  0  0  0  0  0  0  0  0  0  0  0
    0.9923    2.8291   -0.6742 H   0  0  0  0  0  0  0  0  0  0  0  0
   -0.5218    2.1537   -1.4099 H   0  0  0  0  0  0  0  0  0  0  0  0
    3.3805    1.2395   -1.8300 H   0  0  0  0  0  0  0  0  0  0  0  0
    5.3452    1.8763   -0.6108 H   0  0  0  0  0  0  0  0  0  0  0  0
    3.7837    2.2807    1.4147 H   0  0  0  0  0  0  0  0  0  0  0  0
    5.5721    2.0361    1.6279 H   0  0  0  0  0  0  0  0  0  0  0  0
    4.4516    0.7193    2.0285 H   0  0  0  0  0  0  0  0  0  0  0  0
    7.1053    0.4119    1.0280 H   0  0  0  0  0  0  0  0  0  0  0  0
    7.0399   -2.2864   -0.3923 H   0  0  0  0  0  0  0  0  0  0  0  0
    6.3293   -2.8866    1.8133 H   0  0  0  0  0  0  0  0  0  0  0  0
    7.4567   -1.6902    2.5462 H   0  0  0  0  0  0  0  0  0  0  0  0
    8.0446   -4.3703    1.3110 H   0  0  0  0  0  0  0  0  0  0  0  0
    8.9514   -3.4554    2.6200 H   0  0  0  0  0  0  0  0  0  0  0  0
   10.4475   -2.8430    0.9012 H   0  0  0  0  0  0  0  0  0  0  0  0
    9.2730   -3.4600   -0.3454 H   0  0  0  0  0  0  0  0  0  0  0  0
    9.2376   -0.8287    1.1949 H   0  0  0  0  0  0  0  0  0  0  0  0
   11.4114   -0.8077   -0.4267 H   0  0  0  0  0  0  0  0  0  0  0  0
   10.4645    0.0949   -3.1450 H   0  0  0  0  0  0  0  0  0  0  0  0
   13.9315    1.5452   -2.0887 H   0  0  0  0  0  0  0  0  0  0  0  0
   11.1997    2.2739   -2.7385 H   0  0  0  0  0  0  0  0  0  0  0  0
   10.3274    1.7162   -0.2921 H   0  0  0  0  0  0  0  0  0  0  0  0
   12.0022    1.2478    0.0683 H   0  0  0  0  0  0  0  0  0  0  0  0
   11.2182    4.0367   -0.8670 H   0  0  0  0  0  0  0  0  0  0  0  0
   10.4599    4.1895    1.3101 H   0  0  0  0  0  0  0  0  0  0  0  0
   12.2050    4.0353    1.7229 H   0  0  0  0  0  0  0  0  0  0  0  0
   11.2117    2.5597    1.7490 H   0  0  0  0  0  0  0  0  0  0  0  0
  1  2  1  0
  2  3  1  0
  3  4  1  0
  4  5  2  0
  4  6  1  0
  6  7  2  0
  7  8  1  0
  8  9  2  0
  9 10  1  0
  9 11  1  0
 11 12  2  0
  2 13  1  0
 13 14  2  0
 13 15  1  0
 15 16  1  0
 16 17  1  0
 17 18  1  0
 18 19  2  0
 19 20  1  0
 20 21  2  0
 21 22  1  0
 22 23  2  0
 16 24  1  0
 24 25  2  0
 24 26  1  0
 26 27  1  0
 27 28  1  0
 27 29  1  0
 29 30  2  0
 29 31  1  0
 31 32  1  0
 32 33  1  0
 32 34  1  0
 34 35  2  0
 34 36  1  0
 36 37  1  0
 37 38  1  0
 37 39  1  0
 39 40  2  0
 39 41  1  0
 41 42  1  0
 42 43  1  0
 43 44  1  0
 44 45  1  0
 45 46  1  0
 46 47  1  0
 47 48  2  0
 47 49  1  0
 49 50  1  0
 50 51  1  0
 51 52  2  0
 51 53  1  0
 53 54  1  0
 54 55  1  0
 55 56  1  0
 56 57  1  0
 12  6  1  0
 23 18  1  0
 46 42  1  0
 54 50  1  0
  1 58  1  0
  1 59  1  0
  1 60  1  0
  2 61  1  1
  3 62  1  0
  7 63  1  0
  8 64  1  0
 11 65  1  0
 12 66  1  0
 15 67  1  0
 16 68  1  1
 17 69  1  0
 17 70  1  0
 19 71  1  0
 20 72  1  0
 21 73  1  0
 22 74  1  0
 23 75  1  0
 26 76  1  0
 27 77  1  1
 28 78  1  0
 28 79  1  0
 28 80  1  0
 31 81  1  0
 32 82  1  6
 33 83  1  0
 33 84  1  0
 33 85  1  0
 36 86  1  0
 37 87  1  6
 38 88  1  0
 38 89  1  0
 38 90  1  0
 41 91  1  0
 42 92  1  6
 43 93  1  0
 43 94  1  0
 44 95  1  0
 44 96  1  0
 45 97  1  0
 45 98  1  0
 46 99  1  1
 49100  1  0
 50101  1  6
 53102  1  0
 54103  1  6
 55104  1  0
 55105  1  0
 56106  1  0
 57107  1  0
 57108  1  0
 57109  1  0
M  RAD  1  56   2
M  END
$$$$
[H]O[C@@]1([H])[C@@]([H])(C([H])([H])OP(=O)(O[H])O[H])O[C@]([H])(C([H])([H])OP(=O)(O[H])OP(=O)(O[H])O[H])[C@]([H])(O[H])[C@]1([H])O[H]
     RDKit          3D

 42 42  0  0  0  0  0  0  0  0999 V2000
   -3.0206   -2.1097    0.4958 O   0  0  0  0  0  0  0  0  0  0  0  0
   -2.5526   -1.3622   -0.5961 C   0  0  2  0  0  0  0  0  0  0  0  0
   -1.3247   -2.1045   -1.1090 C   0  0  1  0  0  0  0  0  0  0  0  0
   -0.8363   -1.5366   -2.2789 O   0  0  0  0  0  0  0  0  0  0  0  0
   -0.3224   -2.0138    0.0326 C   0  0  1  0  0  0  0  0  0  0  0  0
    0.7397   -2.8823   -0.1255 O   0  0  0  0  0  0  0  0  0  0  0  0
    0.0697   -0.5775    0.1680 C   0  0  1  0  0  0  0  0  0  0  0  0
    1.3514   -0.3912   -0.6399 C   0  0  0  0  0  0  0  0  0  0  0  0
    2.0881    0.7061   -0.1681 O   0  0  0  0  0  0  0  0  0  0  0  0
    3.4935    0.2209    0.6319 P   0  0  0  0  0  0  0  0  0  0  0  0
    4.5799   -0.5486   -0.4089 O   0  0  0  0  0  0  0  0  0  0  0  0
    3.1505   -0.6939    1.7706 O   0  0  0  0  0  0  0  0  0  0  0  0
    4.2457    1.6345    1.2053 O   0  0  0  0  0  0  0  0  0  0  0  0
    5.7277    1.8866    0.4462 P   0  0  0  0  0  0  0  0  0  0  0  0
    6.8888    0.9175    1.2039 O   0  0  0  0  0  0  0  0  0  0  0  0
    6.1696    3.5152    0.6592 O   0  0  0  0  0  0  0  0  0  0  0  0
    5.6421    1.5653   -1.0346 O   0  0  0  0  0  0  0  0  0  0  0  0
   -0.8382    0.3247   -0.3233 O   0  0  0  0  0  0  0  0  0  0  0  0
   -2.1621    0.0168   -0.1438 C   0  0  2  0  0  0  0  0  0  0  0  0
   -2.6624    0.3160    1.2644 C   0  0  0  0  0  0  0  0  0  0  0  0
   -3.2231    1.5768    1.3537 O   0  0  0  0  0  0  0  0  0  0  0  0
   -4.5714    1.7903    0.3845 P   0  0  0  0  0  0  0  0  0  0  0  0
   -5.8233    2.4817    1.3061 O   0  0  0  0  0  0  0  0  0  0  0  0
   -4.1564    2.8424   -0.8800 O   0  0  0  0  0  0  0  0  0  0  0  0
   -5.1107    0.5151   -0.1910 O   0  0  0  0  0  0  0  0  0  0  0  0
   -2.7695   -3.0628    0.4230 H   0  0  0  0  0  0  0  0  0  0  0  0
   -3.2926   -1.3780   -1.4068 H   0  0  0  0  0  0  0  0  0  0  0  0
   -1.5865   -3.1556   -1.3421 H   0  0  0  0  0  0  0  0  0  0  0  0
   -1.2672   -0.6920   -2.5254 H   0  0  0  0  0  0  0  0  0  0  0  0
   -0.8962   -2.2874    0.9534 H   0  0  0  0  0  0  0  0  0  0  0  0
    0.3637   -3.8029   -0.0188 H   0  0  0  0  0  0  0  0  0  0  0  0
    0.3422   -0.3303    1.2134 H   0  0  0  0  0  0  0  0  0  0  0  0
    1.9479   -1.3183   -0.6725 H   0  0  0  0  0  0  0  0  0  0  0  0
    1.1164   -0.1474   -1.7070 H   0  0  0  0  0  0  0  0  0  0  0  0
    4.2786   -1.4616   -0.6259 H   0  0  0  0  0  0  0  0  0  0  0  0
    6.7837   -0.0205    0.8871 H   0  0  0  0  0  0  0  0  0  0  0  0
    5.3900    4.1082    0.5865 H   0  0  0  0  0  0  0  0  0  0  0  0
   -2.7340    0.7229   -0.8010 H   0  0  0  0  0  0  0  0  0  0  0  0
   -3.3706   -0.4554    1.6275 H   0  0  0  0  0  0  0  0  0  0  0  0
   -1.7539    0.3309    1.9158 H   0  0  0  0  0  0  0  0  0  0  0  0
   -6.2546    3.1854    0.7504 H   0  0  0  0  0  0  0  0  0  0  0  0
   -3.8400    3.6755   -0.4488 H   0  0  0  0  0  0  0  0  0  0  0  0
  1  2  1  0
  2  3  1  0
  3  4  1  0
  3  5  1  0
  5  6  1  0
  5  7  1  0
  7  8  1  0
  8  9  1  0
  9 10  1  0
 10 11  1  0
 10 12  2  0
 10 13  1  0
 13 14  1  0
 14 15  1  0
 14 16  1  0
 14 17  2  0
  7 18  1  0
 18 19  1  0
 19 20  1  0
 20 21  1  0
 21 22  1  0
 22 23  1  0
 22 24  1  0
 22 25  2  0
 19  2  1  0
  1 26  1  0
  2 27  1  6
  3 28  1  6
  4 29  1  0
  5 30  1  1
  6 31  1  0
  7 32  1  1
  8 33  1  0
  8 34  1  0
 11 35  1  0
 15 36  1  0
 16 37  1  0
 19 38  1  6
 20 39  1  0
 20 40  1  0
 23 41  1  0
 24 42  1  0
M  END
$$$$
[H]c1c([H])c(N([H])C(=O)C([H])([H])[H])c([H])c([H])c1Sc1nc(N([H])c2c([H])c([H])c(N3C([H])([H])C([H])([H])N(C([H])([H])[H])C([H])([H])C3([H])[H])c([H])c2[H])nc2c([H])c([H])c([H])c([H])c12
     RDKit          3D

 63 67  0  0  0  0  0  0  0  0999 V2000
    9.4468   -1.4425    0.8509 C   0  0  0  0  0  0  0  0  0  0  0  0
    8.0495   -1.8223    0.8131 N   0  0  0  0  0  0  0  0  0  0  0  0
    7.6304   -2.4284   -0.3775 C   0  0  0  0  0  0  0  0  0  0  0  0
    6.3703   -1.9991   -1.0105 C   0  0  0  0  0  0  0  0  0  0  0  0
    5.8203   -0.7639   -0.5075 N   0  0  0  0  0  0  0  0  0  0  0  0
    6.7193    0.0599    0.2601 C   0  0  0  0  0  0  0  0  0  0  0  0
    7.1937   -0.8378    1.4018 C   0  0  0  0  0  0  0  0  0  0  0  0
    4.4886   -0.3632   -0.7412 C   0  0  0  0  0  0  0  0  0  0  0  0
    3.8914    0.7309   -0.1898 C   0  0  0  0  0  0  0  0  0  0  0  0
    2.5565    1.0565   -0.4831 C   0  0  0  0  0  0  0  0  0  0  0  0
    1.7988    0.2972   -1.3281 C   0  0  0  0  0  0  0  0  0  0  0  0
    0.4566    0.5556   -1.6416 N   0  0  0  0  0  0  0  0  0  0  0  0
   -0.4595    1.3796   -0.9695 C   0  0  0  0  0  0  0  0  0  0  0  0
   -1.7114    1.4716   -1.4847 N   0  0  0  0  0  0  0  0  0  0  0  0
   -2.7013    2.2014   -0.9580 C   0  0  0  0  0  0  0  0  0  0  0  0
   -4.3354    2.2552   -1.7235 S   0  0  0  0  0  0  0  0  0  0  0  0
   -5.3599    0.9501   -1.0588 C   0  0  0  0  0  0  0  0  0  0  0  0
   -6.6518    0.7927   -1.4880 C   0  0  0  0  0  0  0  0  0  0  0  0
   -7.4729   -0.2279   -0.9763 C   0  0  0  0  0  0  0  0  0  0  0  0
   -7.0318   -1.1116   -0.0302 C   0  0  0  0  0  0  0  0  0  0  0  0
   -7.7879   -2.1464    0.5473 N   0  0  0  0  0  0  0  0  0  0  0  0
   -9.1676   -2.3194    0.4632 C   0  0  0  0  0  0  0  0  0  0  0  0
   -9.8470   -3.5006    1.1415 C   0  0  0  0  0  0  0  0  0  0  0  0
   -9.9155   -1.5391   -0.1564 O   0  0  0  0  0  0  0  0  0  0  0  0
   -5.6988   -0.9245    0.3910 C   0  0  0  0  0  0  0  0  0  0  0  0
   -4.9033    0.0717   -0.1114 C   0  0  0  0  0  0  0  0  0  0  0  0
   -2.4686    2.9193    0.1822 C   0  0  0  0  0  0  0  0  0  0  0  0
   -3.4661    3.6782    0.7468 C   0  0  0  0  0  0  0  0  0  0  0  0
   -3.2216    4.3965    1.8944 C   0  0  0  0  0  0  0  0  0  0  0  0
   -1.9617    4.3295    2.4495 C   0  0  0  0  0  0  0  0  0  0  0  0
   -0.9674    3.5633    1.8729 C   0  0  0  0  0  0  0  0  0  0  0  0
   -1.1907    2.8331    0.7190 C   0  0  0  0  0  0  0  0  0  0  0  0
   -0.2467    2.0838    0.1412 N   0  0  0  0  0  0  0  0  0  0  0  0
    2.4331   -0.8212   -1.8826 C   0  0  0  0  0  0  0  0  0  0  0  0
    3.7396   -1.1583   -1.6093 C   0  0  0  0  0  0  0  0  0  0  0  0
    9.8140   -1.5270    1.8920 H   0  0  0  0  0  0  0  0  0  0  0  0
    9.5127   -0.3473    0.5853 H   0  0  0  0  0  0  0  0  0  0  0  0
   10.0630   -2.0220    0.1629 H   0  0  0  0  0  0  0  0  0  0  0  0
    7.5811   -3.5460   -0.1972 H   0  0  0  0  0  0  0  0  0  0  0  0
    8.4594   -2.3323   -1.1424 H   0  0  0  0  0  0  0  0  0  0  0  0
    5.5627   -2.7718   -0.8338 H   0  0  0  0  0  0  0  0  0  0  0  0
    6.4398   -1.9058   -2.1139 H   0  0  0  0  0  0  0  0  0  0  0  0
    6.3418    1.0106    0.6043 H   0  0  0  0  0  0  0  0  0  0  0  0
    7.6286    0.2168   -0.3853 H   0  0  0  0  0  0  0  0  0  0  0  0
    6.3550   -1.3668    1.8902 H   0  0  0  0  0  0  0  0  0  0  0  0
    7.7907   -0.2559    2.1377 H   0  0  0  0  0  0  0  0  0  0  0  0
    4.4042    1.3844    0.4860 H   0  0  0  0  0  0  0  0  0  0  0  0
    2.1534    1.9531   -0.0142 H   0  0  0  0  0  0  0  0  0  0  0  0
    0.0867    0.0519   -2.5256 H   0  0  0  0  0  0  0  0  0  0  0  0
   -7.0511    1.4754   -2.2434 H   0  0  0  0  0  0  0  0  0  0  0  0
   -8.4671   -0.2939   -1.3688 H   0  0  0  0  0  0  0  0  0  0  0  0
   -7.2684   -2.8916    1.1122 H   0  0  0  0  0  0  0  0  0  0  0  0
   -9.1117   -3.9961    1.7820 H   0  0  0  0  0  0  0  0  0  0  0  0
  -10.6422   -3.0819    1.8202 H   0  0  0  0  0  0  0  0  0  0  0  0
  -10.2769   -4.1820    0.4012 H   0  0  0  0  0  0  0  0  0  0  0  0
   -5.3288   -1.6181    1.1443 H   0  0  0  0  0  0  0  0  0  0  0  0
   -3.8668    0.1892    0.2403 H   0  0  0  0  0  0  0  0  0  0  0  0
   -4.4513    3.7150    0.2900 H   0  0  0  0  0  0  0  0  0  0  0  0
   -4.0215    4.9916    2.3298 H   0  0  0  0  0  0  0  0  0  0  0  0
   -1.7451    4.8822    3.3468 H   0  0  0  0  0  0  0  0  0  0  0  0
    0.0393    3.5097    2.3174 H   0  0  0  0  0  0  0  0  0  0  0  0
    1.8263   -1.4302   -2.5590 H   0  0  0  0  0  0  0  0  0  0  0  0
    4.1445   -2.0313   -2.0799 H   0  0  0  0  0  0  0  0  0  0  0  0
  1  2  1  0
  2  3  1  0
  3  4  1  0
  4  5  1  0
  5  6  1  0
  6  7  1  0
  5  8  1  0
  8  9  2  0
  9 10  1  0
 10 11  2  0
 11 12  1  0
 12 13  1  0
 13 14  2  0
 14 15  1  0
 15 16  1  0
 16 17  1  0
 17 18  2  0
 18 19  1  0
 19 20  2  0
 20 21  1  0
 21 22  1  0
 22 23  1  0
 22 24  2  0
 20 25  1  0
 25 26  2  0
 15 27  2  0
 27 28  1  0
 28 29  2  0
 29 30  1  0
 30 31  2  0
 31 32  1  0
 32 33  2  0
 11 34  1  0
 34 35  2  0
  7  2  1  0
 35  8  1  0
 33 13  1  0
 26 17  1  0
 32 27  1  0
  1 36  1  0
  1 37  1  0
  1 38  1  0
  3 39  1  0
  3 40  1  0
  4 41  1  0
  4 42  1  0
  6 43  1  0
  6 44  1  0
  7 45  1  0
  7 46  1  0
  9 47  1  0
 10 48  1  0
 12 49  1  0
 18 50  1  0
 19 51  1  0
 21 52  1  0
 23 53  1  0
 23 54  1  0
 23 55  1  0
 25 56  1  0
 26 57  1  0
 28 58  1  0
 29 59  1  0
 30 60  1  0
 31 61  1  0
 34 62  1  0
 35 63  1  0
M  END
$$$$
[H]c1c([H])c(C([H])([H])[H])c(C(F)(F)F)c([H])c1-c1nc(C2([H])C([H])([H])C2([H])[H])c2n1C([H])([H])[C@]([H])(C([H])([H])[H])OC([H])([H])C2([H])[H]
     RDKit          3D

 46 49  0  0  0  0  0  0  0  0999 V2000
   -2.4856   -1.7206   -1.6538 C   0  0  0  0  0  0  0  0  0  0  0  0
   -2.2738   -2.6201   -0.4417 C   0  0  1  0  0  0  0  0  0  0  0  0
   -0.8874   -2.2357    0.1265 C   0  0  0  0  0  0  0  0  0  0  0  0
   -0.8993   -0.8346    0.4736 N   0  0  0  0  0  0  0  0  0  0  0  0
   -1.9410   -0.1455    0.9237 C   0  0  0  0  0  0  0  0  0  0  0  0
   -3.2950   -0.4989    1.3507 C   0  0  0  0  0  0  0  0  0  0  0  0
   -4.0168   -1.5602    0.6157 C   0  0  0  0  0  0  0  0  0  0  0  0
   -3.2739   -2.7003    0.4171 O   0  0  0  0  0  0  0  0  0  0  0  0
   -1.4951    1.2102    0.9525 C   0  0  0  0  0  0  0  0  0  0  0  0
   -0.2654    1.1903    0.5323 N   0  0  0  0  0  0  0  0  0  0  0  0
    0.1828   -0.0805    0.2190 C   0  0  0  0  0  0  0  0  0  0  0  0
    1.5461   -0.2928   -0.1501 C   0  0  0  0  0  0  0  0  0  0  0  0
    2.1447   -1.4482   -0.5272 C   0  0  0  0  0  0  0  0  0  0  0  0
    3.5128   -1.5532   -0.8477 C   0  0  0  0  0  0  0  0  0  0  0  0
    4.3378   -0.4666   -0.7917 C   0  0  0  0  0  0  0  0  0  0  0  0
    5.7495   -0.5277   -1.1451 C   0  0  0  0  0  0  0  0  0  0  0  0
    3.7716    0.7368   -0.4078 C   0  0  0  0  0  0  0  0  0  0  0  0
    2.4366    0.8122   -0.1028 C   0  0  0  0  0  0  0  0  0  0  0  0
    4.6482    1.9125   -0.2931 C   0  0  0  0  0  0  0  0  0  0  0  0
    3.8552    2.9831    0.1026 F   0  0  0  0  0  0  0  0  0  0  0  0
    5.1967    2.2337   -1.5053 F   0  0  0  0  0  0  0  0  0  0  0  0
    5.5846    1.7895    0.7146 F   0  0  0  0  0  0  0  0  0  0  0  0
   -2.3766    2.2617    1.5096 C   0  0  0  0  0  0  0  0  0  0  0  0
   -3.2969    3.1211    0.7801 C   0  0  0  0  0  0  0  0  0  0  0  0
   -1.9351    3.6418    0.9251 C   0  0  0  0  0  0  0  0  0  0  0  0
   -2.9633   -2.2885   -2.4770 H   0  0  0  0  0  0  0  0  0  0  0  0
   -1.4943   -1.4192   -2.0424 H   0  0  0  0  0  0  0  0  0  0  0  0
   -3.0121   -0.7820   -1.4353 H   0  0  0  0  0  0  0  0  0  0  0  0
   -2.0953   -3.6356   -0.9054 H   0  0  0  0  0  0  0  0  0  0  0  0
   -0.2903   -2.4021   -0.8315 H   0  0  0  0  0  0  0  0  0  0  0  0
   -0.6886   -2.9253    0.9324 H   0  0  0  0  0  0  0  0  0  0  0  0
   -3.3131   -0.7803    2.4478 H   0  0  0  0  0  0  0  0  0  0  0  0
   -3.9654    0.4090    1.3345 H   0  0  0  0  0  0  0  0  0  0  0  0
   -4.8638   -1.8979    1.2990 H   0  0  0  0  0  0  0  0  0  0  0  0
   -4.5895   -1.2086   -0.2741 H   0  0  0  0  0  0  0  0  0  0  0  0
    1.5932   -2.3261   -0.5690 H   0  0  0  0  0  0  0  0  0  0  0  0
    3.8821   -2.5342   -1.1469 H   0  0  0  0  0  0  0  0  0  0  0  0
    5.9953   -1.6214   -1.3599 H   0  0  0  0  0  0  0  0  0  0  0  0
    6.0400   -0.0153   -2.0817 H   0  0  0  0  0  0  0  0  0  0  0  0
    6.4581   -0.2731   -0.2941 H   0  0  0  0  0  0  0  0  0  0  0  0
    2.0597    1.7967    0.1953 H   0  0  0  0  0  0  0  0  0  0  0  0
   -2.3240    2.3014    2.6204 H   0  0  0  0  0  0  0  0  0  0  0  0
   -3.7381    2.7840   -0.1957 H   0  0  0  0  0  0  0  0  0  0  0  0
   -4.1288    3.5397    1.4305 H   0  0  0  0  0  0  0  0  0  0  0  0
   -1.3517    3.6129   -0.0379 H   0  0  0  0  0  0  0  0  0  0  0  0
   -1.7346    4.4580    1.6143 H   0  0  0  0  0  0  0  0  0  0  0  0
  1  2  1  0
  2  3  1  0
  3  4  1  0
  4  5  1  0
  5  6  1  0
  6  7  1  0
  7  8  1  0
  5  9  2  0
  9 10  1  0
 10 11  2  0
 11 12  1  0
 12 13  2  0
 13 14  1  0
 14 15  2  0
 15 16  1  0
 15 17  1  0
 17 18  2  0
 17 19  1  0
 19 20  1  0
 19 21  1  0
 19 22  1  0
  9 23  1  0
 23 24  1  0
 24 25  1  0
  8  2  1  0
 18 12  1  0
 25 23  1  0
 11  4  1  0
  1 26  1  0
  1 27  1  0
  1 28  1  0
  2 29  1  6
  3 30  1  0
  3 31  1  0
  6 32  1  0
  6 33  1  0
  7 34  1  0
  7 35  1  0
 13 36  1  0
 14 37  1  0
 16 38  1  0
 16 39  1  0
 16 40  1  0
 18 41  1  0
 23 42  1  0
 24 43  1  0
 24 44  1  0
 25 45  1  0
 25 46  1  0
M  END
$$$$
[H]c1c([H])c([H])c2c(c1[H])N=C(N1C([H])([H])C([H])([H])N(C([H])([H])[H])C([H])([H])C1([H])[H])c1c([H])c(Cl)c([H])c([H])c1N2[H]
     RDKit          3D

 42 45  0  0  0  0  0  0  0  0999 V2000
   -4.9969   -1.0140   -0.0768 C   0  0  0  0  0  0  0  0  0  0  0  0
   -4.0371    0.0682   -0.0417 N   0  0  0  0  0  0  0  0  0  0  0  0
   -3.2165   -0.0936    1.1114 C   0  0  0  0  0  0  0  0  0  0  0  0
   -1.9853    0.8061    0.9166 C   0  0  0  0  0  0  0  0  0  0  0  0
   -1.2259    0.1817   -0.1306 N   0  0  0  0  0  0  0  0  0  0  0  0
   -1.9280   -0.2994   -1.2891 C   0  0  0  0  0  0  0  0  0  0  0  0
   -3.3430    0.2609   -1.2659 C   0  0  0  0  0  0  0  0  0  0  0  0
    0.1691    0.0328   -0.0093 C   0  0  0  0  0  0  0  0  0  0  0  0
    0.6143   -1.1614    0.3005 N   0  0  0  0  0  0  0  0  0  0  0  0
    1.9312   -1.6456    0.4967 C   0  0  0  0  0  0  0  0  0  0  0  0
    1.9745   -3.0265    0.4882 C   0  0  0  0  0  0  0  0  0  0  0  0
    3.1790   -3.6573    0.6710 C   0  0  0  0  0  0  0  0  0  0  0  0
    4.3363   -2.9322    0.8614 C   0  0  0  0  0  0  0  0  0  0  0  0
    4.2690   -1.5501    0.8661 C   0  0  0  0  0  0  0  0  0  0  0  0
    3.0855   -0.8896    0.6869 C   0  0  0  0  0  0  0  0  0  0  0  0
    3.2227    0.5397    0.7203 N   0  0  0  0  0  0  0  0  0  0  0  0
    2.3296    1.4521    0.0901 C   0  0  0  0  0  0  0  0  0  0  0  0
    2.9684    2.6213   -0.1752 C   0  0  0  0  0  0  0  0  0  0  0  0
    2.2482    3.6247   -0.7972 C   0  0  0  0  0  0  0  0  0  0  0  0
    0.9201    3.4131   -1.1262 C   0  0  0  0  0  0  0  0  0  0  0  0
   -0.0270    4.6536   -1.9132 Cl  0  0  0  0  0  0  0  0  0  0  0  0
    0.2763    2.2125   -0.8499 C   0  0  0  0  0  0  0  0  0  0  0  0
    0.9892    1.2272   -0.2369 C   0  0  0  0  0  0  0  0  0  0  0  0
   -5.8608   -0.7787   -0.7231 H   0  0  0  0  0  0  0  0  0  0  0  0
   -4.5053   -1.9665   -0.3610 H   0  0  0  0  0  0  0  0  0  0  0  0
   -5.3541   -1.1527    0.9723 H   0  0  0  0  0  0  0  0  0  0  0  0
   -2.8332   -1.1454    1.1085 H   0  0  0  0  0  0  0  0  0  0  0  0
   -3.6765    0.1939    2.0547 H   0  0  0  0  0  0  0  0  0  0  0  0
   -1.4469    0.8268    1.8861 H   0  0  0  0  0  0  0  0  0  0  0  0
   -2.3150    1.8185    0.6480 H   0  0  0  0  0  0  0  0  0  0  0  0
   -1.9741   -1.4140   -1.3109 H   0  0  0  0  0  0  0  0  0  0  0  0
   -1.4655    0.0616   -2.2328 H   0  0  0  0  0  0  0  0  0  0  0  0
   -3.9203   -0.1565   -2.1063 H   0  0  0  0  0  0  0  0  0  0  0  0
   -3.2370    1.3642   -1.4821 H   0  0  0  0  0  0  0  0  0  0  0  0
    1.0875   -3.6179    0.3418 H   0  0  0  0  0  0  0  0  0  0  0  0
    3.2770   -4.7490    0.6743 H   0  0  0  0  0  0  0  0  0  0  0  0
    5.3080   -3.4116    1.0093 H   0  0  0  0  0  0  0  0  0  0  0  0
    5.1511   -0.9365    1.0120 H   0  0  0  0  0  0  0  0  0  0  0  0
    4.0302    0.8883    1.2393 H   0  0  0  0  0  0  0  0  0  0  0  0
    4.0065    2.7439    0.0999 H   0  0  0  0  0  0  0  0  0  0  0  0
    2.7403    4.5460   -1.0097 H   0  0  0  0  0  0  0  0  0  0  0  0
   -0.7656    2.0612   -1.1175 H   0  0  0  0  0  0  0  0  0  0  0  0
  1  2  1  0
  2  3  1  0
  3  4  1  0
  4  5  1  0
  5  6  1  0
  6  7  1  0
  5  8  1  0
  8  9  2  0
  9 10  1  0
 10 11  2  0
 11 12  1  0
 12 13  2  0
 13 14  1  0
 14 15  2  0
 15 16  1  0
 16 17  1  0
 17 18  2  0
 18 19  1  0
 19 20  2  0
 20 21  1  0
 20 22  1  0
 22 23  2  0
  7  2  1  0
 23  8  1  0
 15 10  1  0
 23 17  1  0
  1 24  1  0
  1 25  1  0
  1 26  1  0
  3 27  1  0
  3 28  1  0
  4 29  1  0
  4 30  1  0
  6 31  1  0
  6 32  1  0
  7 33  1  0
  7 34  1  0
 11 35  1  0
 12 36  1  0
 13 37  1  0
 14 38  1  0
 16 39  1  0
 18 40  1  0
 19 41  1  0
 22 42  1  0
M  END
$$$$
[H]O[C@](C(=O)N1C([H])([H])C([H])([H])N(C(=O)[C@](O[H])(C([H])([H])[H])C(F)(F)F)[C@]([H])(C([H])([H])[H])C1([H])[H])(c1c([H])c([H])c(-c2c([H])c([H])c([H])c([H])c2C(F)(F)F)c([H])c1[H])C([H])([H])[H]
     RDKit          3D

 63 65  0  0  0  0  0  0  0  0999 V2000
   -2.2959    1.4446    2.0660 C   0  0  0  0  0  0  0  0  0  0  0  0
   -3.1912    0.2513    2.1478 C   0  0  2  0  0  0  0  0  0  0  0  0
   -2.4167   -1.0222    2.2124 C   0  0  0  0  0  0  0  0  0  0  0  0
   -1.7588   -1.3066    0.9112 N   0  0  0  0  0  0  0  0  0  0  0  0
   -2.5445   -1.0263   -0.2464 C   0  0  0  0  0  0  0  0  0  0  0  0
   -4.0181   -0.9191    0.1888 C   0  0  0  0  0  0  0  0  0  0  0  0
   -4.1509    0.2307    1.0138 N   0  0  0  0  0  0  0  0  0  0  0  0
   -5.0628    1.2940    0.9122 C   0  0  0  0  0  0  0  0  0  0  0  0
   -4.9969    2.1787    1.8476 O   0  0  0  0  0  0  0  0  0  0  0  0
   -6.0795    1.5369   -0.1039 C   0  0  1  0  0  0  0  0  0  0  0  0
   -6.8981    0.3791   -0.5341 C   0  0  0  0  0  0  0  0  0  0  0  0
   -6.9995    2.5077    0.4148 O   0  0  0  0  0  0  0  0  0  0  0  0
   -5.4382    2.2928   -1.2642 C   0  0  0  0  0  0  0  0  0  0  0  0
   -4.4099    1.6252   -1.8626 F   0  0  0  0  0  0  0  0  0  0  0  0
   -6.4111    2.6774   -2.1969 F   0  0  0  0  0  0  0  0  0  0  0  0
   -4.9067    3.5043   -0.8034 F   0  0  0  0  0  0  0  0  0  0  0  0
   -0.4482   -1.8307    0.9295 C   0  0  0  0  0  0  0  0  0  0  0  0
    0.0064   -2.0376    2.1235 O   0  0  0  0  0  0  0  0  0  0  0  0
    0.4467   -2.1657   -0.1569 C   0  0  1  0  0  0  0  0  0  0  0  0
    0.7413   -3.6740   -0.2082 C   0  0  0  0  0  0  0  0  0  0  0  0
   -0.1688   -1.8892   -1.3848 O   0  0  0  0  0  0  0  0  0  0  0  0
    1.7290   -1.4139   -0.1417 C   0  0  0  0  0  0  0  0  0  0  0  0
    2.1956   -0.8125   -1.3050 C   0  0  0  0  0  0  0  0  0  0  0  0
    3.3795   -0.1178   -1.3522 C   0  0  0  0  0  0  0  0  0  0  0  0
    4.1924    0.0287   -0.2318 C   0  0  0  0  0  0  0  0  0  0  0  0
    3.7372   -0.5609    0.9154 C   0  0  0  0  0  0  0  0  0  0  0  0
    2.5222   -1.2743    0.9630 C   0  0  0  0  0  0  0  0  0  0  0  0
    5.4155    0.7960   -0.3144 C   0  0  0  0  0  0  0  0  0  0  0  0
    5.2849    2.1888   -0.3851 C   0  0  0  0  0  0  0  0  0  0  0  0
    6.3792    3.0182   -0.4422 C   0  0  0  0  0  0  0  0  0  0  0  0
    7.6516    2.4767   -0.4306 C   0  0  0  0  0  0  0  0  0  0  0  0
    7.7709    1.1123   -0.3616 C   0  0  0  0  0  0  0  0  0  0  0  0
    6.6649    0.2488   -0.3030 C   0  0  0  0  0  0  0  0  0  0  0  0
    6.8494   -1.2055   -0.2536 C   0  0  0  0  0  0  0  0  0  0  0  0
    6.2313   -1.8522   -1.3137 F   0  0  0  0  0  0  0  0  0  0  0  0
    6.6047   -1.8058    0.9440 F   0  0  0  0  0  0  0  0  0  0  0  0
    8.2301   -1.4375   -0.4887 F   0  0  0  0  0  0  0  0  0  0  0  0
   -2.2228    1.9843    3.0420 H   0  0  0  0  0  0  0  0  0  0  0  0
   -1.2330    1.1580    1.8184 H   0  0  0  0  0  0  0  0  0  0  0  0
   -2.5898    2.1734    1.2907 H   0  0  0  0  0  0  0  0  0  0  0  0
   -3.8254    0.3160    3.0494 H   0  0  0  0  0  0  0  0  0  0  0  0
   -2.9953   -1.8954    2.5381 H   0  0  0  0  0  0  0  0  0  0  0  0
   -1.5772   -0.8344    2.9402 H   0  0  0  0  0  0  0  0  0  0  0  0
   -2.2258   -0.0212   -0.6470 H   0  0  0  0  0  0  0  0  0  0  0  0
   -2.4701   -1.7701   -1.0691 H   0  0  0  0  0  0  0  0  0  0  0  0
   -4.6137   -0.9911   -0.7059 H   0  0  0  0  0  0  0  0  0  0  0  0
   -4.1458   -1.8190    0.8668 H   0  0  0  0  0  0  0  0  0  0  0  0
   -6.6127    0.0213   -1.5595 H   0  0  0  0  0  0  0  0  0  0  0  0
   -7.9920    0.6402   -0.6408 H   0  0  0  0  0  0  0  0  0  0  0  0
   -6.8841   -0.4913    0.1445 H   0  0  0  0  0  0  0  0  0  0  0  0
   -6.4639    3.3314    0.6370 H   0  0  0  0  0  0  0  0  0  0  0  0
   -0.1912   -4.2297   -0.0212 H   0  0  0  0  0  0  0  0  0  0  0  0
    1.1565   -3.9273   -1.2008 H   0  0  0  0  0  0  0  0  0  0  0  0
    1.5039   -3.9557    0.5472 H   0  0  0  0  0  0  0  0  0  0  0  0
   -0.2392   -0.9171   -1.5356 H   0  0  0  0  0  0  0  0  0  0  0  0
    1.5988   -0.9043   -2.2216 H   0  0  0  0  0  0  0  0  0  0  0  0
    3.7418    0.3536   -2.2684 H   0  0  0  0  0  0  0  0  0  0  0  0
    4.2944   -0.4824    1.8519 H   0  0  0  0  0  0  0  0  0  0  0  0
    2.2455   -1.7254    1.9147 H   0  0  0  0  0  0  0  0  0  0  0  0
    4.2901    2.6266   -0.3956 H   0  0  0  0  0  0  0  0  0  0  0  0
    6.3091    4.1032   -0.4972 H   0  0  0  0  0  0  0  0  0  0  0  0
    8.5267    3.1229   -0.4749 H   0  0  0  0  0  0  0  0  0  0  0  0
    8.7783    0.6929   -0.3528 H   0  0  0  0  0  0  0  0  0  0  0  0
  1  2  1  0
  2  3  1  0
  3  4  1  0
  4  5  1  0
  5  6  1  0
  6  7  1  0
  7  8  1  0
  8  9  2  0
  8 10  1  0
 10 11  1  0
 10 12  1  1
 10 13  1  0
 13 14  1  0
 13 15  1  0
 13 16  1  0
  4 17  1  0
 17 18  2  0
 17 19  1  0
 19 20  1  0
 19 21  1  6
 19 22  1  0
 22 23  2  0
 23 24  1  0
 24 25  2  0
 25 26  1  0
 26 27  2  0
 25 28  1  0
 28 29  2  0
 29 30  1  0
 30 31  2  0
 31 32  1  0
 32 33  2  0
 33 34  1  0
 34 35  1  0
 34 36  1  0
 34 37  1  0
  7  2  1  0
 27 22  1  0
 33 28  1  0
  1 38  1  0
  1 39  1  0
  1 40  1  0
  2 41  1  1
  3 42  1  0
  3 43  1  0
  5 44  1  0
  5 45  1  0
  6 46  1  0
  6 47  1  0
 11 48  1  0
 11 49  1  0
 11 50  1  0
 12 51  1  0
 20 52  1  0
 20 53  1  0
 20 54  1  0
 21 55  1  0
 23 56  1  0
 24 57  1  0
 26 58  1  0
 27 59  1  0
 29 60  1  0
 30 61  1  0
 31 62  1  0
 32 63  1  0
M  END
$$$$
[H]c1nc([H])c(-c2c(OC([H])([H])C(=O)N([H])c3c([H])c([H])c([H])c(C(F)(F)F)c3[H])c([H])c3sc(N([H])C(=O)N([H])C([H])([H])C([H])([H])[H])nc3c2[H])c([H])c1[H]
     RDKit          3D

 56 59  0  0  0  0  0  0  0  0999 V2000
    9.9732    3.6251   -0.9396 C   0  0  0  0  0  0  0  0  0  0  0  0
    8.4999    3.4168   -0.7165 C   0  0  0  0  0  0  0  0  0  0  0  0
    8.1592    2.0195   -0.5561 N   0  0  0  0  0  0  0  0  0  0  0  0
    6.8091    1.6146   -0.4138 C   0  0  0  0  0  0  0  0  0  0  0  0
    5.9411    2.5496   -0.4652 O   0  0  0  0  0  0  0  0  0  0  0  0
    6.3889    0.2900   -0.2282 N   0  0  0  0  0  0  0  0  0  0  0  0
    4.9578    0.1062   -0.1600 C   0  0  0  0  0  0  0  0  0  0  0  0
    4.1997   -0.8919    0.2365 N   0  0  0  0  0  0  0  0  0  0  0  0
    2.8980   -0.7968    0.1378 C   0  0  0  0  0  0  0  0  0  0  0  0
    1.9549   -1.7623    0.5543 C   0  0  0  0  0  0  0  0  0  0  0  0
    0.5944   -1.5907    0.4505 C   0  0  0  0  0  0  0  0  0  0  0  0
   -0.3045   -2.6539    0.9347 C   0  0  0  0  0  0  0  0  0  0  0  0
   -0.0762   -3.2178    2.1797 C   0  0  0  0  0  0  0  0  0  0  0  0
   -0.9238   -4.2218    2.6664 C   0  0  0  0  0  0  0  0  0  0  0  0
   -1.9573   -4.6138    1.8724 C   0  0  0  0  0  0  0  0  0  0  0  0
   -2.1980   -4.0876    0.6675 N   0  0  0  0  0  0  0  0  0  0  0  0
   -1.3714   -3.1087    0.2037 C   0  0  0  0  0  0  0  0  0  0  0  0
    0.1060   -0.4326   -0.0819 C   0  0  0  0  0  0  0  0  0  0  0  0
   -1.2507   -0.1907   -0.2050 O   0  0  0  0  0  0  0  0  0  0  0  0
   -1.7151    1.0188   -0.7939 C   0  0  0  0  0  0  0  0  0  0  0  0
   -3.2241    0.9980   -0.7333 C   0  0  0  0  0  0  0  0  0  0  0  0
   -3.8402    1.9890   -1.2362 O   0  0  0  0  0  0  0  0  0  0  0  0
   -3.9183   -0.0649   -0.1447 N   0  0  0  0  0  0  0  0  0  0  0  0
   -5.3264   -0.1575   -0.0249 C   0  0  0  0  0  0  0  0  0  0  0  0
   -5.8573   -1.4508    0.1242 C   0  0  0  0  0  0  0  0  0  0  0  0
   -7.1987   -1.6293    0.3121 C   0  0  0  0  0  0  0  0  0  0  0  0
   -8.0527   -0.5556    0.3582 C   0  0  0  0  0  0  0  0  0  0  0  0
   -7.5357    0.6885    0.2108 C   0  0  0  0  0  0  0  0  0  0  0  0
   -6.1860    0.8888    0.0213 C   0  0  0  0  0  0  0  0  0  0  0  0
   -8.4688    1.8717    0.2693 C   0  0  0  0  0  0  0  0  0  0  0  0
   -8.8975    2.2289   -0.9661 F   0  0  0  0  0  0  0  0  0  0  0  0
   -9.4801    1.6271    1.1637 F   0  0  0  0  0  0  0  0  0  0  0  0
   -7.7417    2.9561    0.7829 F   0  0  0  0  0  0  0  0  0  0  0  0
    0.9835    0.5502   -0.5087 C   0  0  0  0  0  0  0  0  0  0  0  0
    2.3621    0.3368   -0.3811 C   0  0  0  0  0  0  0  0  0  0  0  0
    3.7651    1.2459   -0.7112 S   0  0  0  0  0  0  0  0  0  0  0  0
   10.3689    2.7190   -1.4579 H   0  0  0  0  0  0  0  0  0  0  0  0
   10.1072    4.5114   -1.6328 H   0  0  0  0  0  0  0  0  0  0  0  0
   10.5142    3.8526   -0.0241 H   0  0  0  0  0  0  0  0  0  0  0  0
    7.9186    3.9326   -1.5134 H   0  0  0  0  0  0  0  0  0  0  0  0
    8.2921    3.9338    0.2917 H   0  0  0  0  0  0  0  0  0  0  0  0
    8.9046    1.3163   -0.5435 H   0  0  0  0  0  0  0  0  0  0  0  0
    7.0391   -0.4767   -0.1409 H   0  0  0  0  0  0  0  0  0  0  0  0
    2.3053   -2.6996    0.9997 H   0  0  0  0  0  0  0  0  0  0  0  0
    0.7489   -2.8907    2.7846 H   0  0  0  0  0  0  0  0  0  0  0  0
   -0.7935   -4.6796    3.6253 H   0  0  0  0  0  0  0  0  0  0  0  0
   -2.6354   -5.3945    2.2399 H   0  0  0  0  0  0  0  0  0  0  0  0
   -1.6018   -2.7107   -0.7704 H   0  0  0  0  0  0  0  0  0  0  0  0
   -1.3992    1.9137   -0.2022 H   0  0  0  0  0  0  0  0  0  0  0  0
   -1.4055    1.1472   -1.8526 H   0  0  0  0  0  0  0  0  0  0  0  0
   -3.3135   -0.8395    0.2644 H   0  0  0  0  0  0  0  0  0  0  0  0
   -5.2179   -2.3212    0.0954 H   0  0  0  0  0  0  0  0  0  0  0  0
   -7.6230   -2.6384    0.4446 H   0  0  0  0  0  0  0  0  0  0  0  0
   -9.1305   -0.6789    0.4907 H   0  0  0  0  0  0  0  0  0  0  0  0
   -5.8566    1.9230   -0.0680 H   0  0  0  0  0  0  0  0  0  0  0  0
    0.7098    1.4853   -0.9491 H   0  0  0  0  0  0  0  0  0  0  0  0
  1  2  1  0
  2  3  1  0
  3  4  1  0
  4  5  2  0
  4  6  1  0
  6  7  1  0
  7  8  2  0
  8  9  1  0
  9 10  2  0
 10 11  1  0
 11 12  1  0
 12 13  2  0
 13 14  1  0
 14 15  2  0
 15 16  1  0
 16 17  2  0
 11 18  2  0
 18 19  1  0
 19 20  1  0
 20 21  1  0
 21 22  2  0
 21 23  1  0
 23 24  1  0
 24 25  2  0
 25 26  1  0
 26 27  2  0
 27 28  1  0
 28 29  2  0
 28 30  1  0
 30 31  1  0
 30 32  1  0
 30 33  1  0
 18 34  1  0
 34 35  2  0
 35 36  1  0
 36  7  1  0
 35  9  1  0
 17 12  1  0
 29 24  1  0
  1 37  1  0
  1 38  1  0
  1 39  1  0
  2 40  1  0
  2 41  1  0
  3 42  1  0
  6 43  1  0
 10 44  1  0
 13 45  1  0
 14 46  1  0
 15 47  1  0
 17 48  1  0
 20 49  1  0
 20 50  1  0
 23 51  1  0
 25 52  1  0
 26 53  1  0
 27 54  1  0
 29 55  1  0
 34 56  1  0
M  END
$$$$
[H]N=C(N([H])[H])N([H])[C@]([H])(C(=O)N1C([H])([H])C([H])([H])C([H])([H])[C@@]1([H])C(=O)N1C([H])([H])C([H])([H])C([H])([H])C1([H])C(=O)c1nc2c([H])c([H])c([H])c([H])c2s1)c1c([H])c(C([H])([H])[H])c(C([H])([H])[H])c(C([H])([H])[H])c1[H]
     RDKit          3D

 73 77  0  0  0  0  0  0  0  0999 V2000
   -7.5955   -0.8458    0.4096 C   0  0  0  0  0  0  0  0  0  0  0  0
   -6.1223   -0.6389    0.4251 C   0  0  0  0  0  0  0  0  0  0  0  0
   -5.4565   -0.0932   -0.6589 C   0  0  0  0  0  0  0  0  0  0  0  0
   -4.0949    0.1120   -0.6798 C   0  0  0  0  0  0  0  0  0  0  0  0
   -3.3719   -0.2437    0.4297 C   0  0  0  0  0  0  0  0  0  0  0  0
   -4.0179   -0.7929    1.5308 C   0  0  0  0  0  0  0  0  0  0  0  0
   -3.2641   -1.1875    2.7613 C   0  0  0  0  0  0  0  0  0  0  0  0
   -5.3822   -1.0043    1.5650 C   0  0  0  0  0  0  0  0  0  0  0  0
   -6.0757   -1.5906    2.7451 C   0  0  0  0  0  0  0  0  0  0  0  0
   -3.4240    0.6745   -1.8988 C   0  0  2  0  0  0  0  0  0  0  0  0
   -3.8096   -0.1535   -3.0467 N   0  0  0  0  0  0  0  0  0  0  0  0
   -3.3779   -1.5143   -3.0890 C   0  0  0  0  0  0  0  0  0  0  0  0
   -2.7802   -1.9966   -4.2678 N   0  0  0  0  0  0  0  0  0  0  0  0
   -3.5227   -2.2947   -2.0840 N   0  0  0  0  0  0  0  0  0  0  0  0
   -1.9633    0.7409   -1.7552 C   0  0  0  0  0  0  0  0  0  0  0  0
   -1.3107   -0.1431   -2.3321 O   0  0  0  0  0  0  0  0  0  0  0  0
   -1.3460    1.7508   -1.0076 N   0  0  0  0  0  0  0  0  0  0  0  0
   -2.1563    2.8711   -0.4518 C   0  0  0  0  0  0  0  0  0  0  0  0
   -1.5470    3.1353    0.8969 C   0  0  0  0  0  0  0  0  0  0  0  0
   -0.2092    2.4664    0.8917 C   0  0  0  0  0  0  0  0  0  0  0  0
   -0.0262    2.0659   -0.5840 C   0  0  1  0  0  0  0  0  0  0  0  0
    1.0116    1.0436   -0.6748 C   0  0  0  0  0  0  0  0  0  0  0  0
    0.8510   -0.1939   -0.8386 O   0  0  0  0  0  0  0  0  0  0  0  0
    2.3879    1.4404   -0.5700 N   0  0  0  0  0  0  0  0  0  0  0  0
    2.8611    2.7838   -0.3877 C   0  0  0  0  0  0  0  0  0  0  0  0
    4.1845    2.8275   -1.1735 C   0  0  0  0  0  0  0  0  0  0  0  0
    4.5318    1.4054   -1.4482 C   0  0  0  0  0  0  0  0  0  0  0  0
    3.5606    0.6099   -0.6152 C   0  0  0  0  0  0  0  0  0  0  0  0
    4.1285    0.3667    0.7280 C   0  0  0  0  0  0  0  0  0  0  0  0
    3.6783    0.9018    1.7516 O   0  0  0  0  0  0  0  0  0  0  0  0
    5.2796   -0.5665    0.7685 C   0  0  0  0  0  0  0  0  0  0  0  0
    5.9806   -0.9602    1.8082 N   0  0  0  0  0  0  0  0  0  0  0  0
    6.9692   -1.8010    1.6510 C   0  0  0  0  0  0  0  0  0  0  0  0
    7.8004   -2.3021    2.6769 C   0  0  0  0  0  0  0  0  0  0  0  0
    8.7852   -3.1651    2.3632 C   0  0  0  0  0  0  0  0  0  0  0  0
    9.0876   -3.6373    1.0903 C   0  0  0  0  0  0  0  0  0  0  0  0
    8.2616   -3.1360    0.0901 C   0  0  0  0  0  0  0  0  0  0  0  0
    7.2269   -2.2367    0.3770 C   0  0  0  0  0  0  0  0  0  0  0  0
    6.0291   -1.4087   -0.5158 S   0  0  0  0  0  0  0  0  0  0  0  0
   -7.9878   -0.3351    1.3254 H   0  0  0  0  0  0  0  0  0  0  0  0
   -7.8478   -1.9251    0.3674 H   0  0  0  0  0  0  0  0  0  0  0  0
   -7.9899   -0.2828   -0.4637 H   0  0  0  0  0  0  0  0  0  0  0  0
   -6.0450    0.1774   -1.5291 H   0  0  0  0  0  0  0  0  0  0  0  0
   -2.2927   -0.1160    0.4946 H   0  0  0  0  0  0  0  0  0  0  0  0
   -2.2330   -0.7666    2.7538 H   0  0  0  0  0  0  0  0  0  0  0  0
   -3.2911   -2.2758    2.9541 H   0  0  0  0  0  0  0  0  0  0  0  0
   -3.7411   -0.7187    3.6691 H   0  0  0  0  0  0  0  0  0  0  0  0
   -5.3739   -2.1638    3.3551 H   0  0  0  0  0  0  0  0  0  0  0  0
   -6.5305   -0.8224    3.3949 H   0  0  0  0  0  0  0  0  0  0  0  0
   -6.8578   -2.2838    2.3254 H   0  0  0  0  0  0  0  0  0  0  0  0
   -3.8204    1.6826   -2.0585 H   0  0  0  0  0  0  0  0  0  0  0  0
   -4.3845    0.2399   -3.8141 H   0  0  0  0  0  0  0  0  0  0  0  0
   -2.7154   -3.0130   -4.4340 H   0  0  0  0  0  0  0  0  0  0  0  0
   -2.4058   -1.3369   -4.9691 H   0  0  0  0  0  0  0  0  0  0  0  0
   -3.2062   -3.2827   -2.1236 H   0  0  0  0  0  0  0  0  0  0  0  0
   -1.9194    3.7297   -1.1417 H   0  0  0  0  0  0  0  0  0  0  0  0
   -3.2129    2.6729   -0.4120 H   0  0  0  0  0  0  0  0  0  0  0  0
   -1.4027    4.2459    1.0373 H   0  0  0  0  0  0  0  0  0  0  0  0
   -2.2147    2.7309    1.7031 H   0  0  0  0  0  0  0  0  0  0  0  0
    0.5972    3.1455    1.2159 H   0  0  0  0  0  0  0  0  0  0  0  0
   -0.2823    1.5614    1.5343 H   0  0  0  0  0  0  0  0  0  0  0  0
    0.2621    3.0374   -1.0892 H   0  0  0  0  0  0  0  0  0  0  0  0
    3.1413    3.0355    0.6571 H   0  0  0  0  0  0  0  0  0  0  0  0
    2.1624    3.5006   -0.8118 H   0  0  0  0  0  0  0  0  0  0  0  0
    4.0214    3.3245   -2.1583 H   0  0  0  0  0  0  0  0  0  0  0  0
    4.9542    3.4134   -0.6565 H   0  0  0  0  0  0  0  0  0  0  0  0
    4.5057    1.1246   -2.5209 H   0  0  0  0  0  0  0  0  0  0  0  0
    5.5882    1.2363   -1.1122 H   0  0  0  0  0  0  0  0  0  0  0  0
    3.3760   -0.3444   -1.1643 H   0  0  0  0  0  0  0  0  0  0  0  0
    7.6715   -2.0155    3.7094 H   0  0  0  0  0  0  0  0  0  0  0  0
    9.4456   -3.5688    3.1480 H   0  0  0  0  0  0  0  0  0  0  0  0
    9.8692   -4.3168    0.8699 H   0  0  0  0  0  0  0  0  0  0  0  0
    8.3989   -3.4311   -0.9360 H   0  0  0  0  0  0  0  0  0  0  0  0
  1  2  1  0
  2  3  2  0
  3  4  1  0
  4  5  2  0
  5  6  1  0
  6  7  1  0
  6  8  2  0
  8  9  1  0
  4 10  1  0
 10 11  1  0
 11 12  1  0
 12 13  1  0
 12 14  2  3
 10 15  1  0
 15 16  2  0
 15 17  1  0
 17 18  1  0
 18 19  1  0
 19 20  1  0
 20 21  1  0
 21 22  1  0
 22 23  2  0
 22 24  1  0
 24 25  1  0
 25 26  1  0
 26 27  1  0
 27 28  1  0
 28 29  1  0
 29 30  2  0
 29 31  1  0
 31 32  2  0
 32 33  1  0
 33 34  2  0
 34 35  1  0
 35 36  2  0
 36 37  1  0
 37 38  2  0
 38 39  1  0
  8  2  1  0
 21 17  1  0
 28 24  1  0
 39 31  1  0
 38 33  1  0
  1 40  1  0
  1 41  1  0
  1 42  1  0
  3 43  1  0
  5 44  1  0
  7 45  1  0
  7 46  1  0
  7 47  1  0
  9 48  1  0
  9 49  1  0
  9 50  1  0
 10 51  1  6
 11 52  1  0
 13 53  1  0
 13 54  1  0
 14 55  1  0
 18 56  1  0
 18 57  1  0
 19 58  1  0
 19 59  1  0
 20 60  1  0
 20 61  1  0
 21 62  1  6
 25 63  1  0
 25 64  1  0
 26 65  1  0
 26 66  1  0
 27 67  1  0
 27 68  1  0
 28 69  1  0
 34 70  1  0
 35 71  1  0
 36 72  1  0
 37 73  1  0
M  END
$$$$
[H]c1nc2c([H])c(-c3c([H])c([H])c(S(=O)(=O)N([H])C([H])([H])c4c([H])c([H])c(C(=O)N5C([H])([H])C([H])([H])C([H])(N6C([H])([H])C([H])([H])S(=O)(=O)C([H])([H])C6([H])[H])C([H])([H])C5([H])[H])c([H])c4OC([H])([H])[H])c([H])c3[H])c([H])c([H])c2c([H])c1[H]
     RDKit          3D

 81 86  0  0  0  0  0  0  0  0999 V2000
   -1.5465   -0.5360   -2.8733 C   0  0  0  0  0  0  0  0  0  0  0  0
   -0.5087   -0.4086   -1.9308 O   0  0  0  0  0  0  0  0  0  0  0  0
   -0.6826    0.0093   -0.6401 C   0  0  0  0  0  0  0  0  0  0  0  0
   -1.8907    0.3059   -0.0966 C   0  0  0  0  0  0  0  0  0  0  0  0
   -2.1228    0.7191    1.1942 C   0  0  0  0  0  0  0  0  0  0  0  0
   -0.9285    0.8204    1.9520 C   0  0  0  0  0  0  0  0  0  0  0  0
    0.3066    0.5466    1.4617 C   0  0  0  0  0  0  0  0  0  0  0  0
    0.4370    0.1468    0.1894 C   0  0  0  0  0  0  0  0  0  0  0  0
    1.7325   -0.2396   -0.5409 C   0  0  0  0  0  0  0  0  0  0  0  0
    2.1990    1.0814   -0.9531 N   0  0  0  0  0  0  0  0  0  0  0  0
    3.5450    1.2497   -1.8580 S   0  0  0  0  0  0  0  0  0  0  0  0
    3.4554    0.3482   -3.1505 O   0  0  0  0  0  0  0  0  0  0  0  0
    3.6268    2.6690   -2.4478 O   0  0  0  0  0  0  0  0  0  0  0  0
    5.0568    0.7943   -1.1577 C   0  0  0  0  0  0  0  0  0  0  0  0
    5.9965    1.8495   -0.9591 C   0  0  0  0  0  0  0  0  0  0  0  0
    7.2340    1.5361   -0.4751 C   0  0  0  0  0  0  0  0  0  0  0  0
    7.6068    0.2480   -0.1643 C   0  0  0  0  0  0  0  0  0  0  0  0
    6.6829   -0.7425   -0.3583 C   0  0  0  0  0  0  0  0  0  0  0  0
    5.4115   -0.4711   -0.8552 C   0  0  0  0  0  0  0  0  0  0  0  0
    9.0293    0.0170    0.1823 C   0  0  0  0  0  0  0  0  0  0  0  0
    9.4608   -0.8278    1.1213 C   0  0  0  0  0  0  0  0  0  0  0  0
   10.8281   -1.1263    1.2838 C   0  0  0  0  0  0  0  0  0  0  0  0
   11.7623   -0.5488    0.4664 C   0  0  0  0  0  0  0  0  0  0  0  0
   13.1194   -0.8500    0.5832 C   0  0  0  0  0  0  0  0  0  0  0  0
   14.0583   -0.2974   -0.2706 C   0  0  0  0  0  0  0  0  0  0  0  0
   13.5971    0.5619   -1.2397 C   0  0  0  0  0  0  0  0  0  0  0  0
   12.2800    0.8543   -1.3443 N   0  0  0  0  0  0  0  0  0  0  0  0
   11.3422    0.3172   -0.5061 C   0  0  0  0  0  0  0  0  0  0  0  0
    9.9878    0.6156   -0.6684 C   0  0  0  0  0  0  0  0  0  0  0  0
   -3.3703    0.9919    1.8027 C   0  0  0  0  0  0  0  0  0  0  0  0
   -3.3289    1.6013    2.9455 O   0  0  0  0  0  0  0  0  0  0  0  0
   -4.6699    0.6836    1.3225 N   0  0  0  0  0  0  0  0  0  0  0  0
   -4.9193   -0.0810    0.1408 C   0  0  0  0  0  0  0  0  0  0  0  0
   -6.2207   -0.8387    0.0998 C   0  0  0  0  0  0  0  0  0  0  0  0
   -7.2809    0.1458    0.4979 C   0  0  0  0  0  0  0  0  0  0  0  0
   -7.0113    0.4771    1.9754 C   0  0  0  0  0  0  0  0  0  0  0  0
   -5.7833    1.2854    2.0829 C   0  0  0  0  0  0  0  0  0  0  0  0
   -8.5948   -0.2860    0.3187 N   0  0  0  0  0  0  0  0  0  0  0  0
   -9.0430   -1.4192    1.0629 C   0  0  0  0  0  0  0  0  0  0  0  0
  -10.4936   -1.0867    1.4637 C   0  0  0  0  0  0  0  0  0  0  0  0
  -11.0984    0.2149    0.4190 S   0  0  0  0  0  0  0  0  0  0  0  0
  -10.5875    1.5193    1.0296 O   0  0  0  0  0  0  0  0  0  0  0  0
  -12.5679    0.1973    0.2864 O   0  0  0  0  0  0  0  0  0  0  0  0
  -10.3463    0.1709   -1.2084 C   0  0  0  0  0  0  0  0  0  0  0  0
   -8.9844   -0.4973   -1.0744 C   0  0  0  0  0  0  0  0  0  0  0  0
   -2.2794   -1.2970   -2.6075 H   0  0  0  0  0  0  0  0  0  0  0  0
   -2.0706    0.4563   -2.9905 H   0  0  0  0  0  0  0  0  0  0  0  0
   -1.0719   -0.7119   -3.8978 H   0  0  0  0  0  0  0  0  0  0  0  0
   -2.7252    0.2697   -0.8281 H   0  0  0  0  0  0  0  0  0  0  0  0
   -1.0099    1.1260    2.9947 H   0  0  0  0  0  0  0  0  0  0  0  0
    1.2111    0.6287    2.0761 H   0  0  0  0  0  0  0  0  0  0  0  0
    1.5296   -0.9323   -1.3417 H   0  0  0  0  0  0  0  0  0  0  0  0
    2.3743   -0.7147    0.2149 H   0  0  0  0  0  0  0  0  0  0  0  0
    2.1806    1.6930   -0.1310 H   0  0  0  0  0  0  0  0  0  0  0  0
    5.6617    2.8291   -1.1908 H   0  0  0  0  0  0  0  0  0  0  0  0
    7.9596    2.3572   -0.3108 H   0  0  0  0  0  0  0  0  0  0  0  0
    6.9491   -1.7621   -0.1324 H   0  0  0  0  0  0  0  0  0  0  0  0
    4.6948   -1.2976   -1.0077 H   0  0  0  0  0  0  0  0  0  0  0  0
    8.7181   -1.2964    1.7933 H   0  0  0  0  0  0  0  0  0  0  0  0
   11.1458   -1.8038    2.0384 H   0  0  0  0  0  0  0  0  0  0  0  0
   13.4226   -1.5317    1.3595 H   0  0  0  0  0  0  0  0  0  0  0  0
   15.1068   -0.5197   -0.2114 H   0  0  0  0  0  0  0  0  0  0  0  0
   14.3214    1.0129   -1.9303 H   0  0  0  0  0  0  0  0  0  0  0  0
    9.6431    1.2770   -1.4180 H   0  0  0  0  0  0  0  0  0  0  0  0
   -4.8984    0.5457   -0.7765 H   0  0  0  0  0  0  0  0  0  0  0  0
   -4.1491   -0.9122    0.1242 H   0  0  0  0  0  0  0  0  0  0  0  0
   -6.1508   -1.6817    0.7769 H   0  0  0  0  0  0  0  0  0  0  0  0
   -6.4013   -1.1134   -0.9536 H   0  0  0  0  0  0  0  0  0  0  0  0
   -7.0692    1.0747   -0.1164 H   0  0  0  0  0  0  0  0  0  0  0  0
   -7.9341    0.9353    2.3852 H   0  0  0  0  0  0  0  0  0  0  0  0
   -6.8450   -0.4772    2.4877 H   0  0  0  0  0  0  0  0  0  0  0  0
   -5.9658    2.2986    1.6042 H   0  0  0  0  0  0  0  0  0  0  0  0
   -5.4731    1.4495    3.1177 H   0  0  0  0  0  0  0  0  0  0  0  0
   -8.4653   -1.6588    1.9731 H   0  0  0  0  0  0  0  0  0  0  0  0
   -9.0387   -2.3284    0.4345 H   0  0  0  0  0  0  0  0  0  0  0  0
  -11.1079   -2.0107    1.4018 H   0  0  0  0  0  0  0  0  0  0  0  0
  -10.4737   -0.6767    2.5073 H   0  0  0  0  0  0  0  0  0  0  0  0
  -10.9885   -0.3228   -1.9433 H   0  0  0  0  0  0  0  0  0  0  0  0
  -10.1307    1.2195   -1.5957 H   0  0  0  0  0  0  0  0  0  0  0  0
   -9.1825   -1.5965   -1.2125 H   0  0  0  0  0  0  0  0  0  0  0  0
   -8.2632   -0.1110   -1.8028 H   0  0  0  0  0  0  0  0  0  0  0  0
  1  2  1  0
  2  3  1  0
  3  4  2  0
  4  5  1  0
  5  6  2  0
  6  7  1  0
  7  8  2  0
  8  9  1  0
  9 10  1  0
 10 11  1  0
 11 12  2  0
 11 13  2  0
 11 14  1  0
 14 15  2  0
 15 16  1  0
 16 17  2  0
 17 18  1  0
 18 19  2  0
 17 20  1  0
 20 21  2  0
 21 22  1  0
 22 23  2  0
 23 24  1  0
 24 25  2  0
 25 26  1  0
 26 27  2  0
 27 28  1  0
 28 29  2  0
  5 30  1  0
 30 31  2  0
 30 32  1  0
 32 33  1  0
 33 34  1  0
 34 35  1  0
 35 36  1  0
 36 37  1  0
 35 38  1  0
 38 39  1  0
 39 40  1  0
 40 41  1  0
 41 42  2  0
 41 43  2  0
 41 44  1  0
 44 45  1  0
  8  3  1  0
 19 14  1  0
 29 20  1  0
 37 32  1  0
 45 38  1  0
 28 23  1  0
  1 46  1  0
  1 47  1  0
  1 48  1  0
  4 49  1  0
  6 50  1  0
  7 51  1  0
  9 52  1  0
  9 53  1  0
 10 54  1  0
 15 55  1  0
 16 56  1  0
 18 57  1  0
 19 58  1  0
 21 59  1  0
 22 60  1  0
 24 61  1  0
 25 62  1  0
 26 63  1  0
 29 64  1  0
 33 65  1  0
 33 66  1  0
 34 67  1  0
 34 68  1  0
 35 69  1  0
 36 70  1  0
 36 71  1  0
 37 72  1  0
 37 73  1  0
 39 74  1  0
 39 75  1  0
 40 76  1  0
 40 77  1  0
 44 78  1  0
 44 79  1  0
 45 80  1  0
 45 81  1  0
M  END
$$$$
[H]c1nn(C([H])([H])[H])c([H])c1S(=O)(=O)N1C([H])([H])C(=O)c2c([H])c([H])c(Oc3c([H])c([H])c(C([H])([H])[H])c([H])c3[H])c([H])c2C1([H])[H]
     RDKit          3D

 47 50  0  0  0  0  0  0  0  0999 V2000
   -5.8902   -0.5210   -0.1504 C   0  0  0  0  0  0  0  0  0  0  0  0
   -4.7334    0.2506   -0.2635 C   0  0  0  0  0  0  0  0  0  0  0  0
   -3.6683   -0.0500    0.5367 C   0  0  0  0  0  0  0  0  0  0  0  0
   -2.5091    0.6916    0.4517 O   0  0  0  0  0  0  0  0  0  0  0  0
   -1.4980    0.3330   -0.4264 C   0  0  0  0  0  0  0  0  0  0  0  0
   -1.5990   -0.7661   -1.2517 C   0  0  0  0  0  0  0  0  0  0  0  0
   -0.5989   -1.1108   -2.1119 C   0  0  0  0  0  0  0  0  0  0  0  0
    0.5481   -0.3414   -2.1614 C   0  0  0  0  0  0  0  0  0  0  0  0
    0.6327    0.7615   -1.3236 C   0  0  0  0  0  0  0  0  0  0  0  0
   -0.3655    1.1131   -0.4588 C   0  0  0  0  0  0  0  0  0  0  0  0
    1.8841    1.6018   -1.3757 C   0  0  0  0  0  0  0  0  0  0  0  0
    2.9555    0.7096   -1.6619 N   0  0  0  0  0  0  0  0  0  0  0  0
    4.4860    1.2524   -1.1486 S   0  0  0  0  0  0  0  0  0  0  0  0
    4.4293    1.4284    0.6011 C   0  0  0  0  0  0  0  0  0  0  0  0
    4.7423    0.4236    1.4692 C   0  0  0  0  0  0  0  0  0  0  0  0
    4.5967    0.8851    2.7022 N   0  0  0  0  0  0  0  0  0  0  0  0
    4.8067    0.2064    3.9788 C   0  0  0  0  0  0  0  0  0  0  0  0
    4.2077    2.1303    2.6326 N   0  0  0  0  0  0  0  0  0  0  0  0
    4.0898    2.5120    1.3546 C   0  0  0  0  0  0  0  0  0  0  0  0
    5.6032    0.3733   -1.5384 O   0  0  0  0  0  0  0  0  0  0  0  0
    4.6836    2.6557   -1.7013 O   0  0  0  0  0  0  0  0  0  0  0  0
    2.9176    0.0888   -2.9419 C   0  0  0  0  0  0  0  0  0  0  0  0
    1.6476   -0.6697   -3.0658 C   0  0  0  0  0  0  0  0  0  0  0  0
    1.5431   -1.5621   -3.9285 O   0  0  0  0  0  0  0  0  0  0  0  0
   -3.7216   -1.0884    1.4389 C   0  0  0  0  0  0  0  0  0  0  0  0
   -4.8683   -1.8739    1.5696 C   0  0  0  0  0  0  0  0  0  0  0  0
   -5.9356   -1.5622    0.7584 C   0  0  0  0  0  0  0  0  0  0  0  0
   -7.1755   -2.3746    0.8666 C   0  0  0  0  0  0  0  0  0  0  0  0
   -6.7553   -0.3184   -0.7630 H   0  0  0  0  0  0  0  0  0  0  0  0
   -4.6546    1.0664   -0.9541 H   0  0  0  0  0  0  0  0  0  0  0  0
   -2.4955   -1.3604   -1.2074 H   0  0  0  0  0  0  0  0  0  0  0  0
   -0.6567   -1.9759   -2.7742 H   0  0  0  0  0  0  0  0  0  0  0  0
   -0.2717    1.9848    0.1877 H   0  0  0  0  0  0  0  0  0  0  0  0
    1.6837    2.3341   -2.2124 H   0  0  0  0  0  0  0  0  0  0  0  0
    2.0781    2.1058   -0.4279 H   0  0  0  0  0  0  0  0  0  0  0  0
    5.0615   -0.5970    1.2313 H   0  0  0  0  0  0  0  0  0  0  0  0
    4.9761   -0.8765    3.7723 H   0  0  0  0  0  0  0  0  0  0  0  0
    5.6389    0.6300    4.5534 H   0  0  0  0  0  0  0  0  0  0  0  0
    3.8798    0.2724    4.5992 H   0  0  0  0  0  0  0  0  0  0  0  0
    3.7885    3.4769    0.9471 H   0  0  0  0  0  0  0  0  0  0  0  0
    2.9480    0.7924   -3.8011 H   0  0  0  0  0  0  0  0  0  0  0  0
    3.8036   -0.5696   -3.0528 H   0  0  0  0  0  0  0  0  0  0  0  0
   -2.8969   -1.3566    2.0902 H   0  0  0  0  0  0  0  0  0  0  0  0
   -4.9509   -2.6863    2.2552 H   0  0  0  0  0  0  0  0  0  0  0  0
   -7.1807   -2.9428    1.8173 H   0  0  0  0  0  0  0  0  0  0  0  0
   -7.1407   -3.1427    0.0560 H   0  0  0  0  0  0  0  0  0  0  0  0
   -8.0661   -1.7420    0.8326 H   0  0  0  0  0  0  0  0  0  0  0  0
  1  2  2  0
  2  3  1  0
  3  4  1  0
  4  5  1  0
  5  6  2  0
  6  7  1  0
  7  8  2  0
  8  9  1  0
  9 10  2  0
  9 11  1  0
 11 12  1  0
 12 13  1  0
 13 14  1  0
 14 15  2  0
 15 16  1  0
 16 17  1  0
 16 18  1  0
 18 19  2  0
 13 20  2  0
 13 21  2  0
 12 22  1  0
 22 23  1  0
 23 24  2  0
  3 25  2  0
 25 26  1  0
 26 27  2  0
 27 28  1  0
 27  1  1  0
 10  5  1  0
 19 14  1  0
 23  8  1  0
  1 29  1  0
  2 30  1  0
  6 31  1  0
  7 32  1  0
 10 33  1  0
 11 34  1  0
 11 35  1  0
 15 36  1  0
 17 37  1  0
 17 38  1  0
 17 39  1  0
 19 40  1  0
 22 41  1  0
 22 42  1  0
 25 43  1  0
 26 44  1  0
 28 45  1  0
 28 46  1  0
 28 47  1  0
M  END
$$$$
[H]c1nc(N([H])c2c([H])c([H])c(N3C([H])([H])C([H])([H])C([H])(N4C([H])([H])C([H])([H])N(C([H])([H])[H])C([H])([H])C4([H])[H])C([H])([H])C3([H])[H])c([H])c2OC([H])([H])[H])nc(N([H])c2c([H])c([H])c([H])c([H])c2S(=O)(=O)C([H])(C([H])([H])[H])C([H])([H])[H])c1Cl
     RDKit          3D

 82 86  0  0  0  0  0  0  0  0999 V2000
   -0.1870    3.7228   -1.2569 C   0  0  0  0  0  0  0  0  0  0  0  0
    0.4390    2.5297   -0.8437 O   0  0  0  0  0  0  0  0  0  0  0  0
   -0.3483    1.4775   -0.4024 C   0  0  0  0  0  0  0  0  0  0  0  0
   -1.7220    1.6350   -0.3827 C   0  0  0  0  0  0  0  0  0  0  0  0
   -2.5624    0.6308    0.0436 C   0  0  0  0  0  0  0  0  0  0  0  0
   -1.9599   -0.5357    0.4478 C   0  0  0  0  0  0  0  0  0  0  0  0
   -0.5748   -0.7280    0.4408 C   0  0  0  0  0  0  0  0  0  0  0  0
    0.2576    0.2764    0.0150 C   0  0  0  0  0  0  0  0  0  0  0  0
    1.6540    0.2011   -0.0367 N   0  0  0  0  0  0  0  0  0  0  0  0
    2.4984   -0.8842    0.3177 C   0  0  0  0  0  0  0  0  0  0  0  0
    2.1033   -2.0726    0.7812 N   0  0  0  0  0  0  0  0  0  0  0  0
    2.9559   -3.0558    1.0957 C   0  0  0  0  0  0  0  0  0  0  0  0
    4.3092   -2.8632    0.9451 C   0  0  0  0  0  0  0  0  0  0  0  0
    5.4455   -4.1449    1.3534 Cl  0  0  0  0  0  0  0  0  0  0  0  0
    4.7527   -1.6166    0.4572 C   0  0  0  0  0  0  0  0  0  0  0  0
    6.1380   -1.4466    0.3110 N   0  0  0  0  0  0  0  0  0  0  0  0
    6.9009   -0.3576   -0.1368 C   0  0  0  0  0  0  0  0  0  0  0  0
    6.2766    0.8084   -0.5266 C   0  0  0  0  0  0  0  0  0  0  0  0
    7.0240    1.9039   -0.9778 C   0  0  0  0  0  0  0  0  0  0  0  0
    8.3820    1.8034   -1.0274 C   0  0  0  0  0  0  0  0  0  0  0  0
    9.0024    0.6381   -0.6374 C   0  0  0  0  0  0  0  0  0  0  0  0
    8.2961   -0.4485   -0.1920 C   0  0  0  0  0  0  0  0  0  0  0  0
    9.0842   -1.8926    0.2913 S   0  0  0  0  0  0  0  0  0  0  0  0
    8.6633   -3.0312   -0.6035 O   0  0  0  0  0  0  0  0  0  0  0  0
    8.8235   -2.3045    1.7132 O   0  0  0  0  0  0  0  0  0  0  0  0
   10.8572   -1.7881    0.1370 C   0  0  0  0  0  0  0  0  0  0  0  0
   11.2609   -1.6791   -1.2975 C   0  0  0  0  0  0  0  0  0  0  0  0
   11.4760   -0.7869    1.0544 C   0  0  0  0  0  0  0  0  0  0  0  0
    3.8248   -0.7008    0.1721 N   0  0  0  0  0  0  0  0  0  0  0  0
   -3.9818    0.8060    0.0512 N   0  0  0  0  0  0  0  0  0  0  0  0
   -4.5241    1.9609   -0.5784 C   0  0  0  0  0  0  0  0  0  0  0  0
   -6.0011    1.9283   -0.8544 C   0  0  0  0  0  0  0  0  0  0  0  0
   -6.8245    1.3726    0.2584 C   0  0  0  0  0  0  0  0  0  0  0  0
   -6.0036    0.6088    1.2781 C   0  0  0  0  0  0  0  0  0  0  0  0
   -4.8657   -0.1463    0.6796 C   0  0  0  0  0  0  0  0  0  0  0  0
   -7.9560    0.6086   -0.0875 N   0  0  0  0  0  0  0  0  0  0  0  0
   -7.7905   -0.5856   -0.8057 C   0  0  0  0  0  0  0  0  0  0  0  0
   -9.1362   -1.0235   -1.3907 C   0  0  0  0  0  0  0  0  0  0  0  0
  -10.1390   -0.8718   -0.3544 N   0  0  0  0  0  0  0  0  0  0  0  0
  -10.0361   -1.8235    0.7053 C   0  0  0  0  0  0  0  0  0  0  0  0
  -10.3349    0.4834    0.0484 C   0  0  0  0  0  0  0  0  0  0  0  0
   -9.1475    1.3193   -0.4248 C   0  0  0  0  0  0  0  0  0  0  0  0
    0.5375    4.4499   -1.6799 H   0  0  0  0  0  0  0  0  0  0  0  0
   -0.9481    3.5330   -2.0530 H   0  0  0  0  0  0  0  0  0  0  0  0
   -0.6880    4.2523   -0.4156 H   0  0  0  0  0  0  0  0  0  0  0  0
   -2.1476    2.5764   -0.7105 H   0  0  0  0  0  0  0  0  0  0  0  0
   -2.6020   -1.3517    0.7883 H   0  0  0  0  0  0  0  0  0  0  0  0
   -0.2121   -1.6859    0.7807 H   0  0  0  0  0  0  0  0  0  0  0  0
    2.1500    1.0935   -0.3956 H   0  0  0  0  0  0  0  0  0  0  0  0
    2.6174   -4.0222    1.4737 H   0  0  0  0  0  0  0  0  0  0  0  0
    6.7215   -2.3022    0.5911 H   0  0  0  0  0  0  0  0  0  0  0  0
    5.2202    0.9989   -0.5296 H   0  0  0  0  0  0  0  0  0  0  0  0
    6.5603    2.8305   -1.2896 H   0  0  0  0  0  0  0  0  0  0  0  0
    9.0220    2.6252   -1.3712 H   0  0  0  0  0  0  0  0  0  0  0  0
   10.0936    0.6299   -0.7052 H   0  0  0  0  0  0  0  0  0  0  0  0
   11.2252   -2.8031    0.4806 H   0  0  0  0  0  0  0  0  0  0  0  0
   11.9033   -0.7785   -1.4926 H   0  0  0  0  0  0  0  0  0  0  0  0
   10.3307   -1.5514   -1.9199 H   0  0  0  0  0  0  0  0  0  0  0  0
   11.7765   -2.5763   -1.6995 H   0  0  0  0  0  0  0  0  0  0  0  0
   12.0225   -1.2557    1.8769 H   0  0  0  0  0  0  0  0  0  0  0  0
   12.1781   -0.1622    0.4319 H   0  0  0  0  0  0  0  0  0  0  0  0
   10.7434   -0.0899    1.5079 H   0  0  0  0  0  0  0  0  0  0  0  0
   -4.2803    2.8410    0.0525 H   0  0  0  0  0  0  0  0  0  0  0  0
   -3.9354    2.1199   -1.5269 H   0  0  0  0  0  0  0  0  0  0  0  0
   -6.3084    2.9635   -1.1164 H   0  0  0  0  0  0  0  0  0  0  0  0
   -6.1470    1.3325   -1.7818 H   0  0  0  0  0  0  0  0  0  0  0  0
   -7.2139    2.2642    0.8421 H   0  0  0  0  0  0  0  0  0  0  0  0
   -6.6586   -0.1075    1.8153 H   0  0  0  0  0  0  0  0  0  0  0  0
   -5.5929    1.2907    2.0626 H   0  0  0  0  0  0  0  0  0  0  0  0
   -5.1731   -0.8869   -0.0780 H   0  0  0  0  0  0  0  0  0  0  0  0
   -4.3121   -0.6097    1.5260 H   0  0  0  0  0  0  0  0  0  0  0  0
   -7.5080   -1.4012   -0.0997 H   0  0  0  0  0  0  0  0  0  0  0  0
   -7.0082   -0.5774   -1.5870 H   0  0  0  0  0  0  0  0  0  0  0  0
   -9.4445   -0.3742   -2.2343 H   0  0  0  0  0  0  0  0  0  0  0  0
   -9.0261   -2.0597   -1.7202 H   0  0  0  0  0  0  0  0  0  0  0  0
   -9.1822   -2.5377    0.5321 H   0  0  0  0  0  0  0  0  0  0  0  0
   -9.9814   -1.3564    1.7041 H   0  0  0  0  0  0  0  0  0  0  0  0
  -10.9456   -2.4645    0.6802 H   0  0  0  0  0  0  0  0  0  0  0  0
  -11.2261    0.8855   -0.4545 H   0  0  0  0  0  0  0  0  0  0  0  0
  -10.4517    0.5517    1.1515 H   0  0  0  0  0  0  0  0  0  0  0  0
   -9.2778    1.5186   -1.4917 H   0  0  0  0  0  0  0  0  0  0  0  0
   -9.1611    2.2698    0.1783 H   0  0  0  0  0  0  0  0  0  0  0  0
  1  2  1  0
  2  3  1  0
  3  4  2  0
  4  5  1  0
  5  6  2  0
  6  7  1  0
  7  8  2  0
  8  9  1  0
  9 10  1  0
 10 11  2  0
 11 12  1  0
 12 13  2  0
 13 14  1  0
 13 15  1  0
 15 16  1  0
 16 17  1  0
 17 18  2  0
 18 19  1  0
 19 20  2  0
 20 21  1  0
 21 22  2  0
 22 23  1  0
 23 24  2  0
 23 25  2  0
 23 26  1  0
 26 27  1  0
 26 28  1  0
 15 29  2  0
  5 30  1  0
 30 31  1  0
 31 32  1  0
 32 33  1  0
 33 34  1  0
 34 35  1  0
 33 36  1  0
 36 37  1  0
 37 38  1  0
 38 39  1  0
 39 40  1  0
 39 41  1  0
 41 42  1  0
  8  3  1  0
 29 10  1  0
 35 30  1  0
 42 36  1  0
 22 17  1  0
  1 43  1  0
  1 44  1  0
  1 45  1  0
  4 46  1  0
  6 47  1  0
  7 48  1  0
  9 49  1  0
 12 50  1  0
 16 51  1  0
 18 52  1  0
 19 53  1  0
 20 54  1  0
 21 55  1  0
 26 56  1  0
 27 57  1  0
 27 58  1  0
 27 59  1  0
 28 60  1  0
 28 61  1  0
 28 62  1  0
 31 63  1  0
 31 64  1  0
 32 65  1  0
 32 66  1  0
 33 67  1  0
 34 68  1  0
 34 69  1  0
 35 70  1  0
 35 71  1  0
 37 72  1  0
 37 73  1  0
 38 74  1  0
 38 75  1  0
 40 76  1  0
 40 77  1  0
 40 78  1  0
 41 79  1  0
 41 80  1  0
 42 81  1  0
 42 82  1  0
M  END
$$$$
[H]c1c([H])c([H])c(-c2nn(-c3c([H])c([H])c([H])c([H])c3[H])c(-c3c([H])c([H])c([H])c([H])c3[H])c2OC([H])([H])OC([H])([H])[H])c([H])c1[H]
     RDKit          3D

 47 50  0  0  0  0  0  0  0  0999 V2000
   -1.3112    1.5615   -0.3182 C   0  0  0  0  0  0  0  0  0  0  0  0
   -0.6360    0.2634   -0.1801 C   0  0  0  0  0  0  0  0  0  0  0  0
    0.6729    0.0163   -0.5499 C   0  0  0  0  0  0  0  0  0  0  0  0
    1.6726    0.8725   -1.0224 O   0  0  0  0  0  0  0  0  0  0  0  0
    2.6311    1.4963   -0.2229 C   0  0  0  0  0  0  0  0  0  0  0  0
    2.0923    2.3123    0.7502 O   0  0  0  0  0  0  0  0  0  0  0  0
    3.1048    2.8987    1.5063 C   0  0  0  0  0  0  0  0  0  0  0  0
    0.9560   -1.3510   -0.3807 C   0  0  0  0  0  0  0  0  0  0  0  0
    2.2387   -2.0255   -0.6630 C   0  0  0  0  0  0  0  0  0  0  0  0
    2.8023   -2.9277    0.1982 C   0  0  0  0  0  0  0  0  0  0  0  0
    4.0031   -3.5237   -0.1240 C   0  0  0  0  0  0  0  0  0  0  0  0
    4.6652   -3.2369   -1.3027 C   0  0  0  0  0  0  0  0  0  0  0  0
    4.1036   -2.3230   -2.1851 C   0  0  0  0  0  0  0  0  0  0  0  0
    2.9096   -1.7478   -1.8365 C   0  0  0  0  0  0  0  0  0  0  0  0
   -0.1704   -1.8687    0.0784 N   0  0  0  0  0  0  0  0  0  0  0  0
   -1.1341   -0.9238    0.2058 N   0  0  0  0  0  0  0  0  0  0  0  0
   -2.4441   -1.2731    0.6567 C   0  0  0  0  0  0  0  0  0  0  0  0
   -3.5371   -1.3581   -0.2001 C   0  0  0  0  0  0  0  0  0  0  0  0
   -4.7693   -1.7375    0.2885 C   0  0  0  0  0  0  0  0  0  0  0  0
   -4.9736   -2.0446    1.6220 C   0  0  0  0  0  0  0  0  0  0  0  0
   -3.8978   -1.9611    2.4663 C   0  0  0  0  0  0  0  0  0  0  0  0
   -2.6392   -1.5805    2.0024 C   0  0  0  0  0  0  0  0  0  0  0  0
   -2.4637    1.9115    0.3464 C   0  0  0  0  0  0  0  0  0  0  0  0
   -3.1133    3.1366    0.1002 C   0  0  0  0  0  0  0  0  0  0  0  0
   -2.6219    4.0256   -0.8084 C   0  0  0  0  0  0  0  0  0  0  0  0
   -1.4761    3.7092   -1.4868 C   0  0  0  0  0  0  0  0  0  0  0  0
   -0.8574    2.5065   -1.2321 C   0  0  0  0  0  0  0  0  0  0  0  0
    3.2757    2.1624   -0.8613 H   0  0  0  0  0  0  0  0  0  0  0  0
    3.2858    0.7578    0.3110 H   0  0  0  0  0  0  0  0  0  0  0  0
    3.6988    2.0905    1.9855 H   0  0  0  0  0  0  0  0  0  0  0  0
    2.6984    3.5090    2.3380 H   0  0  0  0  0  0  0  0  0  0  0  0
    3.7207    3.5278    0.8298 H   0  0  0  0  0  0  0  0  0  0  0  0
    2.2873   -3.1625    1.1341 H   0  0  0  0  0  0  0  0  0  0  0  0
    4.4332   -4.2318    0.5652 H   0  0  0  0  0  0  0  0  0  0  0  0
    5.6013   -3.6784   -1.5913 H   0  0  0  0  0  0  0  0  0  0  0  0
    4.5760   -2.0606   -3.1201 H   0  0  0  0  0  0  0  0  0  0  0  0
    2.4841   -1.0293   -2.5475 H   0  0  0  0  0  0  0  0  0  0  0  0
   -3.4190   -1.1264   -1.2489 H   0  0  0  0  0  0  0  0  0  0  0  0
   -5.6170   -1.7971   -0.4083 H   0  0  0  0  0  0  0  0  0  0  0  0
   -5.9590   -2.3447    1.9960 H   0  0  0  0  0  0  0  0  0  0  0  0
   -4.0609   -2.2022    3.5095 H   0  0  0  0  0  0  0  0  0  0  0  0
   -1.8190   -1.5300    2.7134 H   0  0  0  0  0  0  0  0  0  0  0  0
   -2.8957    1.2858    1.0938 H   0  0  0  0  0  0  0  0  0  0  0  0
   -4.0163    3.3869    0.6339 H   0  0  0  0  0  0  0  0  0  0  0  0
   -3.0770    4.9799   -1.0384 H   0  0  0  0  0  0  0  0  0  0  0  0
   -1.0351    4.3640   -2.2152 H   0  0  0  0  0  0  0  0  0  0  0  0
    0.0308    2.2714   -1.7880 H   0  0  0  0  0  0  0  0  0  0  0  0
  1  2  1  0
  2  3  2  0
  3  4  1  0
  4  5  1  0
  5  6  1  0
  6  7  1  0
  3  8  1  0
  8  9  1  0
  9 10  2  0
 10 11  1  0
 11 12  2  0
 12 13  1  0
 13 14  2  0
  8 15  2  0
 15 16  1  0
 16 17  1  0
 17 18  2  0
 18 19  1  0
 19 20  2  0
 20 21  1  0
 21 22  2  0
  1 23  2  0
 23 24  1  0
 24 25  2  0
 25 26  1  0
 26 27  2  0
 27  1  1  0
 16  2  1  0
 22 17  1  0
 14  9  1  0
  5 28  1  0
  5 29  1  0
  7 30  1  0
  7 31  1  0
  7 32  1  0
 10 33  1  0
 11 34  1  0
 12 35  1  0
 13 36  1  0
 14 37  1  0
 18 38  1  0
 19 39  1  0
 20 40  1  0
 21 41  1  0
 22 42  1  0
 23 43  1  0
 24 44  1  0
 25 45  1  0
 26 46  1  0
 27 47  1  0
M  END
$$$$
[H]c1c([H])c([H])c(C2=NC([H])([H])C(=O)N(C([H])([H])[H])c3c([H])c([H])c(Cl)c([H])c32)c(F)c1[H]
     RDKit          3D

 33 35  0  0  0  0  0  0  0  0999 V2000
    3.6785   -0.9548    0.8508 C   0  0  0  0  0  0  0  0  0  0  0  0
    2.4753   -0.9741    0.0853 N   0  0  0  0  0  0  0  0  0  0  0  0
    1.8307    0.2941   -0.0692 C   0  0  0  0  0  0  0  0  0  0  0  0
    2.7108    1.3609   -0.0624 C   0  0  0  0  0  0  0  0  0  0  0  0
    2.2212    2.6153   -0.3191 C   0  0  0  0  0  0  0  0  0  0  0  0
    0.8708    2.7820   -0.5783 C   0  0  0  0  0  0  0  0  0  0  0  0
    0.2275    4.3728   -0.9027 Cl  0  0  0  0  0  0  0  0  0  0  0  0
   -0.0097    1.7401   -0.5882 C   0  0  0  0  0  0  0  0  0  0  0  0
    0.4934    0.4632   -0.3196 C   0  0  0  0  0  0  0  0  0  0  0  0
   -0.5724   -0.5031   -0.3100 C   0  0  0  0  0  0  0  0  0  0  0  0
   -0.3880   -1.7232   -0.8006 N   0  0  0  0  0  0  0  0  0  0  0  0
    0.7829   -2.3322   -1.3892 C   0  0  0  0  0  0  0  0  0  0  0  0
    1.9782   -2.1792   -0.5031 C   0  0  0  0  0  0  0  0  0  0  0  0
    2.6239   -3.2090   -0.2394 O   0  0  0  0  0  0  0  0  0  0  0  0
   -1.8820   -0.2175    0.2046 C   0  0  0  0  0  0  0  0  0  0  0  0
   -2.2960    0.8575    0.9018 C   0  0  0  0  0  0  0  0  0  0  0  0
   -3.6191    1.0982    1.2725 C   0  0  0  0  0  0  0  0  0  0  0  0
   -4.6025    0.2046    0.9282 C   0  0  0  0  0  0  0  0  0  0  0  0
   -4.2256   -0.9083    0.2193 C   0  0  0  0  0  0  0  0  0  0  0  0
   -2.9099   -1.1255   -0.1382 C   0  0  0  0  0  0  0  0  0  0  0  0
   -2.5397   -2.2265   -0.8395 F   0  0  0  0  0  0  0  0  0  0  0  0
    3.7906   -1.9395    1.3435 H   0  0  0  0  0  0  0  0  0  0  0  0
    3.6294   -0.2156    1.6977 H   0  0  0  0  0  0  0  0  0  0  0  0
    4.5952   -0.7992    0.2404 H   0  0  0  0  0  0  0  0  0  0  0  0
    3.7334    1.1117    0.1527 H   0  0  0  0  0  0  0  0  0  0  0  0
    2.9068    3.4457   -0.3123 H   0  0  0  0  0  0  0  0  0  0  0  0
   -1.0395    1.8419   -0.8432 H   0  0  0  0  0  0  0  0  0  0  0  0
    0.6222   -3.3981   -1.6173 H   0  0  0  0  0  0  0  0  0  0  0  0
    1.0153   -1.8117   -2.3326 H   0  0  0  0  0  0  0  0  0  0  0  0
   -1.5680    1.5726    1.2725 H   0  0  0  0  0  0  0  0  0  0  0  0
   -3.9017    1.9750    1.8287 H   0  0  0  0  0  0  0  0  0  0  0  0
   -5.6331    0.3986    1.2206 H   0  0  0  0  0  0  0  0  0  0  0  0
   -4.9989   -1.6169   -0.0534 H   0  0  0  0  0  0  0  0  0  0  0  0
  1  2  1  0
  2  3  1  0
  3  4  2  0
  4  5  1  0
  5  6  2  0
  6  7  1  0
  6  8  1  0
  8  9  2  0
  9 10  1  0
 10 11  2  0
 11 12  1  0
 12 13  1  0
 13 14  2  0
 10 15  1  0
 15 16  2  0
 16 17  1  0
 17 18  2  0
 18 19  1  0
 19 20  2  0
 20 21  1  0
 13  2  1  0
 20 15  1  0
  9  3  1  0
  1 22  1  0
  1 23  1  0
  1 24  1  0
  4 25  1  0
  5 26  1  0
  8 27  1  0
 12 28  1  0
 12 29  1  0
 16 30  1  0
 17 31  1  0
 18 32  1  0
 19 33  1  0
M  END
$$$$
[H]Oc1c(F)c(N([H])c2nc([H])c(-c3c([H])nn(C([H])([H])[H])c3[H])c(N([H])C(=O)C([H])([H])[H])n2)c([H])c([H])c1Cl
     RDKit          3D

 40 42  0  0  0  0  0  0  0  0999 V2000
   -3.9879   -0.9492    2.7075 C   0  0  0  0  0  0  0  0  0  0  0  0
   -2.6593   -0.7851    2.0664 C   0  0  0  0  0  0  0  0  0  0  0  0
   -1.6580   -1.1803    2.6955 O   0  0  0  0  0  0  0  0  0  0  0  0
   -2.5244   -0.2022    0.7875 N   0  0  0  0  0  0  0  0  0  0  0  0
   -1.2114   -0.0849    0.2232 C   0  0  0  0  0  0  0  0  0  0  0  0
   -0.1574   -0.5558    0.8942 N   0  0  0  0  0  0  0  0  0  0  0  0
    1.1252   -0.5029    0.4098 C   0  0  0  0  0  0  0  0  0  0  0  0
    2.1673   -1.0191    1.1786 N   0  0  0  0  0  0  0  0  0  0  0  0
    3.5303   -1.0658    0.8768 C   0  0  0  0  0  0  0  0  0  0  0  0
    4.1051   -0.5981   -0.2661 C   0  0  0  0  0  0  0  0  0  0  0  0
    5.4889   -0.6806   -0.5009 C   0  0  0  0  0  0  0  0  0  0  0  0
    6.3144   -1.2476    0.4374 C   0  0  0  0  0  0  0  0  0  0  0  0
    8.0388   -1.3681    0.1812 Cl  0  0  0  0  0  0  0  0  0  0  0  0
    5.7222   -1.7162    1.5876 C   0  0  0  0  0  0  0  0  0  0  0  0
    6.5776   -2.2908    2.5333 O   0  0  0  0  0  0  0  0  0  0  0  0
    4.3929   -1.6471    1.8344 C   0  0  0  0  0  0  0  0  0  0  0  0
    3.8889   -2.1360    3.0008 F   0  0  0  0  0  0  0  0  0  0  0  0
    1.2610    0.0542   -0.7880 N   0  0  0  0  0  0  0  0  0  0  0  0
    0.2554    0.5438   -1.5112 C   0  0  0  0  0  0  0  0  0  0  0  0
   -1.0659    0.4912   -1.0147 C   0  0  0  0  0  0  0  0  0  0  0  0
   -2.1402    1.0472   -1.7981 C   0  0  0  0  0  0  0  0  0  0  0  0
   -2.4241    0.7673   -3.1101 C   0  0  0  0  0  0  0  0  0  0  0  0
   -3.4937    1.5082   -3.5123 N   0  0  0  0  0  0  0  0  0  0  0  0
   -3.8904    2.2542   -2.4694 N   0  0  0  0  0  0  0  0  0  0  0  0
   -5.0113    3.1599   -2.5627 C   0  0  0  0  0  0  0  0  0  0  0  0
   -3.0693    1.9795   -1.4172 C   0  0  0  0  0  0  0  0  0  0  0  0
   -4.7972   -0.4797    2.1044 H   0  0  0  0  0  0  0  0  0  0  0  0
   -4.2417   -2.0308    2.7646 H   0  0  0  0  0  0  0  0  0  0  0  0
   -3.9682   -0.5723    3.7370 H   0  0  0  0  0  0  0  0  0  0  0  0
   -3.3867    0.1083    0.3101 H   0  0  0  0  0  0  0  0  0  0  0  0
    1.8417   -1.4336    2.1364 H   0  0  0  0  0  0  0  0  0  0  0  0
    3.5339   -0.1402   -1.0528 H   0  0  0  0  0  0  0  0  0  0  0  0
    5.8446   -0.2853   -1.4287 H   0  0  0  0  0  0  0  0  0  0  0  0
    6.2494   -2.6663    3.4119 H   0  0  0  0  0  0  0  0  0  0  0  0
    0.4066    0.9999   -2.5037 H   0  0  0  0  0  0  0  0  0  0  0  0
   -1.9182    0.0907   -3.7448 H   0  0  0  0  0  0  0  0  0  0  0  0
   -5.4829    3.2934   -1.5566 H   0  0  0  0  0  0  0  0  0  0  0  0
   -5.8194    2.7507   -3.2128 H   0  0  0  0  0  0  0  0  0  0  0  0
   -4.6349    4.1215   -2.9651 H   0  0  0  0  0  0  0  0  0  0  0  0
   -3.2015    2.4681   -0.4635 H   0  0  0  0  0  0  0  0  0  0  0  0
  1  2  1  0
  2  3  2  0
  2  4  1  0
  4  5  1  0
  5  6  2  0
  6  7  1  0
  7  8  1  0
  8  9  1  0
  9 10  2  0
 10 11  1  0
 11 12  2  0
 12 13  1  0
 12 14  1  0
 14 15  1  0
 14 16  2  0
 16 17  1  0
  7 18  2  0
 18 19  1  0
 19 20  2  0
 20 21  1  0
 21 22  1  0
 22 23  2  0
 23 24  1  0
 24 25  1  0
 24 26  1  0
 20  5  1  0
 26 21  2  0
 16  9  1  0
  1 27  1  0
  1 28  1  0
  1 29  1  0
  4 30  1  0
  8 31  1  0
 10 32  1  0
 11 33  1  0
 15 34  1  0
 19 35  1  0
 22 36  1  0
 25 37  1  0
 25 38  1  0
 25 39  1  0
 26 40  1  0
M  END
$$$$
[H]c1c([H])c(C(=O)N2C([H])([H])C([H])([H])C([H])(N([H])C(=O)N([H])c3c([H])c([H])c(OC(F)(F)F)c([H])c3[H])C([H])([H])C2([H])[H])c([H])c([H])c1OC(F)(F)F
     RDKit          3D

 53 55  0  0  0  0  0  0  0  0999 V2000
    9.7845    0.1890   -0.7708 F   0  0  0  0  0  0  0  0  0  0  0  0
    9.5859   -1.1621   -0.9768 C   0  0  0  0  0  0  0  0  0  0  0  0
   10.7802   -1.7291   -1.3301 F   0  0  0  0  0  0  0  0  0  0  0  0
    9.1469   -1.6961    0.2185 F   0  0  0  0  0  0  0  0  0  0  0  0
    8.6906   -1.3718   -2.0463 O   0  0  0  0  0  0  0  0  0  0  0  0
    7.3948   -0.8865   -2.0259 C   0  0  0  0  0  0  0  0  0  0  0  0
    6.3375   -1.6075   -1.5227 C   0  0  0  0  0  0  0  0  0  0  0  0
    5.0638   -1.0252   -1.5359 C   0  0  0  0  0  0  0  0  0  0  0  0
    4.8087    0.2283   -2.0285 C   0  0  0  0  0  0  0  0  0  0  0  0
    3.5768    0.8545   -2.0532 N   0  0  0  0  0  0  0  0  0  0  0  0
    2.3469    0.2916   -1.7960 C   0  0  0  0  0  0  0  0  0  0  0  0
    2.1639   -0.9197   -1.5809 O   0  0  0  0  0  0  0  0  0  0  0  0
    1.1228    1.0713   -1.7474 N   0  0  0  0  0  0  0  0  0  0  0  0
   -0.1675    0.4870   -1.5068 C   0  0  0  0  0  0  0  0  0  0  0  0
   -0.1938    0.0103   -0.0494 C   0  0  0  0  0  0  0  0  0  0  0  0
   -1.6936   -0.2537    0.2176 C   0  0  0  0  0  0  0  0  0  0  0  0
   -2.3244    1.0363    0.3301 N   0  0  0  0  0  0  0  0  0  0  0  0
   -1.5962    2.1275   -0.3843 C   0  0  0  0  0  0  0  0  0  0  0  0
   -1.2303    1.5004   -1.7395 C   0  0  0  0  0  0  0  0  0  0  0  0
   -3.5037    1.3795    0.9504 C   0  0  0  0  0  0  0  0  0  0  0  0
   -3.7710    2.6572    0.9833 O   0  0  0  0  0  0  0  0  0  0  0  0
   -4.4900    0.5285    1.5715 C   0  0  0  0  0  0  0  0  0  0  0  0
   -5.4526    1.1176    2.4250 C   0  0  0  0  0  0  0  0  0  0  0  0
   -6.4555    0.3897    2.9901 C   0  0  0  0  0  0  0  0  0  0  0  0
   -6.5667   -0.9813    2.7395 C   0  0  0  0  0  0  0  0  0  0  0  0
   -7.5918   -1.7589    3.3047 O   0  0  0  0  0  0  0  0  0  0  0  0
   -8.7719   -1.8307    2.5051 C   0  0  0  0  0  0  0  0  0  0  0  0
   -8.3901   -2.3910    1.2892 F   0  0  0  0  0  0  0  0  0  0  0  0
   -9.6345   -2.7148    3.1114 F   0  0  0  0  0  0  0  0  0  0  0  0
   -9.3919   -0.6219    2.3680 F   0  0  0  0  0  0  0  0  0  0  0  0
   -5.6371   -1.5558    1.9124 C   0  0  0  0  0  0  0  0  0  0  0  0
   -4.6097   -0.8021    1.3358 C   0  0  0  0  0  0  0  0  0  0  0  0
    5.9242    0.9070   -2.5246 C   0  0  0  0  0  0  0  0  0  0  0  0
    7.1893    0.4017   -2.5401 C   0  0  0  0  0  0  0  0  0  0  0  0
    6.4801   -2.6020   -1.1249 H   0  0  0  0  0  0  0  0  0  0  0  0
    4.2706   -1.6434   -1.1106 H   0  0  0  0  0  0  0  0  0  0  0  0
    3.5777    1.9100   -2.2994 H   0  0  0  0  0  0  0  0  0  0  0  0
    1.1950    2.0957   -1.8879 H   0  0  0  0  0  0  0  0  0  0  0  0
   -0.2822   -0.4630   -2.0763 H   0  0  0  0  0  0  0  0  0  0  0  0
    0.3034   -0.9782   -0.0338 H   0  0  0  0  0  0  0  0  0  0  0  0
    0.1923    0.7219    0.6575 H   0  0  0  0  0  0  0  0  0  0  0  0
   -1.7735   -0.8884    1.1044 H   0  0  0  0  0  0  0  0  0  0  0  0
   -2.1340   -0.7668   -0.6662 H   0  0  0  0  0  0  0  0  0  0  0  0
   -2.2395    2.9975   -0.5253 H   0  0  0  0  0  0  0  0  0  0  0  0
   -0.6963    2.4050    0.1791 H   0  0  0  0  0  0  0  0  0  0  0  0
   -2.1285    0.9929   -2.1535 H   0  0  0  0  0  0  0  0  0  0  0  0
   -0.9209    2.3348   -2.4007 H   0  0  0  0  0  0  0  0  0  0  0  0
   -5.3347    2.1865    2.6067 H   0  0  0  0  0  0  0  0  0  0  0  0
   -7.1613    0.8660    3.6281 H   0  0  0  0  0  0  0  0  0  0  0  0
   -5.6682   -2.6176    1.6826 H   0  0  0  0  0  0  0  0  0  0  0  0
   -3.9366   -1.3147    0.6715 H   0  0  0  0  0  0  0  0  0  0  0  0
    5.8103    1.9273   -2.9374 H   0  0  0  0  0  0  0  0  0  0  0  0
    8.0014    0.9673   -2.9371 H   0  0  0  0  0  0  0  0  0  0  0  0
  1  2  1  0
  2  3  1  0
  2  4  1  0
  2  5  1  0
  5  6  1  0
  6  7  2  0
  7  8  1  0
  8  9  2  0
  9 10  1  0
 10 11  1  0
 11 12  2  0
 11 13  1  0
 13 14  1  0
 14 15  1  0
 15 16  1  0
 16 17  1  0
 17 18  1  0
 18 19  1  0
 17 20  1  0
 20 21  2  0
 20 22  1  0
 22 23  2  0
 23 24  1  0
 24 25  2  0
 25 26  1  0
 26 27  1  0
 27 28  1  0
 27 29  1  0
 27 30  1  0
 25 31  1  0
 31 32  2  0
  9 33  1  0
 33 34  2  0
 34  6  1  0
 19 14  1  0
 32 22  1  0
  7 35  1  0
  8 36  1  0
 10 37  1  0
 13 38  1  0
 14 39  1  0
 15 40  1  0
 15 41  1  0
 16 42  1  0
 16 43  1  0
 18 44  1  0
 18 45  1  0
 19 46  1  0
 19 47  1  0
 23 48  1  0
 24 49  1  0
 31 50  1  0
 32 51  1  0
 33 52  1  0
 34 53  1  0
M  END
$$$$
[H]N=C(N([H])[H])[C@@]([H])(N([H])C(=O)[C@@]([H])(N([H])S(=O)(=O)c1c([H])c([H])c(F)c([H])c1[H])C([H])([H])c1nc([H])c([H])c2c([H])c([H])c([H])c([H])c12)C([H])([H])C([H])(C([H])([H])[H])C([H])([H])[H]
     RDKit          3D

 62 64  0  0  0  0  0  0  0  0999 V2000
    5.4946    1.6776    0.6088 C   0  0  0  0  0  0  0  0  0  0  0  0
    5.0409    0.3940   -0.0528 C   0  0  0  0  0  0  0  0  0  0  0  0
    5.6547   -0.7824    0.6969 C   0  0  0  0  0  0  0  0  0  0  0  0
    3.6413    0.2555   -0.4096 C   0  0  0  0  0  0  0  0  0  0  0  0
    2.5459    0.2475    0.5987 C   0  0  2  0  0  0  0  0  0  0  0  0
    1.2890    0.1785   -0.0958 N   0  0  0  0  0  0  0  0  0  0  0  0
   -0.0594    0.1077    0.4816 C   0  0  0  0  0  0  0  0  0  0  0  0
   -0.1448    0.1009    1.7034 O   0  0  0  0  0  0  0  0  0  0  0  0
   -1.0786    0.0847   -0.5363 C   0  0  2  0  0  0  0  0  0  0  0  0
   -1.2575   -1.1285   -1.3648 C   0  0  0  0  0  0  0  0  0  0  0  0
   -1.7833   -2.2820   -0.5926 C   0  0  0  0  0  0  0  0  0  0  0  0
   -2.5673   -2.0874    0.4938 N   0  0  0  0  0  0  0  0  0  0  0  0
   -3.2225   -3.0329    1.1484 C   0  0  0  0  0  0  0  0  0  0  0  0
   -3.1448   -4.3448    0.7454 C   0  0  0  0  0  0  0  0  0  0  0  0
   -2.3643   -4.6158   -0.3510 C   0  0  0  0  0  0  0  0  0  0  0  0
   -2.2915   -5.9466   -0.7597 C   0  0  0  0  0  0  0  0  0  0  0  0
   -1.5071   -6.2413   -1.8549 C   0  0  0  0  0  0  0  0  0  0  0  0
   -0.8157   -5.2481   -2.5286 C   0  0  0  0  0  0  0  0  0  0  0  0
   -0.9341   -3.9333   -2.0711 C   0  0  0  0  0  0  0  0  0  0  0  0
   -1.6887   -3.5890   -1.0087 C   0  0  0  0  0  0  0  0  0  0  0  0
   -1.2408    1.3649   -1.1833 N   0  0  0  0  0  0  0  0  0  0  0  0
   -2.7745    1.9930   -1.2778 S   0  0  0  0  0  0  0  0  0  0  0  0
   -3.8639    0.9741   -0.9514 O   0  0  0  0  0  0  0  0  0  0  0  0
   -2.9653    2.3713   -2.7858 O   0  0  0  0  0  0  0  0  0  0  0  0
   -3.1096    3.3728   -0.3101 C   0  0  0  0  0  0  0  0  0  0  0  0
   -3.3120    3.2403    1.0385 C   0  0  0  0  0  0  0  0  0  0  0  0
   -3.7227    4.3167    1.8333 C   0  0  0  0  0  0  0  0  0  0  0  0
   -3.9183    5.5202    1.2348 C   0  0  0  0  0  0  0  0  0  0  0  0
   -4.3454    6.5454    2.0486 F   0  0  0  0  0  0  0  0  0  0  0  0
   -3.7207    5.6802   -0.1066 C   0  0  0  0  0  0  0  0  0  0  0  0
   -3.3168    4.6312   -0.9041 C   0  0  0  0  0  0  0  0  0  0  0  0
    2.5832    1.3962    1.5385 C   0  0  0  0  0  0  0  0  0  0  0  0
    2.8009    1.1544    2.9434 N   0  0  0  0  0  0  0  0  0  0  0  0
    2.4299    2.5890    1.1309 N   0  0  0  0  0  0  0  0  0  0  0  0
    5.1824    2.5654    0.0246 H   0  0  0  0  0  0  0  0  0  0  0  0
    6.6394    1.7103    0.4824 H   0  0  0  0  0  0  0  0  0  0  0  0
    5.3278    1.7433    1.6769 H   0  0  0  0  0  0  0  0  0  0  0  0
    5.6431    0.3940   -1.0394 H   0  0  0  0  0  0  0  0  0  0  0  0
    6.7577   -0.6531    0.5945 H   0  0  0  0  0  0  0  0  0  0  0  0
    5.4102   -0.7336    1.7791 H   0  0  0  0  0  0  0  0  0  0  0  0
    5.2510   -1.6879    0.2397 H   0  0  0  0  0  0  0  0  0  0  0  0
    3.3912    0.9852   -1.2527 H   0  0  0  0  0  0  0  0  0  0  0  0
    3.5457   -0.7636   -0.9426 H   0  0  0  0  0  0  0  0  0  0  0  0
    2.6281   -0.6642    1.2655 H   0  0  0  0  0  0  0  0  0  0  0  0
    1.3220    0.2004   -1.1826 H   0  0  0  0  0  0  0  0  0  0  0  0
   -2.1120    0.1033    0.1059 H   0  0  0  0  0  0  0  0  0  0  0  0
   -1.9796   -0.9126   -2.2349 H   0  0  0  0  0  0  0  0  0  0  0  0
   -0.3309   -1.4425   -1.8788 H   0  0  0  0  0  0  0  0  0  0  0  0
   -3.8649   -2.8329    2.0265 H   0  0  0  0  0  0  0  0  0  0  0  0
   -3.6962   -5.1360    1.2696 H   0  0  0  0  0  0  0  0  0  0  0  0
   -2.8251   -6.7153   -0.2482 H   0  0  0  0  0  0  0  0  0  0  0  0
   -1.4578   -7.2637   -2.1491 H   0  0  0  0  0  0  0  0  0  0  0  0
   -0.1945   -5.4911   -3.3925 H   0  0  0  0  0  0  0  0  0  0  0  0
   -0.3960   -3.1837   -2.5988 H   0  0  0  0  0  0  0  0  0  0  0  0
   -0.5388    2.0220   -0.6987 H   0  0  0  0  0  0  0  0  0  0  0  0
   -3.1600    2.2947    1.5857 H   0  0  0  0  0  0  0  0  0  0  0  0
   -3.8761    4.1741    2.9083 H   0  0  0  0  0  0  0  0  0  0  0  0
   -3.8919    6.6744   -0.5458 H   0  0  0  0  0  0  0  0  0  0  0  0
   -3.1449    4.7226   -1.9508 H   0  0  0  0  0  0  0  0  0  0  0  0
    2.9718    1.9555    3.5891 H   0  0  0  0  0  0  0  0  0  0  0  0
    2.7892    0.1836    3.3242 H   0  0  0  0  0  0  0  0  0  0  0  0
    2.2784    2.7875    0.1429 H   0  0  0  0  0  0  0  0  0  0  0  0
  1  2  1  0
  2  3  1  0
  2  4  1  0
  4  5  1  0
  5  6  1  0
  6  7  1  0
  7  8  2  0
  7  9  1  0
  9 10  1  0
 10 11  1  0
 11 12  2  0
 12 13  1  0
 13 14  2  0
 14 15  1  0
 15 16  2  0
 16 17  1  0
 17 18  2  0
 18 19  1  0
 19 20  2  0
  9 21  1  0
 21 22  1  0
 22 23  2  0
 22 24  2  0
 22 25  1  0
 25 26  2  0
 26 27  1  0
 27 28  2  0
 28 29  1  0
 28 30  1  0
 30 31  2  0
  5 32  1  0
 32 33  1  0
 32 34  2  3
 20 11  1  0
 31 25  1  0
 20 15  1  0
  1 35  1  0
  1 36  1  0
  1 37  1  0
  2 38  1  0
  3 39  1  0
  3 40  1  0
  3 41  1  0
  4 42  1  0
  4 43  1  0
  5 44  1  1
  6 45  1  0
  9 46  1  1
 10 47  1  0
 10 48  1  0
 13 49  1  0
 14 50  1  0
 16 51  1  0
 17 52  1  0
 18 53  1  0
 19 54  1  0
 21 55  1  0
 26 56  1  0
 27 57  1  0
 30 58  1  0
 31 59  1  0
 33 60  1  0
 33 61  1  0
 34 62  1  0
M  END
$$$$
[H]c1c([H])c([H])c2c(c1[H])c(=O)n(C([H])([H])[H])c(=O)c1c([H])c([N+](=O)[O-])c([H])c([H])c12
     RDKit          3D

 31 33  0  0  0  0  0  0  0  0999 V2000
    5.3519   -1.4323   -0.3950 O   0  0  0  0  0  0  0  0  0  0  0  0
    4.6060   -0.3143   -0.1301 N   0  0  0  0  0  0  0  0  0  0  0  0
    5.1503    0.7805    0.0356 O   0  0  0  0  0  0  0  0  0  0  0  0
    3.1953   -0.4530   -0.0525 C   0  0  0  0  0  0  0  0  0  0  0  0
    2.5673   -1.6773   -0.2363 C   0  0  0  0  0  0  0  0  0  0  0  0
    1.1760   -1.8256   -0.1605 C   0  0  0  0  0  0  0  0  0  0  0  0
    0.4649   -0.7003    0.1069 C   0  0  0  0  0  0  0  0  0  0  0  0
    1.0857    0.5468    0.2914 C   0  0  0  0  0  0  0  0  0  0  0  0
    2.4386    0.6561    0.2115 C   0  0  0  0  0  0  0  0  0  0  0  0
    0.4483    1.7650    0.4920 C   0  0  0  0  0  0  0  0  0  0  0  0
    1.0959    2.5955    1.1406 O   0  0  0  0  0  0  0  0  0  0  0  0
   -0.7795    2.0770    0.0371 N   0  0  0  0  0  0  0  0  0  0  0  0
   -1.0613    3.4836   -0.0114 C   0  0  0  0  0  0  0  0  0  0  0  0
   -1.7955    1.2902   -0.3846 C   0  0  0  0  0  0  0  0  0  0  0  0
   -2.7050    1.7601   -1.1033 O   0  0  0  0  0  0  0  0  0  0  0  0
   -1.9259   -0.0462   -0.0763 C   0  0  0  0  0  0  0  0  0  0  0  0
   -3.2232   -0.4660    0.0215 C   0  0  0  0  0  0  0  0  0  0  0  0
   -3.5033   -1.7610    0.3869 C   0  0  0  0  0  0  0  0  0  0  0  0
   -2.4850   -2.6459    0.6584 C   0  0  0  0  0  0  0  0  0  0  0  0
   -1.1463   -2.2410    0.5652 C   0  0  0  0  0  0  0  0  0  0  0  0
   -0.8925   -0.9512    0.1969 C   0  0  0  0  0  0  0  0  0  0  0  0
    3.1558   -2.5428   -0.4433 H   0  0  0  0  0  0  0  0  0  0  0  0
    0.7328   -2.7626   -0.3503 H   0  0  0  0  0  0  0  0  0  0  0  0
    2.8766    1.6452    0.3673 H   0  0  0  0  0  0  0  0  0  0  0  0
   -0.9120    3.9437    1.0065 H   0  0  0  0  0  0  0  0  0  0  0  0
   -2.0605    3.7099   -0.4021 H   0  0  0  0  0  0  0  0  0  0  0  0
   -0.3095    3.9662   -0.6665 H   0  0  0  0  0  0  0  0  0  0  0  0
   -4.0050    0.2751   -0.2069 H   0  0  0  0  0  0  0  0  0  0  0  0
   -4.5532   -2.0979    0.4644 H   0  0  0  0  0  0  0  0  0  0  0  0
   -2.6330   -3.6748    0.9511 H   0  0  0  0  0  0  0  0  0  0  0  0
   -0.3548   -2.9026    0.8210 H   0  0  0  0  0  0  0  0  0  0  0  0
  1  2  1  0
  2  3  2  0
  2  4  1  0
  4  5  2  0
  5  6  1  0
  6  7  2  0
  7  8  1  0
  8  9  2  0
  8 10  1  0
 10 11  2  0
 10 12  1  0
 12 13  1  0
 12 14  1  0
 14 15  2  0
 14 16  1  0
 16 17  2  0
 17 18  1  0
 18 19  2  0
 19 20  1  0
 20 21  2  0
  9  4  1  0
 21 16  1  0
 21  7  1  0
  5 22  1  0
  6 23  1  0
  9 24  1  0
 13 25  1  0
 13 26  1  0
 13 27  1  0
 17 28  1  0
 18 29  1  0
 19 30  1  0
 20 31  1  0
M  CHG  2   1  -1   2   1
M  END
$$$$
[H]c1nc(N([H])c2c([H])c([H])c(F)c(C(F)(F)F)c2[H])c2c([H])c(OC([H])([H])C([H])([H])C([H])([H])N3C([H])([H])C([H])([H])C([H])([H])C3([H])[H])c(OC([H])([H])[H])c([H])c2n1
     RDKit          3D

 57 60  0  0  0  0  0  0  0  0999 V2000
   -2.5599   -5.1371    0.8978 C   0  0  0  0  0  0  0  0  0  0  0  0
   -2.3562   -3.8663    0.2804 O   0  0  0  0  0  0  0  0  0  0  0  0
   -1.1053   -3.2789    0.3240 C   0  0  0  0  0  0  0  0  0  0  0  0
   -0.0509   -3.9035    0.9558 C   0  0  0  0  0  0  0  0  0  0  0  0
    1.1998   -3.3534    1.0192 C   0  0  0  0  0  0  0  0  0  0  0  0
    2.2240   -3.9474    1.6247 N   0  0  0  0  0  0  0  0  0  0  0  0
    3.4356   -3.4073    1.6809 C   0  0  0  0  0  0  0  0  0  0  0  0
    3.6136   -2.2245    1.1032 N   0  0  0  0  0  0  0  0  0  0  0  0
    2.6729   -1.5212    0.4635 C   0  0  0  0  0  0  0  0  0  0  0  0
    2.9532   -0.2702   -0.0817 N   0  0  0  0  0  0  0  0  0  0  0  0
    4.2129    0.3449   -0.0923 C   0  0  0  0  0  0  0  0  0  0  0  0
    5.4014   -0.3035   -0.0917 C   0  0  0  0  0  0  0  0  0  0  0  0
    6.6296    0.3625   -0.0702 C   0  0  0  0  0  0  0  0  0  0  0  0
    6.6394    1.7307   -0.0497 C   0  0  0  0  0  0  0  0  0  0  0  0
    7.7948    2.4504   -0.0281 F   0  0  0  0  0  0  0  0  0  0  0  0
    5.4378    2.4414   -0.0505 C   0  0  0  0  0  0  0  0  0  0  0  0
    4.2534    1.7482   -0.0715 C   0  0  0  0  0  0  0  0  0  0  0  0
    5.4722    3.9158   -0.0288 C   0  0  0  0  0  0  0  0  0  0  0  0
    4.1896    4.4113   -0.0335 F   0  0  0  0  0  0  0  0  0  0  0  0
    6.1579    4.3657   -1.1617 F   0  0  0  0  0  0  0  0  0  0  0  0
    6.1773    4.4124    1.0593 F   0  0  0  0  0  0  0  0  0  0  0  0
    1.4141   -2.1063    0.4175 C   0  0  0  0  0  0  0  0  0  0  0  0
    0.3789   -1.4732   -0.2135 C   0  0  0  0  0  0  0  0  0  0  0  0
   -0.8996   -2.0577   -0.2665 C   0  0  0  0  0  0  0  0  0  0  0  0
   -1.9399   -1.4255   -0.8983 O   0  0  0  0  0  0  0  0  0  0  0  0
   -1.7637   -0.1699   -1.5151 C   0  0  0  0  0  0  0  0  0  0  0  0
   -3.0375    0.3348   -2.1464 C   0  0  0  0  0  0  0  0  0  0  0  0
   -4.1542    0.5059   -1.1701 C   0  0  0  0  0  0  0  0  0  0  0  0
   -3.8495    1.4484   -0.1125 N   0  0  0  0  0  0  0  0  0  0  0  0
   -5.0160    1.5055    0.7468 C   0  0  0  0  0  0  0  0  0  0  0  0
   -5.4820    2.9427    0.7590 C   0  0  0  0  0  0  0  0  0  0  0  0
   -4.2495    3.7233    0.3506 C   0  0  0  0  0  0  0  0  0  0  0  0
   -3.5931    2.7600   -0.6162 C   0  0  0  0  0  0  0  0  0  0  0  0
   -2.4497   -4.9618    1.9904 H   0  0  0  0  0  0  0  0  0  0  0  0
   -3.5598   -5.5352    0.6384 H   0  0  0  0  0  0  0  0  0  0  0  0
   -1.7707   -5.8552    0.6002 H   0  0  0  0  0  0  0  0  0  0  0  0
   -0.1902   -4.8669    1.4281 H   0  0  0  0  0  0  0  0  0  0  0  0
    4.2866   -3.8682    2.1665 H   0  0  0  0  0  0  0  0  0  0  0  0
    2.1757    0.2905   -0.5340 H   0  0  0  0  0  0  0  0  0  0  0  0
    5.4712   -1.3667   -0.1295 H   0  0  0  0  0  0  0  0  0  0  0  0
    7.5487   -0.1843   -0.0696 H   0  0  0  0  0  0  0  0  0  0  0  0
    3.3246    2.3022   -0.0720 H   0  0  0  0  0  0  0  0  0  0  0  0
    0.5220   -0.5130   -0.6853 H   0  0  0  0  0  0  0  0  0  0  0  0
   -1.3282    0.5413   -0.7926 H   0  0  0  0  0  0  0  0  0  0  0  0
   -1.0233   -0.2998   -2.3314 H   0  0  0  0  0  0  0  0  0  0  0  0
   -3.3534   -0.4073   -2.9009 H   0  0  0  0  0  0  0  0  0  0  0  0
   -2.8613    1.2973   -2.6588 H   0  0  0  0  0  0  0  0  0  0  0  0
   -5.0230    0.9196   -1.7231 H   0  0  0  0  0  0  0  0  0  0  0  0
   -4.4905   -0.4330   -0.7066 H   0  0  0  0  0  0  0  0  0  0  0  0
   -5.8541    0.8808    0.3782 H   0  0  0  0  0  0  0  0  0  0  0  0
   -4.7747    1.1476    1.7850 H   0  0  0  0  0  0  0  0  0  0  0  0
   -5.8181    3.2139    1.7679 H   0  0  0  0  0  0  0  0  0  0  0  0
   -6.3091    3.1248    0.0433 H   0  0  0  0  0  0  0  0  0  0  0  0
   -3.6157    3.9178    1.2379 H   0  0  0  0  0  0  0  0  0  0  0  0
   -4.5066    4.6685   -0.1495 H   0  0  0  0  0  0  0  0  0  0  0  0
   -4.0829    2.8639   -1.6151 H   0  0  0  0  0  0  0  0  0  0  0  0
   -2.5185    3.0319   -0.6518 H   0  0  0  0  0  0  0  0  0  0  0  0
  1  2  1  0
  2  3  1  0
  3  4  2  0
  4  5  1  0
  5  6  2  0
  6  7  1  0
  7  8  2  0
  8  9  1  0
  9 10  1  0
 10 11  1  0
 11 12  2  0
 12 13  1  0
 13 14  2  0
 14 15  1  0
 14 16  1  0
 16 17  2  0
 16 18  1  0
 18 19  1  0
 18 20  1  0
 18 21  1  0
  9 22  2  0
 22 23  1  0
 23 24  2  0
 24 25  1  0
 25 26  1  0
 26 27  1  0
 27 28  1  0
 28 29  1  0
 29 30  1  0
 30 31  1  0
 31 32  1  0
 32 33  1  0
 24  3  1  0
 33 29  1  0
 22  5  1  0
 17 11  1  0
  1 34  1  0
  1 35  1  0
  1 36  1  0
  4 37  1  0
  7 38  1  0
 10 39  1  0
 12 40  1  0
 13 41  1  0
 17 42  1  0
 23 43  1  0
 26 44  1  0
 26 45  1  0
 27 46  1  0
 27 47  1  0
 28 48  1  0
 28 49  1  0
 30 50  1  0
 30 51  1  0
 31 52  1  0
 31 53  1  0
 32 54  1  0
 32 55  1  0
 33 56  1  0
 33 57  1  0
M  END
$$$$
[H]OC([H])([H])[C@@]1(O[H])C([H])([H])[C@@]2([H])O[C@]1(C([H])([H])[H])n1c3c([H])c([H])c([H])c([H])c3c3c4c(c5c6c([H])c([H])c([H])c([H])c6n2c5c31)C(=O)N4[H]
     RDKit          3D

 51 58  0  0  0  0  0  0  0  0999 V2000
   -2.9478   -0.9961   -1.0766 C   0  0  0  0  0  0  0  0  0  0  0  0
   -1.6970   -0.8764   -0.2154 C   0  0  2  0  0  0  0  0  0  0  0  0
   -0.7108   -1.4559   -1.0704 O   0  0  0  0  0  0  0  0  0  0  0  0
    0.2532   -2.0446   -0.3341 C   0  0  2  0  0  0  0  0  0  0  0  0
   -0.2056   -2.0922    1.1120 C   0  0  0  0  0  0  0  0  0  0  0  0
   -1.6844   -1.7864    0.9434 C   0  0  1  0  0  0  0  0  0  0  0  0
   -2.1587   -1.2586    2.1321 O   0  0  0  0  0  0  0  0  0  0  0  0
   -2.3298   -3.1049    0.5957 C   0  0  0  0  0  0  0  0  0  0  0  0
   -2.0414   -4.0177    1.6400 O   0  0  0  0  0  0  0  0  0  0  0  0
    1.3792   -1.0857   -0.3092 N   0  0  0  0  0  0  0  0  0  0  0  0
    2.6690   -1.3498   -0.3996 C   0  0  0  0  0  0  0  0  0  0  0  0
    3.3378   -2.5430   -0.5765 C   0  0  0  0  0  0  0  0  0  0  0  0
    4.7104   -2.5046   -0.6332 C   0  0  0  0  0  0  0  0  0  0  0  0
    5.3966   -1.3145   -0.5174 C   0  0  0  0  0  0  0  0  0  0  0  0
    4.7057   -0.1130   -0.3385 C   0  0  0  0  0  0  0  0  0  0  0  0
    3.3413   -0.1511   -0.2821 C   0  0  0  0  0  0  0  0  0  0  0  0
    2.4267    0.8611   -0.1167 C   0  0  0  0  0  0  0  0  0  0  0  0
    2.4480    2.2268    0.0694 C   0  0  0  0  0  0  0  0  0  0  0  0
    3.2593    3.4528    0.1978 C   0  0  0  0  0  0  0  0  0  0  0  0
    4.4888    3.7267    0.1736 O   0  0  0  0  0  0  0  0  0  0  0  0
    2.0329    4.1550    0.3567 N   0  0  0  0  0  0  0  0  0  0  0  0
    1.2672    2.9621    0.2305 C   0  0  0  0  0  0  0  0  0  0  0  0
    0.0577    2.3047    0.1994 C   0  0  0  0  0  0  0  0  0  0  0  0
   -1.2541    2.7054    0.3247 C   0  0  0  0  0  0  0  0  0  0  0  0
   -1.8040    3.9653    0.5427 C   0  0  0  0  0  0  0  0  0  0  0  0
   -3.1637    4.1307    0.6512 C   0  0  0  0  0  0  0  0  0  0  0  0
   -3.9245    2.9936    0.5328 C   0  0  0  0  0  0  0  0  0  0  0  0
   -3.3947    1.7261    0.3151 C   0  0  0  0  0  0  0  0  0  0  0  0
   -2.0315    1.5701    0.2066 C   0  0  0  0  0  0  0  0  0  0  0  0
   -1.2484    0.4690    0.0077 N   0  0  0  0  0  0  0  0  0  0  0  0
    0.0233    0.9731    0.0167 C   0  0  0  0  0  0  0  0  0  0  0  0
    1.1813    0.2388   -0.1393 C   0  0  0  0  0  0  0  0  0  0  0  0
   -3.1096   -0.1055   -1.7102 H   0  0  0  0  0  0  0  0  0  0  0  0
   -2.8343   -1.8334   -1.8359 H   0  0  0  0  0  0  0  0  0  0  0  0
   -3.8411   -1.3254   -0.5054 H   0  0  0  0  0  0  0  0  0  0  0  0
    0.5697   -3.0225   -0.7029 H   0  0  0  0  0  0  0  0  0  0  0  0
   -0.0424   -3.1336    1.4644 H   0  0  0  0  0  0  0  0  0  0  0  0
    0.2862   -1.3780    1.7704 H   0  0  0  0  0  0  0  0  0  0  0  0
   -3.1282   -1.4325    2.2120 H   0  0  0  0  0  0  0  0  0  0  0  0
   -3.3977   -3.0676    0.3968 H   0  0  0  0  0  0  0  0  0  0  0  0
   -1.8272   -3.5146   -0.3037 H   0  0  0  0  0  0  0  0  0  0  0  0
   -2.8001   -4.6262    1.6896 H   0  0  0  0  0  0  0  0  0  0  0  0
    2.7669   -3.4573   -0.6636 H   0  0  0  0  0  0  0  0  0  0  0  0
    5.2318   -3.4497   -0.7730 H   0  0  0  0  0  0  0  0  0  0  0  0
    6.4680   -1.3188   -0.5658 H   0  0  0  0  0  0  0  0  0  0  0  0
    5.2108    0.8186   -0.2463 H   0  0  0  0  0  0  0  0  0  0  0  0
    1.8243    5.1712    0.5076 H   0  0  0  0  0  0  0  0  0  0  0  0
   -1.1395    4.8125    0.6253 H   0  0  0  0  0  0  0  0  0  0  0  0
   -3.5874    5.1133    0.8205 H   0  0  0  0  0  0  0  0  0  0  0  0
   -5.0124    3.1136    0.6180 H   0  0  0  0  0  0  0  0  0  0  0  0
   -4.0199    0.8694    0.2479 H   0  0  0  0  0  0  0  0  0  0  0  0
  2  1  1  6
  2  3  1  0
  3  4  1  0
  4  5  1  0
  5  6  1  0
  6  7  1  1
  6  8  1  0
  8  9  1  0
  4 10  1  0
 10 11  1  0
 11 12  2  0
 12 13  1  0
 13 14  2  0
 14 15  1  0
 15 16  2  0
 16 17  1  0
 17 18  2  0
 18 19  1  0
 19 20  2  0
 19 21  1  0
 21 22  1  0
 22 23  2  0
 23 24  1  0
 24 25  2  0
 25 26  1  0
 26 27  2  0
 27 28  1  0
 28 29  2  0
 29 30  1  0
 30 31  1  0
 31 32  2  0
  6  2  1  0
 32 10  1  0
 30  2  1  0
 16 11  1  0
 32 17  1  0
 22 18  1  0
 31 23  1  0
 29 24  1  0
  1 33  1  0
  1 34  1  0
  1 35  1  0
  4 36  1  6
  5 37  1  0
  5 38  1  0
  7 39  1  0
  8 40  1  0
  8 41  1  0
  9 42  1  0
 12 43  1  0
 13 44  1  0
 14 45  1  0
 15 46  1  0
 21 47  1  0
 25 48  1  0
 26 49  1  0
 27 50  1  0
 28 51  1  0
M  END
$$$$
[H]c1nc([H])c([H])c(C([H])([H])n2nnc(-c3c(OC([H])([H])[H])c(OC([H])([H])[H])c([H])c4c([H])c([H])sc34)n2)c1[H]
     RDKit          3D

 40 43  0  0  0  0  0  0  0  0999 V2000
   -1.3417   -0.4232    0.1160 C   0  0  0  0  0  0  0  0  0  0  0  0
   -0.0502   -1.0474   -0.0703 C   0  0  0  0  0  0  0  0  0  0  0  0
    1.0382   -0.4541   -0.6386 N   0  0  0  0  0  0  0  0  0  0  0  0
    2.0509   -1.3106   -0.6498 N   0  0  0  0  0  0  0  0  0  0  0  0
    3.3816   -1.0644   -1.1685 C   0  0  0  0  0  0  0  0  0  0  0  0
    4.2987   -0.5164   -0.1432 C   0  0  0  0  0  0  0  0  0  0  0  0
    5.0682   -1.3306    0.6600 C   0  0  0  0  0  0  0  0  0  0  0  0
    5.8841   -0.7233    1.5775 C   0  0  0  0  0  0  0  0  0  0  0  0
    5.9887    0.5903    1.7505 N   0  0  0  0  0  0  0  0  0  0  0  0
    5.2441    1.4091    0.9746 C   0  0  0  0  0  0  0  0  0  0  0  0
    4.3979    0.8500    0.0262 C   0  0  0  0  0  0  0  0  0  0  0  0
    1.6343   -2.4531   -0.0959 N   0  0  0  0  0  0  0  0  0  0  0  0
    0.3679   -2.2788    0.2477 N   0  0  0  0  0  0  0  0  0  0  0  0
   -1.5735    0.2703    1.3129 C   0  0  0  0  0  0  0  0  0  0  0  0
   -2.7424    0.8982    1.6076 C   0  0  0  0  0  0  0  0  0  0  0  0
   -2.8269    1.5289    2.8000 C   0  0  0  0  0  0  0  0  0  0  0  0
   -1.7235    1.4798    3.6095 C   0  0  0  0  0  0  0  0  0  0  0  0
   -0.6156    0.5653    2.6911 S   0  0  0  0  0  0  0  0  0  0  0  0
   -3.7420    0.8169    0.6225 C   0  0  0  0  0  0  0  0  0  0  0  0
   -3.5128    0.1412   -0.5408 C   0  0  0  0  0  0  0  0  0  0  0  0
   -4.5064    0.0646   -1.5116 O   0  0  0  0  0  0  0  0  0  0  0  0
   -5.7535    0.6839   -1.2984 C   0  0  0  0  0  0  0  0  0  0  0  0
   -2.3222   -0.4899   -0.8242 C   0  0  0  0  0  0  0  0  0  0  0  0
   -2.1120   -1.1659   -2.0036 O   0  0  0  0  0  0  0  0  0  0  0  0
   -1.5831   -0.5255   -3.1489 C   0  0  0  0  0  0  0  0  0  0  0  0
    3.7804   -2.0450   -1.5158 H   0  0  0  0  0  0  0  0  0  0  0  0
    3.2929   -0.3887   -2.0571 H   0  0  0  0  0  0  0  0  0  0  0  0
    5.0269   -2.4070    0.5667 H   0  0  0  0  0  0  0  0  0  0  0  0
    6.4875   -1.3810    2.2066 H   0  0  0  0  0  0  0  0  0  0  0  0
    5.3241    2.4856    1.1102 H   0  0  0  0  0  0  0  0  0  0  0  0
    3.7988    1.4854   -0.5990 H   0  0  0  0  0  0  0  0  0  0  0  0
   -3.7218    2.0858    3.1780 H   0  0  0  0  0  0  0  0  0  0  0  0
   -1.5899    1.9240    4.6082 H   0  0  0  0  0  0  0  0  0  0  0  0
   -4.7131    1.2739    0.7379 H   0  0  0  0  0  0  0  0  0  0  0  0
   -5.6826    1.7938   -1.2426 H   0  0  0  0  0  0  0  0  0  0  0  0
   -6.4127    0.4606   -2.1773 H   0  0  0  0  0  0  0  0  0  0  0  0
   -6.2747    0.3362   -0.3960 H   0  0  0  0  0  0  0  0  0  0  0  0
   -2.3630   -0.4102   -3.9088 H   0  0  0  0  0  0  0  0  0  0  0  0
   -0.7783   -1.1757   -3.5405 H   0  0  0  0  0  0  0  0  0  0  0  0
   -1.1232    0.4468   -2.8730 H   0  0  0  0  0  0  0  0  0  0  0  0
  1  2  1  0
  2  3  2  0
  3  4  1  0
  4  5  1  0
  5  6  1  0
  6  7  2  0
  7  8  1  0
  8  9  2  0
  9 10  1  0
 10 11  2  0
  4 12  1  0
 12 13  2  0
  1 14  1  0
 14 15  2  0
 15 16  1  0
 16 17  2  0
 17 18  1  0
 15 19  1  0
 19 20  2  0
 20 21  1  0
 21 22  1  0
 20 23  1  0
 23 24  1  0
 24 25  1  0
 23  1  2  0
 13  2  1  0
 18 14  1  0
 11  6  1  0
  5 26  1  0
  5 27  1  0
  7 28  1  0
  8 29  1  0
 10 30  1  0
 11 31  1  0
 16 32  1  0
 17 33  1  0
 19 34  1  0
 22 35  1  0
 22 36  1  0
 22 37  1  0
 25 38  1  0
 25 39  1  0
 25 40  1  0
M  END
$$$$
[H]c1c([H])c([C@]2([H])N(C([H])([H])[H])C([H])([H])C([H])([H])C2([H])[H])c([H])c([H])c1F
     RDKit          3D

 27 28  0  0  0  0  0  0  0  0999 V2000
   -1.2647    2.2698    0.2043 C   0  0  0  0  0  0  0  0  0  0  0  0
   -1.2867    0.8333    0.3992 N   0  0  0  0  0  0  0  0  0  0  0  0
   -2.6612    0.3402    0.2688 C   0  0  0  0  0  0  0  0  0  0  0  0
   -2.4628   -1.1449    0.3957 C   0  0  0  0  0  0  0  0  0  0  0  0
   -1.1296   -1.3423   -0.2624 C   0  0  0  0  0  0  0  0  0  0  0  0
   -0.5567    0.0657   -0.5377 C   0  0  2  0  0  0  0  0  0  0  0  0
    0.9023   -0.0789   -0.2986 C   0  0  0  0  0  0  0  0  0  0  0  0
    1.4969   -1.3276   -0.5354 C   0  0  0  0  0  0  0  0  0  0  0  0
    2.8368   -1.5240   -0.3300 C   0  0  0  0  0  0  0  0  0  0  0  0
    3.6440   -0.5062    0.1142 C   0  0  0  0  0  0  0  0  0  0  0  0
    4.9861   -0.6849    0.3250 F   0  0  0  0  0  0  0  0  0  0  0  0
    3.0570    0.7099    0.3429 C   0  0  0  0  0  0  0  0  0  0  0  0
    1.6971    0.9363    0.1421 C   0  0  0  0  0  0  0  0  0  0  0  0
   -2.3220    2.6189    0.2161 H   0  0  0  0  0  0  0  0  0  0  0  0
   -0.8239    2.7117    1.1361 H   0  0  0  0  0  0  0  0  0  0  0  0
   -0.7589    2.5966   -0.7017 H   0  0  0  0  0  0  0  0  0  0  0  0
   -3.2945    0.7558    1.0744 H   0  0  0  0  0  0  0  0  0  0  0  0
   -3.0657    0.5345   -0.7396 H   0  0  0  0  0  0  0  0  0  0  0  0
   -2.4544   -1.3614    1.4993 H   0  0  0  0  0  0  0  0  0  0  0  0
   -3.2606   -1.7263   -0.1134 H   0  0  0  0  0  0  0  0  0  0  0  0
   -0.4904   -1.8366    0.5324 H   0  0  0  0  0  0  0  0  0  0  0  0
   -1.1511   -1.9509   -1.1692 H   0  0  0  0  0  0  0  0  0  0  0  0
   -0.7685    0.2684   -1.5949 H   0  0  0  0  0  0  0  0  0  0  0  0
    0.8684   -2.1589   -0.8990 H   0  0  0  0  0  0  0  0  0  0  0  0
    3.3234   -2.4879   -0.5071 H   0  0  0  0  0  0  0  0  0  0  0  0
    3.6525    1.5646    0.6997 H   0  0  0  0  0  0  0  0  0  0  0  0
    1.2873    1.9252    0.3389 H   0  0  0  0  0  0  0  0  0  0  0  0
  1  2  1  0
  2  3  1  0
  3  4  1  0
  4  5  1  0
  5  6  1  0
  6  7  1  0
  7  8  2  0
  8  9  1  0
  9 10  2  0
 10 11  1  0
 10 12  1  0
 12 13  2  0
  6  2  1  0
 13  7  1  0
  1 14  1  0
  1 15  1  0
  1 16  1  0
  3 17  1  0
  3 18  1  0
  4 19  1  0
  4 20  1  0
  5 21  1  0
  5 22  1  0
  6 23  1  6
  8 24  1  0
  9 25  1  0
 12 26  1  0
 13 27  1  0
M  END
$$$$
[H]c1c([H])c(N([H])C(=O)N([H])C2([H])C([H])([H])C([H])([H])N(C(=O)c3c([H])c([H])c(C([H])([H])C([H])([H])C([H])([H])[H])c([H])c3[H])C([H])([H])C2([H])[H])c([H])c([H])c1OC(F)(F)F
     RDKit          3D

 58 60  0  0  0  0  0  0  0  0999 V2000
   -7.0169    2.9500    0.3941 C   0  0  0  0  0  0  0  0  0  0  0  0
   -8.0814    1.9699   -0.0455 C   0  0  0  0  0  0  0  0  0  0  0  0
   -7.7850    0.5525    0.3003 C   0  0  0  0  0  0  0  0  0  0  0  0
   -6.5397    0.0183   -0.2869 C   0  0  0  0  0  0  0  0  0  0  0  0
   -5.3987    0.1356    0.4634 C   0  0  0  0  0  0  0  0  0  0  0  0
   -4.1893   -0.3538   -0.0464 C   0  0  0  0  0  0  0  0  0  0  0  0
   -4.0597   -0.9567   -1.2681 C   0  0  0  0  0  0  0  0  0  0  0  0
   -5.2689   -1.0486   -1.9970 C   0  0  0  0  0  0  0  0  0  0  0  0
   -6.4567   -0.5721   -1.5064 C   0  0  0  0  0  0  0  0  0  0  0  0
   -2.8559   -1.5136   -1.8229 C   0  0  0  0  0  0  0  0  0  0  0  0
   -2.9541   -1.8852   -3.0711 O   0  0  0  0  0  0  0  0  0  0  0  0
   -1.6051   -1.7290   -1.2673 N   0  0  0  0  0  0  0  0  0  0  0  0
   -1.1825   -1.4757    0.0656 C   0  0  0  0  0  0  0  0  0  0  0  0
    0.1661   -2.1470    0.3686 C   0  0  0  0  0  0  0  0  0  0  0  0
    1.1982   -1.6030   -0.5662 C   0  0  0  0  0  0  0  0  0  0  0  0
    0.6246   -1.2772   -1.9324 C   0  0  0  0  0  0  0  0  0  0  0  0
   -0.5158   -2.2807   -2.1479 C   0  0  0  0  0  0  0  0  0  0  0  0
    1.8962   -0.4895   -0.0026 N   0  0  0  0  0  0  0  0  0  0  0  0
    3.3225   -0.5996    0.2287 C   0  0  0  0  0  0  0  0  0  0  0  0
    3.8804   -1.6876   -0.0882 O   0  0  0  0  0  0  0  0  0  0  0  0
    4.0303    0.4740    0.7849 N   0  0  0  0  0  0  0  0  0  0  0  0
    5.4051    0.4749    1.0327 C   0  0  0  0  0  0  0  0  0  0  0  0
    6.3051   -0.3142    0.3674 C   0  0  0  0  0  0  0  0  0  0  0  0
    7.6643   -0.2782    0.7042 C   0  0  0  0  0  0  0  0  0  0  0  0
    8.1354    0.5418    1.7017 C   0  0  0  0  0  0  0  0  0  0  0  0
    9.4758    0.5670    2.0234 O   0  0  0  0  0  0  0  0  0  0  0  0
   10.3186    1.4751    1.3646 C   0  0  0  0  0  0  0  0  0  0  0  0
   11.6002    1.2783    1.8837 F   0  0  0  0  0  0  0  0  0  0  0  0
    9.9524    2.7933    1.6315 F   0  0  0  0  0  0  0  0  0  0  0  0
   10.3804    1.3129    0.0062 F   0  0  0  0  0  0  0  0  0  0  0  0
    7.1926    1.3207    2.3448 C   0  0  0  0  0  0  0  0  0  0  0  0
    5.8756    1.3206    2.0572 C   0  0  0  0  0  0  0  0  0  0  0  0
   -6.6386    2.6618    1.3914 H   0  0  0  0  0  0  0  0  0  0  0  0
   -6.2333    3.0701   -0.3639 H   0  0  0  0  0  0  0  0  0  0  0  0
   -7.4807    3.9715    0.5266 H   0  0  0  0  0  0  0  0  0  0  0  0
   -8.3543    2.1145   -1.1166 H   0  0  0  0  0  0  0  0  0  0  0  0
   -9.0173    2.2428    0.5179 H   0  0  0  0  0  0  0  0  0  0  0  0
   -7.7612    0.4365    1.3854 H   0  0  0  0  0  0  0  0  0  0  0  0
   -8.6279   -0.0661   -0.1100 H   0  0  0  0  0  0  0  0  0  0  0  0
   -5.4269    0.6035    1.4499 H   0  0  0  0  0  0  0  0  0  0  0  0
   -3.3300   -0.2113    0.5786 H   0  0  0  0  0  0  0  0  0  0  0  0
   -5.2223   -1.5148   -2.9642 H   0  0  0  0  0  0  0  0  0  0  0  0
   -7.3735   -0.6534   -2.0822 H   0  0  0  0  0  0  0  0  0  0  0  0
   -1.8797   -1.9232    0.8376 H   0  0  0  0  0  0  0  0  0  0  0  0
   -1.0214   -0.4118    0.3001 H   0  0  0  0  0  0  0  0  0  0  0  0
    0.4240   -2.0045    1.4355 H   0  0  0  0  0  0  0  0  0  0  0  0
    0.0553   -3.2256    0.2112 H   0  0  0  0  0  0  0  0  0  0  0  0
    1.9283   -2.4300   -0.7507 H   0  0  0  0  0  0  0  0  0  0  0  0
    1.4062   -1.3937   -2.6936 H   0  0  0  0  0  0  0  0  0  0  0  0
    0.1514   -0.2709   -1.9520 H   0  0  0  0  0  0  0  0  0  0  0  0
   -0.8702   -2.2790   -3.1968 H   0  0  0  0  0  0  0  0  0  0  0  0
   -0.1904   -3.2608   -1.7924 H   0  0  0  0  0  0  0  0  0  0  0  0
    1.4179    0.3944    0.2459 H   0  0  0  0  0  0  0  0  0  0  0  0
    3.4806    1.3536    1.0334 H   0  0  0  0  0  0  0  0  0  0  0  0
    6.0232   -0.9726   -0.4378 H   0  0  0  0  0  0  0  0  0  0  0  0
    8.3479   -0.9135    0.1597 H   0  0  0  0  0  0  0  0  0  0  0  0
    7.5453    1.9784    3.1375 H   0  0  0  0  0  0  0  0  0  0  0  0
    5.1332    1.9438    2.5755 H   0  0  0  0  0  0  0  0  0  0  0  0
  1  2  1  0
  2  3  1  0
  3  4  1  0
  4  5  2  0
  5  6  1  0
  6  7  2  0
  7  8  1  0
  8  9  2  0
  7 10  1  0
 10 11  2  0
 10 12  1  0
 12 13  1  0
 13 14  1  0
 14 15  1  0
 15 16  1  0
 16 17  1  0
 15 18  1  0
 18 19  1  0
 19 20  2  0
 19 21  1  0
 21 22  1  0
 22 23  2  0
 23 24  1  0
 24 25  2  0
 25 26  1  0
 26 27  1  0
 27 28  1  0
 27 29  1  0
 27 30  1  0
 25 31  1  0
 31 32  2  0
  9  4  1  0
 17 12  1  0
 32 22  1  0
  1 33  1  0
  1 34  1  0
  1 35  1  0
  2 36  1  0
  2 37  1  0
  3 38  1  0
  3 39  1  0
  5 40  1  0
  6 41  1  0
  8 42  1  0
  9 43  1  0
 13 44  1  0
 13 45  1  0
 14 46  1  0
 14 47  1  0
 15 48  1  0
 16 49  1  0
 16 50  1  0
 17 51  1  0
 17 52  1  0
 18 53  1  0
 21 54  1  0
 23 55  1  0
 24 56  1  0
 31 57  1  0
 32 58  1  0
M  END
$$$$
[H]OC(=O)C([H])([H])[C@@]([H])(C(=O)N([H])C([H])([H])C(=O)N([H])[H])N([H])C(=O)[C@@]([H])(N([H])C(=O)C([H])([H])N([H])C(=O)[C@@]([H])(N([H])C(=O)[C@@]([H])(N([H])C(=O)[C@@]1([H])N(S(=O)(=O)c2c([H])c([H])c(OC([H])([H])[H])c([H])c2[H])C([H])([H])C([H])([H])C1([H])[H])C([H])([H])c1c([H])c([H])c([H])c([H])c1[H])C([H])([H])C(=O)O[H])C([H])([H])C(=O)O[H]
     RDKit          3D

108110  0  0  0  0  0  0  0  0999 V2000
  -10.3168    6.3207    0.8153 C   0  0  0  0  0  0  0  0  0  0  0  0
  -11.0189    5.1173    0.5504 O   0  0  0  0  0  0  0  0  0  0  0  0
  -10.2712    3.9479    0.3002 C   0  0  0  0  0  0  0  0  0  0  0  0
   -8.9000    3.9839    0.3155 C   0  0  0  0  0  0  0  0  0  0  0  0
   -8.2452    2.7988    0.0609 C   0  0  0  0  0  0  0  0  0  0  0  0
   -8.9002    1.6277   -0.1975 C   0  0  0  0  0  0  0  0  0  0  0  0
  -10.2605    1.6004   -0.2104 C   0  0  0  0  0  0  0  0  0  0  0  0
  -10.9406    2.7778    0.0422 C   0  0  0  0  0  0  0  0  0  0  0  0
   -8.0004    0.1385   -0.5234 S   0  0  0  0  0  0  0  0  0  0  0  0
   -8.8408   -0.6149   -1.5120 O   0  0  0  0  0  0  0  0  0  0  0  0
   -6.6962    0.5714   -1.1337 O   0  0  0  0  0  0  0  0  0  0  0  0
   -7.6869   -0.7016    0.9189 N   0  0  0  0  0  0  0  0  0  0  0  0
   -8.9871   -1.0729    1.5601 C   0  0  0  0  0  0  0  0  0  0  0  0
   -9.4392   -2.2666    0.7585 C   0  0  0  0  0  0  0  0  0  0  0  0
   -8.1812   -2.8348    0.1390 C   0  0  0  0  0  0  0  0  0  0  0  0
   -7.1309   -1.9848    0.8423 C   0  0  1  0  0  0  0  0  0  0  0  0
   -5.7660   -2.2962    0.5875 C   0  0  0  0  0  0  0  0  0  0  0  0
   -5.5287   -3.5985    0.5611 O   0  0  0  0  0  0  0  0  0  0  0  0
   -4.6050   -1.5544    0.3633 N   0  0  0  0  0  0  0  0  0  0  0  0
   -3.2963   -2.1271    0.1545 C   0  0  1  0  0  0  0  0  0  0  0  0
   -2.7568   -1.7837   -1.1973 C   0  0  0  0  0  0  0  0  0  0  0  0
   -3.5116   -2.2443   -2.3501 C   0  0  0  0  0  0  0  0  0  0  0  0
   -4.4087   -1.4444   -3.0068 C   0  0  0  0  0  0  0  0  0  0  0  0
   -5.1559   -1.8688   -4.1038 C   0  0  0  0  0  0  0  0  0  0  0  0
   -5.0028   -3.1461   -4.5686 C   0  0  0  0  0  0  0  0  0  0  0  0
   -4.1057   -3.9667   -3.9231 C   0  0  0  0  0  0  0  0  0  0  0  0
   -3.3706   -3.5281   -2.8325 C   0  0  0  0  0  0  0  0  0  0  0  0
   -2.3539   -1.5392    1.1542 C   0  0  0  0  0  0  0  0  0  0  0  0
   -2.8080   -0.7295    1.9894 O   0  0  0  0  0  0  0  0  0  0  0  0
   -0.9808   -1.8600    1.1926 N   0  0  0  0  0  0  0  0  0  0  0  0
   -0.1150   -1.2751    2.1749 C   0  0  1  0  0  0  0  0  0  0  0  0
    0.5425   -2.3187    3.0083 C   0  0  0  0  0  0  0  0  0  0  0  0
    1.3866   -3.2769    2.3110 C   0  0  0  0  0  0  0  0  0  0  0  0
    1.6689   -3.2642    0.9566 O   0  0  0  0  0  0  0  0  0  0  0  0
    1.9301   -4.2221    2.9708 O   0  0  0  0  0  0  0  0  0  0  0  0
    0.8583   -0.3252    1.5672 C   0  0  0  0  0  0  0  0  0  0  0  0
    0.8737   -0.0644    0.3431 O   0  0  0  0  0  0  0  0  0  0  0  0
    1.8145    0.3178    2.3979 N   0  0  0  0  0  0  0  0  0  0  0  0
    2.8092    1.2490    1.9480 C   0  0  0  0  0  0  0  0  0  0  0  0
    3.7631    0.6710    0.9506 C   0  0  0  0  0  0  0  0  0  0  0  0
    3.6671   -0.5233    0.5669 O   0  0  0  0  0  0  0  0  0  0  0  0
    4.7872    1.4765    0.4319 N   0  0  0  0  0  0  0  0  0  0  0  0
    5.7131    0.8942   -0.5566 C   0  0  1  0  0  0  0  0  0  0  0  0
    5.6170    1.7697   -1.7628 C   0  0  0  0  0  0  0  0  0  0  0  0
    6.4512    1.2934   -2.8548 C   0  0  0  0  0  0  0  0  0  0  0  0
    7.5115    2.0229   -3.3354 O   0  0  0  0  0  0  0  0  0  0  0  0
    6.1687    0.1617   -3.3647 O   0  0  0  0  0  0  0  0  0  0  0  0
    7.0271    0.7594    0.0628 C   0  0  0  0  0  0  0  0  0  0  0  0
    7.1207    1.1491    1.2931 O   0  0  0  0  0  0  0  0  0  0  0  0
    8.1943    0.2529   -0.5225 N   0  0  0  0  0  0  0  0  0  0  0  0
    9.4730    0.1522    0.2474 C   0  0  1  0  0  0  0  0  0  0  0  0
    9.8299   -1.2881    0.1719 C   0  0  0  0  0  0  0  0  0  0  0  0
   11.0314   -1.7121    0.9132 C   0  0  0  0  0  0  0  0  0  0  0  0
   11.3501   -1.1127    2.1467 O   0  0  0  0  0  0  0  0  0  0  0  0
   11.7817   -2.6003    0.4739 O   0  0  0  0  0  0  0  0  0  0  0  0
   10.3700    1.0805   -0.4117 C   0  0  0  0  0  0  0  0  0  0  0  0
    9.8444    2.1296   -0.9286 O   0  0  0  0  0  0  0  0  0  0  0  0
   11.7624    0.9382   -0.5393 N   0  0  0  0  0  0  0  0  0  0  0  0
   12.5631    1.9649   -1.2222 C   0  0  0  0  0  0  0  0  0  0  0  0
   12.4652    3.2192   -0.4568 C   0  0  0  0  0  0  0  0  0  0  0  0
   13.1581    4.3553   -0.9681 N   0  0  0  0  0  0  0  0  0  0  0  0
   11.8254    3.3698    0.6038 O   0  0  0  0  0  0  0  0  0  0  0  0
   -9.5998    6.4477   -0.0324 H   0  0  0  0  0  0  0  0  0  0  0  0
  -11.0419    7.1387    0.8791 H   0  0  0  0  0  0  0  0  0  0  0  0
   -9.7070    6.2425    1.7323 H   0  0  0  0  0  0  0  0  0  0  0  0
   -8.3821    4.9110    0.5197 H   0  0  0  0  0  0  0  0  0  0  0  0
   -7.1451    2.8651    0.0808 H   0  0  0  0  0  0  0  0  0  0  0  0
  -10.8520    0.7141   -0.4069 H   0  0  0  0  0  0  0  0  0  0  0  0
  -12.0380    2.7591    0.0325 H   0  0  0  0  0  0  0  0  0  0  0  0
   -8.7312   -1.4146    2.5759 H   0  0  0  0  0  0  0  0  0  0  0  0
   -9.6745   -0.2436    1.6120 H   0  0  0  0  0  0  0  0  0  0  0  0
  -10.1495   -2.0411   -0.0433 H   0  0  0  0  0  0  0  0  0  0  0  0
   -9.9284   -3.0099    1.4262 H   0  0  0  0  0  0  0  0  0  0  0  0
   -8.1324   -2.8434   -0.9332 H   0  0  0  0  0  0  0  0  0  0  0  0
   -8.0940   -3.8998    0.4833 H   0  0  0  0  0  0  0  0  0  0  0  0
   -7.3078   -2.3821    1.9633 H   0  0  0  0  0  0  0  0  0  0  0  0
   -4.6295   -0.5197    0.3526 H   0  0  0  0  0  0  0  0  0  0  0  0
   -3.3374   -3.2508    0.2908 H   0  0  0  0  0  0  0  0  0  0  0  0
   -1.7076   -2.2034   -1.3021 H   0  0  0  0  0  0  0  0  0  0  0  0
   -2.5576   -0.6651   -1.2387 H   0  0  0  0  0  0  0  0  0  0  0  0
   -4.5273   -0.4175   -2.6501 H   0  0  0  0  0  0  0  0  0  0  0  0
   -5.8490   -1.1555   -4.5631 H   0  0  0  0  0  0  0  0  0  0  0  0
   -5.5908   -3.4509   -5.4182 H   0  0  0  0  0  0  0  0  0  0  0  0
   -3.9804   -4.9812   -4.2875 H   0  0  0  0  0  0  0  0  0  0  0  0
   -2.6750   -4.1945   -2.3486 H   0  0  0  0  0  0  0  0  0  0  0  0
   -0.5993   -2.5234    0.5030 H   0  0  0  0  0  0  0  0  0  0  0  0
   -0.7015   -0.6212    2.8964 H   0  0  0  0  0  0  0  0  0  0  0  0
   -0.2316   -2.9114    3.5770 H   0  0  0  0  0  0  0  0  0  0  0  0
    1.1759   -1.8712    3.8300 H   0  0  0  0  0  0  0  0  0  0  0  0
    1.3729   -3.9851    0.3150 H   0  0  0  0  0  0  0  0  0  0  0  0
    1.7685    0.0691    3.4389 H   0  0  0  0  0  0  0  0  0  0  0  0
    2.2706    2.0876    1.4548 H   0  0  0  0  0  0  0  0  0  0  0  0
    3.3211    1.6802    2.8132 H   0  0  0  0  0  0  0  0  0  0  0  0
    4.9160    2.4546    0.7143 H   0  0  0  0  0  0  0  0  0  0  0  0
    5.3707   -0.1422   -0.8083 H   0  0  0  0  0  0  0  0  0  0  0  0
    5.8310    2.8251   -1.4694 H   0  0  0  0  0  0  0  0  0  0  0  0
    4.5532    1.7657   -2.1216 H   0  0  0  0  0  0  0  0  0  0  0  0
    7.4907    3.0452   -3.2282 H   0  0  0  0  0  0  0  0  0  0  0  0
    8.2599   -0.0777   -1.4826 H   0  0  0  0  0  0  0  0  0  0  0  0
    9.2618    0.4612    1.3021 H   0  0  0  0  0  0  0  0  0  0  0  0
    8.9552   -1.8714    0.5731 H   0  0  0  0  0  0  0  0  0  0  0  0
    9.9144   -1.5975   -0.9034 H   0  0  0  0  0  0  0  0  0  0  0  0
   12.0847   -1.5025    2.7305 H   0  0  0  0  0  0  0  0  0  0  0  0
   12.3239    0.1453   -0.1890 H   0  0  0  0  0  0  0  0  0  0  0  0
   12.1511    2.1043   -2.2593 H   0  0  0  0  0  0  0  0  0  0  0  0
   13.5844    1.5884   -1.3481 H   0  0  0  0  0  0  0  0  0  0  0  0
   12.9497    4.6522   -1.9499 H   0  0  0  0  0  0  0  0  0  0  0  0
   13.8375    4.8532   -0.3770 H   0  0  0  0  0  0  0  0  0  0  0  0
  1  2  1  0
  2  3  1  0
  3  4  2  0
  4  5  1  0
  5  6  2  0
  6  7  1  0
  7  8  2  0
  6  9  1  0
  9 10  2  0
  9 11  2  0
  9 12  1  0
 12 13  1  0
 13 14  1  0
 14 15  1  0
 15 16  1  0
 16 17  1  0
 17 18  2  0
 17 19  1  0
 19 20  1  0
 20 21  1  0
 21 22  1  0
 22 23  2  0
 23 24  1  0
 24 25  2  0
 25 26  1  0
 26 27  2  0
 20 28  1  0
 28 29  2  0
 28 30  1  0
 30 31  1  0
 31 32  1  0
 32 33  1  0
 33 34  1  0
 33 35  2  0
 31 36  1  0
 36 37  2  0
 36 38  1  0
 38 39  1  0
 39 40  1  0
 40 41  2  0
 40 42  1  0
 42 43  1  0
 43 44  1  0
 44 45  1  0
 45 46  1  0
 45 47  2  0
 43 48  1  0
 48 49  2  0
 48 50  1  0
 50 51  1  0
 51 52  1  0
 52 53  1  0
 53 54  1  0
 53 55  2  0
 51 56  1  0
 56 57  2  0
 56 58  1  0
 58 59  1  0
 59 60  1  0
 60 61  1  0
 60 62  2  0
  8  3  1  0
 16 12  1  0
 27 22  1  0
  1 63  1  0
  1 64  1  0
  1 65  1  0
  4 66  1  0
  5 67  1  0
  7 68  1  0
  8 69  1  0
 13 70  1  0
 13 71  1  0
 14 72  1  0
 14 73  1  0
 15 74  1  0
 15 75  1  0
 16 76  1  1
 19 77  1  0
 20 78  1  6
 21 79  1  0
 21 80  1  0
 23 81  1  0
 24 82  1  0
 25 83  1  0
 26 84  1  0
 27 85  1  0
 30 86  1  0
 31 87  1  1
 32 88  1  0
 32 89  1  0
 34 90  1  0
 38 91  1  0
 39 92  1  0
 39 93  1  0
 42 94  1  0
 43 95  1  6
 44 96  1  0
 44 97  1  0
 46 98  1  0
 50 99  1  0
 51100  1  1
 52101  1  0
 52102  1  0
 54103  1  0
 58104  1  0
 59105  1  0
 59106  1  0
 61107  1  0
 61108  1  0
M  END
$$$$
[H]OC(=O)C([H])([H])[C@@]([H])(C(=O)N([H])[C@]([H])(C(=O)O[H])C([H])([H])c1c([H])c([H])c(O[H])c([H])c1[H])N([H])C(=O)[C@@]([H])(N([H])C(=O)c1c([H])c(OC([H])([H])[H])c(OC([H])([H])[H])c(OC([H])([H])[H])c1[H])C([H])([H])c1c([H])c([H])c([H])c([H])c1[H]
     RDKit          3D

 81 83  0  0  0  0  0  0  0  0999 V2000
   -6.1790    0.1171   -3.0185 C   0  0  0  0  0  0  0  0  0  0  0  0
   -6.4786    1.0392   -2.0685 O   0  0  0  0  0  0  0  0  0  0  0  0
   -6.0356    1.3265   -0.8227 C   0  0  0  0  0  0  0  0  0  0  0  0
   -5.0133    0.5336   -0.2819 C   0  0  0  0  0  0  0  0  0  0  0  0
   -4.4884    0.7393    0.9798 C   0  0  0  0  0  0  0  0  0  0  0  0
   -5.0149    1.7772    1.7127 C   0  0  0  0  0  0  0  0  0  0  0  0
   -6.0182    2.5650    1.1944 C   0  0  0  0  0  0  0  0  0  0  0  0
   -6.5803    3.6383    1.9090 O   0  0  0  0  0  0  0  0  0  0  0  0
   -6.0676    3.8830    3.2018 C   0  0  0  0  0  0  0  0  0  0  0  0
   -6.5447    2.3566   -0.0722 C   0  0  0  0  0  0  0  0  0  0  0  0
   -7.5647    3.1890   -0.5425 O   0  0  0  0  0  0  0  0  0  0  0  0
   -8.9190    2.8145   -0.2706 C   0  0  0  0  0  0  0  0  0  0  0  0
   -3.4026   -0.1291    1.4880 C   0  0  0  0  0  0  0  0  0  0  0  0
   -3.5212   -0.5543    2.6568 O   0  0  0  0  0  0  0  0  0  0  0  0
   -2.2899   -0.4550    0.6746 N   0  0  0  0  0  0  0  0  0  0  0  0
   -1.1847   -1.2874    1.0256 C   0  0  1  0  0  0  0  0  0  0  0  0
   -0.8060   -2.2620   -0.0428 C   0  0  0  0  0  0  0  0  0  0  0  0
   -1.8961   -3.1900   -0.4019 C   0  0  0  0  0  0  0  0  0  0  0  0
   -2.7762   -2.8093   -1.4035 C   0  0  0  0  0  0  0  0  0  0  0  0
   -3.8170   -3.6344   -1.7870 C   0  0  0  0  0  0  0  0  0  0  0  0
   -4.0237   -4.8475   -1.2056 C   0  0  0  0  0  0  0  0  0  0  0  0
   -3.1462   -5.2440   -0.1952 C   0  0  0  0  0  0  0  0  0  0  0  0
   -2.1019   -4.4091    0.1854 C   0  0  0  0  0  0  0  0  0  0  0  0
    0.0332   -0.4946    1.3762 C   0  0  0  0  0  0  0  0  0  0  0  0
    0.0116    0.7532    1.3707 O   0  0  0  0  0  0  0  0  0  0  0  0
    1.2286   -1.1617    1.7183 N   0  0  0  0  0  0  0  0  0  0  0  0
    2.4509   -0.4752    2.0792 C   0  0  1  0  0  0  0  0  0  0  0  0
    3.1016   -1.1146    3.2689 C   0  0  0  0  0  0  0  0  0  0  0  0
    2.2096   -1.0972    4.4448 C   0  0  0  0  0  0  0  0  0  0  0  0
    2.5729   -1.6363    5.6770 O   0  0  0  0  0  0  0  0  0  0  0  0
    1.0693   -0.5665    4.3103 O   0  0  0  0  0  0  0  0  0  0  0  0
    3.3922   -0.5329    0.9075 C   0  0  0  0  0  0  0  0  0  0  0  0
    3.0201   -1.0778   -0.1343 O   0  0  0  0  0  0  0  0  0  0  0  0
    4.6686    0.0460    1.0567 N   0  0  0  0  0  0  0  0  0  0  0  0
    5.6439    0.0376   -0.0496 C   0  0  1  0  0  0  0  0  0  0  0  0
    6.0143    1.4602   -0.2729 C   0  0  0  0  0  0  0  0  0  0  0  0
    6.9823    1.7406   -1.3284 C   0  0  0  0  0  0  0  0  0  0  0  0
    6.5450    1.9583   -2.6396 C   0  0  0  0  0  0  0  0  0  0  0  0
    7.4599    2.2420   -3.6249 C   0  0  0  0  0  0  0  0  0  0  0  0
    8.8131    2.3303   -3.4103 C   0  0  0  0  0  0  0  0  0  0  0  0
    9.7251    2.6143   -4.4253 O   0  0  0  0  0  0  0  0  0  0  0  0
    9.2516    2.1128   -2.1017 C   0  0  0  0  0  0  0  0  0  0  0  0
    8.3450    1.8272   -1.1059 C   0  0  0  0  0  0  0  0  0  0  0  0
    6.7636   -0.8515    0.3105 C   0  0  0  0  0  0  0  0  0  0  0  0
    7.8191   -1.1171   -0.5514 O   0  0  0  0  0  0  0  0  0  0  0  0
    6.7767   -1.3994    1.4338 O   0  0  0  0  0  0  0  0  0  0  0  0
   -5.1076   -0.2005   -2.9539 H   0  0  0  0  0  0  0  0  0  0  0  0
   -6.2821    0.5845   -4.0418 H   0  0  0  0  0  0  0  0  0  0  0  0
   -6.8647   -0.7569   -2.9792 H   0  0  0  0  0  0  0  0  0  0  0  0
   -4.6137   -0.2764   -0.8799 H   0  0  0  0  0  0  0  0  0  0  0  0
   -4.6199    1.9486    2.6995 H   0  0  0  0  0  0  0  0  0  0  0  0
   -6.4151    3.1730    3.9639 H   0  0  0  0  0  0  0  0  0  0  0  0
   -4.9442    3.8984    3.1577 H   0  0  0  0  0  0  0  0  0  0  0  0
   -6.3494    4.9168    3.5618 H   0  0  0  0  0  0  0  0  0  0  0  0
   -9.6026    3.0044   -1.1039 H   0  0  0  0  0  0  0  0  0  0  0  0
   -9.2557    3.2962    0.6928 H   0  0  0  0  0  0  0  0  0  0  0  0
   -8.9301    1.7168   -0.0437 H   0  0  0  0  0  0  0  0  0  0  0  0
   -2.2914   -0.0235   -0.3046 H   0  0  0  0  0  0  0  0  0  0  0  0
   -1.4512   -1.8166    1.9686 H   0  0  0  0  0  0  0  0  0  0  0  0
    0.0236   -2.8938    0.3315 H   0  0  0  0  0  0  0  0  0  0  0  0
   -0.4144   -1.7142   -0.9226 H   0  0  0  0  0  0  0  0  0  0  0  0
   -2.6844   -1.8628   -1.9126 H   0  0  0  0  0  0  0  0  0  0  0  0
   -4.5139   -3.3468   -2.5730 H   0  0  0  0  0  0  0  0  0  0  0  0
   -4.8430   -5.5014   -1.5100 H   0  0  0  0  0  0  0  0  0  0  0  0
   -3.3278   -6.2036    0.2526 H   0  0  0  0  0  0  0  0  0  0  0  0
   -1.4471   -4.7555    0.9764 H   0  0  0  0  0  0  0  0  0  0  0  0
    1.2995   -2.2200    1.7303 H   0  0  0  0  0  0  0  0  0  0  0  0
    2.2603    0.6071    2.3161 H   0  0  0  0  0  0  0  0  0  0  0  0
    4.0127   -0.5178    3.5433 H   0  0  0  0  0  0  0  0  0  0  0  0
    3.3940   -2.1784    3.0586 H   0  0  0  0  0  0  0  0  0  0  0  0
    1.9873   -2.3245    6.1449 H   0  0  0  0  0  0  0  0  0  0  0  0
    4.9824    0.5031    1.9505 H   0  0  0  0  0  0  0  0  0  0  0  0
    5.1256   -0.4002   -0.9365 H   0  0  0  0  0  0  0  0  0  0  0  0
    5.0727    2.0426   -0.4251 H   0  0  0  0  0  0  0  0  0  0  0  0
    6.4442    1.8537    0.6905 H   0  0  0  0  0  0  0  0  0  0  0  0
    5.4710    1.8943   -2.8499 H   0  0  0  0  0  0  0  0  0  0  0  0
    7.1123    2.4117   -4.6503 H   0  0  0  0  0  0  0  0  0  0  0  0
   10.0963    1.7906   -4.9223 H   0  0  0  0  0  0  0  0  0  0  0  0
   10.3062    2.1769   -1.9037 H   0  0  0  0  0  0  0  0  0  0  0  0
    8.6602    1.6488   -0.0675 H   0  0  0  0  0  0  0  0  0  0  0  0
    7.6818   -1.2294   -1.5596 H   0  0  0  0  0  0  0  0  0  0  0  0
  1  2  1  0
  2  3  1  0
  3  4  2  0
  4  5  1  0
  5  6  2  0
  6  7  1  0
  7  8  1  0
  8  9  1  0
  7 10  2  0
 10 11  1  0
 11 12  1  0
  5 13  1  0
 13 14  2  0
 13 15  1  0
 15 16  1  0
 16 17  1  0
 17 18  1  0
 18 19  2  0
 19 20  1  0
 20 21  2  0
 21 22  1  0
 22 23  2  0
 16 24  1  0
 24 25  2  0
 24 26  1  0
 26 27  1  0
 27 28  1  0
 28 29  1  0
 29 30  1  0
 29 31  2  0
 27 32  1  0
 32 33  2  0
 32 34  1  0
 34 35  1  0
 35 36  1  0
 36 37  1  0
 37 38  2  0
 38 39  1  0
 39 40  2  0
 40 41  1  0
 40 42  1  0
 42 43  2  0
 35 44  1  0
 44 45  1  0
 44 46  2  0
 10  3  1  0
 23 18  1  0
 43 37  1  0
  1 47  1  0
  1 48  1  0
  1 49  1  0
  4 50  1  0
  6 51  1  0
  9 52  1  0
  9 53  1  0
  9 54  1  0
 12 55  1  0
 12 56  1  0
 12 57  1  0
 15 58  1  0
 16 59  1  1
 17 60  1  0
 17 61  1  0
 19 62  1  0
 20 63  1  0
 21 64  1  0
 22 65  1  0
 23 66  1  0
 26 67  1  0
 27 68  1  1
 28 69  1  0
 28 70  1  0
 30 71  1  0
 34 72  1  0
 35 73  1  6
 36 74  1  0
 36 75  1  0
 38 76  1  0
 39 77  1  0
 41 78  1  0
 42 79  1  0
 43 80  1  0
 45 81  1  0
M  END
$$$$
[H]/C(C(=O)N1C([H])([H])C([H])([H])N(C([H])([H])[H])C([H])([H])C1([H])[H])=C(/[H])c1c([H])nc2c(c1[H])N([H])C(C([H])([H])[H])(C([H])([H])[H])C(=O)N2[H]
     RDKit          3D

 47 49  0  0  0  0  0  0  0  0999 V2000
   -3.8680    1.0139   -0.3457 C   0  0  0  0  0  0  0  0  0  0  0  0
   -3.8270   -0.3627    0.1092 N   0  0  0  0  0  0  0  0  0  0  0  0
   -2.5802   -0.9793    0.3909 C   0  0  0  0  0  0  0  0  0  0  0  0
   -1.3166   -0.2828    0.2422 C   0  0  0  0  0  0  0  0  0  0  0  0
   -0.1518   -0.8102    0.4895 C   0  0  0  0  0  0  0  0  0  0  0  0
    1.1316   -0.1374    0.3499 C   0  0  0  0  0  0  0  0  0  0  0  0
    2.3139   -0.8023    0.6434 C   0  0  0  0  0  0  0  0  0  0  0  0
    3.5520   -0.2023    0.5248 C   0  0  0  0  0  0  0  0  0  0  0  0
    3.6524    1.1051    0.1017 C   0  0  0  0  0  0  0  0  0  0  0  0
    2.5120    1.7494   -0.1824 N   0  0  0  0  0  0  0  0  0  0  0  0
    1.2799    1.1670   -0.0693 C   0  0  0  0  0  0  0  0  0  0  0  0
    4.9160    1.7450   -0.0261 N   0  0  0  0  0  0  0  0  0  0  0  0
    6.0857    1.0013    0.2949 C   0  0  0  0  0  0  0  0  0  0  0  0
    7.1344    1.6050    0.6407 O   0  0  0  0  0  0  0  0  0  0  0  0
    6.0061   -0.4787    0.2032 C   0  0  0  0  0  0  0  0  0  0  0  0
    5.9693   -0.8175   -1.2895 C   0  0  0  0  0  0  0  0  0  0  0  0
    7.1988   -1.1340    0.8192 C   0  0  0  0  0  0  0  0  0  0  0  0
    4.7596   -0.9031    0.8297 N   0  0  0  0  0  0  0  0  0  0  0  0
   -2.5515   -2.1719    0.7845 O   0  0  0  0  0  0  0  0  0  0  0  0
   -5.0897   -1.0485    0.2544 C   0  0  0  0  0  0  0  0  0  0  0  0
   -6.1056   -0.0472    0.7461 C   0  0  0  0  0  0  0  0  0  0  0  0
   -6.3256    0.9997   -0.2031 N   0  0  0  0  0  0  0  0  0  0  0  0
   -7.4137    0.7075   -1.1204 C   0  0  0  0  0  0  0  0  0  0  0  0
   -5.1771    1.3536   -0.9819 C   0  0  0  0  0  0  0  0  0  0  0  0
   -3.0814    1.1035   -1.1363 H   0  0  0  0  0  0  0  0  0  0  0  0
   -3.6634    1.6636    0.5288 H   0  0  0  0  0  0  0  0  0  0  0  0
   -1.3607    0.7371   -0.0957 H   0  0  0  0  0  0  0  0  0  0  0  0
   -0.1334   -1.8513    0.8327 H   0  0  0  0  0  0  0  0  0  0  0  0
    2.2567   -1.8294    0.9774 H   0  0  0  0  0  0  0  0  0  0  0  0
    0.3833    1.7220   -0.3086 H   0  0  0  0  0  0  0  0  0  0  0  0
    4.9976    2.7340   -0.3460 H   0  0  0  0  0  0  0  0  0  0  0  0
    4.9257   -1.0676   -1.5717 H   0  0  0  0  0  0  0  0  0  0  0  0
    6.2677    0.0538   -1.9104 H   0  0  0  0  0  0  0  0  0  0  0  0
    6.6870   -1.6352   -1.5308 H   0  0  0  0  0  0  0  0  0  0  0  0
    7.4306   -2.1200    0.3345 H   0  0  0  0  0  0  0  0  0  0  0  0
    7.0796   -1.2758    1.9312 H   0  0  0  0  0  0  0  0  0  0  0  0
    8.1163   -0.5157    0.7115 H   0  0  0  0  0  0  0  0  0  0  0  0
    4.7132   -1.7043    1.4964 H   0  0  0  0  0  0  0  0  0  0  0  0
   -5.4012   -1.4705   -0.7419 H   0  0  0  0  0  0  0  0  0  0  0  0
   -5.0405   -1.8859    0.9889 H   0  0  0  0  0  0  0  0  0  0  0  0
   -7.0879   -0.5282    0.9723 H   0  0  0  0  0  0  0  0  0  0  0  0
   -5.6729    0.4188    1.6633 H   0  0  0  0  0  0  0  0  0  0  0  0
   -8.1269    0.0023   -0.6528 H   0  0  0  0  0  0  0  0  0  0  0  0
   -7.9290    1.6346   -1.4540 H   0  0  0  0  0  0  0  0  0  0  0  0
   -7.0400    0.2091   -2.0396 H   0  0  0  0  0  0  0  0  0  0  0  0
   -5.2029    2.4503   -1.1421 H   0  0  0  0  0  0  0  0  0  0  0  0
   -5.2225    0.8859   -1.9870 H   0  0  0  0  0  0  0  0  0  0  0  0
  1  2  1  0
  2  3  1  0
  3  4  1  0
  4  5  2  0
  5  6  1  0
  6  7  2  0
  7  8  1  0
  8  9  2  0
  9 10  1  0
 10 11  2  0
  9 12  1  0
 12 13  1  0
 13 14  2  0
 13 15  1  0
 15 16  1  0
 15 17  1  0
 15 18  1  0
  3 19  2  0
  2 20  1  0
 20 21  1  0
 21 22  1  0
 22 23  1  0
 22 24  1  0
 24  1  1  0
 11  6  1  0
 18  8  1  0
  1 25  1  0
  1 26  1  0
  4 27  1  0
  5 28  1  0
  7 29  1  0
 11 30  1  0
 12 31  1  0
 16 32  1  0
 16 33  1  0
 16 34  1  0
 17 35  1  0
 17 36  1  0
 17 37  1  0
 18 38  1  0
 20 39  1  0
 20 40  1  0
 21 41  1  0
 21 42  1  0
 23 43  1  0
 23 44  1  0
 23 45  1  0
 24 46  1  0
 24 47  1  0
M  END
$$$$
[H]C1=C2C([H])([H])C([H])([H])[C@@]3([H])[C@]4([H])C([H])([H])C([H])([H])C(=O)[C@@]4(C([H])([H])[H])C([H])([H])C([H])([H])[C@]3([H])[C@@]2(C([H])([H])[H])C([H])([H])C([H])([H])C1=O
     RDKit          3D

 47 50  0  0  0  0  0  0  0  0999 V2000
    2.6396    1.2197    0.9531 C   0  0  0  0  0  0  0  0  0  0  0  0
    2.3973    0.7670   -0.4636 C   0  0  2  0  0  0  0  0  0  0  0  0
    1.5004    1.7083   -1.1903 C   0  0  0  0  0  0  0  0  0  0  0  0
    0.0585    1.4268   -1.1366 C   0  0  0  0  0  0  0  0  0  0  0  0
   -0.4200    0.1692   -0.5425 C   0  0  1  0  0  0  0  0  0  0  0  0
    0.5806   -0.5825    0.3126 C   0  0  1  0  0  0  0  0  0  0  0  0
    0.1337   -1.9966    0.5570 C   0  0  0  0  0  0  0  0  0  0  0  0
   -1.2806   -2.1434    0.9939 C   0  0  0  0  0  0  0  0  0  0  0  0
   -2.1914   -1.0906    0.4737 C   0  0  0  0  0  0  0  0  0  0  0  0
   -3.4545   -1.4865    0.2593 C   0  0  0  0  0  0  0  0  0  0  0  0
   -4.4611   -0.5844   -0.2442 C   0  0  0  0  0  0  0  0  0  0  0  0
   -5.5573   -0.9581   -0.6885 O   0  0  0  0  0  0  0  0  0  0  0  0
   -4.1546    0.8633   -0.2228 C   0  0  0  0  0  0  0  0  0  0  0  0
   -2.7156    1.0067   -0.6775 C   0  0  0  0  0  0  0  0  0  0  0  0
   -1.7394    0.2983    0.2106 C   0  0  2  0  0  0  0  0  0  0  0  0
   -1.5800    1.0895    1.4819 C   0  0  0  0  0  0  0  0  0  0  0  0
    1.8180   -0.6297   -0.5366 C   0  0  2  0  0  0  0  0  0  0  0  0
    2.9282   -1.4611   -0.0121 C   0  0  0  0  0  0  0  0  0  0  0  0
    4.1567   -0.7973   -0.6492 C   0  0  0  0  0  0  0  0  0  0  0  0
    3.7018    0.5344   -1.1052 C   0  0  0  0  0  0  0  0  0  0  0  0
    4.2746    1.2859   -1.8507 O   0  0  0  0  0  0  0  0  0  0  0  0
    1.7712    1.8477    1.2604 H   0  0  0  0  0  0  0  0  0  0  0  0
    2.7266    0.4035    1.6756 H   0  0  0  0  0  0  0  0  0  0  0  0
    3.5214    1.8914    0.9729 H   0  0  0  0  0  0  0  0  0  0  0  0
    1.8789    1.7499   -2.2564 H   0  0  0  0  0  0  0  0  0  0  0  0
    1.7402    2.7420   -0.8001 H   0  0  0  0  0  0  0  0  0  0  0  0
   -0.4404    2.2735   -0.5752 H   0  0  0  0  0  0  0  0  0  0  0  0
   -0.3602    1.5492   -2.1819 H   0  0  0  0  0  0  0  0  0  0  0  0
   -0.6589   -0.5442   -1.3888 H   0  0  0  0  0  0  0  0  0  0  0  0
    0.7781   -0.0594    1.2582 H   0  0  0  0  0  0  0  0  0  0  0  0
    0.7903   -2.4104    1.3648 H   0  0  0  0  0  0  0  0  0  0  0  0
    0.3907   -2.5922   -0.3519 H   0  0  0  0  0  0  0  0  0  0  0  0
   -1.3979   -2.1615    2.1070 H   0  0  0  0  0  0  0  0  0  0  0  0
   -1.6216   -3.1660    0.6591 H   0  0  0  0  0  0  0  0  0  0  0  0
   -3.7681   -2.5167    0.4605 H   0  0  0  0  0  0  0  0  0  0  0  0
   -4.7752    1.4295   -0.9440 H   0  0  0  0  0  0  0  0  0  0  0  0
   -4.3247    1.3148    0.7715 H   0  0  0  0  0  0  0  0  0  0  0  0
   -2.6491    0.5341   -1.6834 H   0  0  0  0  0  0  0  0  0  0  0  0
   -2.5320    2.0823   -0.7620 H   0  0  0  0  0  0  0  0  0  0  0  0
   -0.5943    1.5687    1.5658 H   0  0  0  0  0  0  0  0  0  0  0  0
   -1.7887    0.4451    2.3660 H   0  0  0  0  0  0  0  0  0  0  0  0
   -2.3447    1.9188    1.5386 H   0  0  0  0  0  0  0  0  0  0  0  0
    1.6351   -0.8716   -1.5820 H   0  0  0  0  0  0  0  0  0  0  0  0
    2.8557   -2.4806   -0.4224 H   0  0  0  0  0  0  0  0  0  0  0  0
    3.0100   -1.5258    1.0686 H   0  0  0  0  0  0  0  0  0  0  0  0
    4.9358   -0.6443    0.1243 H   0  0  0  0  0  0  0  0  0  0  0  0
    4.5869   -1.4168   -1.4417 H   0  0  0  0  0  0  0  0  0  0  0  0
  2  1  1  1
  2  3  1  0
  3  4  1  0
  4  5  1  0
  5  6  1  0
  6  7  1  0
  7  8  1  0
  8  9  1  0
  9 10  2  0
 10 11  1  0
 11 12  2  0
 11 13  1  0
 13 14  1  0
 14 15  1  0
 15 16  1  1
  6 17  1  0
 17 18  1  0
 18 19  1  0
 19 20  1  0
 20 21  2  0
 17  2  1  0
 20  2  1  0
 15  5  1  0
 15  9  1  0
  1 22  1  0
  1 23  1  0
  1 24  1  0
  3 25  1  0
  3 26  1  0
  4 27  1  0
  4 28  1  0
  5 29  1  6
  6 30  1  1
  7 31  1  0
  7 32  1  0
  8 33  1  0
  8 34  1  0
 10 35  1  0
 13 36  1  0
 13 37  1  0
 14 38  1  0
 14 39  1  0
 16 40  1  0
 16 41  1  0
 16 42  1  0
 17 43  1  6
 18 44  1  0
 18 45  1  0
 19 46  1  0
 19 47  1  0
M  END
$$$$
[H]c1c([H])c([H])c([C@@]2([H])C([H])([H])[C@@]2([H])N([H])C(=O)N2C([H])([H])C([H])([H])C([H])(c3noc(C([H])([H])[H])n3)C([H])([H])C2([H])[H])c([H])c1[H]
     RDKit          3D

 46 49  0  0  0  0  0  0  0  0999 V2000
   -0.3154   -2.6440   -1.9757 O   0  0  0  0  0  0  0  0  0  0  0  0
   -0.5206   -1.5829   -1.3125 C   0  0  0  0  0  0  0  0  0  0  0  0
   -1.8540   -1.1783   -0.9811 N   0  0  0  0  0  0  0  0  0  0  0  0
   -2.9502   -1.9781   -1.4028 C   0  0  2  0  0  0  0  0  0  0  0  0
   -4.2612   -1.4073   -1.8052 C   0  0  0  0  0  0  0  0  0  0  0  0
   -4.1226   -2.1544   -0.4978 C   0  0  2  0  0  0  0  0  0  0  0  0
   -4.2048   -1.4238    0.7821 C   0  0  0  0  0  0  0  0  0  0  0  0
   -4.2017   -0.0559    0.8362 C   0  0  0  0  0  0  0  0  0  0  0  0
   -4.2785    0.6485    2.0409 C   0  0  0  0  0  0  0  0  0  0  0  0
   -4.3602   -0.0561    3.2152 C   0  0  0  0  0  0  0  0  0  0  0  0
   -4.3634   -1.4365    3.1604 C   0  0  0  0  0  0  0  0  0  0  0  0
   -4.2884   -2.1184    1.9834 C   0  0  0  0  0  0  0  0  0  0  0  0
    0.6130   -0.8271   -0.9202 N   0  0  0  0  0  0  0  0  0  0  0  0
    1.9244   -1.3020   -1.2935 C   0  0  0  0  0  0  0  0  0  0  0  0
    2.7842   -0.0778   -1.5363 C   0  0  0  0  0  0  0  0  0  0  0  0
    2.9063    0.6095   -0.1782 C   0  0  0  0  0  0  0  0  0  0  0  0
    1.5828    1.0914    0.3214 C   0  0  0  0  0  0  0  0  0  0  0  0
    0.3938    0.3704   -0.1728 C   0  0  0  0  0  0  0  0  0  0  0  0
    3.9475    1.6688   -0.2076 C   0  0  0  0  0  0  0  0  0  0  0  0
    3.9093    2.8134   -0.9137 N   0  0  0  0  0  0  0  0  0  0  0  0
    5.0041    3.4938   -0.6860 O   0  0  0  0  0  0  0  0  0  0  0  0
    5.7810    2.8442    0.1522 C   0  0  0  0  0  0  0  0  0  0  0  0
    7.1235    3.3019    0.6565 C   0  0  0  0  0  0  0  0  0  0  0  0
    5.1275    1.7074    0.4529 N   0  0  0  0  0  0  0  0  0  0  0  0
   -1.9541   -0.3068   -0.4454 H   0  0  0  0  0  0  0  0  0  0  0  0
   -2.6169   -2.8727   -2.0212 H   0  0  0  0  0  0  0  0  0  0  0  0
   -4.8041   -1.9643   -2.6280 H   0  0  0  0  0  0  0  0  0  0  0  0
   -4.4734   -0.3320   -1.7999 H   0  0  0  0  0  0  0  0  0  0  0  0
   -4.4558   -3.2394   -0.4692 H   0  0  0  0  0  0  0  0  0  0  0  0
   -4.1397    0.5449   -0.0690 H   0  0  0  0  0  0  0  0  0  0  0  0
   -4.2735    1.7264    2.0450 H   0  0  0  0  0  0  0  0  0  0  0  0
   -4.4198    0.4721    4.1480 H   0  0  0  0  0  0  0  0  0  0  0  0
   -4.4299   -1.9741    4.1183 H   0  0  0  0  0  0  0  0  0  0  0  0
   -4.2931   -3.1807    1.9756 H   0  0  0  0  0  0  0  0  0  0  0  0
    1.9017   -1.9651   -2.1822 H   0  0  0  0  0  0  0  0  0  0  0  0
    2.3588   -1.8363   -0.4020 H   0  0  0  0  0  0  0  0  0  0  0  0
    3.7931   -0.3191   -1.8744 H   0  0  0  0  0  0  0  0  0  0  0  0
    2.2162    0.5695   -2.2375 H   0  0  0  0  0  0  0  0  0  0  0  0
    3.2532   -0.2008    0.5201 H   0  0  0  0  0  0  0  0  0  0  0  0
    1.5882    1.1655    1.4478 H   0  0  0  0  0  0  0  0  0  0  0  0
    1.5020    2.1718   -0.0029 H   0  0  0  0  0  0  0  0  0  0  0  0
   -0.2441    0.0879    0.7174 H   0  0  0  0  0  0  0  0  0  0  0  0
   -0.2935    1.0505   -0.7594 H   0  0  0  0  0  0  0  0  0  0  0  0
    7.6306    3.9410   -0.0764 H   0  0  0  0  0  0  0  0  0  0  0  0
    7.0253    3.7586    1.6612 H   0  0  0  0  0  0  0  0  0  0  0  0
    7.7526    2.3961    0.7853 H   0  0  0  0  0  0  0  0  0  0  0  0
  1  2  2  0
  2  3  1  0
  3  4  1  0
  4  5  1  0
  5  6  1  0
  6  7  1  0
  7  8  2  0
  8  9  1  0
  9 10  2  0
 10 11  1  0
 11 12  2  0
  2 13  1  0
 13 14  1  0
 14 15  1  0
 15 16  1  0
 16 17  1  0
 17 18  1  0
 16 19  1  0
 19 20  2  0
 20 21  1  0
 21 22  1  0
 22 23  1  0
 22 24  2  0
  6  4  1  0
 12  7  1  0
 18 13  1  0
 24 19  1  0
  3 25  1  0
  4 26  1  6
  5 27  1  0
  5 28  1  0
  6 29  1  1
  8 30  1  0
  9 31  1  0
 10 32  1  0
 11 33  1  0
 12 34  1  0
 14 35  1  0
 14 36  1  0
 15 37  1  0
 15 38  1  0
 16 39  1  0
 17 40  1  0
 17 41  1  0
 18 42  1  0
 18 43  1  0
 23 44  1  0
 23 45  1  0
 23 46  1  0
M  END
$$$$
[H]N=C(N([H])[H])N([H])C([H])([H])C([H])([H])C([H])([H])[C@@]([H])(C(=O)c1nc2c([H])c([H])c([H])c([H])c2s1)N([H])C(=O)[C@@]([H])(N([H])C(=O)C([H])([H])[H])C([H])([H])C([H])([H])C([H])([H])N([H])C(=N[H])N([H])[H]
     RDKit          3D

 65 66  0  0  0  0  0  0  0  0999 V2000
    4.4208    4.2913   -1.1393 C   0  0  0  0  0  0  0  0  0  0  0  0
    4.0050    2.8624   -1.2099 C   0  0  0  0  0  0  0  0  0  0  0  0
    4.5087    2.1945   -2.1720 O   0  0  0  0  0  0  0  0  0  0  0  0
    3.1153    2.3086   -0.2655 N   0  0  0  0  0  0  0  0  0  0  0  0
    2.6574    0.9430   -0.2537 C   0  0  1  0  0  0  0  0  0  0  0  0
    2.8669    0.2277    1.0300 C   0  0  0  0  0  0  0  0  0  0  0  0
    4.3177    0.1529    1.4427 C   0  0  0  0  0  0  0  0  0  0  0  0
    5.1629   -0.5984    0.4431 C   0  0  0  0  0  0  0  0  0  0  0  0
    4.7470   -1.9566    0.2441 N   0  0  0  0  0  0  0  0  0  0  0  0
    4.8440   -2.9769    1.2282 C   0  0  0  0  0  0  0  0  0  0  0  0
    6.0441   -3.2783    1.9138 N   0  0  0  0  0  0  0  0  0  0  0  0
    3.7876   -3.6611    1.5059 N   0  0  0  0  0  0  0  0  0  0  0  0
    1.1963    0.9777   -0.5573 C   0  0  0  0  0  0  0  0  0  0  0  0
    0.6933    1.9933   -1.1578 O   0  0  0  0  0  0  0  0  0  0  0  0
    0.3174   -0.0675   -0.2088 N   0  0  0  0  0  0  0  0  0  0  0  0
   -1.1103    0.0944   -0.5787 C   0  0  1  0  0  0  0  0  0  0  0  0
   -1.5558   -1.1938   -1.2722 C   0  0  0  0  0  0  0  0  0  0  0  0
   -2.9851   -1.0969   -1.6856 C   0  0  0  0  0  0  0  0  0  0  0  0
   -3.5545   -2.2617   -2.4203 C   0  0  0  0  0  0  0  0  0  0  0  0
   -3.5315   -3.4786   -1.6842 N   0  0  0  0  0  0  0  0  0  0  0  0
   -2.4155   -4.2798   -1.3482 C   0  0  0  0  0  0  0  0  0  0  0  0
   -1.3822   -4.4860   -2.2985 N   0  0  0  0  0  0  0  0  0  0  0  0
   -2.3635   -4.8337   -0.1668 N   0  0  0  0  0  0  0  0  0  0  0  0
   -1.8021    0.2770    0.7234 C   0  0  0  0  0  0  0  0  0  0  0  0
   -1.4223   -0.3557    1.7244 O   0  0  0  0  0  0  0  0  0  0  0  0
   -2.9332    1.2190    0.7969 C   0  0  0  0  0  0  0  0  0  0  0  0
   -3.6745    1.4932    1.8588 N   0  0  0  0  0  0  0  0  0  0  0  0
   -4.6357    2.3747    1.7702 C   0  0  0  0  0  0  0  0  0  0  0  0
   -5.5014    2.7642    2.8222 C   0  0  0  0  0  0  0  0  0  0  0  0
   -6.4579    3.7041    2.5618 C   0  0  0  0  0  0  0  0  0  0  0  0
   -6.6795    4.3247    1.3783 C   0  0  0  0  0  0  0  0  0  0  0  0
   -5.8243    3.9458    0.3239 C   0  0  0  0  0  0  0  0  0  0  0  0
   -4.8337    2.9828    0.5621 C   0  0  0  0  0  0  0  0  0  0  0  0
   -3.6080    2.2414   -0.3869 S   0  0  0  0  0  0  0  0  0  0  0  0
    3.5423    4.9320   -0.9487 H   0  0  0  0  0  0  0  0  0  0  0  0
    5.0832    4.3683   -0.2358 H   0  0  0  0  0  0  0  0  0  0  0  0
    4.9221    4.6360   -2.0611 H   0  0  0  0  0  0  0  0  0  0  0  0
    2.7548    2.9358    0.4944 H   0  0  0  0  0  0  0  0  0  0  0  0
    3.1226    0.4400   -1.1332 H   0  0  0  0  0  0  0  0  0  0  0  0
    2.3044    0.7152    1.8382 H   0  0  0  0  0  0  0  0  0  0  0  0
    2.4604   -0.8218    0.9383 H   0  0  0  0  0  0  0  0  0  0  0  0
    4.6840    1.1956    1.5824 H   0  0  0  0  0  0  0  0  0  0  0  0
    4.3778   -0.3531    2.4110 H   0  0  0  0  0  0  0  0  0  0  0  0
    6.2205   -0.5915    0.8381 H   0  0  0  0  0  0  0  0  0  0  0  0
    5.1605   -0.1070   -0.5582 H   0  0  0  0  0  0  0  0  0  0  0  0
    4.3229   -2.3057   -0.6734 H   0  0  0  0  0  0  0  0  0  0  0  0
    6.9622   -3.1980    1.4714 H   0  0  0  0  0  0  0  0  0  0  0  0
    5.9602   -3.5928    2.9166 H   0  0  0  0  0  0  0  0  0  0  0  0
    2.8924   -3.4667    1.0195 H   0  0  0  0  0  0  0  0  0  0  0  0
    0.5675   -0.9443    0.2798 H   0  0  0  0  0  0  0  0  0  0  0  0
   -1.2157    0.9264   -1.2773 H   0  0  0  0  0  0  0  0  0  0  0  0
   -1.3616   -2.0415   -0.5581 H   0  0  0  0  0  0  0  0  0  0  0  0
   -0.9345   -1.4047   -2.1633 H   0  0  0  0  0  0  0  0  0  0  0  0
   -3.6669   -0.9145   -0.8089 H   0  0  0  0  0  0  0  0  0  0  0  0
   -3.0780   -0.1688   -2.3432 H   0  0  0  0  0  0  0  0  0  0  0  0
   -3.0160   -2.4008   -3.4098 H   0  0  0  0  0  0  0  0  0  0  0  0
   -4.6054   -1.9825   -2.7179 H   0  0  0  0  0  0  0  0  0  0  0  0
   -4.4767   -3.8373   -1.3416 H   0  0  0  0  0  0  0  0  0  0  0  0
   -0.5346   -3.8938   -2.4114 H   0  0  0  0  0  0  0  0  0  0  0  0
   -1.4648   -5.2923   -2.9470 H   0  0  0  0  0  0  0  0  0  0  0  0
   -1.5456   -5.4312    0.1017 H   0  0  0  0  0  0  0  0  0  0  0  0
   -5.4308    2.3519    3.8033 H   0  0  0  0  0  0  0  0  0  0  0  0
   -7.1246    3.9956    3.3877 H   0  0  0  0  0  0  0  0  0  0  0  0
   -7.4141    5.0573    1.1527 H   0  0  0  0  0  0  0  0  0  0  0  0
   -5.8819    4.3465   -0.6537 H   0  0  0  0  0  0  0  0  0  0  0  0
  1  2  1  0
  2  3  2  0
  2  4  1  0
  4  5  1  0
  5  6  1  0
  6  7  1  0
  7  8  1  0
  8  9  1  0
  9 10  1  0
 10 11  1  0
 10 12  2  3
  5 13  1  0
 13 14  2  0
 13 15  1  0
 15 16  1  0
 16 17  1  0
 17 18  1  0
 18 19  1  0
 19 20  1  0
 20 21  1  0
 21 22  1  0
 21 23  2  3
 16 24  1  0
 24 25  2  0
 24 26  1  0
 26 27  2  0
 27 28  1  0
 28 29  2  0
 29 30  1  0
 30 31  2  0
 31 32  1  0
 32 33  2  0
 33 34  1  0
 34 26  1  0
 33 28  1  0
  1 35  1  0
  1 36  1  0
  1 37  1  0
  4 38  1  0
  5 39  1  6
  6 40  1  0
  6 41  1  0
  7 42  1  0
  7 43  1  0
  8 44  1  0
  8 45  1  0
  9 46  1  0
 11 47  1  0
 11 48  1  0
 12 49  1  0
 15 50  1  0
 16 51  1  6
 17 52  1  0
 17 53  1  0
 18 54  1  0
 18 55  1  0
 19 56  1  0
 19 57  1  0
 20 58  1  0
 22 59  1  0
 22 60  1  0
 23 61  1  0
 29 62  1  0
 30 63  1  0
 31 64  1  0
 32 65  1  0
M  END
$$$$
[H]c1c(C(=O)N(C([H])([H])[H])C([H])([H])C(C([H])([H])[H])(C([H])([H])[H])C([H])([H])[H])sc(C([H])([H])N([H])C(=O)[C@@]2([H])N([H])C([H])([H])c3c([H])c(N([H])S(=O)(=O)c4c([H])c([H])c(C(C([H])([H])[H])(C([H])([H])[H])C([H])([H])[H])c([H])c4[H])c([H])c([H])c3C2([H])[H])c1[H]
     RDKit          3D

 84 87  0  0  0  0  0  0  0  0999 V2000
    9.8362   -1.0122    2.2554 C   0  0  0  0  0  0  0  0  0  0  0  0
    8.7123   -0.5589    1.3832 N   0  0  0  0  0  0  0  0  0  0  0  0
    9.0654    0.1246    0.1931 C   0  0  0  0  0  0  0  0  0  0  0  0
    9.4052    1.5744    0.3337 C   0  0  0  0  0  0  0  0  0  0  0  0
    9.7080    2.1107   -1.0758 C   0  0  0  0  0  0  0  0  0  0  0  0
   10.6991    1.7354    1.1724 C   0  0  0  0  0  0  0  0  0  0  0  0
    8.4020    2.4553    0.9688 C   0  0  0  0  0  0  0  0  0  0  0  0
    7.4538   -0.7926    1.8743 C   0  0  0  0  0  0  0  0  0  0  0  0
    7.3603   -1.3043    3.0541 O   0  0  0  0  0  0  0  0  0  0  0  0
    6.2029   -0.5198    1.1716 C   0  0  0  0  0  0  0  0  0  0  0  0
    4.9168   -0.7197    1.6920 C   0  0  0  0  0  0  0  0  0  0  0  0
    3.8954   -0.4681    0.8799 C   0  0  0  0  0  0  0  0  0  0  0  0
    4.1446   -0.0382   -0.3891 C   0  0  0  0  0  0  0  0  0  0  0  0
    3.2414    0.2898   -1.5289 C   0  0  0  0  0  0  0  0  0  0  0  0
    1.8612    0.0475   -1.1685 N   0  0  0  0  0  0  0  0  0  0  0  0
    0.8907    0.1950   -2.2041 C   0  0  0  0  0  0  0  0  0  0  0  0
    1.2075    0.5237   -3.3872 O   0  0  0  0  0  0  0  0  0  0  0  0
   -0.5499   -0.0482   -1.9089 C   0  0  2  0  0  0  0  0  0  0  0  0
   -0.7469   -1.0654   -0.8361 C   0  0  0  0  0  0  0  0  0  0  0  0
   -2.0843   -1.6944   -0.9255 C   0  0  0  0  0  0  0  0  0  0  0  0
   -2.3929   -2.6296    0.0668 C   0  0  0  0  0  0  0  0  0  0  0  0
   -3.5978   -3.2828    0.0452 C   0  0  0  0  0  0  0  0  0  0  0  0
   -4.4952   -3.0122   -0.9558 C   0  0  0  0  0  0  0  0  0  0  0  0
   -5.7170   -3.7222   -1.0094 N   0  0  0  0  0  0  0  0  0  0  0  0
   -6.7940   -3.6924    0.3681 S   0  0  0  0  0  0  0  0  0  0  0  0
   -6.1481   -4.2293    1.5957 O   0  0  0  0  0  0  0  0  0  0  0  0
   -7.9876   -4.5356    0.0188 O   0  0  0  0  0  0  0  0  0  0  0  0
   -7.2515   -1.9936    0.5585 C   0  0  0  0  0  0  0  0  0  0  0  0
   -8.3472   -1.4904   -0.1109 C   0  0  0  0  0  0  0  0  0  0  0  0
   -8.7226   -0.1684   -0.0096 C   0  0  0  0  0  0  0  0  0  0  0  0
   -8.0017    0.7253    0.7838 C   0  0  0  0  0  0  0  0  0  0  0  0
   -6.9199    0.2077    1.4412 C   0  0  0  0  0  0  0  0  0  0  0  0
   -6.5361   -1.1204    1.3438 C   0  0  0  0  0  0  0  0  0  0  0  0
   -8.4364    2.1225    0.8401 C   0  0  0  0  0  0  0  0  0  0  0  0
   -8.8635    2.6008    2.1820 C   0  0  0  0  0  0  0  0  0  0  0  0
   -9.5541    2.3944   -0.1520 C   0  0  0  0  0  0  0  0  0  0  0  0
   -7.2443    2.9704    0.4049 C   0  0  0  0  0  0  0  0  0  0  0  0
   -4.1811   -2.0833   -1.9335 C   0  0  0  0  0  0  0  0  0  0  0  0
   -2.9868   -1.4070   -1.9473 C   0  0  0  0  0  0  0  0  0  0  0  0
   -2.6267   -0.4034   -2.9683 C   0  0  0  0  0  0  0  0  0  0  0  0
   -1.2107   -0.4273   -3.1243 N   0  0  0  0  0  0  0  0  0  0  0  0
    5.8468    0.0053   -0.4101 S   0  0  0  0  0  0  0  0  0  0  0  0
   10.7791   -1.0496    1.7026 H   0  0  0  0  0  0  0  0  0  0  0  0
    9.5462   -2.0630    2.5563 H   0  0  0  0  0  0  0  0  0  0  0  0
    9.8425   -0.4346    3.1913 H   0  0  0  0  0  0  0  0  0  0  0  0
   10.0576   -0.3532   -0.1660 H   0  0  0  0  0  0  0  0  0  0  0  0
    8.4145   -0.0213   -0.6797 H   0  0  0  0  0  0  0  0  0  0  0  0
   10.4257    1.4566   -1.5844 H   0  0  0  0  0  0  0  0  0  0  0  0
    8.7444    2.0756   -1.6240 H   0  0  0  0  0  0  0  0  0  0  0  0
   10.0088    3.1635   -1.0308 H   0  0  0  0  0  0  0  0  0  0  0  0
   10.4717    1.6359    2.2441 H   0  0  0  0  0  0  0  0  0  0  0  0
   11.0019    2.7977    1.0218 H   0  0  0  0  0  0  0  0  0  0  0  0
   11.4490    1.0360    0.8140 H   0  0  0  0  0  0  0  0  0  0  0  0
    8.8302    3.4523    1.2308 H   0  0  0  0  0  0  0  0  0  0  0  0
    7.9083    1.9979    1.8639 H   0  0  0  0  0  0  0  0  0  0  0  0
    7.5766    2.6766    0.2486 H   0  0  0  0  0  0  0  0  0  0  0  0
    4.8083   -1.0735    2.7450 H   0  0  0  0  0  0  0  0  0  0  0  0
    2.8347   -0.5997    1.2174 H   0  0  0  0  0  0  0  0  0  0  0  0
    3.5509   -0.3366   -2.4006 H   0  0  0  0  0  0  0  0  0  0  0  0
    3.3689    1.3627   -1.7552 H   0  0  0  0  0  0  0  0  0  0  0  0
    1.5275   -0.2213   -0.2335 H   0  0  0  0  0  0  0  0  0  0  0  0
   -1.0082    0.9318   -1.5637 H   0  0  0  0  0  0  0  0  0  0  0  0
    0.0460   -1.8643   -0.9370 H   0  0  0  0  0  0  0  0  0  0  0  0
   -0.6018   -0.6035    0.1864 H   0  0  0  0  0  0  0  0  0  0  0  0
   -1.6819   -2.8528    0.8695 H   0  0  0  0  0  0  0  0  0  0  0  0
   -3.7958   -4.0061    0.8400 H   0  0  0  0  0  0  0  0  0  0  0  0
   -5.9572   -4.2611   -1.8841 H   0  0  0  0  0  0  0  0  0  0  0  0
   -8.9129   -2.2030   -0.7357 H   0  0  0  0  0  0  0  0  0  0  0  0
   -9.5756    0.1658   -0.5511 H   0  0  0  0  0  0  0  0  0  0  0  0
   -6.3610    0.9053    2.0646 H   0  0  0  0  0  0  0  0  0  0  0  0
   -5.6713   -1.4856    1.8826 H   0  0  0  0  0  0  0  0  0  0  0  0
   -7.9874    3.0479    2.7019 H   0  0  0  0  0  0  0  0  0  0  0  0
   -9.4392    1.9043    2.7931 H   0  0  0  0  0  0  0  0  0  0  0  0
   -9.5558    3.4812    2.0146 H   0  0  0  0  0  0  0  0  0  0  0  0
   -9.7558    3.5041   -0.1837 H   0  0  0  0  0  0  0  0  0  0  0  0
   -9.2234    2.0737   -1.1606 H   0  0  0  0  0  0  0  0  0  0  0  0
  -10.4634    1.8450    0.1063 H   0  0  0  0  0  0  0  0  0  0  0  0
   -7.1722    2.8990   -0.6940 H   0  0  0  0  0  0  0  0  0  0  0  0
   -7.4050    4.0164    0.7446 H   0  0  0  0  0  0  0  0  0  0  0  0
   -6.3280    2.5573    0.8715 H   0  0  0  0  0  0  0  0  0  0  0  0
   -4.8868   -1.8558   -2.7373 H   0  0  0  0  0  0  0  0  0  0  0  0
   -2.9195    0.6357   -2.6742 H   0  0  0  0  0  0  0  0  0  0  0  0
   -3.0700   -0.6584   -3.9647 H   0  0  0  0  0  0  0  0  0  0  0  0
   -0.8739   -1.3418   -3.4935 H   0  0  0  0  0  0  0  0  0  0  0  0
  1  2  1  0
  2  3  1  0
  3  4  1  0
  4  5  1  0
  4  6  1  0
  4  7  1  0
  2  8  1  0
  8  9  2  0
  8 10  1  0
 10 11  2  0
 11 12  1  0
 12 13  2  0
 13 14  1  0
 14 15  1  0
 15 16  1  0
 16 17  2  0
 16 18  1  0
 18 19  1  0
 19 20  1  0
 20 21  2  0
 21 22  1  0
 22 23  2  0
 23 24  1  0
 24 25  1  0
 25 26  2  0
 25 27  2  0
 25 28  1  0
 28 29  2  0
 29 30  1  0
 30 31  2  0
 31 32  1  0
 32 33  2  0
 31 34  1  0
 34 35  1  0
 34 36  1  0
 34 37  1  0
 23 38  1  0
 38 39  2  0
 39 40  1  0
 40 41  1  0
 13 42  1  0
 42 10  1  0
 41 18  1  0
 39 20  1  0
 33 28  1  0
  1 43  1  0
  1 44  1  0
  1 45  1  0
  3 46  1  0
  3 47  1  0
  5 48  1  0
  5 49  1  0
  5 50  1  0
  6 51  1  0
  6 52  1  0
  6 53  1  0
  7 54  1  0
  7 55  1  0
  7 56  1  0
 11 57  1  0
 12 58  1  0
 14 59  1  0
 14 60  1  0
 15 61  1  0
 18 62  1  1
 19 63  1  0
 19 64  1  0
 21 65  1  0
 22 66  1  0
 24 67  1  0
 29 68  1  0
 30 69  1  0
 32 70  1  0
 33 71  1  0
 35 72  1  0
 35 73  1  0
 35 74  1  0
 36 75  1  0
 36 76  1  0
 36 77  1  0
 37 78  1  0
 37 79  1  0
 37 80  1  0
 38 81  1  0
 40 82  1  0
 40 83  1  0
 41 84  1  0
M  END
$$$$
[H]N=C(N([H])[H])N([H])C([H])([H])C([H])([H])C([H])([H])[C@@]1([H])C(=O)N([H])[C@@]([H])(C([H])([H])C([H])([H])C(=O)O[H])C(=O)N([H])[C@]([H])(C([H])([H])c2c([H])c([H])c(O[H])c([H])c2[H])C(=O)N2C([H])([H])C([H])([H])C([H])([H])[C@@]2([H])C(=O)N([H])[C@@]([H])(C([H])([H])c2c([H])c([H])c(O[H])c([H])c2[H])C(=O)N1[H]
     RDKit          3D

 95 98  0  0  0  0  0  0  0  0999 V2000
   -7.7864   -1.2680    0.4285 N   0  0  0  0  0  0  0  0  0  0  0  0
   -6.7405   -0.3391    0.7767 C   0  0  0  0  0  0  0  0  0  0  0  0
   -7.0211    0.8920    0.9386 N   0  0  0  0  0  0  0  0  0  0  0  0
   -5.4134   -0.8553    0.9473 N   0  0  0  0  0  0  0  0  0  0  0  0
   -4.9548   -1.8541   -0.0054 C   0  0  0  0  0  0  0  0  0  0  0  0
   -3.7113   -2.5594    0.3594 C   0  0  0  0  0  0  0  0  0  0  0  0
   -2.4458   -1.8985    0.5530 C   0  0  0  0  0  0  0  0  0  0  0  0
   -1.7109   -1.1697   -0.4911 C   0  0  2  0  0  0  0  0  0  0  0  0
   -2.4109   -0.0339   -0.9574 N   0  0  0  0  0  0  0  0  0  0  0  0
   -1.9335    1.2906   -0.5622 C   0  0  0  0  0  0  0  0  0  0  0  0
   -2.2687    2.2452   -1.3444 O   0  0  0  0  0  0  0  0  0  0  0  0
   -1.1312    1.5559    0.6263 C   0  0  2  0  0  0  0  0  0  0  0  0
   -2.0747    2.0165    1.7468 C   0  0  0  0  0  0  0  0  0  0  0  0
   -2.8238    3.2251    1.5314 C   0  0  0  0  0  0  0  0  0  0  0  0
   -2.3735    4.4461    1.9707 C   0  0  0  0  0  0  0  0  0  0  0  0
   -3.0943    5.5918    1.7724 C   0  0  0  0  0  0  0  0  0  0  0  0
   -4.2993    5.5509    1.1232 C   0  0  0  0  0  0  0  0  0  0  0  0
   -5.0209    6.7398    0.9318 O   0  0  0  0  0  0  0  0  0  0  0  0
   -4.7857    4.3421    0.6669 C   0  0  0  0  0  0  0  0  0  0  0  0
   -4.0343    3.2149    0.8840 C   0  0  0  0  0  0  0  0  0  0  0  0
   -0.0337    2.4753    0.4470 N   0  0  0  0  0  0  0  0  0  0  0  0
    1.3042    2.3076    0.0726 C   0  0  0  0  0  0  0  0  0  0  0  0
    2.1783    2.5998    0.9814 O   0  0  0  0  0  0  0  0  0  0  0  0
    1.9315    1.8763   -1.1355 C   0  0  2  0  0  0  0  0  0  0  0  0
    1.0824    1.3760   -2.2643 C   0  0  0  0  0  0  0  0  0  0  0  0
    2.1915    1.2239   -3.3179 C   0  0  0  0  0  0  0  0  0  0  0  0
    3.4907    1.2683   -2.5501 C   0  0  0  0  0  0  0  0  0  0  0  0
    3.0055    0.9583   -1.1677 N   0  0  0  0  0  0  0  0  0  0  0  0
    3.5689    0.0140   -0.3031 C   0  0  0  0  0  0  0  0  0  0  0  0
    4.8850    0.1337   -0.3522 O   0  0  0  0  0  0  0  0  0  0  0  0
    3.1771   -1.0169    0.5924 C   0  0  1  0  0  0  0  0  0  0  0  0
    3.4809   -0.6541    2.0209 C   0  0  0  0  0  0  0  0  0  0  0  0
    4.8447   -0.3852    2.4143 C   0  0  0  0  0  0  0  0  0  0  0  0
    5.3112    0.9177    2.4652 C   0  0  0  0  0  0  0  0  0  0  0  0
    6.5955    1.2238    2.8477 C   0  0  0  0  0  0  0  0  0  0  0  0
    7.4105    0.1645    3.1816 C   0  0  0  0  0  0  0  0  0  0  0  0
    8.7132    0.4195    3.5743 O   0  0  0  0  0  0  0  0  0  0  0  0
    6.9719   -1.1430    3.1391 C   0  0  0  0  0  0  0  0  0  0  0  0
    5.6901   -1.4467    2.7582 C   0  0  0  0  0  0  0  0  0  0  0  0
    1.9205   -1.6902    0.5783 N   0  0  0  0  0  0  0  0  0  0  0  0
    1.2936   -2.8120    0.1130 C   0  0  0  0  0  0  0  0  0  0  0  0
    0.8928   -3.6821    0.9885 O   0  0  0  0  0  0  0  0  0  0  0  0
    0.9337   -3.3122   -1.2465 C   0  0  2  0  0  0  0  0  0  0  0  0
    1.7675   -2.7640   -2.3398 C   0  0  0  0  0  0  0  0  0  0  0  0
    1.4193   -3.2883   -3.6750 C   0  0  0  0  0  0  0  0  0  0  0  0
    1.5747   -4.7371   -3.8596 C   0  0  0  0  0  0  0  0  0  0  0  0
    2.7693   -5.2271   -4.4232 O   0  0  0  0  0  0  0  0  0  0  0  0
    0.7112   -5.5892   -3.5488 O   0  0  0  0  0  0  0  0  0  0  0  0
   -0.4614   -3.1935   -1.5749 N   0  0  0  0  0  0  0  0  0  0  0  0
   -1.3277   -2.0985   -1.6408 C   0  0  0  0  0  0  0  0  0  0  0  0
   -1.9057   -1.7700   -2.7393 O   0  0  0  0  0  0  0  0  0  0  0  0
   -7.9487   -2.1002    1.0363 H   0  0  0  0  0  0  0  0  0  0  0  0
   -8.3473   -1.0765   -0.4201 H   0  0  0  0  0  0  0  0  0  0  0  0
   -7.9602    1.2949    0.8401 H   0  0  0  0  0  0  0  0  0  0  0  0
   -4.8309   -0.5060    1.7294 H   0  0  0  0  0  0  0  0  0  0  0  0
   -4.9982   -1.4524   -1.0385 H   0  0  0  0  0  0  0  0  0  0  0  0
   -5.7794   -2.6436    0.0268 H   0  0  0  0  0  0  0  0  0  0  0  0
   -3.9655   -3.0532    1.3861 H   0  0  0  0  0  0  0  0  0  0  0  0
   -3.6135   -3.5303   -0.2547 H   0  0  0  0  0  0  0  0  0  0  0  0
   -1.7126   -2.6759    0.9680 H   0  0  0  0  0  0  0  0  0  0  0  0
   -2.5514   -1.2354    1.4998 H   0  0  0  0  0  0  0  0  0  0  0  0
   -0.6956   -0.8373   -0.1960 H   0  0  0  0  0  0  0  0  0  0  0  0
   -3.2371   -0.1074   -1.5781 H   0  0  0  0  0  0  0  0  0  0  0  0
   -0.7830    0.5724    1.0812 H   0  0  0  0  0  0  0  0  0  0  0  0
   -1.4590    2.0430    2.7002 H   0  0  0  0  0  0  0  0  0  0  0  0
   -2.7377    1.1117    1.9355 H   0  0  0  0  0  0  0  0  0  0  0  0
   -1.4118    4.5371    2.5059 H   0  0  0  0  0  0  0  0  0  0  0  0
   -2.7167    6.5595    2.1310 H   0  0  0  0  0  0  0  0  0  0  0  0
   -5.6647    6.9696    1.6681 H   0  0  0  0  0  0  0  0  0  0  0  0
   -5.7428    4.2893    0.1479 H   0  0  0  0  0  0  0  0  0  0  0  0
   -4.4672    2.2866    0.4924 H   0  0  0  0  0  0  0  0  0  0  0  0
   -0.3653    3.4913    0.6575 H   0  0  0  0  0  0  0  0  0  0  0  0
    2.3315    2.8689   -1.6075 H   0  0  0  0  0  0  0  0  0  0  0  0
    0.3957    2.1561   -2.6637 H   0  0  0  0  0  0  0  0  0  0  0  0
    0.6286    0.4024   -2.1374 H   0  0  0  0  0  0  0  0  0  0  0  0
    2.1962    2.0777   -4.0218 H   0  0  0  0  0  0  0  0  0  0  0  0
    2.0711    0.2716   -3.8733 H   0  0  0  0  0  0  0  0  0  0  0  0
    3.8573    2.3358   -2.4850 H   0  0  0  0  0  0  0  0  0  0  0  0
    4.2753    0.6657   -2.9283 H   0  0  0  0  0  0  0  0  0  0  0  0
    3.9211   -1.8775    0.3892 H   0  0  0  0  0  0  0  0  0  0  0  0
    3.0954   -1.4938    2.7041 H   0  0  0  0  0  0  0  0  0  0  0  0
    2.8512    0.2117    2.3763 H   0  0  0  0  0  0  0  0  0  0  0  0
    4.6726    1.7704    2.2000 H   0  0  0  0  0  0  0  0  0  0  0  0
    6.9732    2.2493    2.8917 H   0  0  0  0  0  0  0  0  0  0  0  0
    9.4179    0.4410    2.8464 H   0  0  0  0  0  0  0  0  0  0  0  0
    7.6169   -1.9780    3.4054 H   0  0  0  0  0  0  0  0  0  0  0  0
    5.2845   -2.4474    2.7016 H   0  0  0  0  0  0  0  0  0  0  0  0
    1.2441   -1.0490    1.1564 H   0  0  0  0  0  0  0  0  0  0  0  0
    1.1579   -4.4329   -1.3233 H   0  0  0  0  0  0  0  0  0  0  0  0
    1.7459   -1.6792   -2.3420 H   0  0  0  0  0  0  0  0  0  0  0  0
    2.8301   -3.1143   -2.1265 H   0  0  0  0  0  0  0  0  0  0  0  0
    0.3790   -2.9839   -3.9322 H   0  0  0  0  0  0  0  0  0  0  0  0
    2.0680   -2.7920   -4.4429 H   0  0  0  0  0  0  0  0  0  0  0  0
    3.6238   -4.7052   -4.1898 H   0  0  0  0  0  0  0  0  0  0  0  0
   -1.0011   -4.1162   -1.8482 H   0  0  0  0  0  0  0  0  0  0  0  0
  1  2  1  0
  2  3  2  3
  2  4  1  0
  4  5  1  0
  5  6  1  0
  6  7  1  0
  7  8  1  0
  8  9  1  0
  9 10  1  0
 10 11  2  0
 10 12  1  0
 12 13  1  0
 13 14  1  0
 14 15  2  0
 15 16  1  0
 16 17  2  0
 17 18  1  0
 17 19  1  0
 19 20  2  0
 12 21  1  0
 21 22  1  0
 22 23  2  0
 22 24  1  0
 24 25  1  0
 25 26  1  0
 26 27  1  0
 27 28  1  0
 28 29  1  0
 29 30  2  0
 29 31  1  0
 31 32  1  0
 32 33  1  0
 33 34  2  0
 34 35  1  0
 35 36  2  0
 36 37  1  0
 36 38  1  0
 38 39  2  0
 31 40  1  0
 40 41  1  0
 41 42  2  0
 41 43  1  0
 43 44  1  0
 44 45  1  0
 45 46  1  0
 46 47  1  0
 46 48  2  0
 43 49  1  0
 49 50  1  0
 50 51  2  0
 50  8  1  0
 20 14  1  0
 28 24  1  0
 39 33  1  0
  1 52  1  0
  1 53  1  0
  3 54  1  0
  4 55  1  0
  5 56  1  0
  5 57  1  0
  6 58  1  0
  6 59  1  0
  7 60  1  0
  7 61  1  0
  8 62  1  1
  9 63  1  0
 12 64  1  1
 13 65  1  0
 13 66  1  0
 15 67  1  0
 16 68  1  0
 18 69  1  0
 19 70  1  0
 20 71  1  0
 21 72  1  0
 24 73  1  6
 25 74  1  0
 25 75  1  0
 26 76  1  0
 26 77  1  0
 27 78  1  0
 27 79  1  0
 31 80  1  6
 32 81  1  0
 32 82  1  0
 34 83  1  0
 35 84  1  0
 37 85  1  0
 38 86  1  0
 39 87  1  0
 40 88  1  0
 43 89  1  1
 44 90  1  0
 44 91  1  0
 45 92  1  0
 45 93  1  0
 47 94  1  0
 49 95  1  0
M  END
$$$$
[H]Oc1c([H])c(C2=C([H])C([H])([H])C([H])([H])N(c3c([H])c([H])c([H])c([H])c3[H])C2([H])[H])c(C([H])([H])[H])c(O[H])c1C([H])([H])[H]
     RDKit          3D

 43 45  0  0  0  0  0  0  0  0999 V2000
   -1.6417    1.7764   -0.8610 C   0  0  0  0  0  0  0  0  0  0  0  0
   -2.1973    0.6416   -0.1052 C   0  0  0  0  0  0  0  0  0  0  0  0
   -1.6100   -0.6017   -0.1212 C   0  0  0  0  0  0  0  0  0  0  0  0
   -2.3212   -1.5844    0.5830 C   0  0  0  0  0  0  0  0  0  0  0  0
   -3.4914   -1.3865    1.2442 C   0  0  0  0  0  0  0  0  0  0  0  0
   -4.1274   -2.4452    1.9217 O   0  0  0  0  0  0  0  0  0  0  0  0
   -4.0531   -0.1478    1.2496 C   0  0  0  0  0  0  0  0  0  0  0  0
   -5.3308    0.0852    1.9687 C   0  0  0  0  0  0  0  0  0  0  0  0
   -3.4008    0.8848    0.5674 C   0  0  0  0  0  0  0  0  0  0  0  0
   -4.0046    2.1061    0.6090 O   0  0  0  0  0  0  0  0  0  0  0  0
   -0.3060   -0.9141   -0.7019 C   0  0  0  0  0  0  0  0  0  0  0  0
   -0.0262   -2.2055   -0.9212 C   0  0  0  0  0  0  0  0  0  0  0  0
    1.2912   -2.6473   -1.5151 C   0  0  0  0  0  0  0  0  0  0  0  0
    2.4148   -1.8843   -0.8355 C   0  0  0  0  0  0  0  0  0  0  0  0
    2.1124   -0.4698   -0.8077 N   0  0  0  0  0  0  0  0  0  0  0  0
    0.7623    0.0601   -1.0042 C   0  0  0  0  0  0  0  0  0  0  0  0
    3.1673    0.4416   -0.5834 C   0  0  0  0  0  0  0  0  0  0  0  0
    3.0395    1.8167   -0.6752 C   0  0  0  0  0  0  0  0  0  0  0  0
    4.0973    2.6682   -0.4418 C   0  0  0  0  0  0  0  0  0  0  0  0
    5.3389    2.1929   -0.1046 C   0  0  0  0  0  0  0  0  0  0  0  0
    5.5108    0.8288   -0.0023 C   0  0  0  0  0  0  0  0  0  0  0  0
    4.4467   -0.0042   -0.2379 C   0  0  0  0  0  0  0  0  0  0  0  0
   -2.4954    2.4595   -1.2148 H   0  0  0  0  0  0  0  0  0  0  0  0
   -1.0254    2.4589   -0.2630 H   0  0  0  0  0  0  0  0  0  0  0  0
   -1.2103    1.4874   -1.8502 H   0  0  0  0  0  0  0  0  0  0  0  0
   -1.9141   -2.5791    0.6263 H   0  0  0  0  0  0  0  0  0  0  0  0
   -4.9815   -2.2665    2.3949 H   0  0  0  0  0  0  0  0  0  0  0  0
   -6.0955   -0.5581    1.4612 H   0  0  0  0  0  0  0  0  0  0  0  0
   -5.6285    1.1481    1.8637 H   0  0  0  0  0  0  0  0  0  0  0  0
   -5.2776   -0.2340    3.0213 H   0  0  0  0  0  0  0  0  0  0  0  0
   -3.6700    2.9384    0.1998 H   0  0  0  0  0  0  0  0  0  0  0  0
   -0.7390   -2.9642   -0.6986 H   0  0  0  0  0  0  0  0  0  0  0  0
    1.4396   -3.7111   -1.2539 H   0  0  0  0  0  0  0  0  0  0  0  0
    1.3046   -2.4528   -2.5840 H   0  0  0  0  0  0  0  0  0  0  0  0
    2.5246   -2.3219    0.1621 H   0  0  0  0  0  0  0  0  0  0  0  0
    3.3308   -2.0978   -1.4126 H   0  0  0  0  0  0  0  0  0  0  0  0
    0.7545    0.3512   -2.0726 H   0  0  0  0  0  0  0  0  0  0  0  0
    0.7202    0.9206   -0.2997 H   0  0  0  0  0  0  0  0  0  0  0  0
    2.0737    2.2363   -0.9442 H   0  0  0  0  0  0  0  0  0  0  0  0
    3.9645    3.7338   -0.5214 H   0  0  0  0  0  0  0  0  0  0  0  0
    6.1863    2.8708    0.0825 H   0  0  0  0  0  0  0  0  0  0  0  0
    6.4908    0.4494    0.2640 H   0  0  0  0  0  0  0  0  0  0  0  0
    4.5770   -1.0806   -0.1585 H   0  0  0  0  0  0  0  0  0  0  0  0
  1  2  1  0
  2  3  2  0
  3  4  1  0
  4  5  2  0
  5  6  1  0
  5  7  1  0
  7  8  1  0
  7  9  2  0
  9 10  1  0
  3 11  1  0
 11 12  2  0
 12 13  1  0
 13 14  1  0
 14 15  1  0
 15 16  1  0
 15 17  1  0
 17 18  2  0
 18 19  1  0
 19 20  2  0
 20 21  1  0
 21 22  2  0
  9  2  1  0
 16 11  1  0
 22 17  1  0
  1 23  1  0
  1 24  1  0
  1 25  1  0
  4 26  1  0
  6 27  1  0
  8 28  1  0
  8 29  1  0
  8 30  1  0
 10 31  1  0
 12 32  1  0
 13 33  1  0
 13 34  1  0
 14 35  1  0
 14 36  1  0
 16 37  1  0
 16 38  1  0
 18 39  1  0
 19 40  1  0
 20 41  1  0
 21 42  1  0
 22 43  1  0
M  END
$$$$
[H]c1nc2c([H])c([H])c(N([H])c3nc(C(=O)N([H])[H])c(N([H])C(=O)c4c([H])c([H])c(N5C([H])([H])C([H])([H])N(C([H])([H])[H])C([H])([H])C5([H])[H])c([H])c4[H])s3)c([H])c2c([H])c1[H]
     RDKit          3D

 60 64  0  0  0  0  0  0  0  0999 V2000
  -10.1211   -0.4936    1.1698 C   0  0  0  0  0  0  0  0  0  0  0  0
   -9.2422   -0.7508    0.0513 N   0  0  0  0  0  0  0  0  0  0  0  0
   -8.1987   -1.6954    0.3788 C   0  0  0  0  0  0  0  0  0  0  0  0
   -6.9921   -1.5389   -0.5410 C   0  0  0  0  0  0  0  0  0  0  0  0
   -6.4268   -0.2342   -0.2726 N   0  0  0  0  0  0  0  0  0  0  0  0
   -7.3690    0.8338    0.0195 C   0  0  0  0  0  0  0  0  0  0  0  0
   -8.7195    0.4666   -0.5270 C   0  0  0  0  0  0  0  0  0  0  0  0
   -5.0113    0.0171   -0.2943 C   0  0  0  0  0  0  0  0  0  0  0  0
   -4.0870   -0.9225   -0.6795 C   0  0  0  0  0  0  0  0  0  0  0  0
   -2.7136   -0.6256   -0.6771 C   0  0  0  0  0  0  0  0  0  0  0  0
   -2.2593    0.6049   -0.2917 C   0  0  0  0  0  0  0  0  0  0  0  0
   -3.1849    1.5450    0.0936 C   0  0  0  0  0  0  0  0  0  0  0  0
   -4.5395    1.2552    0.0922 C   0  0  0  0  0  0  0  0  0  0  0  0
   -0.7972    0.9553   -0.2668 C   0  0  0  0  0  0  0  0  0  0  0  0
   -0.5805    2.1983   -0.2213 O   0  0  0  0  0  0  0  0  0  0  0  0
    0.1735   -0.0058   -0.2915 N   0  0  0  0  0  0  0  0  0  0  0  0
    1.5668    0.0676   -0.2287 C   0  0  0  0  0  0  0  0  0  0  0  0
    2.6005   -1.1394   -1.0173 S   0  0  0  0  0  0  0  0  0  0  0  0
    4.1280   -0.5359   -0.5445 C   0  0  0  0  0  0  0  0  0  0  0  0
    5.4116   -1.0604   -0.8589 N   0  0  0  0  0  0  0  0  0  0  0  0
    6.6685   -0.5912   -0.4919 C   0  0  0  0  0  0  0  0  0  0  0  0
    6.8741    0.5190    0.2457 C   0  0  0  0  0  0  0  0  0  0  0  0
    8.1716    0.9412    0.5861 C   0  0  0  0  0  0  0  0  0  0  0  0
    9.2720    0.2466    0.1850 C   0  0  0  0  0  0  0  0  0  0  0  0
   10.5138    0.6366    0.5015 N   0  0  0  0  0  0  0  0  0  0  0  0
   11.6077   -0.0332    0.1162 C   0  0  0  0  0  0  0  0  0  0  0  0
   11.4638   -1.1767   -0.6402 C   0  0  0  0  0  0  0  0  0  0  0  0
   10.2071   -1.5827   -0.9680 C   0  0  0  0  0  0  0  0  0  0  0  0
    9.0877   -0.8808   -0.5628 C   0  0  0  0  0  0  0  0  0  0  0  0
    7.8289   -1.2851   -0.8896 C   0  0  0  0  0  0  0  0  0  0  0  0
    3.7745    0.4977    0.1576 N   0  0  0  0  0  0  0  0  0  0  0  0
    2.5219    0.8371    0.3483 C   0  0  0  0  0  0  0  0  0  0  0  0
    2.2626    1.8834    1.3850 C   0  0  0  0  0  0  0  0  0  0  0  0
    3.3860    2.7341    1.7477 N   0  0  0  0  0  0  0  0  0  0  0  0
    1.1988    2.0850    1.9467 O   0  0  0  0  0  0  0  0  0  0  0  0
  -10.6440   -1.4637    1.3864 H   0  0  0  0  0  0  0  0  0  0  0  0
   -9.5835   -0.1506    2.0747 H   0  0  0  0  0  0  0  0  0  0  0  0
  -10.8975    0.2136    0.8414 H   0  0  0  0  0  0  0  0  0  0  0  0
   -8.5247   -2.7445    0.2776 H   0  0  0  0  0  0  0  0  0  0  0  0
   -7.8369   -1.5452    1.4164 H   0  0  0  0  0  0  0  0  0  0  0  0
   -7.3790   -1.5784   -1.5838 H   0  0  0  0  0  0  0  0  0  0  0  0
   -6.2769   -2.3315   -0.3131 H   0  0  0  0  0  0  0  0  0  0  0  0
   -7.3828    1.1547    1.0580 H   0  0  0  0  0  0  0  0  0  0  0  0
   -7.0190    1.7118   -0.5985 H   0  0  0  0  0  0  0  0  0  0  0  0
   -9.4394    1.2824   -0.2413 H   0  0  0  0  0  0  0  0  0  0  0  0
   -8.7313    0.3883   -1.6143 H   0  0  0  0  0  0  0  0  0  0  0  0
   -4.4317   -1.9015   -0.9892 H   0  0  0  0  0  0  0  0  0  0  0  0
   -2.0383   -1.3856   -0.9881 H   0  0  0  0  0  0  0  0  0  0  0  0
   -2.8549    2.5429    0.4087 H   0  0  0  0  0  0  0  0  0  0  0  0
   -5.2769    2.0058    0.4009 H   0  0  0  0  0  0  0  0  0  0  0  0
   -0.2032   -1.0284   -0.3616 H   0  0  0  0  0  0  0  0  0  0  0  0
    5.3835   -1.9387   -1.4633 H   0  0  0  0  0  0  0  0  0  0  0  0
    6.0686    1.1274    0.6036 H   0  0  0  0  0  0  0  0  0  0  0  0
    8.2863    1.8381    1.1795 H   0  0  0  0  0  0  0  0  0  0  0  0
   12.5921    0.3221    0.3975 H   0  0  0  0  0  0  0  0  0  0  0  0
   12.3320   -1.7459   -0.9708 H   0  0  0  0  0  0  0  0  0  0  0  0
   10.0667   -2.4724   -1.5575 H   0  0  0  0  0  0  0  0  0  0  0  0
    7.7082   -2.1677   -1.4738 H   0  0  0  0  0  0  0  0  0  0  0  0
    3.3455    3.7695    1.6310 H   0  0  0  0  0  0  0  0  0  0  0  0
    4.2603    2.3248    2.1339 H   0  0  0  0  0  0  0  0  0  0  0  0
  1  2  1  0
  2  3  1  0
  3  4  1  0
  4  5  1  0
  5  6  1  0
  6  7  1  0
  5  8  1  0
  8  9  2  0
  9 10  1  0
 10 11  2  0
 11 12  1  0
 12 13  2  0
 11 14  1  0
 14 15  2  0
 14 16  1  0
 16 17  1  0
 17 18  1  0
 18 19  1  0
 19 20  1  0
 20 21  1  0
 21 22  2  0
 22 23  1  0
 23 24  2  0
 24 25  1  0
 25 26  2  0
 26 27  1  0
 27 28  2  0
 28 29  1  0
 29 30  2  0
 19 31  2  0
 31 32  1  0
 32 33  1  0
 33 34  1  0
 33 35  2  0
  7  2  1  0
 13  8  1  0
 32 17  2  0
 30 21  1  0
 29 24  1  0
  1 36  1  0
  1 37  1  0
  1 38  1  0
  3 39  1  0
  3 40  1  0
  4 41  1  0
  4 42  1  0
  6 43  1  0
  6 44  1  0
  7 45  1  0
  7 46  1  0
  9 47  1  0
 10 48  1  0
 12 49  1  0
 13 50  1  0
 16 51  1  0
 20 52  1  0
 22 53  1  0
 23 54  1  0
 26 55  1  0
 27 56  1  0
 28 57  1  0
 30 58  1  0
 34 59  1  0
 34 60  1  0
M  END
$$$$
[H]N=C(N([H])[H])N([H])C([H])([H])C([H])([H])C([H])([H])[C@@]([H])(C(=O)N([H])[C@]([H])(C(=O)N([H])[H])C([H])([H])c1c([H])c([H])c([H])c([H])c1[H])N([H])C(=O)[C@@]([H])(N([H])C(=O)OC(C([H])([H])[H])(C([H])([H])[H])C([H])([H])[H])C([H])([H])c1c([H])c([H])c([H])c([H])c1[H]
     RDKit          3D

 82 83  0  0  0  0  0  0  0  0999 V2000
   -5.5347   -1.6905    3.1919 C   0  0  0  0  0  0  0  0  0  0  0  0
   -6.2495   -1.3473    1.9162 C   0  0  0  0  0  0  0  0  0  0  0  0
   -7.4961   -0.5517    2.2011 C   0  0  0  0  0  0  0  0  0  0  0  0
   -6.7085   -2.6282    1.2373 C   0  0  0  0  0  0  0  0  0  0  0  0
   -5.4217   -0.5882    1.0756 O   0  0  0  0  0  0  0  0  0  0  0  0
   -4.2393   -1.2011    0.5974 C   0  0  0  0  0  0  0  0  0  0  0  0
   -4.0667   -2.3456    0.9771 O   0  0  0  0  0  0  0  0  0  0  0  0
   -3.4046   -0.4522   -0.2533 N   0  0  0  0  0  0  0  0  0  0  0  0
   -2.6205    0.2511   -1.0523 C   0  0  1  0  0  0  0  0  0  0  0  0
   -3.2850    1.3519   -1.8973 C   0  0  0  0  0  0  0  0  0  0  0  0
   -4.2920    0.8270   -2.8130 C   0  0  0  0  0  0  0  0  0  0  0  0
   -4.0031    0.4160   -4.1057 C   0  0  0  0  0  0  0  0  0  0  0  0
   -4.9463   -0.0944   -4.9688 C   0  0  0  0  0  0  0  0  0  0  0  0
   -6.2378   -0.2036   -4.5320 C   0  0  0  0  0  0  0  0  0  0  0  0
   -6.5933    0.1921   -3.2434 C   0  0  0  0  0  0  0  0  0  0  0  0
   -5.5979    0.7057   -2.4028 C   0  0  0  0  0  0  0  0  0  0  0  0
   -1.5040    1.0173   -0.3308 C   0  0  0  0  0  0  0  0  0  0  0  0
   -1.7673    1.7032    0.6729 O   0  0  0  0  0  0  0  0  0  0  0  0
   -0.2245    0.8730   -0.8856 N   0  0  0  0  0  0  0  0  0  0  0  0
    1.0329    1.4639   -0.4879 C   0  0  1  0  0  0  0  0  0  0  0  0
    1.3207    1.4124    0.9905 C   0  0  0  0  0  0  0  0  0  0  0  0
    2.5676    2.1387    1.3546 C   0  0  0  0  0  0  0  0  0  0  0  0
    2.8932    2.0508    2.8507 C   0  0  0  0  0  0  0  0  0  0  0  0
    4.1215    2.7753    3.0016 N   0  0  0  0  0  0  0  0  0  0  0  0
    4.7032    3.0347    4.2490 C   0  0  0  0  0  0  0  0  0  0  0  0
    5.1191    4.3540    4.6348 N   0  0  0  0  0  0  0  0  0  0  0  0
    4.8905    2.1164    5.0928 N   0  0  0  0  0  0  0  0  0  0  0  0
    2.0736    0.9233   -1.3703 C   0  0  0  0  0  0  0  0  0  0  0  0
    1.7753    1.0549   -2.6335 O   0  0  0  0  0  0  0  0  0  0  0  0
    3.2816    0.2922   -1.0590 N   0  0  0  0  0  0  0  0  0  0  0  0
    4.1299   -0.1673   -2.1499 C   0  0  1  0  0  0  0  0  0  0  0  0
    5.5710   -0.2409   -1.8511 C   0  0  0  0  0  0  0  0  0  0  0  0
    5.8689   -1.1296   -0.6922 C   0  0  0  0  0  0  0  0  0  0  0  0
    6.0796   -2.4780   -0.8673 C   0  0  0  0  0  0  0  0  0  0  0  0
    6.3521   -3.3330    0.1888 C   0  0  0  0  0  0  0  0  0  0  0  0
    6.4230   -2.8289    1.4806 C   0  0  0  0  0  0  0  0  0  0  0  0
    6.2174   -1.4894    1.6787 C   0  0  0  0  0  0  0  0  0  0  0  0
    5.9443   -0.6537    0.6023 C   0  0  0  0  0  0  0  0  0  0  0  0
    3.5670   -1.4543   -2.7208 C   0  0  0  0  0  0  0  0  0  0  0  0
    4.0833   -2.0522   -3.8923 N   0  0  0  0  0  0  0  0  0  0  0  0
    2.6109   -1.9658   -2.1107 O   0  0  0  0  0  0  0  0  0  0  0  0
   -4.7319   -0.9367    3.3520 H   0  0  0  0  0  0  0  0  0  0  0  0
   -6.3144   -1.6439    4.0070 H   0  0  0  0  0  0  0  0  0  0  0  0
   -5.1270   -2.7207    3.1383 H   0  0  0  0  0  0  0  0  0  0  0  0
   -7.6414    0.1213    1.3121 H   0  0  0  0  0  0  0  0  0  0  0  0
   -7.3164    0.1006    3.0660 H   0  0  0  0  0  0  0  0  0  0  0  0
   -8.3558   -1.2391    2.3305 H   0  0  0  0  0  0  0  0  0  0  0  0
   -6.7366   -2.4762    0.1619 H   0  0  0  0  0  0  0  0  0  0  0  0
   -6.1301   -3.5206    1.5641 H   0  0  0  0  0  0  0  0  0  0  0  0
   -7.7457   -2.8240    1.5823 H   0  0  0  0  0  0  0  0  0  0  0  0
   -2.5128   -1.4724   -0.2156 H   0  0  0  0  0  0  0  0  0  0  0  0
   -2.0508   -0.3805   -1.8253 H   0  0  0  0  0  0  0  0  0  0  0  0
   -2.4882    1.8992   -2.4128 H   0  0  0  0  0  0  0  0  0  0  0  0
   -3.7875    2.0423   -1.1874 H   0  0  0  0  0  0  0  0  0  0  0  0
   -2.9625    0.5054   -4.4681 H   0  0  0  0  0  0  0  0  0  0  0  0
   -4.6304   -0.3885   -5.9652 H   0  0  0  0  0  0  0  0  0  0  0  0
   -6.9862   -0.6178   -5.2254 H   0  0  0  0  0  0  0  0  0  0  0  0
   -7.6213    0.0784   -2.9582 H   0  0  0  0  0  0  0  0  0  0  0  0
   -5.9412    0.9983   -1.4187 H   0  0  0  0  0  0  0  0  0  0  0  0
   -0.1992    0.2144   -1.7543 H   0  0  0  0  0  0  0  0  0  0  0  0
    0.8650    2.5857   -0.6441 H   0  0  0  0  0  0  0  0  0  0  0  0
    1.2979    0.3644    1.4048 H   0  0  0  0  0  0  0  0  0  0  0  0
    0.4880    1.9237    1.5702 H   0  0  0  0  0  0  0  0  0  0  0  0
    3.4546    2.0211    0.7813 H   0  0  0  0  0  0  0  0  0  0  0  0
    2.2871    3.2675    1.2263 H   0  0  0  0  0  0  0  0  0  0  0  0
    3.0258    0.9673    3.0960 H   0  0  0  0  0  0  0  0  0  0  0  0
    2.0553    2.4836    3.4514 H   0  0  0  0  0  0  0  0  0  0  0  0
    4.6206    3.1325    2.1572 H   0  0  0  0  0  0  0  0  0  0  0  0
    5.9876    4.7603    4.2369 H   0  0  0  0  0  0  0  0  0  0  0  0
    4.5107    4.8563    5.3012 H   0  0  0  0  0  0  0  0  0  0  0  0
    4.6787    1.1421    5.0181 H   0  0  0  0  0  0  0  0  0  0  0  0
    3.6079    0.0956   -0.1155 H   0  0  0  0  0  0  0  0  0  0  0  0
    3.9461    0.5542   -2.9981 H   0  0  0  0  0  0  0  0  0  0  0  0
    6.0806    0.7391   -1.7509 H   0  0  0  0  0  0  0  0  0  0  0  0
    6.1240   -0.7249   -2.7226 H   0  0  0  0  0  0  0  0  0  0  0  0
    6.0638   -2.9399   -1.8378 H   0  0  0  0  0  0  0  0  0  0  0  0
    6.5136   -4.3906    0.0672 H   0  0  0  0  0  0  0  0  0  0  0  0
    6.6400   -3.4548    2.3251 H   0  0  0  0  0  0  0  0  0  0  0  0
    6.2556   -1.0440    2.6435 H   0  0  0  0  0  0  0  0  0  0  0  0
    5.7984    0.4150    0.7406 H   0  0  0  0  0  0  0  0  0  0  0  0
    3.6044   -1.9236   -4.8280 H   0  0  0  0  0  0  0  0  0  0  0  0
    4.9402   -2.6284   -3.8801 H   0  0  0  0  0  0  0  0  0  0  0  0
  1  2  1  0
  2  3  1  0
  2  4  1  0
  2  5  1  0
  5  6  1  0
  6  7  2  0
  6  8  1  0
  8  9  1  0
  9 10  1  0
 10 11  1  0
 11 12  2  0
 12 13  1  0
 13 14  2  0
 14 15  1  0
 15 16  2  0
  9 17  1  0
 17 18  2  0
 17 19  1  0
 19 20  1  0
 20 21  1  0
 21 22  1  0
 22 23  1  0
 23 24  1  0
 24 25  1  0
 25 26  1  0
 25 27  2  3
 20 28  1  0
 28 29  2  0
 28 30  1  0
 30 31  1  0
 31 32  1  0
 32 33  1  0
 33 34  2  0
 34 35  1  0
 35 36  2  0
 36 37  1  0
 37 38  2  0
 31 39  1  0
 39 40  1  0
 39 41  2  0
 16 11  1  0
 38 33  1  0
  1 42  1  0
  1 43  1  0
  1 44  1  0
  3 45  1  0
  3 46  1  0
  3 47  1  0
  4 48  1  0
  4 49  1  0
  4 50  1  0
  8 51  1  0
  9 52  1  6
 10 53  1  0
 10 54  1  0
 12 55  1  0
 13 56  1  0
 14 57  1  0
 15 58  1  0
 16 59  1  0
 19 60  1  0
 20 61  1  6
 21 62  1  0
 21 63  1  0
 22 64  1  0
 22 65  1  0
 23 66  1  0
 23 67  1  0
 24 68  1  0
 26 69  1  0
 26 70  1  0
 27 71  1  0
 30 72  1  0
 31 73  1  6
 32 74  1  0
 32 75  1  0
 34 76  1  0
 35 77  1  0
 36 78  1  0
 37 79  1  0
 38 80  1  0
 40 81  1  0
 40 82  1  0
M  END
$$$$
[H]c1c([H])c([H])c(C([H])([H])C(=O)N([H])c2nnc(-c3c([H])c([H])c(-c4c([H])c([H])c(Oc5c([H])c([H])c([N+](=O)[O-])c([H])c5[H])c([H])c4[H])c([H])c3[H])s2)c([H])c1[H]
     RDKit          3D

 57 61  0  0  0  0  0  0  0  0999 V2000
  -10.8650    3.3328    1.7498 O   0  0  0  0  0  0  0  0  0  0  0  0
  -10.5170    2.1112    2.2351 N   0  0  0  0  0  0  0  0  0  0  0  0
  -10.8690    1.7502    3.3616 O   0  0  0  0  0  0  0  0  0  0  0  0
   -9.7259    1.2174    1.4308 C   0  0  0  0  0  0  0  0  0  0  0  0
   -9.3655   -0.0247    1.9106 C   0  0  0  0  0  0  0  0  0  0  0  0
   -8.6020   -0.8906    1.1380 C   0  0  0  0  0  0  0  0  0  0  0  0
   -8.2028   -0.4992   -0.1218 C   0  0  0  0  0  0  0  0  0  0  0  0
   -7.4396   -1.3320   -0.9278 O   0  0  0  0  0  0  0  0  0  0  0  0
   -6.0565   -1.2594   -0.8498 C   0  0  0  0  0  0  0  0  0  0  0  0
   -5.2660   -2.0769   -1.6410 C   0  0  0  0  0  0  0  0  0  0  0  0
   -3.8890   -2.0229   -1.5809 C   0  0  0  0  0  0  0  0  0  0  0  0
   -3.2436   -1.1514   -0.7295 C   0  0  0  0  0  0  0  0  0  0  0  0
   -4.0211   -0.3337    0.0620 C   0  0  0  0  0  0  0  0  0  0  0  0
   -5.4184   -0.3858    0.0037 C   0  0  0  0  0  0  0  0  0  0  0  0
   -1.7725   -1.0946   -0.6656 C   0  0  0  0  0  0  0  0  0  0  0  0
   -1.0155   -2.2265   -0.8878 C   0  0  0  0  0  0  0  0  0  0  0  0
    0.3751   -2.1800   -0.8288 C   0  0  0  0  0  0  0  0  0  0  0  0
    1.0410   -1.0086   -0.5479 C   0  0  0  0  0  0  0  0  0  0  0  0
    0.2795    0.1154   -0.3276 C   0  0  0  0  0  0  0  0  0  0  0  0
   -1.1097    0.0769   -0.3848 C   0  0  0  0  0  0  0  0  0  0  0  0
    2.4954   -0.9682   -0.4877 C   0  0  0  0  0  0  0  0  0  0  0  0
    3.2890    0.0639   -0.2299 N   0  0  0  0  0  0  0  0  0  0  0  0
    4.5386   -0.0896   -0.2189 N   0  0  0  0  0  0  0  0  0  0  0  0
    5.0784   -1.2760   -0.4628 C   0  0  0  0  0  0  0  0  0  0  0  0
    6.4383   -1.7076   -0.5083 N   0  0  0  0  0  0  0  0  0  0  0  0
    7.5380   -0.8710   -0.2800 C   0  0  0  0  0  0  0  0  0  0  0  0
    8.7101   -1.3693   -0.3473 O   0  0  0  0  0  0  0  0  0  0  0  0
    7.3489    0.5660    0.0342 C   0  0  0  0  0  0  0  0  0  0  0  0
    8.6359    1.2606    0.2398 C   0  0  0  0  0  0  0  0  0  0  0  0
    9.2942    1.8451   -0.8079 C   0  0  0  0  0  0  0  0  0  0  0  0
   10.5080    2.4869   -0.5484 C   0  0  0  0  0  0  0  0  0  0  0  0
   11.0334    2.5370    0.7085 C   0  0  0  0  0  0  0  0  0  0  0  0
   10.3791    1.9534    1.7632 C   0  0  0  0  0  0  0  0  0  0  0  0
    9.1633    1.3092    1.5093 C   0  0  0  0  0  0  0  0  0  0  0  0
    3.6419   -2.2130   -0.7226 S   0  0  0  0  0  0  0  0  0  0  0  0
   -8.5579    0.7459   -0.6160 C   0  0  0  0  0  0  0  0  0  0  0  0
   -9.3134    1.5824    0.1692 C   0  0  0  0  0  0  0  0  0  0  0  0
   -9.6907   -0.3061    2.8991 H   0  0  0  0  0  0  0  0  0  0  0  0
   -8.3234   -1.8463    1.5038 H   0  0  0  0  0  0  0  0  0  0  0  0
   -5.7845   -2.7530   -2.3017 H   0  0  0  0  0  0  0  0  0  0  0  0
   -3.2815   -2.6634   -2.2006 H   0  0  0  0  0  0  0  0  0  0  0  0
   -3.5396    0.3484    0.7285 H   0  0  0  0  0  0  0  0  0  0  0  0
   -6.0008    0.2669    0.6356 H   0  0  0  0  0  0  0  0  0  0  0  0
   -1.5344   -3.1506   -1.1090 H   0  0  0  0  0  0  0  0  0  0  0  0
    0.9609   -3.0679   -1.0032 H   0  0  0  0  0  0  0  0  0  0  0  0
    0.7869    1.0310   -0.1085 H   0  0  0  0  0  0  0  0  0  0  0  0
   -1.6915    0.9654   -0.2100 H   0  0  0  0  0  0  0  0  0  0  0  0
    6.5933   -2.7168   -0.7279 H   0  0  0  0  0  0  0  0  0  0  0  0
    6.7656    1.0450   -0.7858 H   0  0  0  0  0  0  0  0  0  0  0  0
    6.6994    0.6340    0.9538 H   0  0  0  0  0  0  0  0  0  0  0  0
    8.8976    1.8157   -1.7995 H   0  0  0  0  0  0  0  0  0  0  0  0
   11.0109    2.9390   -1.3751 H   0  0  0  0  0  0  0  0  0  0  0  0
   11.9779    3.0405    0.8893 H   0  0  0  0  0  0  0  0  0  0  0  0
   10.7871    1.9869    2.7655 H   0  0  0  0  0  0  0  0  0  0  0  0
    8.6621    0.8584    2.3382 H   0  0  0  0  0  0  0  0  0  0  0  0
   -8.2404    1.0524   -1.6130 H   0  0  0  0  0  0  0  0  0  0  0  0
   -9.5922    2.5471   -0.2052 H   0  0  0  0  0  0  0  0  0  0  0  0
  1  2  1  0
  2  3  2  0
  2  4  1  0
  4  5  2  0
  5  6  1  0
  6  7  2  0
  7  8  1  0
  8  9  1  0
  9 10  2  0
 10 11  1  0
 11 12  2  0
 12 13  1  0
 13 14  2  0
 12 15  1  0
 15 16  2  0
 16 17  1  0
 17 18  2  0
 18 19  1  0
 19 20  2  0
 18 21  1  0
 21 22  2  0
 22 23  1  0
 23 24  2  0
 24 25  1  0
 25 26  1  0
 26 27  2  0
 26 28  1  0
 28 29  1  0
 29 30  2  0
 30 31  1  0
 31 32  2  0
 32 33  1  0
 33 34  2  0
 24 35  1  0
  7 36  1  0
 36 37  2  0
 37  4  1  0
 14  9  1  0
 20 15  1  0
 35 21  1  0
 34 29  1  0
  5 38  1  0
  6 39  1  0
 10 40  1  0
 11 41  1  0
 13 42  1  0
 14 43  1  0
 16 44  1  0
 17 45  1  0
 19 46  1  0
 20 47  1  0
 25 48  1  0
 28 49  1  0
 28 50  1  0
 30 51  1  0
 31 52  1  0
 32 53  1  0
 33 54  1  0
 34 55  1  0
 36 56  1  0
 37 57  1  0
M  CHG  2   1  -1   2   1
M  END
$$$$
[H]OC([H])([H])N(C(=O)c1c([H])c(Cl)c([H])c(Cl)c1[H])N(C([H])([H])C([H])([H])C([H])([H])[H])C([H])([H])C([H])(O[H])C([H])([H])O[H]
     RDKit          3D

 42 42  0  0  0  0  0  0  0  0999 V2000
    3.0953    0.2172    2.2073 C   0  0  0  0  0  0  0  0  0  0  0  0
    3.0396   -1.0171    1.3411 C   0  0  0  0  0  0  0  0  0  0  0  0
    1.6953   -1.3439    0.8211 C   0  0  0  0  0  0  0  0  0  0  0  0
    1.0099   -0.4397    0.0096 N   0  0  0  0  0  0  0  0  0  0  0  0
    1.3927   -0.1430   -1.2930 C   0  0  0  0  0  0  0  0  0  0  0  0
    2.6212    0.6365   -1.5723 C   0  0  0  0  0  0  0  0  0  0  0  0
    2.7048    0.7120   -3.0040 O   0  0  0  0  0  0  0  0  0  0  0  0
    2.4388    2.1089   -1.1688 C   0  0  0  0  0  0  0  0  0  0  0  0
    1.2861    2.6265   -1.7618 O   0  0  0  0  0  0  0  0  0  0  0  0
   -0.4240   -0.7720   -0.0343 N   0  0  0  0  0  0  0  0  0  0  0  0
   -0.7491   -2.0608   -0.5233 C   0  0  0  0  0  0  0  0  0  0  0  0
   -0.8427   -3.0495    0.4851 O   0  0  0  0  0  0  0  0  0  0  0  0
   -1.2298    0.2472    0.3929 C   0  0  0  0  0  0  0  0  0  0  0  0
   -0.5614    1.3293    0.7375 O   0  0  0  0  0  0  0  0  0  0  0  0
   -2.6424    0.3707    0.5359 C   0  0  0  0  0  0  0  0  0  0  0  0
   -3.1657    1.6479    0.8579 C   0  0  0  0  0  0  0  0  0  0  0  0
   -4.4933    1.8190    1.0367 C   0  0  0  0  0  0  0  0  0  0  0  0
   -5.1310    3.3903    1.4346 Cl  0  0  0  0  0  0  0  0  0  0  0  0
   -5.3568    0.7625    0.9100 C   0  0  0  0  0  0  0  0  0  0  0  0
   -4.8690   -0.4719    0.6010 C   0  0  0  0  0  0  0  0  0  0  0  0
   -5.9452   -1.8438    0.4274 Cl  0  0  0  0  0  0  0  0  0  0  0  0
   -3.5005   -0.6855    0.4096 C   0  0  0  0  0  0  0  0  0  0  0  0
    4.0300    0.7825    2.0781 H   0  0  0  0  0  0  0  0  0  0  0  0
    3.0486   -0.0354    3.3032 H   0  0  0  0  0  0  0  0  0  0  0  0
    2.2568    0.8907    1.9264 H   0  0  0  0  0  0  0  0  0  0  0  0
    3.2989   -1.8689    2.0639 H   0  0  0  0  0  0  0  0  0  0  0  0
    3.8740   -1.0054    0.6495 H   0  0  0  0  0  0  0  0  0  0  0  0
    1.8180   -2.3066    0.2138 H   0  0  0  0  0  0  0  0  0  0  0  0
    1.0966   -1.7126    1.7007 H   0  0  0  0  0  0  0  0  0  0  0  0
    1.3964   -1.0917   -1.9103 H   0  0  0  0  0  0  0  0  0  0  0  0
    0.5440    0.4726   -1.7559 H   0  0  0  0  0  0  0  0  0  0  0  0
    3.5737    0.2314   -1.2614 H   0  0  0  0  0  0  0  0  0  0  0  0
    2.2675   -0.0742   -3.4044 H   0  0  0  0  0  0  0  0  0  0  0  0
    3.3350    2.6967   -1.4456 H   0  0  0  0  0  0  0  0  0  0  0  0
    2.3123    2.1936   -0.0768 H   0  0  0  0  0  0  0  0  0  0  0  0
    1.3247    3.6002   -1.8605 H   0  0  0  0  0  0  0  0  0  0  0  0
    0.1086   -2.4368   -1.2232 H   0  0  0  0  0  0  0  0  0  0  0  0
   -1.6090   -2.1610   -1.1839 H   0  0  0  0  0  0  0  0  0  0  0  0
   -0.9816   -3.9295    0.0808 H   0  0  0  0  0  0  0  0  0  0  0  0
   -2.4497    2.4664    0.9456 H   0  0  0  0  0  0  0  0  0  0  0  0
   -6.4084    0.9323    1.0587 H   0  0  0  0  0  0  0  0  0  0  0  0
   -3.2091   -1.6852    0.1893 H   0  0  0  0  0  0  0  0  0  0  0  0
  1  2  1  0
  2  3  1  0
  3  4  1  0
  4  5  1  0
  5  6  1  0
  6  7  1  0
  6  8  1  0
  8  9  1  0
  4 10  1  0
 10 11  1  0
 11 12  1  0
 10 13  1  0
 13 14  2  0
 13 15  1  0
 15 16  2  0
 16 17  1  0
 17 18  1  0
 17 19  2  0
 19 20  1  0
 20 21  1  0
 20 22  2  0
 22 15  1  0
  1 23  1  0
  1 24  1  0
  1 25  1  0
  2 26  1  0
  2 27  1  0
  3 28  1  0
  3 29  1  0
  5 30  1  0
  5 31  1  0
  6 32  1  0
  7 33  1  0
  8 34  1  0
  8 35  1  0
  9 36  1  0
 11 37  1  0
 11 38  1  0
 12 39  1  0
 16 40  1  0
 19 41  1  0
 22 42  1  0
M  END
$$$$
[H]c1nc2c([H])c(OC([H])([H])C([H])([H])C([H])([H])N3C([H])([H])C([H])([H])N(C(=O)C([H])([H])[H])C([H])([H])C3([H])[H])c(OC([H])([H])[H])c([H])c2c(Oc2c([H])c([H])c(N([H])C(=O)N([H])c3c([H])c([H])c(F)c([H])c3[H])c([H])c2[H])c1[H]
     RDKit          3D

 77 81  0  0  0  0  0  0  0  0999 V2000
   -0.1165   -4.3466    2.2212 C   0  0  0  0  0  0  0  0  0  0  0  0
   -1.2570   -3.8179    1.5735 O   0  0  0  0  0  0  0  0  0  0  0  0
   -1.0938   -2.7810    0.6612 C   0  0  0  0  0  0  0  0  0  0  0  0
    0.1233   -2.2352    0.3379 C   0  0  0  0  0  0  0  0  0  0  0  0
    0.2942   -1.2031   -0.5649 C   0  0  0  0  0  0  0  0  0  0  0  0
    1.5496   -0.6742   -0.8619 C   0  0  0  0  0  0  0  0  0  0  0  0
    2.6138   -1.2465   -0.2115 O   0  0  0  0  0  0  0  0  0  0  0  0
    3.9455   -0.8371   -0.3641 C   0  0  0  0  0  0  0  0  0  0  0  0
    4.6818   -1.1813   -1.4683 C   0  0  0  0  0  0  0  0  0  0  0  0
    5.9712   -0.7695   -1.5839 C   0  0  0  0  0  0  0  0  0  0  0  0
    6.6281    0.0149   -0.6137 C   0  0  0  0  0  0  0  0  0  0  0  0
    7.9352    0.4314   -0.8129 N   0  0  0  0  0  0  0  0  0  0  0  0
    8.8831    0.8823    0.1684 C   0  0  0  0  0  0  0  0  0  0  0  0
    8.5594    0.9270    1.3682 O   0  0  0  0  0  0  0  0  0  0  0  0
   10.1710    1.2675   -0.2642 N   0  0  0  0  0  0  0  0  0  0  0  0
   11.2291    1.7297    0.5294 C   0  0  0  0  0  0  0  0  0  0  0  0
   12.4506    2.0316   -0.1108 C   0  0  0  0  0  0  0  0  0  0  0  0
   13.5345    2.4784    0.5775 C   0  0  0  0  0  0  0  0  0  0  0  0
   13.5123    2.6627    1.9388 C   0  0  0  0  0  0  0  0  0  0  0  0
   14.6008    3.1084    2.5894 F   0  0  0  0  0  0  0  0  0  0  0  0
   12.3391    2.3780    2.5964 C   0  0  0  0  0  0  0  0  0  0  0  0
   11.2112    1.9153    1.8869 C   0  0  0  0  0  0  0  0  0  0  0  0
    5.8512    0.3336    0.4798 C   0  0  0  0  0  0  0  0  0  0  0  0
    4.5347   -0.0758    0.6129 C   0  0  0  0  0  0  0  0  0  0  0  0
    1.7121    0.3577   -1.7559 C   0  0  0  0  0  0  0  0  0  0  0  0
    0.5749    0.8573   -2.3592 C   0  0  0  0  0  0  0  0  0  0  0  0
   -0.6520    0.3514   -2.0794 N   0  0  0  0  0  0  0  0  0  0  0  0
   -0.7981   -0.6633   -1.1992 C   0  0  0  0  0  0  0  0  0  0  0  0
   -2.0394   -1.2063   -0.8874 C   0  0  0  0  0  0  0  0  0  0  0  0
   -2.2256   -2.2342    0.0106 C   0  0  0  0  0  0  0  0  0  0  0  0
   -3.4308   -2.7158    0.2686 O   0  0  0  0  0  0  0  0  0  0  0  0
   -4.7253   -2.5866   -0.0386 C   0  0  0  0  0  0  0  0  0  0  0  0
   -5.4105   -1.2635    0.2610 C   0  0  0  0  0  0  0  0  0  0  0  0
   -6.8575   -1.3845   -0.1748 C   0  0  0  0  0  0  0  0  0  0  0  0
   -7.6696   -0.2568    0.0242 N   0  0  0  0  0  0  0  0  0  0  0  0
   -7.4522    0.8997   -0.7612 C   0  0  0  0  0  0  0  0  0  0  0  0
   -8.1529    2.1329   -0.2323 C   0  0  0  0  0  0  0  0  0  0  0  0
   -9.5611    1.8230   -0.0131 N   0  0  0  0  0  0  0  0  0  0  0  0
   -9.9719    0.4461   -0.2013 C   0  0  0  0  0  0  0  0  0  0  0  0
   -9.0147   -0.5165    0.4026 C   0  0  0  0  0  0  0  0  0  0  0  0
  -10.5098    2.7914    0.3653 C   0  0  0  0  0  0  0  0  0  0  0  0
  -11.9385    2.4810    0.5951 C   0  0  0  0  0  0  0  0  0  0  0  0
  -10.1040    3.9967    0.5136 O   0  0  0  0  0  0  0  0  0  0  0  0
   -0.3978   -4.8708    3.1854 H   0  0  0  0  0  0  0  0  0  0  0  0
    0.4805   -5.0351    1.5903 H   0  0  0  0  0  0  0  0  0  0  0  0
    0.5782   -3.5288    2.5599 H   0  0  0  0  0  0  0  0  0  0  0  0
    1.0138   -2.6248    0.8041 H   0  0  0  0  0  0  0  0  0  0  0  0
    4.2221   -1.7952   -2.2670 H   0  0  0  0  0  0  0  0  0  0  0  0
    6.5896   -1.0319   -2.4609 H   0  0  0  0  0  0  0  0  0  0  0  0
    8.2742    0.4191   -1.8301 H   0  0  0  0  0  0  0  0  0  0  0  0
   10.3230    1.1834   -1.3269 H   0  0  0  0  0  0  0  0  0  0  0  0
   12.5076    1.9008   -1.1733 H   0  0  0  0  0  0  0  0  0  0  0  0
   14.4529    2.6955    0.0206 H   0  0  0  0  0  0  0  0  0  0  0  0
   12.2441    2.4955    3.6576 H   0  0  0  0  0  0  0  0  0  0  0  0
   10.3233    1.7088    2.4466 H   0  0  0  0  0  0  0  0  0  0  0  0
    6.2603    0.9528    1.3037 H   0  0  0  0  0  0  0  0  0  0  0  0
    3.9971    0.2148    1.5129 H   0  0  0  0  0  0  0  0  0  0  0  0
    2.6897    0.7864   -1.9982 H   0  0  0  0  0  0  0  0  0  0  0  0
    0.6426    1.6865   -3.0772 H   0  0  0  0  0  0  0  0  0  0  0  0
   -2.8669   -0.7581   -1.4125 H   0  0  0  0  0  0  0  0  0  0  0  0
   -4.8377   -2.6881   -1.1673 H   0  0  0  0  0  0  0  0  0  0  0  0
   -5.3937   -3.4334    0.3281 H   0  0  0  0  0  0  0  0  0  0  0  0
   -5.4477   -1.2059    1.3919 H   0  0  0  0  0  0  0  0  0  0  0  0
   -4.8589   -0.4172   -0.1225 H   0  0  0  0  0  0  0  0  0  0  0  0
   -6.8440   -1.6341   -1.2819 H   0  0  0  0  0  0  0  0  0  0  0  0
   -7.2969   -2.2623    0.3487 H   0  0  0  0  0  0  0  0  0  0  0  0
   -7.9304    0.6933   -1.7680 H   0  0  0  0  0  0  0  0  0  0  0  0
   -6.3999    1.1295   -0.9524 H   0  0  0  0  0  0  0  0  0  0  0  0
   -7.6583    2.5131    0.6839 H   0  0  0  0  0  0  0  0  0  0  0  0
   -8.0807    2.9261   -1.0053 H   0  0  0  0  0  0  0  0  0  0  0  0
  -10.9539    0.3047    0.3185 H   0  0  0  0  0  0  0  0  0  0  0  0
  -10.1812    0.2681   -1.2669 H   0  0  0  0  0  0  0  0  0  0  0  0
   -9.2915   -1.5240   -0.0329 H   0  0  0  0  0  0  0  0  0  0  0  0
   -9.1626   -0.6393    1.4896 H   0  0  0  0  0  0  0  0  0  0  0  0
  -12.2880    1.7638   -0.1709 H   0  0  0  0  0  0  0  0  0  0  0  0
  -12.5245    3.4167    0.4509 H   0  0  0  0  0  0  0  0  0  0  0  0
  -12.1102    2.0874    1.6085 H   0  0  0  0  0  0  0  0  0  0  0  0
  1  2  1  0
  2  3  1  0
  3  4  2  0
  4  5  1  0
  5  6  2  0
  6  7  1  0
  7  8  1  0
  8  9  2  0
  9 10  1  0
 10 11  2  0
 11 12  1  0
 12 13  1  0
 13 14  2  0
 13 15  1  0
 15 16  1  0
 16 17  2  0
 17 18  1  0
 18 19  2  0
 19 20  1  0
 19 21  1  0
 21 22  2  0
 11 23  1  0
 23 24  2  0
  6 25  1  0
 25 26  2  0
 26 27  1  0
 27 28  2  0
 28 29  1  0
 29 30  2  0
 30 31  1  0
 31 32  1  0
 32 33  1  0
 33 34  1  0
 34 35  1  0
 35 36  1  0
 36 37  1  0
 37 38  1  0
 38 39  1  0
 39 40  1  0
 38 41  1  0
 41 42  1  0
 41 43  2  0
 30  3  1  0
 40 35  1  0
 28  5  1  0
 24  8  1  0
 22 16  1  0
  1 44  1  0
  1 45  1  0
  1 46  1  0
  4 47  1  0
  9 48  1  0
 10 49  1  0
 12 50  1  0
 15 51  1  0
 17 52  1  0
 18 53  1  0
 21 54  1  0
 22 55  1  0
 23 56  1  0
 24 57  1  0
 25 58  1  0
 26 59  1  0
 29 60  1  0
 32 61  1  0
 32 62  1  0
 33 63  1  0
 33 64  1  0
 34 65  1  0
 34 66  1  0
 36 67  1  0
 36 68  1  0
 37 69  1  0
 37 70  1  0
 39 71  1  0
 39 72  1  0
 40 73  1  0
 40 74  1  0
 42 75  1  0
 42 76  1  0
 42 77  1  0
M  END
$$$$
[H]N=C(c1c([H])c([H])c([H])c(C([H])([H])[C@@]([H])(C(=O)N([H])[C@]([H])(C(=O)N2C([H])([H])C([H])([H])N(S(=O)(=O)C([H])([H])[H])C([H])([H])C2([H])[H])C([H])([H])c2c([H])c([H])c([H])c(C(=N[H])N([H])[H])c2[H])N([H])[H])c1[H])N([H])[H]
     RDKit          3D

 72 74  0  0  0  0  0  0  0  0999 V2000
    3.5395    0.9397    0.9736 N   0  0  0  0  0  0  0  0  0  0  0  0
    3.0049    1.6698   -0.1429 C   0  0  1  0  0  0  0  0  0  0  0  0
    3.9697    1.5480   -1.3306 C   0  0  0  0  0  0  0  0  0  0  0  0
    5.3036    2.1159   -0.9533 C   0  0  0  0  0  0  0  0  0  0  0  0
    5.5368    3.4440   -1.1857 C   0  0  0  0  0  0  0  0  0  0  0  0
    6.7662    3.9500   -0.8332 C   0  0  0  0  0  0  0  0  0  0  0  0
    7.7615    3.1586   -0.2562 C   0  0  0  0  0  0  0  0  0  0  0  0
    7.5395    1.8292   -0.0193 C   0  0  0  0  0  0  0  0  0  0  0  0
    6.2784    1.3391   -0.3879 C   0  0  0  0  0  0  0  0  0  0  0  0
    8.5170    0.9276    0.5778 C   0  0  0  0  0  0  0  0  0  0  0  0
    8.1815   -0.4644    0.7852 N   0  0  0  0  0  0  0  0  0  0  0  0
    9.6671    1.3555    0.9199 N   0  0  0  0  0  0  0  0  0  0  0  0
    1.6622    1.2368   -0.5626 C   0  0  0  0  0  0  0  0  0  0  0  0
    1.1313    1.8103   -1.5339 O   0  0  0  0  0  0  0  0  0  0  0  0
    1.0045    0.2167    0.1059 N   0  0  0  0  0  0  0  0  0  0  0  0
   -0.3179   -0.2901   -0.2196 C   0  0  1  0  0  0  0  0  0  0  0  0
   -0.0954   -1.7457   -0.5805 C   0  0  0  0  0  0  0  0  0  0  0  0
   -1.2895   -2.4921   -0.9462 C   0  0  0  0  0  0  0  0  0  0  0  0
   -1.6903   -2.5128   -2.2746 C   0  0  0  0  0  0  0  0  0  0  0  0
   -2.8117   -3.2294   -2.5955 C   0  0  0  0  0  0  0  0  0  0  0  0
   -3.5351   -3.9161   -1.6464 C   0  0  0  0  0  0  0  0  0  0  0  0
   -3.1355   -3.8944   -0.3271 C   0  0  0  0  0  0  0  0  0  0  0  0
   -2.0172   -3.1831    0.0099 C   0  0  0  0  0  0  0  0  0  0  0  0
   -3.8875   -4.6166    0.7036 C   0  0  0  0  0  0  0  0  0  0  0  0
   -5.0360   -5.3428    0.3187 N   0  0  0  0  0  0  0  0  0  0  0  0
   -3.4765   -4.5676    1.9348 N   0  0  0  0  0  0  0  0  0  0  0  0
   -1.2349   -0.2439    0.9313 C   0  0  0  0  0  0  0  0  0  0  0  0
   -0.6952   -0.5307    2.0592 O   0  0  0  0  0  0  0  0  0  0  0  0
   -2.5957    0.0728    0.9310 N   0  0  0  0  0  0  0  0  0  0  0  0
   -3.3321    0.0279    2.1668 C   0  0  0  0  0  0  0  0  0  0  0  0
   -4.6348    0.7835    2.0993 C   0  0  0  0  0  0  0  0  0  0  0  0
   -5.3484    0.6438    0.8777 N   0  0  0  0  0  0  0  0  0  0  0  0
   -4.6919   -0.0768   -0.1641 C   0  0  0  0  0  0  0  0  0  0  0  0
   -3.2738    0.4686   -0.2737 C   0  0  0  0  0  0  0  0  0  0  0  0
   -6.2684    1.9847    0.3897 S   0  0  0  0  0  0  0  0  0  0  0  0
   -5.2948    3.4435    0.1039 C   0  0  0  0  0  0  0  0  0  0  0  0
   -7.2681    2.3252    1.4503 O   0  0  0  0  0  0  0  0  0  0  0  0
   -7.0157    1.6260   -0.8613 O   0  0  0  0  0  0  0  0  0  0  0  0
    3.7036   -0.0525    0.7609 H   0  0  0  0  0  0  0  0  0  0  0  0
    3.0474    1.1386    1.8537 H   0  0  0  0  0  0  0  0  0  0  0  0
    2.9226    2.7489    0.1476 H   0  0  0  0  0  0  0  0  0  0  0  0
    3.5877    2.1258   -2.1961 H   0  0  0  0  0  0  0  0  0  0  0  0
    4.1289    0.4833   -1.5699 H   0  0  0  0  0  0  0  0  0  0  0  0
    4.7776    4.0848   -1.6351 H   0  0  0  0  0  0  0  0  0  0  0  0
    6.9830    5.0028   -1.0045 H   0  0  0  0  0  0  0  0  0  0  0  0
    8.7232    3.6085    0.0063 H   0  0  0  0  0  0  0  0  0  0  0  0
    6.1098    0.2821   -0.1960 H   0  0  0  0  0  0  0  0  0  0  0  0
    7.8593   -1.0281   -0.0213 H   0  0  0  0  0  0  0  0  0  0  0  0
    8.2569   -0.9052    1.7188 H   0  0  0  0  0  0  0  0  0  0  0  0
    9.9858    2.3264    0.8084 H   0  0  0  0  0  0  0  0  0  0  0  0
    1.4639   -0.2555    0.9198 H   0  0  0  0  0  0  0  0  0  0  0  0
   -0.7526    0.2244   -1.0872 H   0  0  0  0  0  0  0  0  0  0  0  0
    0.3925   -2.2829    0.2864 H   0  0  0  0  0  0  0  0  0  0  0  0
    0.6601   -1.8419   -1.4047 H   0  0  0  0  0  0  0  0  0  0  0  0
   -1.1155   -1.9700   -3.0145 H   0  0  0  0  0  0  0  0  0  0  0  0
   -3.1480   -3.2608   -3.6385 H   0  0  0  0  0  0  0  0  0  0  0  0
   -4.4242   -4.4866   -1.8863 H   0  0  0  0  0  0  0  0  0  0  0  0
   -1.7091   -3.1694    1.0435 H   0  0  0  0  0  0  0  0  0  0  0  0
   -5.7072   -4.9641   -0.3743 H   0  0  0  0  0  0  0  0  0  0  0  0
   -5.2123   -6.2755    0.7383 H   0  0  0  0  0  0  0  0  0  0  0  0
   -4.0407   -5.0977    2.6470 H   0  0  0  0  0  0  0  0  0  0  0  0
   -2.6846    0.5142    2.9435 H   0  0  0  0  0  0  0  0  0  0  0  0
   -3.4909   -1.0193    2.5116 H   0  0  0  0  0  0  0  0  0  0  0  0
   -4.5068    1.8530    2.3778 H   0  0  0  0  0  0  0  0  0  0  0  0
   -5.2864    0.3440    2.9115 H   0  0  0  0  0  0  0  0  0  0  0  0
   -4.6898   -1.1801   -0.0011 H   0  0  0  0  0  0  0  0  0  0  0  0
   -5.1843    0.1459   -1.1330 H   0  0  0  0  0  0  0  0  0  0  0  0
   -2.7824    0.2276   -1.2094 H   0  0  0  0  0  0  0  0  0  0  0  0
   -3.3956    1.5931   -0.1797 H   0  0  0  0  0  0  0  0  0  0  0  0
   -5.9583    4.3422    0.2166 H   0  0  0  0  0  0  0  0  0  0  0  0
   -4.4614    3.5428    0.8042 H   0  0  0  0  0  0  0  0  0  0  0  0
   -4.9690    3.3901   -0.9690 H   0  0  0  0  0  0  0  0  0  0  0  0
  1  2  1  0
  2  3  1  0
  3  4  1  0
  4  5  2  0
  5  6  1  0
  6  7  2  0
  7  8  1  0
  8  9  2  0
  8 10  1  0
 10 11  1  0
 10 12  2  3
  2 13  1  0
 13 14  2  0
 13 15  1  0
 15 16  1  0
 16 17  1  0
 17 18  1  0
 18 19  2  0
 19 20  1  0
 20 21  2  0
 21 22  1  0
 22 23  2  0
 22 24  1  0
 24 25  1  0
 24 26  2  3
 16 27  1  0
 27 28  2  0
 27 29  1  0
 29 30  1  0
 30 31  1  0
 31 32  1  0
 32 33  1  0
 33 34  1  0
 32 35  1  0
 35 36  1  0
 35 37  2  0
 35 38  2  0
  9  4  1  0
 23 18  1  0
 34 29  1  0
  1 39  1  0
  1 40  1  0
  2 41  1  1
  3 42  1  0
  3 43  1  0
  5 44  1  0
  6 45  1  0
  7 46  1  0
  9 47  1  0
 11 48  1  0
 11 49  1  0
 12 50  1  0
 15 51  1  0
 16 52  1  6
 17 53  1  0
 17 54  1  0
 19 55  1  0
 20 56  1  0
 21 57  1  0
 23 58  1  0
 25 59  1  0
 25 60  1  0
 26 61  1  0
 30 62  1  0
 30 63  1  0
 31 64  1  0
 31 65  1  0
 33 66  1  0
 33 67  1  0
 34 68  1  0
 34 69  1  0
 36 70  1  0
 36 71  1  0
 36 72  1  0
M  END
$$$$
[H]c1nc(C([H])([H])N(C(=O)c2c([H])c([H])c(C([H])([H])[H])c([H])c2[H])C2([H])C([H])([H])C([H])([H])C([H])(N([H])[H])C([H])([H])C2([H])[H])c2c([H])c([H])c(OC([H])([H])C([H])([H])N3C([H])([H])C([H])([H])OC([H])([H])C3([H])[H])c([H])c2n1
     RDKit          3D

 74 78  0  0  0  0  0  0  0  0999 V2000
   -4.4490    3.5256    0.8257 C   0  0  0  0  0  0  0  0  0  0  0  0
   -3.8240    4.7537    0.3854 N   0  0  0  0  0  0  0  0  0  0  0  0
   -3.4883    2.8450    1.7849 C   0  0  0  0  0  0  0  0  0  0  0  0
   -3.7567    1.3875    1.9219 C   0  0  0  0  0  0  0  0  0  0  0  0
   -3.6924    0.6214    0.5931 C   0  0  0  0  0  0  0  0  0  0  0  0
   -2.6546   -0.3827    0.6487 N   0  0  0  0  0  0  0  0  0  0  0  0
   -2.7688   -1.7660    0.5874 C   0  0  0  0  0  0  0  0  0  0  0  0
   -1.6071   -2.3801    0.5739 O   0  0  0  0  0  0  0  0  0  0  0  0
   -3.8882   -2.6754    0.5336 C   0  0  0  0  0  0  0  0  0  0  0  0
   -5.1941   -2.3921    0.8354 C   0  0  0  0  0  0  0  0  0  0  0  0
   -6.2124   -3.3303    0.6727 C   0  0  0  0  0  0  0  0  0  0  0  0
   -5.9689   -4.5925    0.2032 C   0  0  0  0  0  0  0  0  0  0  0  0
   -7.0909   -5.5555    0.0469 C   0  0  0  0  0  0  0  0  0  0  0  0
   -4.6747   -4.9014   -0.1032 C   0  0  0  0  0  0  0  0  0  0  0  0
   -3.6833   -3.9905    0.0535 C   0  0  0  0  0  0  0  0  0  0  0  0
   -1.2558    0.1058    0.8635 C   0  0  0  0  0  0  0  0  0  0  0  0
   -0.5145    0.2841   -0.3826 C   0  0  0  0  0  0  0  0  0  0  0  0
   -0.9483    0.0073   -1.6007 N   0  0  0  0  0  0  0  0  0  0  0  0
   -0.1707    0.1814   -2.6722 C   0  0  0  0  0  0  0  0  0  0  0  0
    1.0837    0.6442   -2.5626 N   0  0  0  0  0  0  0  0  0  0  0  0
    1.5890    0.9473   -1.3410 C   0  0  0  0  0  0  0  0  0  0  0  0
    2.8779    1.4236   -1.2286 C   0  0  0  0  0  0  0  0  0  0  0  0
    3.4100    1.7366   -0.0050 C   0  0  0  0  0  0  0  0  0  0  0  0
    4.6737    2.2097    0.2104 O   0  0  0  0  0  0  0  0  0  0  0  0
    5.7353    2.4782   -0.6185 C   0  0  0  0  0  0  0  0  0  0  0  0
    6.2571    1.2345   -1.2970 C   0  0  0  0  0  0  0  0  0  0  0  0
    6.7043    0.2449   -0.3940 N   0  0  0  0  0  0  0  0  0  0  0  0
    7.8521    0.4830    0.3582 C   0  0  0  0  0  0  0  0  0  0  0  0
    8.7615   -0.7516    0.2742 C   0  0  0  0  0  0  0  0  0  0  0  0
    7.9936   -1.7976    0.8161 O   0  0  0  0  0  0  0  0  0  0  0  0
    6.9533   -2.1719   -0.0212 C   0  0  0  0  0  0  0  0  0  0  0  0
    6.1102   -1.0109   -0.4823 C   0  0  0  0  0  0  0  0  0  0  0  0
    2.5964    1.5568    1.1362 C   0  0  0  0  0  0  0  0  0  0  0  0
    1.3193    1.0810    0.9824 C   0  0  0  0  0  0  0  0  0  0  0  0
    0.7889    0.7665   -0.2546 C   0  0  0  0  0  0  0  0  0  0  0  0
   -3.4849    1.6687   -0.4867 C   0  0  0  0  0  0  0  0  0  0  0  0
   -4.7013    2.6138   -0.3561 C   0  0  0  0  0  0  0  0  0  0  0  0
   -5.4003    3.7180    1.3514 H   0  0  0  0  0  0  0  0  0  0  0  0
   -2.7905    4.5343    0.2557 H   0  0  0  0  0  0  0  0  0  0  0  0
   -3.8474    5.4264    1.2026 H   0  0  0  0  0  0  0  0  0  0  0  0
   -2.4802    3.1454    1.5206 H   0  0  0  0  0  0  0  0  0  0  0  0
   -3.7007    3.2990    2.7942 H   0  0  0  0  0  0  0  0  0  0  0  0
   -2.9959    0.9339    2.5809 H   0  0  0  0  0  0  0  0  0  0  0  0
   -4.7876    1.2855    2.3696 H   0  0  0  0  0  0  0  0  0  0  0  0
   -4.6677    0.1980    0.4266 H   0  0  0  0  0  0  0  0  0  0  0  0
   -5.4677   -1.4529    1.2499 H   0  0  0  0  0  0  0  0  0  0  0  0
   -7.2428   -3.0659    0.9223 H   0  0  0  0  0  0  0  0  0  0  0  0
   -7.1391   -5.9785   -0.9774 H   0  0  0  0  0  0  0  0  0  0  0  0
   -7.0469   -6.3700    0.8079 H   0  0  0  0  0  0  0  0  0  0  0  0
   -8.0477   -5.0315    0.2094 H   0  0  0  0  0  0  0  0  0  0  0  0
   -4.4722   -5.8987   -0.4756 H   0  0  0  0  0  0  0  0  0  0  0  0
   -2.6533   -4.2633   -0.2022 H   0  0  0  0  0  0  0  0  0  0  0  0
   -0.7901   -0.6128    1.5672 H   0  0  0  0  0  0  0  0  0  0  0  0
   -1.3625    1.0644    1.3977 H   0  0  0  0  0  0  0  0  0  0  0  0
   -0.5079   -0.0410   -3.6900 H   0  0  0  0  0  0  0  0  0  0  0  0
    3.4590    1.5629   -2.1330 H   0  0  0  0  0  0  0  0  0  0  0  0
    5.3589    3.1739   -1.4284 H   0  0  0  0  0  0  0  0  0  0  0  0
    6.5481    3.0050   -0.0676 H   0  0  0  0  0  0  0  0  0  0  0  0
    5.5894    0.8238   -2.0391 H   0  0  0  0  0  0  0  0  0  0  0  0
    7.1881    1.5522   -1.8846 H   0  0  0  0  0  0  0  0  0  0  0  0
    8.4267    1.3304   -0.0696 H   0  0  0  0  0  0  0  0  0  0  0  0
    7.6875    0.6761    1.4414 H   0  0  0  0  0  0  0  0  0  0  0  0
    9.6787   -0.6334    0.8491 H   0  0  0  0  0  0  0  0  0  0  0  0
    9.0069   -0.9326   -0.7909 H   0  0  0  0  0  0  0  0  0  0  0  0
    7.3620   -2.7728   -0.8621 H   0  0  0  0  0  0  0  0  0  0  0  0
    6.3024   -2.8486    0.5701 H   0  0  0  0  0  0  0  0  0  0  0  0
    5.0855   -1.0507    0.0008 H   0  0  0  0  0  0  0  0  0  0  0  0
    5.8719   -1.2336   -1.5670 H   0  0  0  0  0  0  0  0  0  0  0  0
    2.9875    1.7942    2.1042 H   0  0  0  0  0  0  0  0  0  0  0  0
    0.6689    0.9338    1.8529 H   0  0  0  0  0  0  0  0  0  0  0  0
   -3.6141    1.2528   -1.5154 H   0  0  0  0  0  0  0  0  0  0  0  0
   -2.5584    2.2248   -0.3217 H   0  0  0  0  0  0  0  0  0  0  0  0
   -5.5735    1.9667   -0.1655 H   0  0  0  0  0  0  0  0  0  0  0  0
   -4.7524    3.1826   -1.2835 H   0  0  0  0  0  0  0  0  0  0  0  0
  1  2  1  0
  1  3  1  0
  3  4  1  0
  4  5  1  0
  5  6  1  0
  6  7  1  0
  7  8  2  0
  7  9  1  0
  9 10  2  0
 10 11  1  0
 11 12  2  0
 12 13  1  0
 12 14  1  0
 14 15  2  0
  6 16  1  0
 16 17  1  0
 17 18  2  0
 18 19  1  0
 19 20  2  0
 20 21  1  0
 21 22  2  0
 22 23  1  0
 23 24  1  0
 24 25  1  0
 25 26  1  0
 26 27  1  0
 27 28  1  0
 28 29  1  0
 29 30  1  0
 30 31  1  0
 31 32  1  0
 23 33  2  0
 33 34  1  0
 34 35  2  0
  5 36  1  0
 36 37  1  0
 37  1  1  0
 15  9  1  0
 35 17  1  0
 35 21  1  0
 32 27  1  0
  1 38  1  0
  2 39  1  0
  2 40  1  0
  3 41  1  0
  3 42  1  0
  4 43  1  0
  4 44  1  0
  5 45  1  0
 10 46  1  0
 11 47  1  0
 13 48  1  0
 13 49  1  0
 13 50  1  0
 14 51  1  0
 15 52  1  0
 16 53  1  0
 16 54  1  0
 19 55  1  0
 22 56  1  0
 25 57  1  0
 25 58  1  0
 26 59  1  0
 26 60  1  0
 28 61  1  0
 28 62  1  0
 29 63  1  0
 29 64  1  0
 31 65  1  0
 31 66  1  0
 32 67  1  0
 32 68  1  0
 33 69  1  0
 34 70  1  0
 36 71  1  0
 36 72  1  0
 37 73  1  0
 37 74  1  0
M  END
$$$$
[H]C(=O)C([H])(C(=O)N(C([H])([H])[H])C([H])([H])[H])c1nc(C([H])(B2C([H])([H])C([H])([H])N(C([H])([H])[H])C([H])([H])C2([H])[H])c2c([H])c([H])c([H])c([H])c2[H])nc([H])c1[H]
     RDKit          3D

 55 57  0  0  0  0  0  0  0  0999 V2000
   -5.2467   -3.5512    0.9771 C   0  0  0  0  0  0  0  0  0  0  0  0
   -4.8498   -2.2082    1.2881 N   0  0  0  0  0  0  0  0  0  0  0  0
   -5.5929   -1.5212    2.3516 C   0  0  0  0  0  0  0  0  0  0  0  0
   -3.7943   -1.5105    0.6421 C   0  0  0  0  0  0  0  0  0  0  0  0
   -3.5383   -0.3445    0.9859 O   0  0  0  0  0  0  0  0  0  0  0  0
   -2.9718   -2.1228   -0.4420 C   0  0  0  0  0  0  0  0  0  0  0  0
   -1.9663   -1.1359   -0.9465 C   0  0  0  0  0  0  0  0  0  0  0  0
   -2.0578   -0.6586   -2.2323 C   0  0  0  0  0  0  0  0  0  0  0  0
   -1.1509    0.2494   -2.7211 C   0  0  0  0  0  0  0  0  0  0  0  0
   -0.1744    0.6421   -1.8752 N   0  0  0  0  0  0  0  0  0  0  0  0
   -0.0496    0.2013   -0.6158 C   0  0  0  0  0  0  0  0  0  0  0  0
   -0.9606   -0.6864   -0.1817 N   0  0  0  0  0  0  0  0  0  0  0  0
    1.0647    0.7155    0.1974 C   0  0  0  0  0  0  0  0  0  0  0  0
    0.5647    1.9175    0.9157 C   0  0  0  0  0  0  0  0  0  0  0  0
    0.7061    3.1742    0.3162 C   0  0  0  0  0  0  0  0  0  0  0  0
    0.2566    4.3168    0.9418 C   0  0  0  0  0  0  0  0  0  0  0  0
   -0.3455    4.2436    2.1795 C   0  0  0  0  0  0  0  0  0  0  0  0
   -0.4880    2.9967    2.7791 C   0  0  0  0  0  0  0  0  0  0  0  0
   -0.0374    1.8595    2.1498 C   0  0  0  0  0  0  0  0  0  0  0  0
    2.3206    1.1666   -0.6588 B   0  0  0  0  0  0  0  0  0  0  0  0
    3.5971    1.6336    0.2025 C   0  0  0  0  0  0  0  0  0  0  0  0
    4.5409    0.4248    0.1093 C   0  0  0  0  0  0  0  0  0  0  0  0
    5.0270    0.3798   -1.2259 N   0  0  0  0  0  0  0  0  0  0  0  0
    6.0936   -0.6049   -1.2783 C   0  0  0  0  0  0  0  0  0  0  0  0
    4.0915    0.1981   -2.2657 C   0  0  0  0  0  0  0  0  0  0  0  0
    2.6558    0.3651   -1.9772 C   0  0  0  0  0  0  0  0  0  0  0  0
   -2.3031   -3.3808   -0.0081 C   0  0  0  0  0  0  0  0  0  0  0  0
   -2.5089   -4.4756   -0.4996 O   0  0  0  0  0  0  0  0  0  0  0  0
   -5.2450   -3.6477   -0.1331 H   0  0  0  0  0  0  0  0  0  0  0  0
   -4.6406   -4.3291    1.4468 H   0  0  0  0  0  0  0  0  0  0  0  0
   -6.3184   -3.6885    1.3034 H   0  0  0  0  0  0  0  0  0  0  0  0
   -5.5181   -0.4317    2.1604 H   0  0  0  0  0  0  0  0  0  0  0  0
   -6.6618   -1.8272    2.3422 H   0  0  0  0  0  0  0  0  0  0  0  0
   -5.1626   -1.8130    3.3270 H   0  0  0  0  0  0  0  0  0  0  0  0
   -3.6664   -2.3803   -1.2628 H   0  0  0  0  0  0  0  0  0  0  0  0
   -2.8498   -0.9928   -2.8814 H   0  0  0  0  0  0  0  0  0  0  0  0
   -1.2532    0.5964   -3.7183 H   0  0  0  0  0  0  0  0  0  0  0  0
    1.3281   -0.0705    0.9366 H   0  0  0  0  0  0  0  0  0  0  0  0
    1.1729    3.2046   -0.6361 H   0  0  0  0  0  0  0  0  0  0  0  0
    0.3768    5.2566    0.4642 H   0  0  0  0  0  0  0  0  0  0  0  0
   -0.7186    5.1058    2.7202 H   0  0  0  0  0  0  0  0  0  0  0  0
   -0.9559    2.9230    3.7458 H   0  0  0  0  0  0  0  0  0  0  0  0
   -0.1554    0.8886    2.6315 H   0  0  0  0  0  0  0  0  0  0  0  0
    3.3615    1.8350    1.2445 H   0  0  0  0  0  0  0  0  0  0  0  0
    4.1225    2.4627   -0.3287 H   0  0  0  0  0  0  0  0  0  0  0  0
    3.9680   -0.4715    0.4155 H   0  0  0  0  0  0  0  0  0  0  0  0
    5.3788    0.5703    0.7914 H   0  0  0  0  0  0  0  0  0  0  0  0
    6.9285   -0.2928   -0.6197 H   0  0  0  0  0  0  0  0  0  0  0  0
    5.7552   -1.6109   -0.9234 H   0  0  0  0  0  0  0  0  0  0  0  0
    6.4932   -0.6338   -2.3117 H   0  0  0  0  0  0  0  0  0  0  0  0
    4.2380   -0.8457   -2.6755 H   0  0  0  0  0  0  0  0  0  0  0  0
    4.4261    0.8490   -3.1286 H   0  0  0  0  0  0  0  0  0  0  0  0
    2.2046    0.9639   -2.8240 H   0  0  0  0  0  0  0  0  0  0  0  0
    2.1018   -0.5954   -1.9871 H   0  0  0  0  0  0  0  0  0  0  0  0
   -1.5928   -3.3095    0.7932 H   0  0  0  0  0  0  0  0  0  0  0  0
  1  2  1  0
  2  3  1  0
  2  4  1  0
  4  5  2  0
  4  6  1  0
  6  7  1  0
  7  8  2  0
  8  9  1  0
  9 10  2  0
 10 11  1  0
 11 12  2  0
 11 13  1  0
 13 14  1  0
 14 15  2  0
 15 16  1  0
 16 17  2  0
 17 18  1  0
 18 19  2  0
 13 20  1  0
 20 21  1  0
 21 22  1  0
 22 23  1  0
 23 24  1  0
 23 25  1  0
 25 26  1  0
  6 27  1  0
 27 28  2  0
 12  7  1  0
 19 14  1  0
 26 20  1  0
  1 29  1  0
  1 30  1  0
  1 31  1  0
  3 32  1  0
  3 33  1  0
  3 34  1  0
  6 35  1  0
  8 36  1  0
  9 37  1  0
 13 38  1  0
 15 39  1  0
 16 40  1  0
 17 41  1  0
 18 42  1  0
 19 43  1  0
 21 44  1  0
 21 45  1  0
 22 46  1  0
 22 47  1  0
 24 48  1  0
 24 49  1  0
 24 50  1  0
 25 51  1  0
 25 52  1  0
 26 53  1  0
 26 54  1  0
 27 55  1  0
M  END
$$$$
[H]c1nc(S(=O)(=O)N([H])C([H])([H])C(=O)[C@@]([H])(N([H])C(=O)O[C@]([H])(C([H])([H])n2nc(-c3c([H])c([H])c(C(F)(F)F)c([H])c3[H])c([H])c2[H])C(C([H])([H])[H])(C([H])([H])[H])C([H])([H])[H])C([H])([H])C([H])([H])C([H])([H])C([H])([H])[H])c([H])c([H])c1[H]
     RDKit          3D

 79 81  0  0  0  0  0  0  0  0999 V2000
   -5.7511   -3.6206    0.1554 C   0  0  0  0  0  0  0  0  0  0  0  0
   -4.3108   -3.7632    0.5984 C   0  0  0  0  0  0  0  0  0  0  0  0
   -3.6106   -2.4259    0.5375 C   0  0  0  0  0  0  0  0  0  0  0  0
   -3.5751   -1.8147   -0.8182 C   0  0  0  0  0  0  0  0  0  0  0  0
   -2.8429   -0.4814   -0.8207 C   0  0  2  0  0  0  0  0  0  0  0  0
   -1.5379   -0.5223   -0.4381 N   0  0  0  0  0  0  0  0  0  0  0  0
   -0.2366   -0.4907    0.0065 C   0  0  0  0  0  0  0  0  0  0  0  0
    0.2489    0.2657    0.8917 O   0  0  0  0  0  0  0  0  0  0  0  0
    0.7230   -1.3767   -0.5689 O   0  0  0  0  0  0  0  0  0  0  0  0
    2.1125   -1.3272   -0.1288 C   0  0  2  0  0  0  0  0  0  0  0  0
    2.7596   -0.6090   -1.2976 C   0  0  0  0  0  0  0  0  0  0  0  0
    4.1406   -0.3536   -1.2728 N   0  0  0  0  0  0  0  0  0  0  0  0
    5.0716   -1.1486   -1.8170 C   0  0  0  0  0  0  0  0  0  0  0  0
    6.3026   -0.6343   -1.6291 C   0  0  0  0  0  0  0  0  0  0  0  0
    6.1305    0.5681   -0.9189 C   0  0  0  0  0  0  0  0  0  0  0  0
    4.8136    0.6663   -0.7432 N   0  0  0  0  0  0  0  0  0  0  0  0
    7.2348    1.4212   -0.5202 C   0  0  0  0  0  0  0  0  0  0  0  0
    8.5299    1.0665   -0.8204 C   0  0  0  0  0  0  0  0  0  0  0  0
    9.5951    1.8504   -0.4432 C   0  0  0  0  0  0  0  0  0  0  0  0
    9.4123    3.0236    0.2514 C   0  0  0  0  0  0  0  0  0  0  0  0
    8.1192    3.4060    0.5656 C   0  0  0  0  0  0  0  0  0  0  0  0
    7.0578    2.5894    0.1684 C   0  0  0  0  0  0  0  0  0  0  0  0
   10.5538    3.8655    0.6886 C   0  0  0  0  0  0  0  0  0  0  0  0
   10.4378    5.1383    0.2006 F   0  0  0  0  0  0  0  0  0  0  0  0
   10.5777    3.8378    2.0654 F   0  0  0  0  0  0  0  0  0  0  0  0
   11.7361    3.2727    0.2688 F   0  0  0  0  0  0  0  0  0  0  0  0
    2.5049   -2.7291    0.1021 C   0  0  0  0  0  0  0  0  0  0  0  0
    1.5627   -3.3569    1.1679 C   0  0  0  0  0  0  0  0  0  0  0  0
    3.8905   -2.9465    0.6647 C   0  0  0  0  0  0  0  0  0  0  0  0
    2.3620   -3.6012   -1.1260 C   0  0  0  0  0  0  0  0  0  0  0  0
   -3.7661    0.6169   -0.4427 C   0  0  0  0  0  0  0  0  0  0  0  0
   -3.3419    1.7886   -0.4478 O   0  0  0  0  0  0  0  0  0  0  0  0
   -5.1809    0.4852   -0.0510 C   0  0  0  0  0  0  0  0  0  0  0  0
   -5.9332    1.4673   -0.7787 N   0  0  0  0  0  0  0  0  0  0  0  0
   -7.6059    1.4785   -0.4564 S   0  0  0  0  0  0  0  0  0  0  0  0
   -8.4459    1.1421   -1.6667 O   0  0  0  0  0  0  0  0  0  0  0  0
   -7.9539    0.4339    0.5841 O   0  0  0  0  0  0  0  0  0  0  0  0
   -8.0542    3.0390    0.1850 C   0  0  0  0  0  0  0  0  0  0  0  0
   -8.5639    3.2075    1.4498 C   0  0  0  0  0  0  0  0  0  0  0  0
   -8.9238    4.4713    1.9251 C   0  0  0  0  0  0  0  0  0  0  0  0
   -8.7710    5.5748    1.1201 C   0  0  0  0  0  0  0  0  0  0  0  0
   -8.2532    5.3660   -0.1501 C   0  0  0  0  0  0  0  0  0  0  0  0
   -7.9073    4.1359   -0.5990 N   0  0  0  0  0  0  0  0  0  0  0  0
   -6.2800   -3.0620    0.9669 H   0  0  0  0  0  0  0  0  0  0  0  0
   -6.2107   -4.6317    0.0617 H   0  0  0  0  0  0  0  0  0  0  0  0
   -5.8615   -3.0742   -0.8008 H   0  0  0  0  0  0  0  0  0  0  0  0
   -3.7910   -4.5658    0.0299 H   0  0  0  0  0  0  0  0  0  0  0  0
   -4.3719   -4.0790    1.6821 H   0  0  0  0  0  0  0  0  0  0  0  0
   -4.1627   -1.7735    1.2761 H   0  0  0  0  0  0  0  0  0  0  0  0
   -2.5904   -2.5241    0.9971 H   0  0  0  0  0  0  0  0  0  0  0  0
   -2.9384   -2.5219   -1.4441 H   0  0  0  0  0  0  0  0  0  0  0  0
   -4.5004   -1.7218   -1.3599 H   0  0  0  0  0  0  0  0  0  0  0  0
   -2.7636   -0.2125   -1.9945 H   0  0  0  0  0  0  0  0  0  0  0  0
   -1.8055    0.4804    0.4684 H   0  0  0  0  0  0  0  0  0  0  0  0
    2.1194   -0.6674    0.7571 H   0  0  0  0  0  0  0  0  0  0  0  0
    2.4874   -1.1896   -2.2053 H   0  0  0  0  0  0  0  0  0  0  0  0
    2.1635    0.3474   -1.3978 H   0  0  0  0  0  0  0  0  0  0  0  0
    4.8608   -2.0968   -2.3460 H   0  0  0  0  0  0  0  0  0  0  0  0
    7.2464   -1.0592   -1.9639 H   0  0  0  0  0  0  0  0  0  0  0  0
    8.7257    0.1493   -1.3660 H   0  0  0  0  0  0  0  0  0  0  0  0
   10.6156    1.5686   -0.6762 H   0  0  0  0  0  0  0  0  0  0  0  0
    7.9624    4.3224    1.1099 H   0  0  0  0  0  0  0  0  0  0  0  0
    6.0509    2.8733    0.4013 H   0  0  0  0  0  0  0  0  0  0  0  0
    1.6917   -4.4658    1.1199 H   0  0  0  0  0  0  0  0  0  0  0  0
    0.5150   -3.1547    0.8902 H   0  0  0  0  0  0  0  0  0  0  0  0
    1.8023   -2.9902    2.1704 H   0  0  0  0  0  0  0  0  0  0  0  0
    3.7721   -3.6109    1.5727 H   0  0  0  0  0  0  0  0  0  0  0  0
    4.3647   -2.0433    1.0639 H   0  0  0  0  0  0  0  0  0  0  0  0
    4.5197   -3.5611   -0.0100 H   0  0  0  0  0  0  0  0  0  0  0  0
    1.8578   -4.5655   -0.8870 H   0  0  0  0  0  0  0  0  0  0  0  0
    1.6417   -3.0626   -1.8143 H   0  0  0  0  0  0  0  0  0  0  0  0
    3.2935   -3.7396   -1.6952 H   0  0  0  0  0  0  0  0  0  0  0  0
   -5.5865   -0.5078   -0.2532 H   0  0  0  0  0  0  0  0  0  0  0  0
   -5.2871    0.7530    1.0476 H   0  0  0  0  0  0  0  0  0  0  0  0
   -5.6730    1.6021   -1.7600 H   0  0  0  0  0  0  0  0  0  0  0  0
   -8.6774    2.3382    2.0710 H   0  0  0  0  0  0  0  0  0  0  0  0
   -9.3223    4.6186    2.9203 H   0  0  0  0  0  0  0  0  0  0  0  0
   -9.0399    6.6005    1.4402 H   0  0  0  0  0  0  0  0  0  0  0  0
   -8.1395    6.2507   -0.7717 H   0  0  0  0  0  0  0  0  0  0  0  0
  1  2  1  0
  2  3  1  0
  3  4  1  0
  4  5  1  0
  5  6  1  0
  6  7  1  0
  7  8  2  0
  7  9  1  0
  9 10  1  0
 10 11  1  0
 11 12  1  0
 12 13  1  0
 13 14  2  0
 14 15  1  0
 15 16  2  0
 15 17  1  0
 17 18  2  0
 18 19  1  0
 19 20  2  0
 20 21  1  0
 21 22  2  0
 20 23  1  0
 23 24  1  0
 23 25  1  0
 23 26  1  0
 10 27  1  0
 27 28  1  0
 27 29  1  0
 27 30  1  0
  5 31  1  0
 31 32  2  0
 31 33  1  0
 33 34  1  0
 34 35  1  0
 35 36  2  0
 35 37  2  0
 35 38  1  0
 38 39  2  0
 39 40  1  0
 40 41  2  0
 41 42  1  0
 42 43  2  0
 16 12  1  0
 22 17  1  0
 43 38  1  0
  1 44  1  0
  1 45  1  0
  1 46  1  0
  2 47  1  0
  2 48  1  0
  3 49  1  0
  3 50  1  0
  4 51  1  0
  4 52  1  0
  5 53  1  6
  6 54  1  0
 10 55  1  1
 11 56  1  0
 11 57  1  0
 13 58  1  0
 14 59  1  0
 18 60  1  0
 19 61  1  0
 21 62  1  0
 22 63  1  0
 28 64  1  0
 28 65  1  0
 28 66  1  0
 29 67  1  0
 29 68  1  0
 29 69  1  0
 30 70  1  0
 30 71  1  0
 30 72  1  0
 33 73  1  0
 33 74  1  0
 34 75  1  0
 39 76  1  0
 40 77  1  0
 41 78  1  0
 42 79  1  0
M  END
$$$$
[H]c1c([H])c([H])c(-c2c(N([H])c3c([H])c([H])c(N(C(=O)C([H])([H])N4C([H])([H])C([H])([H])OC([H])([H])C4([H])[H])C([H])([H])[H])c([H])c3[H])c(=O)n([H])c3c([H])c(C(=O)OC([H])([H])[H])c([H])c([H])c23)c([H])c1[H]
     RDKit          3D

 69 73  0  0  0  0  0  0  0  0999 V2000
    9.4001   -3.9456    1.1029 C   0  0  0  0  0  0  0  0  0  0  0  0
    8.3308   -3.0769    0.7228 O   0  0  0  0  0  0  0  0  0  0  0  0
    7.5619   -2.3883    1.6324 C   0  0  0  0  0  0  0  0  0  0  0  0
    7.8134   -2.5317    2.8551 O   0  0  0  0  0  0  0  0  0  0  0  0
    6.4679   -1.4999    1.2306 C   0  0  0  0  0  0  0  0  0  0  0  0
    6.1423   -1.3003   -0.0940 C   0  0  0  0  0  0  0  0  0  0  0  0
    5.1136   -0.4649   -0.4657 C   0  0  0  0  0  0  0  0  0  0  0  0
    4.3853    0.1923    0.5004 C   0  0  0  0  0  0  0  0  0  0  0  0
    3.3393    1.0423    0.1525 C   0  0  0  0  0  0  0  0  0  0  0  0
    2.5971    1.7083    1.0943 C   0  0  0  0  0  0  0  0  0  0  0  0
    1.5447    2.5448    0.6854 N   0  0  0  0  0  0  0  0  0  0  0  0
    0.1788    2.1828    0.5866 C   0  0  0  0  0  0  0  0  0  0  0  0
   -0.7547    3.0446    0.0448 C   0  0  0  0  0  0  0  0  0  0  0  0
   -2.1024    2.6807   -0.0332 C   0  0  0  0  0  0  0  0  0  0  0  0
   -2.5351    1.4613    0.4244 C   0  0  0  0  0  0  0  0  0  0  0  0
   -1.6152    0.5966    0.9649 C   0  0  0  0  0  0  0  0  0  0  0  0
   -0.2650    0.9582    1.0445 C   0  0  0  0  0  0  0  0  0  0  0  0
   -3.9526    1.1066    0.3335 N   0  0  0  0  0  0  0  0  0  0  0  0
   -4.6263    1.0178    1.5951 C   0  0  0  0  0  0  0  0  0  0  0  0
   -4.5634    0.9577   -0.9114 C   0  0  0  0  0  0  0  0  0  0  0  0
   -3.8199    1.4083   -1.9036 O   0  0  0  0  0  0  0  0  0  0  0  0
   -5.8594    0.4018   -1.2686 C   0  0  0  0  0  0  0  0  0  0  0  0
   -6.5911   -0.2017   -0.2490 N   0  0  0  0  0  0  0  0  0  0  0  0
   -6.1469   -1.4994    0.2004 C   0  0  0  0  0  0  0  0  0  0  0  0
   -6.8677   -2.6492   -0.4221 C   0  0  0  0  0  0  0  0  0  0  0  0
   -7.6868   -2.1864   -1.4396 O   0  0  0  0  0  0  0  0  0  0  0  0
   -8.6596   -1.3737   -0.8275 C   0  0  0  0  0  0  0  0  0  0  0  0
   -8.0249   -0.0905   -0.3247 C   0  0  0  0  0  0  0  0  0  0  0  0
    2.9483    1.4876    2.4176 C   0  0  0  0  0  0  0  0  0  0  0  0
    2.3158    2.0620    3.3356 O   0  0  0  0  0  0  0  0  0  0  0  0
    3.9552    0.6701    2.7606 N   0  0  0  0  0  0  0  0  0  0  0  0
    4.6919    0.0090    1.8372 C   0  0  0  0  0  0  0  0  0  0  0  0
    5.7298   -0.8353    2.1804 C   0  0  0  0  0  0  0  0  0  0  0  0
    3.0869    1.2118   -1.2610 C   0  0  0  0  0  0  0  0  0  0  0  0
    3.7306    2.1650   -2.0304 C   0  0  0  0  0  0  0  0  0  0  0  0
    3.4342    2.2467   -3.3735 C   0  0  0  0  0  0  0  0  0  0  0  0
    2.5167    1.4118   -3.9847 C   0  0  0  0  0  0  0  0  0  0  0  0
    1.8722    0.4598   -3.2220 C   0  0  0  0  0  0  0  0  0  0  0  0
    2.1756    0.3859   -1.8791 C   0  0  0  0  0  0  0  0  0  0  0  0
   10.0541   -4.0113    0.1997 H   0  0  0  0  0  0  0  0  0  0  0  0
   10.0214   -3.4850    1.8986 H   0  0  0  0  0  0  0  0  0  0  0  0
    9.0604   -4.9589    1.3306 H   0  0  0  0  0  0  0  0  0  0  0  0
    6.7171   -1.8185   -0.8468 H   0  0  0  0  0  0  0  0  0  0  0  0
    4.8476   -0.2998   -1.5094 H   0  0  0  0  0  0  0  0  0  0  0  0
    1.8140    3.5366    0.4298 H   0  0  0  0  0  0  0  0  0  0  0  0
   -0.4382    4.0052   -0.3203 H   0  0  0  0  0  0  0  0  0  0  0  0
   -2.8345    3.3594   -0.4594 H   0  0  0  0  0  0  0  0  0  0  0  0
   -1.9223   -0.3595    1.3291 H   0  0  0  0  0  0  0  0  0  0  0  0
    0.4708    0.2836    1.4704 H   0  0  0  0  0  0  0  0  0  0  0  0
   -4.4052    0.0849    2.1656 H   0  0  0  0  0  0  0  0  0  0  0  0
   -5.6921    1.2315    1.6019 H   0  0  0  0  0  0  0  0  0  0  0  0
   -4.1749    1.8683    2.2261 H   0  0  0  0  0  0  0  0  0  0  0  0
   -6.5079    1.1765   -1.7982 H   0  0  0  0  0  0  0  0  0  0  0  0
   -5.6446   -0.3771   -2.0768 H   0  0  0  0  0  0  0  0  0  0  0  0
   -6.2517   -1.5888    1.2960 H   0  0  0  0  0  0  0  0  0  0  0  0
   -5.0722   -1.5917   -0.0565 H   0  0  0  0  0  0  0  0  0  0  0  0
   -7.5486   -3.0980    0.3505 H   0  0  0  0  0  0  0  0  0  0  0  0
   -6.1432   -3.4101   -0.7791 H   0  0  0  0  0  0  0  0  0  0  0  0
   -9.5391   -1.2002   -1.4746 H   0  0  0  0  0  0  0  0  0  0  0  0
   -9.0153   -1.9290    0.0646 H   0  0  0  0  0  0  0  0  0  0  0  0
   -8.2675    0.6979   -1.0641 H   0  0  0  0  0  0  0  0  0  0  0  0
   -8.4185    0.2336    0.6523 H   0  0  0  0  0  0  0  0  0  0  0  0
    4.2040    0.5179    3.7595 H   0  0  0  0  0  0  0  0  0  0  0  0
    5.9646   -0.9743    3.2229 H   0  0  0  0  0  0  0  0  0  0  0  0
    4.4430    2.8119   -1.5525 H   0  0  0  0  0  0  0  0  0  0  0  0
    3.9212    2.9840   -4.0095 H   0  0  0  0  0  0  0  0  0  0  0  0
    2.2835    1.4804   -5.0551 H   0  0  0  0  0  0  0  0  0  0  0  0
    1.1603   -0.1802   -3.7228 H   0  0  0  0  0  0  0  0  0  0  0  0
    1.6523   -0.3792   -1.2847 H   0  0  0  0  0  0  0  0  0  0  0  0
  1  2  1  0
  2  3  1  0
  3  4  2  0
  3  5  1  0
  5  6  2  0
  6  7  1  0
  7  8  2  0
  8  9  1  0
  9 10  2  0
 10 11  1  0
 11 12  1  0
 12 13  2  0
 13 14  1  0
 14 15  2  0
 15 16  1  0
 16 17  2  0
 15 18  1  0
 18 19  1  0
 18 20  1  0
 20 21  2  0
 20 22  1  0
 22 23  1  0
 23 24  1  0
 24 25  1  0
 25 26  1  0
 26 27  1  0
 27 28  1  0
 10 29  1  0
 29 30  2  0
 29 31  1  0
 31 32  1  0
 32 33  2  0
  9 34  1  0
 34 35  2  0
 35 36  1  0
 36 37  2  0
 37 38  1  0
 38 39  2  0
 33  5  1  0
 39 34  1  0
 32  8  1  0
 17 12  1  0
 28 23  1  0
  1 40  1  0
  1 41  1  0
  1 42  1  0
  6 43  1  0
  7 44  1  0
 11 45  1  0
 13 46  1  0
 14 47  1  0
 16 48  1  0
 17 49  1  0
 19 50  1  0
 19 51  1  0
 19 52  1  0
 22 53  1  0
 22 54  1  0
 24 55  1  0
 24 56  1  0
 25 57  1  0
 25 58  1  0
 27 59  1  0
 27 60  1  0
 28 61  1  0
 28 62  1  0
 31 63  1  0
 33 64  1  0
 35 65  1  0
 36 66  1  0
 37 67  1  0
 38 68  1  0
 39 69  1  0
M  END
$$$$
[H]c1c([H])c([H])c(C([H])([H])[C@@]([H])(C(=O)N([H])[H])N([H])C(=O)[C@@]([H])(N([H])C(=O)[C@@]([H])(N([H])C(=O)[C@@]([H])(N([H])[H])C([H])([H])C([H])(C([H])([H])[H])C([H])([H])[H])C([H])([H])c2c([H])c([H])c([H])c([H])c2[H])C([H])([H])c2c([H])c([H])c([H])c([H])c2[H])c([H])c1[H]
     RDKit          3D

 83 85  0  0  0  0  0  0  0  0999 V2000
   -5.3600    5.2395    1.4618 C   0  0  0  0  0  0  0  0  0  0  0  0
   -5.8598    3.8645    0.9883 C   0  0  0  0  0  0  0  0  0  0  0  0
   -6.6462    3.2457    2.1241 C   0  0  0  0  0  0  0  0  0  0  0  0
   -4.6336    3.0481    0.7199 C   0  0  0  0  0  0  0  0  0  0  0  0
   -4.9832    1.6844    0.2273 C   0  0  2  0  0  0  0  0  0  0  0  0
   -5.7521    0.8693    1.1055 N   0  0  0  0  0  0  0  0  0  0  0  0
   -3.7604    0.9736   -0.2159 C   0  0  0  0  0  0  0  0  0  0  0  0
   -2.9746    1.5356   -1.0038 O   0  0  0  0  0  0  0  0  0  0  0  0
   -3.4809   -0.3267    0.2457 N   0  0  0  0  0  0  0  0  0  0  0  0
   -2.3244   -1.0928   -0.1334 C   0  0  1  0  0  0  0  0  0  0  0  0
   -2.0820   -1.2277   -1.6064 C   0  0  0  0  0  0  0  0  0  0  0  0
   -3.1952   -1.9211   -2.3049 C   0  0  0  0  0  0  0  0  0  0  0  0
   -4.2351   -1.3007   -2.9487 C   0  0  0  0  0  0  0  0  0  0  0  0
   -5.2313   -2.0760   -3.5576 C   0  0  0  0  0  0  0  0  0  0  0  0
   -5.2188   -3.4531   -3.5423 C   0  0  0  0  0  0  0  0  0  0  0  0
   -4.1770   -4.0759   -2.8975 C   0  0  0  0  0  0  0  0  0  0  0  0
   -3.1976   -3.3190   -2.2986 C   0  0  0  0  0  0  0  0  0  0  0  0
   -1.1228   -0.7876    0.6649 C   0  0  0  0  0  0  0  0  0  0  0  0
   -1.2688    0.1001    1.5724 O   0  0  0  0  0  0  0  0  0  0  0  0
    0.1181   -1.4287    0.4536 N   0  0  0  0  0  0  0  0  0  0  0  0
    1.2983   -1.1254    1.2490 C   0  0  1  0  0  0  0  0  0  0  0  0
    1.7288   -2.2632    2.0906 C   0  0  0  0  0  0  0  0  0  0  0  0
    2.0792   -3.5093    1.4180 C   0  0  0  0  0  0  0  0  0  0  0  0
    1.0713   -4.3732    1.0758 C   0  0  0  0  0  0  0  0  0  0  0  0
    1.2751   -5.5840    0.4656 C   0  0  0  0  0  0  0  0  0  0  0  0
    2.5968   -5.9312    0.1889 C   0  0  0  0  0  0  0  0  0  0  0  0
    3.6165   -5.0700    0.5291 C   0  0  0  0  0  0  0  0  0  0  0  0
    3.3744   -3.8623    1.1412 C   0  0  0  0  0  0  0  0  0  0  0  0
    2.3147   -0.4926    0.4212 C   0  0  0  0  0  0  0  0  0  0  0  0
    2.0264   -0.2402   -0.7973 O   0  0  0  0  0  0  0  0  0  0  0  0
    3.5880   -0.1396    0.8848 N   0  0  0  0  0  0  0  0  0  0  0  0
    4.5196    0.5329   -0.0338 C   0  0  1  0  0  0  0  0  0  0  0  0
    4.9157    1.7866    0.6975 C   0  0  0  0  0  0  0  0  0  0  0  0
    5.8632    2.6765    0.0356 C   0  0  0  0  0  0  0  0  0  0  0  0
    5.4203    3.6476   -0.8423 C   0  0  0  0  0  0  0  0  0  0  0  0
    6.2878    4.5379   -1.4691 C   0  0  0  0  0  0  0  0  0  0  0  0
    7.6441    4.4918   -1.2408 C   0  0  0  0  0  0  0  0  0  0  0  0
    8.1031    3.5173   -0.3579 C   0  0  0  0  0  0  0  0  0  0  0  0
    7.2378    2.6442    0.2549 C   0  0  0  0  0  0  0  0  0  0  0  0
    5.6329   -0.3286   -0.4343 C   0  0  0  0  0  0  0  0  0  0  0  0
    6.5225    0.1093   -1.4597 N   0  0  0  0  0  0  0  0  0  0  0  0
    5.8958   -1.4644    0.0476 O   0  0  0  0  0  0  0  0  0  0  0  0
   -4.5679    5.5160    0.7086 H   0  0  0  0  0  0  0  0  0  0  0  0
   -4.9313    5.0945    2.4581 H   0  0  0  0  0  0  0  0  0  0  0  0
   -6.2293    5.9137    1.4481 H   0  0  0  0  0  0  0  0  0  0  0  0
   -6.4625    3.9478    0.0692 H   0  0  0  0  0  0  0  0  0  0  0  0
   -6.0199    2.7083    2.8383 H   0  0  0  0  0  0  0  0  0  0  0  0
   -7.4512    2.6082    1.7616 H   0  0  0  0  0  0  0  0  0  0  0  0
   -7.1896    4.1090    2.6437 H   0  0  0  0  0  0  0  0  0  0  0  0
   -3.9822    2.9698    1.6240 H   0  0  0  0  0  0  0  0  0  0  0  0
   -4.0405    3.5995   -0.0663 H   0  0  0  0  0  0  0  0  0  0  0  0
   -5.6107    1.7573   -0.7289 H   0  0  0  0  0  0  0  0  0  0  0  0
   -6.0574    0.0171    0.6143 H   0  0  0  0  0  0  0  0  0  0  0  0
   -5.2808    0.6044    1.9840 H   0  0  0  0  0  0  0  0  0  0  0  0
   -4.2013   -0.7412    0.9268 H   0  0  0  0  0  0  0  0  0  0  0  0
   -2.6097   -2.1740    0.1667 H   0  0  0  0  0  0  0  0  0  0  0  0
   -1.1908   -1.8979   -1.7423 H   0  0  0  0  0  0  0  0  0  0  0  0
   -1.8236   -0.2780   -2.1194 H   0  0  0  0  0  0  0  0  0  0  0  0
   -4.2755   -0.2215   -2.9931 H   0  0  0  0  0  0  0  0  0  0  0  0
   -6.0348   -1.5457   -4.0558 H   0  0  0  0  0  0  0  0  0  0  0  0
   -6.0203   -4.0152   -4.0337 H   0  0  0  0  0  0  0  0  0  0  0  0
   -4.1682   -5.1548   -2.8852 H   0  0  0  0  0  0  0  0  0  0  0  0
   -2.3642   -3.8116   -1.7831 H   0  0  0  0  0  0  0  0  0  0  0  0
    0.1592   -2.1549   -0.3168 H   0  0  0  0  0  0  0  0  0  0  0  0
    0.8909   -0.3539    2.0109 H   0  0  0  0  0  0  0  0  0  0  0  0
    2.6463   -1.9204    2.6504 H   0  0  0  0  0  0  0  0  0  0  0  0
    0.9757   -2.4134    2.9120 H   0  0  0  0  0  0  0  0  0  0  0  0
    0.0319   -4.0950    1.2965 H   0  0  0  0  0  0  0  0  0  0  0  0
    0.4582   -6.2525    0.2031 H   0  0  0  0  0  0  0  0  0  0  0  0
    2.7515   -6.8882   -0.2916 H   0  0  0  0  0  0  0  0  0  0  0  0
    4.6245   -5.3905    0.2907 H   0  0  0  0  0  0  0  0  0  0  0  0
    4.2034   -3.2169    1.4079 H   0  0  0  0  0  0  0  0  0  0  0  0
    3.8938   -0.3403    1.8594 H   0  0  0  0  0  0  0  0  0  0  0  0
    3.9050    0.8513   -0.9291 H   0  0  0  0  0  0  0  0  0  0  0  0
    3.9595    2.3565    0.8534 H   0  0  0  0  0  0  0  0  0  0  0  0
    5.2979    1.5632    1.7213 H   0  0  0  0  0  0  0  0  0  0  0  0
    4.3532    3.7057   -1.0397 H   0  0  0  0  0  0  0  0  0  0  0  0
    5.9096    5.2890   -2.1532 H   0  0  0  0  0  0  0  0  0  0  0  0
    8.3342    5.1740   -1.7155 H   0  0  0  0  0  0  0  0  0  0  0  0
    9.1688    3.4875   -0.1867 H   0  0  0  0  0  0  0  0  0  0  0  0
    7.6212    1.8823    0.9473 H   0  0  0  0  0  0  0  0  0  0  0  0
    7.4692   -0.2902   -1.6205 H   0  0  0  0  0  0  0  0  0  0  0  0
    6.2315    0.8897   -2.1214 H   0  0  0  0  0  0  0  0  0  0  0  0
  1  2  1  0
  2  3  1  0
  2  4  1  0
  4  5  1  0
  5  6  1  0
  5  7  1  0
  7  8  2  0
  7  9  1  0
  9 10  1  0
 10 11  1  0
 11 12  1  0
 12 13  2  0
 13 14  1  0
 14 15  2  0
 15 16  1  0
 16 17  2  0
 10 18  1  0
 18 19  2  0
 18 20  1  0
 20 21  1  0
 21 22  1  0
 22 23  1  0
 23 24  2  0
 24 25  1  0
 25 26  2  0
 26 27  1  0
 27 28  2  0
 21 29  1  0
 29 30  2  0
 29 31  1  0
 31 32  1  0
 32 33  1  0
 33 34  1  0
 34 35  2  0
 35 36  1  0
 36 37  2  0
 37 38  1  0
 38 39  2  0
 32 40  1  0
 40 41  1  0
 40 42  2  0
 17 12  1  0
 28 23  1  0
 39 34  1  0
  1 43  1  0
  1 44  1  0
  1 45  1  0
  2 46  1  0
  3 47  1  0
  3 48  1  0
  3 49  1  0
  4 50  1  0
  4 51  1  0
  5 52  1  6
  6 53  1  0
  6 54  1  0
  9 55  1  0
 10 56  1  1
 11 57  1  0
 11 58  1  0
 13 59  1  0
 14 60  1  0
 15 61  1  0
 16 62  1  0
 17 63  1  0
 20 64  1  0
 21 65  1  1
 22 66  1  0
 22 67  1  0
 24 68  1  0
 25 69  1  0
 26 70  1  0
 27 71  1  0
 28 72  1  0
 31 73  1  0
 32 74  1  6
 33 75  1  0
 33 76  1  0
 35 77  1  0
 36 78  1  0
 37 79  1  0
 38 80  1  0
 39 81  1  0
 41 82  1  0
 41 83  1  0
M  END
$$$$
[H]Oc1c([H])c2c(c([H])c1O[H])C([H])([H])C([H])([H])N(C(=O)c1c([H])c(C([H])(C([H])([H])[H])C([H])([H])[H])c(O[H])c([H])c1O[H])C2([H])[H]
     RDKit          3D

 46 48  0  0  0  0  0  0  0  0999 V2000
    2.7118    1.8332    1.5544 C   0  0  0  0  0  0  0  0  0  0  0  0
    3.5648    1.6921    0.3151 C   0  0  0  0  0  0  0  0  0  0  0  0
    4.9428    1.2524    0.7432 C   0  0  0  0  0  0  0  0  0  0  0  0
    3.0328    0.7119   -0.6349 C   0  0  0  0  0  0  0  0  0  0  0  0
    1.8636   -0.0079   -0.4261 C   0  0  0  0  0  0  0  0  0  0  0  0
    1.3534   -0.9415   -1.3315 C   0  0  0  0  0  0  0  0  0  0  0  0
    0.1851   -1.7376   -1.0548 C   0  0  0  0  0  0  0  0  0  0  0  0
    0.1029   -2.8626   -1.6713 O   0  0  0  0  0  0  0  0  0  0  0  0
   -0.9113   -1.4857   -0.2069 N   0  0  0  0  0  0  0  0  0  0  0  0
   -1.9200   -2.5597   -0.1204 C   0  0  0  0  0  0  0  0  0  0  0  0
   -2.7837   -2.4336    1.1124 C   0  0  0  0  0  0  0  0  0  0  0  0
   -3.4224   -1.0810    1.1350 C   0  0  0  0  0  0  0  0  0  0  0  0
   -4.7388   -0.8478    1.4234 C   0  0  0  0  0  0  0  0  0  0  0  0
   -5.2134    0.4452    1.3916 C   0  0  0  0  0  0  0  0  0  0  0  0
   -6.5451    0.7265    1.6783 O   0  0  0  0  0  0  0  0  0  0  0  0
   -4.3981    1.5135    1.0768 C   0  0  0  0  0  0  0  0  0  0  0  0
   -4.9229    2.8214    1.0549 O   0  0  0  0  0  0  0  0  0  0  0  0
   -3.0730    1.2741    0.7873 C   0  0  0  0  0  0  0  0  0  0  0  0
   -2.6006   -0.0260    0.8208 C   0  0  0  0  0  0  0  0  0  0  0  0
   -1.1527   -0.2774    0.5277 C   0  0  0  0  0  0  0  0  0  0  0  0
    2.0627   -1.1658   -2.5185 C   0  0  0  0  0  0  0  0  0  0  0  0
    1.6561   -2.0451   -3.4671 O   0  0  0  0  0  0  0  0  0  0  0  0
    3.2449   -0.4338   -2.7195 C   0  0  0  0  0  0  0  0  0  0  0  0
    3.7003    0.4672   -1.8046 C   0  0  0  0  0  0  0  0  0  0  0  0
    4.8682    1.1735   -2.0320 O   0  0  0  0  0  0  0  0  0  0  0  0
    2.6119    0.8864    2.1212 H   0  0  0  0  0  0  0  0  0  0  0  0
    1.7286    2.2917    1.3416 H   0  0  0  0  0  0  0  0  0  0  0  0
    3.2497    2.5514    2.2200 H   0  0  0  0  0  0  0  0  0  0  0  0
    3.6577    2.7106   -0.1192 H   0  0  0  0  0  0  0  0  0  0  0  0
    5.7236    1.8716    0.2109 H   0  0  0  0  0  0  0  0  0  0  0  0
    5.1169    0.1648    0.5120 H   0  0  0  0  0  0  0  0  0  0  0  0
    5.0886    1.4792    1.8166 H   0  0  0  0  0  0  0  0  0  0  0  0
    1.3593    0.1628    0.5146 H   0  0  0  0  0  0  0  0  0  0  0  0
   -2.5422   -2.4653   -1.0305 H   0  0  0  0  0  0  0  0  0  0  0  0
   -1.4610   -3.5586   -0.1159 H   0  0  0  0  0  0  0  0  0  0  0  0
   -2.2171   -2.5390    2.0545 H   0  0  0  0  0  0  0  0  0  0  0  0
   -3.5328   -3.2443    1.0787 H   0  0  0  0  0  0  0  0  0  0  0  0
   -5.3743   -1.6841    1.6694 H   0  0  0  0  0  0  0  0  0  0  0  0
   -6.9287    1.6516    1.6659 H   0  0  0  0  0  0  0  0  0  0  0  0
   -4.3431    3.5934    0.8296 H   0  0  0  0  0  0  0  0  0  0  0  0
   -2.4192    2.0969    0.5388 H   0  0  0  0  0  0  0  0  0  0  0  0
   -0.7875    0.5942   -0.0658 H   0  0  0  0  0  0  0  0  0  0  0  0
   -0.6686   -0.2789    1.5439 H   0  0  0  0  0  0  0  0  0  0  0  0
    0.9845   -2.6565   -3.6984 H   0  0  0  0  0  0  0  0  0  0  0  0
    3.7770   -0.6357   -3.6615 H   0  0  0  0  0  0  0  0  0  0  0  0
    5.3694    1.0021   -2.8906 H   0  0  0  0  0  0  0  0  0  0  0  0
  1  2  1  0
  2  3  1  0
  2  4  1  0
  4  5  2  0
  5  6  1  0
  6  7  1  0
  7  8  2  0
  7  9  1  0
  9 10  1  0
 10 11  1  0
 11 12  1  0
 12 13  2  0
 13 14  1  0
 14 15  1  0
 14 16  2  0
 16 17  1  0
 16 18  1  0
 18 19  2  0
 19 20  1  0
  6 21  2  0
 21 22  1  0
 21 23  1  0
 23 24  2  0
 24 25  1  0
 24  4  1  0
 20  9  1  0
 19 12  1  0
  1 26  1  0
  1 27  1  0
  1 28  1  0
  2 29  1  0
  3 30  1  0
  3 31  1  0
  3 32  1  0
  5 33  1  0
 10 34  1  0
 10 35  1  0
 11 36  1  0
 11 37  1  0
 13 38  1  0
 15 39  1  0
 17 40  1  0
 18 41  1  0
 20 42  1  0
 20 43  1  0
 22 44  1  0
 23 45  1  0
 25 46  1  0
M  END
$$$$
[H]OC([H])([H])[C@]([H])(O[H])[C@@]([H])(O[H])c1nc(N([H])[H])sc1-c1c([H])c([H])c(N([H])C(=O)c2nc([H])c([H])c([H])c2[H])c([H])c1OC([H])([H])[H]
     RDKit          3D

 49 51  0  0  0  0  0  0  0  0999 V2000
   -3.4448   -0.1517    0.5902 C   0  0  0  0  0  0  0  0  0  0  0  0
   -3.4998    1.3297    0.9165 C   0  0  2  0  0  0  0  0  0  0  0  0
   -3.2012    1.4736    2.2678 O   0  0  0  0  0  0  0  0  0  0  0  0
   -4.9292    1.8436    0.6706 C   0  0  2  0  0  0  0  0  0  0  0  0
   -5.2384    1.8256   -0.8108 C   0  0  0  0  0  0  0  0  0  0  0  0
   -4.2785    2.6289   -1.4544 O   0  0  0  0  0  0  0  0  0  0  0  0
   -5.0189    3.1778    1.0644 O   0  0  0  0  0  0  0  0  0  0  0  0
   -4.5828   -0.8139    0.5275 N   0  0  0  0  0  0  0  0  0  0  0  0
   -4.6181   -2.0928    0.2795 C   0  0  0  0  0  0  0  0  0  0  0  0
   -5.7719   -2.9691    0.1739 N   0  0  0  0  0  0  0  0  0  0  0  0
   -2.9708   -2.4536    0.1121 S   0  0  0  0  0  0  0  0  0  0  0  0
   -2.3055   -0.8725    0.3818 C   0  0  0  0  0  0  0  0  0  0  0  0
   -0.8780   -0.5312    0.3213 C   0  0  0  0  0  0  0  0  0  0  0  0
   -0.0307   -1.5894   -0.0928 C   0  0  0  0  0  0  0  0  0  0  0  0
   -0.5963   -2.8194   -0.3850 O   0  0  0  0  0  0  0  0  0  0  0  0
    0.1150   -3.9242   -0.7973 C   0  0  0  0  0  0  0  0  0  0  0  0
    1.2915   -1.3642   -0.1884 C   0  0  0  0  0  0  0  0  0  0  0  0
    1.9052   -0.1531    0.0918 C   0  0  0  0  0  0  0  0  0  0  0  0
    3.2991   -0.0396   -0.0819 N   0  0  0  0  0  0  0  0  0  0  0  0
    4.1583    0.9799    0.3122 C   0  0  0  0  0  0  0  0  0  0  0  0
    3.7271    1.9859    0.9247 O   0  0  0  0  0  0  0  0  0  0  0  0
    5.5730    0.9460    0.0441 C   0  0  0  0  0  0  0  0  0  0  0  0
    6.1910   -0.0986   -0.5846 C   0  0  0  0  0  0  0  0  0  0  0  0
    7.5548   -0.1075   -0.8454 C   0  0  0  0  0  0  0  0  0  0  0  0
    8.3115    0.9550   -0.4664 C   0  0  0  0  0  0  0  0  0  0  0  0
    7.6875    2.0254    0.1763 C   0  0  0  0  0  0  0  0  0  0  0  0
    6.3697    1.9884    0.4059 N   0  0  0  0  0  0  0  0  0  0  0  0
    1.0665    0.8467    0.4891 C   0  0  0  0  0  0  0  0  0  0  0  0
   -0.3048    0.6470    0.5986 C   0  0  0  0  0  0  0  0  0  0  0  0
   -2.8727    1.9511    0.3081 H   0  0  0  0  0  0  0  0  0  0  0  0
   -3.0444    2.4197    2.5052 H   0  0  0  0  0  0  0  0  0  0  0  0
   -5.6230    1.1638    1.1749 H   0  0  0  0  0  0  0  0  0  0  0  0
   -6.2604    2.2722   -0.9328 H   0  0  0  0  0  0  0  0  0  0  0  0
   -5.2924    0.8398   -1.2630 H   0  0  0  0  0  0  0  0  0  0  0  0
   -4.0090    2.1972   -2.3043 H   0  0  0  0  0  0  0  0  0  0  0  0
   -4.6898    3.7300    0.3293 H   0  0  0  0  0  0  0  0  0  0  0  0
   -6.0272   -3.6428    0.9002 H   0  0  0  0  0  0  0  0  0  0  0  0
   -6.3253   -2.8604   -0.7031 H   0  0  0  0  0  0  0  0  0  0  0  0
   -0.3259   -4.3271   -1.7729 H   0  0  0  0  0  0  0  0  0  0  0  0
    1.1939   -3.8383   -0.9351 H   0  0  0  0  0  0  0  0  0  0  0  0
    0.0060   -4.7718   -0.0400 H   0  0  0  0  0  0  0  0  0  0  0  0
    1.9613   -2.1597   -0.5001 H   0  0  0  0  0  0  0  0  0  0  0  0
    3.7725   -0.8508   -0.5988 H   0  0  0  0  0  0  0  0  0  0  0  0
    5.6413   -0.9760   -0.9101 H   0  0  0  0  0  0  0  0  0  0  0  0
    7.9862   -0.9457   -1.3380 H   0  0  0  0  0  0  0  0  0  0  0  0
    9.3738    0.9605   -0.6631 H   0  0  0  0  0  0  0  0  0  0  0  0
    8.3292    2.8433    0.4560 H   0  0  0  0  0  0  0  0  0  0  0  0
    1.4782    1.8289    0.7207 H   0  0  0  0  0  0  0  0  0  0  0  0
   -0.8527    1.4935    0.9253 H   0  0  0  0  0  0  0  0  0  0  0  0
  1  2  1  0
  2  3  1  0
  2  4  1  0
  4  5  1  0
  5  6  1  0
  4  7  1  0
  1  8  1  0
  8  9  2  0
  9 10  1  0
  9 11  1  0
 11 12  1  0
 12 13  1  0
 13 14  2  0
 14 15  1  0
 15 16  1  0
 14 17  1  0
 17 18  2  0
 18 19  1  0
 19 20  1  0
 20 21  2  0
 20 22  1  0
 22 23  2  0
 23 24  1  0
 24 25  2  0
 25 26  1  0
 26 27  2  0
 18 28  1  0
 28 29  2  0
 12  1  2  0
 29 13  1  0
 27 22  1  0
  2 30  1  6
  3 31  1  0
  4 32  1  1
  5 33  1  0
  5 34  1  0
  6 35  1  0
  7 36  1  0
 10 37  1  0
 10 38  1  0
 16 39  1  0
 16 40  1  0
 16 41  1  0
 17 42  1  0
 19 43  1  0
 23 44  1  0
 24 45  1  0
 25 46  1  0
 26 47  1  0
 28 48  1  0
 29 49  1  0
M  END
$$$$
[H]OC(=O)C([H])([H])Oc1c([H])c([H])c2c(N([H])c3c([H])c([H])c(F)c([H])c3[H])nc([H])c([H])c2c1[H]
     RDKit          3D

 36 38  0  0  0  0  0  0  0  0999 V2000
    6.6113   -0.5107   -2.2287 O   0  0  0  0  0  0  0  0  0  0  0  0
    6.5133   -0.7985   -0.8745 C   0  0  0  0  0  0  0  0  0  0  0  0
    7.5805   -1.0974   -0.2819 O   0  0  0  0  0  0  0  0  0  0  0  0
    5.2374   -0.7673   -0.1261 C   0  0  0  0  0  0  0  0  0  0  0  0
    4.2140   -0.4036   -1.0386 O   0  0  0  0  0  0  0  0  0  0  0  0
    2.8816   -0.2863   -0.6352 C   0  0  0  0  0  0  0  0  0  0  0  0
    1.9657    0.0722   -1.5992 C   0  0  0  0  0  0  0  0  0  0  0  0
    0.6340    0.2030   -1.2572 C   0  0  0  0  0  0  0  0  0  0  0  0
    0.2303   -0.0246    0.0398 C   0  0  0  0  0  0  0  0  0  0  0  0
   -1.1091    0.0937    0.4513 C   0  0  0  0  0  0  0  0  0  0  0  0
   -2.0741    0.4230   -0.5350 N   0  0  0  0  0  0  0  0  0  0  0  0
   -3.4452    0.6034   -0.1853 C   0  0  0  0  0  0  0  0  0  0  0  0
   -3.9093    1.1145    0.9971 C   0  0  0  0  0  0  0  0  0  0  0  0
   -5.2889    1.1912    1.1986 C   0  0  0  0  0  0  0  0  0  0  0  0
   -6.1968    0.7734    0.2531 C   0  0  0  0  0  0  0  0  0  0  0  0
   -7.5372    0.8342    0.4174 F   0  0  0  0  0  0  0  0  0  0  0  0
   -5.7074    0.2641   -0.9283 C   0  0  0  0  0  0  0  0  0  0  0  0
   -4.3675    0.1734   -1.1601 C   0  0  0  0  0  0  0  0  0  0  0  0
   -1.4782   -0.1327    1.7294 N   0  0  0  0  0  0  0  0  0  0  0  0
   -0.5761   -0.4779    2.6449 C   0  0  0  0  0  0  0  0  0  0  0  0
    0.7509   -0.6125    2.3143 C   0  0  0  0  0  0  0  0  0  0  0  0
    1.1539   -0.3856    1.0107 C   0  0  0  0  0  0  0  0  0  0  0  0
    2.4825   -0.5136    0.6579 C   0  0  0  0  0  0  0  0  0  0  0  0
    6.1543    0.3466   -2.5385 H   0  0  0  0  0  0  0  0  0  0  0  0
    5.3085   -0.0413    0.7266 H   0  0  0  0  0  0  0  0  0  0  0  0
    5.0716   -1.7529    0.3294 H   0  0  0  0  0  0  0  0  0  0  0  0
    2.3001    0.2502   -2.6273 H   0  0  0  0  0  0  0  0  0  0  0  0
   -0.0706    0.4825   -2.0033 H   0  0  0  0  0  0  0  0  0  0  0  0
   -1.8301    0.5482   -1.5618 H   0  0  0  0  0  0  0  0  0  0  0  0
   -3.2604    1.4738    1.7562 H   0  0  0  0  0  0  0  0  0  0  0  0
   -5.6303    1.5940    2.1321 H   0  0  0  0  0  0  0  0  0  0  0  0
   -6.3712   -0.0825   -1.7153 H   0  0  0  0  0  0  0  0  0  0  0  0
   -3.9828   -0.2228   -2.0795 H   0  0  0  0  0  0  0  0  0  0  0  0
   -0.9257   -0.6472    3.6525 H   0  0  0  0  0  0  0  0  0  0  0  0
    1.4788   -0.8917    3.0552 H   0  0  0  0  0  0  0  0  0  0  0  0
    3.1924   -0.7922    1.4087 H   0  0  0  0  0  0  0  0  0  0  0  0
  1  2  1  0
  2  3  2  0
  2  4  1  0
  4  5  1  0
  5  6  1  0
  6  7  2  0
  7  8  1  0
  8  9  2  0
  9 10  1  0
 10 11  1  0
 11 12  1  0
 12 13  2  0
 13 14  1  0
 14 15  2  0
 15 16  1  0
 15 17  1  0
 17 18  2  0
 10 19  2  0
 19 20  1  0
 20 21  2  0
 21 22  1  0
 22 23  2  0
 23  6  1  0
 22  9  1  0
 18 12  1  0
  1 24  1  0
  4 25  1  0
  4 26  1  0
  7 27  1  0
  8 28  1  0
 11 29  1  0
 13 30  1  0
 14 31  1  0
 17 32  1  0
 18 33  1  0
 20 34  1  0
 21 35  1  0
 23 36  1  0
M  END
$$$$
[H]c1nc([H])c(C2([H])C([H])([H])C3([H])N(C([H])([H])[H])C([H])(C([H])([H])C3([H])[H])C2([H])[H])c([H])c1[H]
     RDKit          3D

 33 35  0  0  0  0  0  0  0  0999 V2000
   -3.2892   -1.4583    0.7072 C   0  0  0  0  0  0  0  0  0  0  0  0
   -1.9305   -1.0630    0.4463 N   0  0  0  0  0  0  0  0  0  0  0  0
   -1.7508   -0.4209   -0.8222 C   0  0  0  0  0  0  0  0  0  0  0  0
   -2.1328    1.0350   -0.6151 C   0  0  0  0  0  0  0  0  0  0  0  0
   -2.0316    1.2578    0.8602 C   0  0  0  0  0  0  0  0  0  0  0  0
   -1.4539   -0.0461    1.3663 C   0  0  0  0  0  0  0  0  0  0  0  0
    0.0434    0.0487    1.2892 C   0  0  0  0  0  0  0  0  0  0  0  0
    0.5392    0.3030   -0.1121 C   0  0  0  0  0  0  0  0  0  0  0  0
   -0.2735   -0.4491   -1.1473 C   0  0  0  0  0  0  0  0  0  0  0  0
    1.9794    0.0483   -0.2705 C   0  0  0  0  0  0  0  0  0  0  0  0
    2.8353    1.0755   -0.6150 C   0  0  0  0  0  0  0  0  0  0  0  0
    4.2054    0.8678   -0.7730 C   0  0  0  0  0  0  0  0  0  0  0  0
    4.7156   -0.4009   -0.5788 C   0  0  0  0  0  0  0  0  0  0  0  0
    3.8719   -1.3909   -0.2440 N   0  0  0  0  0  0  0  0  0  0  0  0
    2.5589   -1.1850   -0.0940 C   0  0  0  0  0  0  0  0  0  0  0  0
   -3.3058   -2.5763    0.7078 H   0  0  0  0  0  0  0  0  0  0  0  0
   -3.9931   -1.0988   -0.0752 H   0  0  0  0  0  0  0  0  0  0  0  0
   -3.6334   -1.1601    1.7263 H   0  0  0  0  0  0  0  0  0  0  0  0
   -2.3694   -0.8056   -1.6300 H   0  0  0  0  0  0  0  0  0  0  0  0
   -1.4598    1.6771   -1.2169 H   0  0  0  0  0  0  0  0  0  0  0  0
   -3.1673    1.2375   -0.9704 H   0  0  0  0  0  0  0  0  0  0  0  0
   -2.9580    1.5526    1.3451 H   0  0  0  0  0  0  0  0  0  0  0  0
   -1.2701    2.0651    1.0328 H   0  0  0  0  0  0  0  0  0  0  0  0
   -1.8043   -0.2512    2.3749 H   0  0  0  0  0  0  0  0  0  0  0  0
    0.3698    0.8795    1.9499 H   0  0  0  0  0  0  0  0  0  0  0  0
    0.4696   -0.8725    1.7098 H   0  0  0  0  0  0  0  0  0  0  0  0
    0.3698    1.3798   -0.3158 H   0  0  0  0  0  0  0  0  0  0  0  0
    0.0178   -1.5191   -1.2076 H   0  0  0  0  0  0  0  0  0  0  0  0
   -0.1630    0.0190   -2.1475 H   0  0  0  0  0  0  0  0  0  0  0  0
    2.4687    2.0810   -0.7745 H   0  0  0  0  0  0  0  0  0  0  0  0
    4.8311    1.7037   -1.0430 H   0  0  0  0  0  0  0  0  0  0  0  0
    5.7748   -0.5323   -0.7072 H   0  0  0  0  0  0  0  0  0  0  0  0
    1.9358   -2.0013    0.1714 H   0  0  0  0  0  0  0  0  0  0  0  0
  1  2  1  0
  2  3  1  0
  3  4  1  0
  4  5  1  0
  5  6  1  0
  6  7  1  0
  7  8  1  0
  8  9  1  0
  8 10  1  0
 10 11  2  0
 11 12  1  0
 12 13  2  0
 13 14  1  0
 14 15  2  0
  6  2  1  0
 15 10  1  0
  9  3  1  0
  1 16  1  0
  1 17  1  0
  1 18  1  0
  3 19  1  0
  4 20  1  0
  4 21  1  0
  5 22  1  0
  5 23  1  0
  6 24  1  0
  7 25  1  0
  7 26  1  0
  8 27  1  0
  9 28  1  0
  9 29  1  0
 11 30  1  0
 12 31  1  0
 13 32  1  0
 15 33  1  0
M  END
$$$$
[H]c1nc([H])n([H])c1C#Cc1c([H])c(C(=O)N([H])c2c([H])c([H])c(C([H])([H])N3C([H])([H])C([H])([H])N(C([H])([H])[H])C([H])([H])C3([H])[H])c(C(F)(F)F)c2[H])c([H])c([H])c1C([H])([H])[H]
     RDKit          3D

 61 64  0  0  0  0  0  0  0  0999 V2000
   -7.6406    0.2362   -2.9984 C   0  0  0  0  0  0  0  0  0  0  0  0
   -7.2718    0.8912   -1.7607 N   0  0  0  0  0  0  0  0  0  0  0  0
   -5.9861    1.5003   -1.8299 C   0  0  0  0  0  0  0  0  0  0  0  0
   -4.8411    0.6253   -1.4402 C   0  0  0  0  0  0  0  0  0  0  0  0
   -5.0929    0.0524   -0.1756 N   0  0  0  0  0  0  0  0  0  0  0  0
   -4.4225    0.5983    0.9529 C   0  0  0  0  0  0  0  0  0  0  0  0
   -2.9700    0.4280    0.9989 C   0  0  0  0  0  0  0  0  0  0  0  0
   -2.2538   -0.2831    0.0469 C   0  0  0  0  0  0  0  0  0  0  0  0
   -0.8908   -0.4576    0.1249 C   0  0  0  0  0  0  0  0  0  0  0  0
   -0.1259    0.0738    1.1786 C   0  0  0  0  0  0  0  0  0  0  0  0
    1.2750   -0.1328    1.1766 N   0  0  0  0  0  0  0  0  0  0  0  0
    2.0855    0.0575    2.3071 C   0  0  0  0  0  0  0  0  0  0  0  0
    1.7191    0.4142    3.4428 O   0  0  0  0  0  0  0  0  0  0  0  0
    3.5422   -0.1923    2.1404 C   0  0  0  0  0  0  0  0  0  0  0  0
    4.3178   -0.3897    3.2648 C   0  0  0  0  0  0  0  0  0  0  0  0
    5.6705   -0.6187    3.1918 C   0  0  0  0  0  0  0  0  0  0  0  0
    6.2367   -0.6450    1.9368 C   0  0  0  0  0  0  0  0  0  0  0  0
    7.6978   -0.8920    1.8515 C   0  0  0  0  0  0  0  0  0  0  0  0
    5.5220   -0.4562    0.7816 C   0  0  0  0  0  0  0  0  0  0  0  0
    4.1528   -0.2274    0.9091 C   0  0  0  0  0  0  0  0  0  0  0  0
    6.1374   -0.4878   -0.5269 C   0  0  0  0  0  0  0  0  0  0  0  0
    6.6318   -0.5097   -1.6269 C   0  0  0  0  0  0  0  0  0  0  0  0
    7.1972   -0.5332   -2.9463 C   0  0  0  0  0  0  0  0  0  0  0  0
    6.4459   -0.6604   -4.0949 C   0  0  0  0  0  0  0  0  0  0  0  0
    7.2770   -0.6468   -5.1538 N   0  0  0  0  0  0  0  0  0  0  0  0
    8.5384   -0.5137   -4.6998 C   0  0  0  0  0  0  0  0  0  0  0  0
    8.4798   -0.4445   -3.3389 N   0  0  0  0  0  0  0  0  0  0  0  0
   -0.8375    0.7698    2.1077 C   0  0  0  0  0  0  0  0  0  0  0  0
   -2.2354    0.9546    2.0368 C   0  0  0  0  0  0  0  0  0  0  0  0
   -2.9007    1.7460    3.1099 C   0  0  0  0  0  0  0  0  0  0  0  0
   -3.5118    2.8890    2.6355 F   0  0  0  0  0  0  0  0  0  0  0  0
   -3.7958    0.9598    3.8526 F   0  0  0  0  0  0  0  0  0  0  0  0
   -1.9219    2.0953    4.0599 F   0  0  0  0  0  0  0  0  0  0  0  0
   -6.3696   -0.4791    0.0908 C   0  0  0  0  0  0  0  0  0  0  0  0
   -7.5243    0.0872   -0.6144 C   0  0  0  0  0  0  0  0  0  0  0  0
   -7.4132   -0.8506   -2.9270 H   0  0  0  0  0  0  0  0  0  0  0  0
   -8.7378    0.3500   -3.1467 H   0  0  0  0  0  0  0  0  0  0  0  0
   -7.0827    0.6181   -3.8719 H   0  0  0  0  0  0  0  0  0  0  0  0
   -5.8179    1.7932   -2.9084 H   0  0  0  0  0  0  0  0  0  0  0  0
   -5.9579    2.4766   -1.2791 H   0  0  0  0  0  0  0  0  0  0  0  0
   -4.6583   -0.1528   -2.2040 H   0  0  0  0  0  0  0  0  0  0  0  0
   -3.9445    1.2779   -1.3793 H   0  0  0  0  0  0  0  0  0  0  0  0
   -4.7761    1.6474    1.0592 H   0  0  0  0  0  0  0  0  0  0  0  0
   -4.8707    0.0713    1.8524 H   0  0  0  0  0  0  0  0  0  0  0  0
   -2.7945   -0.7307   -0.7838 H   0  0  0  0  0  0  0  0  0  0  0  0
   -0.3426   -1.0216   -0.6342 H   0  0  0  0  0  0  0  0  0  0  0  0
    1.6998   -0.4487    0.2536 H   0  0  0  0  0  0  0  0  0  0  0  0
    3.8216   -0.3600    4.2424 H   0  0  0  0  0  0  0  0  0  0  0  0
    6.2070   -0.7636    4.1174 H   0  0  0  0  0  0  0  0  0  0  0  0
    8.2574    0.0721    1.8906 H   0  0  0  0  0  0  0  0  0  0  0  0
    7.9070   -1.3638    0.8688 H   0  0  0  0  0  0  0  0  0  0  0  0
    8.0298   -1.5442    2.6963 H   0  0  0  0  0  0  0  0  0  0  0  0
    3.6229   -0.0797   -0.0031 H   0  0  0  0  0  0  0  0  0  0  0  0
    5.3532   -0.7569   -4.1438 H   0  0  0  0  0  0  0  0  0  0  0  0
    9.4680   -0.4640   -5.2503 H   0  0  0  0  0  0  0  0  0  0  0  0
    9.2712   -0.3399   -2.6677 H   0  0  0  0  0  0  0  0  0  0  0  0
   -0.3357    1.2221    2.9408 H   0  0  0  0  0  0  0  0  0  0  0  0
   -6.5535   -0.3881    1.2037 H   0  0  0  0  0  0  0  0  0  0  0  0
   -6.3111   -1.5993   -0.0612 H   0  0  0  0  0  0  0  0  0  0  0  0
   -8.2064   -0.7473   -0.9346 H   0  0  0  0  0  0  0  0  0  0  0  0
   -8.1690    0.7058    0.0782 H   0  0  0  0  0  0  0  0  0  0  0  0
  1  2  1  0
  2  3  1  0
  3  4  1  0
  4  5  1  0
  5  6  1  0
  6  7  1  0
  7  8  2  0
  8  9  1  0
  9 10  2  0
 10 11  1  0
 11 12  1  0
 12 13  2  0
 12 14  1  0
 14 15  2  0
 15 16  1  0
 16 17  2  0
 17 18  1  0
 17 19  1  0
 19 20  2  0
 19 21  1  0
 21 22  3  0
 22 23  1  0
 23 24  2  0
 24 25  1  0
 25 26  2  0
 26 27  1  0
 10 28  1  0
 28 29  2  0
 29 30  1  0
 30 31  1  0
 30 32  1  0
 30 33  1  0
  5 34  1  0
 34 35  1  0
 35  2  1  0
 29  7  1  0
 20 14  1  0
 27 23  1  0
  1 36  1  0
  1 37  1  0
  1 38  1  0
  3 39  1  0
  3 40  1  0
  4 41  1  0
  4 42  1  0
  6 43  1  0
  6 44  1  0
  8 45  1  0
  9 46  1  0
 11 47  1  0
 15 48  1  0
 16 49  1  0
 18 50  1  0
 18 51  1  0
 18 52  1  0
 20 53  1  0
 24 54  1  0
 26 55  1  0
 27 56  1  0
 28 57  1  0
 34 58  1  0
 34 59  1  0
 35 60  1  0
 35 61  1  0
M  END
$$$$
[H]OC(=O)[C@]1([H])C([H])([H])C([H])([H])c2c(n([H])c3c([H])c([H])c([H])c([H])c23)[C@@]([H])(O[H])C([H])([H])[C@]2([H])[C@]([H])(N([H])[H])C([H])([H])[C@]21[H]
     RDKit          3D

 45 48  0  0  0  0  0  0  0  0999 V2000
   -3.5015    2.2399    0.2610 N   0  0  0  0  0  0  0  0  0  0  0  0
   -3.3597    1.1944   -0.7273 C   0  0  2  0  0  0  0  0  0  0  0  0
   -3.7403   -0.1397   -0.1164 C   0  0  0  0  0  0  0  0  0  0  0  0
   -2.2929   -0.2660    0.3080 C   0  0  1  0  0  0  0  0  0  0  0  0
   -1.6651   -1.6063    0.0277 C   0  0  1  0  0  0  0  0  0  0  0  0
   -0.2239   -1.5429    0.4944 C   0  0  0  0  0  0  0  0  0  0  0  0
    0.7141   -1.2887   -0.6640 C   0  0  0  0  0  0  0  0  0  0  0  0
    1.6704   -0.1841   -0.3978 C   0  0  0  0  0  0  0  0  0  0  0  0
    1.5002    1.1161   -0.7167 C   0  0  0  0  0  0  0  0  0  0  0  0
    2.6008    1.8006   -0.3034 N   0  0  0  0  0  0  0  0  0  0  0  0
    3.4822    0.9709    0.2775 C   0  0  0  0  0  0  0  0  0  0  0  0
    4.7236    1.1371    0.8535 C   0  0  0  0  0  0  0  0  0  0  0  0
    5.4236    0.0672    1.3893 C   0  0  0  0  0  0  0  0  0  0  0  0
    4.8635   -1.1925    1.3443 C   0  0  0  0  0  0  0  0  0  0  0  0
    3.6203   -1.3385    0.7637 C   0  0  0  0  0  0  0  0  0  0  0  0
    2.9240   -0.2636    0.2288 C   0  0  0  0  0  0  0  0  0  0  0  0
    0.2849    1.6655   -1.4089 C   0  0  1  0  0  0  0  0  0  0  0  0
    0.1268    1.0473   -2.6303 O   0  0  0  0  0  0  0  0  0  0  0  0
   -0.9267    1.6381   -0.5267 C   0  0  0  0  0  0  0  0  0  0  0  0
   -1.9550    0.6441   -0.8688 C   0  0  2  0  0  0  0  0  0  0  0  0
   -2.4451   -2.6486    0.6992 C   0  0  0  0  0  0  0  0  0  0  0  0
   -2.6081   -2.6417    2.0828 O   0  0  0  0  0  0  0  0  0  0  0  0
   -3.0055   -3.5968    0.0778 O   0  0  0  0  0  0  0  0  0  0  0  0
   -3.5174    3.1903   -0.1518 H   0  0  0  0  0  0  0  0  0  0  0  0
   -4.4298    2.1063    0.7318 H   0  0  0  0  0  0  0  0  0  0  0  0
   -3.8734    1.4231   -1.6821 H   0  0  0  0  0  0  0  0  0  0  0  0
   -3.9968   -0.8931   -0.8772 H   0  0  0  0  0  0  0  0  0  0  0  0
   -4.4669   -0.0414    0.7243 H   0  0  0  0  0  0  0  0  0  0  0  0
   -2.0378    0.2020    1.2566 H   0  0  0  0  0  0  0  0  0  0  0  0
   -1.6451   -1.8122   -1.0669 H   0  0  0  0  0  0  0  0  0  0  0  0
   -0.0598   -0.8043    1.2978 H   0  0  0  0  0  0  0  0  0  0  0  0
   -0.0318   -2.5430    0.9834 H   0  0  0  0  0  0  0  0  0  0  0  0
    0.1381   -1.1620   -1.5828 H   0  0  0  0  0  0  0  0  0  0  0  0
    1.2884   -2.2443   -0.8111 H   0  0  0  0  0  0  0  0  0  0  0  0
    2.7754    2.8264   -0.4042 H   0  0  0  0  0  0  0  0  0  0  0  0
    5.1706    2.1269    0.8923 H   0  0  0  0  0  0  0  0  0  0  0  0
    6.3971    0.1801    1.8442 H   0  0  0  0  0  0  0  0  0  0  0  0
    5.3994   -2.0451    1.7606 H   0  0  0  0  0  0  0  0  0  0  0  0
    3.1748   -2.3145    0.7232 H   0  0  0  0  0  0  0  0  0  0  0  0
    0.4532    2.7483   -1.6579 H   0  0  0  0  0  0  0  0  0  0  0  0
   -0.3369    1.5750   -3.3071 H   0  0  0  0  0  0  0  0  0  0  0  0
   -0.5486    1.4049    0.5133 H   0  0  0  0  0  0  0  0  0  0  0  0
   -1.4038    2.6463   -0.4027 H   0  0  0  0  0  0  0  0  0  0  0  0
   -1.8783    0.1115   -1.8334 H   0  0  0  0  0  0  0  0  0  0  0  0
   -2.7813   -3.4930    2.6021 H   0  0  0  0  0  0  0  0  0  0  0  0
  1  2  1  0
  2  3  1  0
  3  4  1  0
  4  5  1  0
  5  6  1  0
  6  7  1  0
  7  8  1  0
  8  9  2  0
  9 10  1  0
 10 11  1  0
 11 12  2  0
 12 13  1  0
 13 14  2  0
 14 15  1  0
 15 16  2  0
  9 17  1  0
 17 18  1  0
 17 19  1  0
 19 20  1  0
  5 21  1  0
 21 22  1  0
 21 23  2  0
 20  2  1  0
 20  4  1  0
 16  8  1  0
 16 11  1  0
  1 24  1  0
  1 25  1  0
  2 26  1  6
  3 27  1  0
  3 28  1  0
  4 29  1  1
  5 30  1  6
  6 31  1  0
  6 32  1  0
  7 33  1  0
  7 34  1  0
 10 35  1  0
 12 36  1  0
 13 37  1  0
 14 38  1  0
 15 39  1  0
 17 40  1  6
 18 41  1  0
 19 42  1  0
 19 43  1  0
 20 44  1  6
 22 45  1  0
M  END
$$$$
[H]OC(=O)[C@@]([H])(N([H])C(=O)[C@@]([H])(N([H])[H])C([H])([H])c1c([H])c([H])c([H])c([H])c1[H])C([H])([H])c1c([H])c([H])c([H])c([H])c1[H]
     RDKit          3D

 43 44  0  0  0  0  0  0  0  0999 V2000
   -2.6830    0.1250   -2.1455 N   0  0  0  0  0  0  0  0  0  0  0  0
   -2.0048    0.2616   -0.8824 C   0  0  1  0  0  0  0  0  0  0  0  0
   -2.4904   -0.8069    0.0684 C   0  0  0  0  0  0  0  0  0  0  0  0
   -3.9634   -0.6925    0.3043 C   0  0  0  0  0  0  0  0  0  0  0  0
   -4.8768   -1.3394   -0.4706 C   0  0  0  0  0  0  0  0  0  0  0  0
   -6.2456   -1.2554   -0.2799 C   0  0  0  0  0  0  0  0  0  0  0  0
   -6.6946   -0.4644    0.7624 C   0  0  0  0  0  0  0  0  0  0  0  0
   -5.7842    0.2042    1.5653 C   0  0  0  0  0  0  0  0  0  0  0  0
   -4.4451    0.0976    1.3475 C   0  0  0  0  0  0  0  0  0  0  0  0
   -0.5476   -0.0136   -1.1150 C   0  0  0  0  0  0  0  0  0  0  0  0
   -0.1122   -0.3006   -2.2393 O   0  0  0  0  0  0  0  0  0  0  0  0
    0.2749    0.0804    0.0380 N   0  0  0  0  0  0  0  0  0  0  0  0
    1.7145   -0.1841   -0.1551 C   0  0  2  0  0  0  0  0  0  0  0  0
    2.0942   -1.3405    0.6694 C   0  0  0  0  0  0  0  0  0  0  0  0
    1.2158   -1.8800    1.4260 O   0  0  0  0  0  0  0  0  0  0  0  0
    3.3386   -1.9232    0.7103 O   0  0  0  0  0  0  0  0  0  0  0  0
    2.3813    1.1120    0.1947 C   0  0  0  0  0  0  0  0  0  0  0  0
    3.8320    1.0518    0.0602 C   0  0  0  0  0  0  0  0  0  0  0  0
    4.6692    0.7513    1.0962 C   0  0  0  0  0  0  0  0  0  0  0  0
    6.0146    0.7113    0.9003 C   0  0  0  0  0  0  0  0  0  0  0  0
    6.5520    0.9724   -0.3426 C   0  0  0  0  0  0  0  0  0  0  0  0
    5.6991    1.2755   -1.3851 C   0  0  0  0  0  0  0  0  0  0  0  0
    4.3505    1.3216   -1.2139 C   0  0  0  0  0  0  0  0  0  0  0  0
   -2.3355   -0.6868   -2.6954 H   0  0  0  0  0  0  0  0  0  0  0  0
   -2.5297    1.0063   -2.7087 H   0  0  0  0  0  0  0  0  0  0  0  0
   -2.1553    1.2718   -0.5088 H   0  0  0  0  0  0  0  0  0  0  0  0
   -2.0117   -0.7361    1.0619 H   0  0  0  0  0  0  0  0  0  0  0  0
   -2.2294   -1.8013   -0.3510 H   0  0  0  0  0  0  0  0  0  0  0  0
   -4.5252   -1.9678   -1.2981 H   0  0  0  0  0  0  0  0  0  0  0  0
   -6.9525   -1.7895   -0.9225 H   0  0  0  0  0  0  0  0  0  0  0  0
   -7.7584   -0.3619    0.9579 H   0  0  0  0  0  0  0  0  0  0  0  0
   -6.1620    0.8161    2.3737 H   0  0  0  0  0  0  0  0  0  0  0  0
   -3.7141    0.6063    1.9562 H   0  0  0  0  0  0  0  0  0  0  0  0
   -0.0334    0.3117    0.9811 H   0  0  0  0  0  0  0  0  0  0  0  0
    1.9322   -0.4243   -1.2226 H   0  0  0  0  0  0  0  0  0  0  0  0
    3.7908   -2.3608   -0.0873 H   0  0  0  0  0  0  0  0  0  0  0  0
    1.9834    1.8887   -0.4936 H   0  0  0  0  0  0  0  0  0  0  0  0
    2.0998    1.4484    1.2224 H   0  0  0  0  0  0  0  0  0  0  0  0
    4.2621    0.5441    2.0767 H   0  0  0  0  0  0  0  0  0  0  0  0
    6.6670    0.4716    1.7315 H   0  0  0  0  0  0  0  0  0  0  0  0
    7.6083    0.9502   -0.5353 H   0  0  0  0  0  0  0  0  0  0  0  0
    6.0971    1.4869   -2.3815 H   0  0  0  0  0  0  0  0  0  0  0  0
    3.6778    1.5622   -2.0425 H   0  0  0  0  0  0  0  0  0  0  0  0
  1  2  1  0
  2  3  1  0
  3  4  1  0
  4  5  2  0
  5  6  1  0
  6  7  2  0
  7  8  1  0
  8  9  2  0
  2 10  1  0
 10 11  2  0
 10 12  1  0
 12 13  1  0
 13 14  1  0
 14 15  2  0
 14 16  1  0
 13 17  1  0
 17 18  1  0
 18 19  2  0
 19 20  1  0
 20 21  2  0
 21 22  1  0
 22 23  2  0
  9  4  1  0
 23 18  1  0
  1 24  1  0
  1 25  1  0
  2 26  1  1
  3 27  1  0
  3 28  1  0
  5 29  1  0
  6 30  1  0
  7 31  1  0
  8 32  1  0
  9 33  1  0
 12 34  1  0
 13 35  1  6
 16 36  1  0
 17 37  1  0
 17 38  1  0
 19 39  1  0
 20 40  1  0
 21 41  1  0
 22 42  1  0
 23 43  1  0
M  END
$$$$
[H]c1c([H])c([H])c2c(c1[H])c1c3c(c4c5c([H])c([H])c([H])c([H])c5n5c4c1n2[C@@]1([H])O[C@@]5(C([H])([H])[H])[C@@]([H])(N([H])C([H])([H])[H])C1([H])[H])C([H])([H])N([H])C3=O
     RDKit          2D

 54 61  0  0  0  0  0  0  0  0999 V2000
    3.8173    0.5402    0.0000 C   0  0  0  0  0  0  0  0  0  0  0  0
    2.3907    1.0037    0.0000 N   0  0  0  0  0  0  0  0  0  0  0  0
    1.2760    0.0000    0.0000 C   0  0  0  0  0  0  0  0  0  0  0  0
    0.3943    1.2135    0.0000 C   0  0  0  0  0  0  0  0  0  0  0  0
   -1.0323    0.7500    0.0000 C   0  0  0  0  0  0  0  0  0  0  0  0
   -1.0323   -0.7500    0.0000 O   0  0  0  0  0  0  0  0  0  0  0  0
    0.3943   -1.2135    0.0000 C   0  0  0  0  0  0  0  0  0  0  0  0
    0.8578   -2.6401    0.0000 C   0  0  0  0  0  0  0  0  0  0  0  0
   -0.5926   -2.3431    0.0000 N   0  0  0  0  0  0  0  0  0  0  0  0
   -0.1936   -3.7891    0.0000 C   0  0  0  0  0  0  0  0  0  0  0  0
    1.1480   -4.4600    0.0000 C   0  0  0  0  0  0  0  0  0  0  0  0
    1.2377   -5.9574    0.0000 C   0  0  0  0  0  0  0  0  0  0  0  0
   -0.0141   -6.7837    0.0000 C   0  0  0  0  0  0  0  0  0  0  0  0
   -1.3557   -6.1127    0.0000 C   0  0  0  0  0  0  0  0  0  0  0  0
   -1.4454   -4.6154    0.0000 C   0  0  0  0  0  0  0  0  0  0  0  0
   -2.6182   -3.6802    0.0000 C   0  0  0  0  0  0  0  0  0  0  0  0
   -4.1997   -3.7135    0.0000 C   0  0  0  0  0  0  0  0  0  0  0  0
   -5.0814   -4.9270    0.0000 C   0  0  0  0  0  0  0  0  0  0  0  0
   -6.5080   -4.4635    0.0000 N   0  0  0  0  0  0  0  0  0  0  0  0
   -6.5080   -2.9635    0.0000 C   0  0  0  0  0  0  0  0  0  0  0  0
   -7.7215   -2.0818    0.0000 O   0  0  0  0  0  0  0  0  0  0  0  0
   -5.0814   -2.4999    0.0000 C   0  0  0  0  0  0  0  0  0  0  0  0
   -4.4713   -1.1296    0.0000 C   0  0  0  0  0  0  0  0  0  0  0  0
   -4.9983    0.2747    0.0000 C   0  0  0  0  0  0  0  0  0  0  0  0
   -6.3946    0.8228    0.0000 C   0  0  0  0  0  0  0  0  0  0  0  0
   -6.6182    2.3060    0.0000 C   0  0  0  0  0  0  0  0  0  0  0  0
   -5.4455    3.2412    0.0000 C   0  0  0  0  0  0  0  0  0  0  0  0
   -4.0491    2.6932    0.0000 C   0  0  0  0  0  0  0  0  0  0  0  0
   -3.8256    1.2100    0.0000 C   0  0  0  0  0  0  0  0  0  0  0  0
   -2.5737    0.3836    0.0000 N   0  0  0  0  0  0  0  0  0  0  0  0
   -2.9728   -1.0623    0.0000 C   0  0  0  0  0  0  0  0  0  0  0  0
   -2.0911   -2.2758    0.0000 C   0  0  0  0  0  0  0  0  0  0  0  0
    5.2439    0.0766    0.0000 H   0  0  0  0  0  0  0  0  0  0  0  0
    4.2808    1.9668    0.0000 H   0  0  0  0  0  0  0  0  0  0  0  0
    3.3538   -0.8864    0.0000 H   0  0  0  0  0  0  0  0  0  0  0  0
    2.2848    2.2141    0.0000 H   0  0  0  0  0  0  0  0  0  0  0  0
    2.3907   -1.0037    0.0000 H   0  0  0  0  0  0  0  0  0  0  0  0
   -0.2158    2.5838    0.0000 H   0  0  0  0  0  0  0  0  0  0  0  0
    1.3646    1.9448    0.0000 H   0  0  0  0  0  0  0  0  0  0  0  0
   -2.2458    1.6317    0.0000 H   0  0  0  0  0  0  0  0  0  0  0  0
    1.5017   -3.6705    0.0000 H   0  0  0  0  0  0  0  0  0  0  0  0
    2.2844   -2.1766    0.0000 H   0  0  0  0  0  0  0  0  0  0  0  0
    0.3041   -3.2136    0.0000 H   0  0  0  0  0  0  0  0  0  0  0  0
    2.3999   -3.6337    0.0000 H   0  0  0  0  0  0  0  0  0  0  0  0
    2.5793   -6.6283    0.0000 H   0  0  0  0  0  0  0  0  0  0  0  0
    0.0756   -8.2810    0.0000 H   0  0  0  0  0  0  0  0  0  0  0  0
   -2.6076   -6.9391    0.0000 H   0  0  0  0  0  0  0  0  0  0  0  0
   -3.7823   -5.6770    0.0000 H   0  0  0  0  0  0  0  0  0  0  0  0
   -5.6915   -6.2973    0.0000 H   0  0  0  0  0  0  0  0  0  0  0  0
   -7.7215   -5.3451    0.0000 H   0  0  0  0  0  0  0  0  0  0  0  0
   -7.5674   -0.1125    0.0000 H   0  0  0  0  0  0  0  0  0  0  0  0
   -8.0145    2.8540    0.0000 H   0  0  0  0  0  0  0  0  0  0  0  0
   -5.6690    4.7245    0.0000 H   0  0  0  0  0  0  0  0  0  0  0  0
   -2.8764    3.6285    0.0000 H   0  0  0  0  0  0  0  0  0  0  0  0
  1  2  1  0
  2  3  1  0
  3  4  1  0
  4  5  1  0
  5  6  1  0
  6  7  1  0
  7  8  1  6
  7  9  1  0
  9 10  1  0
 10 11  2  0
 11 12  1  0
 12 13  2  0
 13 14  1  0
 14 15  2  0
 15 16  1  0
 16 17  2  0
 17 18  1  0
 18 19  1  0
 19 20  1  0
 20 21  2  0
 20 22  1  0
 22 23  2  0
 23 24  1  0
 24 25  2  0
 25 26  1  0
 26 27  2  0
 27 28  1  0
 28 29  2  0
 29 30  1  0
 30 31  1  0
 31 32  2  0
  7  3  1  0
 32  9  1  0
 30  5  1  0
 15 10  1  0
 32 16  1  0
 22 17  1  0
 31 23  1  0
 29 24  1  0
  1 33  1  0
  1 34  1  0
  1 35  1  0
  2 36  1  0
  3 37  1  1
  4 38  1  0
  4 39  1  0
  5 40  1  1
  8 41  1  0
  8 42  1  0
  8 43  1  0
 11 44  1  0
 12 45  1  0
 13 46  1  0
 14 47  1  0
 18 48  1  0
 18 49  1  0
 19 50  1  0
 25 51  1  0
 26 52  1  0
 27 53  1  0
 28 54  1  0
M  END
$$$$
[H]c1nc2c([H])c(OC([H])([H])C([H])([H])C([H])([H])N3C([H])([H])C([H])([H])N(C([H])([H])[H])C([H])([H])C3([H])[H])c(OC([H])([H])[H])c([H])c2c(N([H])c2c([H])c(OC([H])([H])[H])c(Cl)c([H])c2Cl)c1C#N
     RDKit          3D

 65 68  0  0  0  0  0  0  0  0999 V2000
   -5.2946    0.1799   -2.9709 C   0  0  0  0  0  0  0  0  0  0  0  0
   -6.0951   -0.9158   -2.5530 O   0  0  0  0  0  0  0  0  0  0  0  0
   -6.1608   -1.1576   -1.1778 C   0  0  0  0  0  0  0  0  0  0  0  0
   -5.4971   -0.3938   -0.2509 C   0  0  0  0  0  0  0  0  0  0  0  0
   -5.5371   -0.6002    1.1107 C   0  0  0  0  0  0  0  0  0  0  0  0
   -4.8166    0.2382    2.0340 N   0  0  0  0  0  0  0  0  0  0  0  0
   -4.0248    1.3195    1.6049 C   0  0  0  0  0  0  0  0  0  0  0  0
   -4.6352    2.5531    1.4917 C   0  0  0  0  0  0  0  0  0  0  0  0
   -3.8290    3.6094    1.0643 C   0  0  0  0  0  0  0  0  0  0  0  0
   -2.5270    3.4300    0.7791 N   0  0  0  0  0  0  0  0  0  0  0  0
   -1.9535    2.2186    0.8968 C   0  0  0  0  0  0  0  0  0  0  0  0
   -0.6053    1.9975    0.6091 C   0  0  0  0  0  0  0  0  0  0  0  0
   -0.0254    0.7512    0.7328 C   0  0  0  0  0  0  0  0  0  0  0  0
    1.3282    0.5594    0.4376 O   0  0  0  0  0  0  0  0  0  0  0  0
    2.1607    1.6065    0.0051 C   0  0  0  0  0  0  0  0  0  0  0  0
    3.5417    1.0243   -0.2125 C   0  0  0  0  0  0  0  0  0  0  0  0
    3.4226   -0.0554   -1.2622 C   0  0  0  0  0  0  0  0  0  0  0  0
    4.6627   -0.6900   -1.5641 N   0  0  0  0  0  0  0  0  0  0  0  0
    5.1982   -1.4923   -0.4904 C   0  0  0  0  0  0  0  0  0  0  0  0
    6.5388   -0.9813   -0.0123 C   0  0  0  0  0  0  0  0  0  0  0  0
    7.5161   -0.9508   -1.0794 N   0  0  0  0  0  0  0  0  0  0  0  0
    8.4297    0.1509   -0.7994 C   0  0  0  0  0  0  0  0  0  0  0  0
    6.9128   -0.6710   -2.3660 C   0  0  0  0  0  0  0  0  0  0  0  0
    5.6339    0.1418   -2.1961 C   0  0  0  0  0  0  0  0  0  0  0  0
   -0.7837   -0.3247    1.1524 C   0  0  0  0  0  0  0  0  0  0  0  0
   -0.1660   -1.5451    1.2609 O   0  0  0  0  0  0  0  0  0  0  0  0
   -0.8182   -2.7273    1.6769 C   0  0  0  0  0  0  0  0  0  0  0  0
   -2.1295   -0.1321    1.4455 C   0  0  0  0  0  0  0  0  0  0  0  0
   -2.6832    1.1246    1.3132 C   0  0  0  0  0  0  0  0  0  0  0  0
   -6.0331    2.7467    1.7978 C   0  0  0  0  0  0  0  0  0  0  0  0
   -7.1560    2.8867    2.0549 N   0  0  0  0  0  0  0  0  0  0  0  0
   -6.3055   -1.6561    1.5519 C   0  0  0  0  0  0  0  0  0  0  0  0
   -6.4410   -2.0259    3.2478 Cl  0  0  0  0  0  0  0  0  0  0  0  0
   -7.0004   -2.4646    0.6587 C   0  0  0  0  0  0  0  0  0  0  0  0
   -6.9278   -2.2166   -0.6919 C   0  0  0  0  0  0  0  0  0  0  0  0
   -7.7733   -3.1886   -1.8765 Cl  0  0  0  0  0  0  0  0  0  0  0  0
   -5.4136    0.3597   -4.0746 H   0  0  0  0  0  0  0  0  0  0  0  0
   -4.2180   -0.0377   -2.8166 H   0  0  0  0  0  0  0  0  0  0  0  0
   -5.5182    1.1093   -2.4102 H   0  0  0  0  0  0  0  0  0  0  0  0
   -4.8824    0.4495   -0.5886 H   0  0  0  0  0  0  0  0  0  0  0  0
   -4.9019    0.0142    3.0487 H   0  0  0  0  0  0  0  0  0  0  0  0
   -4.3295    4.5717    0.9823 H   0  0  0  0  0  0  0  0  0  0  0  0
   -0.0170    2.8280    0.2846 H   0  0  0  0  0  0  0  0  0  0  0  0
    1.7778    1.9385   -1.0008 H   0  0  0  0  0  0  0  0  0  0  0  0
    2.1821    2.4558    0.7154 H   0  0  0  0  0  0  0  0  0  0  0  0
    4.2210    1.8377   -0.5139 H   0  0  0  0  0  0  0  0  0  0  0  0
    3.9285    0.6049    0.7361 H   0  0  0  0  0  0  0  0  0  0  0  0
    2.9821    0.3266   -2.1992 H   0  0  0  0  0  0  0  0  0  0  0  0
    2.7315   -0.8214   -0.8541 H   0  0  0  0  0  0  0  0  0  0  0  0
    5.2338   -2.5366   -0.8312 H   0  0  0  0  0  0  0  0  0  0  0  0
    4.5037   -1.4099    0.3697 H   0  0  0  0  0  0  0  0  0  0  0  0
    6.3881   -0.0055    0.4627 H   0  0  0  0  0  0  0  0  0  0  0  0
    6.9097   -1.6815    0.7631 H   0  0  0  0  0  0  0  0  0  0  0  0
    7.9186    0.8915   -0.1786 H   0  0  0  0  0  0  0  0  0  0  0  0
    9.2446   -0.2873   -0.1540 H   0  0  0  0  0  0  0  0  0  0  0  0
    8.8635    0.5756   -1.7319 H   0  0  0  0  0  0  0  0  0  0  0  0
    7.6268   -0.0558   -2.9818 H   0  0  0  0  0  0  0  0  0  0  0  0
    6.6852   -1.5665   -2.9435 H   0  0  0  0  0  0  0  0  0  0  0  0
    5.9066    1.0433   -1.6186 H   0  0  0  0  0  0  0  0  0  0  0  0
    5.2600    0.4179   -3.1952 H   0  0  0  0  0  0  0  0  0  0  0  0
   -1.6281   -3.0342    0.9852 H   0  0  0  0  0  0  0  0  0  0  0  0
   -0.0534   -3.5288    1.7326 H   0  0  0  0  0  0  0  0  0  0  0  0
   -1.1857   -2.5572    2.7031 H   0  0  0  0  0  0  0  0  0  0  0  0
   -2.7370   -0.9576    1.7739 H   0  0  0  0  0  0  0  0  0  0  0  0
   -7.6050   -3.2933    0.9881 H   0  0  0  0  0  0  0  0  0  0  0  0
  1  2  1  0
  2  3  1  0
  3  4  2  0
  4  5  1  0
  5  6  1  0
  6  7  1  0
  7  8  2  0
  8  9  1  0
  9 10  2  0
 10 11  1  0
 11 12  2  0
 12 13  1  0
 13 14  1  0
 14 15  1  0
 15 16  1  0
 16 17  1  0
 17 18  1  0
 18 19  1  0
 19 20  1  0
 20 21  1  0
 21 22  1  0
 21 23  1  0
 23 24  1  0
 13 25  2  0
 25 26  1  0
 26 27  1  0
 25 28  1  0
 28 29  2  0
  8 30  1  0
 30 31  3  0
  5 32  2  0
 32 33  1  0
 32 34  1  0
 34 35  2  0
 35 36  1  0
 35  3  1  0
 29  7  1  0
 29 11  1  0
 24 18  1  0
  1 37  1  0
  1 38  1  0
  1 39  1  0
  4 40  1  0
  6 41  1  0
  9 42  1  0
 12 43  1  0
 15 44  1  0
 15 45  1  0
 16 46  1  0
 16 47  1  0
 17 48  1  0
 17 49  1  0
 19 50  1  0
 19 51  1  0
 20 52  1  0
 20 53  1  0
 22 54  1  0
 22 55  1  0
 22 56  1  0
 23 57  1  0
 23 58  1  0
 24 59  1  0
 24 60  1  0
 27 61  1  0
 27 62  1  0
 27 63  1  0
 28 64  1  0
 34 65  1  0
M  END
$$$$
[H]c1nc(N2C([H])([H])C([H])([H])N([H])C([H])([H])C2([H])[H])c([H])c([H])c1-c1c([H])nn2c([H])c(-c3c([H])c([H])c(N4C([H])([H])C([H])([H])N([H])C([H])([H])C4([H])[H])c([H])c3[H])c([H])nc12
     RDKit          3D

 61 66  0  0  0  0  0  0  0  0999 V2000
   -4.5276   -1.1807   -1.4026 C   0  0  0  0  0  0  0  0  0  0  0  0
   -3.5530   -0.2994   -0.9837 C   0  0  0  0  0  0  0  0  0  0  0  0
   -2.2432   -0.2249   -1.6418 C   0  0  0  0  0  0  0  0  0  0  0  0
   -2.0617   -0.2065   -3.0233 C   0  0  0  0  0  0  0  0  0  0  0  0
   -0.7389   -0.1318   -3.2394 N   0  0  0  0  0  0  0  0  0  0  0  0
   -0.0815   -0.1023   -2.0913 N   0  0  0  0  0  0  0  0  0  0  0  0
    1.2507   -0.0299   -1.8092 C   0  0  0  0  0  0  0  0  0  0  0  0
    1.7020   -0.0129   -0.5068 C   0  0  0  0  0  0  0  0  0  0  0  0
    3.1361    0.0654   -0.1803 C   0  0  0  0  0  0  0  0  0  0  0  0
    3.9650    0.7484   -1.0183 C   0  0  0  0  0  0  0  0  0  0  0  0
    5.3110    0.8338   -0.7357 C   0  0  0  0  0  0  0  0  0  0  0  0
    5.8878    0.2477    0.3853 C   0  0  0  0  0  0  0  0  0  0  0  0
    7.2850    0.3567    0.6391 N   0  0  0  0  0  0  0  0  0  0  0  0
    7.8009   -0.2017    1.8439 C   0  0  0  0  0  0  0  0  0  0  0  0
    9.1958    0.1387    2.2193 C   0  0  0  0  0  0  0  0  0  0  0  0
    9.6181    1.3254    1.5079 N   0  0  0  0  0  0  0  0  0  0  0  0
    9.5306    1.0070    0.0750 C   0  0  0  0  0  0  0  0  0  0  0  0
    8.0907    1.0153   -0.3326 C   0  0  0  0  0  0  0  0  0  0  0  0
    5.0009   -0.4306    1.1977 C   0  0  0  0  0  0  0  0  0  0  0  0
    3.6511   -0.5323    0.9402 C   0  0  0  0  0  0  0  0  0  0  0  0
    0.7534   -0.0719    0.4879 C   0  0  0  0  0  0  0  0  0  0  0  0
   -0.5624   -0.1429    0.1666 N   0  0  0  0  0  0  0  0  0  0  0  0
   -0.9930   -0.1590   -1.1008 C   0  0  0  0  0  0  0  0  0  0  0  0
   -3.8760    0.5107    0.0847 C   0  0  0  0  0  0  0  0  0  0  0  0
   -5.1312    0.4180    0.6865 C   0  0  0  0  0  0  0  0  0  0  0  0
   -6.0890   -0.4724    0.2476 C   0  0  0  0  0  0  0  0  0  0  0  0
   -7.3731   -0.6048    0.8114 N   0  0  0  0  0  0  0  0  0  0  0  0
   -7.8054    0.2729    1.8705 C   0  0  0  0  0  0  0  0  0  0  0  0
   -9.3218    0.4260    1.8602 C   0  0  0  0  0  0  0  0  0  0  0  0
   -9.8440    0.2691    0.5166 N   0  0  0  0  0  0  0  0  0  0  0  0
   -9.5655   -1.0075   -0.0612 C   0  0  0  0  0  0  0  0  0  0  0  0
   -8.2644   -1.6263    0.3297 C   0  0  0  0  0  0  0  0  0  0  0  0
   -5.7288   -1.2549   -0.8109 N   0  0  0  0  0  0  0  0  0  0  0  0
   -4.2569   -1.8180   -2.2519 H   0  0  0  0  0  0  0  0  0  0  0  0
   -2.8635   -0.2465   -3.7648 H   0  0  0  0  0  0  0  0  0  0  0  0
    1.9746    0.0157   -2.5843 H   0  0  0  0  0  0  0  0  0  0  0  0
    3.5866    1.2327   -1.9137 H   0  0  0  0  0  0  0  0  0  0  0  0
    5.9997    1.3791   -1.3962 H   0  0  0  0  0  0  0  0  0  0  0  0
    7.6474   -1.3266    1.7593 H   0  0  0  0  0  0  0  0  0  0  0  0
    7.0804    0.0682    2.6868 H   0  0  0  0  0  0  0  0  0  0  0  0
    9.2668    0.3240    3.3129 H   0  0  0  0  0  0  0  0  0  0  0  0
    9.8455   -0.7425    1.9446 H   0  0  0  0  0  0  0  0  0  0  0  0
   10.6187    1.4965    1.7083 H   0  0  0  0  0  0  0  0  0  0  0  0
   10.1243    1.7554   -0.5219 H   0  0  0  0  0  0  0  0  0  0  0  0
    9.9469   -0.0161   -0.0449 H   0  0  0  0  0  0  0  0  0  0  0  0
    7.7331    2.0639   -0.5365 H   0  0  0  0  0  0  0  0  0  0  0  0
    8.0064    0.4497   -1.2926 H   0  0  0  0  0  0  0  0  0  0  0  0
    5.4226   -0.9091    2.0923 H   0  0  0  0  0  0  0  0  0  0  0  0
    3.0316   -1.0780    1.6240 H   0  0  0  0  0  0  0  0  0  0  0  0
    1.0738   -0.0605    1.5280 H   0  0  0  0  0  0  0  0  0  0  0  0
   -3.1266    1.2224    0.4445 H   0  0  0  0  0  0  0  0  0  0  0  0
   -5.3582    1.0706    1.5316 H   0  0  0  0  0  0  0  0  0  0  0  0
   -7.5596   -0.1789    2.8688 H   0  0  0  0  0  0  0  0  0  0  0  0
   -7.3447    1.2705    1.8075 H   0  0  0  0  0  0  0  0  0  0  0  0
   -9.5396    1.4591    2.1853 H   0  0  0  0  0  0  0  0  0  0  0  0
   -9.8139   -0.2612    2.5466 H   0  0  0  0  0  0  0  0  0  0  0  0
   -9.5432    1.0375   -0.1155 H   0  0  0  0  0  0  0  0  0  0  0  0
   -9.6267   -0.9407   -1.1802 H   0  0  0  0  0  0  0  0  0  0  0  0
  -10.4363   -1.6711    0.2145 H   0  0  0  0  0  0  0  0  0  0  0  0
   -8.4587   -2.3695    1.1365 H   0  0  0  0  0  0  0  0  0  0  0  0
   -7.8489   -2.1685   -0.5504 H   0  0  0  0  0  0  0  0  0  0  0  0
  1  2  2  0
  2  3  1  0
  3  4  1  0
  4  5  2  0
  5  6  1  0
  6  7  1  0
  7  8  2  0
  8  9  1  0
  9 10  2  0
 10 11  1  0
 11 12  2  0
 12 13  1  0
 13 14  1  0
 14 15  1  0
 15 16  1  0
 16 17  1  0
 17 18  1  0
 12 19  1  0
 19 20  2  0
  8 21  1  0
 21 22  2  0
 22 23  1  0
  2 24  1  0
 24 25  2  0
 25 26  1  0
 26 27  1  0
 27 28  1  0
 28 29  1  0
 29 30  1  0
 30 31  1  0
 31 32  1  0
 26 33  2  0
 33  1  1  0
 23  3  2  0
 32 27  1  0
 23  6  1  0
 20  9  1  0
 18 13  1  0
  1 34  1  0
  4 35  1  0
  7 36  1  0
 10 37  1  0
 11 38  1  0
 14 39  1  0
 14 40  1  0
 15 41  1  0
 15 42  1  0
 16 43  1  0
 17 44  1  0
 17 45  1  0
 18 46  1  0
 18 47  1  0
 19 48  1  0
 20 49  1  0
 21 50  1  0
 24 51  1  0
 25 52  1  0
 28 53  1  0
 28 54  1  0
 29 55  1  0
 29 56  1  0
 30 57  1  0
 31 58  1  0
 31 59  1  0
 32 60  1  0
 32 61  1  0
M  END
$$$$
[H]c1nc(N([H])c2c([H])c([H])c(N3C([H])([H])C([H])([H])N([H])C([H])([H])C3([H])[H])c([H])c2OC([H])([H])[H])nc(N([H])c2c([H])c([H])c(S(=O)(=O)N([H])[H])c([H])c2[H])c1Cl
     RDKit          3D

 57 60  0  0  0  0  0  0  0  0999 V2000
   -1.4337   -1.2928   -3.0171 C   0  0  0  0  0  0  0  0  0  0  0  0
   -0.9303   -0.7933   -1.8160 O   0  0  0  0  0  0  0  0  0  0  0  0
   -1.7885   -0.2748   -0.8411 C   0  0  0  0  0  0  0  0  0  0  0  0
   -3.1408   -0.2573   -1.0702 C   0  0  0  0  0  0  0  0  0  0  0  0
   -4.0369    0.2390   -0.1522 C   0  0  0  0  0  0  0  0  0  0  0  0
   -3.4995    0.7199    1.0156 C   0  0  0  0  0  0  0  0  0  0  0  0
   -2.1087    0.7076    1.2639 C   0  0  0  0  0  0  0  0  0  0  0  0
   -1.2265    0.2185    0.3586 C   0  0  0  0  0  0  0  0  0  0  0  0
    0.1716    0.1661    0.5222 N   0  0  0  0  0  0  0  0  0  0  0  0
    0.8909    0.6104    1.6293 C   0  0  0  0  0  0  0  0  0  0  0  0
    0.4143    1.1570    2.7197 N   0  0  0  0  0  0  0  0  0  0  0  0
    1.1351    1.5742    3.7680 C   0  0  0  0  0  0  0  0  0  0  0  0
    2.5136    1.3995    3.6639 C   0  0  0  0  0  0  0  0  0  0  0  0
    3.5126    1.9163    4.9805 Cl  0  0  0  0  0  0  0  0  0  0  0  0
    3.0944    0.8248    2.5334 C   0  0  0  0  0  0  0  0  0  0  0  0
    4.4921    0.6510    2.4817 N   0  0  0  0  0  0  0  0  0  0  0  0
    5.2666    0.1170    1.4395 C   0  0  0  0  0  0  0  0  0  0  0  0
    4.8738   -0.0266    0.1440 C   0  0  0  0  0  0  0  0  0  0  0  0
    5.7136   -0.5996   -0.8386 C   0  0  0  0  0  0  0  0  0  0  0  0
    6.9718   -1.0283   -0.4819 C   0  0  0  0  0  0  0  0  0  0  0  0
    7.3746   -0.8873    0.8169 C   0  0  0  0  0  0  0  0  0  0  0  0
    6.5546   -0.3310    1.7648 C   0  0  0  0  0  0  0  0  0  0  0  0
    8.0247   -1.7385   -1.6806 S   0  0  0  0  0  0  0  0  0  0  0  0
    8.9572   -0.4745   -2.3981 N   0  0  0  0  0  0  0  0  0  0  0  0
    7.1409   -2.3090   -2.7765 O   0  0  0  0  0  0  0  0  0  0  0  0
    8.8806   -2.8191   -1.1112 O   0  0  0  0  0  0  0  0  0  0  0  0
    2.2620    0.4539    1.5633 N   0  0  0  0  0  0  0  0  0  0  0  0
   -5.4389    0.2709   -0.3668 N   0  0  0  0  0  0  0  0  0  0  0  0
   -6.0110   -0.1625   -1.6362 C   0  0  0  0  0  0  0  0  0  0  0  0
   -7.3183    0.5926   -1.8273 C   0  0  0  0  0  0  0  0  0  0  0  0
   -8.2901    0.2134   -0.8248 N   0  0  0  0  0  0  0  0  0  0  0  0
   -7.6494   -0.1181    0.4334 C   0  0  0  0  0  0  0  0  0  0  0  0
   -6.3792    0.7201    0.6318 C   0  0  0  0  0  0  0  0  0  0  0  0
   -0.5450   -1.5519   -3.6603 H   0  0  0  0  0  0  0  0  0  0  0  0
   -1.9836   -2.2377   -2.8334 H   0  0  0  0  0  0  0  0  0  0  0  0
   -2.0292   -0.5533   -3.6037 H   0  0  0  0  0  0  0  0  0  0  0  0
   -3.5695   -0.6396   -1.9958 H   0  0  0  0  0  0  0  0  0  0  0  0
   -4.1409    1.1264    1.7845 H   0  0  0  0  0  0  0  0  0  0  0  0
   -1.7891    1.1072    2.2110 H   0  0  0  0  0  0  0  0  0  0  0  0
    0.7400   -0.2724   -0.3160 H   0  0  0  0  0  0  0  0  0  0  0  0
    0.6755    2.0145    4.6308 H   0  0  0  0  0  0  0  0  0  0  0  0
    5.0015    0.9865    3.3733 H   0  0  0  0  0  0  0  0  0  0  0  0
    3.9072    0.3094   -0.1714 H   0  0  0  0  0  0  0  0  0  0  0  0
    5.3533   -0.6883   -1.8424 H   0  0  0  0  0  0  0  0  0  0  0  0
    8.3614   -1.2076    1.1641 H   0  0  0  0  0  0  0  0  0  0  0  0
    6.8743   -0.2226    2.7840 H   0  0  0  0  0  0  0  0  0  0  0  0
    9.5222   -0.8783   -3.1596 H   0  0  0  0  0  0  0  0  0  0  0  0
    8.2764    0.1997   -2.8198 H   0  0  0  0  0  0  0  0  0  0  0  0
   -6.1587   -1.2396   -1.7025 H   0  0  0  0  0  0  0  0  0  0  0  0
   -5.3588    0.1776   -2.4764 H   0  0  0  0  0  0  0  0  0  0  0  0
   -7.6710    0.4103   -2.8618 H   0  0  0  0  0  0  0  0  0  0  0  0
   -7.0522    1.6784   -1.6900 H   0  0  0  0  0  0  0  0  0  0  0  0
   -9.0339    0.9339   -0.7041 H   0  0  0  0  0  0  0  0  0  0  0  0
   -8.3557    0.0205    1.2534 H   0  0  0  0  0  0  0  0  0  0  0  0
   -7.3170   -1.1614    0.3648 H   0  0  0  0  0  0  0  0  0  0  0  0
   -6.6418    1.7742    0.5674 H   0  0  0  0  0  0  0  0  0  0  0  0
   -6.0586    0.4745    1.6792 H   0  0  0  0  0  0  0  0  0  0  0  0
  1  2  1  0
  2  3  1  0
  3  4  2  0
  4  5  1  0
  5  6  2  0
  6  7  1  0
  7  8  2  0
  8  9  1  0
  9 10  1  0
 10 11  2  0
 11 12  1  0
 12 13  2  0
 13 14  1  0
 13 15  1  0
 15 16  1  0
 16 17  1  0
 17 18  2  0
 18 19  1  0
 19 20  2  0
 20 21  1  0
 21 22  2  0
 20 23  1  0
 23 24  1  0
 23 25  2  0
 23 26  2  0
 15 27  2  0
  5 28  1  0
 28 29  1  0
 29 30  1  0
 30 31  1  0
 31 32  1  0
 32 33  1  0
  8  3  1  0
 27 10  1  0
 33 28  1  0
 22 17  1  0
  1 34  1  0
  1 35  1  0
  1 36  1  0
  4 37  1  0
  6 38  1  0
  7 39  1  0
  9 40  1  0
 12 41  1  0
 16 42  1  0
 18 43  1  0
 19 44  1  0
 21 45  1  0
 22 46  1  0
 24 47  1  0
 24 48  1  0
 29 49  1  0
 29 50  1  0
 30 51  1  0
 30 52  1  0
 31 53  1  0
 32 54  1  0
 32 55  1  0
 33 56  1  0
 33 57  1  0
M  END
$$$$
[H]c1c([H])c(S(=O)(=O)N([H])[H])c([H])c([H])c1N([H])c1nc(N([H])C([H])([H])[H])c2nc([H])n(C([H])(C([H])([H])[H])C([H])([H])[H])c2n1
     RDKit          3D

 44 46  0  0  0  0  0  0  0  0999 V2000
   -0.0729   -3.9079   -0.9769 C   0  0  0  0  0  0  0  0  0  0  0  0
   -1.3769   -3.3482   -0.6874 N   0  0  0  0  0  0  0  0  0  0  0  0
   -1.5003   -1.9957   -0.2711 C   0  0  0  0  0  0  0  0  0  0  0  0
   -0.4403   -1.1852   -0.1277 N   0  0  0  0  0  0  0  0  0  0  0  0
   -0.4809    0.0861    0.2567 C   0  0  0  0  0  0  0  0  0  0  0  0
    0.6415    0.9019    0.3957 N   0  0  0  0  0  0  0  0  0  0  0  0
    2.0041    0.6072    0.1687 C   0  0  0  0  0  0  0  0  0  0  0  0
    2.9843    1.4595    0.7011 C   0  0  0  0  0  0  0  0  0  0  0  0
    4.3305    1.2655    0.5201 C   0  0  0  0  0  0  0  0  0  0  0  0
    4.7942    0.1965   -0.2121 C   0  0  0  0  0  0  0  0  0  0  0  0
    3.8629   -0.6589   -0.7486 C   0  0  0  0  0  0  0  0  0  0  0  0
    2.4855   -0.4482   -0.5556 C   0  0  0  0  0  0  0  0  0  0  0  0
    6.5124   -0.0722   -0.4564 S   0  0  0  0  0  0  0  0  0  0  0  0
    7.0648    0.7319   -1.8854 N   0  0  0  0  0  0  0  0  0  0  0  0
    6.7610   -1.5388   -0.5996 O   0  0  0  0  0  0  0  0  0  0  0  0
    7.2543    0.5097    0.7038 O   0  0  0  0  0  0  0  0  0  0  0  0
   -1.6980    0.6076    0.5266 N   0  0  0  0  0  0  0  0  0  0  0  0
   -2.8227   -0.1061    0.4182 C   0  0  0  0  0  0  0  0  0  0  0  0
   -4.1128    0.2157    0.6352 N   0  0  0  0  0  0  0  0  0  0  0  0
   -4.8088   -0.9031    0.3654 C   0  0  0  0  0  0  0  0  0  0  0  0
   -3.9723   -1.8908   -0.0085 N   0  0  0  0  0  0  0  0  0  0  0  0
   -2.7238   -1.4218    0.0151 C   0  0  0  0  0  0  0  0  0  0  0  0
   -4.6553    1.5009    1.0706 C   0  0  0  0  0  0  0  0  0  0  0  0
   -5.1139    2.3161   -0.1201 C   0  0  0  0  0  0  0  0  0  0  0  0
   -3.6257    2.2674    1.8385 C   0  0  0  0  0  0  0  0  0  0  0  0
    0.1914   -3.8125   -2.0663 H   0  0  0  0  0  0  0  0  0  0  0  0
    0.6591   -3.3290   -0.3738 H   0  0  0  0  0  0  0  0  0  0  0  0
   -0.0859   -4.9730   -0.6814 H   0  0  0  0  0  0  0  0  0  0  0  0
   -2.1980   -3.9574   -0.7930 H   0  0  0  0  0  0  0  0  0  0  0  0
    0.4309    1.9137    0.7216 H   0  0  0  0  0  0  0  0  0  0  0  0
    2.6074    2.3100    1.2862 H   0  0  0  0  0  0  0  0  0  0  0  0
    5.0567    1.9458    0.9470 H   0  0  0  0  0  0  0  0  0  0  0  0
    4.1852   -1.5160   -1.3339 H   0  0  0  0  0  0  0  0  0  0  0  0
    1.7914   -1.1428   -1.0081 H   0  0  0  0  0  0  0  0  0  0  0  0
    6.5313    0.3660   -2.7295 H   0  0  0  0  0  0  0  0  0  0  0  0
    6.8229    1.7477   -1.8392 H   0  0  0  0  0  0  0  0  0  0  0  0
   -5.9011   -0.9640    0.4494 H   0  0  0  0  0  0  0  0  0  0  0  0
   -5.5414    1.2377    1.7110 H   0  0  0  0  0  0  0  0  0  0  0  0
   -5.7170    1.7079   -0.8291 H   0  0  0  0  0  0  0  0  0  0  0  0
   -5.7559    3.1409    0.2194 H   0  0  0  0  0  0  0  0  0  0  0  0
   -4.2103    2.6642   -0.6653 H   0  0  0  0  0  0  0  0  0  0  0  0
   -3.0510    1.5958    2.5051 H   0  0  0  0  0  0  0  0  0  0  0  0
   -4.1343    3.0836    2.4164 H   0  0  0  0  0  0  0  0  0  0  0  0
   -2.9723    2.7922    1.0971 H   0  0  0  0  0  0  0  0  0  0  0  0
  1  2  1  0
  2  3  1  0
  3  4  2  0
  4  5  1  0
  5  6  1  0
  6  7  1  0
  7  8  2  0
  8  9  1  0
  9 10  2  0
 10 11  1  0
 11 12  2  0
 10 13  1  0
 13 14  1  0
 13 15  2  0
 13 16  2  0
  5 17  2  0
 17 18  1  0
 18 19  1  0
 19 20  1  0
 20 21  2  0
 21 22  1  0
 19 23  1  0
 23 24  1  0
 23 25  1  0
 22  3  1  0
 12  7  1  0
 22 18  2  0
  1 26  1  0
  1 27  1  0
  1 28  1  0
  2 29  1  0
  6 30  1  0
  8 31  1  0
  9 32  1  0
 11 33  1  0
 12 34  1  0
 14 35  1  0
 14 36  1  0
 20 37  1  0
 23 38  1  0
 24 39  1  0
 24 40  1  0
 24 41  1  0
 25 42  1  0
 25 43  1  0
 25 44  1  0
M  END
$$$$
[H]OC(=O)c1c([H])c([H])c(N([H])S(=O)(=O)c2c(C([H])([H])[H])c([H])c(C([H])([H])[H])c([H])c2C([H])([H])[H])c([H])c1[H]
     RDKit          3D

 39 40  0  0  0  0  0  0  0  0999 V2000
   -5.6857    0.9988   -0.0491 C   0  0  0  0  0  0  0  0  0  0  0  0
   -4.3186    0.4321   -0.1801 C   0  0  0  0  0  0  0  0  0  0  0  0
   -3.4004    1.0097   -1.0130 C   0  0  0  0  0  0  0  0  0  0  0  0
   -2.1051    0.4736   -1.1377 C   0  0  0  0  0  0  0  0  0  0  0  0
   -1.1738    1.1286   -2.0642 C   0  0  0  0  0  0  0  0  0  0  0  0
   -1.6981   -0.6364   -0.4438 C   0  0  0  0  0  0  0  0  0  0  0  0
   -2.6526   -1.2225    0.4105 C   0  0  0  0  0  0  0  0  0  0  0  0
   -2.3740   -2.4224    1.2245 C   0  0  0  0  0  0  0  0  0  0  0  0
   -3.9134   -0.6768    0.5128 C   0  0  0  0  0  0  0  0  0  0  0  0
   -0.1555   -1.3853   -0.4725 S   0  0  0  0  0  0  0  0  0  0  0  0
    0.5644   -1.2489   -1.8133 O   0  0  0  0  0  0  0  0  0  0  0  0
   -0.3809   -2.9007   -0.3681 O   0  0  0  0  0  0  0  0  0  0  0  0
    0.9370   -0.9852    0.7441 N   0  0  0  0  0  0  0  0  0  0  0  0
    2.1919   -0.3687    0.6066 C   0  0  0  0  0  0  0  0  0  0  0  0
    2.3858    0.7194   -0.1904 C   0  0  0  0  0  0  0  0  0  0  0  0
    3.6403    1.3261   -0.3186 C   0  0  0  0  0  0  0  0  0  0  0  0
    4.7334    0.8435    0.3601 C   0  0  0  0  0  0  0  0  0  0  0  0
    4.5638   -0.2613    1.1768 C   0  0  0  0  0  0  0  0  0  0  0  0
    3.3202   -0.8373    1.2841 C   0  0  0  0  0  0  0  0  0  0  0  0
    6.0227    1.5010    0.2018 C   0  0  0  0  0  0  0  0  0  0  0  0
    7.1535    1.0393    0.8746 O   0  0  0  0  0  0  0  0  0  0  0  0
    6.1427    2.4883   -0.5368 O   0  0  0  0  0  0  0  0  0  0  0  0
   -6.4020    0.1649    0.1483 H   0  0  0  0  0  0  0  0  0  0  0  0
   -5.7406    1.6520    0.8613 H   0  0  0  0  0  0  0  0  0  0  0  0
   -5.9673    1.6046   -0.9215 H   0  0  0  0  0  0  0  0  0  0  0  0
   -3.6783    1.8913   -1.5819 H   0  0  0  0  0  0  0  0  0  0  0  0
   -0.4972    1.8456   -1.5300 H   0  0  0  0  0  0  0  0  0  0  0  0
   -1.7939    1.8392   -2.7036 H   0  0  0  0  0  0  0  0  0  0  0  0
   -0.6869    0.4931   -2.8002 H   0  0  0  0  0  0  0  0  0  0  0  0
   -3.1435   -2.4505    2.0527 H   0  0  0  0  0  0  0  0  0  0  0  0
   -2.5357   -3.3758    0.6853 H   0  0  0  0  0  0  0  0  0  0  0  0
   -1.4108   -2.3794    1.7712 H   0  0  0  0  0  0  0  0  0  0  0  0
   -4.6569   -1.1260    1.1722 H   0  0  0  0  0  0  0  0  0  0  0  0
    0.6570   -1.2221    1.7521 H   0  0  0  0  0  0  0  0  0  0  0  0
    1.6127    1.1912   -0.7713 H   0  0  0  0  0  0  0  0  0  0  0  0
    3.7795    2.1856   -0.9520 H   0  0  0  0  0  0  0  0  0  0  0  0
    5.4250   -0.6394    1.7099 H   0  0  0  0  0  0  0  0  0  0  0  0
    3.2333   -1.6971    1.9322 H   0  0  0  0  0  0  0  0  0  0  0  0
    8.0082    1.0083    0.3416 H   0  0  0  0  0  0  0  0  0  0  0  0
  1  2  1  0
  2  3  2  0
  3  4  1  0
  4  5  1  0
  4  6  2  0
  6  7  1  0
  7  8  1  0
  7  9  2  0
  6 10  1  0
 10 11  2  0
 10 12  2  0
 10 13  1  0
 13 14  1  0
 14 15  2  0
 15 16  1  0
 16 17  2  0
 17 18  1  0
 18 19  2  0
 17 20  1  0
 20 21  1  0
 20 22  2  0
  9  2  1  0
 19 14  1  0
  1 23  1  0
  1 24  1  0
  1 25  1  0
  3 26  1  0
  5 27  1  0
  5 28  1  0
  5 29  1  0
  8 30  1  0
  8 31  1  0
  8 32  1  0
  9 33  1  0
 13 34  1  0
 15 35  1  0
 16 36  1  0
 18 37  1  0
 19 38  1  0
 21 39  1  0
M  END
$$$$
[H]C(C(=O)C([H])([H])[H])=C([H])C([H])(C(=O)N([H])C([H])([H])C([H])([H])C([H])([H])N1C([H])([H])C([H])([H])N(c2c([H])c([H])c(Cl)c([H])c2[H])C([H])([H])C1([H])[H])c1c([H])c([H])c([H])c([H])c1[H]
     RDKit          3D

 61 63  0  0  0  0  0  0  0  0999 V2000
   -5.3855    3.5201   -0.8625 C   0  0  0  0  0  0  0  0  0  0  0  0
   -5.9660    2.2118   -1.2689 C   0  0  0  0  0  0  0  0  0  0  0  0
   -6.9758    2.1756   -1.9976 O   0  0  0  0  0  0  0  0  0  0  0  0
   -5.2948    0.9974   -0.7726 C   0  0  0  0  0  0  0  0  0  0  0  0
   -4.2427    1.0330   -0.0133 C   0  0  0  0  0  0  0  0  0  0  0  0
   -3.5468   -0.1473    0.5007 C   0  0  0  0  0  0  0  0  0  0  0  0
   -2.6198   -0.7170   -0.5112 C   0  0  0  0  0  0  0  0  0  0  0  0
   -2.6617   -0.2751   -1.6911 O   0  0  0  0  0  0  0  0  0  0  0  0
   -1.7047   -1.7310   -0.1801 N   0  0  0  0  0  0  0  0  0  0  0  0
   -0.7588   -2.3560   -1.0660 C   0  0  0  0  0  0  0  0  0  0  0  0
    0.1910   -1.3065   -1.5890 C   0  0  0  0  0  0  0  0  0  0  0  0
    0.9454   -0.6258   -0.4718 C   0  0  0  0  0  0  0  0  0  0  0  0
    1.8490    0.3700   -0.9226 N   0  0  0  0  0  0  0  0  0  0  0  0
    2.9799   -0.0724   -1.6534 C   0  0  0  0  0  0  0  0  0  0  0  0
    4.0608   -0.5072   -0.6866 C   0  0  0  0  0  0  0  0  0  0  0  0
    4.4968    0.6883    0.0029 N   0  0  0  0  0  0  0  0  0  0  0  0
    3.5473    1.7339    0.2495 C   0  0  0  0  0  0  0  0  0  0  0  0
    2.1224    1.3771    0.0218 C   0  0  0  0  0  0  0  0  0  0  0  0
    5.8269    0.8253    0.4300 C   0  0  0  0  0  0  0  0  0  0  0  0
    6.2851    2.0307    0.9752 C   0  0  0  0  0  0  0  0  0  0  0  0
    7.5812    2.1800    1.4008 C   0  0  0  0  0  0  0  0  0  0  0  0
    8.4955    1.1511    1.3127 C   0  0  0  0  0  0  0  0  0  0  0  0
   10.1594    1.3662    1.8669 Cl  0  0  0  0  0  0  0  0  0  0  0  0
    8.0674   -0.0424    0.7805 C   0  0  0  0  0  0  0  0  0  0  0  0
    6.7558   -0.1908    0.3507 C   0  0  0  0  0  0  0  0  0  0  0  0
   -4.4304   -1.1921    1.0731 C   0  0  0  0  0  0  0  0  0  0  0  0
   -5.0259   -2.1142    0.2521 C   0  0  0  0  0  0  0  0  0  0  0  0
   -5.8574   -3.0898    0.7520 C   0  0  0  0  0  0  0  0  0  0  0  0
   -6.0672   -3.1024    2.1136 C   0  0  0  0  0  0  0  0  0  0  0  0
   -5.4798   -2.1873    2.9550 C   0  0  0  0  0  0  0  0  0  0  0  0
   -4.6554   -1.2259    2.4272 C   0  0  0  0  0  0  0  0  0  0  0  0
   -4.4277    3.7322   -1.3824 H   0  0  0  0  0  0  0  0  0  0  0  0
   -6.0777    4.3391   -1.1508 H   0  0  0  0  0  0  0  0  0  0  0  0
   -5.2334    3.5788    0.2280 H   0  0  0  0  0  0  0  0  0  0  0  0
   -5.7246    0.0626   -1.0750 H   0  0  0  0  0  0  0  0  0  0  0  0
   -3.8584    2.0269    0.2517 H   0  0  0  0  0  0  0  0  0  0  0  0
   -2.9116    0.2131    1.3641 H   0  0  0  0  0  0  0  0  0  0  0  0
   -1.6999   -2.0806    0.8214 H   0  0  0  0  0  0  0  0  0  0  0  0
   -1.3041   -2.7332   -1.9830 H   0  0  0  0  0  0  0  0  0  0  0  0
   -0.2159   -3.1880   -0.5948 H   0  0  0  0  0  0  0  0  0  0  0  0
   -0.3428   -0.6485   -2.2613 H   0  0  0  0  0  0  0  0  0  0  0  0
    0.9664   -1.8531   -2.2002 H   0  0  0  0  0  0  0  0  0  0  0  0
    0.1722   -0.1207    0.1621 H   0  0  0  0  0  0  0  0  0  0  0  0
    1.4130   -1.3849    0.1871 H   0  0  0  0  0  0  0  0  0  0  0  0
    2.7748   -0.8067   -2.4278 H   0  0  0  0  0  0  0  0  0  0  0  0
    3.4083    0.8288   -2.1855 H   0  0  0  0  0  0  0  0  0  0  0  0
    3.7227   -1.2747    0.0116 H   0  0  0  0  0  0  0  0  0  0  0  0
    4.9283   -0.8766   -1.3083 H   0  0  0  0  0  0  0  0  0  0  0  0
    3.8097    2.5947   -0.3981 H   0  0  0  0  0  0  0  0  0  0  0  0
    3.7158    2.0875    1.3104 H   0  0  0  0  0  0  0  0  0  0  0  0
    1.5188    2.2827   -0.2365 H   0  0  0  0  0  0  0  0  0  0  0  0
    1.7024    1.0478    1.0184 H   0  0  0  0  0  0  0  0  0  0  0  0
    5.5776    2.8422    1.0470 H   0  0  0  0  0  0  0  0  0  0  0  0
    7.9304    3.1251    1.8254 H   0  0  0  0  0  0  0  0  0  0  0  0
    8.7810   -0.8519    0.7097 H   0  0  0  0  0  0  0  0  0  0  0  0
    6.4784   -1.1718   -0.0614 H   0  0  0  0  0  0  0  0  0  0  0  0
   -4.8848   -2.1463   -0.8342 H   0  0  0  0  0  0  0  0  0  0  0  0
   -6.3424   -3.8341    0.1167 H   0  0  0  0  0  0  0  0  0  0  0  0
   -6.7133   -3.8466    2.5754 H   0  0  0  0  0  0  0  0  0  0  0  0
   -5.6779   -2.2362    4.0421 H   0  0  0  0  0  0  0  0  0  0  0  0
   -4.1762   -0.4849    3.0826 H   0  0  0  0  0  0  0  0  0  0  0  0
  1  2  1  0
  2  3  2  0
  2  4  1  0
  4  5  2  3
  5  6  1  0
  6  7  1  0
  7  8  2  0
  7  9  1  0
  9 10  1  0
 10 11  1  0
 11 12  1  0
 12 13  1  0
 13 14  1  0
 14 15  1  0
 15 16  1  0
 16 17  1  0
 17 18  1  0
 16 19  1  0
 19 20  2  0
 20 21  1  0
 21 22  2  0
 22 23  1  0
 22 24  1  0
 24 25  2  0
  6 26  1  0
 26 27  2  0
 27 28  1  0
 28 29  2  0
 29 30  1  0
 30 31  2  0
 18 13  1  0
 25 19  1  0
 31 26  1  0
  1 32  1  0
  1 33  1  0
  1 34  1  0
  4 35  1  0
  5 36  1  0
  6 37  1  0
  9 38  1  0
 10 39  1  0
 10 40  1  0
 11 41  1  0
 11 42  1  0
 12 43  1  0
 12 44  1  0
 14 45  1  0
 14 46  1  0
 15 47  1  0
 15 48  1  0
 17 49  1  0
 17 50  1  0
 18 51  1  0
 18 52  1  0
 20 53  1  0
 21 54  1  0
 24 55  1  0
 25 56  1  0
 27 57  1  0
 28 58  1  0
 29 59  1  0
 30 60  1  0
 31 61  1  0
M  END
$$$$
[H]N=C(N([H])[H])[C@@]([H])(N([H])C(=O)[C@@]([H])(N([H])C(=O)[C@@]([H])(N([H])C(=O)[C@@]([H])(N([H])C(=O)[C@@]([H])(N([H])C(=O)c1c([H])c([H])c([H])c([H])c1[H])C([H])([H])C([H])(C([H])([H])[H])C([H])([H])[H])C([H])([H])C([H])(C([H])([H])[H])C([H])([H])[H])C([H])([H])c1c([H])c([H])c([H])c([H])c1[H])C([H])([H])C(=O)N([H])[H])C([H])([H])c1c([H])c([H])c([H])c([H])c1[H]
     RDKit          3D

109111  0  0  0  0  0  0  0  0999 V2000
   -4.0048   -2.3705   -3.7124 C   0  0  0  0  0  0  0  0  0  0  0  0
   -3.6840   -0.9799   -3.1783 C   0  0  0  0  0  0  0  0  0  0  0  0
   -3.1662   -0.1982   -4.3944 C   0  0  0  0  0  0  0  0  0  0  0  0
   -2.5493   -1.0260   -2.1842 C   0  0  0  0  0  0  0  0  0  0  0  0
   -2.7998   -1.8563   -0.9857 C   0  0  2  0  0  0  0  0  0  0  0  0
   -3.8774   -1.4959   -0.1059 N   0  0  0  0  0  0  0  0  0  0  0  0
   -4.4461   -0.2394    0.1037 C   0  0  0  0  0  0  0  0  0  0  0  0
   -3.9461    0.7577   -0.5353 O   0  0  0  0  0  0  0  0  0  0  0  0
   -5.5827    0.1065    0.9894 C   0  0  2  0  0  0  0  0  0  0  0  0
   -6.9060   -0.4300    0.5772 C   0  0  0  0  0  0  0  0  0  0  0  0
   -7.1204   -1.8816    0.5063 C   0  0  0  0  0  0  0  0  0  0  0  0
   -6.9539   -2.6026    1.8307 C   0  0  0  0  0  0  0  0  0  0  0  0
   -8.5826   -2.1017    0.0792 C   0  0  0  0  0  0  0  0  0  0  0  0
   -5.7359    1.5805    0.9130 N   0  0  0  0  0  0  0  0  0  0  0  0
   -5.6533    2.4366    2.0164 C   0  0  0  0  0  0  0  0  0  0  0  0
   -5.4405    1.9743    3.1713 O   0  0  0  0  0  0  0  0  0  0  0  0
   -5.8135    3.8659    1.8479 C   0  0  0  0  0  0  0  0  0  0  0  0
   -6.6592    4.6313    2.6095 C   0  0  0  0  0  0  0  0  0  0  0  0
   -6.7396    5.9769    2.3940 C   0  0  0  0  0  0  0  0  0  0  0  0
   -5.9828    6.5697    1.4239 C   0  0  0  0  0  0  0  0  0  0  0  0
   -5.1173    5.8114    0.6396 C   0  0  0  0  0  0  0  0  0  0  0  0
   -5.0474    4.4659    0.8661 C   0  0  0  0  0  0  0  0  0  0  0  0
   -1.5930   -2.1244   -0.2127 C   0  0  0  0  0  0  0  0  0  0  0  0
   -1.7755   -2.5733    0.9803 O   0  0  0  0  0  0  0  0  0  0  0  0
   -0.2614   -1.9434   -0.6377 N   0  0  0  0  0  0  0  0  0  0  0  0
    0.9128   -2.2495    0.1739 C   0  0  1  0  0  0  0  0  0  0  0  0
    1.9779   -2.8479   -0.6351 C   0  0  0  0  0  0  0  0  0  0  0  0
    1.6483   -4.1058   -1.3180 C   0  0  0  0  0  0  0  0  0  0  0  0
    1.1381   -4.0185   -2.5952 C   0  0  0  0  0  0  0  0  0  0  0  0
    0.7968   -5.1287   -3.3153 C   0  0  0  0  0  0  0  0  0  0  0  0
    0.9577   -6.3692   -2.7696 C   0  0  0  0  0  0  0  0  0  0  0  0
    1.4686   -6.4854   -1.4886 C   0  0  0  0  0  0  0  0  0  0  0  0
    1.8048   -5.3510   -0.7853 C   0  0  0  0  0  0  0  0  0  0  0  0
    1.3912   -0.9684    0.7654 C   0  0  0  0  0  0  0  0  0  0  0  0
    0.8027    0.1318    0.6506 O   0  0  0  0  0  0  0  0  0  0  0  0
    2.5956   -1.0092    1.5084 N   0  0  0  0  0  0  0  0  0  0  0  0
    3.1142    0.2303    2.1384 C   0  0  1  0  0  0  0  0  0  0  0  0
    3.5553    0.0168    3.5280 C   0  0  0  0  0  0  0  0  0  0  0  0
    3.9658    1.2832    4.1648 C   0  0  0  0  0  0  0  0  0  0  0  0
    4.6409    1.2695    5.4286 N   0  0  0  0  0  0  0  0  0  0  0  0
    3.7663    2.4337    3.6712 O   0  0  0  0  0  0  0  0  0  0  0  0
    4.1988    0.6239    1.2334 C   0  0  0  0  0  0  0  0  0  0  0  0
    3.9083    0.5780   -0.0201 O   0  0  0  0  0  0  0  0  0  0  0  0
    5.4787    1.0285    1.5580 N   0  0  0  0  0  0  0  0  0  0  0  0
    6.4485    1.4150    0.5074 C   0  0  1  0  0  0  0  0  0  0  0  0
    6.9693    2.7784    0.8196 C   0  0  0  0  0  0  0  0  0  0  0  0
    7.9411    3.2338   -0.2156 C   0  0  0  0  0  0  0  0  0  0  0  0
    7.4247    3.8953   -1.3132 C   0  0  0  0  0  0  0  0  0  0  0  0
    8.2659    4.3411   -2.3044 C   0  0  0  0  0  0  0  0  0  0  0  0
    9.6414    4.1411   -2.2316 C   0  0  0  0  0  0  0  0  0  0  0  0
   10.1359    3.4847   -1.1377 C   0  0  0  0  0  0  0  0  0  0  0  0
    9.2976    3.0361   -0.1416 C   0  0  0  0  0  0  0  0  0  0  0  0
    7.4763    0.3769    0.4548 C   0  0  0  0  0  0  0  0  0  0  0  0
    8.2548    0.0184    1.5821 N   0  0  0  0  0  0  0  0  0  0  0  0
    7.7090   -0.2634   -0.6380 N   0  0  0  0  0  0  0  0  0  0  0  0
   -3.1586   -3.0571   -3.7010 H   0  0  0  0  0  0  0  0  0  0  0  0
   -4.3440   -2.2903   -4.7874 H   0  0  0  0  0  0  0  0  0  0  0  0
   -4.8985   -2.7224   -3.1614 H   0  0  0  0  0  0  0  0  0  0  0  0
   -4.5820   -0.4615   -2.8505 H   0  0  0  0  0  0  0  0  0  0  0  0
   -3.0252    0.8605   -4.1891 H   0  0  0  0  0  0  0  0  0  0  0  0
   -3.8170   -0.3891   -5.2747 H   0  0  0  0  0  0  0  0  0  0  0  0
   -2.1781   -0.6518   -4.6327 H   0  0  0  0  0  0  0  0  0  0  0  0
   -1.6801   -1.4218   -2.7928 H   0  0  0  0  0  0  0  0  0  0  0  0
   -2.2558   -0.0070   -1.9246 H   0  0  0  0  0  0  0  0  0  0  0  0
   -3.1901   -2.8915   -1.4021 H   0  0  0  0  0  0  0  0  0  0  0  0
   -4.3062   -2.2817    0.4991 H   0  0  0  0  0  0  0  0  0  0  0  0
   -5.3482   -0.0804    2.0571 H   0  0  0  0  0  0  0  0  0  0  0  0
   -7.6470   -0.0292    1.3417 H   0  0  0  0  0  0  0  0  0  0  0  0
   -7.1736    0.0157   -0.4122 H   0  0  0  0  0  0  0  0  0  0  0  0
   -6.5360   -2.4359   -0.2558 H   0  0  0  0  0  0  0  0  0  0  0  0
   -6.0077   -2.3046    2.3347 H   0  0  0  0  0  0  0  0  0  0  0  0
   -7.8372   -2.4849    2.4761 H   0  0  0  0  0  0  0  0  0  0  0  0
   -6.8498   -3.6881    1.5934 H   0  0  0  0  0  0  0  0  0  0  0  0
   -8.8129   -3.1758    0.0246 H   0  0  0  0  0  0  0  0  0  0  0  0
   -9.2805   -1.6114    0.7582 H   0  0  0  0  0  0  0  0  0  0  0  0
   -8.7495   -1.7048   -0.9483 H   0  0  0  0  0  0  0  0  0  0  0  0
   -5.9252    2.0092   -0.0424 H   0  0  0  0  0  0  0  0  0  0  0  0
   -7.2657    4.1601    3.3861 H   0  0  0  0  0  0  0  0  0  0  0  0
   -7.4046    6.6191    2.9827 H   0  0  0  0  0  0  0  0  0  0  0  0
   -6.0364    7.6493    1.2339 H   0  0  0  0  0  0  0  0  0  0  0  0
   -4.5191    6.3082   -0.1337 H   0  0  0  0  0  0  0  0  0  0  0  0
   -4.3794    3.8690    0.2615 H   0  0  0  0  0  0  0  0  0  0  0  0
   -0.1213   -1.5525   -1.6140 H   0  0  0  0  0  0  0  0  0  0  0  0
    0.6056   -2.8479    1.0667 H   0  0  0  0  0  0  0  0  0  0  0  0
    2.3401   -2.1277   -1.3964 H   0  0  0  0  0  0  0  0  0  0  0  0
    2.8873   -3.0771   -0.0066 H   0  0  0  0  0  0  0  0  0  0  0  0
    0.9796   -3.0563   -3.1041 H   0  0  0  0  0  0  0  0  0  0  0  0
    0.4005   -5.0469   -4.3101 H   0  0  0  0  0  0  0  0  0  0  0  0
    0.6992   -7.2405   -3.3162 H   0  0  0  0  0  0  0  0  0  0  0  0
    1.6082   -7.4554   -1.0334 H   0  0  0  0  0  0  0  0  0  0  0  0
    2.1919   -5.4471    0.1967 H   0  0  0  0  0  0  0  0  0  0  0  0
    3.1320   -1.8763    1.6289 H   0  0  0  0  0  0  0  0  0  0  0  0
    2.2836    0.9765    2.0921 H   0  0  0  0  0  0  0  0  0  0  0  0
    2.7668   -0.4210    4.1865 H   0  0  0  0  0  0  0  0  0  0  0  0
    4.3918   -0.7406    3.5893 H   0  0  0  0  0  0  0  0  0  0  0  0
    5.6054    1.6614    5.5001 H   0  0  0  0  0  0  0  0  0  0  0  0
    4.1498    0.8701    6.2299 H   0  0  0  0  0  0  0  0  0  0  0  0
    5.8666    1.0701    2.5074 H   0  0  0  0  0  0  0  0  0  0  0  0
    5.8889    1.3902   -0.4738 H   0  0  0  0  0  0  0  0  0  0  0  0
    6.1460    3.5141    0.8424 H   0  0  0  0  0  0  0  0  0  0  0  0
    7.5042    2.7286    1.7928 H   0  0  0  0  0  0  0  0  0  0  0  0
    6.3355    4.0522   -1.3678 H   0  0  0  0  0  0  0  0  0  0  0  0
    7.8752    4.8667   -3.1809 H   0  0  0  0  0  0  0  0  0  0  0  0
   10.2671    4.5115   -3.0445 H   0  0  0  0  0  0  0  0  0  0  0  0
   11.2069    3.3171   -1.0645 H   0  0  0  0  0  0  0  0  0  0  0  0
    9.7261    2.5169    0.7212 H   0  0  0  0  0  0  0  0  0  0  0  0
    7.8723   -0.6438    2.2760 H   0  0  0  0  0  0  0  0  0  0  0  0
    9.1992    0.4078    1.7119 H   0  0  0  0  0  0  0  0  0  0  0  0
    7.1510   -0.0253   -1.4783 H   0  0  0  0  0  0  0  0  0  0  0  0
  1  2  1  0
  2  3  1  0
  2  4  1  0
  4  5  1  0
  5  6  1  0
  6  7  1  0
  7  8  2  0
  7  9  1  0
  9 10  1  0
 10 11  1  0
 11 12  1  0
 11 13  1  0
  9 14  1  0
 14 15  1  0
 15 16  2  0
 15 17  1  0
 17 18  2  0
 18 19  1  0
 19 20  2  0
 20 21  1  0
 21 22  2  0
  5 23  1  0
 23 24  2  0
 23 25  1  0
 25 26  1  0
 26 27  1  0
 27 28  1  0
 28 29  2  0
 29 30  1  0
 30 31  2  0
 31 32  1  0
 32 33  2  0
 26 34  1  0
 34 35  2  0
 34 36  1  0
 36 37  1  0
 37 38  1  0
 38 39  1  0
 39 40  1  0
 39 41  2  0
 37 42  1  0
 42 43  2  0
 42 44  1  0
 44 45  1  0
 45 46  1  0
 46 47  1  0
 47 48  2  0
 48 49  1  0
 49 50  2  0
 50 51  1  0
 51 52  2  0
 45 53  1  0
 53 54  1  0
 53 55  2  3
 22 17  1  0
 33 28  1  0
 52 47  1  0
  1 56  1  0
  1 57  1  0
  1 58  1  0
  2 59  1  0
  3 60  1  0
  3 61  1  0
  3 62  1  0
  4 63  1  0
  4 64  1  0
  5 65  1  6
  6 66  1  0
  9 67  1  1
 10 68  1  0
 10 69  1  0
 11 70  1  0
 12 71  1  0
 12 72  1  0
 12 73  1  0
 13 74  1  0
 13 75  1  0
 13 76  1  0
 14 77  1  0
 18 78  1  0
 19 79  1  0
 20 80  1  0
 21 81  1  0
 22 82  1  0
 25 83  1  0
 26 84  1  1
 27 85  1  0
 27 86  1  0
 29 87  1  0
 30 88  1  0
 31 89  1  0
 32 90  1  0
 33 91  1  0
 36 92  1  0
 37 93  1  1
 38 94  1  0
 38 95  1  0
 40 96  1  0
 40 97  1  0
 44 98  1  0
 45 99  1  6
 46100  1  0
 46101  1  0
 48102  1  0
 49103  1  0
 50104  1  0
 51105  1  0
 52106  1  0
 54107  1  0
 54108  1  0
 55109  1  0
M  END
$$$$
[H]c1nc(N([H])[C@@]2([H])C([H])([H])N([H])C([H])([H])[C@@]2([H])N([H])c2c([H])c(C#N)nc([H])c2OC([H])([H])[H])c2c([H])c([H])n([H])c2n1
     RDKit          3D

 44 47  0  0  0  0  0  0  0  0999 V2000
    2.3871    4.1659    0.4435 C   0  0  0  0  0  0  0  0  0  0  0  0
    2.0559    2.7837    0.4949 O   0  0  0  0  0  0  0  0  0  0  0  0
    3.0321    1.8017    0.4477 C   0  0  0  0  0  0  0  0  0  0  0  0
    4.3701    2.0750    0.3495 C   0  0  0  0  0  0  0  0  0  0  0  0
    5.3072    1.1209    0.3044 N   0  0  0  0  0  0  0  0  0  0  0  0
    4.9638   -0.1855    0.3555 C   0  0  0  0  0  0  0  0  0  0  0  0
    3.6197   -0.4837    0.4549 C   0  0  0  0  0  0  0  0  0  0  0  0
    2.6246    0.4839    0.5031 C   0  0  0  0  0  0  0  0  0  0  0  0
    1.2475    0.1601    0.6278 N   0  0  0  0  0  0  0  0  0  0  0  0
    0.8315   -1.1995    0.5602 C   0  0  2  0  0  0  0  0  0  0  0  0
    0.9263   -1.8362   -0.8064 C   0  0  0  0  0  0  0  0  0  0  0  0
    0.3550   -3.1576   -0.4879 N   0  0  0  0  0  0  0  0  0  0  0  0
   -0.7594   -2.8952    0.3879 C   0  0  0  0  0  0  0  0  0  0  0  0
   -0.6041   -1.4512    0.8867 C   0  0  2  0  0  0  0  0  0  0  0  0
   -1.4846   -0.5959    0.1152 N   0  0  0  0  0  0  0  0  0  0  0  0
   -2.8961   -0.6508    0.2506 C   0  0  0  0  0  0  0  0  0  0  0  0
   -3.5060   -1.4917    1.0956 N   0  0  0  0  0  0  0  0  0  0  0  0
   -4.8370   -1.5137    1.1947 C   0  0  0  0  0  0  0  0  0  0  0  0
   -5.5878   -0.6816    0.4379 N   0  0  0  0  0  0  0  0  0  0  0  0
   -5.0133    0.1827   -0.4274 C   0  0  0  0  0  0  0  0  0  0  0  0
   -5.5076    1.1006   -1.2818 N   0  0  0  0  0  0  0  0  0  0  0  0
   -4.5328    1.7201   -1.9350 C   0  0  0  0  0  0  0  0  0  0  0  0
   -3.3620    1.1651   -1.4695 C   0  0  0  0  0  0  0  0  0  0  0  0
   -3.6586    0.1955   -0.5191 C   0  0  0  0  0  0  0  0  0  0  0  0
    5.9362   -1.2316    0.3098 C   0  0  0  0  0  0  0  0  0  0  0  0
    6.7388   -2.0697    0.2822 N   0  0  0  0  0  0  0  0  0  0  0  0
    3.0862    4.4293    1.2777 H   0  0  0  0  0  0  0  0  0  0  0  0
    2.8684    4.3803   -0.5368 H   0  0  0  0  0  0  0  0  0  0  0  0
    1.4590    4.7530    0.5883 H   0  0  0  0  0  0  0  0  0  0  0  0
    4.6573    3.1252    0.3080 H   0  0  0  0  0  0  0  0  0  0  0  0
    3.3762   -1.5389    0.5086 H   0  0  0  0  0  0  0  0  0  0  0  0
    0.5904    0.9666    0.7681 H   0  0  0  0  0  0  0  0  0  0  0  0
    1.4300   -1.8104    1.2715 H   0  0  0  0  0  0  0  0  0  0  0  0
    1.9084   -1.8932   -1.2474 H   0  0  0  0  0  0  0  0  0  0  0  0
    0.1715   -1.3699   -1.4927 H   0  0  0  0  0  0  0  0  0  0  0  0
    1.0982   -3.6311    0.0947 H   0  0  0  0  0  0  0  0  0  0  0  0
   -0.7918   -3.5795    1.2677 H   0  0  0  0  0  0  0  0  0  0  0  0
   -1.6854   -3.0214   -0.1972 H   0  0  0  0  0  0  0  0  0  0  0  0
   -0.8290   -1.3984    1.9677 H   0  0  0  0  0  0  0  0  0  0  0  0
   -1.0780    0.0789   -0.5580 H   0  0  0  0  0  0  0  0  0  0  0  0
   -5.3557   -2.1994    1.8850 H   0  0  0  0  0  0  0  0  0  0  0  0
   -6.5285    1.2832   -1.3977 H   0  0  0  0  0  0  0  0  0  0  0  0
   -4.6648    2.4918   -2.6698 H   0  0  0  0  0  0  0  0  0  0  0  0
   -2.3590    1.4225   -1.7760 H   0  0  0  0  0  0  0  0  0  0  0  0
  1  2  1  0
  2  3  1  0
  3  4  2  0
  4  5  1  0
  5  6  2  0
  6  7  1  0
  7  8  2  0
  8  9  1  0
  9 10  1  0
 10 11  1  0
 11 12  1  0
 12 13  1  0
 13 14  1  0
 14 15  1  0
 15 16  1  0
 16 17  2  0
 17 18  1  0
 18 19  2  0
 19 20  1  0
 20 21  1  0
 21 22  1  0
 22 23  2  0
 23 24  1  0
  6 25  1  0
 25 26  3  0
  8  3  1  0
 14 10  1  0
 24 16  1  0
 24 20  2  0
  1 27  1  0
  1 28  1  0
  1 29  1  0
  4 30  1  0
  7 31  1  0
  9 32  1  0
 10 33  1  1
 11 34  1  0
 11 35  1  0
 12 36  1  0
 13 37  1  0
 13 38  1  0
 14 39  1  1
 15 40  1  0
 18 41  1  0
 21 42  1  0
 22 43  1  0
 23 44  1  0
M  END
$$$$
[H]OC(=O)[C@@]1([H])N([C@]2([H])C([H])([H])C([H])([H])[C@@]([H])(c3c([H])c([H])c([H])c([H])c3C([H])([H])O[H])C([H])([H])C2([H])[H])C([H])([H])C([H])([H])C1([H])[H]
     RDKit          3D

 47 49  0  0  0  0  0  0  0  0999 V2000
   -4.5900    2.0876    1.4037 O   0  0  0  0  0  0  0  0  0  0  0  0
   -3.9400    0.8536    1.7119 C   0  0  0  0  0  0  0  0  0  0  0  0
   -3.9714    0.0255    0.5381 C   0  0  0  0  0  0  0  0  0  0  0  0
   -5.1632   -0.3568   -0.0936 C   0  0  0  0  0  0  0  0  0  0  0  0
   -5.0709   -1.1246   -1.2140 C   0  0  0  0  0  0  0  0  0  0  0  0
   -3.9290   -1.5252   -1.7919 C   0  0  0  0  0  0  0  0  0  0  0  0
   -2.7471   -1.1127   -1.1343 C   0  0  0  0  0  0  0  0  0  0  0  0
   -2.7370   -0.3847    0.0020 C   0  0  0  0  0  0  0  0  0  0  0  0
   -1.5107   -0.2839    0.8365 C   0  0  1  0  0  0  0  0  0  0  0  0
   -0.6039   -1.4505    0.4565 C   0  0  0  0  0  0  0  0  0  0  0  0
    0.8374   -1.1438    0.4229 C   0  0  0  0  0  0  0  0  0  0  0  0
    1.1915    0.1038   -0.3196 C   0  0  1  0  0  0  0  0  0  0  0  0
    0.1988    1.2137   -0.2208 C   0  0  0  0  0  0  0  0  0  0  0  0
   -0.7975    1.0004    0.8874 C   0  0  0  0  0  0  0  0  0  0  0  0
    2.4781    0.5366    0.2082 N   0  0  0  0  0  0  0  0  0  0  0  0
    3.0690    1.5665   -0.6224 C   0  0  0  0  0  0  0  0  0  0  0  0
    4.1046    0.9136   -1.4969 C   0  0  0  0  0  0  0  0  0  0  0  0
    3.8825   -0.5619   -1.2316 C   0  0  0  0  0  0  0  0  0  0  0  0
    3.4579   -0.5176    0.2012 C   0  0  1  0  0  0  0  0  0  0  0  0
    4.5881   -0.1797    1.0633 C   0  0  0  0  0  0  0  0  0  0  0  0
    5.7775   -0.8983    0.7775 O   0  0  0  0  0  0  0  0  0  0  0  0
    4.6140    0.6090    1.9869 O   0  0  0  0  0  0  0  0  0  0  0  0
   -5.3567    2.0475    0.8508 H   0  0  0  0  0  0  0  0  0  0  0  0
   -3.1103    0.9347    2.3406 H   0  0  0  0  0  0  0  0  0  0  0  0
   -4.7879    0.3769    2.3946 H   0  0  0  0  0  0  0  0  0  0  0  0
   -6.1214   -0.0792    0.3122 H   0  0  0  0  0  0  0  0  0  0  0  0
   -6.0292   -1.5171   -1.6874 H   0  0  0  0  0  0  0  0  0  0  0  0
   -3.7942   -2.1018   -2.6772 H   0  0  0  0  0  0  0  0  0  0  0  0
   -1.7865   -1.2465   -1.6676 H   0  0  0  0  0  0  0  0  0  0  0  0
   -1.8204   -0.5207    1.9160 H   0  0  0  0  0  0  0  0  0  0  0  0
   -0.8791   -1.9527   -0.4797 H   0  0  0  0  0  0  0  0  0  0  0  0
   -0.7312   -2.2984    1.2253 H   0  0  0  0  0  0  0  0  0  0  0  0
    1.2435   -1.1438    1.4364 H   0  0  0  0  0  0  0  0  0  0  0  0
    1.3021   -2.0046   -0.1632 H   0  0  0  0  0  0  0  0  0  0  0  0
    1.2980   -0.1433   -1.4121 H   0  0  0  0  0  0  0  0  0  0  0  0
   -0.3515    1.3857   -1.1822 H   0  0  0  0  0  0  0  0  0  0  0  0
    0.7215    2.1763    0.0035 H   0  0  0  0  0  0  0  0  0  0  0  0
   -1.4416    1.8797    0.9676 H   0  0  0  0  0  0  0  0  0  0  0  0
   -0.1673    1.0188    1.8417 H   0  0  0  0  0  0  0  0  0  0  0  0
    3.5131    2.3135    0.0665 H   0  0  0  0  0  0  0  0  0  0  0  0
    2.3276    2.0636   -1.2683 H   0  0  0  0  0  0  0  0  0  0  0  0
    4.0177    1.1757   -2.5500 H   0  0  0  0  0  0  0  0  0  0  0  0
    5.1371    1.1322   -1.0984 H   0  0  0  0  0  0  0  0  0  0  0  0
    4.8317   -1.1356   -1.2650 H   0  0  0  0  0  0  0  0  0  0  0  0
    3.1069   -0.9901   -1.9031 H   0  0  0  0  0  0  0  0  0  0  0  0
    3.0591   -1.4847    0.5733 H   0  0  0  0  0  0  0  0  0  0  0  0
    6.6804   -0.5312    1.0547 H   0  0  0  0  0  0  0  0  0  0  0  0
  1  2  1  0
  2  3  1  0
  3  4  2  0
  4  5  1  0
  5  6  2  0
  6  7  1  0
  7  8  2  0
  8  9  1  0
  9 10  1  0
 10 11  1  0
 11 12  1  0
 12 13  1  0
 13 14  1  0
 12 15  1  0
 15 16  1  0
 16 17  1  0
 17 18  1  0
 18 19  1  0
 19 20  1  0
 20 21  1  0
 20 22  2  0
  8  3  1  0
 14  9  1  0
 19 15  1  0
  1 23  1  0
  2 24  1  0
  2 25  1  0
  4 26  1  0
  5 27  1  0
  6 28  1  0
  7 29  1  0
  9 30  1  1
 10 31  1  0
 10 32  1  0
 11 33  1  0
 11 34  1  0
 12 35  1  6
 13 36  1  0
 13 37  1  0
 14 38  1  0
 14 39  1  0
 16 40  1  0
 16 41  1  0
 17 42  1  0
 17 43  1  0
 18 44  1  0
 18 45  1  0
 19 46  1  1
 21 47  1  0
M  END
$$$$
[H]C1=C(C(=O)[O-])N2C(=O)/C(=C(/[H])c3c([H])c([H])c(Br)c([H])c3[H])[C@]2([H])S1
     RDKit          3D

 26 28  0  0  0  0  0  0  0  0999 V2000
    5.4359   -1.5739   -1.3325 O   0  0  0  0  0  0  0  0  0  0  0  0
    4.2500   -1.5951   -0.6537 C   0  0  0  0  0  0  0  0  0  0  0  0
    3.8286   -2.6926   -0.2415 O   0  0  0  0  0  0  0  0  0  0  0  0
    3.5237   -0.3140   -0.4406 C   0  0  0  0  0  0  0  0  0  0  0  0
    3.9603    0.8455   -0.8717 C   0  0  0  0  0  0  0  0  0  0  0  0
    2.7460    2.0527   -0.3650 S   0  0  0  0  0  0  0  0  0  0  0  0
    2.0114    0.9592    0.9319 C   0  0  2  0  0  0  0  0  0  0  0  0
    2.2991   -0.2975    0.2310 N   0  0  0  0  0  0  0  0  0  0  0  0
    1.0187   -0.7396    0.7318 C   0  0  0  0  0  0  0  0  0  0  0  0
    0.4686   -1.8384    1.0107 O   0  0  0  0  0  0  0  0  0  0  0  0
    0.6030    0.6640    0.7867 C   0  0  0  0  0  0  0  0  0  0  0  0
   -0.5227    1.3461    0.7481 C   0  0  0  0  0  0  0  0  0  0  0  0
   -1.7954    0.6458    0.5786 C   0  0  0  0  0  0  0  0  0  0  0  0
   -2.8782    0.9953    1.3575 C   0  0  0  0  0  0  0  0  0  0  0  0
   -4.1100    0.3883    1.2395 C   0  0  0  0  0  0  0  0  0  0  0  0
   -4.2699   -0.6133    0.3022 C   0  0  0  0  0  0  0  0  0  0  0  0
   -5.9411   -1.5074    0.0738 Br  0  0  0  0  0  0  0  0  0  0  0  0
   -3.1870   -0.9514   -0.4659 C   0  0  0  0  0  0  0  0  0  0  0  0
   -1.9506   -0.3459   -0.3517 C   0  0  0  0  0  0  0  0  0  0  0  0
    4.8444    1.0478   -1.4086 H   0  0  0  0  0  0  0  0  0  0  0  0
    2.4602    1.0686    1.9076 H   0  0  0  0  0  0  0  0  0  0  0  0
   -0.5197    2.4261    0.8409 H   0  0  0  0  0  0  0  0  0  0  0  0
   -2.8207    1.7848    2.1230 H   0  0  0  0  0  0  0  0  0  0  0  0
   -4.9607    0.6643    1.8531 H   0  0  0  0  0  0  0  0  0  0  0  0
   -3.3419   -1.7449   -1.1974 H   0  0  0  0  0  0  0  0  0  0  0  0
   -1.1519   -0.6745   -1.0122 H   0  0  0  0  0  0  0  0  0  0  0  0
  1  2  1  0
  2  3  2  0
  2  4  1  0
  4  5  2  0
  5  6  1  0
  6  7  1  0
  7  8  1  0
  8  9  1  0
  9 10  2  0
  9 11  1  0
 11 12  2  0
 12 13  1  0
 13 14  2  0
 14 15  1  0
 15 16  2  0
 16 17  1  0
 16 18  1  0
 18 19  2  0
  8  4  1  0
 19 13  1  0
 11  7  1  0
  5 20  1  0
  7 21  1  1
 12 22  1  0
 14 23  1  0
 15 24  1  0
 18 25  1  0
 19 26  1  0
M  CHG  1   1  -1
M  END
$$$$
