[H]c1nc(N([H])c2c([H])c([H])c(C(F)(F)F)c([H])c2OC([H])([H])[H])nc(N([H])c2c([H])c([H])c([H])c([H])c2S(=O)(=O)C([H])(C([H])([H])[H])C([H])([H])[H])c1Cl
     RDKit          3D

 53 55  0  0  0  0  0  0  0  0999 V2000
    5.2110   -2.8974   -1.3050 C   0  0  0  0  0  0  0  0  0  0  0  0
    4.4335   -1.8680   -0.7973 O   0  0  0  0  0  0  0  0  0  0  0  0
    4.8894   -0.7104   -0.1767 C   0  0  0  0  0  0  0  0  0  0  0  0
    6.2278   -0.5147   -0.0177 C   0  0  0  0  0  0  0  0  0  0  0  0
    6.6774    0.6351    0.6005 C   0  0  0  0  0  0  0  0  0  0  0  0
    5.8005    1.5582    1.0449 C   0  0  0  0  0  0  0  0  0  0  0  0
    4.4229    1.3376    0.8708 C   0  0  0  0  0  0  0  0  0  0  0  0
    3.9233    0.2144    0.2612 C   0  0  0  0  0  0  0  0  0  0  0  0
    2.5650   -0.0471    0.0206 N   0  0  0  0  0  0  0  0  0  0  0  0
    1.4586    0.8113    0.2617 C   0  0  0  0  0  0  0  0  0  0  0  0
    1.5491    2.0229    0.7824 N   0  0  0  0  0  0  0  0  0  0  0  0
    0.5607    2.8775    0.9516 C   0  0  0  0  0  0  0  0  0  0  0  0
   -0.7002    2.4655    0.5389 C   0  0  0  0  0  0  0  0  0  0  0  0
   -2.0711    3.5248    0.6835 Cl  0  0  0  0  0  0  0  0  0  0  0  0
   -0.9016    1.1852   -0.0277 C   0  0  0  0  0  0  0  0  0  0  0  0
   -2.1967    0.8455   -0.4124 N   0  0  0  0  0  0  0  0  0  0  0  0
   -2.6710   -0.2969   -1.0534 C   0  0  0  0  0  0  0  0  0  0  0  0
   -1.8100   -1.2933   -1.5496 C   0  0  0  0  0  0  0  0  0  0  0  0
   -2.3114   -2.3613   -2.2626 C   0  0  0  0  0  0  0  0  0  0  0  0
   -3.6620   -2.4561   -2.4925 C   0  0  0  0  0  0  0  0  0  0  0  0
   -4.5140   -1.5029   -2.0168 C   0  0  0  0  0  0  0  0  0  0  0  0
   -4.0407   -0.4025   -1.2872 C   0  0  0  0  0  0  0  0  0  0  0  0
   -5.2130    0.6526   -0.5960 S   0  0  0  0  0  0  0  0  0  0  0  0
   -6.5776    0.3686   -1.2562 O   0  0  0  0  0  0  0  0  0  0  0  0
   -5.0231    2.0981   -0.7377 O   0  0  0  0  0  0  0  0  0  0  0  0
   -5.4865    0.2785    1.1364 C   0  0  0  0  0  0  0  0  0  0  0  0
   -6.5099    1.2363    1.6984 C   0  0  0  0  0  0  0  0  0  0  0  0
   -5.9837   -1.1519    1.2849 C   0  0  0  0  0  0  0  0  0  0  0  0
    0.2131    0.4341   -0.1289 N   0  0  0  0  0  0  0  0  0  0  0  0
    8.1220    0.8645    0.7574 C   0  0  0  0  0  0  0  0  0  0  0  0
    8.4197    2.1756    0.3850 F   0  0  0  0  0  0  0  0  0  0  0  0
    8.4923    0.7166    2.0643 F   0  0  0  0  0  0  0  0  0  0  0  0
    8.8654   -0.0544    0.0148 F   0  0  0  0  0  0  0  0  0  0  0  0
    6.2302   -2.6021   -1.6509 H   0  0  0  0  0  0  0  0  0  0  0  0
    4.6978   -3.2843   -2.2222 H   0  0  0  0  0  0  0  0  0  0  0  0
    5.2812   -3.7195   -0.5289 H   0  0  0  0  0  0  0  0  0  0  0  0
    6.9765   -1.2510   -0.3623 H   0  0  0  0  0  0  0  0  0  0  0  0
    6.0960    2.4889    1.5424 H   0  0  0  0  0  0  0  0  0  0  0  0
    3.7822    2.0990    1.2445 H   0  0  0  0  0  0  0  0  0  0  0  0
    2.3512   -1.0145   -0.3888 H   0  0  0  0  0  0  0  0  0  0  0  0
    0.6417    3.8903    1.3782 H   0  0  0  0  0  0  0  0  0  0  0  0
   -2.9367    1.5744   -0.1723 H   0  0  0  0  0  0  0  0  0  0  0  0
   -0.7529   -1.2056   -1.3863 H   0  0  0  0  0  0  0  0  0  0  0  0
   -1.6539   -3.1143   -2.6363 H   0  0  0  0  0  0  0  0  0  0  0  0
   -4.0195   -3.3287   -3.0519 H   0  0  0  0  0  0  0  0  0  0  0  0
   -5.6043   -1.5886   -2.1821 H   0  0  0  0  0  0  0  0  0  0  0  0
   -4.5458    0.3901    1.6743 H   0  0  0  0  0  0  0  0  0  0  0  0
   -6.8131    0.9118    2.7381 H   0  0  0  0  0  0  0  0  0  0  0  0
   -6.0893    2.2440    1.7176 H   0  0  0  0  0  0  0  0  0  0  0  0
   -7.4674    1.2493    1.1244 H   0  0  0  0  0  0  0  0  0  0  0  0
   -6.8037   -1.1276    2.0311 H   0  0  0  0  0  0  0  0  0  0  0  0
   -5.1642   -1.7860    1.6367 H   0  0  0  0  0  0  0  0  0  0  0  0
   -6.3649   -1.5717    0.3262 H   0  0  0  0  0  0  0  0  0  0  0  0
  1  2  1  0
  2  3  1  0
  3  4  2  0
  4  5  1  0
  5  6  2  0
  6  7  1  0
  7  8  2  0
  8  9  1  0
  9 10  1  0
 10 11  2  0
 11 12  1  0
 12 13  2  0
 13 14  1  0
 13 15  1  0
 15 16  1  0
 16 17  1  0
 17 18  2  0
 18 19  1  0
 19 20  2  0
 20 21  1  0
 21 22  2  0
 22 23  1  0
 23 24  2  0
 23 25  2  0
 23 26  1  0
 26 27  1  0
 26 28  1  0
 15 29  2  0
  5 30  1  0
 30 31  1  0
 30 32  1  0
 30 33  1  0
  8  3  1  0
 29 10  1  0
 22 17  1  0
  1 34  1  0
  1 35  1  0
  1 36  1  0
  4 37  1  0
  6 38  1  0
  7 39  1  0
  9 40  1  0
 12 41  1  0
 16 42  1  0
 18 43  1  0
 19 44  1  0
 20 45  1  0
 21 46  1  0
 26 47  1  0
 27 48  1  0
 27 49  1  0
 27 50  1  0
 28 51  1  0
 28 52  1  0
 28 53  1  0
M  END
$$$$
[H]c1nc(N([H])c2c([H])c([H])c(N3C([H])([H])C([H])([H])N(C([H])([H])[H])C([H])([H])C3([H])[H])c([H])c2OC([H])([H])[H])nc(N([H])c2c([H])c([H])c([H])c([H])c2S(=O)(=O)C([H])(C([H])([H])[H])C([H])([H])[H])c1Cl
     RDKit          3D

 67 70  0  0  0  0  0  0  0  0999 V2000
    2.7980   -3.3310   -1.2288 C   0  0  0  0  0  0  0  0  0  0  0  0
    1.9415   -2.2352   -0.9986 O   0  0  0  0  0  0  0  0  0  0  0  0
    2.4816   -1.0407   -0.5265 C   0  0  0  0  0  0  0  0  0  0  0  0
    3.8274   -0.9244   -0.2865 C   0  0  0  0  0  0  0  0  0  0  0  0
    4.4213    0.2145    0.1751 C   0  0  0  0  0  0  0  0  0  0  0  0
    3.5861    1.2917    0.4024 C   0  0  0  0  0  0  0  0  0  0  0  0
    2.2085    1.1836    0.1606 C   0  0  0  0  0  0  0  0  0  0  0  0
    1.6255    0.0523   -0.2972 C   0  0  0  0  0  0  0  0  0  0  0  0
    0.2667   -0.0963   -0.5497 N   0  0  0  0  0  0  0  0  0  0  0  0
   -0.7485    0.8732   -0.3847 C   0  0  0  0  0  0  0  0  0  0  0  0
   -0.5976    2.1249    0.0475 N   0  0  0  0  0  0  0  0  0  0  0  0
   -1.5696    3.0148    0.1930 C   0  0  0  0  0  0  0  0  0  0  0  0
   -2.8553    2.6370   -0.1234 C   0  0  0  0  0  0  0  0  0  0  0  0
   -4.1874    3.7633    0.0449 Cl  0  0  0  0  0  0  0  0  0  0  0  0
   -3.1059    1.3214   -0.5915 C   0  0  0  0  0  0  0  0  0  0  0  0
   -4.4442    0.9705   -0.8839 N   0  0  0  0  0  0  0  0  0  0  0  0
   -4.8563   -0.2771   -1.3763 C   0  0  0  0  0  0  0  0  0  0  0  0
   -4.0250   -1.2445   -1.8945 C   0  0  0  0  0  0  0  0  0  0  0  0
   -4.4990   -2.4531   -2.4340 C   0  0  0  0  0  0  0  0  0  0  0  0
   -5.8636   -2.6532   -2.4324 C   0  0  0  0  0  0  0  0  0  0  0  0
   -6.7143   -1.7053   -1.9218 C   0  0  0  0  0  0  0  0  0  0  0  0
   -6.2437   -0.5196   -1.3917 C   0  0  0  0  0  0  0  0  0  0  0  0
   -7.3164    0.6608   -0.6987 S   0  0  0  0  0  0  0  0  0  0  0  0
   -7.3933    1.9371   -1.4847 O   0  0  0  0  0  0  0  0  0  0  0  0
   -8.7283    0.0574   -0.8397 O   0  0  0  0  0  0  0  0  0  0  0  0
   -7.0890    0.8939    1.0249 C   0  0  0  0  0  0  0  0  0  0  0  0
   -7.3480   -0.4235    1.7701 C   0  0  0  0  0  0  0  0  0  0  0  0
   -8.1301    1.8608    1.6013 C   0  0  0  0  0  0  0  0  0  0  0  0
   -2.0417    0.5457   -0.6857 N   0  0  0  0  0  0  0  0  0  0  0  0
    5.8136    0.2932    0.3958 N   0  0  0  0  0  0  0  0  0  0  0  0
    6.4498    1.3219    1.2076 C   0  0  0  0  0  0  0  0  0  0  0  0
    7.4716    0.7173    2.1500 C   0  0  0  0  0  0  0  0  0  0  0  0
    8.2281   -0.3570    1.5914 N   0  0  0  0  0  0  0  0  0  0  0  0
    9.2895    0.0606    0.7233 C   0  0  0  0  0  0  0  0  0  0  0  0
    7.3758   -1.3808    0.9847 C   0  0  0  0  0  0  0  0  0  0  0  0
    6.7127   -0.6643   -0.2033 C   0  0  0  0  0  0  0  0  0  0  0  0
    2.1978   -4.1742   -1.5940 H   0  0  0  0  0  0  0  0  0  0  0  0
    3.3465   -3.6080   -0.3147 H   0  0  0  0  0  0  0  0  0  0  0  0
    3.5586   -2.9887   -1.9679 H   0  0  0  0  0  0  0  0  0  0  0  0
    4.4382   -1.8245   -0.4810 H   0  0  0  0  0  0  0  0  0  0  0  0
    4.0232    2.2148    0.7675 H   0  0  0  0  0  0  0  0  0  0  0  0
    1.6829    2.0994    0.3817 H   0  0  0  0  0  0  0  0  0  0  0  0
   -0.0953   -1.0472   -0.9152 H   0  0  0  0  0  0  0  0  0  0  0  0
   -1.3686    4.0319    0.5559 H   0  0  0  0  0  0  0  0  0  0  0  0
   -5.1553    1.7451   -0.7241 H   0  0  0  0  0  0  0  0  0  0  0  0
   -2.9519   -1.1300   -1.9331 H   0  0  0  0  0  0  0  0  0  0  0  0
   -3.8051   -3.1751   -2.8254 H   0  0  0  0  0  0  0  0  0  0  0  0
   -6.2117   -3.5899   -2.8525 H   0  0  0  0  0  0  0  0  0  0  0  0
   -7.7729   -1.8830   -1.9315 H   0  0  0  0  0  0  0  0  0  0  0  0
   -6.0945    1.2164    1.2893 H   0  0  0  0  0  0  0  0  0  0  0  0
   -7.0459   -0.2515    2.8164 H   0  0  0  0  0  0  0  0  0  0  0  0
   -6.7761   -1.2538    1.3513 H   0  0  0  0  0  0  0  0  0  0  0  0
   -8.4409   -0.6809    1.6975 H   0  0  0  0  0  0  0  0  0  0  0  0
   -8.1469    1.6683    2.6953 H   0  0  0  0  0  0  0  0  0  0  0  0
   -7.8558    2.8834    1.3399 H   0  0  0  0  0  0  0  0  0  0  0  0
   -9.1318    1.5480    1.2224 H   0  0  0  0  0  0  0  0  0  0  0  0
    5.6986    1.8496    1.8178 H   0  0  0  0  0  0  0  0  0  0  0  0
    6.9306    2.0340    0.5190 H   0  0  0  0  0  0  0  0  0  0  0  0
    6.9661    0.3984    3.0955 H   0  0  0  0  0  0  0  0  0  0  0  0
    8.1853    1.5113    2.4512 H   0  0  0  0  0  0  0  0  0  0  0  0
    9.0845    1.0803    0.3255 H   0  0  0  0  0  0  0  0  0  0  0  0
   10.2479    0.0559    1.3173 H   0  0  0  0  0  0  0  0  0  0  0  0
    9.3924   -0.6645   -0.1011 H   0  0  0  0  0  0  0  0  0  0  0  0
    6.5706   -1.6106    1.6897 H   0  0  0  0  0  0  0  0  0  0  0  0
    7.9791   -2.2304    0.6689 H   0  0  0  0  0  0  0  0  0  0  0  0
    6.2815   -1.3420   -0.9293 H   0  0  0  0  0  0  0  0  0  0  0  0
    7.5281   -0.0532   -0.6714 H   0  0  0  0  0  0  0  0  0  0  0  0
  1  2  1  0
  2  3  1  0
  3  4  2  0
  4  5  1  0
  5  6  2  0
  6  7  1  0
  7  8  2  0
  8  9  1  0
  9 10  1  0
 10 11  2  0
 11 12  1  0
 12 13  2  0
 13 14  1  0
 13 15  1  0
 15 16  1  0
 16 17  1  0
 17 18  2  0
 18 19  1  0
 19 20  2  0
 20 21  1  0
 21 22  2  0
 22 23  1  0
 23 24  2  0
 23 25  2  0
 23 26  1  0
 26 27  1  0
 26 28  1  0
 15 29  2  0
  5 30  1  0
 30 31  1  0
 31 32  1  0
 32 33  1  0
 33 34  1  0
 33 35  1  0
 35 36  1  0
  8  3  1  0
 29 10  1  0
 36 30  1  0
 22 17  1  0
  1 37  1  0
  1 38  1  0
  1 39  1  0
  4 40  1  0
  6 41  1  0
  7 42  1  0
  9 43  1  0
 12 44  1  0
 16 45  1  0
 18 46  1  0
 19 47  1  0
 20 48  1  0
 21 49  1  0
 26 50  1  0
 27 51  1  0
 27 52  1  0
 27 53  1  0
 28 54  1  0
 28 55  1  0
 28 56  1  0
 31 57  1  0
 31 58  1  0
 32 59  1  0
 32 60  1  0
 34 61  1  0
 34 62  1  0
 34 63  1  0
 35 64  1  0
 35 65  1  0
 36 66  1  0
 36 67  1  0
M  END
$$$$
[H]c1nc(N([H])c2c([H])c([H])c(N3C([H])([H])C([H])([H])N(C(=O)C([H])([H])[H])C([H])([H])C3([H])[H])c([H])c2OC([H])([H])[H])nc(N([H])c2c([H])c([H])c([H])c([H])c2S(=O)(=O)C([H])(C([H])([H])[H])C([H])([H])[H])c1Cl
     RDKit          3D

 69 72  0  0  0  0  0  0  0  0999 V2000
    2.2630   -2.7895   -2.4447 C   0  0  0  0  0  0  0  0  0  0  0  0
    1.5733   -1.7652   -1.7969 O   0  0  0  0  0  0  0  0  0  0  0  0
    2.1533   -0.7026   -1.1563 C   0  0  0  0  0  0  0  0  0  0  0  0
    3.5188   -0.5794   -1.1129 C   0  0  0  0  0  0  0  0  0  0  0  0
    4.1658    0.4595   -0.4883 C   0  0  0  0  0  0  0  0  0  0  0  0
    3.3761    1.4073    0.1147 C   0  0  0  0  0  0  0  0  0  0  0  0
    1.9680    1.2896    0.0759 C   0  0  0  0  0  0  0  0  0  0  0  0
    1.3418    0.2559   -0.5464 C   0  0  0  0  0  0  0  0  0  0  0  0
   -0.0328    0.0909   -0.6131 N   0  0  0  0  0  0  0  0  0  0  0  0
   -1.0461    0.9428   -0.0984 C   0  0  0  0  0  0  0  0  0  0  0  0
   -0.8268    2.0721    0.5497 N   0  0  0  0  0  0  0  0  0  0  0  0
   -1.8196    2.8375    1.0070 C   0  0  0  0  0  0  0  0  0  0  0  0
   -3.1276    2.4466    0.8021 C   0  0  0  0  0  0  0  0  0  0  0  0
   -4.3954    3.4859    1.4229 Cl  0  0  0  0  0  0  0  0  0  0  0  0
   -3.4147    1.2500    0.1165 C   0  0  0  0  0  0  0  0  0  0  0  0
   -4.7625    0.8884   -0.0695 N   0  0  0  0  0  0  0  0  0  0  0  0
   -5.3110   -0.2323   -0.7111 C   0  0  0  0  0  0  0  0  0  0  0  0
   -4.5338   -1.1321   -1.3913 C   0  0  0  0  0  0  0  0  0  0  0  0
   -5.1592   -2.2087   -2.0442 C   0  0  0  0  0  0  0  0  0  0  0  0
   -6.5167   -2.3974   -2.0295 C   0  0  0  0  0  0  0  0  0  0  0  0
   -7.2780   -1.4862   -1.3425 C   0  0  0  0  0  0  0  0  0  0  0  0
   -6.6983   -0.3988   -0.6771 C   0  0  0  0  0  0  0  0  0  0  0  0
   -7.7173    0.6976    0.2136 S   0  0  0  0  0  0  0  0  0  0  0  0
   -9.1616    0.2705   -0.0195 O   0  0  0  0  0  0  0  0  0  0  0  0
   -7.6425    2.1115   -0.3098 O   0  0  0  0  0  0  0  0  0  0  0  0
   -7.4339    0.6974    1.9478 C   0  0  0  0  0  0  0  0  0  0  0  0
   -7.8218   -0.6650    2.5466 C   0  0  0  0  0  0  0  0  0  0  0  0
   -8.4174    1.7068    2.5498 C   0  0  0  0  0  0  0  0  0  0  0  0
   -2.3453    0.5831   -0.2850 N   0  0  0  0  0  0  0  0  0  0  0  0
    5.5675    0.5454   -0.4872 N   0  0  0  0  0  0  0  0  0  0  0  0
    6.3602   -0.2074   -1.4375 C   0  0  0  0  0  0  0  0  0  0  0  0
    7.0790   -1.2610   -0.5878 C   0  0  0  0  0  0  0  0  0  0  0  0
    7.9066   -0.5761    0.3968 N   0  0  0  0  0  0  0  0  0  0  0  0
    7.5493    0.6764    0.9908 C   0  0  0  0  0  0  0  0  0  0  0  0
    6.3491    1.3578    0.4450 C   0  0  0  0  0  0  0  0  0  0  0  0
    9.1183   -1.1893    0.7729 C   0  0  0  0  0  0  0  0  0  0  0  0
    9.9977   -0.5476    1.7646 C   0  0  0  0  0  0  0  0  0  0  0  0
    9.4533   -2.2774    0.2697 O   0  0  0  0  0  0  0  0  0  0  0  0
    2.6631   -2.4060   -3.4061 H   0  0  0  0  0  0  0  0  0  0  0  0
    1.5150   -3.5770   -2.7239 H   0  0  0  0  0  0  0  0  0  0  0  0
    3.0941   -3.1888   -1.8338 H   0  0  0  0  0  0  0  0  0  0  0  0
    4.0884   -1.3625   -1.6021 H   0  0  0  0  0  0  0  0  0  0  0  0
    3.8417    2.2433    0.6159 H   0  0  0  0  0  0  0  0  0  0  0  0
    1.4761    2.0931    0.5851 H   0  0  0  0  0  0  0  0  0  0  0  0
   -0.3908   -0.7942   -1.1173 H   0  0  0  0  0  0  0  0  0  0  0  0
   -1.5527    3.7411    1.5240 H   0  0  0  0  0  0  0  0  0  0  0  0
   -5.4512    1.6146    0.3437 H   0  0  0  0  0  0  0  0  0  0  0  0
   -3.4618   -1.0670   -1.4631 H   0  0  0  0  0  0  0  0  0  0  0  0
   -4.5499   -2.9280   -2.5862 H   0  0  0  0  0  0  0  0  0  0  0  0
   -6.9794   -3.2415   -2.5448 H   0  0  0  0  0  0  0  0  0  0  0  0
   -8.3700   -1.6025   -1.3070 H   0  0  0  0  0  0  0  0  0  0  0  0
   -6.4318    0.9614    2.2829 H   0  0  0  0  0  0  0  0  0  0  0  0
   -8.8919   -0.7229    2.7519 H   0  0  0  0  0  0  0  0  0  0  0  0
   -7.2984   -0.7908    3.5352 H   0  0  0  0  0  0  0  0  0  0  0  0
   -7.4824   -1.4748    1.8783 H   0  0  0  0  0  0  0  0  0  0  0  0
   -8.8248    1.3221    3.4920 H   0  0  0  0  0  0  0  0  0  0  0  0
   -9.2575    1.9142    1.8481 H   0  0  0  0  0  0  0  0  0  0  0  0
   -7.8960    2.6982    2.6756 H   0  0  0  0  0  0  0  0  0  0  0  0
    5.8202   -0.6676   -2.2516 H   0  0  0  0  0  0  0  0  0  0  0  0
    7.1250    0.5144   -1.8266 H   0  0  0  0  0  0  0  0  0  0  0  0
    7.7006   -1.8467   -1.2848 H   0  0  0  0  0  0  0  0  0  0  0  0
    6.3037   -1.8729   -0.1014 H   0  0  0  0  0  0  0  0  0  0  0  0
    7.4547    0.6012    2.1118 H   0  0  0  0  0  0  0  0  0  0  0  0
    8.4424    1.3559    0.8519 H   0  0  0  0  0  0  0  0  0  0  0  0
    6.6487    2.2625   -0.1628 H   0  0  0  0  0  0  0  0  0  0  0  0
    5.6871    1.7702    1.2420 H   0  0  0  0  0  0  0  0  0  0  0  0
    9.5328   -0.6867    2.7627 H   0  0  0  0  0  0  0  0  0  0  0  0
   11.0065   -1.0540    1.7696 H   0  0  0  0  0  0  0  0  0  0  0  0
   10.1598    0.5348    1.5838 H   0  0  0  0  0  0  0  0  0  0  0  0
  1  2  1  0
  2  3  1  0
  3  4  2  0
  4  5  1  0
  5  6  2  0
  6  7  1  0
  7  8  2  0
  8  9  1  0
  9 10  1  0
 10 11  2  0
 11 12  1  0
 12 13  2  0
 13 14  1  0
 13 15  1  0
 15 16  1  0
 16 17  1  0
 17 18  2  0
 18 19  1  0
 19 20  2  0
 20 21  1  0
 21 22  2  0
 22 23  1  0
 23 24  2  0
 23 25  2  0
 23 26  1  0
 26 27  1  0
 26 28  1  0
 15 29  2  0
  5 30  1  0
 30 31  1  0
 31 32  1  0
 32 33  1  0
 33 34  1  0
 34 35  1  0
 33 36  1  0
 36 37  1  0
 36 38  2  0
  8  3  1  0
 29 10  1  0
 35 30  1  0
 22 17  1  0
  1 39  1  0
  1 40  1  0
  1 41  1  0
  4 42  1  0
  6 43  1  0
  7 44  1  0
  9 45  1  0
 12 46  1  0
 16 47  1  0
 18 48  1  0
 19 49  1  0
 20 50  1  0
 21 51  1  0
 26 52  1  0
 27 53  1  0
 27 54  1  0
 27 55  1  0
 28 56  1  0
 28 57  1  0
 28 58  1  0
 31 59  1  0
 31 60  1  0
 32 61  1  0
 32 62  1  0
 34 63  1  0
 34 64  1  0
 35 65  1  0
 35 66  1  0
 37 67  1  0
 37 68  1  0
 37 69  1  0
M  END
$$$$
[H]c1nc(N([H])c2c([H])c([H])c(C(F)(F)F)c([H])c2OC([H])(C([H])([H])[H])C([H])([H])[H])nc(N([H])c2c([H])c([H])c([H])c([H])c2S(=O)(=O)C([H])(C([H])([H])[H])C([H])([H])[H])c1Cl
     RDKit          3D

 59 61  0  0  0  0  0  0  0  0999 V2000
   -6.1155   -2.0494   -1.3889 C   0  0  0  0  0  0  0  0  0  0  0  0
   -4.6062   -1.7723   -1.7454 C   0  0  0  0  0  0  0  0  0  0  0  0
   -3.9100   -3.0972   -1.6737 C   0  0  0  0  0  0  0  0  0  0  0  0
   -4.0879   -0.8073   -0.9322 O   0  0  0  0  0  0  0  0  0  0  0  0
   -4.4205    0.4357   -0.5382 C   0  0  0  0  0  0  0  0  0  0  0  0
   -5.5770    1.1106   -0.8049 C   0  0  0  0  0  0  0  0  0  0  0  0
   -5.8869    2.3820   -0.3699 C   0  0  0  0  0  0  0  0  0  0  0  0
   -4.9232    2.9964    0.4003 C   0  0  0  0  0  0  0  0  0  0  0  0
   -3.7300    2.3535    0.6958 C   0  0  0  0  0  0  0  0  0  0  0  0
   -3.4319    1.0987    0.2586 C   0  0  0  0  0  0  0  0  0  0  0  0
   -2.1760    0.4934    0.3880 N   0  0  0  0  0  0  0  0  0  0  0  0
   -1.1769    0.8089    1.3256 C   0  0  0  0  0  0  0  0  0  0  0  0
   -1.2379    1.6538    2.3462 N   0  0  0  0  0  0  0  0  0  0  0  0
   -0.1778    1.9725    3.1044 C   0  0  0  0  0  0  0  0  0  0  0  0
    1.0647    1.4286    2.8566 C   0  0  0  0  0  0  0  0  0  0  0  0
    2.4608    1.8265    3.8207 Cl  0  0  0  0  0  0  0  0  0  0  0  0
    1.1606    0.5373    1.7847 C   0  0  0  0  0  0  0  0  0  0  0  0
    2.4528    0.0697    1.4191 N   0  0  0  0  0  0  0  0  0  0  0  0
    2.7717   -0.8179    0.3752 C   0  0  0  0  0  0  0  0  0  0  0  0
    1.8760   -1.6893   -0.2412 C   0  0  0  0  0  0  0  0  0  0  0  0
    2.2277   -2.5381   -1.2712 C   0  0  0  0  0  0  0  0  0  0  0  0
    3.5268   -2.5278   -1.7135 C   0  0  0  0  0  0  0  0  0  0  0  0
    4.4455   -1.6588   -1.1021 C   0  0  0  0  0  0  0  0  0  0  0  0
    4.0857   -0.8257   -0.0877 C   0  0  0  0  0  0  0  0  0  0  0  0
    5.2851    0.2337    0.6122 S   0  0  0  0  0  0  0  0  0  0  0  0
    5.5509   -0.1708    2.0636 O   0  0  0  0  0  0  0  0  0  0  0  0
    4.8596    1.6534    0.6021 O   0  0  0  0  0  0  0  0  0  0  0  0
    6.8637    0.1141   -0.2075 C   0  0  0  0  0  0  0  0  0  0  0  0
    7.5980   -1.1099    0.2528 C   0  0  0  0  0  0  0  0  0  0  0  0
    7.7106    1.3036    0.3217 C   0  0  0  0  0  0  0  0  0  0  0  0
    0.0747    0.2716    1.0909 N   0  0  0  0  0  0  0  0  0  0  0  0
   -7.1722    3.0705   -0.7214 C   0  0  0  0  0  0  0  0  0  0  0  0
   -7.0374    3.4177   -2.0767 F   0  0  0  0  0  0  0  0  0  0  0  0
   -8.2778    2.3015   -0.4916 F   0  0  0  0  0  0  0  0  0  0  0  0
   -7.2315    4.2833   -0.0541 F   0  0  0  0  0  0  0  0  0  0  0  0
   -6.2280   -1.6630   -0.3589 H   0  0  0  0  0  0  0  0  0  0  0  0
   -6.2473   -3.1678   -1.3693 H   0  0  0  0  0  0  0  0  0  0  0  0
   -6.7612   -1.5535   -2.1316 H   0  0  0  0  0  0  0  0  0  0  0  0
   -4.6471   -1.3877   -2.7801 H   0  0  0  0  0  0  0  0  0  0  0  0
   -2.8840   -2.9084   -1.2121 H   0  0  0  0  0  0  0  0  0  0  0  0
   -4.4396   -3.7558   -0.9117 H   0  0  0  0  0  0  0  0  0  0  0  0
   -3.8002   -3.6344   -2.6294 H   0  0  0  0  0  0  0  0  0  0  0  0
   -6.3579    0.6269   -1.4170 H   0  0  0  0  0  0  0  0  0  0  0  0
   -5.0975    4.0011    0.7765 H   0  0  0  0  0  0  0  0  0  0  0  0
   -3.0035    2.9304    1.3099 H   0  0  0  0  0  0  0  0  0  0  0  0
   -1.9591   -0.2998   -0.3140 H   0  0  0  0  0  0  0  0  0  0  0  0
   -0.3125    2.6670    3.9269 H   0  0  0  0  0  0  0  0  0  0  0  0
    3.2482    0.4354    1.9938 H   0  0  0  0  0  0  0  0  0  0  0  0
    0.8671   -1.7409    0.0905 H   0  0  0  0  0  0  0  0  0  0  0  0
    1.5243   -3.1992   -1.7313 H   0  0  0  0  0  0  0  0  0  0  0  0
    3.8736   -3.1629   -2.5091 H   0  0  0  0  0  0  0  0  0  0  0  0
    5.4490   -1.6867   -1.4989 H   0  0  0  0  0  0  0  0  0  0  0  0
    6.7266    0.2411   -1.2796 H   0  0  0  0  0  0  0  0  0  0  0  0
    7.4198   -1.2065    1.3497 H   0  0  0  0  0  0  0  0  0  0  0  0
    8.7200   -0.9487    0.1404 H   0  0  0  0  0  0  0  0  0  0  0  0
    7.4129   -2.0245   -0.3076 H   0  0  0  0  0  0  0  0  0  0  0  0
    7.3965    1.4582    1.3470 H   0  0  0  0  0  0  0  0  0  0  0  0
    7.4770    2.2073   -0.2880 H   0  0  0  0  0  0  0  0  0  0  0  0
    8.7850    1.0195    0.2947 H   0  0  0  0  0  0  0  0  0  0  0  0
  1  2  1  0
  2  3  1  0
  2  4  1  0
  4  5  1  0
  5  6  2  0
  6  7  1  0
  7  8  2  0
  8  9  1  0
  9 10  2  0
 10 11  1  0
 11 12  1  0
 12 13  2  0
 13 14  1  0
 14 15  2  0
 15 16  1  0
 15 17  1  0
 17 18  1  0
 18 19  1  0
 19 20  2  0
 20 21  1  0
 21 22  2  0
 22 23  1  0
 23 24  2  0
 24 25  1  0
 25 26  2  0
 25 27  2  0
 25 28  1  0
 28 29  1  0
 28 30  1  0
 17 31  2  0
  7 32  1  0
 32 33  1  0
 32 34  1  0
 32 35  1  0
 10  5  1  0
 31 12  1  0
 24 19  1  0
  1 36  1  0
  1 37  1  0
  1 38  1  0
  2 39  1  0
  3 40  1  0
  3 41  1  0
  3 42  1  0
  6 43  1  0
  8 44  1  0
  9 45  1  0
 11 46  1  0
 14 47  1  0
 18 48  1  0
 20 49  1  0
 21 50  1  0
 22 51  1  0
 23 52  1  0
 28 53  1  0
 29 54  1  0
 29 55  1  0
 29 56  1  0
 30 57  1  0
 30 58  1  0
 30 59  1  0
M  END
$$$$
[H]c1nc(N([H])c2c([H])c([H])c(C#N)c([H])c2OC([H])([H])[H])nc(N([H])c2c([H])c([H])c([H])c([H])c2S(=O)(=O)C([H])(C([H])([H])[H])C([H])([H])[H])c1Cl
     RDKit          3D

 51 53  0  0  0  0  0  0  0  0999 V2000
    5.5145   -2.8048    1.2898 C   0  0  0  0  0  0  0  0  0  0  0  0
    4.6828   -1.7479    0.9224 O   0  0  0  0  0  0  0  0  0  0  0  0
    5.1130   -0.4378    0.7694 C   0  0  0  0  0  0  0  0  0  0  0  0
    6.4276   -0.1272    0.9842 C   0  0  0  0  0  0  0  0  0  0  0  0
    6.8704    1.1643    0.8373 C   0  0  0  0  0  0  0  0  0  0  0  0
    5.9682    2.1304    0.4721 C   0  0  0  0  0  0  0  0  0  0  0  0
    4.6168    1.7867    0.2558 C   0  0  0  0  0  0  0  0  0  0  0  0
    4.1421    0.5106    0.3933 C   0  0  0  0  0  0  0  0  0  0  0  0
    2.8178    0.1230    0.1908 N   0  0  0  0  0  0  0  0  0  0  0  0
    1.7095    0.9106   -0.1843 C   0  0  0  0  0  0  0  0  0  0  0  0
    1.7307    2.2189   -0.4219 N   0  0  0  0  0  0  0  0  0  0  0  0
    0.6762    2.9624   -0.7777 C   0  0  0  0  0  0  0  0  0  0  0  0
   -0.5407    2.2817   -0.9036 C   0  0  0  0  0  0  0  0  0  0  0  0
   -1.9709    3.1550   -1.3611 Cl  0  0  0  0  0  0  0  0  0  0  0  0
   -0.6430    0.9220   -0.6733 C   0  0  0  0  0  0  0  0  0  0  0  0
   -1.8872    0.3036   -0.8091 N   0  0  0  0  0  0  0  0  0  0  0  0
   -2.2862   -1.0373   -0.6487 C   0  0  0  0  0  0  0  0  0  0  0  0
   -1.4094   -2.0681   -0.4293 C   0  0  0  0  0  0  0  0  0  0  0  0
   -1.8209   -3.3814   -0.3106 C   0  0  0  0  0  0  0  0  0  0  0  0
   -3.1526   -3.6732   -0.4149 C   0  0  0  0  0  0  0  0  0  0  0  0
   -4.0382   -2.6389   -0.6352 C   0  0  0  0  0  0  0  0  0  0  0  0
   -3.6374   -1.3244   -0.7545 C   0  0  0  0  0  0  0  0  0  0  0  0
   -4.8880   -0.1471   -0.9900 S   0  0  0  0  0  0  0  0  0  0  0  0
   -4.7699    0.6469   -2.2445 O   0  0  0  0  0  0  0  0  0  0  0  0
   -6.2326   -0.8574   -1.0723 O   0  0  0  0  0  0  0  0  0  0  0  0
   -5.0366    0.9927    0.3566 C   0  0  0  0  0  0  0  0  0  0  0  0
   -6.1945    1.9474    0.1576 C   0  0  0  0  0  0  0  0  0  0  0  0
   -5.3367    0.2620    1.6679 C   0  0  0  0  0  0  0  0  0  0  0  0
    0.5001    0.3238   -0.3260 N   0  0  0  0  0  0  0  0  0  0  0  0
    8.2465    1.5101    1.0584 C   0  0  0  0  0  0  0  0  0  0  0  0
    9.3455    1.8059    1.2298 N   0  0  0  0  0  0  0  0  0  0  0  0
    6.0006   -3.3054    0.4279 H   0  0  0  0  0  0  0  0  0  0  0  0
    4.8700   -3.5698    1.7991 H   0  0  0  0  0  0  0  0  0  0  0  0
    6.3012   -2.5466    2.0135 H   0  0  0  0  0  0  0  0  0  0  0  0
    7.1739   -0.8574    1.2736 H   0  0  0  0  0  0  0  0  0  0  0  0
    6.3053    3.1545    0.3527 H   0  0  0  0  0  0  0  0  0  0  0  0
    3.9942    2.6020   -0.0236 H   0  0  0  0  0  0  0  0  0  0  0  0
    2.6244   -0.9279    0.3451 H   0  0  0  0  0  0  0  0  0  0  0  0
    0.7184    4.0265   -0.9658 H   0  0  0  0  0  0  0  0  0  0  0  0
   -2.6829    0.9563   -1.1019 H   0  0  0  0  0  0  0  0  0  0  0  0
   -0.3183   -1.8943   -0.3405 H   0  0  0  0  0  0  0  0  0  0  0  0
   -1.0599   -4.1367   -0.1372 H   0  0  0  0  0  0  0  0  0  0  0  0
   -3.4753   -4.7088   -0.3216 H   0  0  0  0  0  0  0  0  0  0  0  0
   -5.0972   -2.9302   -0.7110 H   0  0  0  0  0  0  0  0  0  0  0  0
   -4.1366    1.5874    0.5686 H   0  0  0  0  0  0  0  0  0  0  0  0
   -7.0790    1.3246   -0.1154 H   0  0  0  0  0  0  0  0  0  0  0  0
   -6.4260    2.3773    1.1577 H   0  0  0  0  0  0  0  0  0  0  0  0
   -5.9687    2.7281   -0.5912 H   0  0  0  0  0  0  0  0  0  0  0  0
   -5.7495    1.0318    2.3527 H   0  0  0  0  0  0  0  0  0  0  0  0
   -4.4082   -0.1079    2.1488 H   0  0  0  0  0  0  0  0  0  0  0  0
   -6.1034   -0.5161    1.5253 H   0  0  0  0  0  0  0  0  0  0  0  0
  1  2  1  0
  2  3  1  0
  3  4  2  0
  4  5  1  0
  5  6  2  0
  6  7  1  0
  7  8  2  0
  8  9  1  0
  9 10  1  0
 10 11  2  0
 11 12  1  0
 12 13  2  0
 13 14  1  0
 13 15  1  0
 15 16  1  0
 16 17  1  0
 17 18  2  0
 18 19  1  0
 19 20  2  0
 20 21  1  0
 21 22  2  0
 22 23  1  0
 23 24  2  0
 23 25  2  0
 23 26  1  0
 26 27  1  0
 26 28  1  0
 15 29  2  0
  5 30  1  0
 30 31  3  0
  8  3  1  0
 29 10  1  0
 22 17  1  0
  1 32  1  0
  1 33  1  0
  1 34  1  0
  4 35  1  0
  6 36  1  0
  7 37  1  0
  9 38  1  0
 12 39  1  0
 16 40  1  0
 18 41  1  0
 19 42  1  0
 20 43  1  0
 21 44  1  0
 26 45  1  0
 27 46  1  0
 27 47  1  0
 27 48  1  0
 28 49  1  0
 28 50  1  0
 28 51  1  0
M  END
$$$$
[H]c1nc(N([H])c2c([H])c([H])c(C#N)c([H])c2OC([H])(C([H])([H])[H])C([H])([H])[H])nc(N([H])c2c([H])c([H])c([H])c([H])c2S(=O)(=O)C([H])(C([H])([H])[H])C([H])([H])[H])c1Cl
     RDKit          3D

 57 59  0  0  0  0  0  0  0  0999 V2000
   -4.3380    2.4219   -3.0004 C   0  0  0  0  0  0  0  0  0  0  0  0
   -4.3394    0.9184   -3.3016 C   0  0  0  0  0  0  0  0  0  0  0  0
   -3.4426    0.7969   -4.5515 C   0  0  0  0  0  0  0  0  0  0  0  0
   -3.8092    0.1800   -2.2712 O   0  0  0  0  0  0  0  0  0  0  0  0
   -4.4614   -0.8349   -1.6181 C   0  0  0  0  0  0  0  0  0  0  0  0
   -5.7430   -1.2304   -1.9270 C   0  0  0  0  0  0  0  0  0  0  0  0
   -6.3474   -2.2602   -1.2327 C   0  0  0  0  0  0  0  0  0  0  0  0
   -5.6473   -2.8779   -0.2335 C   0  0  0  0  0  0  0  0  0  0  0  0
   -4.3387   -2.4839    0.0918 C   0  0  0  0  0  0  0  0  0  0  0  0
   -3.7112   -1.4655   -0.5785 C   0  0  0  0  0  0  0  0  0  0  0  0
   -2.4228   -1.0057   -0.3291 N   0  0  0  0  0  0  0  0  0  0  0  0
   -1.5034   -1.4665    0.6208 C   0  0  0  0  0  0  0  0  0  0  0  0
   -1.7204   -2.4656    1.4801 N   0  0  0  0  0  0  0  0  0  0  0  0
   -0.8296   -2.8906    2.3777 C   0  0  0  0  0  0  0  0  0  0  0  0
    0.4071   -2.2934    2.4633 C   0  0  0  0  0  0  0  0  0  0  0  0
    1.5801   -2.8501    3.6425 Cl  0  0  0  0  0  0  0  0  0  0  0  0
    0.6772   -1.2360    1.5759 C   0  0  0  0  0  0  0  0  0  0  0  0
    1.9489   -0.6363    1.6751 N   0  0  0  0  0  0  0  0  0  0  0  0
    2.4268    0.4296    0.8938 C   0  0  0  0  0  0  0  0  0  0  0  0
    1.7424    1.0870   -0.1048 C   0  0  0  0  0  0  0  0  0  0  0  0
    2.3290    2.1415   -0.8181 C   0  0  0  0  0  0  0  0  0  0  0  0
    3.6037    2.5620   -0.5537 C   0  0  0  0  0  0  0  0  0  0  0  0
    4.2916    1.9114    0.4400 C   0  0  0  0  0  0  0  0  0  0  0  0
    3.7366    0.8746    1.1532 C   0  0  0  0  0  0  0  0  0  0  0  0
    4.6821    0.1070    2.3765 S   0  0  0  0  0  0  0  0  0  0  0  0
    4.0015    0.2864    3.7071 O   0  0  0  0  0  0  0  0  0  0  0  0
    4.8867   -1.3549    2.1498 O   0  0  0  0  0  0  0  0  0  0  0  0
    6.2814    0.8943    2.5610 C   0  0  0  0  0  0  0  0  0  0  0  0
    7.0948    0.1428    3.6286 C   0  0  0  0  0  0  0  0  0  0  0  0
    6.0468    2.2726    3.1199 C   0  0  0  0  0  0  0  0  0  0  0  0
   -0.2748   -0.9008    0.7328 N   0  0  0  0  0  0  0  0  0  0  0  0
   -7.6830   -2.6308   -1.5962 C   0  0  0  0  0  0  0  0  0  0  0  0
   -8.7612   -2.9502   -1.8973 N   0  0  0  0  0  0  0  0  0  0  0  0
   -3.2755    2.7358   -3.0261 H   0  0  0  0  0  0  0  0  0  0  0  0
   -4.8780    2.9850   -3.7593 H   0  0  0  0  0  0  0  0  0  0  0  0
   -4.7166    2.5505   -1.9666 H   0  0  0  0  0  0  0  0  0  0  0  0
   -5.3414    0.6857   -3.6406 H   0  0  0  0  0  0  0  0  0  0  0  0
   -3.7595    1.6417   -5.2176 H   0  0  0  0  0  0  0  0  0  0  0  0
   -3.5375   -0.1847   -5.0178 H   0  0  0  0  0  0  0  0  0  0  0  0
   -2.4193    1.0494   -4.2098 H   0  0  0  0  0  0  0  0  0  0  0  0
   -6.3058   -0.7293   -2.7348 H   0  0  0  0  0  0  0  0  0  0  0  0
   -6.1292   -3.6798    0.3012 H   0  0  0  0  0  0  0  0  0  0  0  0
   -3.8619   -3.0226    0.8909 H   0  0  0  0  0  0  0  0  0  0  0  0
   -2.0651   -0.1949   -0.9279 H   0  0  0  0  0  0  0  0  0  0  0  0
   -1.0508   -3.7175    3.0664 H   0  0  0  0  0  0  0  0  0  0  0  0
    2.5694   -1.0688    2.4294 H   0  0  0  0  0  0  0  0  0  0  0  0
    0.7347    0.7958   -0.3531 H   0  0  0  0  0  0  0  0  0  0  0  0
    1.7320    2.6129   -1.5899 H   0  0  0  0  0  0  0  0  0  0  0  0
    4.0672    3.3902   -1.1124 H   0  0  0  0  0  0  0  0  0  0  0  0
    5.2976    2.2558    0.6242 H   0  0  0  0  0  0  0  0  0  0  0  0
    6.8536    0.9196    1.6406 H   0  0  0  0  0  0  0  0  0  0  0  0
    7.3427    0.7962    4.4810 H   0  0  0  0  0  0  0  0  0  0  0  0
    8.0195   -0.2378    3.1480 H   0  0  0  0  0  0  0  0  0  0  0  0
    6.5095   -0.7446    3.9206 H   0  0  0  0  0  0  0  0  0  0  0  0
    6.2672    2.3435    4.1959 H   0  0  0  0  0  0  0  0  0  0  0  0
    4.9667    2.5703    2.9988 H   0  0  0  0  0  0  0  0  0  0  0  0
    6.6174    3.0546    2.5531 H   0  0  0  0  0  0  0  0  0  0  0  0
  1  2  1  0
  2  3  1  0
  2  4  1  0
  4  5  1  0
  5  6  2  0
  6  7  1  0
  7  8  2  0
  8  9  1  0
  9 10  2  0
 10 11  1  0
 11 12  1  0
 12 13  2  0
 13 14  1  0
 14 15  2  0
 15 16  1  0
 15 17  1  0
 17 18  1  0
 18 19  1  0
 19 20  2  0
 20 21  1  0
 21 22  2  0
 22 23  1  0
 23 24  2  0
 24 25  1  0
 25 26  2  0
 25 27  2  0
 25 28  1  0
 28 29  1  0
 28 30  1  0
 17 31  2  0
  7 32  1  0
 32 33  3  0
 10  5  1  0
 31 12  1  0
 24 19  1  0
  1 34  1  0
  1 35  1  0
  1 36  1  0
  2 37  1  0
  3 38  1  0
  3 39  1  0
  3 40  1  0
  6 41  1  0
  8 42  1  0
  9 43  1  0
 11 44  1  0
 14 45  1  0
 18 46  1  0
 20 47  1  0
 21 48  1  0
 22 49  1  0
 23 50  1  0
 28 51  1  0
 29 52  1  0
 29 53  1  0
 29 54  1  0
 30 55  1  0
 30 56  1  0
 30 57  1  0
M  END
$$$$
[H]c1nc(N([H])c2c([H])c([H])c(N3C([H])([H])C([H])([H])C([H])(N4C([H])([H])C([H])([H])C([H])([H])C([H])([H])C4([H])[H])C([H])([H])C3([H])[H])c([H])c2OC([H])([H])[H])nc(N([H])c2c([H])c([H])c([H])c([H])c2S(=O)(=O)C([H])(C([H])([H])[H])C([H])([H])[H])c1Cl
     RDKit          3D

 80 84  0  0  0  0  0  0  0  0999 V2000
    0.6013    3.2247   -1.7319 C   0  0  0  0  0  0  0  0  0  0  0  0
   -0.1703    2.1434   -1.2168 O   0  0  0  0  0  0  0  0  0  0  0  0
    0.4716    1.0979   -0.5363 C   0  0  0  0  0  0  0  0  0  0  0  0
    1.8317    1.1416   -0.3822 C   0  0  0  0  0  0  0  0  0  0  0  0
    2.4759    0.1361    0.2756 C   0  0  0  0  0  0  0  0  0  0  0  0
    1.7236   -0.9023    0.7694 C   0  0  0  0  0  0  0  0  0  0  0  0
    0.3423   -0.9295    0.6031 C   0  0  0  0  0  0  0  0  0  0  0  0
   -0.3385    0.0691   -0.0573 C   0  0  0  0  0  0  0  0  0  0  0  0
   -1.7239    0.1236   -0.2735 N   0  0  0  0  0  0  0  0  0  0  0  0
   -2.6985   -0.8425    0.0627 C   0  0  0  0  0  0  0  0  0  0  0  0
   -2.4949   -2.0067    0.6583 N   0  0  0  0  0  0  0  0  0  0  0  0
   -3.5059   -2.8405    0.8915 C   0  0  0  0  0  0  0  0  0  0  0  0
   -4.8046   -2.5651    0.5417 C   0  0  0  0  0  0  0  0  0  0  0  0
   -6.1108   -3.6867    0.8595 Cl  0  0  0  0  0  0  0  0  0  0  0  0
   -5.0484   -1.3249   -0.0961 C   0  0  0  0  0  0  0  0  0  0  0  0
   -6.3685   -1.0114   -0.4714 N   0  0  0  0  0  0  0  0  0  0  0  0
   -6.8022    0.1565   -1.1088 C   0  0  0  0  0  0  0  0  0  0  0  0
   -5.9491    1.0828   -1.6893 C   0  0  0  0  0  0  0  0  0  0  0  0
   -6.3900    2.1983   -2.4109 C   0  0  0  0  0  0  0  0  0  0  0  0
   -7.7335    2.3953   -2.5575 C   0  0  0  0  0  0  0  0  0  0  0  0
   -8.5936    1.4953   -1.9910 C   0  0  0  0  0  0  0  0  0  0  0  0
   -8.1816    0.3629   -1.2577 C   0  0  0  0  0  0  0  0  0  0  0  0
   -9.3740   -0.6276   -0.5141 S   0  0  0  0  0  0  0  0  0  0  0  0
  -10.7237   -0.2577   -1.1916 O   0  0  0  0  0  0  0  0  0  0  0  0
   -9.2561   -2.1069   -0.8840 O   0  0  0  0  0  0  0  0  0  0  0  0
   -9.6494   -0.3712    1.1908 C   0  0  0  0  0  0  0  0  0  0  0  0
   -8.4334   -0.4229    2.0221 C   0  0  0  0  0  0  0  0  0  0  0  0
  -10.3964    0.9743    1.3961 C   0  0  0  0  0  0  0  0  0  0  0  0
   -3.9714   -0.5703   -0.2798 N   0  0  0  0  0  0  0  0  0  0  0  0
    3.9226    0.1616    0.4309 N   0  0  0  0  0  0  0  0  0  0  0  0
    4.4480   -0.7731    1.3637 C   0  0  0  0  0  0  0  0  0  0  0  0
    5.9195   -0.5967    1.5235 C   0  0  0  0  0  0  0  0  0  0  0  0
    6.5963   -0.4499    0.1589 C   0  0  0  0  0  0  0  0  0  0  0  0
    6.1843    0.8778   -0.3697 C   0  0  0  0  0  0  0  0  0  0  0  0
    4.7084    1.0728   -0.3306 C   0  0  0  0  0  0  0  0  0  0  0  0
    7.9829   -0.6311    0.3103 N   0  0  0  0  0  0  0  0  0  0  0  0
    8.4779   -1.8796    0.7468 C   0  0  0  0  0  0  0  0  0  0  0  0
    9.4768   -1.5829    1.8770 C   0  0  0  0  0  0  0  0  0  0  0  0
   10.1723   -0.2767    1.5357 C   0  0  0  0  0  0  0  0  0  0  0  0
   10.2603   -0.0404    0.0409 C   0  0  0  0  0  0  0  0  0  0  0  0
    8.8534    0.0879   -0.5662 C   0  0  0  0  0  0  0  0  0  0  0  0
    1.4356    2.8184   -2.3761 H   0  0  0  0  0  0  0  0  0  0  0  0
   -0.0267    3.8893   -2.3265 H   0  0  0  0  0  0  0  0  0  0  0  0
    1.0819    3.6972   -0.8521 H   0  0  0  0  0  0  0  0  0  0  0  0
    2.4137    1.9627   -0.7759 H   0  0  0  0  0  0  0  0  0  0  0  0
    2.2232   -1.7257    1.3036 H   0  0  0  0  0  0  0  0  0  0  0  0
   -0.1658   -1.7773    1.0259 H   0  0  0  0  0  0  0  0  0  0  0  0
   -2.0674    1.0225   -0.7512 H   0  0  0  0  0  0  0  0  0  0  0  0
   -3.3537   -3.8121    1.3855 H   0  0  0  0  0  0  0  0  0  0  0  0
   -7.0711   -1.7919   -0.2514 H   0  0  0  0  0  0  0  0  0  0  0  0
   -4.8765    0.9774   -1.6198 H   0  0  0  0  0  0  0  0  0  0  0  0
   -5.6613    2.8759   -2.8345 H   0  0  0  0  0  0  0  0  0  0  0  0
   -8.0840    3.2536   -3.1153 H   0  0  0  0  0  0  0  0  0  0  0  0
   -9.6741    1.6641   -2.1153 H   0  0  0  0  0  0  0  0  0  0  0  0
  -10.4053   -1.1075    1.6127 H   0  0  0  0  0  0  0  0  0  0  0  0
   -7.9976   -1.4290    2.0169 H   0  0  0  0  0  0  0  0  0  0  0  0
   -8.7480   -0.2405    3.0980 H   0  0  0  0  0  0  0  0  0  0  0  0
   -7.6961    0.3805    1.8033 H   0  0  0  0  0  0  0  0  0  0  0  0
  -11.4588    0.8727    1.1040 H   0  0  0  0  0  0  0  0  0  0  0  0
  -10.3343    1.2032    2.4601 H   0  0  0  0  0  0  0  0  0  0  0  0
   -9.9581    1.7377    0.7281 H   0  0  0  0  0  0  0  0  0  0  0  0
    3.9834   -0.6899    2.3752 H   0  0  0  0  0  0  0  0  0  0  0  0
    4.2845   -1.8036    0.9591 H   0  0  0  0  0  0  0  0  0  0  0  0
    6.3932   -1.4533    2.0291 H   0  0  0  0  0  0  0  0  0  0  0  0
    6.1856    0.3487    2.0709 H   0  0  0  0  0  0  0  0  0  0  0  0
    6.1034   -1.2402   -0.4831 H   0  0  0  0  0  0  0  0  0  0  0  0
    6.5817    1.0701   -1.3957 H   0  0  0  0  0  0  0  0  0  0  0  0
    6.6592    1.6515    0.2890 H   0  0  0  0  0  0  0  0  0  0  0  0
    4.2809    1.1505   -1.3782 H   0  0  0  0  0  0  0  0  0  0  0  0
    4.4611    2.1089    0.0863 H   0  0  0  0  0  0  0  0  0  0  0  0
    9.0771   -2.4059   -0.0426 H   0  0  0  0  0  0  0  0  0  0  0  0
    7.6906   -2.5655    1.0422 H   0  0  0  0  0  0  0  0  0  0  0  0
    8.8760   -1.4814    2.7991 H   0  0  0  0  0  0  0  0  0  0  0  0
   10.1889   -2.4073    2.0280 H   0  0  0  0  0  0  0  0  0  0  0  0
    9.5286    0.5385    1.9476 H   0  0  0  0  0  0  0  0  0  0  0  0
   11.1971   -0.2469    1.9436 H   0  0  0  0  0  0  0  0  0  0  0  0
   10.8182   -0.8682   -0.4032 H   0  0  0  0  0  0  0  0  0  0  0  0
   10.8333    0.9179   -0.0753 H   0  0  0  0  0  0  0  0  0  0  0  0
    8.9256   -0.3562   -1.5800 H   0  0  0  0  0  0  0  0  0  0  0  0
    8.6260    1.1557   -0.5846 H   0  0  0  0  0  0  0  0  0  0  0  0
  1  2  1  0
  2  3  1  0
  3  4  2  0
  4  5  1  0
  5  6  2  0
  6  7  1  0
  7  8  2  0
  8  9  1  0
  9 10  1  0
 10 11  2  0
 11 12  1  0
 12 13  2  0
 13 14  1  0
 13 15  1  0
 15 16  1  0
 16 17  1  0
 17 18  2  0
 18 19  1  0
 19 20  2  0
 20 21  1  0
 21 22  2  0
 22 23  1  0
 23 24  2  0
 23 25  2  0
 23 26  1  0
 26 27  1  0
 26 28  1  0
 15 29  2  0
  5 30  1  0
 30 31  1  0
 31 32  1  0
 32 33  1  0
 33 34  1  0
 34 35  1  0
 33 36  1  0
 36 37  1  0
 37 38  1  0
 38 39  1  0
 39 40  1  0
 40 41  1  0
  8  3  1  0
 29 10  1  0
 35 30  1  0
 41 36  1  0
 22 17  1  0
  1 42  1  0
  1 43  1  0
  1 44  1  0
  4 45  1  0
  6 46  1  0
  7 47  1  0
  9 48  1  0
 12 49  1  0
 16 50  1  0
 18 51  1  0
 19 52  1  0
 20 53  1  0
 21 54  1  0
 26 55  1  0
 27 56  1  0
 27 57  1  0
 27 58  1  0
 28 59  1  0
 28 60  1  0
 28 61  1  0
 31 62  1  0
 31 63  1  0
 32 64  1  0
 32 65  1  0
 33 66  1  0
 34 67  1  0
 34 68  1  0
 35 69  1  0
 35 70  1  0
 37 71  1  0
 37 72  1  0
 38 73  1  0
 38 74  1  0
 39 75  1  0
 39 76  1  0
 40 77  1  0
 40 78  1  0
 41 79  1  0
 41 80  1  0
M  END
$$$$
[H]c1nc(N([H])c2c([H])c([H])c(N3C([H])([H])C([H])([H])C([H])(N(C([H])([H])[H])C([H])([H])[H])C([H])([H])C3([H])[H])c([H])c2OC([H])([H])[H])nc(N([H])c2c([H])c([H])c([H])c([H])c2S(=O)(=O)C([H])(C([H])([H])[H])C([H])([H])[H])c1Cl
     RDKit          3D

 73 76  0  0  0  0  0  0  0  0999 V2000
   -1.4887   -3.5880    1.2680 C   0  0  0  0  0  0  0  0  0  0  0  0
   -0.7608   -2.5452    0.6863 O   0  0  0  0  0  0  0  0  0  0  0  0
   -1.4161   -1.4468    0.1649 C   0  0  0  0  0  0  0  0  0  0  0  0
   -2.7697   -1.3138    0.1835 C   0  0  0  0  0  0  0  0  0  0  0  0
   -3.4310   -0.2298   -0.3300 C   0  0  0  0  0  0  0  0  0  0  0  0
   -2.6699    0.7643   -0.8887 C   0  0  0  0  0  0  0  0  0  0  0  0
   -1.2837    0.6857   -0.9374 C   0  0  0  0  0  0  0  0  0  0  0  0
   -0.6456   -0.4090   -0.4169 C   0  0  0  0  0  0  0  0  0  0  0  0
    0.7306   -0.5530   -0.4331 N   0  0  0  0  0  0  0  0  0  0  0  0
    1.7028    0.3458   -0.9492 C   0  0  0  0  0  0  0  0  0  0  0  0
    1.4800    1.5214   -1.5269 N   0  0  0  0  0  0  0  0  0  0  0  0
    2.4593    2.3096   -1.9876 C   0  0  0  0  0  0  0  0  0  0  0  0
    3.7698    1.9304   -1.8818 C   0  0  0  0  0  0  0  0  0  0  0  0
    5.0878    2.9156   -2.4745 Cl  0  0  0  0  0  0  0  0  0  0  0  0
    4.0678    0.6884   -1.2753 C   0  0  0  0  0  0  0  0  0  0  0  0
    5.4172    0.3014   -1.1217 N   0  0  0  0  0  0  0  0  0  0  0  0
    5.8705   -0.9049   -0.5954 C   0  0  0  0  0  0  0  0  0  0  0  0
    5.0906   -2.0601   -0.5353 C   0  0  0  0  0  0  0  0  0  0  0  0
    5.6105   -3.2759   -0.1172 C   0  0  0  0  0  0  0  0  0  0  0  0
    6.9209   -3.3878    0.2545 C   0  0  0  0  0  0  0  0  0  0  0  0
    7.6858   -2.2549    0.1966 C   0  0  0  0  0  0  0  0  0  0  0  0
    7.2100   -1.0030   -0.2158 C   0  0  0  0  0  0  0  0  0  0  0  0
    8.2797    0.3289   -0.1092 S   0  0  0  0  0  0  0  0  0  0  0  0
    9.7039   -0.2341    0.1061 O   0  0  0  0  0  0  0  0  0  0  0  0
    8.4312    1.1263   -1.3815 O   0  0  0  0  0  0  0  0  0  0  0  0
    8.0255    1.4139    1.2573 C   0  0  0  0  0  0  0  0  0  0  0  0
    9.1794    2.4149    1.3719 C   0  0  0  0  0  0  0  0  0  0  0  0
    6.7769    2.1937    1.2396 C   0  0  0  0  0  0  0  0  0  0  0  0
    3.0226    0.0056   -0.8635 N   0  0  0  0  0  0  0  0  0  0  0  0
   -4.8624   -0.0923   -0.3072 N   0  0  0  0  0  0  0  0  0  0  0  0
   -5.5849   -1.1673    0.3276 C   0  0  0  0  0  0  0  0  0  0  0  0
   -7.0407   -0.9434    0.5155 C   0  0  0  0  0  0  0  0  0  0  0  0
   -7.4356    0.4949    0.3818 C   0  0  0  0  0  0  0  0  0  0  0  0
   -6.9640    0.9951   -0.9680 C   0  0  0  0  0  0  0  0  0  0  0  0
   -5.4597    1.0612   -0.8960 C   0  0  0  0  0  0  0  0  0  0  0  0
   -8.8564    0.6589    0.5708 N   0  0  0  0  0  0  0  0  0  0  0  0
   -9.2782    2.0230    0.4605 C   0  0  0  0  0  0  0  0  0  0  0  0
   -9.6390   -0.2430   -0.2416 C   0  0  0  0  0  0  0  0  0  0  0  0
   -0.7931   -4.1921    1.9054 H   0  0  0  0  0  0  0  0  0  0  0  0
   -1.9544   -4.2113    0.4616 H   0  0  0  0  0  0  0  0  0  0  0  0
   -2.2604   -3.2007    1.9817 H   0  0  0  0  0  0  0  0  0  0  0  0
   -3.3514   -2.1246    0.6360 H   0  0  0  0  0  0  0  0  0  0  0  0
   -3.1295    1.6488   -1.3125 H   0  0  0  0  0  0  0  0  0  0  0  0
   -0.7832    1.5103   -1.3929 H   0  0  0  0  0  0  0  0  0  0  0  0
    1.1068   -1.4691    0.0044 H   0  0  0  0  0  0  0  0  0  0  0  0
    2.2213    3.2667   -2.4541 H   0  0  0  0  0  0  0  0  0  0  0  0
    6.1140    0.9939   -1.4647 H   0  0  0  0  0  0  0  0  0  0  0  0
    4.0603   -2.0188   -0.8381 H   0  0  0  0  0  0  0  0  0  0  0  0
    4.9515   -4.1295   -0.0940 H   0  0  0  0  0  0  0  0  0  0  0  0
    7.3564   -4.3431    0.5885 H   0  0  0  0  0  0  0  0  0  0  0  0
    8.7315   -2.3610    0.4975 H   0  0  0  0  0  0  0  0  0  0  0  0
    8.1309    0.7711    2.1790 H   0  0  0  0  0  0  0  0  0  0  0  0
    9.2341    2.9999    0.4280 H   0  0  0  0  0  0  0  0  0  0  0  0
    8.8903    3.1190    2.1704 H   0  0  0  0  0  0  0  0  0  0  0  0
   10.1385    1.9091    1.5465 H   0  0  0  0  0  0  0  0  0  0  0  0
    6.6586    2.6546    0.2401 H   0  0  0  0  0  0  0  0  0  0  0  0
    5.9200    1.5461    1.5414 H   0  0  0  0  0  0  0  0  0  0  0  0
    6.8570    3.0425    1.9945 H   0  0  0  0  0  0  0  0  0  0  0  0
   -5.4057   -2.0834   -0.2985 H   0  0  0  0  0  0  0  0  0  0  0  0
   -5.1129   -1.3839    1.3330 H   0  0  0  0  0  0  0  0  0  0  0  0
   -7.3369   -1.2598    1.5530 H   0  0  0  0  0  0  0  0  0  0  0  0
   -7.5857   -1.5404   -0.2484 H   0  0  0  0  0  0  0  0  0  0  0  0
   -6.9204    1.0822    1.1579 H   0  0  0  0  0  0  0  0  0  0  0  0
   -7.3716    2.0047   -1.1693 H   0  0  0  0  0  0  0  0  0  0  0  0
   -7.2424    0.3151   -1.7855 H   0  0  0  0  0  0  0  0  0  0  0  0
   -5.0229    1.2094   -1.9181 H   0  0  0  0  0  0  0  0  0  0  0  0
   -5.2243    1.9555   -0.2465 H   0  0  0  0  0  0  0  0  0  0  0  0
   -9.3583    2.3936   -0.5797 H   0  0  0  0  0  0  0  0  0  0  0  0
   -8.5425    2.6556    1.0032 H   0  0  0  0  0  0  0  0  0  0  0  0
  -10.3018    2.1167    0.9062 H   0  0  0  0  0  0  0  0  0  0  0  0
  -10.5738    0.3178   -0.5167 H   0  0  0  0  0  0  0  0  0  0  0  0
   -9.1485   -0.5590   -1.1630 H   0  0  0  0  0  0  0  0  0  0  0  0
   -9.8879   -1.1629    0.3397 H   0  0  0  0  0  0  0  0  0  0  0  0
  1  2  1  0
  2  3  1  0
  3  4  2  0
  4  5  1  0
  5  6  2  0
  6  7  1  0
  7  8  2  0
  8  9  1  0
  9 10  1  0
 10 11  2  0
 11 12  1  0
 12 13  2  0
 13 14  1  0
 13 15  1  0
 15 16  1  0
 16 17  1  0
 17 18  2  0
 18 19  1  0
 19 20  2  0
 20 21  1  0
 21 22  2  0
 22 23  1  0
 23 24  2  0
 23 25  2  0
 23 26  1  0
 26 27  1  0
 26 28  1  0
 15 29  2  0
  5 30  1  0
 30 31  1  0
 31 32  1  0
 32 33  1  0
 33 34  1  0
 34 35  1  0
 33 36  1  0
 36 37  1  0
 36 38  1  0
  8  3  1  0
 29 10  1  0
 35 30  1  0
 22 17  1  0
  1 39  1  0
  1 40  1  0
  1 41  1  0
  4 42  1  0
  6 43  1  0
  7 44  1  0
  9 45  1  0
 12 46  1  0
 16 47  1  0
 18 48  1  0
 19 49  1  0
 20 50  1  0
 21 51  1  0
 26 52  1  0
 27 53  1  0
 27 54  1  0
 27 55  1  0
 28 56  1  0
 28 57  1  0
 28 58  1  0
 31 59  1  0
 31 60  1  0
 32 61  1  0
 32 62  1  0
 33 63  1  0
 34 64  1  0
 34 65  1  0
 35 66  1  0
 35 67  1  0
 37 68  1  0
 37 69  1  0
 37 70  1  0
 38 71  1  0
 38 72  1  0
 38 73  1  0
M  END
$$$$
[H]c1nc(N([H])c2c([H])c([H])c(N3C([H])([H])C([H])([H])C([H])(N([H])[H])C([H])([H])C3([H])[H])c([H])c2OC([H])([H])[H])nc(N([H])c2c([H])c([H])c([H])c([H])c2S(=O)(=O)C([H])(C([H])([H])[H])C([H])([H])[H])c1Cl
     RDKit          3D

 67 70  0  0  0  0  0  0  0  0999 V2000
    2.4408   -3.2720   -1.5746 C   0  0  0  0  0  0  0  0  0  0  0  0
    1.7513   -2.1932   -1.0092 O   0  0  0  0  0  0  0  0  0  0  0  0
    2.3645   -0.9536   -0.7372 C   0  0  0  0  0  0  0  0  0  0  0  0
    3.6986   -0.7677   -1.0294 C   0  0  0  0  0  0  0  0  0  0  0  0
    4.3153    0.4330   -0.7723 C   0  0  0  0  0  0  0  0  0  0  0  0
    3.5392    1.4174   -0.2180 C   0  0  0  0  0  0  0  0  0  0  0  0
    2.1823    1.2310    0.0800 C   0  0  0  0  0  0  0  0  0  0  0  0
    1.5549    0.0323   -0.1734 C   0  0  0  0  0  0  0  0  0  0  0  0
    0.1987   -0.2508    0.0871 N   0  0  0  0  0  0  0  0  0  0  0  0
   -0.7797    0.5616    0.6540 C   0  0  0  0  0  0  0  0  0  0  0  0
   -0.6319    1.8137    1.0836 N   0  0  0  0  0  0  0  0  0  0  0  0
   -1.6195    2.5325    1.6181 C   0  0  0  0  0  0  0  0  0  0  0  0
   -2.8704    2.0030    1.7556 C   0  0  0  0  0  0  0  0  0  0  0  0
   -4.2009    2.9084    2.4605 Cl  0  0  0  0  0  0  0  0  0  0  0  0
   -3.0748    0.6755    1.3127 C   0  0  0  0  0  0  0  0  0  0  0  0
   -4.3777    0.1497    1.4193 N   0  0  0  0  0  0  0  0  0  0  0  0
   -4.7764   -1.1510    1.0838 C   0  0  0  0  0  0  0  0  0  0  0  0
   -3.8630   -2.1880    1.0457 C   0  0  0  0  0  0  0  0  0  0  0  0
   -4.2825   -3.4907    0.8349 C   0  0  0  0  0  0  0  0  0  0  0  0
   -5.6030   -3.8121    0.6572 C   0  0  0  0  0  0  0  0  0  0  0  0
   -6.4965   -2.7799    0.6958 C   0  0  0  0  0  0  0  0  0  0  0  0
   -6.1207   -1.4488    0.9035 C   0  0  0  0  0  0  0  0  0  0  0  0
   -7.3918   -0.2703    0.7991 S   0  0  0  0  0  0  0  0  0  0  0  0
   -8.7409   -1.0063    0.8577 O   0  0  0  0  0  0  0  0  0  0  0  0
   -7.4459    0.6284    2.0205 O   0  0  0  0  0  0  0  0  0  0  0  0
   -7.4188    0.6440   -0.6915 C   0  0  0  0  0  0  0  0  0  0  0  0
   -8.7199    1.4633   -0.7934 C   0  0  0  0  0  0  0  0  0  0  0  0
   -6.2863    1.5808   -0.8628 C   0  0  0  0  0  0  0  0  0  0  0  0
   -2.0267    0.0514    0.7975 N   0  0  0  0  0  0  0  0  0  0  0  0
    5.6948    0.6316   -1.0582 N   0  0  0  0  0  0  0  0  0  0  0  0
    6.5762   -0.5092   -1.3559 C   0  0  0  0  0  0  0  0  0  0  0  0
    7.9774   -0.2035   -0.8754 C   0  0  0  0  0  0  0  0  0  0  0  0
    8.0137    0.7097    0.3261 C   0  0  0  0  0  0  0  0  0  0  0  0
    9.4068    0.9860    0.6187 N   0  0  0  0  0  0  0  0  0  0  0  0
    7.3316    2.0324    0.0532 C   0  0  0  0  0  0  0  0  0  0  0  0
    6.3520    1.9170   -1.0962 C   0  0  0  0  0  0  0  0  0  0  0  0
    1.7911   -4.1761   -1.4642 H   0  0  0  0  0  0  0  0  0  0  0  0
    3.3382   -3.4750   -0.9618 H   0  0  0  0  0  0  0  0  0  0  0  0
    2.6848   -3.1280   -2.6371 H   0  0  0  0  0  0  0  0  0  0  0  0
    4.2502   -1.6048   -1.4750 H   0  0  0  0  0  0  0  0  0  0  0  0
    4.0139    2.3751   -0.0048 H   0  0  0  0  0  0  0  0  0  0  0  0
    1.6512    2.0549    0.5113 H   0  0  0  0  0  0  0  0  0  0  0  0
   -0.1135   -1.2424   -0.1994 H   0  0  0  0  0  0  0  0  0  0  0  0
   -1.4576    3.5664    1.9619 H   0  0  0  0  0  0  0  0  0  0  0  0
   -5.1521    0.7750    1.8199 H   0  0  0  0  0  0  0  0  0  0  0  0
   -2.8015   -2.0631    1.1927 H   0  0  0  0  0  0  0  0  0  0  0  0
   -3.5285   -4.2951    0.8085 H   0  0  0  0  0  0  0  0  0  0  0  0
   -5.9255   -4.8504    0.4917 H   0  0  0  0  0  0  0  0  0  0  0  0
   -7.5414   -3.0575    0.5520 H   0  0  0  0  0  0  0  0  0  0  0  0
   -7.5166   -0.0767   -1.5495 H   0  0  0  0  0  0  0  0  0  0  0  0
   -8.6164    2.0238   -1.7621 H   0  0  0  0  0  0  0  0  0  0  0  0
   -8.7110    2.1996    0.0127 H   0  0  0  0  0  0  0  0  0  0  0  0
   -9.6034    0.8193   -0.8474 H   0  0  0  0  0  0  0  0  0  0  0  0
   -5.3898    1.0151   -1.2495 H   0  0  0  0  0  0  0  0  0  0  0  0
   -6.0750    2.1847    0.0307 H   0  0  0  0  0  0  0  0  0  0  0  0
   -6.5594    2.3674   -1.6487 H   0  0  0  0  0  0  0  0  0  0  0  0
    6.6145   -0.5814   -2.4603 H   0  0  0  0  0  0  0  0  0  0  0  0
    6.1666   -1.4213   -0.8932 H   0  0  0  0  0  0  0  0  0  0  0  0
    8.4025   -1.1872   -0.5206 H   0  0  0  0  0  0  0  0  0  0  0  0
    8.6577    0.1525   -1.6670 H   0  0  0  0  0  0  0  0  0  0  0  0
    7.5903    0.2023    1.2194 H   0  0  0  0  0  0  0  0  0  0  0  0
    9.9392    1.2435   -0.2530 H   0  0  0  0  0  0  0  0  0  0  0  0
    9.8621    0.2532    1.1783 H   0  0  0  0  0  0  0  0  0  0  0  0
    8.0552    2.8320   -0.1457 H   0  0  0  0  0  0  0  0  0  0  0  0
    6.7389    2.2867    0.9561 H   0  0  0  0  0  0  0  0  0  0  0  0
    5.6154    2.7149   -1.1540 H   0  0  0  0  0  0  0  0  0  0  0  0
    6.9495    1.9868   -2.0476 H   0  0  0  0  0  0  0  0  0  0  0  0
  1  2  1  0
  2  3  1  0
  3  4  2  0
  4  5  1  0
  5  6  2  0
  6  7  1  0
  7  8  2  0
  8  9  1  0
  9 10  1  0
 10 11  2  0
 11 12  1  0
 12 13  2  0
 13 14  1  0
 13 15  1  0
 15 16  1  0
 16 17  1  0
 17 18  2  0
 18 19  1  0
 19 20  2  0
 20 21  1  0
 21 22  2  0
 22 23  1  0
 23 24  2  0
 23 25  2  0
 23 26  1  0
 26 27  1  0
 26 28  1  0
 15 29  2  0
  5 30  1  0
 30 31  1  0
 31 32  1  0
 32 33  1  0
 33 34  1  0
 33 35  1  0
 35 36  1  0
  8  3  1  0
 29 10  1  0
 36 30  1  0
 22 17  1  0
  1 37  1  0
  1 38  1  0
  1 39  1  0
  4 40  1  0
  6 41  1  0
  7 42  1  0
  9 43  1  0
 12 44  1  0
 16 45  1  0
 18 46  1  0
 19 47  1  0
 20 48  1  0
 21 49  1  0
 26 50  1  0
 27 51  1  0
 27 52  1  0
 27 53  1  0
 28 54  1  0
 28 55  1  0
 28 56  1  0
 31 57  1  0
 31 58  1  0
 32 59  1  0
 32 60  1  0
 33 61  1  0
 34 62  1  0
 34 63  1  0
 35 64  1  0
 35 65  1  0
 36 66  1  0
 36 67  1  0
M  END
$$$$
[H]c1nc(N([H])c2c([H])c([H])c(C(=O)N([H])[H])c([H])c2OC([H])([H])[H])nc(N([H])c2c([H])c([H])c([H])c([H])c2S(=O)(=O)C([H])(C([H])([H])[H])C([H])([H])[H])c1Cl
     RDKit          3D

 54 56  0  0  0  0  0  0  0  0999 V2000
    4.9414   -3.5790   -0.2693 C   0  0  0  0  0  0  0  0  0  0  0  0
    4.1764   -2.4127   -0.1875 O   0  0  0  0  0  0  0  0  0  0  0  0
    4.7993   -1.1880   -0.0887 C   0  0  0  0  0  0  0  0  0  0  0  0
    6.1593   -1.1185   -0.0711 C   0  0  0  0  0  0  0  0  0  0  0  0
    6.8308    0.0866    0.0266 C   0  0  0  0  0  0  0  0  0  0  0  0
    6.0718    1.2217    0.1060 C   0  0  0  0  0  0  0  0  0  0  0  0
    4.6701    1.1553    0.0883 C   0  0  0  0  0  0  0  0  0  0  0  0
    3.9894   -0.0369   -0.0085 C   0  0  0  0  0  0  0  0  0  0  0  0
    2.6101   -0.2173   -0.0346 N   0  0  0  0  0  0  0  0  0  0  0  0
    1.6131    0.7529    0.0302 C   0  0  0  0  0  0  0  0  0  0  0  0
    1.8790    2.0564    0.1316 N   0  0  0  0  0  0  0  0  0  0  0  0
    0.9092    2.9769    0.1929 C   0  0  0  0  0  0  0  0  0  0  0  0
   -0.4122    2.5934    0.1519 C   0  0  0  0  0  0  0  0  0  0  0  0
   -1.6905    3.8135    0.2332 Cl  0  0  0  0  0  0  0  0  0  0  0  0
   -0.7340    1.2299    0.0453 C   0  0  0  0  0  0  0  0  0  0  0  0
   -2.1016    0.9047    0.0096 N   0  0  0  0  0  0  0  0  0  0  0  0
   -2.7128   -0.3581   -0.0928 C   0  0  0  0  0  0  0  0  0  0  0  0
   -2.0404   -1.5576   -0.2010 C   0  0  0  0  0  0  0  0  0  0  0  0
   -2.7240   -2.7694   -0.3033 C   0  0  0  0  0  0  0  0  0  0  0  0
   -4.0878   -2.8321   -0.3022 C   0  0  0  0  0  0  0  0  0  0  0  0
   -4.7771   -1.6539   -0.1961 C   0  0  0  0  0  0  0  0  0  0  0  0
   -4.1161   -0.4353   -0.0924 C   0  0  0  0  0  0  0  0  0  0  0  0
   -5.0597    1.0192    0.0194 S   0  0  0  0  0  0  0  0  0  0  0  0
   -4.8186    1.9573   -1.1315 O   0  0  0  0  0  0  0  0  0  0  0  0
   -4.7922    1.7932    1.3025 O   0  0  0  0  0  0  0  0  0  0  0  0
   -6.7908    0.5893    0.1146 C   0  0  0  0  0  0  0  0  0  0  0  0
   -7.6332    1.8679    0.1658 C   0  0  0  0  0  0  0  0  0  0  0  0
   -7.0788   -0.1248    1.4053 C   0  0  0  0  0  0  0  0  0  0  0  0
    0.2880    0.3924   -0.0091 N   0  0  0  0  0  0  0  0  0  0  0  0
    8.2824    0.1268    0.0428 C   0  0  0  0  0  0  0  0  0  0  0  0
    8.9574    1.3549    0.1422 N   0  0  0  0  0  0  0  0  0  0  0  0
    8.9194   -0.9417   -0.0328 O   0  0  0  0  0  0  0  0  0  0  0  0
    5.6434   -3.4428   -1.1400 H   0  0  0  0  0  0  0  0  0  0  0  0
    4.2565   -4.4339   -0.4444 H   0  0  0  0  0  0  0  0  0  0  0  0
    5.5457   -3.7967    0.6107 H   0  0  0  0  0  0  0  0  0  0  0  0
    6.7784   -2.0180   -0.1340 H   0  0  0  0  0  0  0  0  0  0  0  0
    6.5691    2.1855    0.1838 H   0  0  0  0  0  0  0  0  0  0  0  0
    4.1696    2.0862    0.1546 H   0  0  0  0  0  0  0  0  0  0  0  0
    2.2505   -1.2304   -0.1149 H   0  0  0  0  0  0  0  0  0  0  0  0
    1.1142    4.0408    0.2756 H   0  0  0  0  0  0  0  0  0  0  0  0
   -2.7861    1.7223    0.0652 H   0  0  0  0  0  0  0  0  0  0  0  0
   -0.9561   -1.5671   -0.2082 H   0  0  0  0  0  0  0  0  0  0  0  0
   -2.1464   -3.6783   -0.3853 H   0  0  0  0  0  0  0  0  0  0  0  0
   -4.5937   -3.7959   -0.3838 H   0  0  0  0  0  0  0  0  0  0  0  0
   -5.8619   -1.7074   -0.2089 H   0  0  0  0  0  0  0  0  0  0  0  0
   -7.0561   -0.0292   -0.7319 H   0  0  0  0  0  0  0  0  0  0  0  0
   -7.8105    2.2778   -0.8302 H   0  0  0  0  0  0  0  0  0  0  0  0
   -8.6142    1.5609    0.5892 H   0  0  0  0  0  0  0  0  0  0  0  0
   -7.1609    2.5411    0.8813 H   0  0  0  0  0  0  0  0  0  0  0  0
   -7.5387    0.5151    2.1685 H   0  0  0  0  0  0  0  0  0  0  0  0
   -7.6966   -1.0362    1.1909 H   0  0  0  0  0  0  0  0  0  0  0  0
   -6.1234   -0.5146    1.8567 H   0  0  0  0  0  0  0  0  0  0  0  0
    9.6464    1.4888    0.9322 H   0  0  0  0  0  0  0  0  0  0  0  0
    8.8437    2.1649   -0.4999 H   0  0  0  0  0  0  0  0  0  0  0  0
  1  2  1  0
  2  3  1  0
  3  4  2  0
  4  5  1  0
  5  6  2  0
  6  7  1  0
  7  8  2  0
  8  9  1  0
  9 10  1  0
 10 11  2  0
 11 12  1  0
 12 13  2  0
 13 14  1  0
 13 15  1  0
 15 16  1  0
 16 17  1  0
 17 18  2  0
 18 19  1  0
 19 20  2  0
 20 21  1  0
 21 22  2  0
 22 23  1  0
 23 24  2  0
 23 25  2  0
 23 26  1  0
 26 27  1  0
 26 28  1  0
 15 29  2  0
  5 30  1  0
 30 31  1  0
 30 32  2  0
  8  3  1  0
 29 10  1  0
 22 17  1  0
  1 33  1  0
  1 34  1  0
  1 35  1  0
  4 36  1  0
  6 37  1  0
  7 38  1  0
  9 39  1  0
 12 40  1  0
 16 41  1  0
 18 42  1  0
 19 43  1  0
 20 44  1  0
 21 45  1  0
 26 46  1  0
 27 47  1  0
 27 48  1  0
 27 49  1  0
 28 50  1  0
 28 51  1  0
 28 52  1  0
 31 53  1  0
 31 54  1  0
M  END
$$$$
[H]c1nc(N([H])c2c([H])c([H])c(N3C([H])([H])C([H])([H])C([H])(N4C([H])([H])C([H])([H])N(C([H])([H])[H])C([H])([H])C4([H])[H])C([H])([H])C3([H])[H])c([H])c2OC([H])([H])[H])nc(N([H])c2c([H])c([H])c([H])c([H])c2P(=O)(C([H])([H])[H])C([H])([H])[H])c1Cl
     RDKit          3D

 79 83  0  0  0  0  0  0  0  0999 V2000
   -0.1926   -3.7672    0.2585 C   0  0  0  0  0  0  0  0  0  0  0  0
   -0.8812   -2.5437    0.1420 O   0  0  0  0  0  0  0  0  0  0  0  0
   -0.1672   -1.3753    0.0254 C   0  0  0  0  0  0  0  0  0  0  0  0
    1.1874   -1.3747    0.0198 C   0  0  0  0  0  0  0  0  0  0  0  0
    1.9627   -0.2445   -0.0931 C   0  0  0  0  0  0  0  0  0  0  0  0
    1.2824    0.9410   -0.2051 C   0  0  0  0  0  0  0  0  0  0  0  0
   -0.1235    0.9642   -0.2018 C   0  0  0  0  0  0  0  0  0  0  0  0
   -0.8775   -0.1695   -0.0889 C   0  0  0  0  0  0  0  0  0  0  0  0
   -2.2827   -0.2526   -0.0804 N   0  0  0  0  0  0  0  0  0  0  0  0
   -3.1667    0.8381   -0.1778 C   0  0  0  0  0  0  0  0  0  0  0  0
   -2.8594    2.1291   -0.2910 N   0  0  0  0  0  0  0  0  0  0  0  0
   -3.7241    3.1296   -0.3837 C   0  0  0  0  0  0  0  0  0  0  0  0
   -5.0607    2.8239   -0.3625 C   0  0  0  0  0  0  0  0  0  0  0  0
   -6.1899    4.1513   -0.4860 Cl  0  0  0  0  0  0  0  0  0  0  0  0
   -5.4849    1.4834   -0.2455 C   0  0  0  0  0  0  0  0  0  0  0  0
   -6.8623    1.2434   -0.2351 N   0  0  0  0  0  0  0  0  0  0  0  0
   -7.5873    0.0411   -0.1308 C   0  0  0  0  0  0  0  0  0  0  0  0
   -6.9888   -1.1894    0.0203 C   0  0  0  0  0  0  0  0  0  0  0  0
   -7.6997   -2.3943    0.1311 C   0  0  0  0  0  0  0  0  0  0  0  0
   -9.0684   -2.3135    0.0831 C   0  0  0  0  0  0  0  0  0  0  0  0
   -9.7042   -1.1073   -0.0666 C   0  0  0  0  0  0  0  0  0  0  0  0
   -8.9675    0.0528   -0.1718 C   0  0  0  0  0  0  0  0  0  0  0  0
   -9.8428    1.5809   -0.3679 P   0  0  0  0  0  0  0  0  0  0  0  0
  -11.6375    1.2840   -0.5310 C   0  0  0  0  0  0  0  0  0  0  0  0
   -9.5944    2.6000    1.0977 C   0  0  0  0  0  0  0  0  0  0  0  0
   -9.4218    2.2493   -1.6505 O   0  0  0  0  0  0  0  0  0  0  0  0
   -4.5107    0.5888   -0.1617 N   0  0  0  0  0  0  0  0  0  0  0  0
    3.3780   -0.3254   -0.0906 N   0  0  0  0  0  0  0  0  0  0  0  0
    3.9819   -1.5928    0.1673 C   0  0  0  0  0  0  0  0  0  0  0  0
    5.4279   -1.5940    0.4911 C   0  0  0  0  0  0  0  0  0  0  0  0
    6.1971   -0.3643    0.1360 C   0  0  0  0  0  0  0  0  0  0  0  0
    5.5442    0.4998   -0.8913 C   0  0  0  0  0  0  0  0  0  0  0  0
    4.1477    0.8461   -0.3502 C   0  0  0  0  0  0  0  0  0  0  0  0
    7.5323   -0.7338   -0.1512 N   0  0  0  0  0  0  0  0  0  0  0  0
    8.2861   -1.3152    0.8907 C   0  0  0  0  0  0  0  0  0  0  0  0
    9.5038   -0.5844    1.3290 C   0  0  0  0  0  0  0  0  0  0  0  0
   10.0863    0.2747    0.3231 N   0  0  0  0  0  0  0  0  0  0  0  0
    9.7562    1.6503    0.6139 C   0  0  0  0  0  0  0  0  0  0  0  0
    9.7263   -0.1113   -1.0239 C   0  0  0  0  0  0  0  0  0  0  0  0
    8.2089   -0.0979   -1.2057 C   0  0  0  0  0  0  0  0  0  0  0  0
    0.4141   -4.0076   -0.6290 H   0  0  0  0  0  0  0  0  0  0  0  0
   -0.8960   -4.6029    0.4203 H   0  0  0  0  0  0  0  0  0  0  0  0
    0.5060   -3.6620    1.1217 H   0  0  0  0  0  0  0  0  0  0  0  0
    1.7063   -2.3369    0.1100 H   0  0  0  0  0  0  0  0  0  0  0  0
    1.8140    1.8658   -0.2941 H   0  0  0  0  0  0  0  0  0  0  0  0
   -0.5778    1.9340   -0.2941 H   0  0  0  0  0  0  0  0  0  0  0  0
   -2.7499   -1.2222    0.0070 H   0  0  0  0  0  0  0  0  0  0  0  0
   -3.4073    4.1803   -0.4755 H   0  0  0  0  0  0  0  0  0  0  0  0
   -7.4735    2.1182   -0.3181 H   0  0  0  0  0  0  0  0  0  0  0  0
   -5.9032   -1.2807    0.0627 H   0  0  0  0  0  0  0  0  0  0  0  0
   -7.1592   -3.3339    0.2490 H   0  0  0  0  0  0  0  0  0  0  0  0
   -9.6137   -3.2505    0.1696 H   0  0  0  0  0  0  0  0  0  0  0  0
  -10.7815   -1.1209   -0.0956 H   0  0  0  0  0  0  0  0  0  0  0  0
  -12.1337    2.0955   -1.1062 H   0  0  0  0  0  0  0  0  0  0  0  0
  -12.1062    1.2727    0.4734 H   0  0  0  0  0  0  0  0  0  0  0  0
  -11.8478    0.3362   -1.0403 H   0  0  0  0  0  0  0  0  0  0  0  0
  -10.5262    2.7825    1.6650 H   0  0  0  0  0  0  0  0  0  0  0  0
   -9.2002    3.6005    0.7649 H   0  0  0  0  0  0  0  0  0  0  0  0
   -8.8346    2.1850    1.7923 H   0  0  0  0  0  0  0  0  0  0  0  0
    3.4533   -1.9997    1.0855 H   0  0  0  0  0  0  0  0  0  0  0  0
    3.7110   -2.3491   -0.6212 H   0  0  0  0  0  0  0  0  0  0  0  0
    5.8881   -2.4470   -0.0938 H   0  0  0  0  0  0  0  0  0  0  0  0
    5.6461   -1.8541    1.5521 H   0  0  0  0  0  0  0  0  0  0  0  0
    6.2299    0.2614    1.0808 H   0  0  0  0  0  0  0  0  0  0  0  0
    6.0656    1.4797   -0.9268 H   0  0  0  0  0  0  0  0  0  0  0  0
    5.4091    0.0115   -1.8542 H   0  0  0  0  0  0  0  0  0  0  0  0
    4.3079    1.3801    0.6059 H   0  0  0  0  0  0  0  0  0  0  0  0
    3.6443    1.5487   -1.0492 H   0  0  0  0  0  0  0  0  0  0  0  0
    8.5719   -2.3567    0.5694 H   0  0  0  0  0  0  0  0  0  0  0  0
    7.6339   -1.4579    1.7829 H   0  0  0  0  0  0  0  0  0  0  0  0
    9.3106   -0.0019    2.2541 H   0  0  0  0  0  0  0  0  0  0  0  0
   10.2866   -1.3266    1.6023 H   0  0  0  0  0  0  0  0  0  0  0  0
    9.7311    1.7448    1.7278 H   0  0  0  0  0  0  0  0  0  0  0  0
   10.5539    2.2782    0.1809 H   0  0  0  0  0  0  0  0  0  0  0  0
    8.7757    1.9034    0.1772 H   0  0  0  0  0  0  0  0  0  0  0  0
   10.0934   -1.1435   -1.1860 H   0  0  0  0  0  0  0  0  0  0  0  0
   10.1672    0.6255   -1.7126 H   0  0  0  0  0  0  0  0  0  0  0  0
    8.0341   -0.6971   -2.1479 H   0  0  0  0  0  0  0  0  0  0  0  0
    7.9430    0.9262   -1.4516 H   0  0  0  0  0  0  0  0  0  0  0  0
  1  2  1  0
  2  3  1  0
  3  4  2  0
  4  5  1  0
  5  6  2  0
  6  7  1  0
  7  8  2  0
  8  9  1  0
  9 10  1  0
 10 11  2  0
 11 12  1  0
 12 13  2  0
 13 14  1  0
 13 15  1  0
 15 16  1  0
 16 17  1  0
 17 18  2  0
 18 19  1  0
 19 20  2  0
 20 21  1  0
 21 22  2  0
 22 23  1  0
 23 24  1  0
 23 25  1  0
 23 26  2  0
 15 27  2  0
  5 28  1  0
 28 29  1  0
 29 30  1  0
 30 31  1  0
 31 32  1  0
 32 33  1  0
 31 34  1  0
 34 35  1  0
 35 36  1  0
 36 37  1  0
 37 38  1  0
 37 39  1  0
 39 40  1  0
  8  3  1  0
 27 10  1  0
 33 28  1  0
 40 34  1  0
 22 17  1  0
  1 41  1  0
  1 42  1  0
  1 43  1  0
  4 44  1  0
  6 45  1  0
  7 46  1  0
  9 47  1  0
 12 48  1  0
 16 49  1  0
 18 50  1  0
 19 51  1  0
 20 52  1  0
 21 53  1  0
 24 54  1  0
 24 55  1  0
 24 56  1  0
 25 57  1  0
 25 58  1  0
 25 59  1  0
 29 60  1  0
 29 61  1  0
 30 62  1  0
 30 63  1  0
 31 64  1  0
 32 65  1  0
 32 66  1  0
 33 67  1  0
 33 68  1  0
 35 69  1  0
 35 70  1  0
 36 71  1  0
 36 72  1  0
 38 73  1  0
 38 74  1  0
 38 75  1  0
 39 76  1  0
 39 77  1  0
 40 78  1  0
 40 79  1  0
M  END
$$$$
[H]c1nc(N([H])c2c([H])c([H])c(N3C([H])([H])C([H])([H])C([H])(N4C([H])([H])C([H])([H])OC([H])([H])C4([H])[H])C([H])([H])C3([H])[H])c([H])c2OC([H])([H])[H])nc(N([H])c2c([H])c([H])c([H])c([H])c2S(=O)(=O)C([H])(C([H])([H])[H])C([H])([H])[H])c1Cl
     RDKit          3D

 78 82  0  0  0  0  0  0  0  0999 V2000
   -2.7990   -4.7366   -1.3510 C   0  0  0  0  0  0  0  0  0  0  0  0
   -1.4818   -4.2815   -1.0963 O   0  0  0  0  0  0  0  0  0  0  0  0
   -1.2626   -2.9268   -0.9115 C   0  0  0  0  0  0  0  0  0  0  0  0
   -2.2756   -1.9993   -0.9649 C   0  0  0  0  0  0  0  0  0  0  0  0
   -2.0617   -0.6368   -0.7804 C   0  0  0  0  0  0  0  0  0  0  0  0
   -0.7814   -0.2202   -0.5369 C   0  0  0  0  0  0  0  0  0  0  0  0
    0.2811   -1.1355   -0.4738 C   0  0  0  0  0  0  0  0  0  0  0  0
    0.0363   -2.4736   -0.6602 C   0  0  0  0  0  0  0  0  0  0  0  0
    1.0486   -3.4282   -0.5632 N   0  0  0  0  0  0  0  0  0  0  0  0
    2.4501   -3.2971   -0.5441 C   0  0  0  0  0  0  0  0  0  0  0  0
    3.1806   -4.4584   -0.3853 N   0  0  0  0  0  0  0  0  0  0  0  0
    4.4963   -4.5095   -0.3751 C   0  0  0  0  0  0  0  0  0  0  0  0
    5.2173   -3.3469   -0.5311 C   0  0  0  0  0  0  0  0  0  0  0  0
    6.9576   -3.3296   -0.5341 Cl  0  0  0  0  0  0  0  0  0  0  0  0
    4.5356   -2.1282   -0.6989 C   0  0  0  0  0  0  0  0  0  0  0  0
    5.3043   -0.9689   -0.8278 N   0  0  0  0  0  0  0  0  0  0  0  0
    4.9428    0.3708   -1.0715 C   0  0  0  0  0  0  0  0  0  0  0  0
    3.7071    0.7399   -1.5352 C   0  0  0  0  0  0  0  0  0  0  0  0
    3.4274    2.0598   -1.8188 C   0  0  0  0  0  0  0  0  0  0  0  0
    4.3635    3.0489   -1.6512 C   0  0  0  0  0  0  0  0  0  0  0  0
    5.6208    2.6944   -1.1820 C   0  0  0  0  0  0  0  0  0  0  0  0
    5.9101    1.3798   -0.8961 C   0  0  0  0  0  0  0  0  0  0  0  0
    7.5019    1.0371   -0.2945 S   0  0  0  0  0  0  0  0  0  0  0  0
    8.2978    0.1131   -1.1647 O   0  0  0  0  0  0  0  0  0  0  0  0
    8.2966    2.3490   -0.2987 O   0  0  0  0  0  0  0  0  0  0  0  0
    7.4681    0.4327    1.3549 C   0  0  0  0  0  0  0  0  0  0  0  0
    8.8634   -0.1388    1.7159 C   0  0  0  0  0  0  0  0  0  0  0  0
    7.0596    1.4683    2.3670 C   0  0  0  0  0  0  0  0  0  0  0  0
    3.1822   -2.2006   -0.6916 N   0  0  0  0  0  0  0  0  0  0  0  0
   -3.1115    0.3177   -0.8518 N   0  0  0  0  0  0  0  0  0  0  0  0
   -4.3569    0.0033   -1.5564 C   0  0  0  0  0  0  0  0  0  0  0  0
   -5.4456    0.9770   -1.1084 C   0  0  0  0  0  0  0  0  0  0  0  0
   -5.4163    1.0960    0.3875 C   0  0  0  0  0  0  0  0  0  0  0  0
   -4.1724    1.8834    0.7406 C   0  0  0  0  0  0  0  0  0  0  0  0
   -3.0537    1.6221   -0.2518 C   0  0  0  0  0  0  0  0  0  0  0  0
   -6.5566    1.8175    0.8825 N   0  0  0  0  0  0  0  0  0  0  0  0
   -6.4174    2.0469    2.3263 C   0  0  0  0  0  0  0  0  0  0  0  0
   -7.6213    2.8766    2.7374 C   0  0  0  0  0  0  0  0  0  0  0  0
   -8.8104    2.1862    2.5319 O   0  0  0  0  0  0  0  0  0  0  0  0
   -8.9221    1.9916    1.1601 C   0  0  0  0  0  0  0  0  0  0  0  0
   -7.7951    1.0731    0.7374 C   0  0  0  0  0  0  0  0  0  0  0  0
   -2.8361   -5.8616   -1.3099 H   0  0  0  0  0  0  0  0  0  0  0  0
   -3.1900   -4.3824   -2.3292 H   0  0  0  0  0  0  0  0  0  0  0  0
   -3.5377   -4.4041   -0.5867 H   0  0  0  0  0  0  0  0  0  0  0  0
   -3.2912   -2.3704   -1.1607 H   0  0  0  0  0  0  0  0  0  0  0  0
   -0.5304    0.8148   -0.3940 H   0  0  0  0  0  0  0  0  0  0  0  0
    1.2667   -0.7437   -0.2556 H   0  0  0  0  0  0  0  0  0  0  0  0
    0.7052   -4.4618   -0.4798 H   0  0  0  0  0  0  0  0  0  0  0  0
    5.0715   -5.4367   -0.2489 H   0  0  0  0  0  0  0  0  0  0  0  0
    6.3584   -1.1165   -0.7423 H   0  0  0  0  0  0  0  0  0  0  0  0
    2.9114   -0.0041   -1.7193 H   0  0  0  0  0  0  0  0  0  0  0  0
    2.4405    2.3544   -2.1905 H   0  0  0  0  0  0  0  0  0  0  0  0
    4.1803    4.0991   -1.8612 H   0  0  0  0  0  0  0  0  0  0  0  0
    6.3509    3.4879   -1.0554 H   0  0  0  0  0  0  0  0  0  0  0  0
    6.8109   -0.4447    1.4204 H   0  0  0  0  0  0  0  0  0  0  0  0
    8.9078   -1.1290    1.2165 H   0  0  0  0  0  0  0  0  0  0  0  0
    8.8703   -0.2948    2.7926 H   0  0  0  0  0  0  0  0  0  0  0  0
    9.6590    0.5303    1.3215 H   0  0  0  0  0  0  0  0  0  0  0  0
    6.3760    2.2282    1.9706 H   0  0  0  0  0  0  0  0  0  0  0  0
    8.0149    1.9242    2.7543 H   0  0  0  0  0  0  0  0  0  0  0  0
    6.5683    1.0168    3.2596 H   0  0  0  0  0  0  0  0  0  0  0  0
   -4.2295    0.1961   -2.6622 H   0  0  0  0  0  0  0  0  0  0  0  0
   -4.6789   -1.0320   -1.4555 H   0  0  0  0  0  0  0  0  0  0  0  0
   -6.3764    0.6017   -1.5329 H   0  0  0  0  0  0  0  0  0  0  0  0
   -5.2359    1.9773   -1.5346 H   0  0  0  0  0  0  0  0  0  0  0  0
   -5.4040    0.1109    0.8986 H   0  0  0  0  0  0  0  0  0  0  0  0
   -4.4001    2.9747    0.6779 H   0  0  0  0  0  0  0  0  0  0  0  0
   -3.8424    1.6927    1.7865 H   0  0  0  0  0  0  0  0  0  0  0  0
   -3.1634    2.3692   -1.0913 H   0  0  0  0  0  0  0  0  0  0  0  0
   -2.0806    1.8030    0.1914 H   0  0  0  0  0  0  0  0  0  0  0  0
   -6.4486    1.0642    2.8141 H   0  0  0  0  0  0  0  0  0  0  0  0
   -5.5199    2.6190    2.5767 H   0  0  0  0  0  0  0  0  0  0  0  0
   -7.6190    3.7806    2.0982 H   0  0  0  0  0  0  0  0  0  0  0  0
   -7.5723    3.1645    3.7921 H   0  0  0  0  0  0  0  0  0  0  0  0
   -8.6856    2.9938    0.6972 H   0  0  0  0  0  0  0  0  0  0  0  0
   -9.9176    1.6194    0.8580 H   0  0  0  0  0  0  0  0  0  0  0  0
   -7.9512    0.6460   -0.2539 H   0  0  0  0  0  0  0  0  0  0  0  0
   -7.7886    0.2449    1.4991 H   0  0  0  0  0  0  0  0  0  0  0  0
  1  2  1  0
  2  3  1  0
  3  4  2  0
  4  5  1  0
  5  6  2  0
  6  7  1  0
  7  8  2  0
  8  9  1  0
  9 10  1  0
 10 11  2  0
 11 12  1  0
 12 13  2  0
 13 14  1  0
 13 15  1  0
 15 16  1  0
 16 17  1  0
 17 18  2  0
 18 19  1  0
 19 20  2  0
 20 21  1  0
 21 22  2  0
 22 23  1  0
 23 24  2  0
 23 25  2  0
 23 26  1  0
 26 27  1  0
 26 28  1  0
 15 29  2  0
  5 30  1  0
 30 31  1  0
 31 32  1  0
 32 33  1  0
 33 34  1  0
 34 35  1  0
 33 36  1  0
 36 37  1  0
 37 38  1  0
 38 39  1  0
 39 40  1  0
 40 41  1  0
  8  3  1  0
 29 10  1  0
 35 30  1  0
 41 36  1  0
 22 17  1  0
  1 42  1  0
  1 43  1  0
  1 44  1  0
  4 45  1  0
  6 46  1  0
  7 47  1  0
  9 48  1  0
 12 49  1  0
 16 50  1  0
 18 51  1  0
 19 52  1  0
 20 53  1  0
 21 54  1  0
 26 55  1  0
 27 56  1  0
 27 57  1  0
 27 58  1  0
 28 59  1  0
 28 60  1  0
 28 61  1  0
 31 62  1  0
 31 63  1  0
 32 64  1  0
 32 65  1  0
 33 66  1  0
 34 67  1  0
 34 68  1  0
 35 69  1  0
 35 70  1  0
 37 71  1  0
 37 72  1  0
 38 73  1  0
 38 74  1  0
 40 75  1  0
 40 76  1  0
 41 77  1  0
 41 78  1  0
M  END
$$$$
[H]c1nc(N([H])c2c([H])c([H])c(C(F)(F)F)c([H])c2OC([H])([H])[H])nc(N([H])c2c([H])c([H])c(C(=O)N3C([H])([H])C([H])([H])N(C([H])([H])[H])C([H])([H])C3([H])[H])c([H])c2OC([H])([H])[H])c1Cl
     RDKit          3D

 64 67  0  0  0  0  0  0  0  0999 V2000
   -6.0566    2.1010   -3.7860 C   0  0  0  0  0  0  0  0  0  0  0  0
   -5.3501    1.4206   -2.7937 O   0  0  0  0  0  0  0  0  0  0  0  0
   -6.0206    0.4860   -2.0030 C   0  0  0  0  0  0  0  0  0  0  0  0
   -7.3717    0.2477   -2.2761 C   0  0  0  0  0  0  0  0  0  0  0  0
   -8.0647   -0.6666   -1.4999 C   0  0  0  0  0  0  0  0  0  0  0  0
   -7.4292   -1.3403   -0.4654 C   0  0  0  0  0  0  0  0  0  0  0  0
   -6.0883   -1.0864   -0.2203 C   0  0  0  0  0  0  0  0  0  0  0  0
   -5.4029   -0.1583   -1.0152 C   0  0  0  0  0  0  0  0  0  0  0  0
   -3.9968   -0.0714   -0.8254 N   0  0  0  0  0  0  0  0  0  0  0  0
   -3.4986    0.0807    0.5139 C   0  0  0  0  0  0  0  0  0  0  0  0
   -4.4690    0.2678    1.4962 N   0  0  0  0  0  0  0  0  0  0  0  0
   -4.0539    0.5010    2.7500 C   0  0  0  0  0  0  0  0  0  0  0  0
   -2.7349    0.5586    3.0924 C   0  0  0  0  0  0  0  0  0  0  0  0
   -2.2654    0.8432    4.7575 Cl  0  0  0  0  0  0  0  0  0  0  0  0
   -1.7841    0.3724    2.1317 C   0  0  0  0  0  0  0  0  0  0  0  0
   -0.4222    0.5391    2.4472 N   0  0  0  0  0  0  0  0  0  0  0  0
    0.7035    0.1120    1.7383 C   0  0  0  0  0  0  0  0  0  0  0  0
    0.5987   -1.0373    0.9315 C   0  0  0  0  0  0  0  0  0  0  0  0
    1.7538   -1.5919    0.4317 C   0  0  0  0  0  0  0  0  0  0  0  0
    2.9743   -1.0620    0.6922 C   0  0  0  0  0  0  0  0  0  0  0  0
    3.0585    0.0896    1.4952 C   0  0  0  0  0  0  0  0  0  0  0  0
    1.9251    0.6624    2.0049 C   0  0  0  0  0  0  0  0  0  0  0  0
    2.0837    1.8016    2.7789 O   0  0  0  0  0  0  0  0  0  0  0  0
    3.2742    2.4241    3.1120 C   0  0  0  0  0  0  0  0  0  0  0  0
    4.1947   -1.7983    0.3526 C   0  0  0  0  0  0  0  0  0  0  0  0
    4.1942   -3.0415    0.3515 O   0  0  0  0  0  0  0  0  0  0  0  0
    5.4092   -1.1466    0.0197 N   0  0  0  0  0  0  0  0  0  0  0  0
    6.6244   -1.9460   -0.0876 C   0  0  0  0  0  0  0  0  0  0  0  0
    7.4619   -1.5621   -1.2689 C   0  0  0  0  0  0  0  0  0  0  0  0
    7.3879   -0.2062   -1.6750 N   0  0  0  0  0  0  0  0  0  0  0  0
    8.3897    0.6407   -1.0948 C   0  0  0  0  0  0  0  0  0  0  0  0
    6.1119    0.4033   -1.7298 C   0  0  0  0  0  0  0  0  0  0  0  0
    5.4051    0.2341   -0.3771 C   0  0  0  0  0  0  0  0  0  0  0  0
   -2.2359    0.1428    0.8897 N   0  0  0  0  0  0  0  0  0  0  0  0
   -9.4885   -0.9779   -1.7652 C   0  0  0  0  0  0  0  0  0  0  0  0
   -9.6293   -2.3711   -1.8078 F   0  0  0  0  0  0  0  0  0  0  0  0
  -10.3554   -0.4507   -0.8442 F   0  0  0  0  0  0  0  0  0  0  0  0
   -9.7657   -0.5153   -3.0349 F   0  0  0  0  0  0  0  0  0  0  0  0
   -5.3193    2.8380   -4.2339 H   0  0  0  0  0  0  0  0  0  0  0  0
   -6.8459    2.7377   -3.3122 H   0  0  0  0  0  0  0  0  0  0  0  0
   -6.4306    1.4515   -4.5738 H   0  0  0  0  0  0  0  0  0  0  0  0
   -7.8517    0.7621   -3.0668 H   0  0  0  0  0  0  0  0  0  0  0  0
   -8.0167   -2.0589    0.1185 H   0  0  0  0  0  0  0  0  0  0  0  0
   -5.5816   -1.6232    0.5418 H   0  0  0  0  0  0  0  0  0  0  0  0
   -3.3218   -0.1047   -1.6227 H   0  0  0  0  0  0  0  0  0  0  0  0
   -4.8412    0.6446    3.5127 H   0  0  0  0  0  0  0  0  0  0  0  0
   -0.2251    1.1080    3.3498 H   0  0  0  0  0  0  0  0  0  0  0  0
   -0.3375   -1.5070    0.7044 H   0  0  0  0  0  0  0  0  0  0  0  0
    1.6368   -2.4914   -0.2014 H   0  0  0  0  0  0  0  0  0  0  0  0
    4.0172    0.4865    1.7238 H   0  0  0  0  0  0  0  0  0  0  0  0
    3.0919    3.5037    3.3207 H   0  0  0  0  0  0  0  0  0  0  0  0
    3.9342    2.4403    2.1965 H   0  0  0  0  0  0  0  0  0  0  0  0
    3.8132    2.0365    3.9763 H   0  0  0  0  0  0  0  0  0  0  0  0
    7.2088   -1.6741    0.8515 H   0  0  0  0  0  0  0  0  0  0  0  0
    6.4211   -3.0192   -0.0277 H   0  0  0  0  0  0  0  0  0  0  0  0
    7.2465   -2.2509   -2.1296 H   0  0  0  0  0  0  0  0  0  0  0  0
    8.5617   -1.7624   -1.0368 H   0  0  0  0  0  0  0  0  0  0  0  0
    9.3703    0.1595   -1.0708 H   0  0  0  0  0  0  0  0  0  0  0  0
    8.0417    0.8974   -0.0609 H   0  0  0  0  0  0  0  0  0  0  0  0
    8.4310    1.6038   -1.6425 H   0  0  0  0  0  0  0  0  0  0  0  0
    6.2016    1.4842   -1.8847 H   0  0  0  0  0  0  0  0  0  0  0  0
    5.4946   -0.0693   -2.5213 H   0  0  0  0  0  0  0  0  0  0  0  0
    5.8674    0.9033    0.3535 H   0  0  0  0  0  0  0  0  0  0  0  0
    4.3666    0.6050   -0.6069 H   0  0  0  0  0  0  0  0  0  0  0  0
  1  2  1  0
  2  3  1  0
  3  4  2  0
  4  5  1  0
  5  6  2  0
  6  7  1  0
  7  8  2  0
  8  9  1  0
  9 10  1  0
 10 11  2  0
 11 12  1  0
 12 13  2  0
 13 14  1  0
 13 15  1  0
 15 16  1  0
 16 17  1  0
 17 18  2  0
 18 19  1  0
 19 20  2  0
 20 21  1  0
 21 22  2  0
 22 23  1  0
 23 24  1  0
 20 25  1  0
 25 26  2  0
 25 27  1  0
 27 28  1  0
 28 29  1  0
 29 30  1  0
 30 31  1  0
 30 32  1  0
 32 33  1  0
 15 34  2  0
  5 35  1  0
 35 36  1  0
 35 37  1  0
 35 38  1  0
  8  3  1  0
 34 10  1  0
 22 17  1  0
 33 27  1  0
  1 39  1  0
  1 40  1  0
  1 41  1  0
  4 42  1  0
  6 43  1  0
  7 44  1  0
  9 45  1  0
 12 46  1  0
 16 47  1  0
 18 48  1  0
 19 49  1  0
 21 50  1  0
 24 51  1  0
 24 52  1  0
 24 53  1  0
 28 54  1  0
 28 55  1  0
 29 56  1  0
 29 57  1  0
 31 58  1  0
 31 59  1  0
 31 60  1  0
 32 61  1  0
 32 62  1  0
 33 63  1  0
 33 64  1  0
M  END
$$$$
[H]c1nc(N([H])c2c([H])c([H])c(N3C([H])([H])C([H])([H])N(C([H])(C([H])([H])[H])C([H])([H])[H])C([H])([H])C3([H])[H])c([H])c2OC([H])([H])[H])nc(N([H])c2c([H])c([H])c([H])c([H])c2S(=O)(=O)C([H])(C([H])([H])[H])C([H])([H])[H])c1Cl
     RDKit          3D

 73 76  0  0  0  0  0  0  0  0999 V2000
    1.7459   -4.0589   -0.0736 C   0  0  0  0  0  0  0  0  0  0  0  0
    0.9975   -2.8664   -0.1438 O   0  0  0  0  0  0  0  0  0  0  0  0
    1.6912   -1.6509    0.0131 C   0  0  0  0  0  0  0  0  0  0  0  0
    3.0377   -1.6397    0.2223 C   0  0  0  0  0  0  0  0  0  0  0  0
    3.7807   -0.4723    0.3845 C   0  0  0  0  0  0  0  0  0  0  0  0
    3.0658    0.6903    0.3198 C   0  0  0  0  0  0  0  0  0  0  0  0
    1.6705    0.7103    0.1044 C   0  0  0  0  0  0  0  0  0  0  0  0
    0.9847   -0.4408   -0.0488 C   0  0  0  0  0  0  0  0  0  0  0  0
   -0.3913   -0.5412   -0.2119 N   0  0  0  0  0  0  0  0  0  0  0  0
   -1.2589    0.4838   -0.6389 C   0  0  0  0  0  0  0  0  0  0  0  0
   -0.7856    1.6851   -0.9759 N   0  0  0  0  0  0  0  0  0  0  0  0
   -1.5619    2.6913   -1.3993 C   0  0  0  0  0  0  0  0  0  0  0  0
   -2.9101    2.4276   -1.4737 C   0  0  0  0  0  0  0  0  0  0  0  0
   -4.0353    3.6674   -2.0239 Cl  0  0  0  0  0  0  0  0  0  0  0  0
   -3.4422    1.1933   -1.1316 C   0  0  0  0  0  0  0  0  0  0  0  0
   -4.8349    0.9794   -1.2123 N   0  0  0  0  0  0  0  0  0  0  0  0
   -5.6066   -0.1435   -0.9296 C   0  0  0  0  0  0  0  0  0  0  0  0
   -5.1155   -1.3905   -0.5878 C   0  0  0  0  0  0  0  0  0  0  0  0
   -5.9217   -2.4986   -0.3254 C   0  0  0  0  0  0  0  0  0  0  0  0
   -7.2735   -2.3263   -0.4156 C   0  0  0  0  0  0  0  0  0  0  0  0
   -7.7793   -1.0913   -0.7551 C   0  0  0  0  0  0  0  0  0  0  0  0
   -7.0095    0.0175   -1.0186 C   0  0  0  0  0  0  0  0  0  0  0  0
   -7.7703    1.5041   -1.4481 S   0  0  0  0  0  0  0  0  0  0  0  0
   -7.4722    1.9809   -2.8289 O   0  0  0  0  0  0  0  0  0  0  0  0
   -7.3778    2.6273   -0.4952 O   0  0  0  0  0  0  0  0  0  0  0  0
   -9.5405    1.3079   -1.3496 C   0  0  0  0  0  0  0  0  0  0  0  0
   -9.9592    1.1802    0.0874 C   0  0  0  0  0  0  0  0  0  0  0  0
  -10.2285    2.5513   -1.9020 C   0  0  0  0  0  0  0  0  0  0  0  0
   -2.6111    0.2446   -0.7211 N   0  0  0  0  0  0  0  0  0  0  0  0
    5.1682   -0.5539    0.5818 N   0  0  0  0  0  0  0  0  0  0  0  0
    5.8628   -1.7748    0.2060 C   0  0  0  0  0  0  0  0  0  0  0  0
    7.3232   -1.4714   -0.0646 C   0  0  0  0  0  0  0  0  0  0  0  0
    7.9345   -0.6523    0.8881 N   0  0  0  0  0  0  0  0  0  0  0  0
    7.1917    0.1331    1.7760 C   0  0  0  0  0  0  0  0  0  0  0  0
    5.8747    0.5689    1.1616 C   0  0  0  0  0  0  0  0  0  0  0  0
    9.1432   -0.0162    0.4705 C   0  0  0  0  0  0  0  0  0  0  0  0
    8.9334    0.9402   -0.6607 C   0  0  0  0  0  0  0  0  0  0  0  0
    9.8709    0.7000    1.5903 C   0  0  0  0  0  0  0  0  0  0  0  0
    2.4065   -4.2087   -0.9522 H   0  0  0  0  0  0  0  0  0  0  0  0
    1.0472   -4.9400   -0.0748 H   0  0  0  0  0  0  0  0  0  0  0  0
    2.3814   -4.1196    0.8473 H   0  0  0  0  0  0  0  0  0  0  0  0
    3.5668   -2.6048    0.2638 H   0  0  0  0  0  0  0  0  0  0  0  0
    3.6235    1.6255    0.4403 H   0  0  0  0  0  0  0  0  0  0  0  0
    1.2279    1.7107    0.0988 H   0  0  0  0  0  0  0  0  0  0  0  0
   -0.8756   -1.4990    0.0159 H   0  0  0  0  0  0  0  0  0  0  0  0
   -1.2173    3.6679   -1.6798 H   0  0  0  0  0  0  0  0  0  0  0  0
   -5.3783    1.8309   -1.5609 H   0  0  0  0  0  0  0  0  0  0  0  0
   -4.0528   -1.5803   -0.5095 H   0  0  0  0  0  0  0  0  0  0  0  0
   -5.5189   -3.4453   -0.0664 H   0  0  0  0  0  0  0  0  0  0  0  0
   -7.9757   -3.1563   -0.2235 H   0  0  0  0  0  0  0  0  0  0  0  0
   -8.8789   -1.0194   -0.8200 H   0  0  0  0  0  0  0  0  0  0  0  0
   -9.8828    0.4780   -1.9853 H   0  0  0  0  0  0  0  0  0  0  0  0
   -9.0611    0.8334    0.6781 H   0  0  0  0  0  0  0  0  0  0  0  0
  -10.8027    0.4809    0.2508 H   0  0  0  0  0  0  0  0  0  0  0  0
  -10.1828    2.1843    0.4997 H   0  0  0  0  0  0  0  0  0  0  0  0
  -10.4409    3.2339   -1.0589 H   0  0  0  0  0  0  0  0  0  0  0  0
  -11.1218    2.2869   -2.4853 H   0  0  0  0  0  0  0  0  0  0  0  0
   -9.5074    3.0974   -2.5678 H   0  0  0  0  0  0  0  0  0  0  0  0
    5.3522   -2.2139   -0.6686 H   0  0  0  0  0  0  0  0  0  0  0  0
    5.8157   -2.4980    1.0338 H   0  0  0  0  0  0  0  0  0  0  0  0
    7.3323   -0.9736   -1.0730 H   0  0  0  0  0  0  0  0  0  0  0  0
    7.9121   -2.4086   -0.2102 H   0  0  0  0  0  0  0  0  0  0  0  0
    6.9693   -0.3588    2.7620 H   0  0  0  0  0  0  0  0  0  0  0  0
    7.7416    1.1062    1.9612 H   0  0  0  0  0  0  0  0  0  0  0  0
    6.0173    1.4117    0.4570 H   0  0  0  0  0  0  0  0  0  0  0  0
    5.2799    1.0039    2.0119 H   0  0  0  0  0  0  0  0  0  0  0  0
    9.8669   -0.8087    0.1180 H   0  0  0  0  0  0  0  0  0  0  0  0
    9.1949    1.9866   -0.3556 H   0  0  0  0  0  0  0  0  0  0  0  0
    9.5418    0.6374   -1.5545 H   0  0  0  0  0  0  0  0  0  0  0  0
    7.8848    0.9654   -0.9567 H   0  0  0  0  0  0  0  0  0  0  0  0
    9.7553    0.1812    2.5611 H   0  0  0  0  0  0  0  0  0  0  0  0
   10.9623    0.6603    1.3458 H   0  0  0  0  0  0  0  0  0  0  0  0
    9.6264    1.7570    1.6876 H   0  0  0  0  0  0  0  0  0  0  0  0
  1  2  1  0
  2  3  1  0
  3  4  2  0
  4  5  1  0
  5  6  2  0
  6  7  1  0
  7  8  2  0
  8  9  1  0
  9 10  1  0
 10 11  2  0
 11 12  1  0
 12 13  2  0
 13 14  1  0
 13 15  1  0
 15 16  1  0
 16 17  1  0
 17 18  2  0
 18 19  1  0
 19 20  2  0
 20 21  1  0
 21 22  2  0
 22 23  1  0
 23 24  2  0
 23 25  2  0
 23 26  1  0
 26 27  1  0
 26 28  1  0
 15 29  2  0
  5 30  1  0
 30 31  1  0
 31 32  1  0
 32 33  1  0
 33 34  1  0
 34 35  1  0
 33 36  1  0
 36 37  1  0
 36 38  1  0
  8  3  1  0
 29 10  1  0
 35 30  1  0
 22 17  1  0
  1 39  1  0
  1 40  1  0
  1 41  1  0
  4 42  1  0
  6 43  1  0
  7 44  1  0
  9 45  1  0
 12 46  1  0
 16 47  1  0
 18 48  1  0
 19 49  1  0
 20 50  1  0
 21 51  1  0
 26 52  1  0
 27 53  1  0
 27 54  1  0
 27 55  1  0
 28 56  1  0
 28 57  1  0
 28 58  1  0
 31 59  1  0
 31 60  1  0
 32 61  1  0
 32 62  1  0
 34 63  1  0
 34 64  1  0
 35 65  1  0
 35 66  1  0
 36 67  1  0
 37 68  1  0
 37 69  1  0
 37 70  1  0
 38 71  1  0
 38 72  1  0
 38 73  1  0
M  END
$$$$
[H]c1nc(N([H])c2c([H])c([H])c(C([H])(C([H])([H])[H])C([H])([H])[H])c([H])c2OC([H])([H])[H])nc(N([H])c2c([H])c([H])c([H])c([H])c2S(=O)(=O)C([H])(C([H])([H])[H])C([H])([H])[H])c1Cl
     RDKit          3D

 59 61  0  0  0  0  0  0  0  0999 V2000
    3.9884   -2.8987   -1.7199 C   0  0  0  0  0  0  0  0  0  0  0  0
    3.3339   -1.8479   -1.0734 O   0  0  0  0  0  0  0  0  0  0  0  0
    3.9638   -0.8139   -0.4210 C   0  0  0  0  0  0  0  0  0  0  0  0
    5.3369   -0.8220   -0.4084 C   0  0  0  0  0  0  0  0  0  0  0  0
    6.0441    0.1645    0.2155 C   0  0  0  0  0  0  0  0  0  0  0  0
    5.3465    1.1654    0.8304 C   0  0  0  0  0  0  0  0  0  0  0  0
    3.9406    1.1665    0.8131 C   0  0  0  0  0  0  0  0  0  0  0  0
    3.2047    0.1899    0.1949 C   0  0  0  0  0  0  0  0  0  0  0  0
    1.8217    0.1089    0.1262 N   0  0  0  0  0  0  0  0  0  0  0  0
    0.8527    0.9946    0.6679 C   0  0  0  0  0  0  0  0  0  0  0  0
    1.1069    2.1030    1.3653 N   0  0  0  0  0  0  0  0  0  0  0  0
    0.1479    2.8995    1.8512 C   0  0  0  0  0  0  0  0  0  0  0  0
   -1.1611    2.5872    1.6383 C   0  0  0  0  0  0  0  0  0  0  0  0
   -2.4278    3.5836    2.2454 Cl  0  0  0  0  0  0  0  0  0  0  0  0
   -1.4995    1.4344    0.9121 C   0  0  0  0  0  0  0  0  0  0  0  0
   -2.8300    1.0937    0.6812 N   0  0  0  0  0  0  0  0  0  0  0  0
   -3.4349    0.0332    0.0086 C   0  0  0  0  0  0  0  0  0  0  0  0
   -2.7062   -0.9459   -0.5969 C   0  0  0  0  0  0  0  0  0  0  0  0
   -3.2600   -2.0288   -1.2832 C   0  0  0  0  0  0  0  0  0  0  0  0
   -4.6157   -2.1255   -1.3602 C   0  0  0  0  0  0  0  0  0  0  0  0
   -5.3907   -1.1648   -0.7667 C   0  0  0  0  0  0  0  0  0  0  0  0
   -4.8268   -0.0986   -0.0909 C   0  0  0  0  0  0  0  0  0  0  0  0
   -5.8377    1.0821    0.6398 S   0  0  0  0  0  0  0  0  0  0  0  0
   -5.6386    1.2285    2.1252 O   0  0  0  0  0  0  0  0  0  0  0  0
   -5.5800    2.4333    0.0164 O   0  0  0  0  0  0  0  0  0  0  0  0
   -7.5679    0.7640    0.4093 C   0  0  0  0  0  0  0  0  0  0  0  0
   -7.9906    0.8803   -1.0316 C   0  0  0  0  0  0  0  0  0  0  0  0
   -8.0510   -0.4765    1.0990 C   0  0  0  0  0  0  0  0  0  0  0  0
   -0.4728    0.7298    0.4845 N   0  0  0  0  0  0  0  0  0  0  0  0
    7.5302    0.1784    0.2433 C   0  0  0  0  0  0  0  0  0  0  0  0
    8.1130    0.2781   -1.1620 C   0  0  0  0  0  0  0  0  0  0  0  0
    8.0526   -1.1150    0.8545 C   0  0  0  0  0  0  0  0  0  0  0  0
    3.3163   -3.7402   -1.9396 H   0  0  0  0  0  0  0  0  0  0  0  0
    4.4478   -2.5051   -2.6536 H   0  0  0  0  0  0  0  0  0  0  0  0
    4.7775   -3.3209   -1.0343 H   0  0  0  0  0  0  0  0  0  0  0  0
    5.8942   -1.6215   -0.8998 H   0  0  0  0  0  0  0  0  0  0  0  0
    5.8724    1.9642    1.3350 H   0  0  0  0  0  0  0  0  0  0  0  0
    3.4720    1.9911    1.3209 H   0  0  0  0  0  0  0  0  0  0  0  0
    1.4233   -0.7334   -0.4062 H   0  0  0  0  0  0  0  0  0  0  0  0
    0.4710    3.7826    2.4084 H   0  0  0  0  0  0  0  0  0  0  0  0
   -3.5567    1.7911    1.1091 H   0  0  0  0  0  0  0  0  0  0  0  0
   -1.6033   -0.9667   -0.5967 H   0  0  0  0  0  0  0  0  0  0  0  0
   -2.6562   -2.7807   -1.7476 H   0  0  0  0  0  0  0  0  0  0  0  0
   -5.1151   -2.9550   -1.8868 H   0  0  0  0  0  0  0  0  0  0  0  0
   -6.4571   -1.2917   -0.8581 H   0  0  0  0  0  0  0  0  0  0  0  0
   -8.0896    1.6129    0.9470 H   0  0  0  0  0  0  0  0  0  0  0  0
   -7.1481    0.8131   -1.7473 H   0  0  0  0  0  0  0  0  0  0  0  0
   -8.7899    0.1432   -1.2458 H   0  0  0  0  0  0  0  0  0  0  0  0
   -8.4237    1.8865   -1.1864 H   0  0  0  0  0  0  0  0  0  0  0  0
   -8.6955   -0.2893    1.9820 H   0  0  0  0  0  0  0  0  0  0  0  0
   -7.1998   -1.1063    1.4917 H   0  0  0  0  0  0  0  0  0  0  0  0
   -8.6788   -1.0752    0.3824 H   0  0  0  0  0  0  0  0  0  0  0  0
    7.8642    1.0616    0.7956 H   0  0  0  0  0  0  0  0  0  0  0  0
    9.1122    0.7582   -1.0623 H   0  0  0  0  0  0  0  0  0  0  0  0
    7.4455    0.8320   -1.8300 H   0  0  0  0  0  0  0  0  0  0  0  0
    8.3198   -0.7682   -1.5267 H   0  0  0  0  0  0  0  0  0  0  0  0
    8.1234   -1.9158    0.0760 H   0  0  0  0  0  0  0  0  0  0  0  0
    7.3273   -1.4399    1.6149 H   0  0  0  0  0  0  0  0  0  0  0  0
    9.0543   -0.8880    1.2625 H   0  0  0  0  0  0  0  0  0  0  0  0
  1  2  1  0
  2  3  1  0
  3  4  2  0
  4  5  1  0
  5  6  2  0
  6  7  1  0
  7  8  2  0
  8  9  1  0
  9 10  1  0
 10 11  2  0
 11 12  1  0
 12 13  2  0
 13 14  1  0
 13 15  1  0
 15 16  1  0
 16 17  1  0
 17 18  2  0
 18 19  1  0
 19 20  2  0
 20 21  1  0
 21 22  2  0
 22 23  1  0
 23 24  2  0
 23 25  2  0
 23 26  1  0
 26 27  1  0
 26 28  1  0
 15 29  2  0
  5 30  1  0
 30 31  1  0
 30 32  1  0
  8  3  1  0
 29 10  1  0
 22 17  1  0
  1 33  1  0
  1 34  1  0
  1 35  1  0
  4 36  1  0
  6 37  1  0
  7 38  1  0
  9 39  1  0
 12 40  1  0
 16 41  1  0
 18 42  1  0
 19 43  1  0
 20 44  1  0
 21 45  1  0
 26 46  1  0
 27 47  1  0
 27 48  1  0
 27 49  1  0
 28 50  1  0
 28 51  1  0
 28 52  1  0
 30 53  1  0
 31 54  1  0
 31 55  1  0
 31 56  1  0
 32 57  1  0
 32 58  1  0
 32 59  1  0
M  END
$$$$
[H]c1nc(N([H])c2c([H])c([H])c(N3C([H])([H])C([H])([H])C([H])(C([H])([H])[H])C([H])([H])C3([H])[H])c([H])c2OC([H])([H])[H])nc(N([H])c2c([H])c([H])c([H])c([H])c2S(=O)(=O)C([H])(C([H])([H])[H])C([H])([H])[H])c1Cl
     RDKit          3D

 68 71  0  0  0  0  0  0  0  0999 V2000
    2.3512   -2.9450   -1.7144 C   0  0  0  0  0  0  0  0  0  0  0  0
    1.5598   -2.0466   -0.9654 O   0  0  0  0  0  0  0  0  0  0  0  0
    2.1329   -0.9265   -0.3358 C   0  0  0  0  0  0  0  0  0  0  0  0
    3.4718   -0.6873   -0.4386 C   0  0  0  0  0  0  0  0  0  0  0  0
    4.0995    0.3887    0.1512 C   0  0  0  0  0  0  0  0  0  0  0  0
    3.3361    1.2654    0.8804 C   0  0  0  0  0  0  0  0  0  0  0  0
    1.9437    1.0281    0.9949 C   0  0  0  0  0  0  0  0  0  0  0  0
    1.3324   -0.0360    0.4097 C   0  0  0  0  0  0  0  0  0  0  0  0
   -0.0133   -0.3289    0.4758 N   0  0  0  0  0  0  0  0  0  0  0  0
   -1.0472    0.3624    1.1476 C   0  0  0  0  0  0  0  0  0  0  0  0
   -0.8750    1.4696    1.8664 N   0  0  0  0  0  0  0  0  0  0  0  0
   -1.8953    2.0822    2.4818 C   0  0  0  0  0  0  0  0  0  0  0  0
   -3.1776    1.6068    2.4091 C   0  0  0  0  0  0  0  0  0  0  0  0
   -4.4990    2.3815    3.2006 Cl  0  0  0  0  0  0  0  0  0  0  0  0
   -3.3986    0.4453    1.6627 C   0  0  0  0  0  0  0  0  0  0  0  0
   -4.6895   -0.0870    1.5095 N   0  0  0  0  0  0  0  0  0  0  0  0
   -5.0271   -1.2633    0.8224 C   0  0  0  0  0  0  0  0  0  0  0  0
   -4.1358   -2.2830    0.5172 C   0  0  0  0  0  0  0  0  0  0  0  0
   -4.5242   -3.4793   -0.0643 C   0  0  0  0  0  0  0  0  0  0  0  0
   -5.8367   -3.6670   -0.3497 C   0  0  0  0  0  0  0  0  0  0  0  0
   -6.7192   -2.6751   -0.0563 C   0  0  0  0  0  0  0  0  0  0  0  0
   -6.3981   -1.4548    0.5231 C   0  0  0  0  0  0  0  0  0  0  0  0
   -7.6253   -0.2789    0.7298 S   0  0  0  0  0  0  0  0  0  0  0  0
   -8.9741   -0.9593    0.4514 O   0  0  0  0  0  0  0  0  0  0  0  0
   -7.8212    0.1553    2.1626 O   0  0  0  0  0  0  0  0  0  0  0  0
   -7.6136    1.0738   -0.3791 C   0  0  0  0  0  0  0  0  0  0  0  0
   -8.0361    0.5749   -1.7553 C   0  0  0  0  0  0  0  0  0  0  0  0
   -6.4255    1.9373   -0.4369 C   0  0  0  0  0  0  0  0  0  0  0  0
   -2.3230   -0.0875    1.0908 N   0  0  0  0  0  0  0  0  0  0  0  0
    5.5216    0.5782   -0.0012 N   0  0  0  0  0  0  0  0  0  0  0  0
    6.2392   -0.3974   -0.7911 C   0  0  0  0  0  0  0  0  0  0  0  0
    7.7144   -0.2089   -0.8029 C   0  0  0  0  0  0  0  0  0  0  0  0
    8.0814    1.2543   -0.7040 C   0  0  0  0  0  0  0  0  0  0  0  0
    9.5670    1.4051   -0.7535 C   0  0  0  0  0  0  0  0  0  0  0  0
    7.5916    1.7526    0.6340 C   0  0  0  0  0  0  0  0  0  0  0  0
    6.1032    1.7159    0.6420 C   0  0  0  0  0  0  0  0  0  0  0  0
    3.0642   -3.4820   -1.0647 H   0  0  0  0  0  0  0  0  0  0  0  0
    1.6509   -3.6299   -2.2501 H   0  0  0  0  0  0  0  0  0  0  0  0
    2.9754   -2.3988   -2.4771 H   0  0  0  0  0  0  0  0  0  0  0  0
    4.0722   -1.3949   -1.0241 H   0  0  0  0  0  0  0  0  0  0  0  0
    3.7506    2.1161    1.3625 H   0  0  0  0  0  0  0  0  0  0  0  0
    1.3699    1.7321    1.5717 H   0  0  0  0  0  0  0  0  0  0  0  0
   -0.3825   -1.2181   -0.0547 H   0  0  0  0  0  0  0  0  0  0  0  0
   -1.6769    2.9810    3.0498 H   0  0  0  0  0  0  0  0  0  0  0  0
   -5.4335    0.4918    2.0115 H   0  0  0  0  0  0  0  0  0  0  0  0
   -3.0905   -2.2171    0.7288 H   0  0  0  0  0  0  0  0  0  0  0  0
   -3.7677   -4.2436   -0.2799 H   0  0  0  0  0  0  0  0  0  0  0  0
   -6.1714   -4.5948   -0.8045 H   0  0  0  0  0  0  0  0  0  0  0  0
   -7.7739   -2.8778   -0.3084 H   0  0  0  0  0  0  0  0  0  0  0  0
   -8.4837    1.7340   -0.0671 H   0  0  0  0  0  0  0  0  0  0  0  0
   -9.0807    0.1776   -1.7265 H   0  0  0  0  0  0  0  0  0  0  0  0
   -7.3966   -0.2216   -2.1362 H   0  0  0  0  0  0  0  0  0  0  0  0
   -8.0537    1.4606   -2.4227 H   0  0  0  0  0  0  0  0  0  0  0  0
   -6.7001    2.8268   -1.0833 H   0  0  0  0  0  0  0  0  0  0  0  0
   -5.5419    1.4917   -0.9360 H   0  0  0  0  0  0  0  0  0  0  0  0
   -6.1968    2.3641    0.5411 H   0  0  0  0  0  0  0  0  0  0  0  0
    6.0377   -1.4385   -0.4222 H   0  0  0  0  0  0  0  0  0  0  0  0
    5.8857   -0.3829   -1.8640 H   0  0  0  0  0  0  0  0  0  0  0  0
    8.1443   -0.6275   -1.7186 H   0  0  0  0  0  0  0  0  0  0  0  0
    8.1663   -0.7601    0.0497 H   0  0  0  0  0  0  0  0  0  0  0  0
    7.5680    1.7920   -1.5178 H   0  0  0  0  0  0  0  0  0  0  0  0
   10.0074    0.7024   -1.4932 H   0  0  0  0  0  0  0  0  0  0  0  0
    9.7896    2.4668   -1.0447 H   0  0  0  0  0  0  0  0  0  0  0  0
   10.0332    1.2112    0.2250 H   0  0  0  0  0  0  0  0  0  0  0  0
    7.9159    2.8002    0.8007 H   0  0  0  0  0  0  0  0  0  0  0  0
    7.9664    1.1183    1.4486 H   0  0  0  0  0  0  0  0  0  0  0  0
    5.6431    2.6356    0.1879 H   0  0  0  0  0  0  0  0  0  0  0  0
    5.7185    1.7197    1.7028 H   0  0  0  0  0  0  0  0  0  0  0  0
  1  2  1  0
  2  3  1  0
  3  4  2  0
  4  5  1  0
  5  6  2  0
  6  7  1  0
  7  8  2  0
  8  9  1  0
  9 10  1  0
 10 11  2  0
 11 12  1  0
 12 13  2  0
 13 14  1  0
 13 15  1  0
 15 16  1  0
 16 17  1  0
 17 18  2  0
 18 19  1  0
 19 20  2  0
 20 21  1  0
 21 22  2  0
 22 23  1  0
 23 24  2  0
 23 25  2  0
 23 26  1  0
 26 27  1  0
 26 28  1  0
 15 29  2  0
  5 30  1  0
 30 31  1  0
 31 32  1  0
 32 33  1  0
 33 34  1  0
 33 35  1  0
 35 36  1  0
  8  3  1  0
 29 10  1  0
 36 30  1  0
 22 17  1  0
  1 37  1  0
  1 38  1  0
  1 39  1  0
  4 40  1  0
  6 41  1  0
  7 42  1  0
  9 43  1  0
 12 44  1  0
 16 45  1  0
 18 46  1  0
 19 47  1  0
 20 48  1  0
 21 49  1  0
 26 50  1  0
 27 51  1  0
 27 52  1  0
 27 53  1  0
 28 54  1  0
 28 55  1  0
 28 56  1  0
 31 57  1  0
 31 58  1  0
 32 59  1  0
 32 60  1  0
 33 61  1  0
 34 62  1  0
 34 63  1  0
 34 64  1  0
 35 65  1  0
 35 66  1  0
 36 67  1  0
 36 68  1  0
M  END
$$$$
[H]c1nc(N([H])c2c([H])c([H])c(N3C([H])([H])C([H])([H])N(C([H])([H])[H])C([H])([H])C3([H])[H])c([H])c2OC([H])([H])[H])nc(N([H])c2c([H])c([H])c([H])c([H])c2P(=O)(C([H])([H])[H])C([H])([H])[H])c1Cl
     RDKit          3D

 64 67  0  0  0  0  0  0  0  0999 V2000
    2.2800    3.4701    0.7665 C   0  0  0  0  0  0  0  0  0  0  0  0
    1.5577    2.2913    0.5129 O   0  0  0  0  0  0  0  0  0  0  0  0
    2.1725    1.0943    0.2339 C   0  0  0  0  0  0  0  0  0  0  0  0
    3.5506    0.9866    0.1880 C   0  0  0  0  0  0  0  0  0  0  0  0
    4.1999   -0.1830   -0.0857 C   0  0  0  0  0  0  0  0  0  0  0  0
    3.3974   -1.2921   -0.3226 C   0  0  0  0  0  0  0  0  0  0  0  0
    2.0209   -1.2081   -0.2818 C   0  0  0  0  0  0  0  0  0  0  0  0
    1.3590   -0.0356   -0.0074 C   0  0  0  0  0  0  0  0  0  0  0  0
   -0.0231    0.1527    0.0572 N   0  0  0  0  0  0  0  0  0  0  0  0
   -1.0680   -0.7747   -0.1309 C   0  0  0  0  0  0  0  0  0  0  0  0
   -0.8307   -2.0604   -0.4194 N   0  0  0  0  0  0  0  0  0  0  0  0
   -1.7842   -2.9772   -0.6063 C   0  0  0  0  0  0  0  0  0  0  0  0
   -3.0850   -2.5425   -0.4882 C   0  0  0  0  0  0  0  0  0  0  0  0
   -4.3445   -3.7249   -0.7285 Cl  0  0  0  0  0  0  0  0  0  0  0  0
   -3.3767   -1.1861   -0.1832 C   0  0  0  0  0  0  0  0  0  0  0  0
   -4.7423   -0.8676   -0.0922 N   0  0  0  0  0  0  0  0  0  0  0  0
   -5.2920    0.3864    0.1967 C   0  0  0  0  0  0  0  0  0  0  0  0
   -4.5754    1.5391    0.4619 C   0  0  0  0  0  0  0  0  0  0  0  0
   -5.2354    2.7237    0.7376 C   0  0  0  0  0  0  0  0  0  0  0  0
   -6.5967    2.7981    0.7579 C   0  0  0  0  0  0  0  0  0  0  0  0
   -7.3102    1.6360    0.4906 C   0  0  0  0  0  0  0  0  0  0  0  0
   -6.7041    0.4401    0.2124 C   0  0  0  0  0  0  0  0  0  0  0  0
   -7.6931   -0.9659   -0.1146 P   0  0  0  0  0  0  0  0  0  0  0  0
   -7.5564   -1.6103   -1.7911 C   0  0  0  0  0  0  0  0  0  0  0  0
   -9.4546   -0.4824    0.1090 C   0  0  0  0  0  0  0  0  0  0  0  0
   -7.4625   -2.0853    0.8833 O   0  0  0  0  0  0  0  0  0  0  0  0
   -2.3664   -0.3649   -0.0184 N   0  0  0  0  0  0  0  0  0  0  0  0
    5.6073   -0.2586   -0.1368 N   0  0  0  0  0  0  0  0  0  0  0  0
    6.3360   -1.5100   -0.0530 C   0  0  0  0  0  0  0  0  0  0  0  0
    7.5581   -1.4473    0.8143 C   0  0  0  0  0  0  0  0  0  0  0  0
    8.1858   -0.1856    0.9365 N   0  0  0  0  0  0  0  0  0  0  0  0
    9.3364   -0.0009    0.0912 C   0  0  0  0  0  0  0  0  0  0  0  0
    7.3056    0.9586    0.9532 C   0  0  0  0  0  0  0  0  0  0  0  0
    6.4052    0.9271   -0.2958 C   0  0  0  0  0  0  0  0  0  0  0  0
    1.6124    4.3653    0.6843 H   0  0  0  0  0  0  0  0  0  0  0  0
    3.0707    3.6396   -0.0203 H   0  0  0  0  0  0  0  0  0  0  0  0
    2.7111    3.4928    1.7899 H   0  0  0  0  0  0  0  0  0  0  0  0
    4.0898    1.9139    0.3958 H   0  0  0  0  0  0  0  0  0  0  0  0
    3.9090   -2.2199   -0.5432 H   0  0  0  0  0  0  0  0  0  0  0  0
    1.4693   -2.0992   -0.4736 H   0  0  0  0  0  0  0  0  0  0  0  0
   -0.3647    1.1422    0.2817 H   0  0  0  0  0  0  0  0  0  0  0  0
   -1.5635   -4.0229   -0.8415 H   0  0  0  0  0  0  0  0  0  0  0  0
   -5.4065   -1.6616   -0.2596 H   0  0  0  0  0  0  0  0  0  0  0  0
   -3.4974    1.5258    0.4575 H   0  0  0  0  0  0  0  0  0  0  0  0
   -4.6497    3.5989    0.9382 H   0  0  0  0  0  0  0  0  0  0  0  0
   -7.0915    3.7321    0.9752 H   0  0  0  0  0  0  0  0  0  0  0  0
   -8.3788    1.7170    0.5121 H   0  0  0  0  0  0  0  0  0  0  0  0
   -8.3509   -1.1358   -2.4020 H   0  0  0  0  0  0  0  0  0  0  0  0
   -7.7327   -2.7059   -1.8413 H   0  0  0  0  0  0  0  0  0  0  0  0
   -6.6070   -1.3168   -2.2863 H   0  0  0  0  0  0  0  0  0  0  0  0
   -9.6197    0.4419   -0.4817 H   0  0  0  0  0  0  0  0  0  0  0  0
   -9.6297   -0.2236    1.1686 H   0  0  0  0  0  0  0  0  0  0  0  0
  -10.1282   -1.3044   -0.1549 H   0  0  0  0  0  0  0  0  0  0  0  0
    6.5261   -1.9176   -1.0655 H   0  0  0  0  0  0  0  0  0  0  0  0
    5.6507   -2.2547    0.4501 H   0  0  0  0  0  0  0  0  0  0  0  0
    7.3731   -1.8807    1.8387 H   0  0  0  0  0  0  0  0  0  0  0  0
    8.3102   -2.1621    0.3667 H   0  0  0  0  0  0  0  0  0  0  0  0
    9.1322    0.6630   -0.7851 H   0  0  0  0  0  0  0  0  0  0  0  0
   10.1067    0.5186    0.6979 H   0  0  0  0  0  0  0  0  0  0  0  0
    9.7163   -0.9548   -0.3318 H   0  0  0  0  0  0  0  0  0  0  0  0
    7.9221    1.8660    0.9318 H   0  0  0  0  0  0  0  0  0  0  0  0
    6.6623    0.9600    1.8444 H   0  0  0  0  0  0  0  0  0  0  0  0
    7.1085    0.7755   -1.1661 H   0  0  0  0  0  0  0  0  0  0  0  0
    5.8785    1.8666   -0.3743 H   0  0  0  0  0  0  0  0  0  0  0  0
  1  2  1  0
  2  3  1  0
  3  4  2  0
  4  5  1  0
  5  6  2  0
  6  7  1  0
  7  8  2  0
  8  9  1  0
  9 10  1  0
 10 11  2  0
 11 12  1  0
 12 13  2  0
 13 14  1  0
 13 15  1  0
 15 16  1  0
 16 17  1  0
 17 18  2  0
 18 19  1  0
 19 20  2  0
 20 21  1  0
 21 22  2  0
 22 23  1  0
 23 24  1  0
 23 25  1  0
 23 26  2  0
 15 27  2  0
  5 28  1  0
 28 29  1  0
 29 30  1  0
 30 31  1  0
 31 32  1  0
 31 33  1  0
 33 34  1  0
  8  3  1  0
 27 10  1  0
 34 28  1  0
 22 17  1  0
  1 35  1  0
  1 36  1  0
  1 37  1  0
  4 38  1  0
  6 39  1  0
  7 40  1  0
  9 41  1  0
 12 42  1  0
 16 43  1  0
 18 44  1  0
 19 45  1  0
 20 46  1  0
 21 47  1  0
 24 48  1  0
 24 49  1  0
 24 50  1  0
 25 51  1  0
 25 52  1  0
 25 53  1  0
 29 54  1  0
 29 55  1  0
 30 56  1  0
 30 57  1  0
 32 58  1  0
 32 59  1  0
 32 60  1  0
 33 61  1  0
 33 62  1  0
 34 63  1  0
 34 64  1  0
M  END
$$$$
[H]Oc1c([H])c([H])c2c(c1[H])C([H])([H])C([H])([H])[C@]1([H])[C@]2([H])C([H])([H])C([H])([H])[C@]2(C([H])([H])[H])[C@@]([H])(O[H])C([H])([H])C([H])([H])[C@]21[H]
     RDKit          3D

 44 47  0  0  0  0  0  0  0  0999 V2000
   -2.2616   -0.7647    1.3456 C   0  0  0  0  0  0  0  0  0  0  0  0
   -2.1872   -0.4820   -0.1355 C   0  0  2  0  0  0  0  0  0  0  0  0
   -1.4972   -1.6125   -0.8188 C   0  0  0  0  0  0  0  0  0  0  0  0
   -0.0355   -1.6614   -0.5111 C   0  0  0  0  0  0  0  0  0  0  0  0
    0.6317   -0.3276   -0.6087 C   0  0  1  0  0  0  0  0  0  0  0  0
   -0.1167    0.7120    0.2397 C   0  0  1  0  0  0  0  0  0  0  0  0
    0.6973    1.9517    0.3346 C   0  0  0  0  0  0  0  0  0  0  0  0
    1.8991    1.6281    1.2348 C   0  0  0  0  0  0  0  0  0  0  0  0
    2.6681    0.5258    0.5618 C   0  0  0  0  0  0  0  0  0  0  0  0
    4.0208    0.4137    0.8075 C   0  0  0  0  0  0  0  0  0  0  0  0
    4.8096   -0.5725    0.2292 C   0  0  0  0  0  0  0  0  0  0  0  0
    6.1817   -0.6599    0.4990 O   0  0  0  0  0  0  0  0  0  0  0  0
    4.1863   -1.4604   -0.6201 C   0  0  0  0  0  0  0  0  0  0  0  0
    2.8307   -1.3536   -0.8705 C   0  0  0  0  0  0  0  0  0  0  0  0
    2.0522   -0.3730   -0.2941 C   0  0  0  0  0  0  0  0  0  0  0  0
   -1.4489    0.8431   -0.3896 C   0  0  2  0  0  0  0  0  0  0  0  0
   -2.3800    1.8245    0.1898 C   0  0  0  0  0  0  0  0  0  0  0  0
   -3.7490    1.2757   -0.1912 C   0  0  0  0  0  0  0  0  0  0  0  0
   -3.5339   -0.1411   -0.6696 C   0  0  2  0  0  0  0  0  0  0  0  0
   -4.4822   -1.0192   -0.1693 O   0  0  0  0  0  0  0  0  0  0  0  0
   -3.3190   -1.0974    1.5551 H   0  0  0  0  0  0  0  0  0  0  0  0
   -1.6242   -1.6159    1.6570 H   0  0  0  0  0  0  0  0  0  0  0  0
   -2.0942    0.1160    1.9735 H   0  0  0  0  0  0  0  0  0  0  0  0
   -1.7135   -1.6572   -1.9098 H   0  0  0  0  0  0  0  0  0  0  0  0
   -1.9450   -2.5631   -0.4048 H   0  0  0  0  0  0  0  0  0  0  0  0
    0.1510   -2.1510    0.4861 H   0  0  0  0  0  0  0  0  0  0  0  0
    0.4339   -2.3403   -1.2525 H   0  0  0  0  0  0  0  0  0  0  0  0
    0.5187    0.0259   -1.6572 H   0  0  0  0  0  0  0  0  0  0  0  0
   -0.1882    0.2644    1.2522 H   0  0  0  0  0  0  0  0  0  0  0  0
    1.1649    2.2436   -0.6508 H   0  0  0  0  0  0  0  0  0  0  0  0
    0.1574    2.7804    0.7893 H   0  0  0  0  0  0  0  0  0  0  0  0
    2.5196    2.5130    1.4035 H   0  0  0  0  0  0  0  0  0  0  0  0
    1.4780    1.1823    2.1542 H   0  0  0  0  0  0  0  0  0  0  0  0
    4.5228    1.1037    1.4718 H   0  0  0  0  0  0  0  0  0  0  0  0
    6.5756    0.0194    1.1283 H   0  0  0  0  0  0  0  0  0  0  0  0
    4.7934   -2.2292   -1.0728 H   0  0  0  0  0  0  0  0  0  0  0  0
    2.4286   -2.0954   -1.5517 H   0  0  0  0  0  0  0  0  0  0  0  0
   -1.3743    0.9848   -1.4780 H   0  0  0  0  0  0  0  0  0  0  0  0
   -2.2899    2.0186    1.2621 H   0  0  0  0  0  0  0  0  0  0  0  0
   -2.2758    2.8067   -0.3367 H   0  0  0  0  0  0  0  0  0  0  0  0
   -4.1755    1.8381   -1.0706 H   0  0  0  0  0  0  0  0  0  0  0  0
   -4.4356    1.2437    0.6584 H   0  0  0  0  0  0  0  0  0  0  0  0
   -3.4818   -0.1892   -1.7851 H   0  0  0  0  0  0  0  0  0  0  0  0
   -4.1124   -1.9488   -0.1478 H   0  0  0  0  0  0  0  0  0  0  0  0
  2  1  1  1
  2  3  1  0
  3  4  1  0
  4  5  1  0
  5  6  1  0
  6  7  1  0
  7  8  1  0
  8  9  1  0
  9 10  2  0
 10 11  1  0
 11 12  1  0
 11 13  2  0
 13 14  1  0
 14 15  2  0
  6 16  1  0
 16 17  1  0
 17 18  1  0
 18 19  1  0
 19 20  1  0
 16  2  1  0
 19  2  1  0
 15  5  1  0
 15  9  1  0
  1 21  1  0
  1 22  1  0
  1 23  1  0
  3 24  1  0
  3 25  1  0
  4 26  1  0
  4 27  1  0
  5 28  1  6
  6 29  1  1
  7 30  1  0
  7 31  1  0
  8 32  1  0
  8 33  1  0
 10 34  1  0
 12 35  1  0
 13 36  1  0
 14 37  1  0
 16 38  1  6
 17 39  1  0
 17 40  1  0
 18 41  1  0
 18 42  1  0
 19 43  1  6
 20 44  1  0
M  END
$$$$
[H]c1nc(N([H])c2c([H])c([H])c(C(F)(F)F)c([H])c2OC([H])([H])[H])nc(N([H])c2c([H])c([H])c([H])c([H])c2P(=O)(C([H])([H])[H])C([H])([H])[H])c1Cl
     RDKit          3D

 50 52  0  0  0  0  0  0  0  0999 V2000
    4.4675   -2.1379   -2.3048 C   0  0  0  0  0  0  0  0  0  0  0  0
    3.5521   -1.1984   -1.7015 O   0  0  0  0  0  0  0  0  0  0  0  0
    4.0862   -0.1166   -0.9790 C   0  0  0  0  0  0  0  0  0  0  0  0
    5.4745    0.0752   -0.8664 C   0  0  0  0  0  0  0  0  0  0  0  0
    5.9973    1.1296   -0.1588 C   0  0  0  0  0  0  0  0  0  0  0  0
    5.1072    2.0203    0.4541 C   0  0  0  0  0  0  0  0  0  0  0  0
    3.7842    1.8640    0.3670 C   0  0  0  0  0  0  0  0  0  0  0  0
    3.2556    0.7730   -0.3631 C   0  0  0  0  0  0  0  0  0  0  0  0
    1.8555    0.8573   -0.5273 N   0  0  0  0  0  0  0  0  0  0  0  0
    1.0561    0.0155    0.3196 C   0  0  0  0  0  0  0  0  0  0  0  0
    1.7300   -0.9756    1.0160 N   0  0  0  0  0  0  0  0  0  0  0  0
    1.0452   -1.8804    1.7692 C   0  0  0  0  0  0  0  0  0  0  0  0
   -0.3315   -1.8422    1.8729 C   0  0  0  0  0  0  0  0  0  0  0  0
   -1.2320   -2.9935    2.8210 Cl  0  0  0  0  0  0  0  0  0  0  0  0
   -0.9797   -0.8229    1.1686 C   0  0  0  0  0  0  0  0  0  0  0  0
   -2.3837   -0.8388    1.1557 N   0  0  0  0  0  0  0  0  0  0  0  0
   -3.2159    0.2646    0.8666 C   0  0  0  0  0  0  0  0  0  0  0  0
   -2.9437    1.4851    1.5847 C   0  0  0  0  0  0  0  0  0  0  0  0
   -3.8309    2.5110    1.6386 C   0  0  0  0  0  0  0  0  0  0  0  0
   -5.0539    2.4325    1.0007 C   0  0  0  0  0  0  0  0  0  0  0  0
   -5.3554    1.2673    0.2857 C   0  0  0  0  0  0  0  0  0  0  0  0
   -4.4141    0.2327    0.2495 C   0  0  0  0  0  0  0  0  0  0  0  0
   -4.7190   -1.1500   -0.8807 P   0  0  0  0  0  0  0  0  0  0  0  0
   -4.7777   -0.3428   -2.5437 C   0  0  0  0  0  0  0  0  0  0  0  0
   -6.3332   -1.8825   -0.5901 C   0  0  0  0  0  0  0  0  0  0  0  0
   -3.6294   -2.1433   -0.8095 O   0  0  0  0  0  0  0  0  0  0  0  0
   -0.2594    0.0601    0.4248 N   0  0  0  0  0  0  0  0  0  0  0  0
    7.4497    1.3847   -0.0442 C   0  0  0  0  0  0  0  0  0  0  0  0
    7.7134    1.7362    1.2528 F   0  0  0  0  0  0  0  0  0  0  0  0
    7.8206    2.4773   -0.8374 F   0  0  0  0  0  0  0  0  0  0  0  0
    8.1963    0.3168   -0.4463 F   0  0  0  0  0  0  0  0  0  0  0  0
    5.2295   -1.6539   -2.9127 H   0  0  0  0  0  0  0  0  0  0  0  0
    4.9267   -2.7425   -1.4158 H   0  0  0  0  0  0  0  0  0  0  0  0
    3.8962   -2.8828   -2.8712 H   0  0  0  0  0  0  0  0  0  0  0  0
    6.1371   -0.6292   -1.3405 H   0  0  0  0  0  0  0  0  0  0  0  0
    5.5419    2.8660    1.0157 H   0  0  0  0  0  0  0  0  0  0  0  0
    3.0885    2.5903    0.8266 H   0  0  0  0  0  0  0  0  0  0  0  0
    1.4745    1.5125   -1.2356 H   0  0  0  0  0  0  0  0  0  0  0  0
    1.5473   -2.6517    2.3311 H   0  0  0  0  0  0  0  0  0  0  0  0
   -2.8743   -1.7474    1.4346 H   0  0  0  0  0  0  0  0  0  0  0  0
   -1.9725    1.5304    2.0766 H   0  0  0  0  0  0  0  0  0  0  0  0
   -3.6084    3.4108    2.1824 H   0  0  0  0  0  0  0  0  0  0  0  0
   -5.7967    3.2122    1.0497 H   0  0  0  0  0  0  0  0  0  0  0  0
   -6.2840    1.1509   -0.2276 H   0  0  0  0  0  0  0  0  0  0  0  0
   -5.4987    0.5327   -2.3547 H   0  0  0  0  0  0  0  0  0  0  0  0
   -5.1669   -1.0246   -3.2668 H   0  0  0  0  0  0  0  0  0  0  0  0
   -3.7791    0.0253   -2.8288 H   0  0  0  0  0  0  0  0  0  0  0  0
   -6.6617   -2.2523   -1.6028 H   0  0  0  0  0  0  0  0  0  0  0  0
   -6.2861   -2.7464    0.0886 H   0  0  0  0  0  0  0  0  0  0  0  0
   -7.0451   -1.0787   -0.2799 H   0  0  0  0  0  0  0  0  0  0  0  0
  1  2  1  0
  2  3  1  0
  3  4  2  0
  4  5  1  0
  5  6  2  0
  6  7  1  0
  7  8  2  0
  8  9  1  0
  9 10  1  0
 10 11  2  0
 11 12  1  0
 12 13  2  0
 13 14  1  0
 13 15  1  0
 15 16  1  0
 16 17  1  0
 17 18  2  0
 18 19  1  0
 19 20  2  0
 20 21  1  0
 21 22  2  0
 22 23  1  0
 23 24  1  0
 23 25  1  0
 23 26  2  0
 15 27  2  0
  5 28  1  0
 28 29  1  0
 28 30  1  0
 28 31  1  0
  8  3  1  0
 27 10  1  0
 22 17  1  0
  1 32  1  0
  1 33  1  0
  1 34  1  0
  4 35  1  0
  6 36  1  0
  7 37  1  0
  9 38  1  0
 12 39  1  0
 16 40  1  0
 18 41  1  0
 19 42  1  0
 20 43  1  0
 21 44  1  0
 24 45  1  0
 24 46  1  0
 24 47  1  0
 25 48  1  0
 25 49  1  0
 25 50  1  0
M  END
$$$$
