[H]c1c([H])c(N([H])C(=O)c2c([H])c([H])c(-c3c([H])c([H])c(S(=O)(=O)N([H])[H])c([H])c3[H])c([H])c2[H])c([H])c(C(F)(F)F)c1[H]
     RDKit          3D

 44 46  0  0  0  0  0  0  0  0999 V2000
   -8.7640   -0.1030   -0.6643 N   0  0  0  0  0  0  0  0  0  0  0  0
   -7.9090    0.3552    0.7422 S   0  0  0  0  0  0  0  0  0  0  0  0
   -8.3910   -0.4399    1.9462 O   0  0  0  0  0  0  0  0  0  0  0  0
   -8.1405    1.8044    1.0788 O   0  0  0  0  0  0  0  0  0  0  0  0
   -6.1764    0.0397    0.6247 C   0  0  0  0  0  0  0  0  0  0  0  0
   -5.4060    0.8143   -0.2370 C   0  0  0  0  0  0  0  0  0  0  0  0
   -4.0481    0.6579   -0.3124 C   0  0  0  0  0  0  0  0  0  0  0  0
   -3.3653   -0.2895    0.4807 C   0  0  0  0  0  0  0  0  0  0  0  0
   -4.1219   -1.0419    1.3191 C   0  0  0  0  0  0  0  0  0  0  0  0
   -5.5236   -0.8873    1.3996 C   0  0  0  0  0  0  0  0  0  0  0  0
   -1.9148   -0.3572    0.3591 C   0  0  0  0  0  0  0  0  0  0  0  0
   -1.0602   -0.6626    1.3869 C   0  0  0  0  0  0  0  0  0  0  0  0
    0.3282   -0.6373    1.2322 C   0  0  0  0  0  0  0  0  0  0  0  0
    0.8582   -0.2927    0.0219 C   0  0  0  0  0  0  0  0  0  0  0  0
    0.0230    0.0199   -1.0487 C   0  0  0  0  0  0  0  0  0  0  0  0
   -1.3371   -0.0178   -0.8718 C   0  0  0  0  0  0  0  0  0  0  0  0
    2.2665   -0.0571   -0.1392 C   0  0  0  0  0  0  0  0  0  0  0  0
    2.5254    1.2309    0.0526 O   0  0  0  0  0  0  0  0  0  0  0  0
    3.3069   -0.9085   -0.4528 N   0  0  0  0  0  0  0  0  0  0  0  0
    4.6169   -0.2887   -0.5485 C   0  0  0  0  0  0  0  0  0  0  0  0
    4.7098    0.9298   -1.2332 C   0  0  0  0  0  0  0  0  0  0  0  0
    5.8647    1.6644   -1.3063 C   0  0  0  0  0  0  0  0  0  0  0  0
    6.9906    1.1900   -0.6852 C   0  0  0  0  0  0  0  0  0  0  0  0
    6.9017   -0.0354   -0.0028 C   0  0  0  0  0  0  0  0  0  0  0  0
    5.7443   -0.7410    0.0553 C   0  0  0  0  0  0  0  0  0  0  0  0
    8.1272   -0.5048    0.6492 C   0  0  0  0  0  0  0  0  0  0  0  0
    8.0896   -1.8026    1.0482 F   0  0  0  0  0  0  0  0  0  0  0  0
    8.3083    0.2814    1.7801 F   0  0  0  0  0  0  0  0  0  0  0  0
    9.2001   -0.3081   -0.1900 F   0  0  0  0  0  0  0  0  0  0  0  0
   -8.2639   -0.6994   -1.3315 H   0  0  0  0  0  0  0  0  0  0  0  0
   -9.0939    0.8187   -1.1114 H   0  0  0  0  0  0  0  0  0  0  0  0
   -5.8923    1.5564   -0.8465 H   0  0  0  0  0  0  0  0  0  0  0  0
   -3.4244    1.2386   -0.9627 H   0  0  0  0  0  0  0  0  0  0  0  0
   -3.6352   -1.7969    1.9487 H   0  0  0  0  0  0  0  0  0  0  0  0
   -6.1028   -1.4793    2.0679 H   0  0  0  0  0  0  0  0  0  0  0  0
   -1.4132   -0.9303    2.3586 H   0  0  0  0  0  0  0  0  0  0  0  0
    0.9765   -0.8784    2.0652 H   0  0  0  0  0  0  0  0  0  0  0  0
    0.4956    0.2679   -1.9832 H   0  0  0  0  0  0  0  0  0  0  0  0
   -1.9220    0.2272   -1.7467 H   0  0  0  0  0  0  0  0  0  0  0  0
    3.1681   -1.9147   -0.6074 H   0  0  0  0  0  0  0  0  0  0  0  0
    3.8688    1.3327   -1.7865 H   0  0  0  0  0  0  0  0  0  0  0  0
    5.9003    2.6224   -1.8342 H   0  0  0  0  0  0  0  0  0  0  0  0
    7.9278    1.7230   -0.6787 H   0  0  0  0  0  0  0  0  0  0  0  0
    5.7070   -1.7003    0.6009 H   0  0  0  0  0  0  0  0  0  0  0  0
  1  2  1  0
  2  3  2  0
  2  4  2  0
  2  5  1  0
  5  6  2  0
  6  7  1  0
  7  8  2  0
  8  9  1  0
  9 10  2  0
  8 11  1  0
 11 12  2  0
 12 13  1  0
 13 14  2  0
 14 15  1  0
 15 16  2  0
 14 17  1  0
 17 18  2  0
 17 19  1  0
 19 20  1  0
 20 21  2  0
 21 22  1  0
 22 23  2  0
 23 24  1  0
 24 25  2  0
 24 26  1  0
 26 27  1  0
 26 28  1  0
 26 29  1  0
 10  5  1  0
 16 11  1  0
 25 20  1  0
  1 30  1  0
  1 31  1  0
  6 32  1  0
  7 33  1  0
  9 34  1  0
 10 35  1  0
 12 36  1  0
 13 37  1  0
 15 38  1  0
 16 39  1  0
 19 40  1  0
 21 41  1  0
 22 42  1  0
 23 43  1  0
 25 44  1  0
M  END
$$$$
[H]OC(=O)c1c([H])c([H])c([H])c(-c2c([H])c([H])c(C(=O)N([H])c3c([H])c([H])c([H])c(C(F)(F)F)c3[H])c([H])c2[H])c1[H]
     RDKit          3D

 42 44  0  0  0  0  0  0  0  0999 V2000
   -8.2169   -1.0243    0.5993 O   0  0  0  0  0  0  0  0  0  0  0  0
   -6.8592   -0.9947    0.6073 C   0  0  0  0  0  0  0  0  0  0  0  0
   -6.2276   -2.0886    0.8609 O   0  0  0  0  0  0  0  0  0  0  0  0
   -6.0216    0.1743    0.3569 C   0  0  0  0  0  0  0  0  0  0  0  0
   -6.6252    1.4167    0.1245 C   0  0  0  0  0  0  0  0  0  0  0  0
   -5.8104    2.4901   -0.1286 C   0  0  0  0  0  0  0  0  0  0  0  0
   -4.4304    2.3755   -0.1606 C   0  0  0  0  0  0  0  0  0  0  0  0
   -3.8210    1.1733    0.0629 C   0  0  0  0  0  0  0  0  0  0  0  0
   -4.6508    0.0760    0.3235 C   0  0  0  0  0  0  0  0  0  0  0  0
   -2.3943    0.9130    0.0189 C   0  0  0  0  0  0  0  0  0  0  0  0
   -1.9198   -0.0662    0.8759 C   0  0  0  0  0  0  0  0  0  0  0  0
   -0.5921   -0.4209    0.8514 C   0  0  0  0  0  0  0  0  0  0  0  0
    0.3424    0.1588   -0.0095 C   0  0  0  0  0  0  0  0  0  0  0  0
   -0.1615    1.1287   -0.8420 C   0  0  0  0  0  0  0  0  0  0  0  0
   -1.4956    1.5007   -0.8332 C   0  0  0  0  0  0  0  0  0  0  0  0
    1.6809   -0.3472   -0.0115 C   0  0  0  0  0  0  0  0  0  0  0  0
    1.8254   -1.5306    0.4408 O   0  0  0  0  0  0  0  0  0  0  0  0
    2.8616    0.3171   -0.4629 N   0  0  0  0  0  0  0  0  0  0  0  0
    4.1029   -0.4041   -0.4100 C   0  0  0  0  0  0  0  0  0  0  0  0
    4.1316   -1.7407   -0.8397 C   0  0  0  0  0  0  0  0  0  0  0  0
    5.2720   -2.5130   -0.7722 C   0  0  0  0  0  0  0  0  0  0  0  0
    6.4392   -1.9795   -0.2710 C   0  0  0  0  0  0  0  0  0  0  0  0
    6.4259   -0.6911    0.1475 C   0  0  0  0  0  0  0  0  0  0  0  0
    5.2652    0.0995    0.0814 C   0  0  0  0  0  0  0  0  0  0  0  0
    7.6514   -0.0709    0.7190 C   0  0  0  0  0  0  0  0  0  0  0  0
    7.2995    0.7464    1.7484 F   0  0  0  0  0  0  0  0  0  0  0  0
    8.4844   -1.1011    1.1721 F   0  0  0  0  0  0  0  0  0  0  0  0
    8.2743    0.6648   -0.2787 F   0  0  0  0  0  0  0  0  0  0  0  0
   -8.6918   -1.8690    0.9592 H   0  0  0  0  0  0  0  0  0  0  0  0
   -7.7156    1.5074    0.1516 H   0  0  0  0  0  0  0  0  0  0  0  0
   -6.2643    3.4632   -0.3041 H   0  0  0  0  0  0  0  0  0  0  0  0
   -3.8249    3.2435   -0.3596 H   0  0  0  0  0  0  0  0  0  0  0  0
   -4.1930   -0.9027    0.5024 H   0  0  0  0  0  0  0  0  0  0  0  0
   -2.5480   -0.5880    1.5937 H   0  0  0  0  0  0  0  0  0  0  0  0
   -0.2490   -1.1839    1.5372 H   0  0  0  0  0  0  0  0  0  0  0  0
    0.5071    1.6251   -1.5215 H   0  0  0  0  0  0  0  0  0  0  0  0
   -1.8818    2.2839   -1.5065 H   0  0  0  0  0  0  0  0  0  0  0  0
    2.8477    1.2997   -0.8292 H   0  0  0  0  0  0  0  0  0  0  0  0
    3.2370   -2.1521   -1.2524 H   0  0  0  0  0  0  0  0  0  0  0  0
    5.2842   -3.5449   -1.1077 H   0  0  0  0  0  0  0  0  0  0  0  0
    7.3535   -2.5659   -0.2040 H   0  0  0  0  0  0  0  0  0  0  0  0
    5.3085    1.1219    0.4285 H   0  0  0  0  0  0  0  0  0  0  0  0
  1  2  1  0
  2  3  2  0
  2  4  1  0
  4  5  2  0
  5  6  1  0
  6  7  2  0
  7  8  1  0
  8  9  2  0
  8 10  1  0
 10 11  2  0
 11 12  1  0
 12 13  2  0
 13 14  1  0
 14 15  2  0
 13 16  1  0
 16 17  2  0
 16 18  1  0
 18 19  1  0
 19 20  2  0
 20 21  1  0
 21 22  2  0
 22 23  1  0
 23 24  2  0
 23 25  1  0
 25 26  1  0
 25 27  1  0
 25 28  1  0
  9  4  1  0
 15 10  1  0
 24 19  1  0
  1 29  1  0
  5 30  1  0
  6 31  1  0
  7 32  1  0
  9 33  1  0
 11 34  1  0
 12 35  1  0
 14 36  1  0
 15 37  1  0
 18 38  1  0
 20 39  1  0
 21 40  1  0
 22 41  1  0
 24 42  1  0
M  END
$$$$
[H]c1c([H])c(N([H])C(=O)c2c([H])c([H])c(-c3c([H])c([H])c(S(=O)(=O)C([H])([H])[H])c([H])c3[H])c([H])c2[H])c([H])c(C(F)(F)F)c1[H]
     RDKit          3D

 45 47  0  0  0  0  0  0  0  0999 V2000
   -8.0562   -0.4845    1.4155 C   0  0  0  0  0  0  0  0  0  0  0  0
   -7.7396    0.4043   -0.0996 S   0  0  0  0  0  0  0  0  0  0  0  0
   -8.4831    1.6623   -0.2261 O   0  0  0  0  0  0  0  0  0  0  0  0
   -8.1178   -0.5171   -1.2498 O   0  0  0  0  0  0  0  0  0  0  0  0
   -5.9873    0.6396   -0.2158 C   0  0  0  0  0  0  0  0  0  0  0  0
   -5.1560    0.0811    0.7291 C   0  0  0  0  0  0  0  0  0  0  0  0
   -3.7934    0.1619    0.6014 C   0  0  0  0  0  0  0  0  0  0  0  0
   -3.1625    0.8129   -0.4834 C   0  0  0  0  0  0  0  0  0  0  0  0
   -3.9976    1.3655   -1.4037 C   0  0  0  0  0  0  0  0  0  0  0  0
   -5.3877    1.2823   -1.2750 C   0  0  0  0  0  0  0  0  0  0  0  0
   -1.7140    0.6931   -0.5636 C   0  0  0  0  0  0  0  0  0  0  0  0
   -1.1533   -0.5124   -0.1165 C   0  0  0  0  0  0  0  0  0  0  0  0
    0.1684   -0.7569   -0.1723 C   0  0  0  0  0  0  0  0  0  0  0  0
    1.0604    0.2116   -0.6920 C   0  0  0  0  0  0  0  0  0  0  0  0
    0.5271    1.3875   -1.1273 C   0  0  0  0  0  0  0  0  0  0  0  0
   -0.8747    1.6300   -1.0636 C   0  0  0  0  0  0  0  0  0  0  0  0
    2.4325   -0.2466   -0.7036 C   0  0  0  0  0  0  0  0  0  0  0  0
    2.7355   -1.0786   -1.6380 O   0  0  0  0  0  0  0  0  0  0  0  0
    3.3699    0.1632    0.2453 N   0  0  0  0  0  0  0  0  0  0  0  0
    4.6988   -0.3812    0.2793 C   0  0  0  0  0  0  0  0  0  0  0  0
    4.8102   -1.7336    0.6938 C   0  0  0  0  0  0  0  0  0  0  0  0
    6.0494   -2.3345    0.7581 C   0  0  0  0  0  0  0  0  0  0  0  0
    7.1896   -1.6603    0.4325 C   0  0  0  0  0  0  0  0  0  0  0  0
    7.0931   -0.3556    0.0309 C   0  0  0  0  0  0  0  0  0  0  0  0
    5.8383    0.2729   -0.0414 C   0  0  0  0  0  0  0  0  0  0  0  0
    8.3071    0.4319   -0.3550 C   0  0  0  0  0  0  0  0  0  0  0  0
    8.3868    1.5992    0.3616 F   0  0  0  0  0  0  0  0  0  0  0  0
    9.4369   -0.3417   -0.0750 F   0  0  0  0  0  0  0  0  0  0  0  0
    8.1754    0.6896   -1.6951 F   0  0  0  0  0  0  0  0  0  0  0  0
   -9.1223   -0.6973    1.5273 H   0  0  0  0  0  0  0  0  0  0  0  0
   -7.6889    0.0320    2.2954 H   0  0  0  0  0  0  0  0  0  0  0  0
   -7.4570   -1.4497    1.3554 H   0  0  0  0  0  0  0  0  0  0  0  0
   -5.6060   -0.4335    1.5861 H   0  0  0  0  0  0  0  0  0  0  0  0
   -3.1208   -0.2556    1.3580 H   0  0  0  0  0  0  0  0  0  0  0  0
   -3.5738    1.8751   -2.2591 H   0  0  0  0  0  0  0  0  0  0  0  0
   -6.0586    1.7093   -2.0157 H   0  0  0  0  0  0  0  0  0  0  0  0
   -1.8212   -1.2469    0.2652 H   0  0  0  0  0  0  0  0  0  0  0  0
    0.5899   -1.7128    0.1851 H   0  0  0  0  0  0  0  0  0  0  0  0
    1.2075    2.1139   -1.5190 H   0  0  0  0  0  0  0  0  0  0  0  0
   -1.2057    2.5686   -1.4325 H   0  0  0  0  0  0  0  0  0  0  0  0
    3.1241    0.8631    0.9587 H   0  0  0  0  0  0  0  0  0  0  0  0
    3.9116   -2.2442    0.9503 H   0  0  0  0  0  0  0  0  0  0  0  0
    6.1767   -3.3780    1.0757 H   0  0  0  0  0  0  0  0  0  0  0  0
    8.1908   -2.1211    0.4712 H   0  0  0  0  0  0  0  0  0  0  0  0
    5.7978    1.2913   -0.3503 H   0  0  0  0  0  0  0  0  0  0  0  0
  1  2  1  0
  2  3  2  0
  2  4  2  0
  2  5  1  0
  5  6  2  0
  6  7  1  0
  7  8  2  0
  8  9  1  0
  9 10  2  0
  8 11  1  0
 11 12  2  0
 12 13  1  0
 13 14  2  0
 14 15  1  0
 15 16  2  0
 14 17  1  0
 17 18  2  0
 17 19  1  0
 19 20  1  0
 20 21  2  0
 21 22  1  0
 22 23  2  0
 23 24  1  0
 24 25  2  0
 24 26  1  0
 26 27  1  0
 26 28  1  0
 26 29  1  0
 10  5  1  0
 16 11  1  0
 25 20  1  0
  1 30  1  0
  1 31  1  0
  1 32  1  0
  6 33  1  0
  7 34  1  0
  9 35  1  0
 10 36  1  0
 12 37  1  0
 13 38  1  0
 15 39  1  0
 16 40  1  0
 19 41  1  0
 21 42  1  0
 22 43  1  0
 23 44  1  0
 25 45  1  0
M  END
$$$$
[H]c1c([H])c(N([H])C(=O)c2c([H])c([H])c(-c3c([H])c([H])c([H])c(S(=O)(=O)N([H])[H])c3[H])c([H])c2[H])c([H])c(C(F)(F)F)c1[H]
     RDKit          3D

 44 46  0  0  0  0  0  0  0  0999 V2000
   -7.4378    1.1488    1.5254 N   0  0  0  0  0  0  0  0  0  0  0  0
   -6.8355   -0.4672    1.5336 S   0  0  0  0  0  0  0  0  0  0  0  0
   -8.0009   -1.4113    1.4319 O   0  0  0  0  0  0  0  0  0  0  0  0
   -6.1142   -0.7644    2.8160 O   0  0  0  0  0  0  0  0  0  0  0  0
   -5.6989   -0.7201    0.2262 C   0  0  0  0  0  0  0  0  0  0  0  0
   -6.0959   -1.2426   -0.9911 C   0  0  0  0  0  0  0  0  0  0  0  0
   -5.2132   -1.4409   -2.0383 C   0  0  0  0  0  0  0  0  0  0  0  0
   -3.8651   -1.0944   -1.8471 C   0  0  0  0  0  0  0  0  0  0  0  0
   -3.4464   -0.5722   -0.6424 C   0  0  0  0  0  0  0  0  0  0  0  0
   -4.3659   -0.4016    0.3510 C   0  0  0  0  0  0  0  0  0  0  0  0
   -2.0613   -0.1710   -0.3735 C   0  0  0  0  0  0  0  0  0  0  0  0
   -1.4872   -0.2403    0.8527 C   0  0  0  0  0  0  0  0  0  0  0  0
   -0.1771    0.1772    1.0264 C   0  0  0  0  0  0  0  0  0  0  0  0
    0.5799    0.6658   -0.0016 C   0  0  0  0  0  0  0  0  0  0  0  0
   -0.0058    0.7338   -1.2465 C   0  0  0  0  0  0  0  0  0  0  0  0
   -1.3126    0.3206   -1.4344 C   0  0  0  0  0  0  0  0  0  0  0  0
    1.9855    1.1202    0.1921 C   0  0  0  0  0  0  0  0  0  0  0  0
    2.1954    2.3427    0.2757 O   0  0  0  0  0  0  0  0  0  0  0  0
    2.9743    0.1385    0.2634 N   0  0  0  0  0  0  0  0  0  0  0  0
    4.3371    0.4466    0.4485 C   0  0  0  0  0  0  0  0  0  0  0  0
    4.8142    1.5976    1.0130 C   0  0  0  0  0  0  0  0  0  0  0  0
    6.1819    1.8785    1.1449 C   0  0  0  0  0  0  0  0  0  0  0  0
    7.0803    0.9447    0.6823 C   0  0  0  0  0  0  0  0  0  0  0  0
    6.6374   -0.2310    0.1067 C   0  0  0  0  0  0  0  0  0  0  0  0
    5.2969   -0.4811   -0.0107 C   0  0  0  0  0  0  0  0  0  0  0  0
    7.6066   -1.2367   -0.3961 C   0  0  0  0  0  0  0  0  0  0  0  0
    7.4470   -2.4510    0.2314 F   0  0  0  0  0  0  0  0  0  0  0  0
    8.8897   -0.7331   -0.2446 F   0  0  0  0  0  0  0  0  0  0  0  0
    7.3273   -1.3900   -1.7593 F   0  0  0  0  0  0  0  0  0  0  0  0
   -8.2627    1.2683    0.9299 H   0  0  0  0  0  0  0  0  0  0  0  0
   -6.6706    1.8402    1.3525 H   0  0  0  0  0  0  0  0  0  0  0  0
   -7.1361   -1.5028   -1.1204 H   0  0  0  0  0  0  0  0  0  0  0  0
   -5.5548   -1.8507   -2.9757 H   0  0  0  0  0  0  0  0  0  0  0  0
   -3.1429   -1.2378   -2.6470 H   0  0  0  0  0  0  0  0  0  0  0  0
   -4.0464    0.0100    1.3068 H   0  0  0  0  0  0  0  0  0  0  0  0
   -2.0742   -0.6235    1.6703 H   0  0  0  0  0  0  0  0  0  0  0  0
    0.2878    0.1254    2.0050 H   0  0  0  0  0  0  0  0  0  0  0  0
    0.6071    1.1262   -2.0755 H   0  0  0  0  0  0  0  0  0  0  0  0
   -1.7139    0.3992   -2.4386 H   0  0  0  0  0  0  0  0  0  0  0  0
    2.7274   -0.8990    0.1813 H   0  0  0  0  0  0  0  0  0  0  0  0
    4.1678    2.3479    1.4059 H   0  0  0  0  0  0  0  0  0  0  0  0
    6.5127    2.8017    1.5981 H   0  0  0  0  0  0  0  0  0  0  0  0
    8.1313    1.1128    0.7591 H   0  0  0  0  0  0  0  0  0  0  0  0
    4.9316   -1.3838   -0.4507 H   0  0  0  0  0  0  0  0  0  0  0  0
  1  2  1  0
  2  3  2  0
  2  4  2  0
  2  5  1  0
  5  6  2  0
  6  7  1  0
  7  8  2  0
  8  9  1  0
  9 10  2  0
  9 11  1  0
 11 12  2  0
 12 13  1  0
 13 14  2  0
 14 15  1  0
 15 16  2  0
 14 17  1  0
 17 18  2  0
 17 19  1  0
 19 20  1  0
 20 21  2  0
 21 22  1  0
 22 23  2  0
 23 24  1  0
 24 25  2  0
 24 26  1  0
 26 27  1  0
 26 28  1  0
 26 29  1  0
 10  5  1  0
 16 11  1  0
 25 20  1  0
  1 30  1  0
  1 31  1  0
  6 32  1  0
  7 33  1  0
  8 34  1  0
 10 35  1  0
 12 36  1  0
 13 37  1  0
 15 38  1  0
 16 39  1  0
 19 40  1  0
 21 41  1  0
 22 42  1  0
 23 43  1  0
 25 44  1  0
M  END
$$$$
[H]OC(=O)c1c([H])c([H])c(-c2c([H])c([H])c(C(=O)N([H])c3c([H])c([H])c([H])c(C(F)(F)F)c3[H])c([H])c2[H])c([H])c1[H]
     RDKit          3D

 42 44  0  0  0  0  0  0  0  0999 V2000
   -7.8581    2.4545   -0.5486 O   0  0  0  0  0  0  0  0  0  0  0  0
   -7.6643    1.2100    0.0797 C   0  0  0  0  0  0  0  0  0  0  0  0
   -8.6560    0.6726    0.5794 O   0  0  0  0  0  0  0  0  0  0  0  0
   -6.3065    0.6649    0.0807 C   0  0  0  0  0  0  0  0  0  0  0  0
   -6.0095   -0.5450    0.6545 C   0  0  0  0  0  0  0  0  0  0  0  0
   -4.6958   -1.0477    0.6503 C   0  0  0  0  0  0  0  0  0  0  0  0
   -3.6878   -0.3338    0.0706 C   0  0  0  0  0  0  0  0  0  0  0  0
   -3.9767    0.9007   -0.5157 C   0  0  0  0  0  0  0  0  0  0  0  0
   -5.2576    1.3756   -0.5044 C   0  0  0  0  0  0  0  0  0  0  0  0
   -2.3038   -0.7369   -0.0016 C   0  0  0  0  0  0  0  0  0  0  0  0
   -1.7209   -1.4879    0.9774 C   0  0  0  0  0  0  0  0  0  0  0  0
   -0.3615   -1.8209    0.9332 C   0  0  0  0  0  0  0  0  0  0  0  0
    0.3531   -1.3718   -0.1164 C   0  0  0  0  0  0  0  0  0  0  0  0
   -0.1765   -0.6222   -1.1270 C   0  0  0  0  0  0  0  0  0  0  0  0
   -1.5082   -0.3089   -1.0622 C   0  0  0  0  0  0  0  0  0  0  0  0
    1.8164   -1.6056   -0.2265 C   0  0  0  0  0  0  0  0  0  0  0  0
    2.2414   -2.7790   -0.3811 O   0  0  0  0  0  0  0  0  0  0  0  0
    2.5934   -0.4526   -0.1448 N   0  0  0  0  0  0  0  0  0  0  0  0
    3.9838   -0.3606   -0.2292 C   0  0  0  0  0  0  0  0  0  0  0  0
    4.8193   -1.2739   -0.8631 C   0  0  0  0  0  0  0  0  0  0  0  0
    6.1854   -1.0967   -0.8783 C   0  0  0  0  0  0  0  0  0  0  0  0
    6.7981   -0.0182   -0.2752 C   0  0  0  0  0  0  0  0  0  0  0  0
    5.9861    0.8973    0.3574 C   0  0  0  0  0  0  0  0  0  0  0  0
    4.6267    0.7289    0.3785 C   0  0  0  0  0  0  0  0  0  0  0  0
    6.6348    2.0542    1.0268 C   0  0  0  0  0  0  0  0  0  0  0  0
    7.2034    1.5227    2.1836 F   0  0  0  0  0  0  0  0  0  0  0  0
    5.6240    2.9520    1.3575 F   0  0  0  0  0  0  0  0  0  0  0  0
    7.5773    2.6271    0.2140 F   0  0  0  0  0  0  0  0  0  0  0  0
   -7.6114    3.3000   -0.0284 H   0  0  0  0  0  0  0  0  0  0  0  0
   -6.8047   -1.1176    1.1187 H   0  0  0  0  0  0  0  0  0  0  0  0
   -4.4987   -2.0010    1.1044 H   0  0  0  0  0  0  0  0  0  0  0  0
   -3.2089    1.5034   -0.9816 H   0  0  0  0  0  0  0  0  0  0  0  0
   -5.5164    2.3292   -0.9482 H   0  0  0  0  0  0  0  0  0  0  0  0
   -2.2987   -1.8589    1.8349 H   0  0  0  0  0  0  0  0  0  0  0  0
    0.0486   -2.4307    1.7481 H   0  0  0  0  0  0  0  0  0  0  0  0
    0.4309   -0.2707   -1.9832 H   0  0  0  0  0  0  0  0  0  0  0  0
   -1.9342    0.2826   -1.8856 H   0  0  0  0  0  0  0  0  0  0  0  0
    2.0546    0.4726   -0.0101 H   0  0  0  0  0  0  0  0  0  0  0  0
    4.3729   -2.1341   -1.3562 H   0  0  0  0  0  0  0  0  0  0  0  0
    6.8262   -1.8198   -1.3843 H   0  0  0  0  0  0  0  0  0  0  0  0
    7.8914    0.0886   -0.3100 H   0  0  0  0  0  0  0  0  0  0  0  0
    3.9881    1.4578    0.8807 H   0  0  0  0  0  0  0  0  0  0  0  0
  1  2  1  0
  2  3  2  0
  2  4  1  0
  4  5  2  0
  5  6  1  0
  6  7  2  0
  7  8  1  0
  8  9  2  0
  7 10  1  0
 10 11  2  0
 11 12  1  0
 12 13  2  0
 13 14  1  0
 14 15  2  0
 13 16  1  0
 16 17  2  0
 16 18  1  0
 18 19  1  0
 19 20  2  0
 20 21  1  0
 21 22  2  0
 22 23  1  0
 23 24  2  0
 23 25  1  0
 25 26  1  0
 25 27  1  0
 25 28  1  0
  9  4  1  0
 15 10  1  0
 24 19  1  0
  1 29  1  0
  5 30  1  0
  6 31  1  0
  8 32  1  0
  9 33  1  0
 11 34  1  0
 12 35  1  0
 14 36  1  0
 15 37  1  0
 18 38  1  0
 20 39  1  0
 21 40  1  0
 22 41  1  0
 24 42  1  0
M  END
$$$$
[H]c1c([H])c(C(=O)N([H])c2c([H])c([H])c([H])c(C(F)(F)F)c2[H])c([H])c(C(F)(F)F)c1[H]
     RDKit          3D

 32 33  0  0  0  0  0  0  0  0999 V2000
   -4.7097    2.5208    1.0479 F   0  0  0  0  0  0  0  0  0  0  0  0
   -5.1089    1.6872    0.0191 C   0  0  0  0  0  0  0  0  0  0  0  0
   -6.3851    1.1638    0.2840 F   0  0  0  0  0  0  0  0  0  0  0  0
   -5.1947    2.3712   -1.1993 F   0  0  0  0  0  0  0  0  0  0  0  0
   -4.1354    0.5870   -0.1601 C   0  0  0  0  0  0  0  0  0  0  0  0
   -4.5743   -0.6716   -0.4906 C   0  0  0  0  0  0  0  0  0  0  0  0
   -3.6615   -1.6883   -0.6415 C   0  0  0  0  0  0  0  0  0  0  0  0
   -2.2962   -1.4727   -0.4661 C   0  0  0  0  0  0  0  0  0  0  0  0
   -1.8373   -0.2182   -0.1340 C   0  0  0  0  0  0  0  0  0  0  0  0
   -2.7900    0.7769    0.0070 C   0  0  0  0  0  0  0  0  0  0  0  0
   -0.4288    0.0684    0.0540 C   0  0  0  0  0  0  0  0  0  0  0  0
   -0.1163    1.2579    0.3293 O   0  0  0  0  0  0  0  0  0  0  0  0
    0.5764   -0.9073   -0.0511 N   0  0  0  0  0  0  0  0  0  0  0  0
    1.9555   -0.7189    0.1097 C   0  0  0  0  0  0  0  0  0  0  0  0
    2.7443   -1.8304    0.4418 C   0  0  0  0  0  0  0  0  0  0  0  0
    4.1158   -1.7256    0.5777 C   0  0  0  0  0  0  0  0  0  0  0  0
    4.7407   -0.5044    0.3785 C   0  0  0  0  0  0  0  0  0  0  0  0
    3.9960    0.5763    0.0581 C   0  0  0  0  0  0  0  0  0  0  0  0
    2.6163    0.4592   -0.0725 C   0  0  0  0  0  0  0  0  0  0  0  0
    4.6527    1.8741   -0.1613 C   0  0  0  0  0  0  0  0  0  0  0  0
    5.4298    2.1363    0.9480 F   0  0  0  0  0  0  0  0  0  0  0  0
    3.6788    2.8571   -0.2554 F   0  0  0  0  0  0  0  0  0  0  0  0
    5.3428    1.8838   -1.3371 F   0  0  0  0  0  0  0  0  0  0  0  0
   -5.6176   -0.9050   -0.6457 H   0  0  0  0  0  0  0  0  0  0  0  0
   -4.0253   -2.6577   -0.9004 H   0  0  0  0  0  0  0  0  0  0  0  0
   -1.6450   -2.3226   -0.5994 H   0  0  0  0  0  0  0  0  0  0  0  0
   -2.4187    1.7717    0.2758 H   0  0  0  0  0  0  0  0  0  0  0  0
    0.2427   -1.8948   -0.2591 H   0  0  0  0  0  0  0  0  0  0  0  0
    2.2302   -2.7759    0.5937 H   0  0  0  0  0  0  0  0  0  0  0  0
    4.6869   -2.6001    0.8347 H   0  0  0  0  0  0  0  0  0  0  0  0
    5.8326   -0.4690    0.4957 H   0  0  0  0  0  0  0  0  0  0  0  0
    2.1033    1.3709   -0.3379 H   0  0  0  0  0  0  0  0  0  0  0  0
  1  2  1  0
  2  3  1  0
  2  4  1  0
  2  5  1  0
  5  6  2  0
  6  7  1  0
  7  8  2  0
  8  9  1  0
  9 10  2  0
  9 11  1  0
 11 12  2  0
 11 13  1  0
 13 14  1  0
 14 15  2  0
 15 16  1  0
 16 17  2  0
 17 18  1  0
 18 19  2  0
 18 20  1  0
 20 21  1  0
 20 22  1  0
 20 23  1  0
 10  5  1  0
 19 14  1  0
  6 24  1  0
  7 25  1  0
  8 26  1  0
 10 27  1  0
 13 28  1  0
 15 29  1  0
 16 30  1  0
 17 31  1  0
 19 32  1  0
M  END
$$$$
[H]OC(=O)c1c([H])c([H])c([H])c(N([H])C(=O)c2c([H])c([H])c(-c3c([H])c([H])c(S(=O)(=O)C([H])([H])[H])c([H])c3[H])c([H])c2[H])c1[H]
     RDKit          3D

 45 47  0  0  0  0  0  0  0  0999 V2000
    8.5567   -0.9257    0.0051 C   0  0  0  0  0  0  0  0  0  0  0  0
    7.6947    0.4273    0.7389 S   0  0  0  0  0  0  0  0  0  0  0  0
    8.1320    1.6907    0.0600 O   0  0  0  0  0  0  0  0  0  0  0  0
    8.1138    0.5208    2.1887 O   0  0  0  0  0  0  0  0  0  0  0  0
    5.9538    0.2322    0.6115 C   0  0  0  0  0  0  0  0  0  0  0  0
    5.2158   -0.4115    1.5825 C   0  0  0  0  0  0  0  0  0  0  0  0
    3.8470   -0.5463    1.4488 C   0  0  0  0  0  0  0  0  0  0  0  0
    3.1592   -0.0546    0.3595 C   0  0  0  0  0  0  0  0  0  0  0  0
    3.8979    0.5897   -0.6122 C   0  0  0  0  0  0  0  0  0  0  0  0
    5.2745    0.7276   -0.4820 C   0  0  0  0  0  0  0  0  0  0  0  0
    1.7062   -0.1916    0.2070 C   0  0  0  0  0  0  0  0  0  0  0  0
    1.0335    0.7893   -0.4645 C   0  0  0  0  0  0  0  0  0  0  0  0
   -0.3464    0.6707   -0.6160 C   0  0  0  0  0  0  0  0  0  0  0  0
   -1.0397   -0.3952   -0.1128 C   0  0  0  0  0  0  0  0  0  0  0  0
   -0.3181   -1.3734    0.5648 C   0  0  0  0  0  0  0  0  0  0  0  0
    1.0265   -1.2637    0.7157 C   0  0  0  0  0  0  0  0  0  0  0  0
   -2.5044   -0.5662   -0.2374 C   0  0  0  0  0  0  0  0  0  0  0  0
   -2.9785   -1.7280   -0.0720 O   0  0  0  0  0  0  0  0  0  0  0  0
   -3.2947    0.5418   -0.5269 N   0  0  0  0  0  0  0  0  0  0  0  0
   -4.7025    0.6006   -0.6859 C   0  0  0  0  0  0  0  0  0  0  0  0
   -5.2692    1.7620   -1.2258 C   0  0  0  0  0  0  0  0  0  0  0  0
   -6.6186    1.9281   -1.4101 C   0  0  0  0  0  0  0  0  0  0  0  0
   -7.4874    0.9229   -1.0577 C   0  0  0  0  0  0  0  0  0  0  0  0
   -6.9486   -0.2180   -0.5287 C   0  0  0  0  0  0  0  0  0  0  0  0
   -5.5771   -0.3932   -0.3383 C   0  0  0  0  0  0  0  0  0  0  0  0
   -7.8438   -1.3006   -0.1460 C   0  0  0  0  0  0  0  0  0  0  0  0
   -9.2306   -1.1748   -0.3175 O   0  0  0  0  0  0  0  0  0  0  0  0
   -7.3804   -2.3523    0.3392 O   0  0  0  0  0  0  0  0  0  0  0  0
    9.5424   -0.6330   -0.4075 H   0  0  0  0  0  0  0  0  0  0  0  0
    7.9476   -1.2559   -0.8837 H   0  0  0  0  0  0  0  0  0  0  0  0
    8.6175   -1.8133    0.6654 H   0  0  0  0  0  0  0  0  0  0  0  0
    5.7435   -0.8106    2.4579 H   0  0  0  0  0  0  0  0  0  0  0  0
    3.2725   -1.0560    2.2202 H   0  0  0  0  0  0  0  0  0  0  0  0
    3.3913    0.9850   -1.4749 H   0  0  0  0  0  0  0  0  0  0  0  0
    5.8790    1.2335   -1.2384 H   0  0  0  0  0  0  0  0  0  0  0  0
    1.5192    1.6658   -0.8914 H   0  0  0  0  0  0  0  0  0  0  0  0
   -0.8828    1.4492   -1.1563 H   0  0  0  0  0  0  0  0  0  0  0  0
   -0.8371   -2.2379    0.9797 H   0  0  0  0  0  0  0  0  0  0  0  0
    1.5924   -2.0411    1.2531 H   0  0  0  0  0  0  0  0  0  0  0  0
   -2.7764    1.4751   -0.6343 H   0  0  0  0  0  0  0  0  0  0  0  0
   -4.5853    2.5625   -1.5086 H   0  0  0  0  0  0  0  0  0  0  0  0
   -7.0326    2.8540   -1.8373 H   0  0  0  0  0  0  0  0  0  0  0  0
   -8.5450    1.0320   -1.1934 H   0  0  0  0  0  0  0  0  0  0  0  0
   -5.2149   -1.3261    0.0971 H   0  0  0  0  0  0  0  0  0  0  0  0
   -9.7030   -0.5920    0.3669 H   0  0  0  0  0  0  0  0  0  0  0  0
  1  2  1  0
  2  3  2  0
  2  4  2  0
  2  5  1  0
  5  6  2  0
  6  7  1  0
  7  8  2  0
  8  9  1  0
  9 10  2  0
  8 11  1  0
 11 12  2  0
 12 13  1  0
 13 14  2  0
 14 15  1  0
 15 16  2  0
 14 17  1  0
 17 18  2  0
 17 19  1  0
 19 20  1  0
 20 21  2  0
 21 22  1  0
 22 23  2  0
 23 24  1  0
 24 25  2  0
 24 26  1  0
 26 27  1  0
 26 28  2  0
 10  5  1  0
 16 11  1  0
 25 20  1  0
  1 29  1  0
  1 30  1  0
  1 31  1  0
  6 32  1  0
  7 33  1  0
  9 34  1  0
 10 35  1  0
 12 36  1  0
 13 37  1  0
 15 38  1  0
 16 39  1  0
 19 40  1  0
 21 41  1  0
 22 42  1  0
 23 43  1  0
 25 44  1  0
 27 45  1  0
M  END
$$$$
[H]OC(=O)c1c([H])c([H])c([H])c(N([H])C(=O)c2c([H])c([H])c(-c3c([H])c([H])c(S(=O)(=O)N([H])[H])c([H])c3[H])c([H])c2[H])c1[H]
     RDKit          3D

 44 46  0  0  0  0  0  0  0  0999 V2000
   -8.3877    0.6233   -1.7694 N   0  0  0  0  0  0  0  0  0  0  0  0
   -7.9219    1.0153   -0.1538 S   0  0  0  0  0  0  0  0  0  0  0  0
   -8.2161    2.4784    0.1241 O   0  0  0  0  0  0  0  0  0  0  0  0
   -8.6882    0.1662    0.8305 O   0  0  0  0  0  0  0  0  0  0  0  0
   -6.2090    0.6984    0.0063 C   0  0  0  0  0  0  0  0  0  0  0  0
   -5.3104    1.7090   -0.2796 C   0  0  0  0  0  0  0  0  0  0  0  0
   -3.9727    1.4452   -0.1489 C   0  0  0  0  0  0  0  0  0  0  0  0
   -3.4610    0.2287    0.2521 C   0  0  0  0  0  0  0  0  0  0  0  0
   -4.3904   -0.7635    0.5311 C   0  0  0  0  0  0  0  0  0  0  0  0
   -5.7466   -0.5343    0.4106 C   0  0  0  0  0  0  0  0  0  0  0  0
   -2.0305   -0.0330    0.3862 C   0  0  0  0  0  0  0  0  0  0  0  0
   -1.5549   -0.9258    1.3247 C   0  0  0  0  0  0  0  0  0  0  0  0
   -0.2031   -1.1691    1.4485 C   0  0  0  0  0  0  0  0  0  0  0  0
    0.7423   -0.5436    0.6529 C   0  0  0  0  0  0  0  0  0  0  0  0
    0.2824    0.3418   -0.2790 C   0  0  0  0  0  0  0  0  0  0  0  0
   -1.0907    0.5900   -0.4060 C   0  0  0  0  0  0  0  0  0  0  0  0
    2.1851   -0.8568    0.8496 C   0  0  0  0  0  0  0  0  0  0  0  0
    2.5014   -1.6306    1.8001 O   0  0  0  0  0  0  0  0  0  0  0  0
    3.1757   -0.3274    0.0266 N   0  0  0  0  0  0  0  0  0  0  0  0
    4.5444   -0.5766    0.1363 C   0  0  0  0  0  0  0  0  0  0  0  0
    5.1205   -1.6767    0.7256 C   0  0  0  0  0  0  0  0  0  0  0  0
    6.4898   -1.7942    0.7974 C   0  0  0  0  0  0  0  0  0  0  0  0
    7.3382   -0.8443    0.2968 C   0  0  0  0  0  0  0  0  0  0  0  0
    6.7685    0.2720   -0.3021 C   0  0  0  0  0  0  0  0  0  0  0  0
    5.4218    0.3966   -0.3771 C   0  0  0  0  0  0  0  0  0  0  0  0
    7.6256    1.3110   -0.8507 C   0  0  0  0  0  0  0  0  0  0  0  0
    9.0237    1.2220   -0.7947 O   0  0  0  0  0  0  0  0  0  0  0  0
    7.1099    2.3158   -1.3896 O   0  0  0  0  0  0  0  0  0  0  0  0
   -7.5553    0.7801   -2.3795 H   0  0  0  0  0  0  0  0  0  0  0  0
   -8.5687   -0.4226   -1.7989 H   0  0  0  0  0  0  0  0  0  0  0  0
   -5.7095    2.6612   -0.5934 H   0  0  0  0  0  0  0  0  0  0  0  0
   -3.2691    2.2344   -0.3721 H   0  0  0  0  0  0  0  0  0  0  0  0
   -4.0370   -1.7399    0.8509 H   0  0  0  0  0  0  0  0  0  0  0  0
   -6.4733   -1.3009    0.6259 H   0  0  0  0  0  0  0  0  0  0  0  0
   -2.2918   -1.4148    1.9463 H   0  0  0  0  0  0  0  0  0  0  0  0
    0.1682   -1.8825    2.1992 H   0  0  0  0  0  0  0  0  0  0  0  0
    0.9718    0.8607   -0.9270 H   0  0  0  0  0  0  0  0  0  0  0  0
   -1.4532    1.2933   -1.1468 H   0  0  0  0  0  0  0  0  0  0  0  0
    2.8452    0.3164   -0.7514 H   0  0  0  0  0  0  0  0  0  0  0  0
    4.4853   -2.4803    1.1279 H   0  0  0  0  0  0  0  0  0  0  0  0
    6.8687   -2.6895    1.2772 H   0  0  0  0  0  0  0  0  0  0  0  0
    8.4265   -0.9614    0.3666 H   0  0  0  0  0  0  0  0  0  0  0  0
    4.9506    1.2729   -0.8464 H   0  0  0  0  0  0  0  0  0  0  0  0
    9.4956    0.3350   -0.7903 H   0  0  0  0  0  0  0  0  0  0  0  0
  1  2  1  0
  2  3  2  0
  2  4  2  0
  2  5  1  0
  5  6  2  0
  6  7  1  0
  7  8  2  0
  8  9  1  0
  9 10  2  0
  8 11  1  0
 11 12  2  0
 12 13  1  0
 13 14  2  0
 14 15  1  0
 15 16  2  0
 14 17  1  0
 17 18  2  0
 17 19  1  0
 19 20  1  0
 20 21  2  0
 21 22  1  0
 22 23  2  0
 23 24  1  0
 24 25  2  0
 24 26  1  0
 26 27  1  0
 26 28  2  0
 10  5  1  0
 16 11  1  0
 25 20  1  0
  1 29  1  0
  1 30  1  0
  6 31  1  0
  7 32  1  0
  9 33  1  0
 10 34  1  0
 12 35  1  0
 13 36  1  0
 15 37  1  0
 16 38  1  0
 19 39  1  0
 21 40  1  0
 22 41  1  0
 23 42  1  0
 25 43  1  0
 27 44  1  0
M  END
$$$$
[H]OC(=O)c1c([H])c([H])c([H])c(N([H])C(=O)c2c([H])c([H])c([H])c(C(F)(F)F)c2[H])c1[H]
     RDKit          3D

 32 33  0  0  0  0  0  0  0  0999 V2000
   -4.4400    2.6687    1.1140 F   0  0  0  0  0  0  0  0  0  0  0  0
   -4.9310    1.9538    0.0737 C   0  0  0  0  0  0  0  0  0  0  0  0
   -6.2310    1.5937    0.2033 F   0  0  0  0  0  0  0  0  0  0  0  0
   -4.7147    2.7443   -1.0920 F   0  0  0  0  0  0  0  0  0  0  0  0
   -3.9989    0.8066   -0.1546 C   0  0  0  0  0  0  0  0  0  0  0  0
   -4.5751   -0.2709   -0.9169 C   0  0  0  0  0  0  0  0  0  0  0  0
   -3.7687   -1.3272   -1.2699 C   0  0  0  0  0  0  0  0  0  0  0  0
   -2.4039   -1.3473   -0.8999 C   0  0  0  0  0  0  0  0  0  0  0  0
   -1.8467   -0.2973   -0.1596 C   0  0  0  0  0  0  0  0  0  0  0  0
   -2.7360    0.6819    0.1480 C   0  0  0  0  0  0  0  0  0  0  0  0
   -0.4224   -0.3081   -0.0337 C   0  0  0  0  0  0  0  0  0  0  0  0
    0.1632    0.5552   -0.7895 O   0  0  0  0  0  0  0  0  0  0  0  0
    0.4247   -1.1033    0.7349 N   0  0  0  0  0  0  0  0  0  0  0  0
    1.8416   -0.8852    0.4888 C   0  0  0  0  0  0  0  0  0  0  0  0
    2.4983   -2.0772    0.0695 C   0  0  0  0  0  0  0  0  0  0  0  0
    3.8743   -1.9688   -0.1894 C   0  0  0  0  0  0  0  0  0  0  0  0
    4.5229   -0.7195   -0.0086 C   0  0  0  0  0  0  0  0  0  0  0  0
    3.8125    0.3749    0.4067 C   0  0  0  0  0  0  0  0  0  0  0  0
    2.4116    0.2744    0.6588 C   0  0  0  0  0  0  0  0  0  0  0  0
    4.5427    1.5874    0.6088 C   0  0  0  0  0  0  0  0  0  0  0  0
    5.6880    2.0728    0.8153 O   0  0  0  0  0  0  0  0  0  0  0  0
    3.5717    2.6705    0.5041 O   0  0  0  0  0  0  0  0  0  0  0  0
   -5.5967   -0.2460   -1.1905 H   0  0  0  0  0  0  0  0  0  0  0  0
   -4.1653   -2.1499   -1.8776 H   0  0  0  0  0  0  0  0  0  0  0  0
   -1.7822   -2.1627   -1.1448 H   0  0  0  0  0  0  0  0  0  0  0  0
   -2.3077    1.5013    0.8179 H   0  0  0  0  0  0  0  0  0  0  0  0
    0.1746   -1.7420    1.4801 H   0  0  0  0  0  0  0  0  0  0  0  0
    1.9798   -2.9750   -0.0626 H   0  0  0  0  0  0  0  0  0  0  0  0
    4.4455   -2.7688   -0.5598 H   0  0  0  0  0  0  0  0  0  0  0  0
    5.6074   -0.7095   -0.2018 H   0  0  0  0  0  0  0  0  0  0  0  0
    1.9160    1.1613    0.9961 H   0  0  0  0  0  0  0  0  0  0  0  0
    6.4455    2.4119    0.1750 H   0  0  0  0  0  0  0  0  0  0  0  0
  1  2  1  0
  2  3  1  0
  2  4  1  0
  2  5  1  0
  5  6  2  0
  6  7  1  0
  7  8  2  0
  8  9  1  0
  9 10  2  0
  9 11  1  0
 11 12  2  0
 11 13  1  0
 13 14  1  0
 14 15  2  0
 15 16  1  0
 16 17  2  0
 17 18  1  0
 18 19  2  0
 18 20  1  0
 20 21  1  0
 20 22  2  0
 10  5  1  0
 19 14  1  0
  6 23  1  0
  7 24  1  0
  8 25  1  0
 10 26  1  0
 13 27  1  0
 15 28  1  0
 16 29  1  0
 17 30  1  0
 19 31  1  0
 21 32  1  0
M  END
$$$$
[H]OC(=O)c1c([H])c([H])c([H])c(N([H])C(=O)c2c([H])c([H])c(-c3c([H])c([H])c(OC([H])([H])[H])c(OC([H])([H])[H])c3[H])c([H])c2[H])c1[H]
     RDKit          3D

 47 49  0  0  0  0  0  0  0  0999 V2000
   -8.1747   -0.6116    0.0188 C   0  0  0  0  0  0  0  0  0  0  0  0
   -7.2464    0.4311    0.1703 O   0  0  0  0  0  0  0  0  0  0  0  0
   -5.8694    0.1688    0.0828 C   0  0  0  0  0  0  0  0  0  0  0  0
   -5.3934   -1.1023   -0.1515 C   0  0  0  0  0  0  0  0  0  0  0  0
   -4.0539   -1.3225   -0.2306 C   0  0  0  0  0  0  0  0  0  0  0  0
   -3.1217   -0.3134   -0.0848 C   0  0  0  0  0  0  0  0  0  0  0  0
   -3.6330    0.9590    0.1508 C   0  0  0  0  0  0  0  0  0  0  0  0
   -4.9792    1.2105    0.2355 C   0  0  0  0  0  0  0  0  0  0  0  0
   -5.4843    2.4688    0.4684 O   0  0  0  0  0  0  0  0  0  0  0  0
   -4.7225    3.6319    0.6461 C   0  0  0  0  0  0  0  0  0  0  0  0
   -1.6899   -0.5559   -0.1709 C   0  0  0  0  0  0  0  0  0  0  0  0
   -1.2245   -1.5504   -1.0013 C   0  0  0  0  0  0  0  0  0  0  0  0
    0.1306   -1.7968   -1.0972 C   0  0  0  0  0  0  0  0  0  0  0  0
    1.0571   -1.0614   -0.3704 C   0  0  0  0  0  0  0  0  0  0  0  0
    0.5928   -0.0749    0.4533 C   0  0  0  0  0  0  0  0  0  0  0  0
   -0.7873    0.1809    0.5551 C   0  0  0  0  0  0  0  0  0  0  0  0
    2.4967   -1.3838   -0.5158 C   0  0  0  0  0  0  0  0  0  0  0  0
    2.7772   -2.4986   -1.0633 O   0  0  0  0  0  0  0  0  0  0  0  0
    3.4989   -0.5080   -0.0744 N   0  0  0  0  0  0  0  0  0  0  0  0
    4.8765   -0.6726   -0.1359 C   0  0  0  0  0  0  0  0  0  0  0  0
    5.5173   -1.8035   -0.4944 C   0  0  0  0  0  0  0  0  0  0  0  0
    6.9123   -1.9033   -0.5481 C   0  0  0  0  0  0  0  0  0  0  0  0
    7.6793   -0.8106   -0.2243 C   0  0  0  0  0  0  0  0  0  0  0  0
    7.0623    0.3674    0.1486 C   0  0  0  0  0  0  0  0  0  0  0  0
    5.6956    0.4234    0.1882 C   0  0  0  0  0  0  0  0  0  0  0  0
    7.8998    1.5310    0.4932 C   0  0  0  0  0  0  0  0  0  0  0  0
    7.3456    2.7373    0.8731 O   0  0  0  0  0  0  0  0  0  0  0  0
    9.1535    1.4528    0.4490 O   0  0  0  0  0  0  0  0  0  0  0  0
   -8.2251   -1.0241   -1.0031 H   0  0  0  0  0  0  0  0  0  0  0  0
   -9.1895   -0.2096    0.2824 H   0  0  0  0  0  0  0  0  0  0  0  0
   -7.9958   -1.4515    0.7233 H   0  0  0  0  0  0  0  0  0  0  0  0
   -6.0649   -1.9260   -0.2735 H   0  0  0  0  0  0  0  0  0  0  0  0
   -3.6209   -2.3192   -0.4157 H   0  0  0  0  0  0  0  0  0  0  0  0
   -2.9438    1.7826    0.2722 H   0  0  0  0  0  0  0  0  0  0  0  0
   -3.7686    3.6407    0.1069 H   0  0  0  0  0  0  0  0  0  0  0  0
   -4.5353    3.7492    1.7482 H   0  0  0  0  0  0  0  0  0  0  0  0
   -5.3427    4.5208    0.3477 H   0  0  0  0  0  0  0  0  0  0  0  0
   -1.9490   -2.1190   -1.5643 H   0  0  0  0  0  0  0  0  0  0  0  0
    0.4952   -2.5805   -1.7518 H   0  0  0  0  0  0  0  0  0  0  0  0
    1.2906    0.5109    1.0345 H   0  0  0  0  0  0  0  0  0  0  0  0
   -1.1124    0.9711    1.2190 H   0  0  0  0  0  0  0  0  0  0  0  0
    3.1347    0.4004    0.3612 H   0  0  0  0  0  0  0  0  0  0  0  0
    5.0024   -2.7023   -0.7545 H   0  0  0  0  0  0  0  0  0  0  0  0
    7.4157   -2.8101   -0.8356 H   0  0  0  0  0  0  0  0  0  0  0  0
    8.7698   -0.8655   -0.2592 H   0  0  0  0  0  0  0  0  0  0  0  0
    5.2600    1.3739    0.4880 H   0  0  0  0  0  0  0  0  0  0  0  0
    7.0641    3.4650    0.2298 H   0  0  0  0  0  0  0  0  0  0  0  0
  1  2  1  0
  2  3  1  0
  3  4  2  0
  4  5  1  0
  5  6  2  0
  6  7  1  0
  7  8  2  0
  8  9  1  0
  9 10  1  0
  6 11  1  0
 11 12  2  0
 12 13  1  0
 13 14  2  0
 14 15  1  0
 15 16  2  0
 14 17  1  0
 17 18  2  0
 17 19  1  0
 19 20  1  0
 20 21  2  0
 21 22  1  0
 22 23  2  0
 23 24  1  0
 24 25  2  0
 24 26  1  0
 26 27  1  0
 26 28  2  0
  8  3  1  0
 16 11  1  0
 25 20  1  0
  1 29  1  0
  1 30  1  0
  1 31  1  0
  4 32  1  0
  5 33  1  0
  7 34  1  0
 10 35  1  0
 10 36  1  0
 10 37  1  0
 12 38  1  0
 13 39  1  0
 15 40  1  0
 16 41  1  0
 19 42  1  0
 21 43  1  0
 22 44  1  0
 23 45  1  0
 25 46  1  0
 27 47  1  0
M  END
$$$$
[H]OC(=O)c1c([H])c([H])c([H])c(-c2c([H])c([H])c(C(=O)N([H])c3c([H])c([H])c([H])c(C(=O)O[H])c3[H])c([H])c2[H])c1[H]
     RDKit          3D

 42 44  0  0  0  0  0  0  0  0999 V2000
   -6.9875    2.3541   -0.5135 O   0  0  0  0  0  0  0  0  0  0  0  0
   -7.2887    1.0725   -0.0855 C   0  0  0  0  0  0  0  0  0  0  0  0
   -8.4824    0.7341    0.0841 O   0  0  0  0  0  0  0  0  0  0  0  0
   -6.2505    0.0915    0.1777 C   0  0  0  0  0  0  0  0  0  0  0  0
   -6.5519   -1.1837    0.6052 C   0  0  0  0  0  0  0  0  0  0  0  0
   -5.5405   -2.1175    0.8549 C   0  0  0  0  0  0  0  0  0  0  0  0
   -4.2148   -1.7902    0.6811 C   0  0  0  0  0  0  0  0  0  0  0  0
   -3.9206   -0.5158    0.2542 C   0  0  0  0  0  0  0  0  0  0  0  0
   -4.9055    0.4172    0.0034 C   0  0  0  0  0  0  0  0  0  0  0  0
   -2.5274   -0.1405    0.0621 C   0  0  0  0  0  0  0  0  0  0  0  0
   -1.5136   -0.6662    0.8272 C   0  0  0  0  0  0  0  0  0  0  0  0
   -0.1712   -0.3272    0.6663 C   0  0  0  0  0  0  0  0  0  0  0  0
    0.1319    0.5783   -0.3110 C   0  0  0  0  0  0  0  0  0  0  0  0
   -0.8686    1.1175   -1.0892 C   0  0  0  0  0  0  0  0  0  0  0  0
   -2.1902    0.7751   -0.9205 C   0  0  0  0  0  0  0  0  0  0  0  0
    1.5184    0.9629   -0.5322 C   0  0  0  0  0  0  0  0  0  0  0  0
    1.6753    2.0865   -1.0976 O   0  0  0  0  0  0  0  0  0  0  0  0
    2.5535    0.1224   -0.1341 N   0  0  0  0  0  0  0  0  0  0  0  0
    3.9514    0.3137   -0.2585 C   0  0  0  0  0  0  0  0  0  0  0  0
    4.5454    1.3417   -0.9222 C   0  0  0  0  0  0  0  0  0  0  0  0
    5.9370    1.4867   -1.0047 C   0  0  0  0  0  0  0  0  0  0  0  0
    6.7557    0.5684   -0.4007 C   0  0  0  0  0  0  0  0  0  0  0  0
    6.1919   -0.4934    0.2849 C   0  0  0  0  0  0  0  0  0  0  0  0
    4.8233   -0.6020    0.3441 C   0  0  0  0  0  0  0  0  0  0  0  0
    7.0701   -1.4643    0.9245 C   0  0  0  0  0  0  0  0  0  0  0  0
    8.4466   -1.3307    0.8509 O   0  0  0  0  0  0  0  0  0  0  0  0
    6.5314   -2.4187    1.5397 O   0  0  0  0  0  0  0  0  0  0  0  0
   -6.1422    2.8597   -0.2087 H   0  0  0  0  0  0  0  0  0  0  0  0
   -7.5861   -1.4592    0.7474 H   0  0  0  0  0  0  0  0  0  0  0  0
   -5.8169   -3.1162    1.1917 H   0  0  0  0  0  0  0  0  0  0  0  0
   -3.4755   -2.5515    0.8891 H   0  0  0  0  0  0  0  0  0  0  0  0
   -4.6619    1.4148   -0.3315 H   0  0  0  0  0  0  0  0  0  0  0  0
   -1.7466   -1.3779    1.5958 H   0  0  0  0  0  0  0  0  0  0  0  0
    0.5452   -0.7971    1.3277 H   0  0  0  0  0  0  0  0  0  0  0  0
   -0.6528    1.8449   -1.8782 H   0  0  0  0  0  0  0  0  0  0  0  0
   -2.9795    1.2022   -1.5364 H   0  0  0  0  0  0  0  0  0  0  0  0
    2.2364   -0.8058    0.3248 H   0  0  0  0  0  0  0  0  0  0  0  0
    3.9409    2.0882   -1.4187 H   0  0  0  0  0  0  0  0  0  0  0  0
    6.3730    2.3129   -1.5383 H   0  0  0  0  0  0  0  0  0  0  0  0
    7.8382    0.6302   -0.4318 H   0  0  0  0  0  0  0  0  0  0  0  0
    4.3973   -1.4322    0.8805 H   0  0  0  0  0  0  0  0  0  0  0  0
    9.0122   -1.7854    1.5541 H   0  0  0  0  0  0  0  0  0  0  0  0
  1  2  1  0
  2  3  2  0
  2  4  1  0
  4  5  2  0
  5  6  1  0
  6  7  2  0
  7  8  1  0
  8  9  2  0
  8 10  1  0
 10 11  2  0
 11 12  1  0
 12 13  2  0
 13 14  1  0
 14 15  2  0
 13 16  1  0
 16 17  2  0
 16 18  1  0
 18 19  1  0
 19 20  2  0
 20 21  1  0
 21 22  2  0
 22 23  1  0
 23 24  2  0
 23 25  1  0
 25 26  1  0
 25 27  2  0
  9  4  1  0
 15 10  1  0
 24 19  1  0
  1 28  1  0
  5 29  1  0
  6 30  1  0
  7 31  1  0
  9 32  1  0
 11 33  1  0
 12 34  1  0
 14 35  1  0
 15 36  1  0
 18 37  1  0
 20 38  1  0
 21 39  1  0
 22 40  1  0
 24 41  1  0
 26 42  1  0
M  END
$$$$
[H]OC(=O)c1c([H])c([H])c([H])c(C(=O)N([H])c2c([H])c([H])c([H])c(C(F)(F)F)c2[H])c1[H]
     RDKit          3D

 32 33  0  0  0  0  0  0  0  0999 V2000
    6.0144    1.7476   -0.9236 O   0  0  0  0  0  0  0  0  0  0  0  0
    4.6981    1.4359   -1.1744 C   0  0  0  0  0  0  0  0  0  0  0  0
    4.1467    1.9660   -2.1581 O   0  0  0  0  0  0  0  0  0  0  0  0
    3.9478    0.5061   -0.3236 C   0  0  0  0  0  0  0  0  0  0  0  0
    4.5584   -0.0574    0.7938 C   0  0  0  0  0  0  0  0  0  0  0  0
    3.8193   -0.9570    1.5432 C   0  0  0  0  0  0  0  0  0  0  0  0
    2.5162   -1.2701    1.1703 C   0  0  0  0  0  0  0  0  0  0  0  0
    1.9142   -0.7100    0.0602 C   0  0  0  0  0  0  0  0  0  0  0  0
    2.6626    0.1883   -0.6814 C   0  0  0  0  0  0  0  0  0  0  0  0
    0.5333   -1.0464   -0.3443 C   0  0  0  0  0  0  0  0  0  0  0  0
    0.3659   -1.9385   -1.1714 O   0  0  0  0  0  0  0  0  0  0  0  0
   -0.5206   -0.3224    0.2504 N   0  0  0  0  0  0  0  0  0  0  0  0
   -1.9010   -0.5037   -0.0133 C   0  0  0  0  0  0  0  0  0  0  0  0
   -2.4887   -1.5911   -0.6090 C   0  0  0  0  0  0  0  0  0  0  0  0
   -3.8548   -1.6931   -0.8510 C   0  0  0  0  0  0  0  0  0  0  0  0
   -4.6433   -0.6424   -0.4698 C   0  0  0  0  0  0  0  0  0  0  0  0
   -4.0903    0.4831    0.1346 C   0  0  0  0  0  0  0  0  0  0  0  0
   -2.7548    0.5406    0.3560 C   0  0  0  0  0  0  0  0  0  0  0  0
   -4.9365    1.6363    0.5102 C   0  0  0  0  0  0  0  0  0  0  0  0
   -4.5816    2.0076    1.7852 F   0  0  0  0  0  0  0  0  0  0  0  0
   -4.8077    2.5987   -0.4292 F   0  0  0  0  0  0  0  0  0  0  0  0
   -6.2996    1.2144    0.4497 F   0  0  0  0  0  0  0  0  0  0  0  0
    6.2921    2.6566   -0.5399 H   0  0  0  0  0  0  0  0  0  0  0  0
    5.5850    0.2080    1.0111 H   0  0  0  0  0  0  0  0  0  0  0  0
    4.2796   -1.3663    2.4149 H   0  0  0  0  0  0  0  0  0  0  0  0
    1.9158   -1.9619    1.7611 H   0  0  0  0  0  0  0  0  0  0  0  0
    2.1630    0.6113   -1.5621 H   0  0  0  0  0  0  0  0  0  0  0  0
   -0.2723    0.4269    0.9768 H   0  0  0  0  0  0  0  0  0  0  0  0
   -1.8657   -2.4172   -0.8789 H   0  0  0  0  0  0  0  0  0  0  0  0
   -4.3020   -2.5549   -1.3089 H   0  0  0  0  0  0  0  0  0  0  0  0
   -5.7155   -0.6317   -0.6188 H   0  0  0  0  0  0  0  0  0  0  0  0
   -2.3781    1.4368    0.8403 H   0  0  0  0  0  0  0  0  0  0  0  0
  1  2  1  0
  2  3  2  0
  2  4  1  0
  4  5  2  0
  5  6  1  0
  6  7  2  0
  7  8  1  0
  8  9  2  0
  8 10  1  0
 10 11  2  0
 10 12  1  0
 12 13  1  0
 13 14  2  0
 14 15  1  0
 15 16  2  0
 16 17  1  0
 17 18  2  0
 17 19  1  0
 19 20  1  0
 19 21  1  0
 19 22  1  0
  9  4  1  0
 18 13  1  0
  1 23  1  0
  5 24  1  0
  6 25  1  0
  7 26  1  0
  9 27  1  0
 12 28  1  0
 14 29  1  0
 15 30  1  0
 16 31  1  0
 18 32  1  0
M  END
$$$$
[H]OC(=O)c1c([H])c([H])c([H])c(N([H])C(=O)c2c([H])c([H])c(-c3c([H])c([H])c([H])c(S(=O)(=O)N([H])[H])c3[H])c([H])c2[H])c1[H]
     RDKit          3D

 44 46  0  0  0  0  0  0  0  0999 V2000
   -7.8637   -1.1164    0.4193 N   0  0  0  0  0  0  0  0  0  0  0  0
   -6.8559   -0.0016    1.2562 S   0  0  0  0  0  0  0  0  0  0  0  0
   -7.5798    1.2585    1.6279 O   0  0  0  0  0  0  0  0  0  0  0  0
   -6.2934   -0.6849    2.4859 O   0  0  0  0  0  0  0  0  0  0  0  0
   -5.5364    0.3380    0.1134 C   0  0  0  0  0  0  0  0  0  0  0  0
   -5.8196    1.0930   -0.9295 C   0  0  0  0  0  0  0  0  0  0  0  0
   -4.7450    1.2471   -1.8659 C   0  0  0  0  0  0  0  0  0  0  0  0
   -3.5632    0.7153   -1.7084 C   0  0  0  0  0  0  0  0  0  0  0  0
   -3.2947   -0.1030   -0.5086 C   0  0  0  0  0  0  0  0  0  0  0  0
   -4.2775   -0.2569    0.3300 C   0  0  0  0  0  0  0  0  0  0  0  0
   -1.8032   -0.3917   -0.2531 C   0  0  0  0  0  0  0  0  0  0  0  0
   -1.5275   -0.4485    1.1267 C   0  0  0  0  0  0  0  0  0  0  0  0
   -0.1875   -0.0493    1.5040 C   0  0  0  0  0  0  0  0  0  0  0  0
    0.6105    0.3215    0.6045 C   0  0  0  0  0  0  0  0  0  0  0  0
    0.4346    0.3594   -0.7554 C   0  0  0  0  0  0  0  0  0  0  0  0
   -0.8723   -0.0237   -1.1818 C   0  0  0  0  0  0  0  0  0  0  0  0
    1.7793    1.4247    0.9075 C   0  0  0  0  0  0  0  0  0  0  0  0
    1.4825    2.3584    1.2385 O   0  0  0  0  0  0  0  0  0  0  0  0
    2.9671    0.7053    0.5982 N   0  0  0  0  0  0  0  0  0  0  0  0
    4.0900    0.0448    0.3124 C   0  0  0  0  0  0  0  0  0  0  0  0
    3.9576   -1.4408    0.3801 C   0  0  0  0  0  0  0  0  0  0  0  0
    5.0492   -2.2069    0.2191 C   0  0  0  0  0  0  0  0  0  0  0  0
    6.2358   -1.6450   -0.0050 C   0  0  0  0  0  0  0  0  0  0  0  0
    6.4768   -0.2950   -0.1243 C   0  0  0  0  0  0  0  0  0  0  0  0
    5.3591    0.4531    0.0520 C   0  0  0  0  0  0  0  0  0  0  0  0
    7.8090    0.1980   -0.3048 C   0  0  0  0  0  0  0  0  0  0  0  0
    9.0484    0.2049   -0.4117 O   0  0  0  0  0  0  0  0  0  0  0  0
    7.5277    1.6933   -0.5259 O   0  0  0  0  0  0  0  0  0  0  0  0
   -7.6397   -1.3179   -0.5655 H   0  0  0  0  0  0  0  0  0  0  0  0
   -8.0786   -1.8854    1.0401 H   0  0  0  0  0  0  0  0  0  0  0  0
   -6.7534    1.6047   -1.0282 H   0  0  0  0  0  0  0  0  0  0  0  0
   -4.9989    1.9013   -2.7637 H   0  0  0  0  0  0  0  0  0  0  0  0
   -2.7659    0.8150   -2.3831 H   0  0  0  0  0  0  0  0  0  0  0  0
   -4.1579   -0.8765    1.2114 H   0  0  0  0  0  0  0  0  0  0  0  0
   -2.2625   -0.7690    1.8069 H   0  0  0  0  0  0  0  0  0  0  0  0
    0.0417   -0.1191    2.5804 H   0  0  0  0  0  0  0  0  0  0  0  0
    1.1390    0.6108   -1.4967 H   0  0  0  0  0  0  0  0  0  0  0  0
   -1.1342   -0.1337   -2.2136 H   0  0  0  0  0  0  0  0  0  0  0  0
    3.6413    1.8038    1.0109 H   0  0  0  0  0  0  0  0  0  0  0  0
    3.0044   -1.8505    0.5570 H   0  0  0  0  0  0  0  0  0  0  0  0
    4.8760   -3.3053    0.2735 H   0  0  0  0  0  0  0  0  0  0  0  0
    7.1523   -2.2765    0.0272 H   0  0  0  0  0  0  0  0  0  0  0  0
    5.4820    1.5351   -0.0585 H   0  0  0  0  0  0  0  0  0  0  0  0
    9.8467    0.5113    0.0376 H   0  0  0  0  0  0  0  0  0  0  0  0
  1  2  1  0
  2  3  2  0
  2  4  2  0
  2  5  1  0
  5  6  2  0
  6  7  1  0
  7  8  2  0
  8  9  1  0
  9 10  2  0
  9 11  1  0
 11 12  2  0
 12 13  1  0
 13 14  2  0
 14 15  1  0
 15 16  2  0
 14 17  1  0
 17 18  2  0
 17 19  1  0
 19 20  1  0
 20 21  2  0
 21 22  1  0
 22 23  2  0
 23 24  1  0
 24 25  2  0
 24 26  1  0
 26 27  1  0
 26 28  2  0
 10  5  1  0
 16 11  1  0
 25 20  1  0
  1 29  1  0
  1 30  1  0
  6 31  1  0
  7 32  1  0
  8 33  1  0
 10 34  1  0
 12 35  1  0
 13 36  1  0
 15 37  1  0
 16 38  1  0
 19 39  1  0
 21 40  1  0
 22 41  1  0
 23 42  1  0
 25 43  1  0
 27 44  1  0
M  END
$$$$
[H]c1c([H])c(N([H])C(=O)c2c([H])c([H])c(-c3c([H])c([H])c(OC([H])([H])[H])c(OC([H])([H])[H])c3[H])c([H])c2[H])c([H])c(C(F)(F)F)c1[H]
     RDKit          3D

 47 49  0  0  0  0  0  0  0  0999 V2000
   -7.8512    1.4717   -0.1409 C   0  0  0  0  0  0  0  0  0  0  0  0
   -7.2287    0.2009   -0.0231 O   0  0  0  0  0  0  0  0  0  0  0  0
   -5.8561    0.0759   -0.0069 C   0  0  0  0  0  0  0  0  0  0  0  0
   -5.0876    1.2197   -0.1007 C   0  0  0  0  0  0  0  0  0  0  0  0
   -3.7184    1.1611   -0.0923 C   0  0  0  0  0  0  0  0  0  0  0  0
   -3.0549   -0.0706    0.0136 C   0  0  0  0  0  0  0  0  0  0  0  0
   -3.8335   -1.2046    0.1077 C   0  0  0  0  0  0  0  0  0  0  0  0
   -5.2197   -1.1391    0.0972 C   0  0  0  0  0  0  0  0  0  0  0  0
   -5.9505   -2.2853    0.1914 O   0  0  0  0  0  0  0  0  0  0  0  0
   -5.4783   -3.5850    0.3024 C   0  0  0  0  0  0  0  0  0  0  0  0
   -1.6042   -0.0790   -0.0047 C   0  0  0  0  0  0  0  0  0  0  0  0
   -0.9128   -1.1269   -0.5332 C   0  0  0  0  0  0  0  0  0  0  0  0
    0.4829   -1.1641   -0.6187 C   0  0  0  0  0  0  0  0  0  0  0  0
    1.1569   -0.0534   -0.1261 C   0  0  0  0  0  0  0  0  0  0  0  0
    0.5139    1.0044    0.4075 C   0  0  0  0  0  0  0  0  0  0  0  0
   -0.8845    1.0068    0.4766 C   0  0  0  0  0  0  0  0  0  0  0  0
    2.6349   -0.0842   -0.2769 C   0  0  0  0  0  0  0  0  0  0  0  0
    3.1562   -1.0245   -0.9062 O   0  0  0  0  0  0  0  0  0  0  0  0
    3.4305    0.9301    0.2771 N   0  0  0  0  0  0  0  0  0  0  0  0
    4.8316    0.9641    0.1651 C   0  0  0  0  0  0  0  0  0  0  0  0
    5.4052    2.2360    0.3555 C   0  0  0  0  0  0  0  0  0  0  0  0
    6.7600    2.3438    0.2641 C   0  0  0  0  0  0  0  0  0  0  0  0
    7.6003    1.2909   -0.0028 C   0  0  0  0  0  0  0  0  0  0  0  0
    7.0276    0.0665   -0.1838 C   0  0  0  0  0  0  0  0  0  0  0  0
    5.6325   -0.1113   -0.1014 C   0  0  0  0  0  0  0  0  0  0  0  0
    7.8677   -1.1166   -0.4839 C   0  0  0  0  0  0  0  0  0  0  0  0
    7.0848   -2.2581   -0.5539 F   0  0  0  0  0  0  0  0  0  0  0  0
    8.4657   -1.0058   -1.7455 F   0  0  0  0  0  0  0  0  0  0  0  0
    8.8894   -1.2588    0.4480 F   0  0  0  0  0  0  0  0  0  0  0  0
   -8.9460    1.3275   -0.0653 H   0  0  0  0  0  0  0  0  0  0  0  0
   -7.5328    2.1579    0.6502 H   0  0  0  0  0  0  0  0  0  0  0  0
   -7.6485    1.9187   -1.1534 H   0  0  0  0  0  0  0  0  0  0  0  0
   -5.5841    2.1820   -0.1829 H   0  0  0  0  0  0  0  0  0  0  0  0
   -3.1249    2.0390   -0.1659 H   0  0  0  0  0  0  0  0  0  0  0  0
   -3.3596   -2.1699    0.1922 H   0  0  0  0  0  0  0  0  0  0  0  0
   -4.6374   -3.8410   -0.3815 H   0  0  0  0  0  0  0  0  0  0  0  0
   -5.1524   -3.8718    1.3280 H   0  0  0  0  0  0  0  0  0  0  0  0
   -6.2824   -4.3302    0.0582 H   0  0  0  0  0  0  0  0  0  0  0  0
   -1.4489   -1.9879   -0.9110 H   0  0  0  0  0  0  0  0  0  0  0  0
    1.0246   -1.9825   -1.0290 H   0  0  0  0  0  0  0  0  0  0  0  0
    0.9976    1.8769    0.7944 H   0  0  0  0  0  0  0  0  0  0  0  0
   -1.4264    1.8235    0.8891 H   0  0  0  0  0  0  0  0  0  0  0  0
    2.9243    1.7116    0.8206 H   0  0  0  0  0  0  0  0  0  0  0  0
    4.7612    3.1072    0.5701 H   0  0  0  0  0  0  0  0  0  0  0  0
    7.2525    3.3097    0.4092 H   0  0  0  0  0  0  0  0  0  0  0  0
    8.6929    1.4256   -0.0679 H   0  0  0  0  0  0  0  0  0  0  0  0
    5.2305   -1.1006   -0.2345 H   0  0  0  0  0  0  0  0  0  0  0  0
  1  2  1  0
  2  3  1  0
  3  4  2  0
  4  5  1  0
  5  6  2  0
  6  7  1  0
  7  8  2  0
  8  9  1  0
  9 10  1  0
  6 11  1  0
 11 12  2  0
 12 13  1  0
 13 14  2  0
 14 15  1  0
 15 16  2  0
 14 17  1  0
 17 18  2  0
 17 19  1  0
 19 20  1  0
 20 21  2  0
 21 22  1  0
 22 23  2  0
 23 24  1  0
 24 25  2  0
 24 26  1  0
 26 27  1  0
 26 28  1  0
 26 29  1  0
  8  3  1  0
 16 11  1  0
 25 20  1  0
  1 30  1  0
  1 31  1  0
  1 32  1  0
  4 33  1  0
  5 34  1  0
  7 35  1  0
 10 36  1  0
 10 37  1  0
 10 38  1  0
 12 39  1  0
 13 40  1  0
 15 41  1  0
 16 42  1  0
 19 43  1  0
 21 44  1  0
 22 45  1  0
 23 46  1  0
 25 47  1  0
M  END
$$$$
[H]OC(=O)c1c([H])c([H])c(-c2c([H])c([H])c(C(=O)N([H])c3c([H])c([H])c([H])c(C(=O)O[H])c3[H])c([H])c2[H])c([H])c1[H]
     RDKit          3D

 42 44  0  0  0  0  0  0  0  0999 V2000
   -8.3775    1.1464    2.0128 O   0  0  0  0  0  0  0  0  0  0  0  0
   -8.0048    0.4927    0.8542 C   0  0  0  0  0  0  0  0  0  0  0  0
   -8.9304    0.0936    0.0944 O   0  0  0  0  0  0  0  0  0  0  0  0
   -6.6159    0.2857    0.5450 C   0  0  0  0  0  0  0  0  0  0  0  0
   -6.1896   -0.3665   -0.6093 C   0  0  0  0  0  0  0  0  0  0  0  0
   -4.8419   -0.5426   -0.8652 C   0  0  0  0  0  0  0  0  0  0  0  0
   -3.8803   -0.0841    0.0034 C   0  0  0  0  0  0  0  0  0  0  0  0
   -4.3195    0.5578    1.1390 C   0  0  0  0  0  0  0  0  0  0  0  0
   -5.6535    0.7467    1.4186 C   0  0  0  0  0  0  0  0  0  0  0  0
   -2.4397   -0.2535   -0.2380 C   0  0  0  0  0  0  0  0  0  0  0  0
   -1.9504   -1.3434   -0.9086 C   0  0  0  0  0  0  0  0  0  0  0  0
   -0.5968   -1.4916   -1.1297 C   0  0  0  0  0  0  0  0  0  0  0  0
    0.3216   -0.5611   -0.6919 C   0  0  0  0  0  0  0  0  0  0  0  0
   -0.1719    0.5333   -0.0185 C   0  0  0  0  0  0  0  0  0  0  0  0
   -1.5437    0.6917    0.2102 C   0  0  0  0  0  0  0  0  0  0  0  0
    1.7726   -0.7489   -0.9526 C   0  0  0  0  0  0  0  0  0  0  0  0
    2.0002   -1.5983   -1.8664 O   0  0  0  0  0  0  0  0  0  0  0  0
    2.7409   -0.0433   -0.2412 N   0  0  0  0  0  0  0  0  0  0  0  0
    4.1453   -0.1142   -0.3799 C   0  0  0  0  0  0  0  0  0  0  0  0
    4.8051   -0.8428   -1.3447 C   0  0  0  0  0  0  0  0  0  0  0  0
    6.2003   -0.8751   -1.4193 C   0  0  0  0  0  0  0  0  0  0  0  0
    6.9476   -0.1678   -0.5149 C   0  0  0  0  0  0  0  0  0  0  0  0
    6.3350    0.5775    0.4702 C   0  0  0  0  0  0  0  0  0  0  0  0
    4.9687    0.5890    0.5170 C   0  0  0  0  0  0  0  0  0  0  0  0
    7.1320    1.3321    1.4364 C   0  0  0  0  0  0  0  0  0  0  0  0
    8.5272    1.2822    1.3441 O   0  0  0  0  0  0  0  0  0  0  0  0
    6.5413    2.0049    2.3239 O   0  0  0  0  0  0  0  0  0  0  0  0
   -8.5606    0.6732    2.8976 H   0  0  0  0  0  0  0  0  0  0  0  0
   -6.9611   -0.7222   -1.2842 H   0  0  0  0  0  0  0  0  0  0  0  0
   -4.5548   -1.0520   -1.7691 H   0  0  0  0  0  0  0  0  0  0  0  0
   -3.5977    0.9382    1.8571 H   0  0  0  0  0  0  0  0  0  0  0  0
   -5.9262    1.2662    2.3410 H   0  0  0  0  0  0  0  0  0  0  0  0
   -2.6062   -2.1190   -1.2843 H   0  0  0  0  0  0  0  0  0  0  0  0
   -0.2264   -2.3749   -1.6698 H   0  0  0  0  0  0  0  0  0  0  0  0
    0.5113    1.2818    0.3352 H   0  0  0  0  0  0  0  0  0  0  0  0
   -1.8929    1.5679    0.7449 H   0  0  0  0  0  0  0  0  0  0  0  0
    2.3803    0.6298    0.4974 H   0  0  0  0  0  0  0  0  0  0  0  0
    4.2768   -1.4082   -2.0758 H   0  0  0  0  0  0  0  0  0  0  0  0
    6.7138   -1.4475   -2.1769 H   0  0  0  0  0  0  0  0  0  0  0  0
    8.0255   -0.1795   -0.5550 H   0  0  0  0  0  0  0  0  0  0  0  0
    4.4671    1.1719    1.2885 H   0  0  0  0  0  0  0  0  0  0  0  0
    9.0294    0.4740    1.7228 H   0  0  0  0  0  0  0  0  0  0  0  0
  1  2  1  0
  2  3  2  0
  2  4  1  0
  4  5  2  0
  5  6  1  0
  6  7  2  0
  7  8  1  0
  8  9  2  0
  7 10  1  0
 10 11  2  0
 11 12  1  0
 12 13  2  0
 13 14  1  0
 14 15  2  0
 13 16  1  0
 16 17  2  0
 16 18  1  0
 18 19  1  0
 19 20  2  0
 20 21  1  0
 21 22  2  0
 22 23  1  0
 23 24  2  0
 23 25  1  0
 25 26  1  0
 25 27  2  0
  9  4  1  0
 15 10  1  0
 24 19  1  0
  1 28  1  0
  5 29  1  0
  6 30  1  0
  8 31  1  0
  9 32  1  0
 11 33  1  0
 12 34  1  0
 14 35  1  0
 15 36  1  0
 18 37  1  0
 20 38  1  0
 21 39  1  0
 22 40  1  0
 24 41  1  0
 26 42  1  0
M  END
$$$$
[H]c1c([H])c(C(=O)N2C([H])([H])C([H])([H])N(c3c([H])c([H])c(C#N)c([H])c3[H])C([H])([H])C2([H])[H])c([H])c(C(F)(F)F)c1[H]
     RDKit          3D

 42 44  0  0  0  0  0  0  0  0999 V2000
    6.3014   -0.5862    2.4314 F   0  0  0  0  0  0  0  0  0  0  0  0
    6.6428   -0.6123    1.0915 C   0  0  0  0  0  0  0  0  0  0  0  0
    7.0256   -1.9169    0.7780 F   0  0  0  0  0  0  0  0  0  0  0  0
    7.7080    0.2070    0.9053 F   0  0  0  0  0  0  0  0  0  0  0  0
    5.4546   -0.2916    0.2563 C   0  0  0  0  0  0  0  0  0  0  0  0
    5.5685   -0.1320   -1.0928 C   0  0  0  0  0  0  0  0  0  0  0  0
    4.4482    0.1450   -1.8482 C   0  0  0  0  0  0  0  0  0  0  0  0
    3.1902    0.2608   -1.2370 C   0  0  0  0  0  0  0  0  0  0  0  0
    3.0618    0.1029    0.1186 C   0  0  0  0  0  0  0  0  0  0  0  0
    4.2306   -0.1788    0.8567 C   0  0  0  0  0  0  0  0  0  0  0  0
    1.8147    0.1778    0.8245 C   0  0  0  0  0  0  0  0  0  0  0  0
    1.9955   -0.0400    2.1586 O   0  0  0  0  0  0  0  0  0  0  0  0
    0.5071    0.4046    0.5151 N   0  0  0  0  0  0  0  0  0  0  0  0
   -0.4467    0.3009    1.6798 C   0  0  0  0  0  0  0  0  0  0  0  0
   -1.4061   -0.8553    1.3204 C   0  0  0  0  0  0  0  0  0  0  0  0
   -2.0323   -0.4629    0.0683 N   0  0  0  0  0  0  0  0  0  0  0  0
   -1.1000   -0.3908   -1.0592 C   0  0  0  0  0  0  0  0  0  0  0  0
   -0.1414    0.7577   -0.6913 C   0  0  0  0  0  0  0  0  0  0  0  0
   -3.4099   -0.1653   -0.0455 C   0  0  0  0  0  0  0  0  0  0  0  0
   -3.8365    0.6625   -1.0468 C   0  0  0  0  0  0  0  0  0  0  0  0
   -5.1872    0.9693   -1.2069 C   0  0  0  0  0  0  0  0  0  0  0  0
   -6.1577    0.4552   -0.3670 C   0  0  0  0  0  0  0  0  0  0  0  0
   -5.7073   -0.3818    0.6456 C   0  0  0  0  0  0  0  0  0  0  0  0
   -4.3552   -0.6905    0.8094 C   0  0  0  0  0  0  0  0  0  0  0  0
   -7.5517    0.7379   -0.5110 C   0  0  0  0  0  0  0  0  0  0  0  0
   -8.6946    0.9538   -0.6480 N   0  0  0  0  0  0  0  0  0  0  0  0
    6.5440   -0.2227   -1.5653 H   0  0  0  0  0  0  0  0  0  0  0  0
    4.5075    0.2765   -2.9126 H   0  0  0  0  0  0  0  0  0  0  0  0
    2.3546    0.4613   -1.8489 H   0  0  0  0  0  0  0  0  0  0  0  0
    4.1898   -0.3091    1.9225 H   0  0  0  0  0  0  0  0  0  0  0  0
   -1.0246    1.2374    1.6749 H   0  0  0  0  0  0  0  0  0  0  0  0
    0.0458    0.0659    2.6028 H   0  0  0  0  0  0  0  0  0  0  0  0
   -2.0738   -0.9797    2.1586 H   0  0  0  0  0  0  0  0  0  0  0  0
   -0.7666   -1.7353    1.0956 H   0  0  0  0  0  0  0  0  0  0  0  0
   -0.4753   -1.3120   -1.0245 H   0  0  0  0  0  0  0  0  0  0  0  0
   -1.5985   -0.2151   -2.0167 H   0  0  0  0  0  0  0  0  0  0  0  0
    0.4163    1.1250   -1.5282 H   0  0  0  0  0  0  0  0  0  0  0  0
   -0.9061    1.5859   -0.3876 H   0  0  0  0  0  0  0  0  0  0  0  0
   -3.1241    1.0898   -1.7163 H   0  0  0  0  0  0  0  0  0  0  0  0
   -5.5410    1.6327   -2.0028 H   0  0  0  0  0  0  0  0  0  0  0  0
   -6.4466   -0.7985    1.3140 H   0  0  0  0  0  0  0  0  0  0  0  0
   -4.0239   -1.3333    1.5869 H   0  0  0  0  0  0  0  0  0  0  0  0
  1  2  1  0
  2  3  1  0
  2  4  1  0
  2  5  1  0
  5  6  2  0
  6  7  1  0
  7  8  2  0
  8  9  1  0
  9 10  2  0
  9 11  1  0
 11 12  2  0
 11 13  1  0
 13 14  1  0
 14 15  1  0
 15 16  1  0
 16 17  1  0
 17 18  1  0
 16 19  1  0
 19 20  2  0
 20 21  1  0
 21 22  2  0
 22 23  1  0
 23 24  2  0
 22 25  1  0
 25 26  3  0
 10  5  1  0
 18 13  1  0
 24 19  1  0
  6 27  1  0
  7 28  1  0
  8 29  1  0
 10 30  1  0
 14 31  1  0
 14 32  1  0
 15 33  1  0
 15 34  1  0
 17 35  1  0
 17 36  1  0
 18 37  1  0
 18 38  1  0
 20 39  1  0
 21 40  1  0
 23 41  1  0
 24 42  1  0
M  END
$$$$
[H]OC(=O)c1c([H])c([H])c(N([H])C(=O)c2c([H])c([H])c([H])c(C(F)(F)F)c2[H])c(S(=O)(=O)N2C([H])([H])C([H])([H])OC([H])([H])C2([H])[H])c1[H]
     RDKit          3D

 48 50  0  0  0  0  0  0  0  0999 V2000
    4.8237   -3.7048   -0.2190 F   0  0  0  0  0  0  0  0  0  0  0  0
    3.8439   -3.2254    0.6296 C   0  0  0  0  0  0  0  0  0  0  0  0
    3.9809   -3.9124    1.8399 F   0  0  0  0  0  0  0  0  0  0  0  0
    2.6299   -3.5035    0.0883 F   0  0  0  0  0  0  0  0  0  0  0  0
    4.0537   -1.7750    0.8523 C   0  0  0  0  0  0  0  0  0  0  0  0
    5.2248   -1.2802    1.3817 C   0  0  0  0  0  0  0  0  0  0  0  0
    5.3467    0.0955    1.5627 C   0  0  0  0  0  0  0  0  0  0  0  0
    4.3384    0.9556    1.2289 C   0  0  0  0  0  0  0  0  0  0  0  0
    3.1389    0.4879    0.6906 C   0  0  0  0  0  0  0  0  0  0  0  0
    3.0477   -0.8698    0.5245 C   0  0  0  0  0  0  0  0  0  0  0  0
    2.0765    1.4446    0.3304 C   0  0  0  0  0  0  0  0  0  0  0  0
    2.3442    2.6697    0.6049 O   0  0  0  0  0  0  0  0  0  0  0  0
    0.8823    1.0290   -0.2630 N   0  0  0  0  0  0  0  0  0  0  0  0
   -0.2178    1.8284   -0.6662 C   0  0  0  0  0  0  0  0  0  0  0  0
   -0.2823    3.1882   -0.5065 C   0  0  0  0  0  0  0  0  0  0  0  0
   -1.3826    3.9434   -0.9326 C   0  0  0  0  0  0  0  0  0  0  0  0
   -2.4622    3.3544   -1.5356 C   0  0  0  0  0  0  0  0  0  0  0  0
   -2.4119    2.0005   -1.7002 C   0  0  0  0  0  0  0  0  0  0  0  0
   -1.3157    1.2391   -1.2768 C   0  0  0  0  0  0  0  0  0  0  0  0
   -1.3608   -0.4963   -1.5006 S   0  0  0  0  0  0  0  0  0  0  0  0
   -2.6079   -0.8123   -2.2804 O   0  0  0  0  0  0  0  0  0  0  0  0
   -0.2242   -1.0086   -2.3255 O   0  0  0  0  0  0  0  0  0  0  0  0
   -1.3633   -1.2108    0.0594 N   0  0  0  0  0  0  0  0  0  0  0  0
   -2.4924   -0.8522    0.8468 C   0  0  0  0  0  0  0  0  0  0  0  0
   -3.6703   -1.7008    0.5247 C   0  0  0  0  0  0  0  0  0  0  0  0
   -3.4383   -2.9984    1.0262 O   0  0  0  0  0  0  0  0  0  0  0  0
   -2.1123   -3.3362    1.0655 C   0  0  0  0  0  0  0  0  0  0  0  0
   -1.2503   -2.6418    0.0304 C   0  0  0  0  0  0  0  0  0  0  0  0
   -3.6169    4.1469   -1.9741 C   0  0  0  0  0  0  0  0  0  0  0  0
   -3.6802    5.5140   -1.7871 O   0  0  0  0  0  0  0  0  0  0  0  0
   -4.5817    3.5765   -2.5362 O   0  0  0  0  0  0  0  0  0  0  0  0
    5.9957   -1.9757    1.6323 H   0  0  0  0  0  0  0  0  0  0  0  0
    6.2978    0.4537    1.9865 H   0  0  0  0  0  0  0  0  0  0  0  0
    4.4423    2.0157    1.3732 H   0  0  0  0  0  0  0  0  0  0  0  0
    2.1246   -1.2951    0.1097 H   0  0  0  0  0  0  0  0  0  0  0  0
    0.8119   -0.0255   -0.4243 H   0  0  0  0  0  0  0  0  0  0  0  0
    0.5130    3.7248   -0.0468 H   0  0  0  0  0  0  0  0  0  0  0  0
   -1.3865    5.0181   -0.7824 H   0  0  0  0  0  0  0  0  0  0  0  0
   -3.2533    1.5150   -2.1741 H   0  0  0  0  0  0  0  0  0  0  0  0
   -2.2676   -1.0019    1.9326 H   0  0  0  0  0  0  0  0  0  0  0  0
   -2.6851    0.2367    0.7430 H   0  0  0  0  0  0  0  0  0  0  0  0
   -3.9246   -1.8256   -0.5239 H   0  0  0  0  0  0  0  0  0  0  0  0
   -4.5767   -1.2813    1.0170 H   0  0  0  0  0  0  0  0  0  0  0  0
   -2.0372   -4.4362    0.8441 H   0  0  0  0  0  0  0  0  0  0  0  0
   -1.7210   -3.1315    2.0679 H   0  0  0  0  0  0  0  0  0  0  0  0
   -1.4285   -3.0669   -0.9716 H   0  0  0  0  0  0  0  0  0  0  0  0
   -0.2012   -2.8909    0.2939 H   0  0  0  0  0  0  0  0  0  0  0  0
   -3.9646    5.8211   -0.8599 H   0  0  0  0  0  0  0  0  0  0  0  0
  1  2  1  0
  2  3  1  0
  2  4  1  0
  2  5  1  0
  5  6  2  0
  6  7  1  0
  7  8  2  0
  8  9  1  0
  9 10  2  0
  9 11  1  0
 11 12  2  0
 11 13  1  0
 13 14  1  0
 14 15  2  0
 15 16  1  0
 16 17  2  0
 17 18  1  0
 18 19  2  0
 19 20  1  0
 20 21  2  0
 20 22  2  0
 20 23  1  0
 23 24  1  0
 24 25  1  0
 25 26  1  0
 26 27  1  0
 27 28  1  0
 17 29  1  0
 29 30  1  0
 29 31  2  0
 10  5  1  0
 19 14  1  0
 28 23  1  0
  6 32  1  0
  7 33  1  0
  8 34  1  0
 10 35  1  0
 13 36  1  0
 15 37  1  0
 16 38  1  0
 18 39  1  0
 24 40  1  0
 24 41  1  0
 25 42  1  0
 25 43  1  0
 27 44  1  0
 27 45  1  0
 28 46  1  0
 28 47  1  0
 30 48  1  0
M  END
$$$$
[H]c1c([H])c([H])c(C([H])([H])OC(=O)N2C([H])([H])C([H])([H])N(C(=O)c3c([H])c([H])c(-c4c([H])c([H])c(S(=O)(=O)N([H])[H])c([H])c4[H])c([H])c3[H])C([H])([H])C2([H])[H])c([H])c1[H]
     RDKit          3D

 59 62  0  0  0  0  0  0  0  0999 V2000
  -10.9789    1.3184    0.1707 N   0  0  0  0  0  0  0  0  0  0  0  0
  -10.1653   -0.1418    0.5491 S   0  0  0  0  0  0  0  0  0  0  0  0
  -10.3337   -0.4259    2.0296 O   0  0  0  0  0  0  0  0  0  0  0  0
  -10.7096   -1.3065   -0.2430 O   0  0  0  0  0  0  0  0  0  0  0  0
   -8.4535   -0.0456    0.2299 C   0  0  0  0  0  0  0  0  0  0  0  0
   -7.5655    0.3699    1.1927 C   0  0  0  0  0  0  0  0  0  0  0  0
   -6.2083    0.4366    0.9047 C   0  0  0  0  0  0  0  0  0  0  0  0
   -5.6969    0.0946   -0.3404 C   0  0  0  0  0  0  0  0  0  0  0  0
   -6.6137   -0.3180   -1.2837 C   0  0  0  0  0  0  0  0  0  0  0  0
   -7.9807   -0.3882   -1.0026 C   0  0  0  0  0  0  0  0  0  0  0  0
   -4.2780    0.1654   -0.6273 C   0  0  0  0  0  0  0  0  0  0  0  0
   -3.7786    0.4554   -1.8865 C   0  0  0  0  0  0  0  0  0  0  0  0
   -2.4639    0.5223   -2.1737 C   0  0  0  0  0  0  0  0  0  0  0  0
   -1.4955    0.2947   -1.1813 C   0  0  0  0  0  0  0  0  0  0  0  0
   -1.9501    0.0078    0.0753 C   0  0  0  0  0  0  0  0  0  0  0  0
   -3.3312   -0.0558    0.3431 C   0  0  0  0  0  0  0  0  0  0  0  0
   -0.1006    0.4666   -1.5127 C   0  0  0  0  0  0  0  0  0  0  0  0
    0.1091    1.2273   -2.5806 O   0  0  0  0  0  0  0  0  0  0  0  0
    0.9975   -0.0543   -0.8687 N   0  0  0  0  0  0  0  0  0  0  0  0
    2.3372    0.3955   -1.3686 C   0  0  0  0  0  0  0  0  0  0  0  0
    3.1772    0.8132   -0.1831 C   0  0  0  0  0  0  0  0  0  0  0  0
    3.0552   -0.1215    0.8888 N   0  0  0  0  0  0  0  0  0  0  0  0
    1.7525   -0.4777    1.3941 C   0  0  0  0  0  0  0  0  0  0  0  0
    1.0160   -1.0375    0.1590 C   0  0  0  0  0  0  0  0  0  0  0  0
    4.1983   -0.7041    1.4650 C   0  0  0  0  0  0  0  0  0  0  0  0
    4.1015   -1.5427    2.4170 O   0  0  0  0  0  0  0  0  0  0  0  0
    5.4822   -0.4013    1.0337 O   0  0  0  0  0  0  0  0  0  0  0  0
    6.5882   -1.0185    1.6493 C   0  0  0  0  0  0  0  0  0  0  0  0
    7.8281   -0.5199    1.0101 C   0  0  0  0  0  0  0  0  0  0  0  0
    8.4672    0.5607    1.5590 C   0  0  0  0  0  0  0  0  0  0  0  0
    9.6255    1.0330    0.9683 C   0  0  0  0  0  0  0  0  0  0  0  0
   10.1204    0.4225   -0.1506 C   0  0  0  0  0  0  0  0  0  0  0  0
    9.4638   -0.6590   -0.6840 C   0  0  0  0  0  0  0  0  0  0  0  0
    8.3014   -1.1563   -0.1161 C   0  0  0  0  0  0  0  0  0  0  0  0
  -10.7782    2.0000    0.9413 H   0  0  0  0  0  0  0  0  0  0  0  0
  -10.6384    1.7168   -0.7160 H   0  0  0  0  0  0  0  0  0  0  0  0
   -7.9622    0.6360    2.1614 H   0  0  0  0  0  0  0  0  0  0  0  0
   -5.5698    0.7687    1.6987 H   0  0  0  0  0  0  0  0  0  0  0  0
   -6.3135   -0.6028   -2.2763 H   0  0  0  0  0  0  0  0  0  0  0  0
   -8.6698   -0.7144   -1.7603 H   0  0  0  0  0  0  0  0  0  0  0  0
   -4.5375    0.6331   -2.6612 H   0  0  0  0  0  0  0  0  0  0  0  0
   -2.1033    0.7510   -3.1763 H   0  0  0  0  0  0  0  0  0  0  0  0
   -1.3003   -0.1315    0.9205 H   0  0  0  0  0  0  0  0  0  0  0  0
   -3.6574   -0.2897    1.3580 H   0  0  0  0  0  0  0  0  0  0  0  0
    2.8222   -0.3850   -1.9638 H   0  0  0  0  0  0  0  0  0  0  0  0
    2.1601    1.2751   -1.9918 H   0  0  0  0  0  0  0  0  0  0  0  0
    2.8275    1.8215    0.1628 H   0  0  0  0  0  0  0  0  0  0  0  0
    4.2221    0.9097   -0.5478 H   0  0  0  0  0  0  0  0  0  0  0  0
    1.8217   -1.2510    2.1672 H   0  0  0  0  0  0  0  0  0  0  0  0
    1.2181    0.4317    1.6992 H   0  0  0  0  0  0  0  0  0  0  0  0
    0.1358   -1.5822    0.4052 H   0  0  0  0  0  0  0  0  0  0  0  0
    1.7369   -1.8907   -0.2077 H   0  0  0  0  0  0  0  0  0  0  0  0
    6.5524   -2.1378    1.5296 H   0  0  0  0  0  0  0  0  0  0  0  0
    6.6280   -0.7844    2.7353 H   0  0  0  0  0  0  0  0  0  0  0  0
    8.0787    1.0493    2.4475 H   0  0  0  0  0  0  0  0  0  0  0  0
   10.1123    1.8791    1.4109 H   0  0  0  0  0  0  0  0  0  0  0  0
   11.0332    0.8303   -0.5784 H   0  0  0  0  0  0  0  0  0  0  0  0
    9.8516   -1.1338   -1.5566 H   0  0  0  0  0  0  0  0  0  0  0  0
    7.8123   -2.0086   -0.5646 H   0  0  0  0  0  0  0  0  0  0  0  0
  1  2  1  0
  2  3  2  0
  2  4  2  0
  2  5  1  0
  5  6  2  0
  6  7  1  0
  7  8  2  0
  8  9  1  0
  9 10  2  0
  8 11  1  0
 11 12  2  0
 12 13  1  0
 13 14  2  0
 14 15  1  0
 15 16  2  0
 14 17  1  0
 17 18  2  0
 17 19  1  0
 19 20  1  0
 20 21  1  0
 21 22  1  0
 22 23  1  0
 23 24  1  0
 22 25  1  0
 25 26  2  0
 25 27  1  0
 27 28  1  0
 28 29  1  0
 29 30  2  0
 30 31  1  0
 31 32  2  0
 32 33  1  0
 33 34  2  0
 10  5  1  0
 16 11  1  0
 24 19  1  0
 34 29  1  0
  1 35  1  0
  1 36  1  0
  6 37  1  0
  7 38  1  0
  9 39  1  0
 10 40  1  0
 12 41  1  0
 13 42  1  0
 15 43  1  0
 16 44  1  0
 20 45  1  0
 20 46  1  0
 21 47  1  0
 21 48  1  0
 23 49  1  0
 23 50  1  0
 24 51  1  0
 24 52  1  0
 28 53  1  0
 28 54  1  0
 30 55  1  0
 31 56  1  0
 32 57  1  0
 33 58  1  0
 34 59  1  0
M  END
$$$$
[H]c1c([H])c(C#N)c([H])c(N([H])C(=O)c2c([H])c([H])c([H])c(C(F)(F)F)c2[H])c1[H]
     RDKit          3D

 30 31  0  0  0  0  0  0  0  0999 V2000
   -4.7820    2.3221    0.7979 F   0  0  0  0  0  0  0  0  0  0  0  0
   -4.2639    1.8941   -0.4182 C   0  0  0  0  0  0  0  0  0  0  0  0
   -5.3521    1.6574   -1.2520 F   0  0  0  0  0  0  0  0  0  0  0  0
   -3.4283    2.8300   -0.9228 F   0  0  0  0  0  0  0  0  0  0  0  0
   -3.5827    0.6021   -0.1959 C   0  0  0  0  0  0  0  0  0  0  0  0
   -4.3425   -0.5399   -0.2002 C   0  0  0  0  0  0  0  0  0  0  0  0
   -3.7564   -1.7599    0.0167 C   0  0  0  0  0  0  0  0  0  0  0  0
   -2.4009   -1.8221    0.2393 C   0  0  0  0  0  0  0  0  0  0  0  0
   -1.6234   -0.6723    0.2448 C   0  0  0  0  0  0  0  0  0  0  0  0
   -2.2246    0.5385    0.0256 C   0  0  0  0  0  0  0  0  0  0  0  0
   -0.1954   -0.7885    0.5156 C   0  0  0  0  0  0  0  0  0  0  0  0
    0.0902   -1.6095    1.4281 O   0  0  0  0  0  0  0  0  0  0  0  0
    0.7644   -0.0683   -0.1728 N   0  0  0  0  0  0  0  0  0  0  0  0
    2.1577   -0.1584    0.0381 C   0  0  0  0  0  0  0  0  0  0  0  0
    2.8000   -1.1679    0.7047 C   0  0  0  0  0  0  0  0  0  0  0  0
    4.1961   -1.1884    0.8829 C   0  0  0  0  0  0  0  0  0  0  0  0
    4.9733   -0.1697    0.3781 C   0  0  0  0  0  0  0  0  0  0  0  0
    4.3653    0.8674   -0.3025 C   0  0  0  0  0  0  0  0  0  0  0  0
    3.0062    0.8474   -0.4528 C   0  0  0  0  0  0  0  0  0  0  0  0
    5.1898    1.9518   -0.8303 C   0  0  0  0  0  0  0  0  0  0  0  0
    5.8586    2.8061   -1.2317 N   0  0  0  0  0  0  0  0  0  0  0  0
   -5.4142   -0.5194   -0.3748 H   0  0  0  0  0  0  0  0  0  0  0  0
   -4.3613   -2.6508    0.0102 H   0  0  0  0  0  0  0  0  0  0  0  0
   -1.9589   -2.7953    0.4105 H   0  0  0  0  0  0  0  0  0  0  0  0
   -1.6612    1.4635    0.0253 H   0  0  0  0  0  0  0  0  0  0  0  0
    0.4372    0.6107   -0.9220 H   0  0  0  0  0  0  0  0  0  0  0  0
    2.2566   -2.0162    1.1121 H   0  0  0  0  0  0  0  0  0  0  0  0
    4.6841   -2.0031    1.4204 H   0  0  0  0  0  0  0  0  0  0  0  0
    6.0468   -0.1252    0.4825 H   0  0  0  0  0  0  0  0  0  0  0  0
    2.5217    1.6638   -0.9905 H   0  0  0  0  0  0  0  0  0  0  0  0
  1  2  1  0
  2  3  1  0
  2  4  1  0
  2  5  1  0
  5  6  2  0
  6  7  1  0
  7  8  2  0
  8  9  1  0
  9 10  2  0
  9 11  1  0
 11 12  2  0
 11 13  1  0
 13 14  1  0
 14 15  2  0
 15 16  1  0
 16 17  2  0
 17 18  1  0
 18 19  2  0
 18 20  1  0
 20 21  3  0
 10  5  1  0
 19 14  1  0
  6 22  1  0
  7 23  1  0
  8 24  1  0
 10 25  1  0
 13 26  1  0
 15 27  1  0
 16 28  1  0
 17 29  1  0
 19 30  1  0
M  END
$$$$
[H]c1c([H])c(-c2c([H])c([H])c(S(=O)(=O)N([H])[H])c([H])c2[H])c([H])c([H])c1C(=O)N1C([H])([H])C([H])([H])N(C(=O)C2([H])C([H])([H])C2([H])[H])C([H])([H])C1([H])[H]
     RDKit          3D

 52 55  0  0  0  0  0  0  0  0999 V2000
   -9.2809    0.8995   -0.6294 N   0  0  0  0  0  0  0  0  0  0  0  0
   -8.0682    1.9544   -1.2596 S   0  0  0  0  0  0  0  0  0  0  0  0
   -8.1309    2.0152   -2.7622 O   0  0  0  0  0  0  0  0  0  0  0  0
   -8.2824    3.3447   -0.7320 O   0  0  0  0  0  0  0  0  0  0  0  0
   -6.4605    1.3788   -0.8442 C   0  0  0  0  0  0  0  0  0  0  0  0
   -5.8407    1.7724    0.3221 C   0  0  0  0  0  0  0  0  0  0  0  0
   -4.5754    1.3146    0.6395 C   0  0  0  0  0  0  0  0  0  0  0  0
   -3.8810    0.4526   -0.1855 C   0  0  0  0  0  0  0  0  0  0  0  0
   -4.5078    0.0627   -1.3514 C   0  0  0  0  0  0  0  0  0  0  0  0
   -5.7723    0.5180   -1.6721 C   0  0  0  0  0  0  0  0  0  0  0  0
   -2.5497   -0.0177    0.1666 C   0  0  0  0  0  0  0  0  0  0  0  0
   -2.1693   -0.2038    1.4724 C   0  0  0  0  0  0  0  0  0  0  0  0
   -0.9025   -0.6503    1.7763 C   0  0  0  0  0  0  0  0  0  0  0  0
    0.0658   -0.9396    0.7989 C   0  0  0  0  0  0  0  0  0  0  0  0
   -0.3148   -0.7527   -0.4841 C   0  0  0  0  0  0  0  0  0  0  0  0
   -1.6206   -0.2933   -0.7984 C   0  0  0  0  0  0  0  0  0  0  0  0
    1.3518   -1.3405    1.2381 C   0  0  0  0  0  0  0  0  0  0  0  0
    1.6006   -1.1642    2.5389 O   0  0  0  0  0  0  0  0  0  0  0  0
    2.4011   -1.8930    0.5290 N   0  0  0  0  0  0  0  0  0  0  0  0
    2.5328   -2.2907   -0.8340 C   0  0  0  0  0  0  0  0  0  0  0  0
    3.4003   -1.2862   -1.5199 C   0  0  0  0  0  0  0  0  0  0  0  0
    4.4330   -0.7076   -0.6568 N   0  0  0  0  0  0  0  0  0  0  0  0
    4.7340   -1.1967    0.6413 C   0  0  0  0  0  0  0  0  0  0  0  0
    3.7015   -2.1097    1.2623 C   0  0  0  0  0  0  0  0  0  0  0  0
    5.1481    0.3740   -1.2121 C   0  0  0  0  0  0  0  0  0  0  0  0
    4.7563    0.6447   -2.4436 O   0  0  0  0  0  0  0  0  0  0  0  0
    6.2062    1.1948   -0.6534 C   0  0  0  0  0  0  0  0  0  0  0  0
    6.1568    1.9007    0.6489 C   0  0  0  0  0  0  0  0  0  0  0  0
    7.1743    0.8266    0.3754 C   0  0  0  0  0  0  0  0  0  0  0  0
  -10.1994    1.3838   -0.7378 H   0  0  0  0  0  0  0  0  0  0  0  0
   -9.0393    0.7279    0.3720 H   0  0  0  0  0  0  0  0  0  0  0  0
   -6.3737    2.4509    0.9829 H   0  0  0  0  0  0  0  0  0  0  0  0
   -4.0835    1.6249    1.5613 H   0  0  0  0  0  0  0  0  0  0  0  0
   -3.9540   -0.6190   -2.0002 H   0  0  0  0  0  0  0  0  0  0  0  0
   -6.2416    0.2023   -2.5836 H   0  0  0  0  0  0  0  0  0  0  0  0
   -2.8672    0.0001    2.2774 H   0  0  0  0  0  0  0  0  0  0  0  0
   -0.6464   -0.7861    2.8228 H   0  0  0  0  0  0  0  0  0  0  0  0
    0.3564   -0.9092   -1.3136 H   0  0  0  0  0  0  0  0  0  0  0  0
   -1.8676   -0.1642   -1.8384 H   0  0  0  0  0  0  0  0  0  0  0  0
    1.6501   -2.5712   -1.3770 H   0  0  0  0  0  0  0  0  0  0  0  0
    3.1524   -3.2859   -0.8146 H   0  0  0  0  0  0  0  0  0  0  0  0
    3.9042   -1.7569   -2.3879 H   0  0  0  0  0  0  0  0  0  0  0  0
    2.7590   -0.4759   -1.9250 H   0  0  0  0  0  0  0  0  0  0  0  0
    4.9470   -0.4379    1.4108 H   0  0  0  0  0  0  0  0  0  0  0  0
    5.6700   -1.8380    0.5798 H   0  0  0  0  0  0  0  0  0  0  0  0
    3.9415   -3.1701    1.0904 H   0  0  0  0  0  0  0  0  0  0  0  0
    3.5322   -1.9463    2.3344 H   0  0  0  0  0  0  0  0  0  0  0  0
    6.6351    1.9042   -1.4657 H   0  0  0  0  0  0  0  0  0  0  0  0
    5.4488    1.7365    1.4434 H   0  0  0  0  0  0  0  0  0  0  0  0
    6.5342    2.9771    0.6744 H   0  0  0  0  0  0  0  0  0  0  0  0
    8.2348    1.2421    0.2760 H   0  0  0  0  0  0  0  0  0  0  0  0
    7.2014   -0.0968    0.9518 H   0  0  0  0  0  0  0  0  0  0  0  0
  1  2  1  0
  2  3  2  0
  2  4  2  0
  2  5  1  0
  5  6  2  0
  6  7  1  0
  7  8  2  0
  8  9  1  0
  9 10  2  0
  8 11  1  0
 11 12  2  0
 12 13  1  0
 13 14  2  0
 14 15  1  0
 15 16  2  0
 14 17  1  0
 17 18  2  0
 17 19  1  0
 19 20  1  0
 20 21  1  0
 21 22  1  0
 22 23  1  0
 23 24  1  0
 22 25  1  0
 25 26  2  0
 25 27  1  0
 27 28  1  0
 28 29  1  0
 10  5  1  0
 16 11  1  0
 24 19  1  0
 29 27  1  0
  1 30  1  0
  1 31  1  0
  6 32  1  0
  7 33  1  0
  9 34  1  0
 10 35  1  0
 12 36  1  0
 13 37  1  0
 15 38  1  0
 16 39  1  0
 20 40  1  0
 20 41  1  0
 21 42  1  0
 21 43  1  0
 23 44  1  0
 23 45  1  0
 24 46  1  0
 24 47  1  0
 27 48  1  0
 28 49  1  0
 28 50  1  0
 29 51  1  0
 29 52  1  0
M  END
$$$$
