[H]OC(=O)C1([H])C([H])([H])C(F)(F)C([H])([H])[S@@]([H])(n2c([H])c(C([H])([H])C([H])([H])C(O[H])(C([H])([H])[H])C([H])([H])[H])c3c([H])nc(N([H])c4c([H])c([H])c5c(c4[H])c([H])c([H])n5[H])nc32)C1([H])[H]
     RDKit          3D

 65 69  0  0  0  0  0  0  0  0999 V2000
   -2.0763    3.7992    1.0027 C   0  0  0  0  0  0  0  0  0  0  0  0
   -1.9968    4.8542   -0.0340 C   0  0  0  0  0  0  0  0  0  0  0  0
   -3.4298    5.1893   -0.4578 C   0  0  0  0  0  0  0  0  0  0  0  0
   -1.5275    6.0438    0.5678 O   0  0  0  0  0  0  0  0  0  0  0  0
   -1.1470    4.6172   -1.2192 C   0  0  0  0  0  0  0  0  0  0  0  0
   -1.4433    3.4819   -2.1112 C   0  0  0  0  0  0  0  0  0  0  0  0
   -1.3628    2.1297   -1.5551 C   0  0  0  0  0  0  0  0  0  0  0  0
   -2.3826    1.2765   -1.2060 C   0  0  0  0  0  0  0  0  0  0  0  0
   -1.9131    0.1225   -0.7550 N   0  0  0  0  0  0  0  0  0  0  0  0
   -2.8662   -1.4527   -0.1226 S   0  0  2  0  0  0  0  0  0  0  0  0
   -2.9307   -1.7153    1.8532 C   0  0  0  0  0  0  0  0  0  0  0  0
   -2.8536   -3.2096    2.0824 C   0  0  0  0  0  0  0  0  0  0  0  0
   -1.5782   -3.6948    2.1123 F   0  0  0  0  0  0  0  0  0  0  0  0
   -3.4233   -3.4341    3.3416 F   0  0  0  0  0  0  0  0  0  0  0  0
   -3.6630   -3.9987    1.1000 C   0  0  0  0  0  0  0  0  0  0  0  0
   -2.9207   -4.3533   -0.1596 C   0  0  0  0  0  0  0  0  0  0  0  0
   -2.1143   -3.2171   -0.7144 C   0  0  0  0  0  0  0  0  0  0  0  0
   -3.9194   -4.8239   -1.1440 C   0  0  0  0  0  0  0  0  0  0  0  0
   -4.9547   -4.0013   -1.5625 O   0  0  0  0  0  0  0  0  0  0  0  0
   -3.8378   -5.9834   -1.6138 O   0  0  0  0  0  0  0  0  0  0  0  0
   -0.5720    0.2010   -0.8013 C   0  0  0  0  0  0  0  0  0  0  0  0
    0.3816   -0.6802   -0.4631 N   0  0  0  0  0  0  0  0  0  0  0  0
    1.7136   -0.3547   -0.6066 C   0  0  0  0  0  0  0  0  0  0  0  0
    2.6967   -1.2844   -0.2189 N   0  0  0  0  0  0  0  0  0  0  0  0
    4.0958   -1.1084   -0.3215 C   0  0  0  0  0  0  0  0  0  0  0  0
    4.7498   -0.2972   -1.2062 C   0  0  0  0  0  0  0  0  0  0  0  0
    6.1351   -0.1569   -1.2199 C   0  0  0  0  0  0  0  0  0  0  0  0
    6.9086   -0.8476   -0.3226 C   0  0  0  0  0  0  0  0  0  0  0  0
    8.2445   -0.8853   -0.1323 N   0  0  0  0  0  0  0  0  0  0  0  0
    8.5100   -1.7194    0.8781 C   0  0  0  0  0  0  0  0  0  0  0  0
    7.3216   -2.2256    1.3441 C   0  0  0  0  0  0  0  0  0  0  0  0
    6.2910   -1.6781    0.5874 C   0  0  0  0  0  0  0  0  0  0  0  0
    4.9321   -1.8001    0.5832 C   0  0  0  0  0  0  0  0  0  0  0  0
    2.0510    0.8422   -1.0839 N   0  0  0  0  0  0  0  0  0  0  0  0
    1.1371    1.7696   -1.4408 C   0  0  0  0  0  0  0  0  0  0  0  0
   -0.1815    1.4315   -1.2924 C   0  0  0  0  0  0  0  0  0  0  0  0
   -3.0773    3.3079    1.0084 H   0  0  0  0  0  0  0  0  0  0  0  0
   -1.2241    3.1210    1.0597 H   0  0  0  0  0  0  0  0  0  0  0  0
   -2.0684    4.3293    2.0154 H   0  0  0  0  0  0  0  0  0  0  0  0
   -3.3859    5.7302   -1.4262 H   0  0  0  0  0  0  0  0  0  0  0  0
   -3.9640    4.2163   -0.5406 H   0  0  0  0  0  0  0  0  0  0  0  0
   -3.8848    5.8240    0.3339 H   0  0  0  0  0  0  0  0  0  0  0  0
   -0.8702    6.5109    0.0236 H   0  0  0  0  0  0  0  0  0  0  0  0
   -0.0616    4.6319   -0.8933 H   0  0  0  0  0  0  0  0  0  0  0  0
   -1.2067    5.5702   -1.8403 H   0  0  0  0  0  0  0  0  0  0  0  0
   -2.4707    3.6629   -2.5583 H   0  0  0  0  0  0  0  0  0  0  0  0
   -0.7802    3.5870   -3.0318 H   0  0  0  0  0  0  0  0  0  0  0  0
   -3.4335    1.5107   -1.2867 H   0  0  0  0  0  0  0  0  0  0  0  0
   -4.5814   -1.4189   -0.7777 H   0  0  0  0  0  0  0  0  0  0  0  0
   -2.0849   -1.2415    2.3445 H   0  0  0  0  0  0  0  0  0  0  0  0
   -3.8515   -1.3104    2.2939 H   0  0  0  0  0  0  0  0  0  0  0  0
   -4.6405   -3.5029    0.8616 H   0  0  0  0  0  0  0  0  0  0  0  0
   -3.9384   -4.9611    1.5978 H   0  0  0  0  0  0  0  0  0  0  0  0
   -2.2220   -5.1845    0.0606 H   0  0  0  0  0  0  0  0  0  0  0  0
   -1.0704   -3.2234   -0.3775 H   0  0  0  0  0  0  0  0  0  0  0  0
   -2.1284   -3.2388   -1.8245 H   0  0  0  0  0  0  0  0  0  0  0  0
   -5.8669   -4.3637   -1.7934 H   0  0  0  0  0  0  0  0  0  0  0  0
    2.4058   -2.2277    0.1950 H   0  0  0  0  0  0  0  0  0  0  0  0
    4.1951    0.2568   -1.9516 H   0  0  0  0  0  0  0  0  0  0  0  0
    6.6236    0.5008   -1.9413 H   0  0  0  0  0  0  0  0  0  0  0  0
    8.9541   -0.3443   -0.6915 H   0  0  0  0  0  0  0  0  0  0  0  0
    9.5117   -1.9386    1.2451 H   0  0  0  0  0  0  0  0  0  0  0  0
    7.2151   -2.9183    2.1480 H   0  0  0  0  0  0  0  0  0  0  0  0
    4.4533   -2.4605    1.3082 H   0  0  0  0  0  0  0  0  0  0  0  0
    1.3788    2.7384   -1.8267 H   0  0  0  0  0  0  0  0  0  0  0  0
  1  2  1  0
  2  3  1  0
  2  4  1  0
  2  5  1  0
  5  6  1  0
  6  7  1  0
  7  8  2  0
  8  9  1  0
  9 10  1  0
 10 11  1  0
 11 12  1  0
 12 13  1  0
 12 14  1  0
 12 15  1  0
 15 16  1  0
 16 17  1  0
 16 18  1  0
 18 19  1  0
 18 20  2  0
  9 21  1  0
 21 22  2  0
 22 23  1  0
 23 24  1  0
 24 25  1  0
 25 26  2  0
 26 27  1  0
 27 28  2  0
 28 29  1  0
 29 30  1  0
 30 31  2  0
 31 32  1  0
 32 33  2  0
 23 34  2  0
 34 35  1  0
 35 36  2  0
 36  7  1  0
 17 10  1  0
 36 21  1  0
 33 25  1  0
 32 28  1  0
  1 37  1  0
  1 38  1  0
  1 39  1  0
  3 40  1  0
  3 41  1  0
  3 42  1  0
  4 43  1  0
  5 44  1  0
  5 45  1  0
  6 46  1  0
  6 47  1  0
  8 48  1  0
 10 49  1  6
 11 50  1  0
 11 51  1  0
 15 52  1  0
 15 53  1  0
 16 54  1  0
 17 55  1  0
 17 56  1  0
 19 57  1  0
 24 58  1  0
 26 59  1  0
 27 60  1  0
 29 61  1  0
 30 62  1  0
 31 63  1  0
 33 64  1  0
 35 65  1  0
M  END
$$$$
[H]c1c([H])c(C2=C(c3c([H])c(C([H])([H])[H])c4nnc(C([H])([H])[H])n4c3[H])C(=O)N([H])C2=O)c(C2([H])C([H])([H])C2([H])[H])c([H])c1F
     RDKit          3D

 45 49  0  0  0  0  0  0  0  0999 V2000
    3.3157   -1.3886   -2.6630 C   0  0  0  0  0  0  0  0  0  0  0  0
    3.4195   -1.2945   -1.1874 C   0  0  0  0  0  0  0  0  0  0  0  0
    4.3421   -1.9837   -0.4603 N   0  0  0  0  0  0  0  0  0  0  0  0
    4.1697   -1.6805    0.8022 N   0  0  0  0  0  0  0  0  0  0  0  0
    3.1426   -0.8045    0.8671 C   0  0  0  0  0  0  0  0  0  0  0  0
    2.5920   -0.1974    1.9767 C   0  0  0  0  0  0  0  0  0  0  0  0
    3.1378   -0.4917    3.3485 C   0  0  0  0  0  0  0  0  0  0  0  0
    1.5566    0.6548    1.7688 C   0  0  0  0  0  0  0  0  0  0  0  0
    1.0269    0.9436    0.5026 C   0  0  0  0  0  0  0  0  0  0  0  0
    1.6164    0.3103   -0.5606 C   0  0  0  0  0  0  0  0  0  0  0  0
    2.6608   -0.5507   -0.3626 N   0  0  0  0  0  0  0  0  0  0  0  0
   -0.0820    1.8888    0.3720 C   0  0  0  0  0  0  0  0  0  0  0  0
   -1.1717    1.8156   -0.3442 C   0  0  0  0  0  0  0  0  0  0  0  0
   -1.9560    3.0616   -0.1066 C   0  0  0  0  0  0  0  0  0  0  0  0
   -3.0635    3.3414   -0.6302 O   0  0  0  0  0  0  0  0  0  0  0  0
   -1.2575    3.8892    0.8065 N   0  0  0  0  0  0  0  0  0  0  0  0
   -0.0752    3.1781    1.1246 C   0  0  0  0  0  0  0  0  0  0  0  0
    0.8081    3.5861    1.9069 O   0  0  0  0  0  0  0  0  0  0  0  0
   -1.6019    0.7124   -1.1823 C   0  0  0  0  0  0  0  0  0  0  0  0
   -1.6010    0.8991   -2.5753 C   0  0  0  0  0  0  0  0  0  0  0  0
   -2.0212   -0.0691   -3.4460 C   0  0  0  0  0  0  0  0  0  0  0  0
   -2.4597   -1.2634   -2.9672 C   0  0  0  0  0  0  0  0  0  0  0  0
   -2.8874   -2.2585   -3.8054 F   0  0  0  0  0  0  0  0  0  0  0  0
   -2.4655   -1.4540   -1.6079 C   0  0  0  0  0  0  0  0  0  0  0  0
   -2.0460   -0.4907   -0.6893 C   0  0  0  0  0  0  0  0  0  0  0  0
   -2.1691   -0.8038    0.7610 C   0  0  0  0  0  0  0  0  0  0  0  0
   -2.7107   -2.0786    1.2136 C   0  0  0  0  0  0  0  0  0  0  0  0
   -3.5689   -0.8205    1.2909 C   0  0  0  0  0  0  0  0  0  0  0  0
    2.2723   -1.1964   -2.9896 H   0  0  0  0  0  0  0  0  0  0  0  0
    3.6741   -2.3955   -2.9573 H   0  0  0  0  0  0  0  0  0  0  0  0
    4.0375   -0.6650   -3.1144 H   0  0  0  0  0  0  0  0  0  0  0  0
    4.1525   -0.8919    3.2719 H   0  0  0  0  0  0  0  0  0  0  0  0
    3.1854    0.4816    3.8797 H   0  0  0  0  0  0  0  0  0  0  0  0
    2.4524   -1.1532    3.9180 H   0  0  0  0  0  0  0  0  0  0  0  0
    1.1077    1.1410    2.6146 H   0  0  0  0  0  0  0  0  0  0  0  0
    1.2792    0.4780   -1.5660 H   0  0  0  0  0  0  0  0  0  0  0  0
   -1.5661    4.8211    1.1545 H   0  0  0  0  0  0  0  0  0  0  0  0
   -1.2611    1.8354   -3.0065 H   0  0  0  0  0  0  0  0  0  0  0  0
   -2.0063    0.1117   -4.5002 H   0  0  0  0  0  0  0  0  0  0  0  0
   -2.8095   -2.3953   -1.2506 H   0  0  0  0  0  0  0  0  0  0  0  0
   -1.4603   -0.3046    1.4738 H   0  0  0  0  0  0  0  0  0  0  0  0
   -3.1749   -2.8621    0.6212 H   0  0  0  0  0  0  0  0  0  0  0  0
   -2.3323   -2.4871    2.2000 H   0  0  0  0  0  0  0  0  0  0  0  0
   -4.4122   -0.6893    0.5855 H   0  0  0  0  0  0  0  0  0  0  0  0
   -3.7894   -0.4792    2.3153 H   0  0  0  0  0  0  0  0  0  0  0  0
  1  2  1  0
  2  3  2  0
  3  4  1  0
  4  5  2  0
  5  6  1  0
  6  7  1  0
  6  8  2  0
  8  9  1  0
  9 10  2  0
 10 11  1  0
  9 12  1  0
 12 13  2  0
 13 14  1  0
 14 15  2  0
 14 16  1  0
 16 17  1  0
 17 18  2  0
 13 19  1  0
 19 20  2  0
 20 21  1  0
 21 22  2  0
 22 23  1  0
 22 24  1  0
 24 25  2  0
 25 26  1  0
 26 27  1  0
 27 28  1  0
 11  2  1  0
 17 12  1  0
 25 19  1  0
 28 26  1  0
 11  5  1  0
  1 29  1  0
  1 30  1  0
  1 31  1  0
  7 32  1  0
  7 33  1  0
  7 34  1  0
  8 35  1  0
 10 36  1  0
 16 37  1  0
 20 38  1  0
 21 39  1  0
 24 40  1  0
 26 41  1  0
 27 42  1  0
 27 43  1  0
 28 44  1  0
 28 45  1  0
M  END
$$$$
[H]C([H])=C([H])C([H])([H])N1C(=O)c2c([H])c([H])c([H])c([H])c2C([H])(c2c([H])c([H])c([H])c([H])c2[N+](=O)[O-])c2c([H])c([H])c([H])c([H])c2-c2c([H])c([H])c([H])c([H])c21
     RDKit          3D

 56 60  0  0  0  0  0  0  0  0999 V2000
   -3.5088    2.1515    3.0399 O   0  0  0  0  0  0  0  0  0  0  0  0
   -2.8783    1.9218    1.7783 N   0  0  0  0  0  0  0  0  0  0  0  0
   -1.9012    2.5868    1.6503 O   0  0  0  0  0  0  0  0  0  0  0  0
   -3.4753    1.0227    0.9331 C   0  0  0  0  0  0  0  0  0  0  0  0
   -4.8952    1.0205    1.0221 C   0  0  0  0  0  0  0  0  0  0  0  0
   -5.6508    0.1509    0.3327 C   0  0  0  0  0  0  0  0  0  0  0  0
   -5.0397   -0.7636   -0.4817 C   0  0  0  0  0  0  0  0  0  0  0  0
   -3.6561   -0.7483   -0.5584 C   0  0  0  0  0  0  0  0  0  0  0  0
   -2.8295    0.1351    0.1362 C   0  0  0  0  0  0  0  0  0  0  0  0
   -1.3438   -0.0029   -0.0778 C   0  0  0  0  0  0  0  0  0  0  0  0
   -0.6933    1.1184   -0.6847 C   0  0  0  0  0  0  0  0  0  0  0  0
   -1.6281    1.7508   -1.5977 C   0  0  0  0  0  0  0  0  0  0  0  0
   -1.4065    2.8627   -2.2883 C   0  0  0  0  0  0  0  0  0  0  0  0
   -0.2202    3.4892   -2.1559 C   0  0  0  0  0  0  0  0  0  0  0  0
    0.7116    2.9611   -1.3233 C   0  0  0  0  0  0  0  0  0  0  0  0
    0.5065    1.7581   -0.5656 C   0  0  0  0  0  0  0  0  0  0  0  0
    1.7224    1.3928    0.1809 C   0  0  0  0  0  0  0  0  0  0  0  0
    2.1603    2.3966    1.0630 C   0  0  0  0  0  0  0  0  0  0  0  0
    3.3435    2.2709    1.7365 C   0  0  0  0  0  0  0  0  0  0  0  0
    4.1412    1.1703    1.5757 C   0  0  0  0  0  0  0  0  0  0  0  0
    3.7533    0.1771    0.7306 C   0  0  0  0  0  0  0  0  0  0  0  0
    2.5233    0.2728    0.0143 C   0  0  0  0  0  0  0  0  0  0  0  0
    2.2952   -0.8356   -0.8329 N   0  0  0  0  0  0  0  0  0  0  0  0
    3.1831   -1.1202   -1.9599 C   0  0  0  0  0  0  0  0  0  0  0  0
    4.3159   -2.0144   -1.6793 C   0  0  0  0  0  0  0  0  0  0  0  0
    4.3965   -3.1917   -2.3408 C   0  0  0  0  0  0  0  0  0  0  0  0
    1.2107   -1.8171   -0.6775 C   0  0  0  0  0  0  0  0  0  0  0  0
    1.0390   -2.7108   -1.5899 O   0  0  0  0  0  0  0  0  0  0  0  0
    0.2761   -1.9168    0.4349 C   0  0  0  0  0  0  0  0  0  0  0  0
    0.5218   -3.0257    1.3278 C   0  0  0  0  0  0  0  0  0  0  0  0
   -0.2002   -3.2315    2.4436 C   0  0  0  0  0  0  0  0  0  0  0  0
   -1.2079   -2.3777    2.7638 C   0  0  0  0  0  0  0  0  0  0  0  0
   -1.4614   -1.3251    1.9285 C   0  0  0  0  0  0  0  0  0  0  0  0
   -0.7437   -1.0493    0.7384 C   0  0  0  0  0  0  0  0  0  0  0  0
   -5.3860    1.7457    1.6664 H   0  0  0  0  0  0  0  0  0  0  0  0
   -6.7409    0.1697    0.4192 H   0  0  0  0  0  0  0  0  0  0  0  0
   -5.6131   -1.4763   -1.0489 H   0  0  0  0  0  0  0  0  0  0  0  0
   -3.2419   -1.5200   -1.2301 H   0  0  0  0  0  0  0  0  0  0  0  0
   -1.4125   -0.6697   -1.1009 H   0  0  0  0  0  0  0  0  0  0  0  0
   -2.5979    1.2712   -1.7335 H   0  0  0  0  0  0  0  0  0  0  0  0
   -2.1570    3.3022   -2.9735 H   0  0  0  0  0  0  0  0  0  0  0  0
   -0.0369    4.4073   -2.7225 H   0  0  0  0  0  0  0  0  0  0  0  0
    1.6276    3.5425   -1.2523 H   0  0  0  0  0  0  0  0  0  0  0  0
    1.6062    3.3174    1.2339 H   0  0  0  0  0  0  0  0  0  0  0  0
    3.6670    3.0631    2.4212 H   0  0  0  0  0  0  0  0  0  0  0  0
    5.0748    1.0951    2.1210 H   0  0  0  0  0  0  0  0  0  0  0  0
    4.3955   -0.6661    0.5804 H   0  0  0  0  0  0  0  0  0  0  0  0
    2.5823   -1.5957   -2.7724 H   0  0  0  0  0  0  0  0  0  0  0  0
    3.6143   -0.2233   -2.4484 H   0  0  0  0  0  0  0  0  0  0  0  0
    5.1372   -1.8424   -1.0084 H   0  0  0  0  0  0  0  0  0  0  0  0
    5.2081   -3.8633   -2.1588 H   0  0  0  0  0  0  0  0  0  0  0  0
    3.6335   -3.4355   -3.0477 H   0  0  0  0  0  0  0  0  0  0  0  0
    1.3097   -3.7353    1.0161 H   0  0  0  0  0  0  0  0  0  0  0  0
    0.0442   -4.0938    3.0816 H   0  0  0  0  0  0  0  0  0  0  0  0
   -1.7885   -2.5532    3.6771 H   0  0  0  0  0  0  0  0  0  0  0  0
   -2.2863   -0.7189    2.2638 H   0  0  0  0  0  0  0  0  0  0  0  0
  1  2  1  0
  2  3  2  0
  2  4  1  0
  4  5  2  0
  5  6  1  0
  6  7  2  0
  7  8  1  0
  8  9  2  0
  9 10  1  0
 10 11  1  0
 11 12  2  0
 12 13  1  0
 13 14  2  0
 14 15  1  0
 15 16  2  0
 16 17  1  0
 17 18  2  0
 18 19  1  0
 19 20  2  0
 20 21  1  0
 21 22  2  0
 22 23  1  0
 23 24  1  0
 24 25  1  0
 25 26  2  3
 23 27  1  0
 27 28  2  0
 27 29  1  0
 29 30  2  0
 30 31  1  0
 31 32  2  0
 32 33  1  0
 33 34  2  0
  9  4  1  0
 34 10  1  0
 16 11  1  0
 22 17  1  0
 34 29  1  0
  5 35  1  0
  6 36  1  0
  7 37  1  0
  8 38  1  0
 10 39  1  0
 12 40  1  0
 13 41  1  0
 14 42  1  0
 15 43  1  0
 18 44  1  0
 19 45  1  0
 20 46  1  0
 21 47  1  0
 24 48  1  0
 24 49  1  0
 25 50  1  0
 26 51  1  0
 26 52  1  0
 30 53  1  0
 31 54  1  0
 32 55  1  0
 33 56  1  0
M  CHG  2   1  -1   2   1
M  END
$$$$
[H]OC(=O)[C@@]([H])(N([H])[H])[C@]([H])(OC([H])([H])c1c([H])c([H])c([H])c([H])c1[H])C(=O)N([H])c1c([H])c(F)c(C(F)(F)F)c([H])c1F
     RDKit          3D

 44 45  0  0  0  0  0  0  0  0999 V2000
    1.3638    0.9271    2.5718 N   0  0  0  0  0  0  0  0  0  0  0  0
    1.5479    1.2891    1.1913 C   0  0  1  0  0  0  0  0  0  0  0  0
    1.0440    0.1553    0.3360 C   0  0  2  0  0  0  0  0  0  0  0  0
    1.2104    0.4807   -0.9797 O   0  0  0  0  0  0  0  0  0  0  0  0
    2.0157   -0.3592   -1.7214 C   0  0  0  0  0  0  0  0  0  0  0  0
    3.4133   -0.4559   -1.2463 C   0  0  0  0  0  0  0  0  0  0  0  0
    4.3492    0.5433   -1.5217 C   0  0  0  0  0  0  0  0  0  0  0  0
    5.6404    0.4242   -1.0759 C   0  0  0  0  0  0  0  0  0  0  0  0
    6.0453   -0.6702   -0.3532 C   0  0  0  0  0  0  0  0  0  0  0  0
    5.1369   -1.6580   -0.0761 C   0  0  0  0  0  0  0  0  0  0  0  0
    3.8586   -1.5365   -0.5195 C   0  0  0  0  0  0  0  0  0  0  0  0
   -0.4021   -0.1238    0.6673 C   0  0  0  0  0  0  0  0  0  0  0  0
   -0.6001   -0.4255    1.8600 O   0  0  0  0  0  0  0  0  0  0  0  0
   -1.4038   -0.0462   -0.2829 N   0  0  0  0  0  0  0  0  0  0  0  0
   -2.8017   -0.2716   -0.1557 C   0  0  0  0  0  0  0  0  0  0  0  0
   -3.4029   -0.6288    1.0309 C   0  0  0  0  0  0  0  0  0  0  0  0
   -4.7752   -0.8462    1.1386 C   0  0  0  0  0  0  0  0  0  0  0  0
   -5.3288   -1.1976    2.3296 F   0  0  0  0  0  0  0  0  0  0  0  0
   -5.5482   -0.6993    0.0272 C   0  0  0  0  0  0  0  0  0  0  0  0
   -4.9696   -0.3436   -1.1667 C   0  0  0  0  0  0  0  0  0  0  0  0
   -3.6279   -0.1318   -1.2687 C   0  0  0  0  0  0  0  0  0  0  0  0
   -3.0795    0.2135   -2.4358 F   0  0  0  0  0  0  0  0  0  0  0  0
   -7.0325   -0.9125    0.0479 C   0  0  0  0  0  0  0  0  0  0  0  0
   -7.6046   -0.0209    0.9482 F   0  0  0  0  0  0  0  0  0  0  0  0
   -7.5897   -0.6336   -1.1801 F   0  0  0  0  0  0  0  0  0  0  0  0
   -7.2986   -2.1982    0.4622 F   0  0  0  0  0  0  0  0  0  0  0  0
    0.8054    2.5310    0.9105 C   0  0  0  0  0  0  0  0  0  0  0  0
    0.0805    3.1608    1.8978 O   0  0  0  0  0  0  0  0  0  0  0  0
    0.8309    3.0222   -0.2352 O   0  0  0  0  0  0  0  0  0  0  0  0
    1.7092   -0.0105    2.8091 H   0  0  0  0  0  0  0  0  0  0  0  0
    1.5886    1.6703    3.2414 H   0  0  0  0  0  0  0  0  0  0  0  0
    2.6059    1.4722    0.9277 H   0  0  0  0  0  0  0  0  0  0  0  0
    1.5936   -0.7569    0.5963 H   0  0  0  0  0  0  0  0  0  0  0  0
    1.5675   -1.3887   -1.6096 H   0  0  0  0  0  0  0  0  0  0  0  0
    1.9881   -0.1267   -2.8000 H   0  0  0  0  0  0  0  0  0  0  0  0
    4.0361    1.3911   -2.0814 H   0  0  0  0  0  0  0  0  0  0  0  0
    6.4043    1.1917   -1.2741 H   0  0  0  0  0  0  0  0  0  0  0  0
    7.0550   -0.8105    0.0214 H   0  0  0  0  0  0  0  0  0  0  0  0
    5.4211   -2.5348    0.4911 H   0  0  0  0  0  0  0  0  0  0  0  0
    3.1623   -2.3434   -0.2802 H   0  0  0  0  0  0  0  0  0  0  0  0
   -1.0818    0.2254   -1.2683 H   0  0  0  0  0  0  0  0  0  0  0  0
   -2.8398   -0.7597    1.9447 H   0  0  0  0  0  0  0  0  0  0  0  0
   -5.6398   -0.2374   -2.0383 H   0  0  0  0  0  0  0  0  0  0  0  0
    0.5525    3.4301    2.7564 H   0  0  0  0  0  0  0  0  0  0  0  0
  1  2  1  0
  2  3  1  0
  3  4  1  0
  4  5  1  0
  5  6  1  0
  6  7  2  0
  7  8  1  0
  8  9  2  0
  9 10  1  0
 10 11  2  0
  3 12  1  0
 12 13  2  0
 12 14  1  0
 14 15  1  0
 15 16  2  0
 16 17  1  0
 17 18  1  0
 17 19  2  0
 19 20  1  0
 20 21  2  0
 21 22  1  0
 19 23  1  0
 23 24  1  0
 23 25  1  0
 23 26  1  0
  2 27  1  0
 27 28  1  0
 27 29  2  0
 11  6  1  0
 21 15  1  0
  1 30  1  0
  1 31  1  0
  2 32  1  1
  3 33  1  1
  5 34  1  0
  5 35  1  0
  7 36  1  0
  8 37  1  0
  9 38  1  0
 10 39  1  0
 11 40  1  0
 14 41  1  0
 16 42  1  0
 20 43  1  0
 28 44  1  0
M  END
$$$$
[H]c1nc(-c2c([H])c([H])c(N([H])C(=O)N([H])c3c(C([H])([H])[H])c([H])c(C([H])([H])[H])c([H])c3C([H])([H])[H])c([H])c2[H])c2c(N([H])[H])nn([H])c2n1
     RDKit          3D

 50 53  0  0  0  0  0  0  0  0999 V2000
   -8.0913   -0.0399    0.0813 C   0  0  0  0  0  0  0  0  0  0  0  0
   -6.6170    0.1104   -0.0257 C   0  0  0  0  0  0  0  0  0  0  0  0
   -5.9358   -0.1129   -1.1982 C   0  0  0  0  0  0  0  0  0  0  0  0
   -4.5555    0.0350   -1.2635 C   0  0  0  0  0  0  0  0  0  0  0  0
   -3.8243   -0.1993   -2.5299 C   0  0  0  0  0  0  0  0  0  0  0  0
   -3.8093    0.4079   -0.1688 C   0  0  0  0  0  0  0  0  0  0  0  0
   -2.4318    0.5201   -0.2086 N   0  0  0  0  0  0  0  0  0  0  0  0
   -1.6340   -0.6422    0.2340 C   0  0  0  0  0  0  0  0  0  0  0  0
   -2.3828   -1.6129    0.6076 O   0  0  0  0  0  0  0  0  0  0  0  0
   -0.3062   -0.6314    0.2229 N   0  0  0  0  0  0  0  0  0  0  0  0
    1.0448   -0.6206    0.2116 C   0  0  0  0  0  0  0  0  0  0  0  0
    1.8075   -0.6386    1.3977 C   0  0  0  0  0  0  0  0  0  0  0  0
    3.1778   -0.6364    1.3734 C   0  0  0  0  0  0  0  0  0  0  0  0
    3.8714   -0.6161    0.1666 C   0  0  0  0  0  0  0  0  0  0  0  0
    3.1503   -0.5993   -0.9951 C   0  0  0  0  0  0  0  0  0  0  0  0
    1.7800   -0.5997   -0.9733 C   0  0  0  0  0  0  0  0  0  0  0  0
    5.3290   -0.7212    0.1683 C   0  0  0  0  0  0  0  0  0  0  0  0
    5.8861   -1.8277    0.7637 N   0  0  0  0  0  0  0  0  0  0  0  0
    7.1950   -2.0070    0.8254 C   0  0  0  0  0  0  0  0  0  0  0  0
    7.9835   -1.0852    0.2945 N   0  0  0  0  0  0  0  0  0  0  0  0
    7.4912    0.0236   -0.3030 C   0  0  0  0  0  0  0  0  0  0  0  0
    8.0811    1.0825   -0.8812 N   0  0  0  0  0  0  0  0  0  0  0  0
    7.1930    1.9304   -1.3043 N   0  0  0  0  0  0  0  0  0  0  0  0
    5.9555    1.4339   -1.0056 C   0  0  0  0  0  0  0  0  0  0  0  0
    4.7209    2.0654   -1.2606 N   0  0  0  0  0  0  0  0  0  0  0  0
    6.1306    0.2337   -0.3789 C   0  0  0  0  0  0  0  0  0  0  0  0
   -4.4950    0.6383    1.0312 C   0  0  0  0  0  0  0  0  0  0  0  0
   -3.7194    1.0408    2.2280 C   0  0  0  0  0  0  0  0  0  0  0  0
   -5.8663    0.4861    1.0687 C   0  0  0  0  0  0  0  0  0  0  0  0
   -8.4752   -0.8734   -0.5541 H   0  0  0  0  0  0  0  0  0  0  0  0
   -8.4253   -0.2931    1.1100 H   0  0  0  0  0  0  0  0  0  0  0  0
   -8.6549    0.8719   -0.2254 H   0  0  0  0  0  0  0  0  0  0  0  0
   -6.5002   -0.4095   -2.0915 H   0  0  0  0  0  0  0  0  0  0  0  0
   -3.7333   -1.2630   -2.7733 H   0  0  0  0  0  0  0  0  0  0  0  0
   -4.4575    0.2474   -3.3546 H   0  0  0  0  0  0  0  0  0  0  0  0
   -2.8670    0.3648   -2.5280 H   0  0  0  0  0  0  0  0  0  0  0  0
   -1.8922    1.3309   -0.5214 H   0  0  0  0  0  0  0  0  0  0  0  0
   -0.2693   -1.9380    0.6197 H   0  0  0  0  0  0  0  0  0  0  0  0
    1.2284   -0.6469    2.3132 H   0  0  0  0  0  0  0  0  0  0  0  0
    3.7764   -0.6476    2.2682 H   0  0  0  0  0  0  0  0  0  0  0  0
    3.6986   -0.6064   -1.9509 H   0  0  0  0  0  0  0  0  0  0  0  0
    1.1997   -0.5829   -1.9024 H   0  0  0  0  0  0  0  0  0  0  0  0
    7.6748   -2.8678    1.2851 H   0  0  0  0  0  0  0  0  0  0  0  0
    9.1329    1.1433   -0.9484 H   0  0  0  0  0  0  0  0  0  0  0  0
    4.4546    2.2709   -2.2409 H   0  0  0  0  0  0  0  0  0  0  0  0
    4.0839    2.3266   -0.4999 H   0  0  0  0  0  0  0  0  0  0  0  0
   -2.9484    1.7762    1.9752 H   0  0  0  0  0  0  0  0  0  0  0  0
   -3.3140    0.1728    2.7991 H   0  0  0  0  0  0  0  0  0  0  0  0
   -4.4271    1.5554    2.9178 H   0  0  0  0  0  0  0  0  0  0  0  0
   -6.4135    0.6512    1.9884 H   0  0  0  0  0  0  0  0  0  0  0  0
  1  2  1  0
  2  3  2  0
  3  4  1  0
  4  5  1  0
  4  6  2  0
  6  7  1  0
  7  8  1  0
  8  9  2  0
  8 10  1  0
 10 11  1  0
 11 12  2  0
 12 13  1  0
 13 14  2  0
 14 15  1  0
 15 16  2  0
 14 17  1  0
 17 18  2  0
 18 19  1  0
 19 20  2  0
 20 21  1  0
 21 22  1  0
 22 23  1  0
 23 24  2  0
 24 25  1  0
 24 26  1  0
  6 27  1  0
 27 28  1  0
 27 29  2  0
 29  2  1  0
 16 11  1  0
 26 17  1  0
 26 21  2  0
  1 30  1  0
  1 31  1  0
  1 32  1  0
  3 33  1  0
  5 34  1  0
  5 35  1  0
  5 36  1  0
  7 37  1  0
 10 38  1  0
 12 39  1  0
 13 40  1  0
 15 41  1  0
 16 42  1  0
 19 43  1  0
 22 44  1  0
 25 45  1  0
 25 46  1  0
 28 47  1  0
 28 48  1  0
 28 49  1  0
 29 50  1  0
M  END
$$$$
[H]c1c([H])c(N([H])C(=O)c2c(C([H])([H])[H])c(C(=O)C(=O)N([H])C3(C(=O)N([H])[H])C([H])([H])C(F)(F)C3([H])[H])c3n2C([H])([H])C([H])([H])C3([H])[H])c([H])c(C#N)c1F
     RDKit          3D

 55 58  0  0  0  0  0  0  0  0999 V2000
   -0.2672   -0.2489    2.1598 C   0  0  0  0  0  0  0  0  0  0  0  0
   -0.5001   -0.6175    0.7347 C   0  0  0  0  0  0  0  0  0  0  0  0
    0.4713   -1.1166   -0.0970 C   0  0  0  0  0  0  0  0  0  0  0  0
    1.8782   -1.3760    0.2379 C   0  0  0  0  0  0  0  0  0  0  0  0
    2.2206   -2.5005    0.6860 O   0  0  0  0  0  0  0  0  0  0  0  0
    2.9122   -0.3712    0.0712 C   0  0  0  0  0  0  0  0  0  0  0  0
    2.5545    0.7469   -0.3771 O   0  0  0  0  0  0  0  0  0  0  0  0
    4.2545   -0.5998    0.3840 N   0  0  0  0  0  0  0  0  0  0  0  0
    5.3307    0.3382    0.2431 C   0  0  0  0  0  0  0  0  0  0  0  0
    6.6780   -0.1921    0.7143 C   0  0  0  0  0  0  0  0  0  0  0  0
    6.5372    0.6497    1.9882 C   0  0  0  0  0  0  0  0  0  0  0  0
    6.1213   -0.0864    3.0749 F   0  0  0  0  0  0  0  0  0  0  0  0
    7.6358    1.4130    2.2860 F   0  0  0  0  0  0  0  0  0  0  0  0
    5.4092    1.4121    1.2821 C   0  0  0  0  0  0  0  0  0  0  0  0
    5.5196    0.8031   -1.1755 C   0  0  0  0  0  0  0  0  0  0  0  0
    6.5123    1.7487   -1.5084 N   0  0  0  0  0  0  0  0  0  0  0  0
    4.7919    0.3527   -2.0866 O   0  0  0  0  0  0  0  0  0  0  0  0
   -0.1331   -1.3340   -1.3334 C   0  0  0  0  0  0  0  0  0  0  0  0
    0.2207   -1.8380   -2.6994 C   0  0  0  0  0  0  0  0  0  0  0  0
   -1.0084   -1.5880   -3.5011 C   0  0  0  0  0  0  0  0  0  0  0  0
   -2.0928   -1.1960   -2.5548 C   0  0  0  0  0  0  0  0  0  0  0  0
   -1.4295   -0.9841   -1.2745 N   0  0  0  0  0  0  0  0  0  0  0  0
   -1.6711   -0.5414   -0.0081 C   0  0  0  0  0  0  0  0  0  0  0  0
   -2.9485   -0.0492    0.5350 C   0  0  0  0  0  0  0  0  0  0  0  0
   -2.8923    0.3410    1.7528 O   0  0  0  0  0  0  0  0  0  0  0  0
   -4.1393    0.0012   -0.1884 N   0  0  0  0  0  0  0  0  0  0  0  0
   -5.3878    0.4428    0.2411 C   0  0  0  0  0  0  0  0  0  0  0  0
   -6.4143    0.6984   -0.6975 C   0  0  0  0  0  0  0  0  0  0  0  0
   -7.6610    1.1175   -0.3289 C   0  0  0  0  0  0  0  0  0  0  0  0
   -7.9723    1.3099    0.9812 C   0  0  0  0  0  0  0  0  0  0  0  0
   -9.2320    1.7299    1.2998 F   0  0  0  0  0  0  0  0  0  0  0  0
   -7.0191    1.0787    1.9422 C   0  0  0  0  0  0  0  0  0  0  0  0
   -5.7412    0.6473    1.5417 C   0  0  0  0  0  0  0  0  0  0  0  0
   -7.3265    1.2752    3.3272 C   0  0  0  0  0  0  0  0  0  0  0  0
   -7.5591    1.4446    4.4509 N   0  0  0  0  0  0  0  0  0  0  0  0
   -0.4525    0.8283    2.3208 H   0  0  0  0  0  0  0  0  0  0  0  0
    0.7325   -0.5839    2.5032 H   0  0  0  0  0  0  0  0  0  0  0  0
   -0.9926   -0.7969    2.8298 H   0  0  0  0  0  0  0  0  0  0  0  0
    4.4974   -1.5659    0.7634 H   0  0  0  0  0  0  0  0  0  0  0  0
    7.5533    0.1849    0.1473 H   0  0  0  0  0  0  0  0  0  0  0  0
    6.7150   -1.2560    0.9464 H   0  0  0  0  0  0  0  0  0  0  0  0
    5.7403    2.3912    0.8530 H   0  0  0  0  0  0  0  0  0  0  0  0
    4.5315    1.4803    1.9606 H   0  0  0  0  0  0  0  0  0  0  0  0
    6.4231    2.7363   -1.2183 H   0  0  0  0  0  0  0  0  0  0  0  0
    7.3419    1.4565   -2.0493 H   0  0  0  0  0  0  0  0  0  0  0  0
    0.4302   -2.9202   -2.6952 H   0  0  0  0  0  0  0  0  0  0  0  0
    1.1338   -1.3406   -3.0880 H   0  0  0  0  0  0  0  0  0  0  0  0
   -1.3533   -2.4916   -4.0533 H   0  0  0  0  0  0  0  0  0  0  0  0
   -0.7744   -0.8201   -4.2680 H   0  0  0  0  0  0  0  0  0  0  0  0
   -2.8773   -1.9770   -2.4419 H   0  0  0  0  0  0  0  0  0  0  0  0
   -2.5167   -0.2329   -2.9598 H   0  0  0  0  0  0  0  0  0  0  0  0
   -4.0971   -0.3445   -1.1952 H   0  0  0  0  0  0  0  0  0  0  0  0
   -6.1741    0.5483   -1.7389 H   0  0  0  0  0  0  0  0  0  0  0  0
   -8.4496    1.3120   -1.0749 H   0  0  0  0  0  0  0  0  0  0  0  0
   -5.0636    0.4805    2.3550 H   0  0  0  0  0  0  0  0  0  0  0  0
  1  2  1  0
  2  3  1  0
  3  4  1  0
  4  5  2  0
  4  6  1  0
  6  7  2  0
  6  8  1  0
  8  9  1  0
  9 10  1  0
 10 11  1  0
 11 12  1  0
 11 13  1  0
 11 14  1  0
  9 15  1  0
 15 16  1  0
 15 17  2  0
  3 18  2  0
 18 19  1  0
 19 20  1  0
 20 21  1  0
 21 22  1  0
 22 23  1  0
 23 24  1  0
 24 25  2  0
 24 26  1  0
 26 27  1  0
 27 28  2  0
 28 29  1  0
 29 30  2  0
 30 31  1  0
 30 32  1  0
 32 33  2  0
 32 34  1  0
 34 35  3  0
 23  2  2  0
 33 27  1  0
 14  9  1  0
 22 18  1  0
  1 36  1  0
  1 37  1  0
  1 38  1  0
  8 39  1  0
 10 40  1  0
 10 41  1  0
 14 42  1  0
 14 43  1  0
 16 44  1  0
 16 45  1  0
 19 46  1  0
 19 47  1  0
 20 48  1  0
 20 49  1  0
 21 50  1  0
 21 51  1  0
 26 52  1  0
 28 53  1  0
 29 54  1  0
 33 55  1  0
M  END
$$$$
[H]Oc1c([H])c([H])c([H])c2c3c4c(c5c([H])c(C(=O)OC([H])([H])[H])c([H])c([H])c5c3n([H])c12)C(=O)N([H])C4=O
     RDKit          3D

 39 43  0  0  0  0  0  0  0  0999 V2000
    6.7225    1.9298    0.1822 C   0  0  0  0  0  0  0  0  0  0  0  0
    5.2876    1.9100    0.1926 O   0  0  0  0  0  0  0  0  0  0  0  0
    4.5958    0.7296    0.0478 C   0  0  0  0  0  0  0  0  0  0  0  0
    5.2284   -0.3421   -0.0950 O   0  0  0  0  0  0  0  0  0  0  0  0
    3.1360    0.7002    0.0573 C   0  0  0  0  0  0  0  0  0  0  0  0
    2.3857    1.8478    0.2108 C   0  0  0  0  0  0  0  0  0  0  0  0
    1.0115    1.7949    0.2165 C   0  0  0  0  0  0  0  0  0  0  0  0
    0.4021    0.5628    0.0645 C   0  0  0  0  0  0  0  0  0  0  0  0
   -0.9727    0.4793    0.0662 C   0  0  0  0  0  0  0  0  0  0  0  0
   -1.9072    1.4507    0.1990 N   0  0  0  0  0  0  0  0  0  0  0  0
   -3.1363    0.9138    0.1414 C   0  0  0  0  0  0  0  0  0  0  0  0
   -4.3707    1.5417    0.2330 C   0  0  0  0  0  0  0  0  0  0  0  0
   -4.4125    2.9086    0.4082 O   0  0  0  0  0  0  0  0  0  0  0  0
   -5.5311    0.7840    0.1466 C   0  0  0  0  0  0  0  0  0  0  0  0
   -5.4261   -0.5778   -0.0286 C   0  0  0  0  0  0  0  0  0  0  0  0
   -4.1708   -1.1805   -0.1171 C   0  0  0  0  0  0  0  0  0  0  0  0
   -3.0162   -0.4560   -0.0349 C   0  0  0  0  0  0  0  0  0  0  0  0
   -1.6683   -0.7058   -0.0790 C   0  0  0  0  0  0  0  0  0  0  0  0
   -0.9392   -1.8880   -0.2369 C   0  0  0  0  0  0  0  0  0  0  0  0
   -1.3123   -3.2608   -0.4091 C   0  0  0  0  0  0  0  0  0  0  0  0
   -2.4531   -3.7802   -0.4652 O   0  0  0  0  0  0  0  0  0  0  0  0
   -0.1273   -4.0951   -0.5265 N   0  0  0  0  0  0  0  0  0  0  0  0
    0.9551   -3.1933   -0.4210 C   0  0  0  0  0  0  0  0  0  0  0  0
    2.1507   -3.5546   -0.4780 O   0  0  0  0  0  0  0  0  0  0  0  0
    0.4604   -1.8363   -0.2429 C   0  0  0  0  0  0  0  0  0  0  0  0
    1.0967   -0.6108   -0.0920 C   0  0  0  0  0  0  0  0  0  0  0  0
    2.4808   -0.5246   -0.0935 C   0  0  0  0  0  0  0  0  0  0  0  0
    7.1132    0.9085   -0.0246 H   0  0  0  0  0  0  0  0  0  0  0  0
    7.1209    2.6716   -0.5160 H   0  0  0  0  0  0  0  0  0  0  0  0
    7.0643    2.1925    1.1994 H   0  0  0  0  0  0  0  0  0  0  0  0
    2.8995    2.8095    0.3292 H   0  0  0  0  0  0  0  0  0  0  0  0
    0.4249    2.7099    0.3389 H   0  0  0  0  0  0  0  0  0  0  0  0
   -1.6493    2.4629    0.3261 H   0  0  0  0  0  0  0  0  0  0  0  0
   -5.3182    3.3585    0.4739 H   0  0  0  0  0  0  0  0  0  0  0  0
   -6.4787    1.2643    0.2166 H   0  0  0  0  0  0  0  0  0  0  0  0
   -6.3414   -1.1478   -0.0932 H   0  0  0  0  0  0  0  0  0  0  0  0
   -4.1899   -2.2252   -0.2505 H   0  0  0  0  0  0  0  0  0  0  0  0
   -0.1455   -5.1205   -0.6575 H   0  0  0  0  0  0  0  0  0  0  0  0
    3.0308   -1.4315   -0.2145 H   0  0  0  0  0  0  0  0  0  0  0  0
  1  2  1  0
  2  3  1  0
  3  4  2  0
  3  5  1  0
  5  6  2  0
  6  7  1  0
  7  8  2  0
  8  9  1  0
  9 10  1  0
 10 11  1  0
 11 12  2  0
 12 13  1  0
 12 14  1  0
 14 15  2  0
 15 16  1  0
 16 17  2  0
 17 18  1  0
 18 19  1  0
 19 20  1  0
 20 21  2  0
 20 22  1  0
 22 23  1  0
 23 24  2  0
 23 25  1  0
 25 26  1  0
 26 27  2  0
 27  5  1  0
 26  8  1  0
 18  9  2  0
 25 19  2  0
 17 11  1  0
  1 28  1  0
  1 29  1  0
  1 30  1  0
  6 31  1  0
  7 32  1  0
 10 33  1  0
 13 34  1  0
 14 35  1  0
 15 36  1  0
 16 37  1  0
 22 38  1  0
 27 39  1  0
M  END
$$$$
[H]c1c(C(F)(F)F)nc(SC2([H])C([H])([H])C([H])([H])C2([H])[H])c(C([H])([H])N([H])C(=O)C([H])(c2c([H])c([H])c(N([H])S(=O)(=O)C([H])([H])[H])c(F)c2[H])C([H])([H])[H])c1[H]
     RDKit          3D

 56 58  0  0  0  0  0  0  0  0999 V2000
    0.8556    0.8618   -1.5487 C   0  0  0  0  0  0  0  0  0  0  0  0
    1.5693    1.4848   -0.3146 C   0  0  0  0  0  0  0  0  0  0  0  0
    0.5589    1.1308    0.7795 C   0  0  0  0  0  0  0  0  0  0  0  0
    0.8778    0.4632    1.7215 O   0  0  0  0  0  0  0  0  0  0  0  0
   -0.7090    1.6250    0.5361 N   0  0  0  0  0  0  0  0  0  0  0  0
   -2.0292    1.4366    1.1668 C   0  0  0  0  0  0  0  0  0  0  0  0
   -2.4949    0.1228    0.5406 C   0  0  0  0  0  0  0  0  0  0  0  0
   -1.8026   -1.0201    0.6853 C   0  0  0  0  0  0  0  0  0  0  0  0
   -2.2130   -2.1497   -0.0531 C   0  0  0  0  0  0  0  0  0  0  0  0
   -3.2946   -2.0318   -0.8753 C   0  0  0  0  0  0  0  0  0  0  0  0
   -3.9558   -0.8645   -0.9718 N   0  0  0  0  0  0  0  0  0  0  0  0
   -3.6137    0.2382   -0.2993 C   0  0  0  0  0  0  0  0  0  0  0  0
   -4.4690    1.8036   -0.3853 S   0  0  0  0  0  0  0  0  0  0  0  0
   -5.9795    1.7525    0.5914 C   0  0  0  0  0  0  0  0  0  0  0  0
   -7.2652    1.5464   -0.2095 C   0  0  0  0  0  0  0  0  0  0  0  0
   -7.1110    0.0524   -0.0737 C   0  0  0  0  0  0  0  0  0  0  0  0
   -6.2491    0.3214    1.1337 C   0  0  0  0  0  0  0  0  0  0  0  0
   -3.6599   -3.2193   -1.7260 C   0  0  0  0  0  0  0  0  0  0  0  0
   -4.0196   -2.7945   -2.9937 F   0  0  0  0  0  0  0  0  0  0  0  0
   -4.6645   -3.9123   -1.1598 F   0  0  0  0  0  0  0  0  0  0  0  0
   -2.5302   -4.0451   -1.8119 F   0  0  0  0  0  0  0  0  0  0  0  0
    2.8621    0.8115   -0.1755 C   0  0  0  0  0  0  0  0  0  0  0  0
    3.5156    0.5180   -1.3911 C   0  0  0  0  0  0  0  0  0  0  0  0
    4.7170   -0.1817   -1.3681 C   0  0  0  0  0  0  0  0  0  0  0  0
    5.3179   -0.6063   -0.2078 C   0  0  0  0  0  0  0  0  0  0  0  0
    6.5021   -1.3957   -0.2608 N   0  0  0  0  0  0  0  0  0  0  0  0
    8.0174   -1.0774    0.3978 S   0  0  0  0  0  0  0  0  0  0  0  0
    8.8457    0.3542   -0.1623 C   0  0  0  0  0  0  0  0  0  0  0  0
    8.9167   -2.2732    0.0731 O   0  0  0  0  0  0  0  0  0  0  0  0
    8.0161   -1.0303    1.9214 O   0  0  0  0  0  0  0  0  0  0  0  0
    4.6618   -0.2992    0.9473 C   0  0  0  0  0  0  0  0  0  0  0  0
    5.1712   -0.6739    2.1252 F   0  0  0  0  0  0  0  0  0  0  0  0
    3.4540    0.3981    0.9878 C   0  0  0  0  0  0  0  0  0  0  0  0
    0.4985   -0.1643   -1.2745 H   0  0  0  0  0  0  0  0  0  0  0  0
   -0.0690    1.4661   -1.7445 H   0  0  0  0  0  0  0  0  0  0  0  0
    1.4069    0.8487   -2.4602 H   0  0  0  0  0  0  0  0  0  0  0  0
    1.6399    2.5324   -0.4699 H   0  0  0  0  0  0  0  0  0  0  0  0
   -0.7541    2.3391   -0.2993 H   0  0  0  0  0  0  0  0  0  0  0  0
   -1.9623    1.2849    2.2335 H   0  0  0  0  0  0  0  0  0  0  0  0
   -2.6861    2.2400    0.8946 H   0  0  0  0  0  0  0  0  0  0  0  0
   -0.9547   -1.1724    1.3763 H   0  0  0  0  0  0  0  0  0  0  0  0
   -1.6437   -3.0477    0.0816 H   0  0  0  0  0  0  0  0  0  0  0  0
   -6.0897    2.4593    1.4079 H   0  0  0  0  0  0  0  0  0  0  0  0
   -7.1344    1.9369   -1.2449 H   0  0  0  0  0  0  0  0  0  0  0  0
   -8.1542    1.9706    0.2827 H   0  0  0  0  0  0  0  0  0  0  0  0
   -6.6833   -0.4000   -0.9577 H   0  0  0  0  0  0  0  0  0  0  0  0
   -8.0940   -0.4626    0.1981 H   0  0  0  0  0  0  0  0  0  0  0  0
   -5.3437   -0.2388    1.2857 H   0  0  0  0  0  0  0  0  0  0  0  0
   -6.8406    0.3532    2.0709 H   0  0  0  0  0  0  0  0  0  0  0  0
    3.1760    0.8097   -2.3550 H   0  0  0  0  0  0  0  0  0  0  0  0
    5.2228   -0.4168   -2.3070 H   0  0  0  0  0  0  0  0  0  0  0  0
    6.3756   -2.3142   -0.8194 H   0  0  0  0  0  0  0  0  0  0  0  0
    8.8154    1.1908    0.5815 H   0  0  0  0  0  0  0  0  0  0  0  0
    8.5232    0.6811   -1.1534 H   0  0  0  0  0  0  0  0  0  0  0  0
    9.9446    0.1118   -0.2369 H   0  0  0  0  0  0  0  0  0  0  0  0
    3.0081    0.6461    1.9251 H   0  0  0  0  0  0  0  0  0  0  0  0
  1  2  1  0
  2  3  1  0
  3  4  2  0
  3  5  1  0
  5  6  1  0
  6  7  1  0
  7  8  2  0
  8  9  1  0
  9 10  2  0
 10 11  1  0
 11 12  2  0
 12 13  1  0
 13 14  1  0
 14 15  1  0
 15 16  1  0
 16 17  1  0
 10 18  1  0
 18 19  1  0
 18 20  1  0
 18 21  1  0
  2 22  1  0
 22 23  2  0
 23 24  1  0
 24 25  2  0
 25 26  1  0
 26 27  1  0
 27 28  1  0
 27 29  2  0
 27 30  2  0
 25 31  1  0
 31 32  1  0
 31 33  2  0
 12  7  1  0
 17 14  1  0
 33 22  1  0
  1 34  1  0
  1 35  1  0
  1 36  1  0
  2 37  1  0
  5 38  1  0
  6 39  1  0
  6 40  1  0
  8 41  1  0
  9 42  1  0
 14 43  1  0
 15 44  1  0
 15 45  1  0
 16 46  1  0
 16 47  1  0
 17 48  1  0
 17 49  1  0
 23 50  1  0
 24 51  1  0
 26 52  1  0
 28 53  1  0
 28 54  1  0
 28 55  1  0
 33 56  1  0
M  END
$$$$
[H]Oc1c([H])c([H])c([C@@]2([H])Oc3c([H])c(Cl)c(Cl)c([H])c3N([H])C2([H])[H])c([H])c1Cl
     RDKit          3D

 30 32  0  0  0  0  0  0  0  0999 V2000
   -5.6972    0.6376    0.0783 O   0  0  0  0  0  0  0  0  0  0  0  0
   -4.3446    0.3239   -0.0018 C   0  0  0  0  0  0  0  0  0  0  0  0
   -3.4518    1.0900   -0.7209 C   0  0  0  0  0  0  0  0  0  0  0  0
   -2.1151    0.7549   -0.7830 C   0  0  0  0  0  0  0  0  0  0  0  0
   -1.6070   -0.3606   -0.1300 C   0  0  0  0  0  0  0  0  0  0  0  0
   -2.5147   -1.1097    0.5808 C   0  0  0  0  0  0  0  0  0  0  0  0
   -3.8472   -0.7872    0.6505 C   0  0  0  0  0  0  0  0  0  0  0  0
   -4.9865   -1.7690    1.5710 Cl  0  0  0  0  0  0  0  0  0  0  0  0
   -0.1780   -0.6395   -0.2506 C   0  0  2  0  0  0  0  0  0  0  0  0
    0.3501   -1.6186    0.7519 C   0  0  0  0  0  0  0  0  0  0  0  0
    1.7992   -1.6346    0.6459 N   0  0  0  0  0  0  0  0  0  0  0  0
    2.5688   -0.5086    0.2801 C   0  0  0  0  0  0  0  0  0  0  0  0
    3.9434   -0.4841    0.2641 C   0  0  0  0  0  0  0  0  0  0  0  0
    4.6066    0.6739   -0.1113 C   0  0  0  0  0  0  0  0  0  0  0  0
    6.3598    0.7338   -0.1408 Cl  0  0  0  0  0  0  0  0  0  0  0  0
    3.9349    1.8279   -0.4775 C   0  0  0  0  0  0  0  0  0  0  0  0
    4.7903    3.2925   -0.9524 Cl  0  0  0  0  0  0  0  0  0  0  0  0
    2.5565    1.7998   -0.4604 C   0  0  0  0  0  0  0  0  0  0  0  0
    1.8914    0.6367   -0.0833 C   0  0  0  0  0  0  0  0  0  0  0  0
    0.5195    0.5913   -0.0607 O   0  0  0  0  0  0  0  0  0  0  0  0
   -6.0364    1.4590   -0.4101 H   0  0  0  0  0  0  0  0  0  0  0  0
   -3.8470    1.9576   -1.2288 H   0  0  0  0  0  0  0  0  0  0  0  0
   -1.4270    1.3824   -1.3626 H   0  0  0  0  0  0  0  0  0  0  0  0
   -2.1556   -1.9744    1.0945 H   0  0  0  0  0  0  0  0  0  0  0  0
    0.0082   -1.0614   -1.2678 H   0  0  0  0  0  0  0  0  0  0  0  0
   -0.0532   -2.6180    0.5414 H   0  0  0  0  0  0  0  0  0  0  0  0
    0.1085   -1.3673    1.7906 H   0  0  0  0  0  0  0  0  0  0  0  0
    2.3155   -2.5342    0.8519 H   0  0  0  0  0  0  0  0  0  0  0  0
    4.4907   -1.3923    0.5523 H   0  0  0  0  0  0  0  0  0  0  0  0
    2.0178    2.6983   -0.7454 H   0  0  0  0  0  0  0  0  0  0  0  0
  1  2  1  0
  2  3  2  0
  3  4  1  0
  4  5  2  0
  5  6  1  0
  6  7  2  0
  7  8  1  0
  5  9  1  0
  9 10  1  0
 10 11  1  0
 11 12  1  0
 12 13  2  0
 13 14  1  0
 14 15  1  0
 14 16  2  0
 16 17  1  0
 16 18  1  0
 18 19  2  0
 19 20  1  0
  7  2  1  0
 20  9  1  0
 19 12  1  0
  1 21  1  0
  3 22  1  0
  4 23  1  0
  6 24  1  0
  9 25  1  6
 10 26  1  0
 10 27  1  0
 11 28  1  0
 13 29  1  0
 18 30  1  0
M  END
$$$$
[H]N=C(N([H])[H])N([H])C([H])([H])C([H])([H])C([H])([H])[C@@]([H])(C(=O)OC([H])([H])[H])N([H])C(=O)[C@@]([H])(N([H])C(=O)C([H])(c1c([H])c([H])c([H])c([H])c1[H])c1c([H])c([H])c([H])c([H])c1[H])C([H])([H])O[H]
     RDKit          3D

 65 66  0  0  0  0  0  0  0  0999 V2000
    4.0346   -5.0592   -2.6420 C   0  0  0  0  0  0  0  0  0  0  0  0
    4.0146   -3.7165   -2.1733 O   0  0  0  0  0  0  0  0  0  0  0  0
    3.1107   -3.3814   -1.1833 C   0  0  0  0  0  0  0  0  0  0  0  0
    2.3358   -4.2398   -0.7179 O   0  0  0  0  0  0  0  0  0  0  0  0
    3.0922   -1.9580   -0.6887 C   0  0  2  0  0  0  0  0  0  0  0  0
    4.4154   -1.5970   -0.0827 C   0  0  0  0  0  0  0  0  0  0  0  0
    4.4005   -0.1815    0.4034 C   0  0  0  0  0  0  0  0  0  0  0  0
    4.1641    0.7553   -0.7475 C   0  0  0  0  0  0  0  0  0  0  0  0
    4.1659    2.1118   -0.2188 N   0  0  0  0  0  0  0  0  0  0  0  0
    3.0941    2.4893    0.6268 C   0  0  0  0  0  0  0  0  0  0  0  0
    3.2236    2.4761    2.0266 N   0  0  0  0  0  0  0  0  0  0  0  0
    1.9825    2.8511    0.0899 N   0  0  0  0  0  0  0  0  0  0  0  0
    2.0755   -1.8743    0.3324 N   0  0  0  0  0  0  0  0  0  0  0  0
    0.8678   -1.2025    0.0878 C   0  0  0  0  0  0  0  0  0  0  0  0
    0.6717   -0.6689   -1.0324 O   0  0  0  0  0  0  0  0  0  0  0  0
   -0.1606   -1.1333    1.1580 C   0  0  2  0  0  0  0  0  0  0  0  0
   -0.5488   -2.5728    1.4793 C   0  0  0  0  0  0  0  0  0  0  0  0
   -1.0322   -3.2300    0.3607 O   0  0  0  0  0  0  0  0  0  0  0  0
   -1.2848   -0.3838    0.6707 N   0  0  0  0  0  0  0  0  0  0  0  0
   -1.8695    0.6458    1.4302 C   0  0  0  0  0  0  0  0  0  0  0  0
   -1.3285    0.8597    2.5800 O   0  0  0  0  0  0  0  0  0  0  0  0
   -3.0116    1.4701    1.0355 C   0  0  0  0  0  0  0  0  0  0  0  0
   -4.1503    0.6235    0.6360 C   0  0  0  0  0  0  0  0  0  0  0  0
   -4.2259    0.1162   -0.6321 C   0  0  0  0  0  0  0  0  0  0  0  0
   -5.3011   -0.6899   -0.9742 C   0  0  0  0  0  0  0  0  0  0  0  0
   -6.2873   -0.9883   -0.0723 C   0  0  0  0  0  0  0  0  0  0  0  0
   -6.2195   -0.4796    1.2112 C   0  0  0  0  0  0  0  0  0  0  0  0
   -5.1351    0.3266    1.5385 C   0  0  0  0  0  0  0  0  0  0  0  0
   -2.7414    2.4954    0.0092 C   0  0  0  0  0  0  0  0  0  0  0  0
   -1.7673    2.4320   -0.9529 C   0  0  0  0  0  0  0  0  0  0  0  0
   -1.5866    3.4520   -1.8944 C   0  0  0  0  0  0  0  0  0  0  0  0
   -2.3877    4.5725   -1.8934 C   0  0  0  0  0  0  0  0  0  0  0  0
   -3.3670    4.6354   -0.9255 C   0  0  0  0  0  0  0  0  0  0  0  0
   -3.5457    3.6332    0.0008 C   0  0  0  0  0  0  0  0  0  0  0  0
    4.9877   -5.3241   -3.0994 H   0  0  0  0  0  0  0  0  0  0  0  0
    3.8679   -5.7192   -1.7444 H   0  0  0  0  0  0  0  0  0  0  0  0
    3.2349   -5.2173   -3.4073 H   0  0  0  0  0  0  0  0  0  0  0  0
    2.7893   -1.3551   -1.5524 H   0  0  0  0  0  0  0  0  0  0  0  0
    5.1912   -1.6980   -0.8924 H   0  0  0  0  0  0  0  0  0  0  0  0
    4.6664   -2.2913    0.7624 H   0  0  0  0  0  0  0  0  0  0  0  0
    5.3714    0.0094    0.9094 H   0  0  0  0  0  0  0  0  0  0  0  0
    3.5418   -0.0704    1.0978 H   0  0  0  0  0  0  0  0  0  0  0  0
    3.2280    0.5851   -1.2801 H   0  0  0  0  0  0  0  0  0  0  0  0
    4.9734    0.6733   -1.5153 H   0  0  0  0  0  0  0  0  0  0  0  0
    4.9368    2.7378   -0.4761 H   0  0  0  0  0  0  0  0  0  0  0  0
    3.9797    1.9325    2.4792 H   0  0  0  0  0  0  0  0  0  0  0  0
    2.5630    3.0100    2.6177 H   0  0  0  0  0  0  0  0  0  0  0  0
    1.8482    2.8745   -0.9430 H   0  0  0  0  0  0  0  0  0  0  0  0
    2.2483   -2.3164    1.2482 H   0  0  0  0  0  0  0  0  0  0  0  0
    0.2209   -0.7253    2.1157 H   0  0  0  0  0  0  0  0  0  0  0  0
    0.3790   -3.0905    1.7954 H   0  0  0  0  0  0  0  0  0  0  0  0
   -1.2428   -2.6129    2.3385 H   0  0  0  0  0  0  0  0  0  0  0  0
   -0.8829   -2.6817   -0.4427 H   0  0  0  0  0  0  0  0  0  0  0  0
   -1.6710   -0.6148   -0.2626 H   0  0  0  0  0  0  0  0  0  0  0  0
   -3.3621    2.0841    1.9544 H   0  0  0  0  0  0  0  0  0  0  0  0
   -3.4762    0.3217   -1.4163 H   0  0  0  0  0  0  0  0  0  0  0  0
   -5.3320   -1.0746   -1.9787 H   0  0  0  0  0  0  0  0  0  0  0  0
   -7.1438   -1.6223   -0.3234 H   0  0  0  0  0  0  0  0  0  0  0  0
   -6.9883   -0.7038    1.9366 H   0  0  0  0  0  0  0  0  0  0  0  0
   -5.1137    0.7096    2.5579 H   0  0  0  0  0  0  0  0  0  0  0  0
   -1.1299    1.5844   -0.9843 H   0  0  0  0  0  0  0  0  0  0  0  0
   -0.8183    3.3961   -2.6479 H   0  0  0  0  0  0  0  0  0  0  0  0
   -2.2349    5.3511   -2.6282 H   0  0  0  0  0  0  0  0  0  0  0  0
   -3.9945    5.5399   -0.9439 H   0  0  0  0  0  0  0  0  0  0  0  0
   -4.3359    3.7195    0.7550 H   0  0  0  0  0  0  0  0  0  0  0  0
  1  2  1  0
  2  3  1  0
  3  4  2  0
  3  5  1  0
  5  6  1  0
  6  7  1  0
  7  8  1  0
  8  9  1  0
  9 10  1  0
 10 11  1  0
 10 12  2  3
  5 13  1  0
 13 14  1  0
 14 15  2  0
 14 16  1  0
 16 17  1  0
 17 18  1  0
 16 19  1  0
 19 20  1  0
 20 21  2  0
 20 22  1  0
 22 23  1  0
 23 24  2  0
 24 25  1  0
 25 26  2  0
 26 27  1  0
 27 28  2  0
 22 29  1  0
 29 30  2  0
 30 31  1  0
 31 32  2  0
 32 33  1  0
 33 34  2  0
 28 23  1  0
 34 29  1  0
  1 35  1  0
  1 36  1  0
  1 37  1  0
  5 38  1  6
  6 39  1  0
  6 40  1  0
  7 41  1  0
  7 42  1  0
  8 43  1  0
  8 44  1  0
  9 45  1  0
 11 46  1  0
 11 47  1  0
 12 48  1  0
 13 49  1  0
 16 50  1  1
 17 51  1  0
 17 52  1  0
 18 53  1  0
 19 54  1  0
 22 55  1  0
 24 56  1  0
 25 57  1  0
 26 58  1  0
 27 59  1  0
 28 60  1  0
 30 61  1  0
 31 62  1  0
 32 63  1  0
 33 64  1  0
 34 65  1  0
M  END
$$$$
[H]O[C@@]1([H])C([H])([H])[C@@]([H])(N([H])c2nc([H])nc(N([H])c3nc([H])c4c([H])c(-c5c([H])c([H])c([H])c([H])c5[H])c(=O)n(C([H])([H])[H])c4n3)c2[H])C([H])([H])[C@]1([H])OC(=O)N1C([H])([H])C([H])([H])OC([H])([H])C1([H])[H]
     RDKit          3D

 71 76  0  0  0  0  0  0  0  0999 V2000
   -4.5436   -3.2462   -1.7225 O   0  0  0  0  0  0  0  0  0  0  0  0
   -5.2766   -2.4215   -0.8672 C   0  0  1  0  0  0  0  0  0  0  0  0
   -4.7794   -2.5724    0.5505 C   0  0  0  0  0  0  0  0  0  0  0  0
   -3.4216   -1.9219    0.4919 C   0  0  2  0  0  0  0  0  0  0  0  0
   -3.5533   -0.8650   -0.6024 C   0  0  0  0  0  0  0  0  0  0  0  0
   -4.9522   -0.9704   -1.1524 C   0  0  2  0  0  0  0  0  0  0  0  0
   -5.8739   -0.1886   -0.3875 O   0  0  0  0  0  0  0  0  0  0  0  0
   -6.6978    0.7519   -0.9727 C   0  0  0  0  0  0  0  0  0  0  0  0
   -6.5925    0.8852   -2.2278 O   0  0  0  0  0  0  0  0  0  0  0  0
   -7.5995    1.5117   -0.1997 N   0  0  0  0  0  0  0  0  0  0  0  0
   -8.4589    2.4934   -0.8081 C   0  0  0  0  0  0  0  0  0  0  0  0
   -9.4126    2.9736    0.2655 C   0  0  0  0  0  0  0  0  0  0  0  0
   -9.9890    1.9524    0.9793 O   0  0  0  0  0  0  0  0  0  0  0  0
   -9.1175    1.0803    1.5815 C   0  0  0  0  0  0  0  0  0  0  0  0
   -7.6659    1.3058    1.2226 C   0  0  0  0  0  0  0  0  0  0  0  0
   -2.4452   -2.8872    0.0756 N   0  0  0  0  0  0  0  0  0  0  0  0
   -1.0800   -2.5525    0.0182 C   0  0  0  0  0  0  0  0  0  0  0  0
   -0.6374   -1.3179    0.3842 C   0  0  0  0  0  0  0  0  0  0  0  0
    0.7175   -0.9652    0.3255 C   0  0  0  0  0  0  0  0  0  0  0  0
    1.1322    0.3140    0.7104 N   0  0  0  0  0  0  0  0  0  0  0  0
    2.4834    0.6999    0.6627 C   0  0  0  0  0  0  0  0  0  0  0  0
    2.8767    1.9481    1.0399 N   0  0  0  0  0  0  0  0  0  0  0  0
    4.1707    2.2935    0.9854 C   0  0  0  0  0  0  0  0  0  0  0  0
    5.1524    1.4303    0.5565 C   0  0  0  0  0  0  0  0  0  0  0  0
    6.4852    1.7530    0.4890 C   0  0  0  0  0  0  0  0  0  0  0  0
    7.4471    0.8493    0.0487 C   0  0  0  0  0  0  0  0  0  0  0  0
    8.8565    1.2071   -0.0145 C   0  0  0  0  0  0  0  0  0  0  0  0
    9.2618    2.4176   -0.5696 C   0  0  0  0  0  0  0  0  0  0  0  0
   10.5821    2.7539   -0.6264 C   0  0  0  0  0  0  0  0  0  0  0  0
   11.5575    1.9122   -0.1389 C   0  0  0  0  0  0  0  0  0  0  0  0
   11.1524    0.7185    0.4082 C   0  0  0  0  0  0  0  0  0  0  0  0
    9.8189    0.3785    0.4657 C   0  0  0  0  0  0  0  0  0  0  0  0
    7.0030   -0.3968   -0.3210 C   0  0  0  0  0  0  0  0  0  0  0  0
    7.8228   -1.2632   -0.7298 O   0  0  0  0  0  0  0  0  0  0  0  0
    5.6842   -0.7034   -0.2498 N   0  0  0  0  0  0  0  0  0  0  0  0
    5.2691   -2.0369   -0.6535 C   0  0  0  0  0  0  0  0  0  0  0  0
    4.7496    0.1627    0.1739 C   0  0  0  0  0  0  0  0  0  0  0  0
    3.4217   -0.1464    0.2455 N   0  0  0  0  0  0  0  0  0  0  0  0
    1.5671   -1.8923   -0.1062 N   0  0  0  0  0  0  0  0  0  0  0  0
    1.1568   -3.1349   -0.4789 C   0  0  0  0  0  0  0  0  0  0  0  0
   -0.1452   -3.4498   -0.4144 N   0  0  0  0  0  0  0  0  0  0  0  0
   -4.8007   -4.1853   -1.5210 H   0  0  0  0  0  0  0  0  0  0  0  0
   -6.3681   -2.6201   -0.9455 H   0  0  0  0  0  0  0  0  0  0  0  0
   -5.4210   -1.9440    1.2017 H   0  0  0  0  0  0  0  0  0  0  0  0
   -4.7361   -3.6262    0.8843 H   0  0  0  0  0  0  0  0  0  0  0  0
   -3.1451   -1.4568    1.4610 H   0  0  0  0  0  0  0  0  0  0  0  0
   -3.3727    0.1609   -0.1842 H   0  0  0  0  0  0  0  0  0  0  0  0
   -2.8016   -1.0352   -1.4032 H   0  0  0  0  0  0  0  0  0  0  0  0
   -5.0039   -0.7154   -2.2236 H   0  0  0  0  0  0  0  0  0  0  0  0
   -7.8216    3.3870   -1.0740 H   0  0  0  0  0  0  0  0  0  0  0  0
   -8.9728    2.1366   -1.7130 H   0  0  0  0  0  0  0  0  0  0  0  0
  -10.2254    3.5186   -0.2568 H   0  0  0  0  0  0  0  0  0  0  0  0
   -8.9044    3.7301    0.9071 H   0  0  0  0  0  0  0  0  0  0  0  0
   -9.2368    1.0215    2.6841 H   0  0  0  0  0  0  0  0  0  0  0  0
   -9.3675    0.0522    1.1912 H   0  0  0  0  0  0  0  0  0  0  0  0
   -7.2431    2.1682    1.7916 H   0  0  0  0  0  0  0  0  0  0  0  0
   -7.0961    0.4086    1.5405 H   0  0  0  0  0  0  0  0  0  0  0  0
   -2.7388   -3.8479   -0.1861 H   0  0  0  0  0  0  0  0  0  0  0  0
   -1.2996   -0.5680    0.7367 H   0  0  0  0  0  0  0  0  0  0  0  0
    0.4357    1.0453    1.0551 H   0  0  0  0  0  0  0  0  0  0  0  0
    4.5184    3.2923    1.2828 H   0  0  0  0  0  0  0  0  0  0  0  0
    6.8058    2.7526    0.7903 H   0  0  0  0  0  0  0  0  0  0  0  0
    8.5236    3.1069   -0.9640 H   0  0  0  0  0  0  0  0  0  0  0  0
   10.9101    3.6938   -1.0564 H   0  0  0  0  0  0  0  0  0  0  0  0
   12.5921    2.1966   -0.1936 H   0  0  0  0  0  0  0  0  0  0  0  0
   11.9067    0.0493    0.7941 H   0  0  0  0  0  0  0  0  0  0  0  0
    9.5142   -0.5736    0.9056 H   0  0  0  0  0  0  0  0  0  0  0  0
    4.6678   -1.9395   -1.5812 H   0  0  0  0  0  0  0  0  0  0  0  0
    4.5817   -2.4591    0.1121 H   0  0  0  0  0  0  0  0  0  0  0  0
    6.1285   -2.7173   -0.7764 H   0  0  0  0  0  0  0  0  0  0  0  0
    1.8441   -3.8923   -0.8306 H   0  0  0  0  0  0  0  0  0  0  0  0
  1  2  1  0
  2  3  1  0
  3  4  1  0
  4  5  1  0
  5  6  1  0
  6  7  1  0
  7  8  1  0
  8  9  2  0
  8 10  1  0
 10 11  1  0
 11 12  1  0
 12 13  1  0
 13 14  1  0
 14 15  1  0
  4 16  1  0
 16 17  1  0
 17 18  2  0
 18 19  1  0
 19 20  1  0
 20 21  1  0
 21 22  2  0
 22 23  1  0
 23 24  2  0
 24 25  1  0
 25 26  2  0
 26 27  1  0
 27 28  2  0
 28 29  1  0
 29 30  2  0
 30 31  1  0
 31 32  2  0
 26 33  1  0
 33 34  2  0
 33 35  1  0
 35 36  1  0
 35 37  1  0
 37 38  2  0
 19 39  2  0
 39 40  1  0
 40 41  2  0
  6  2  1  0
 15 10  1  0
 41 17  1  0
 38 21  1  0
 37 24  1  0
 32 27  1  0
  1 42  1  0
  2 43  1  1
  3 44  1  0
  3 45  1  0
  4 46  1  1
  5 47  1  0
  5 48  1  0
  6 49  1  6
 11 50  1  0
 11 51  1  0
 12 52  1  0
 12 53  1  0
 14 54  1  0
 14 55  1  0
 15 56  1  0
 15 57  1  0
 16 58  1  0
 18 59  1  0
 20 60  1  0
 23 61  1  0
 25 62  1  0
 28 63  1  0
 29 64  1  0
 30 65  1  0
 31 66  1  0
 32 67  1  0
 36 68  1  0
 36 69  1  0
 36 70  1  0
 40 71  1  0
M  END
$$$$
[H]N([H])C(=O)C([H])([H])C([H])([H])[C@@]([H])(C(=O)N([H])C([H])([H])C([H])([H])C([H])([H])C([H])([H])C([H])([H])C([H])([H])C([H])([H])C([H])([H])C([H])([H])N([H])C(=O)[C@@]([H])(N([H])[H])C([H])([H])C([H])([H])C([H])([H])C([H])([H])N=C(N([H])[H])N([H])[H])N([H])C(=O)C([H])([H])c1c(F)c(F)c(F)c(F)c1F
     RDKit          3D

 91 91  0  0  0  0  0  0  0  0999 V2000
    6.5093   -1.7141   -1.2656 N   0  0  0  0  0  0  0  0  0  0  0  0
    5.6183   -1.8008   -0.1008 C   0  0  1  0  0  0  0  0  0  0  0  0
    5.2183   -0.4126    0.2432 C   0  0  0  0  0  0  0  0  0  0  0  0
    6.4305    0.4244    0.5717 C   0  0  0  0  0  0  0  0  0  0  0  0
    7.1687   -0.1334    1.7453 C   0  0  0  0  0  0  0  0  0  0  0  0
    8.3611    0.7624    2.0400 C   0  0  0  0  0  0  0  0  0  0  0  0
    9.2169    0.7830    0.8677 N   0  0  0  0  0  0  0  0  0  0  0  0
   10.0861    1.7463    0.7025 C   0  0  0  0  0  0  0  0  0  0  0  0
   10.1708    2.7587    1.6855 N   0  0  0  0  0  0  0  0  0  0  0  0
   10.9317    1.7898   -0.4323 N   0  0  0  0  0  0  0  0  0  0  0  0
    4.4934   -2.7178   -0.4203 C   0  0  0  0  0  0  0  0  0  0  0  0
    3.7509   -3.1339    0.4857 O   0  0  0  0  0  0  0  0  0  0  0  0
    4.2650   -3.1273   -1.7445 N   0  0  0  0  0  0  0  0  0  0  0  0
    3.3059   -4.0025   -2.2571 C   0  0  0  0  0  0  0  0  0  0  0  0
    1.8698   -3.7145   -2.1477 C   0  0  0  0  0  0  0  0  0  0  0  0
    1.3967   -2.5103   -2.8454 C   0  0  0  0  0  0  0  0  0  0  0  0
    1.7377   -1.1559   -2.3348 C   0  0  0  0  0  0  0  0  0  0  0  0
    1.0421   -0.9913   -0.9877 C   0  0  0  0  0  0  0  0  0  0  0  0
    1.3027    0.3783   -0.4480 C   0  0  0  0  0  0  0  0  0  0  0  0
    0.6065    0.5405    0.8679 C   0  0  0  0  0  0  0  0  0  0  0  0
   -0.8849    0.3865    0.7424 C   0  0  0  0  0  0  0  0  0  0  0  0
   -1.4121    1.4442   -0.1672 C   0  0  0  0  0  0  0  0  0  0  0  0
   -2.8221    1.4382   -0.3863 N   0  0  0  0  0  0  0  0  0  0  0  0
   -3.7782    1.5700    0.6418 C   0  0  0  0  0  0  0  0  0  0  0  0
   -3.4201    1.6966    1.8653 O   0  0  0  0  0  0  0  0  0  0  0  0
   -5.2363    1.5728    0.4095 C   0  0  2  0  0  0  0  0  0  0  0  0
   -5.6940    3.0313    0.3508 C   0  0  0  0  0  0  0  0  0  0  0  0
   -4.9721    3.7131   -0.7852 C   0  0  0  0  0  0  0  0  0  0  0  0
   -5.4329    5.1368   -0.8879 C   0  0  0  0  0  0  0  0  0  0  0  0
   -4.8991    5.9358   -1.9216 N   0  0  0  0  0  0  0  0  0  0  0  0
   -6.2636    5.5714   -0.0697 O   0  0  0  0  0  0  0  0  0  0  0  0
   -5.9080    0.9414    1.5455 N   0  0  0  0  0  0  0  0  0  0  0  0
   -6.9396   -0.0003    1.2617 C   0  0  0  0  0  0  0  0  0  0  0  0
   -7.2426   -0.2622    0.0398 O   0  0  0  0  0  0  0  0  0  0  0  0
   -7.7155   -0.7210    2.2969 C   0  0  0  0  0  0  0  0  0  0  0  0
   -8.7413   -1.5715    1.6442 C   0  0  0  0  0  0  0  0  0  0  0  0
   -9.8557   -0.9356    1.1193 C   0  0  0  0  0  0  0  0  0  0  0  0
   -9.9461    0.4142    1.2341 F   0  0  0  0  0  0  0  0  0  0  0  0
  -10.8241   -1.6910    0.5054 C   0  0  0  0  0  0  0  0  0  0  0  0
  -11.9073   -1.0367   -0.0020 F   0  0  0  0  0  0  0  0  0  0  0  0
  -10.6850   -3.0773    0.4139 C   0  0  0  0  0  0  0  0  0  0  0  0
  -11.6689   -3.7668   -0.2007 F   0  0  0  0  0  0  0  0  0  0  0  0
   -9.5849   -3.7100    0.9318 C   0  0  0  0  0  0  0  0  0  0  0  0
   -9.4211   -5.0627    0.8596 F   0  0  0  0  0  0  0  0  0  0  0  0
   -8.6242   -2.9395    1.5430 C   0  0  0  0  0  0  0  0  0  0  0  0
   -7.4982   -3.5186    2.0811 F   0  0  0  0  0  0  0  0  0  0  0  0
    6.7314   -2.6810   -1.5501 H   0  0  0  0  0  0  0  0  0  0  0  0
    6.0499   -1.1130   -1.9648 H   0  0  0  0  0  0  0  0  0  0  0  0
    6.1487   -2.2693    0.7524 H   0  0  0  0  0  0  0  0  0  0  0  0
    4.6692    0.0615   -0.6303 H   0  0  0  0  0  0  0  0  0  0  0  0
    4.5094   -0.3310    1.0946 H   0  0  0  0  0  0  0  0  0  0  0  0
    6.0700    1.4392    0.8798 H   0  0  0  0  0  0  0  0  0  0  0  0
    7.0832    0.5035   -0.3365 H   0  0  0  0  0  0  0  0  0  0  0  0
    7.5650   -1.1484    1.6277 H   0  0  0  0  0  0  0  0  0  0  0  0
    6.4701   -0.1331    2.6170 H   0  0  0  0  0  0  0  0  0  0  0  0
    8.8669    0.3700    2.9341 H   0  0  0  0  0  0  0  0  0  0  0  0
    7.9936    1.8076    2.1869 H   0  0  0  0  0  0  0  0  0  0  0  0
    9.8235    2.5999    2.6466 H   0  0  0  0  0  0  0  0  0  0  0  0
   10.5878    3.6768    1.4433 H   0  0  0  0  0  0  0  0  0  0  0  0
   11.9411    2.0556   -0.3497 H   0  0  0  0  0  0  0  0  0  0  0  0
   10.5445    1.5533   -1.3775 H   0  0  0  0  0  0  0  0  0  0  0  0
    4.9413   -2.6878   -2.4637 H   0  0  0  0  0  0  0  0  0  0  0  0
    3.5456   -4.1617   -3.3742 H   0  0  0  0  0  0  0  0  0  0  0  0
    3.5159   -5.0511   -1.7865 H   0  0  0  0  0  0  0  0  0  0  0  0
    1.2519   -4.6329   -2.4580 H   0  0  0  0  0  0  0  0  0  0  0  0
    1.6303   -3.6675   -1.0278 H   0  0  0  0  0  0  0  0  0  0  0  0
    0.2621   -2.5499   -2.8754 H   0  0  0  0  0  0  0  0  0  0  0  0
    1.6463   -2.5834   -3.9622 H   0  0  0  0  0  0  0  0  0  0  0  0
    2.7918   -0.8942   -2.2868 H   0  0  0  0  0  0  0  0  0  0  0  0
    1.2852   -0.4237   -3.0678 H   0  0  0  0  0  0  0  0  0  0  0  0
    1.3814   -1.7405   -0.2543 H   0  0  0  0  0  0  0  0  0  0  0  0
   -0.0445   -1.1549   -1.2147 H   0  0  0  0  0  0  0  0  0  0  0  0
    1.0614    1.1838   -1.1915 H   0  0  0  0  0  0  0  0  0  0  0  0
    2.3866    0.4931   -0.2663 H   0  0  0  0  0  0  0  0  0  0  0  0
    0.7784    1.5829    1.2464 H   0  0  0  0  0  0  0  0  0  0  0  0
    1.0281   -0.2000    1.5796 H   0  0  0  0  0  0  0  0  0  0  0  0
   -1.1822   -0.6313    0.3961 H   0  0  0  0  0  0  0  0  0  0  0  0
   -1.2871    0.4637    1.7763 H   0  0  0  0  0  0  0  0  0  0  0  0
   -0.8886    1.3140   -1.1583 H   0  0  0  0  0  0  0  0  0  0  0  0
   -1.0258    2.4403    0.2021 H   0  0  0  0  0  0  0  0  0  0  0  0
   -3.2101    1.3293   -1.3735 H   0  0  0  0  0  0  0  0  0  0  0  0
   -5.5576    1.0603   -0.5141 H   0  0  0  0  0  0  0  0  0  0  0  0
   -5.4009    3.5611    1.2906 H   0  0  0  0  0  0  0  0  0  0  0  0
   -6.7787    3.1162    0.2848 H   0  0  0  0  0  0  0  0  0  0  0  0
   -3.8629    3.7101   -0.5927 H   0  0  0  0  0  0  0  0  0  0  0  0
   -5.1237    3.2020   -1.7542 H   0  0  0  0  0  0  0  0  0  0  0  0
   -3.8722    5.9311   -2.0735 H   0  0  0  0  0  0  0  0  0  0  0  0
   -5.4903    6.5279   -2.5369 H   0  0  0  0  0  0  0  0  0  0  0  0
   -5.6827    1.1337    2.5322 H   0  0  0  0  0  0  0  0  0  0  0  0
   -7.0787   -1.4045    2.8988 H   0  0  0  0  0  0  0  0  0  0  0  0
   -8.1787    0.0134    2.9893 H   0  0  0  0  0  0  0  0  0  0  0  0
  1  2  1  0
  2  3  1  0
  3  4  1  0
  4  5  1  0
  5  6  1  0
  6  7  1  0
  7  8  2  3
  8  9  1  0
  8 10  1  0
  2 11  1  0
 11 12  2  0
 11 13  1  0
 13 14  1  0
 14 15  1  0
 15 16  1  0
 16 17  1  0
 17 18  1  0
 18 19  1  0
 19 20  1  0
 20 21  1  0
 21 22  1  0
 22 23  1  0
 23 24  1  0
 24 25  2  0
 24 26  1  0
 26 27  1  0
 27 28  1  0
 28 29  1  0
 29 30  1  0
 29 31  2  0
 26 32  1  0
 32 33  1  0
 33 34  2  0
 33 35  1  0
 35 36  1  0
 36 37  2  0
 37 38  1  0
 37 39  1  0
 39 40  1  0
 39 41  2  0
 41 42  1  0
 41 43  1  0
 43 44  1  0
 43 45  2  0
 45 46  1  0
 45 36  1  0
  1 47  1  0
  1 48  1  0
  2 49  1  1
  3 50  1  0
  3 51  1  0
  4 52  1  0
  4 53  1  0
  5 54  1  0
  5 55  1  0
  6 56  1  0
  6 57  1  0
  9 58  1  0
  9 59  1  0
 10 60  1  0
 10 61  1  0
 13 62  1  0
 14 63  1  0
 14 64  1  0
 15 65  1  0
 15 66  1  0
 16 67  1  0
 16 68  1  0
 17 69  1  0
 17 70  1  0
 18 71  1  0
 18 72  1  0
 19 73  1  0
 19 74  1  0
 20 75  1  0
 20 76  1  0
 21 77  1  0
 21 78  1  0
 22 79  1  0
 22 80  1  0
 23 81  1  0
 26 82  1  6
 27 83  1  0
 27 84  1  0
 28 85  1  0
 28 86  1  0
 30 87  1  0
 30 88  1  0
 32 89  1  0
 35 90  1  0
 35 91  1  0
M  END
$$$$
[H]c1c([H])c([H])c([C@]2([H])C([H])([H])C([H])([H])[C@]([H])(c3nnc4c(OC([H])([H])C5([H])C([H])([H])C5([H])[H])c([H])c([H])c([H])n43)C([H])([H])C2([H])[H])c([H])c1[H]
     RDKit          3D

 51 55  0  0  0  0  0  0  0  0999 V2000
    5.9174    0.3498    2.0273 C   0  0  0  0  0  0  0  0  0  0  0  0
    4.9075    0.5313    1.2453 O   0  0  0  0  0  0  0  0  0  0  0  0
    3.8959    0.7131    0.4620 C   0  0  0  0  0  0  0  0  0  0  0  0
    3.9525    1.3329   -0.7913 C   0  0  0  0  0  0  0  0  0  0  0  0
    2.8044    1.4737   -1.5411 C   0  0  0  0  0  0  0  0  0  0  0  0
    1.5852    1.0231   -1.1009 C   0  0  0  0  0  0  0  0  0  0  0  0
    1.5235    0.4306    0.0939 N   0  0  0  0  0  0  0  0  0  0  0  0
    0.4438   -0.0900    0.7371 C   0  0  0  0  0  0  0  0  0  0  0  0
    0.9656   -0.5530    1.9007 N   0  0  0  0  0  0  0  0  0  0  0  0
    2.2491   -0.3359    1.9644 N   0  0  0  0  0  0  0  0  0  0  0  0
    2.6219    0.2767    0.8504 C   0  0  0  0  0  0  0  0  0  0  0  0
   -0.9508   -0.1797    0.3622 C   0  0  2  0  0  0  0  0  0  0  0  0
   -1.2508   -1.1900   -0.7495 C   0  0  0  0  0  0  0  0  0  0  0  0
   -2.7130   -1.0872   -1.0599 C   0  0  0  0  0  0  0  0  0  0  0  0
   -3.5512   -0.4919    0.0318 C   0  0  1  0  0  0  0  0  0  0  0  0
   -3.1078    0.9560    0.2980 C   0  0  0  0  0  0  0  0  0  0  0  0
   -1.6295    1.0853   -0.0238 C   0  0  0  0  0  0  0  0  0  0  0  0
   -4.9676   -0.5350   -0.3751 C   0  0  0  0  0  0  0  0  0  0  0  0
   -5.8934   -1.1837    0.4162 C   0  0  0  0  0  0  0  0  0  0  0  0
   -7.2249   -1.2674    0.1057 C   0  0  0  0  0  0  0  0  0  0  0  0
   -7.6956   -0.6842   -1.0497 C   0  0  0  0  0  0  0  0  0  0  0  0
   -6.7930   -0.0316   -1.8562 C   0  0  0  0  0  0  0  0  0  0  0  0
   -5.4564    0.0428   -1.5278 C   0  0  0  0  0  0  0  0  0  0  0  0
    7.0591   -0.5131    1.5152 C   0  0  0  0  0  0  0  0  0  0  0  0
    6.7327   -1.9449    1.1537 C   0  0  0  0  0  0  0  0  0  0  0  0
    7.0564   -0.8714    0.0837 C   0  0  0  0  0  0  0  0  0  0  0  0
    6.3939    1.3409    2.3866 H   0  0  0  0  0  0  0  0  0  0  0  0
    5.6816   -0.1520    3.0492 H   0  0  0  0  0  0  0  0  0  0  0  0
    4.9227    1.6801   -1.1190 H   0  0  0  0  0  0  0  0  0  0  0  0
    2.9103    1.9678   -2.5152 H   0  0  0  0  0  0  0  0  0  0  0  0
    0.7260    1.1366   -1.6816 H   0  0  0  0  0  0  0  0  0  0  0  0
   -1.5214   -0.6039    1.2386 H   0  0  0  0  0  0  0  0  0  0  0  0
   -1.0385   -2.1957   -0.2823 H   0  0  0  0  0  0  0  0  0  0  0  0
   -0.5928   -0.9777   -1.6048 H   0  0  0  0  0  0  0  0  0  0  0  0
   -3.0855   -2.0937   -1.3230 H   0  0  0  0  0  0  0  0  0  0  0  0
   -2.8656   -0.4356   -1.9687 H   0  0  0  0  0  0  0  0  0  0  0  0
   -3.4546   -1.0950    0.9637 H   0  0  0  0  0  0  0  0  0  0  0  0
   -3.3481    1.2798    1.3270 H   0  0  0  0  0  0  0  0  0  0  0  0
   -3.6999    1.5871   -0.4229 H   0  0  0  0  0  0  0  0  0  0  0  0
   -1.6016    1.1671   -1.1520 H   0  0  0  0  0  0  0  0  0  0  0  0
   -1.1945    1.9832    0.4618 H   0  0  0  0  0  0  0  0  0  0  0  0
   -5.5956   -1.6758    1.3564 H   0  0  0  0  0  0  0  0  0  0  0  0
   -7.9357   -1.7784    0.7361 H   0  0  0  0  0  0  0  0  0  0  0  0
   -8.7635   -0.7431   -1.3129 H   0  0  0  0  0  0  0  0  0  0  0  0
   -7.1647    0.4274   -2.7652 H   0  0  0  0  0  0  0  0  0  0  0  0
   -4.7464    0.5560   -2.1620 H   0  0  0  0  0  0  0  0  0  0  0  0
    8.0267   -0.3828    2.0551 H   0  0  0  0  0  0  0  0  0  0  0  0
    5.6445   -2.2309    1.2235 H   0  0  0  0  0  0  0  0  0  0  0  0
    7.4934   -2.7029    1.3475 H   0  0  0  0  0  0  0  0  0  0  0  0
    8.0557   -1.0280   -0.3930 H   0  0  0  0  0  0  0  0  0  0  0  0
    6.2729   -0.6155   -0.6152 H   0  0  0  0  0  0  0  0  0  0  0  0
  1  2  1  0
  2  3  1  0
  3  4  2  0
  4  5  1  0
  5  6  2  0
  6  7  1  0
  7  8  1  0
  8  9  2  0
  9 10  1  0
 10 11  2  0
  8 12  1  0
 12 13  1  0
 13 14  1  0
 14 15  1  0
 15 16  1  0
 16 17  1  0
 15 18  1  0
 18 19  2  0
 19 20  1  0
 20 21  2  0
 21 22  1  0
 22 23  2  0
  1 24  1  0
 24 25  1  0
 25 26  1  0
 11  3  1  0
 17 12  1  0
 23 18  1  0
 26 24  1  0
 11  7  1  0
  1 27  1  0
  1 28  1  0
  4 29  1  0
  5 30  1  0
  6 31  1  0
 12 32  1  1
 13 33  1  0
 13 34  1  0
 14 35  1  0
 14 36  1  0
 15 37  1  1
 16 38  1  0
 16 39  1  0
 17 40  1  0
 17 41  1  0
 19 42  1  0
 20 43  1  0
 21 44  1  0
 22 45  1  0
 23 46  1  0
 24 47  1  0
 25 48  1  0
 25 49  1  0
 26 50  1  0
 26 51  1  0
M  END
$$$$
[H]c1c([H])c([H])c2c([H])c([H])c(N3C([H])([H])C([H])([H])N(C([H])([H])c4c([H])c([H])c5c(=O)n([H])c([H])nc5c4[H])C([H])([H])C3([H])[H])nc2c1[H]
     RDKit          3D

 49 53  0  0  0  0  0  0  0  0999 V2000
    7.3279    0.2065    1.5828 O   0  0  0  0  0  0  0  0  0  0  0  0
    6.4183   -0.6546    1.4204 C   0  0  0  0  0  0  0  0  0  0  0  0
    6.5142   -1.8695    1.9872 N   0  0  0  0  0  0  0  0  0  0  0  0
    5.5386   -2.7906    1.8122 C   0  0  0  0  0  0  0  0  0  0  0  0
    4.4867   -2.4546    1.0638 N   0  0  0  0  0  0  0  0  0  0  0  0
    4.3446   -1.2531    0.4757 C   0  0  0  0  0  0  0  0  0  0  0  0
    3.2485   -0.9263   -0.2946 C   0  0  0  0  0  0  0  0  0  0  0  0
    3.0964    0.3209   -0.9077 C   0  0  0  0  0  0  0  0  0  0  0  0
    1.9029    0.6392   -1.7297 C   0  0  0  0  0  0  0  0  0  0  0  0
    1.0590    1.5543   -1.0455 N   0  0  0  0  0  0  0  0  0  0  0  0
   -0.1249    1.9226   -1.7470 C   0  0  0  0  0  0  0  0  0  0  0  0
   -1.2475    2.1586   -0.7741 C   0  0  0  0  0  0  0  0  0  0  0  0
   -1.3903    0.9803    0.0615 N   0  0  0  0  0  0  0  0  0  0  0  0
   -0.2144    0.5116    0.7705 C   0  0  0  0  0  0  0  0  0  0  0  0
    0.9386    1.4052    0.3619 C   0  0  0  0  0  0  0  0  0  0  0  0
   -2.6317    0.3373    0.1632 C   0  0  0  0  0  0  0  0  0  0  0  0
   -2.7310   -0.7884    0.9636 C   0  0  0  0  0  0  0  0  0  0  0  0
   -3.9565   -1.4074    1.0533 C   0  0  0  0  0  0  0  0  0  0  0  0
   -5.0670   -0.9213    0.3623 C   0  0  0  0  0  0  0  0  0  0  0  0
   -6.3007   -1.5363    0.4464 C   0  0  0  0  0  0  0  0  0  0  0  0
   -7.3917   -1.0480   -0.2404 C   0  0  0  0  0  0  0  0  0  0  0  0
   -7.1851    0.0777   -1.0088 C   0  0  0  0  0  0  0  0  0  0  0  0
   -5.9688    0.7167   -1.1158 C   0  0  0  0  0  0  0  0  0  0  0  0
   -4.8949    0.1983   -0.4118 C   0  0  0  0  0  0  0  0  0  0  0  0
   -3.6955    0.8212   -0.5120 N   0  0  0  0  0  0  0  0  0  0  0  0
    4.1056    1.2396   -0.7123 C   0  0  0  0  0  0  0  0  0  0  0  0
    5.2077    0.9324    0.0532 C   0  0  0  0  0  0  0  0  0  0  0  0
    5.3229   -0.3126    0.6442 C   0  0  0  0  0  0  0  0  0  0  0  0
    7.3699   -2.0759    2.5678 H   0  0  0  0  0  0  0  0  0  0  0  0
    5.6867   -3.7451    2.2990 H   0  0  0  0  0  0  0  0  0  0  0  0
    2.4787   -1.6535   -0.4328 H   0  0  0  0  0  0  0  0  0  0  0  0
    1.4268   -0.3228   -2.0125 H   0  0  0  0  0  0  0  0  0  0  0  0
    2.2665    1.1291   -2.6590 H   0  0  0  0  0  0  0  0  0  0  0  0
    0.0773    2.9128   -2.2508 H   0  0  0  0  0  0  0  0  0  0  0  0
   -0.4094    1.2136   -2.5523 H   0  0  0  0  0  0  0  0  0  0  0  0
   -0.9996    3.0778   -0.1811 H   0  0  0  0  0  0  0  0  0  0  0  0
   -2.2181    2.3626   -1.3187 H   0  0  0  0  0  0  0  0  0  0  0  0
   -0.3907    0.6857    1.8568 H   0  0  0  0  0  0  0  0  0  0  0  0
   -0.0110   -0.5505    0.6179 H   0  0  0  0  0  0  0  0  0  0  0  0
    0.6669    2.4249    0.7724 H   0  0  0  0  0  0  0  0  0  0  0  0
    1.8973    1.0749    0.7946 H   0  0  0  0  0  0  0  0  0  0  0  0
   -1.8732   -1.1589    1.4935 H   0  0  0  0  0  0  0  0  0  0  0  0
   -4.0762   -2.3027    1.6771 H   0  0  0  0  0  0  0  0  0  0  0  0
   -6.3698   -2.4033    1.0652 H   0  0  0  0  0  0  0  0  0  0  0  0
   -8.3642   -1.5180   -0.1850 H   0  0  0  0  0  0  0  0  0  0  0  0
   -8.0074    0.5183   -1.5801 H   0  0  0  0  0  0  0  0  0  0  0  0
   -5.8650    1.5882   -1.7275 H   0  0  0  0  0  0  0  0  0  0  0  0
    3.9999    2.2063   -1.1802 H   0  0  0  0  0  0  0  0  0  0  0  0
    6.0027    1.6431    0.2131 H   0  0  0  0  0  0  0  0  0  0  0  0
  1  2  2  0
  2  3  1  0
  3  4  1  0
  4  5  2  0
  5  6  1  0
  6  7  2  0
  7  8  1  0
  8  9  1  0
  9 10  1  0
 10 11  1  0
 11 12  1  0
 12 13  1  0
 13 14  1  0
 14 15  1  0
 13 16  1  0
 16 17  2  0
 17 18  1  0
 18 19  2  0
 19 20  1  0
 20 21  2  0
 21 22  1  0
 22 23  2  0
 23 24  1  0
 24 25  2  0
  8 26  2  0
 26 27  1  0
 27 28  2  0
 28  2  1  0
 28  6  1  0
 15 10  1  0
 25 16  1  0
 24 19  1  0
  3 29  1  0
  4 30  1  0
  7 31  1  0
  9 32  1  0
  9 33  1  0
 11 34  1  0
 11 35  1  0
 12 36  1  0
 12 37  1  0
 14 38  1  0
 14 39  1  0
 15 40  1  0
 15 41  1  0
 17 42  1  0
 18 43  1  0
 20 44  1  0
 21 45  1  0
 22 46  1  0
 23 47  1  0
 26 48  1  0
 27 49  1  0
M  END
$$$$
[H]c1nc([H])c(-c2nc([H])c([H])c3c(-c4c([H])c([H])c(N([H])S(=O)(=O)C([H])([H])[H])c([H])c4[H])c([H])c(N4C([H])([H])C([H])([H])OC([H])([H])C4([H])[H])nc23)c([H])c1[H]
     RDKit          3D

 56 60  0  0  0  0  0  0  0  0999 V2000
    7.0206   -2.1445   -0.2723 C   0  0  0  0  0  0  0  0  0  0  0  0
    7.3351   -0.4216   -0.5902 S   0  0  0  0  0  0  0  0  0  0  0  0
    7.4255    0.2814    0.7245 O   0  0  0  0  0  0  0  0  0  0  0  0
    8.6870   -0.2737   -1.2427 O   0  0  0  0  0  0  0  0  0  0  0  0
    6.1089    0.2695   -1.5708 N   0  0  0  0  0  0  0  0  0  0  0  0
    4.7437    0.3542   -1.2106 C   0  0  0  0  0  0  0  0  0  0  0  0
    3.7434    0.0017   -2.1080 C   0  0  0  0  0  0  0  0  0  0  0  0
    2.4201    0.0834   -1.7513 C   0  0  0  0  0  0  0  0  0  0  0  0
    2.0149    0.5154   -0.4951 C   0  0  0  0  0  0  0  0  0  0  0  0
    3.0116    0.8599    0.3800 C   0  0  0  0  0  0  0  0  0  0  0  0
    4.3662    0.7844    0.0373 C   0  0  0  0  0  0  0  0  0  0  0  0
    0.5968    0.5279   -0.2021 C   0  0  0  0  0  0  0  0  0  0  0  0
   -0.1679   -0.6348   -0.3324 C   0  0  0  0  0  0  0  0  0  0  0  0
   -1.5084   -0.7033   -0.0411 C   0  0  0  0  0  0  0  0  0  0  0  0
   -2.0848    0.4281    0.3905 N   0  0  0  0  0  0  0  0  0  0  0  0
   -1.4197    1.5882    0.5425 C   0  0  0  0  0  0  0  0  0  0  0  0
   -2.1220    2.7077    0.9850 C   0  0  0  0  0  0  0  0  0  0  0  0
   -1.4496    3.8523    1.1152 N   0  0  0  0  0  0  0  0  0  0  0  0
   -0.1418    3.9515    0.8369 C   0  0  0  0  0  0  0  0  0  0  0  0
    0.5737    2.8593    0.3987 C   0  0  0  0  0  0  0  0  0  0  0  0
   -0.0527    1.6478    0.2421 C   0  0  0  0  0  0  0  0  0  0  0  0
   -3.5438    2.5831    1.2715 C   0  0  0  0  0  0  0  0  0  0  0  0
   -4.4177    3.5343    0.7503 C   0  0  0  0  0  0  0  0  0  0  0  0
   -5.7754    3.4690    1.0007 C   0  0  0  0  0  0  0  0  0  0  0  0
   -6.3181    2.4613    1.7753 C   0  0  0  0  0  0  0  0  0  0  0  0
   -5.4602    1.5524    2.2702 N   0  0  0  0  0  0  0  0  0  0  0  0
   -4.1181    1.5980    2.0359 C   0  0  0  0  0  0  0  0  0  0  0  0
   -2.2444   -1.9229   -0.1931 N   0  0  0  0  0  0  0  0  0  0  0  0
   -1.5521   -3.0874   -0.6638 C   0  0  0  0  0  0  0  0  0  0  0  0
   -2.3743   -4.3295   -0.6791 C   0  0  0  0  0  0  0  0  0  0  0  0
   -3.6518   -3.9664   -1.1679 O   0  0  0  0  0  0  0  0  0  0  0  0
   -4.2571   -3.2988   -0.1048 C   0  0  0  0  0  0  0  0  0  0  0  0
   -3.6325   -1.9457    0.1250 C   0  0  0  0  0  0  0  0  0  0  0  0
    6.6451   -2.6625   -1.1824 H   0  0  0  0  0  0  0  0  0  0  0  0
    7.9890   -2.6254    0.0125 H   0  0  0  0  0  0  0  0  0  0  0  0
    6.3375   -2.2898    0.5916 H   0  0  0  0  0  0  0  0  0  0  0  0
    6.3463    0.6754   -2.5250 H   0  0  0  0  0  0  0  0  0  0  0  0
    4.0567   -0.3331   -3.0816 H   0  0  0  0  0  0  0  0  0  0  0  0
    1.6741   -0.1985   -2.4740 H   0  0  0  0  0  0  0  0  0  0  0  0
    2.7336    1.2031    1.3737 H   0  0  0  0  0  0  0  0  0  0  0  0
    5.1263    1.0658    0.7500 H   0  0  0  0  0  0  0  0  0  0  0  0
    0.3384   -1.5417   -0.6887 H   0  0  0  0  0  0  0  0  0  0  0  0
    0.4062    4.8802    0.9416 H   0  0  0  0  0  0  0  0  0  0  0  0
    1.6127    2.9487    0.1675 H   0  0  0  0  0  0  0  0  0  0  0  0
   -3.9906    4.3263    0.1414 H   0  0  0  0  0  0  0  0  0  0  0  0
   -6.4647    4.2009    0.6021 H   0  0  0  0  0  0  0  0  0  0  0  0
   -7.3738    2.3763    1.9933 H   0  0  0  0  0  0  0  0  0  0  0  0
   -3.4835    0.8413    2.4693 H   0  0  0  0  0  0  0  0  0  0  0  0
   -1.1425   -2.9162   -1.6838 H   0  0  0  0  0  0  0  0  0  0  0  0
   -0.6558   -3.2183    0.0087 H   0  0  0  0  0  0  0  0  0  0  0  0
   -2.5492   -4.7345    0.3462 H   0  0  0  0  0  0  0  0  0  0  0  0
   -1.9431   -5.1293   -1.2826 H   0  0  0  0  0  0  0  0  0  0  0  0
   -5.3652   -3.2143   -0.2637 H   0  0  0  0  0  0  0  0  0  0  0  0
   -4.1021   -3.9386    0.7958 H   0  0  0  0  0  0  0  0  0  0  0  0
   -3.7197   -1.6801    1.2200 H   0  0  0  0  0  0  0  0  0  0  0  0
   -4.2306   -1.2179   -0.4880 H   0  0  0  0  0  0  0  0  0  0  0  0
  1  2  1  0
  2  3  2  0
  2  4  2  0
  2  5  1  0
  5  6  1  0
  6  7  2  0
  7  8  1  0
  8  9  2  0
  9 10  1  0
 10 11  2  0
  9 12  1  0
 12 13  2  0
 13 14  1  0
 14 15  2  0
 15 16  1  0
 16 17  2  0
 17 18  1  0
 18 19  2  0
 19 20  1  0
 20 21  2  0
 17 22  1  0
 22 23  2  0
 23 24  1  0
 24 25  2  0
 25 26  1  0
 26 27  2  0
 14 28  1  0
 28 29  1  0
 29 30  1  0
 30 31  1  0
 31 32  1  0
 32 33  1  0
 11  6  1  0
 21 12  1  0
 27 22  1  0
 33 28  1  0
 21 16  1  0
  1 34  1  0
  1 35  1  0
  1 36  1  0
  5 37  1  0
  7 38  1  0
  8 39  1  0
 10 40  1  0
 11 41  1  0
 13 42  1  0
 19 43  1  0
 20 44  1  0
 23 45  1  0
 24 46  1  0
 25 47  1  0
 27 48  1  0
 29 49  1  0
 29 50  1  0
 30 51  1  0
 30 52  1  0
 32 53  1  0
 32 54  1  0
 33 55  1  0
 33 56  1  0
M  END
$$$$
[H]OC(C([H])([H])[H])(C([H])([H])[H])C([H])([H])N1C(=O)C2=C(C1([H])C(=O)C([H])(C([H])([H])[H])C([H])([H])[H])C([H])(c1c([H])c([H])c([H])c([H])c1-c1nnnn1[H])N(C1([H])C([H])([H])C([H])([H])N(C([H])([H])[H])C([H])([H])C1([H])[H])[C@@]([H])(C([H])([H])C([H])([H])[H])C2([H])[H]
     RDKit          3D

 83 87  0  0  0  0  0  0  0  0999 V2000
   -0.2508    1.6787    3.1126 C   0  0  0  0  0  0  0  0  0  0  0  0
    0.7025    0.5688    3.4727 C   0  0  0  0  0  0  0  0  0  0  0  0
    0.7313   -0.5859    2.5231 C   0  0  1  0  0  0  0  0  0  0  0  0
   -0.6655   -1.1553    2.5204 C   0  0  0  0  0  0  0  0  0  0  0  0
   -1.3288   -1.0051    1.1952 C   0  0  0  0  0  0  0  0  0  0  0  0
   -0.8026   -0.5544    0.1470 C   0  0  0  0  0  0  0  0  0  0  0  0
   -1.7833   -0.5357   -0.9862 C   0  0  0  0  0  0  0  0  0  0  0  0
   -2.8819   -1.3064   -0.5329 N   0  0  0  0  0  0  0  0  0  0  0  0
   -3.9489   -1.9031   -1.3016 C   0  0  0  0  0  0  0  0  0  0  0  0
   -5.2515   -1.2446   -1.4044 C   0  0  0  0  0  0  0  0  0  0  0  0
   -5.3801   -0.0759   -2.3371 C   0  0  0  0  0  0  0  0  0  0  0  0
   -6.1644   -2.3264   -2.1006 C   0  0  0  0  0  0  0  0  0  0  0  0
   -5.8750   -1.0201   -0.1635 O   0  0  0  0  0  0  0  0  0  0  0  0
   -2.6692   -1.5050    0.8848 C   0  0  0  0  0  0  0  0  0  0  0  0
   -3.5367   -2.0217    1.6345 O   0  0  0  0  0  0  0  0  0  0  0  0
   -2.0325    0.8569   -1.4157 C   0  0  0  0  0  0  0  0  0  0  0  0
   -2.0361    1.0581   -2.6475 O   0  0  0  0  0  0  0  0  0  0  0  0
   -2.2685    2.0347   -0.5852 C   0  0  0  0  0  0  0  0  0  0  0  0
   -2.5381    3.2815   -1.4486 C   0  0  0  0  0  0  0  0  0  0  0  0
   -3.3767    1.9435    0.4220 C   0  0  0  0  0  0  0  0  0  0  0  0
    0.6512   -0.0976    0.1259 C   0  0  0  0  0  0  0  0  0  0  0  0
    1.3396   -0.5420    1.3058 N   0  0  0  0  0  0  0  0  0  0  0  0
    2.7023   -0.6087    1.1091 C   0  0  0  0  0  0  0  0  0  0  0  0
    3.3977    0.6189    1.6512 C   0  0  0  0  0  0  0  0  0  0  0  0
    4.4414    0.3198    2.6958 C   0  0  0  0  0  0  0  0  0  0  0  0
    5.4632   -0.5772    2.1822 N   0  0  0  0  0  0  0  0  0  0  0  0
    6.4347    0.2027    1.4005 C   0  0  0  0  0  0  0  0  0  0  0  0
    4.8799   -1.6207    1.3516 C   0  0  0  0  0  0  0  0  0  0  0  0
    3.4329   -1.7734    1.7652 C   0  0  0  0  0  0  0  0  0  0  0  0
    1.2609   -0.5024   -1.1533 C   0  0  0  0  0  0  0  0  0  0  0  0
    1.1519   -1.8845   -1.4442 C   0  0  0  0  0  0  0  0  0  0  0  0
    1.7212   -2.4059   -2.5716 C   0  0  0  0  0  0  0  0  0  0  0  0
    2.4207   -1.5988   -3.4617 C   0  0  0  0  0  0  0  0  0  0  0  0
    2.5167   -0.2686   -3.1684 C   0  0  0  0  0  0  0  0  0  0  0  0
    1.9420    0.3132   -2.0124 C   0  0  0  0  0  0  0  0  0  0  0  0
    2.0911    1.7585   -1.8453 C   0  0  0  0  0  0  0  0  0  0  0  0
    1.5297    2.5532   -0.9617 N   0  0  0  0  0  0  0  0  0  0  0  0
    1.8498    3.8138   -1.0990 N   0  0  0  0  0  0  0  0  0  0  0  0
    2.6746    3.8293   -2.1441 N   0  0  0  0  0  0  0  0  0  0  0  0
    2.8353    2.5856   -2.6145 N   0  0  0  0  0  0  0  0  0  0  0  0
   -1.3014    1.3411    3.0751 H   0  0  0  0  0  0  0  0  0  0  0  0
    0.0462    2.1763    2.1760 H   0  0  0  0  0  0  0  0  0  0  0  0
   -0.2250    2.4570    3.9118 H   0  0  0  0  0  0  0  0  0  0  0  0
    1.6440    0.8839    3.9113 H   0  0  0  0  0  0  0  0  0  0  0  0
    0.1878    0.1372    4.4296 H   0  0  0  0  0  0  0  0  0  0  0  0
    1.3251   -1.3803    3.1284 H   0  0  0  0  0  0  0  0  0  0  0  0
   -1.3502   -0.6823    3.2540 H   0  0  0  0  0  0  0  0  0  0  0  0
   -0.6863   -2.2461    2.7561 H   0  0  0  0  0  0  0  0  0  0  0  0
   -1.2374   -1.0508   -1.8390 H   0  0  0  0  0  0  0  0  0  0  0  0
   -3.5981   -2.1018   -2.3682 H   0  0  0  0  0  0  0  0  0  0  0  0
   -4.1466   -2.9655   -0.9438 H   0  0  0  0  0  0  0  0  0  0  0  0
   -5.1547    0.9002   -1.9140 H   0  0  0  0  0  0  0  0  0  0  0  0
   -4.6261   -0.2388   -3.1595 H   0  0  0  0  0  0  0  0  0  0  0  0
   -6.3831   -0.0569   -2.8172 H   0  0  0  0  0  0  0  0  0  0  0  0
   -5.9705   -3.2691   -1.5913 H   0  0  0  0  0  0  0  0  0  0  0  0
   -7.1961   -1.9792   -2.1185 H   0  0  0  0  0  0  0  0  0  0  0  0
   -5.7401   -2.3891   -3.1235 H   0  0  0  0  0  0  0  0  0  0  0  0
   -6.6378   -0.4142   -0.3475 H   0  0  0  0  0  0  0  0  0  0  0  0
   -1.3635    2.3418    0.0014 H   0  0  0  0  0  0  0  0  0  0  0  0
   -2.4761    4.1765   -0.8220 H   0  0  0  0  0  0  0  0  0  0  0  0
   -3.5037    3.1749   -1.9698 H   0  0  0  0  0  0  0  0  0  0  0  0
   -1.7154    3.3493   -2.1942 H   0  0  0  0  0  0  0  0  0  0  0  0
   -4.1322    1.1900    0.2213 H   0  0  0  0  0  0  0  0  0  0  0  0
   -2.9819    1.7170    1.4552 H   0  0  0  0  0  0  0  0  0  0  0  0
   -3.8854    2.9403    0.5682 H   0  0  0  0  0  0  0  0  0  0  0  0
    0.5632    0.9684    0.2200 H   0  0  0  0  0  0  0  0  0  0  0  0
    2.9649   -0.7140    0.0591 H   0  0  0  0  0  0  0  0  0  0  0  0
    2.7474    1.4237    1.9803 H   0  0  0  0  0  0  0  0  0  0  0  0
    4.0097    1.1103    0.8145 H   0  0  0  0  0  0  0  0  0  0  0  0
    4.9759    1.2994    2.8730 H   0  0  0  0  0  0  0  0  0  0  0  0
    4.0390    0.0302    3.6808 H   0  0  0  0  0  0  0  0  0  0  0  0
    7.3746    0.2405    1.9687 H   0  0  0  0  0  0  0  0  0  0  0  0
    6.5370   -0.1917    0.3655 H   0  0  0  0  0  0  0  0  0  0  0  0
    6.0661    1.2623    1.2831 H   0  0  0  0  0  0  0  0  0  0  0  0
    4.9193   -1.4070    0.2850 H   0  0  0  0  0  0  0  0  0  0  0  0
    5.3997   -2.5591    1.6396 H   0  0  0  0  0  0  0  0  0  0  0  0
    3.0845   -2.7387    1.3690 H   0  0  0  0  0  0  0  0  0  0  0  0
    3.4415   -1.7203    2.8697 H   0  0  0  0  0  0  0  0  0  0  0  0
    0.6197   -2.5492   -0.7852 H   0  0  0  0  0  0  0  0  0  0  0  0
    1.6556   -3.4686   -2.8245 H   0  0  0  0  0  0  0  0  0  0  0  0
    2.8714   -1.9902   -4.3456 H   0  0  0  0  0  0  0  0  0  0  0  0
    3.0459    0.4033   -3.8245 H   0  0  0  0  0  0  0  0  0  0  0  0
    3.4128    2.2916   -3.4085 H   0  0  0  0  0  0  0  0  0  0  0  0
  1  2  1  0
  2  3  1  0
  3  4  1  0
  4  5  1  0
  5  6  2  0
  6  7  1  0
  7  8  1  0
  8  9  1  0
  9 10  1  0
 10 11  1  0
 10 12  1  0
 10 13  1  0
  8 14  1  0
 14 15  2  0
  7 16  1  0
 16 17  2  0
 16 18  1  0
 18 19  1  0
 18 20  1  0
  6 21  1  0
 21 22  1  0
 22 23  1  0
 23 24  1  0
 24 25  1  0
 25 26  1  0
 26 27  1  0
 26 28  1  0
 28 29  1  0
 21 30  1  0
 30 31  2  0
 31 32  1  0
 32 33  2  0
 33 34  1  0
 34 35  2  0
 35 36  1  0
 36 37  2  0
 37 38  1  0
 38 39  2  0
 39 40  1  0
 22  3  1  0
 29 23  1  0
 35 30  1  0
 40 36  1  0
 14  5  1  0
  1 41  1  0
  1 42  1  0
  1 43  1  0
  2 44  1  0
  2 45  1  0
  3 46  1  1
  4 47  1  0
  4 48  1  0
  7 49  1  0
  9 50  1  0
  9 51  1  0
 11 52  1  0
 11 53  1  0
 11 54  1  0
 12 55  1  0
 12 56  1  0
 12 57  1  0
 13 58  1  0
 18 59  1  0
 19 60  1  0
 19 61  1  0
 19 62  1  0
 20 63  1  0
 20 64  1  0
 20 65  1  0
 21 66  1  0
 23 67  1  0
 24 68  1  0
 24 69  1  0
 25 70  1  0
 25 71  1  0
 27 72  1  0
 27 73  1  0
 27 74  1  0
 28 75  1  0
 28 76  1  0
 29 77  1  0
 29 78  1  0
 31 79  1  0
 32 80  1  0
 33 81  1  0
 34 82  1  0
 40 83  1  0
M  END
$$$$
[H]C1=C([H])C([H])(F)C([H])([H])C([H])=C1N([H])C(=O)C1(C(=O)N([H])c2c([H])c([H])c(Oc3c([H])c([H])nc4c([H])c(OC([H])([H])C([H])([H])C([H])([H])C([H])([H])C([H])([H])N5C([H])([H])C([H])([H])OC([H])([H])C5([H])[H])c(OC([H])([H])[H])c([H])c34)c(F)c2[H])C([H])([H])C1([H])[H]
     RDKit          3D

 88 93  0  0  0  0  0  0  0  0999 V2000
   -1.6171   -2.0671   -1.6938 C   0  0  0  0  0  0  0  0  0  0  0  0
   -2.7590   -1.2741   -1.5420 O   0  0  0  0  0  0  0  0  0  0  0  0
   -2.7115    0.0052   -0.9635 C   0  0  0  0  0  0  0  0  0  0  0  0
   -1.4998    0.5353   -0.5144 C   0  0  0  0  0  0  0  0  0  0  0  0
   -1.3963    1.7819    0.0592 C   0  0  0  0  0  0  0  0  0  0  0  0
   -0.1282    2.2660    0.4938 C   0  0  0  0  0  0  0  0  0  0  0  0
    0.8867    1.4367    0.3025 O   0  0  0  0  0  0  0  0  0  0  0  0
    2.2183    1.3504    0.4424 C   0  0  0  0  0  0  0  0  0  0  0  0
    3.0863    2.3270    0.8611 C   0  0  0  0  0  0  0  0  0  0  0  0
    4.4696    2.1102    0.9709 C   0  0  0  0  0  0  0  0  0  0  0  0
    5.0365    0.9223    0.6708 C   0  0  0  0  0  0  0  0  0  0  0  0
    6.4160    0.5787    0.7776 N   0  0  0  0  0  0  0  0  0  0  0  0
    7.2673    1.1840    1.6887 C   0  0  0  0  0  0  0  0  0  0  0  0
    6.6989    2.0701    2.4709 O   0  0  0  0  0  0  0  0  0  0  0  0
    8.7095    0.9971    1.9335 C   0  0  0  0  0  0  0  0  0  0  0  0
    9.3617    2.1157    2.7068 C   0  0  0  0  0  0  0  0  0  0  0  0
    9.0827    0.8308    3.4014 C   0  0  0  0  0  0  0  0  0  0  0  0
    9.5569    0.2353    1.0209 C   0  0  0  0  0  0  0  0  0  0  0  0
   10.7610    0.0147    1.5220 O   0  0  0  0  0  0  0  0  0  0  0  0
    9.3665   -0.2920   -0.2447 N   0  0  0  0  0  0  0  0  0  0  0  0
   10.4728   -1.0202   -0.8421 C   0  0  0  0  0  0  0  0  0  0  0  0
   10.4005   -2.2587   -1.1974 C   0  0  0  0  0  0  0  0  0  0  0  0
   11.4474   -3.0445   -1.7942 C   0  0  0  0  0  0  0  0  0  0  0  0
   12.7399   -2.3658   -1.9836 C   0  0  0  0  0  0  0  0  0  0  0  0
   13.6995   -3.0577   -1.2064 F   0  0  0  0  0  0  0  0  0  0  0  0
   12.7690   -0.9596   -1.5665 C   0  0  0  0  0  0  0  0  0  0  0  0
   11.7404   -0.3269   -1.0414 C   0  0  0  0  0  0  0  0  0  0  0  0
    4.1771   -0.0900    0.2401 C   0  0  0  0  0  0  0  0  0  0  0  0
    2.8327    0.1130    0.1309 C   0  0  0  0  0  0  0  0  0  0  0  0
    2.0028   -0.8918   -0.2913 F   0  0  0  0  0  0  0  0  0  0  0  0
   -0.1166    3.5145    1.0475 C   0  0  0  0  0  0  0  0  0  0  0  0
   -1.3094    4.2252    1.1538 C   0  0  0  0  0  0  0  0  0  0  0  0
   -2.4790    3.7411    0.7367 N   0  0  0  0  0  0  0  0  0  0  0  0
   -2.5335    2.5106    0.1838 C   0  0  0  0  0  0  0  0  0  0  0  0
   -3.7663    2.0091   -0.2561 C   0  0  0  0  0  0  0  0  0  0  0  0
   -3.8466    0.7585   -0.8274 C   0  0  0  0  0  0  0  0  0  0  0  0
   -5.0504    0.2463   -1.2664 O   0  0  0  0  0  0  0  0  0  0  0  0
   -6.2685    0.9581   -1.1563 C   0  0  0  0  0  0  0  0  0  0  0  0
   -7.4530    0.2315   -1.6981 C   0  0  0  0  0  0  0  0  0  0  0  0
   -7.6468   -1.0725   -0.9798 C   0  0  0  0  0  0  0  0  0  0  0  0
   -8.8421   -1.8499   -1.4872 C   0  0  0  0  0  0  0  0  0  0  0  0
  -10.0999   -1.0601   -1.2959 C   0  0  0  0  0  0  0  0  0  0  0  0
  -10.2673   -0.8000    0.1256 N   0  0  0  0  0  0  0  0  0  0  0  0
  -11.4157    0.0242    0.3886 C   0  0  0  0  0  0  0  0  0  0  0  0
  -12.6819   -0.6764    0.6409 C   0  0  0  0  0  0  0  0  0  0  0  0
  -12.5704   -1.9510    1.1688 O   0  0  0  0  0  0  0  0  0  0  0  0
  -11.3835   -1.9710    1.9334 C   0  0  0  0  0  0  0  0  0  0  0  0
  -10.2666   -2.0246    0.8921 C   0  0  0  0  0  0  0  0  0  0  0  0
   -1.3359   -2.5567   -0.7346 H   0  0  0  0  0  0  0  0  0  0  0  0
   -1.8375   -2.8338   -2.4758 H   0  0  0  0  0  0  0  0  0  0  0  0
   -0.7339   -1.5032   -2.0537 H   0  0  0  0  0  0  0  0  0  0  0  0
   -0.6196   -0.0538   -0.6243 H   0  0  0  0  0  0  0  0  0  0  0  0
    2.7118    3.3118    1.1105 H   0  0  0  0  0  0  0  0  0  0  0  0
    5.0360    2.9539    1.2828 H   0  0  0  0  0  0  0  0  0  0  0  0
    6.7909   -0.1958    0.1576 H   0  0  0  0  0  0  0  0  0  0  0  0
    8.7277    2.9540    2.9851 H   0  0  0  0  0  0  0  0  0  0  0  0
   10.4165    2.4051    2.4651 H   0  0  0  0  0  0  0  0  0  0  0  0
    8.2835    0.7498    4.1548 H   0  0  0  0  0  0  0  0  0  0  0  0
    9.9760    0.2198    3.6550 H   0  0  0  0  0  0  0  0  0  0  0  0
    8.5497   -0.2174   -0.8450 H   0  0  0  0  0  0  0  0  0  0  0  0
    9.4271   -2.7660   -1.0213 H   0  0  0  0  0  0  0  0  0  0  0  0
   11.1135   -3.4129   -2.8319 H   0  0  0  0  0  0  0  0  0  0  0  0
   11.5861   -4.0326   -1.2454 H   0  0  0  0  0  0  0  0  0  0  0  0
   13.0721   -2.4791   -3.0573 H   0  0  0  0  0  0  0  0  0  0  0  0
   13.7000   -0.4110   -1.7013 H   0  0  0  0  0  0  0  0  0  0  0  0
   11.8503    0.7091   -0.7620 H   0  0  0  0  0  0  0  0  0  0  0  0
    4.6070   -1.0671   -0.0136 H   0  0  0  0  0  0  0  0  0  0  0  0
    0.7926    3.9437    1.4071 H   0  0  0  0  0  0  0  0  0  0  0  0
   -1.2708    5.2273    1.6027 H   0  0  0  0  0  0  0  0  0  0  0  0
   -4.6385    2.6221   -0.1362 H   0  0  0  0  0  0  0  0  0  0  0  0
   -6.4139    1.1291   -0.0528 H   0  0  0  0  0  0  0  0  0  0  0  0
   -6.1342    1.9627   -1.5963 H   0  0  0  0  0  0  0  0  0  0  0  0
   -8.3398    0.9108   -1.5387 H   0  0  0  0  0  0  0  0  0  0  0  0
   -7.3702    0.1068   -2.7922 H   0  0  0  0  0  0  0  0  0  0  0  0
   -6.7472   -1.7044   -1.1169 H   0  0  0  0  0  0  0  0  0  0  0  0
   -7.8241   -0.8413    0.0923 H   0  0  0  0  0  0  0  0  0  0  0  0
   -8.7160   -2.1247   -2.5556 H   0  0  0  0  0  0  0  0  0  0  0  0
   -8.9080   -2.7809   -0.9139 H   0  0  0  0  0  0  0  0  0  0  0  0
  -10.9782   -1.6101   -1.6975 H   0  0  0  0  0  0  0  0  0  0  0  0
  -10.0827   -0.0804   -1.8072 H   0  0  0  0  0  0  0  0  0  0  0  0
  -11.1392    0.6938    1.2571 H   0  0  0  0  0  0  0  0  0  0  0  0
  -11.5283    0.7091   -0.4775 H   0  0  0  0  0  0  0  0  0  0  0  0
  -13.2777   -0.0827    1.3963 H   0  0  0  0  0  0  0  0  0  0  0  0
  -13.3581   -0.7423   -0.2412 H   0  0  0  0  0  0  0  0  0  0  0  0
  -11.2436   -1.0706    2.5354 H   0  0  0  0  0  0  0  0  0  0  0  0
  -11.3779   -2.9227    2.5076 H   0  0  0  0  0  0  0  0  0  0  0  0
   -9.2915   -2.2728    1.3388 H   0  0  0  0  0  0  0  0  0  0  0  0
  -10.5650   -2.8865    0.2275 H   0  0  0  0  0  0  0  0  0  0  0  0
  1  2  1  0
  2  3  1  0
  3  4  2  0
  4  5  1  0
  5  6  2  0
  6  7  1  0
  7  8  1  0
  8  9  2  0
  9 10  1  0
 10 11  2  0
 11 12  1  0
 12 13  1  0
 13 14  2  0
 13 15  1  0
 15 16  1  0
 16 17  1  0
 15 18  1  0
 18 19  2  0
 18 20  1  0
 20 21  1  0
 21 22  2  0
 22 23  1  0
 23 24  1  0
 24 25  1  0
 24 26  1  0
 26 27  2  0
 11 28  1  0
 28 29  2  0
 29 30  1  0
  6 31  1  0
 31 32  2  0
 32 33  1  0
 33 34  2  0
 34 35  1  0
 35 36  2  0
 36 37  1  0
 37 38  1  0
 38 39  1  0
 39 40  1  0
 40 41  1  0
 41 42  1  0
 42 43  1  0
 43 44  1  0
 44 45  1  0
 45 46  1  0
 46 47  1  0
 47 48  1  0
 36  3  1  0
 48 43  1  0
 34  5  1  0
 29  8  1  0
 17 15  1  0
 27 21  1  0
  1 49  1  0
  1 50  1  0
  1 51  1  0
  4 52  1  0
  9 53  1  0
 10 54  1  0
 12 55  1  0
 16 56  1  0
 16 57  1  0
 17 58  1  0
 17 59  1  0
 20 60  1  0
 22 61  1  0
 23 62  1  0
 23 63  1  0
 24 64  1  0
 26 65  1  0
 27 66  1  0
 28 67  1  0
 31 68  1  0
 32 69  1  0
 35 70  1  0
 38 71  1  0
 38 72  1  0
 39 73  1  0
 39 74  1  0
 40 75  1  0
 40 76  1  0
 41 77  1  0
 41 78  1  0
 42 79  1  0
 42 80  1  0
 44 81  1  0
 44 82  1  0
 45 83  1  0
 45 84  1  0
 47 85  1  0
 47 86  1  0
 48 87  1  0
 48 88  1  0
M  END
$$$$
[H]Oc1c([H])c([H])c2nc(C(=O)N([H])C([H])([H])c3nc([H])n(C([H])([H])C([H])([H])[H])c3C([H])([H])[H])sc2c1[H]
     RDKit          3D

 38 40  0  0  0  0  0  0  0  0999 V2000
   -6.1174   -0.6287    0.2536 C   0  0  0  0  0  0  0  0  0  0  0  0
   -5.4391    0.7042    0.0961 C   0  0  0  0  0  0  0  0  0  0  0  0
   -4.0081    0.5259    0.1808 N   0  0  0  0  0  0  0  0  0  0  0  0
   -3.1809    0.2799   -0.8366 C   0  0  0  0  0  0  0  0  0  0  0  0
   -1.9104    0.1763   -0.3529 N   0  0  0  0  0  0  0  0  0  0  0  0
   -1.9453    0.3569    0.9602 C   0  0  0  0  0  0  0  0  0  0  0  0
   -0.8092    0.3231    1.8912 C   0  0  0  0  0  0  0  0  0  0  0  0
    0.4550    0.0806    1.2561 N   0  0  0  0  0  0  0  0  0  0  0  0
    0.9660    0.9869    0.3029 C   0  0  0  0  0  0  0  0  0  0  0  0
    0.3939    2.0452   -0.0635 O   0  0  0  0  0  0  0  0  0  0  0  0
    2.2718    0.7333   -0.3560 C   0  0  0  0  0  0  0  0  0  0  0  0
    3.0948   -0.2845   -0.1778 N   0  0  0  0  0  0  0  0  0  0  0  0
    4.2113   -0.3461   -0.8484 C   0  0  0  0  0  0  0  0  0  0  0  0
    5.1750   -1.3691   -0.7565 C   0  0  0  0  0  0  0  0  0  0  0  0
    6.2967   -1.3113   -1.5130 C   0  0  0  0  0  0  0  0  0  0  0  0
    6.5871   -0.3012   -2.3971 C   0  0  0  0  0  0  0  0  0  0  0  0
    7.7592   -0.3480   -3.1135 O   0  0  0  0  0  0  0  0  0  0  0  0
    5.6489    0.7043   -2.4933 C   0  0  0  0  0  0  0  0  0  0  0  0
    4.4789    0.6727   -1.7239 C   0  0  0  0  0  0  0  0  0  0  0  0
    3.0971    1.6638   -1.5267 S   0  0  0  0  0  0  0  0  0  0  0  0
   -3.2588    0.5765    1.3000 C   0  0  0  0  0  0  0  0  0  0  0  0
   -3.7811    0.8289    2.6670 C   0  0  0  0  0  0  0  0  0  0  0  0
   -5.6274   -1.2383    1.0657 H   0  0  0  0  0  0  0  0  0  0  0  0
   -7.1959   -0.5198    0.4969 H   0  0  0  0  0  0  0  0  0  0  0  0
   -6.0728   -1.1485   -0.7280 H   0  0  0  0  0  0  0  0  0  0  0  0
   -5.7377    1.4268    0.8946 H   0  0  0  0  0  0  0  0  0  0  0  0
   -5.7660    1.1423   -0.8598 H   0  0  0  0  0  0  0  0  0  0  0  0
   -3.4265    0.1724   -1.8816 H   0  0  0  0  0  0  0  0  0  0  0  0
   -0.7720    1.2625    2.5259 H   0  0  0  0  0  0  0  0  0  0  0  0
   -1.0053   -0.4929    2.6502 H   0  0  0  0  0  0  0  0  0  0  0  0
    1.0015   -0.7642    1.4947 H   0  0  0  0  0  0  0  0  0  0  0  0
    5.0469   -2.2166   -0.0885 H   0  0  0  0  0  0  0  0  0  0  0  0
    7.0322   -2.1190   -1.4242 H   0  0  0  0  0  0  0  0  0  0  0  0
    8.6341    0.0539   -2.8014 H   0  0  0  0  0  0  0  0  0  0  0  0
    5.7798    1.5333   -3.1503 H   0  0  0  0  0  0  0  0  0  0  0  0
   -4.2869    1.8326    2.7409 H   0  0  0  0  0  0  0  0  0  0  0  0
   -3.0162    0.7222    3.4344 H   0  0  0  0  0  0  0  0  0  0  0  0
   -4.5732    0.0821    2.8819 H   0  0  0  0  0  0  0  0  0  0  0  0
  1  2  1  0
  2  3  1  0
  3  4  1  0
  4  5  2  0
  5  6  1  0
  6  7  1  0
  7  8  1  0
  8  9  1  0
  9 10  2  0
  9 11  1  0
 11 12  2  0
 12 13  1  0
 13 14  2  0
 14 15  1  0
 15 16  2  0
 16 17  1  0
 16 18  1  0
 18 19  2  0
 19 20  1  0
  6 21  2  0
 21 22  1  0
 21  3  1  0
 20 11  1  0
 19 13  1  0
  1 23  1  0
  1 24  1  0
  1 25  1  0
  2 26  1  0
  2 27  1  0
  4 28  1  0
  7 29  1  0
  7 30  1  0
  8 31  1  0
 14 32  1  0
 15 33  1  0
 17 34  1  0
 18 35  1  0
 22 36  1  0
 22 37  1  0
 22 38  1  0
M  END
$$$$
[H]OC(=O)/C([H])=C(\C([H])([H])[H])C([H])([H])Oc1c([H])c([H])c([H])c2c([H])c([H])nc([H])c12
     RDKit          3D

 31 32  0  0  0  0  0  0  0  0999 V2000
    3.8732   -1.1826    0.6735 C   0  0  0  0  0  0  0  0  0  0  0  0
    2.6038   -0.4918    0.3116 C   0  0  0  0  0  0  0  0  0  0  0  0
    1.2893   -1.1165    0.6569 C   0  0  0  0  0  0  0  0  0  0  0  0
    0.2695   -0.2550    0.2017 O   0  0  0  0  0  0  0  0  0  0  0  0
   -1.0661   -0.4886    0.3370 C   0  0  0  0  0  0  0  0  0  0  0  0
   -1.5241   -1.6268    0.9519 C   0  0  0  0  0  0  0  0  0  0  0  0
   -2.8817   -1.8358    1.0742 C   0  0  0  0  0  0  0  0  0  0  0  0
   -3.7847   -0.9184    0.5881 C   0  0  0  0  0  0  0  0  0  0  0  0
   -3.3485    0.2239   -0.0288 C   0  0  0  0  0  0  0  0  0  0  0  0
   -4.2176    1.1743   -0.5329 C   0  0  0  0  0  0  0  0  0  0  0  0
   -3.7827    2.3273   -1.1556 C   0  0  0  0  0  0  0  0  0  0  0  0
   -2.4708    2.4985   -1.2572 N   0  0  0  0  0  0  0  0  0  0  0  0
   -1.6112    1.6016   -0.7818 C   0  0  0  0  0  0  0  0  0  0  0  0
   -1.9750    0.4189   -0.1437 C   0  0  0  0  0  0  0  0  0  0  0  0
    2.6722    0.6788   -0.3178 C   0  0  0  0  0  0  0  0  0  0  0  0
    3.9003    1.3488   -0.6866 C   0  0  0  0  0  0  0  0  0  0  0  0
    5.1408    0.8320   -0.4179 O   0  0  0  0  0  0  0  0  0  0  0  0
    3.8300    2.4496   -1.2775 O   0  0  0  0  0  0  0  0  0  0  0  0
    4.4356   -0.5854    1.4348 H   0  0  0  0  0  0  0  0  0  0  0  0
    4.4668   -1.4963   -0.1889 H   0  0  0  0  0  0  0  0  0  0  0  0
    3.5710   -2.1541    1.1709 H   0  0  0  0  0  0  0  0  0  0  0  0
    1.2236   -1.1328    1.7692 H   0  0  0  0  0  0  0  0  0  0  0  0
    1.2278   -2.1301    0.2179 H   0  0  0  0  0  0  0  0  0  0  0  0
   -0.8365   -2.3878    1.3556 H   0  0  0  0  0  0  0  0  0  0  0  0
   -3.2232   -2.7418    1.5634 H   0  0  0  0  0  0  0  0  0  0  0  0
   -4.8508   -1.0753    0.6803 H   0  0  0  0  0  0  0  0  0  0  0  0
   -5.2926    0.9864   -0.4240 H   0  0  0  0  0  0  0  0  0  0  0  0
   -4.5073    3.0303   -1.5278 H   0  0  0  0  0  0  0  0  0  0  0  0
   -0.5605    1.8188   -0.9063 H   0  0  0  0  0  0  0  0  0  0  0  0
    1.6854    1.1226   -0.5491 H   0  0  0  0  0  0  0  0  0  0  0  0
    5.7438    1.1075    0.3439 H   0  0  0  0  0  0  0  0  0  0  0  0
  1  2  1  0
  2  3  1  0
  3  4  1  0
  4  5  1  0
  5  6  2  0
  6  7  1  0
  7  8  2  0
  8  9  1  0
  9 10  2  0
 10 11  1  0
 11 12  2  0
 12 13  1  0
 13 14  2  0
  2 15  2  0
 15 16  1  0
 16 17  1  0
 16 18  2  0
 14  5  1  0
 14  9  1  0
  1 19  1  0
  1 20  1  0
  1 21  1  0
  3 22  1  0
  3 23  1  0
  6 24  1  0
  7 25  1  0
  8 26  1  0
 10 27  1  0
 11 28  1  0
 13 29  1  0
 15 30  1  0
 17 31  1  0
M  END
$$$$
[H]c1c([H])c(C(=O)C([H])([H])C([H])([H])C([H])([H])C([H])([H])C([H])([H])C([H])([H])C([H])([H])[H])c([H])c([H])c1C(=O)N([H])[C@]([H])(C(=O)N([H])c1nnc(C([H])([H])[H])s1)C([H])([H])c1c([H])c([H])c(C(F)(F)F)c([H])c1[H]
     RDKit          3D

 70 72  0  0  0  0  0  0  0  0999 V2000
   11.1597    2.5755    0.4550 C   0  0  0  0  0  0  0  0  0  0  0  0
   10.4667    1.8315   -0.6360 C   0  0  0  0  0  0  0  0  0  0  0  0
    9.4022    0.9344    0.0139 C   0  0  0  0  0  0  0  0  0  0  0  0
    8.6947    0.1784   -1.0739 C   0  0  0  0  0  0  0  0  0  0  0  0
    7.5930   -0.7143   -0.6080 C   0  0  0  0  0  0  0  0  0  0  0  0
    6.5149    0.0391    0.1352 C   0  0  0  0  0  0  0  0  0  0  0  0
    5.3995   -0.9704    0.4799 C   0  0  0  0  0  0  0  0  0  0  0  0
    4.2965   -0.3049    1.1862 C   0  0  0  0  0  0  0  0  0  0  0  0
    4.5696    0.5119    2.0921 O   0  0  0  0  0  0  0  0  0  0  0  0
    2.9091   -0.5668    0.8523 C   0  0  0  0  0  0  0  0  0  0  0  0
    2.4752   -1.4208   -0.1277 C   0  0  0  0  0  0  0  0  0  0  0  0
    1.1513   -1.6317   -0.4348 C   0  0  0  0  0  0  0  0  0  0  0  0
    0.1496   -0.9620    0.2574 C   0  0  0  0  0  0  0  0  0  0  0  0
    0.5559   -0.0865    1.2578 C   0  0  0  0  0  0  0  0  0  0  0  0
    1.8954    0.1029    1.5443 C   0  0  0  0  0  0  0  0  0  0  0  0
   -1.2458   -1.1760   -0.0774 C   0  0  0  0  0  0  0  0  0  0  0  0
   -1.5385   -1.9830   -1.0320 O   0  0  0  0  0  0  0  0  0  0  0  0
   -2.3281   -0.5724    0.5542 N   0  0  0  0  0  0  0  0  0  0  0  0
   -3.7437   -0.8105    0.1859 C   0  0  1  0  0  0  0  0  0  0  0  0
   -4.3956   -1.6340    1.2144 C   0  0  0  0  0  0  0  0  0  0  0  0
   -5.8086   -2.0043    1.0439 C   0  0  0  0  0  0  0  0  0  0  0  0
   -6.1875   -3.0457    0.1691 C   0  0  0  0  0  0  0  0  0  0  0  0
   -7.4989   -3.4398    0.0630 C   0  0  0  0  0  0  0  0  0  0  0  0
   -8.5091   -2.8637    0.7832 C   0  0  0  0  0  0  0  0  0  0  0  0
   -8.1658   -1.8307    1.6570 C   0  0  0  0  0  0  0  0  0  0  0  0
   -6.8458   -1.4466    1.7499 C   0  0  0  0  0  0  0  0  0  0  0  0
   -9.8892   -3.3211    0.6642 C   0  0  0  0  0  0  0  0  0  0  0  0
   -9.9532   -4.6500    1.1107 F   0  0  0  0  0  0  0  0  0  0  0  0
  -10.2309   -3.3252   -0.6871 F   0  0  0  0  0  0  0  0  0  0  0  0
  -10.7939   -2.6057    1.3986 F   0  0  0  0  0  0  0  0  0  0  0  0
   -4.2947    0.4393   -0.2717 C   0  0  0  0  0  0  0  0  0  0  0  0
   -3.4517    1.4411   -0.2985 O   0  0  0  0  0  0  0  0  0  0  0  0
   -5.5919    0.7632   -0.6977 N   0  0  0  0  0  0  0  0  0  0  0  0
   -5.8821    2.0889   -1.1930 C   0  0  0  0  0  0  0  0  0  0  0  0
   -7.0740    2.5858   -1.5427 N   0  0  0  0  0  0  0  0  0  0  0  0
   -7.1350    3.7615   -1.9988 N   0  0  0  0  0  0  0  0  0  0  0  0
   -6.0732    4.5117   -2.1394 C   0  0  0  0  0  0  0  0  0  0  0  0
   -5.9675    5.9059   -2.6488 C   0  0  0  0  0  0  0  0  0  0  0  0
   -4.8562    3.4178   -1.5582 S   0  0  0  0  0  0  0  0  0  0  0  0
   11.1808    1.9616    1.3748 H   0  0  0  0  0  0  0  0  0  0  0  0
   10.5465    3.4888    0.6970 H   0  0  0  0  0  0  0  0  0  0  0  0
   12.1622    2.9566    0.1824 H   0  0  0  0  0  0  0  0  0  0  0  0
   10.0259    2.4748   -1.4004 H   0  0  0  0  0  0  0  0  0  0  0  0
   11.2360    1.1719   -1.1362 H   0  0  0  0  0  0  0  0  0  0  0  0
    9.9698    0.2202    0.6254 H   0  0  0  0  0  0  0  0  0  0  0  0
    8.7189    1.6020    0.5818 H   0  0  0  0  0  0  0  0  0  0  0  0
    8.2710    0.8486   -1.8623 H   0  0  0  0  0  0  0  0  0  0  0  0
    9.4804   -0.4811   -1.5411 H   0  0  0  0  0  0  0  0  0  0  0  0
    7.0890   -1.2410   -1.4530 H   0  0  0  0  0  0  0  0  0  0  0  0
    8.0054   -1.5258    0.0430 H   0  0  0  0  0  0  0  0  0  0  0  0
    6.1142    0.9001   -0.4220 H   0  0  0  0  0  0  0  0  0  0  0  0
    6.8833    0.3937    1.1170 H   0  0  0  0  0  0  0  0  0  0  0  0
    5.1324   -1.4629   -0.4692 H   0  0  0  0  0  0  0  0  0  0  0  0
    5.8581   -1.7944    1.1020 H   0  0  0  0  0  0  0  0  0  0  0  0
    3.2574   -1.9606   -0.6872 H   0  0  0  0  0  0  0  0  0  0  0  0
    0.8720   -2.3135   -1.2061 H   0  0  0  0  0  0  0  0  0  0  0  0
   -0.2034    0.4499    1.8140 H   0  0  0  0  0  0  0  0  0  0  0  0
    2.2284    0.7880    2.3264 H   0  0  0  0  0  0  0  0  0  0  0  0
   -2.1503    0.0899    1.3475 H   0  0  0  0  0  0  0  0  0  0  0  0
   -3.6286   -1.4807   -0.7441 H   0  0  0  0  0  0  0  0  0  0  0  0
   -3.8370   -2.6418    1.1793 H   0  0  0  0  0  0  0  0  0  0  0  0
   -4.1847   -1.3072    2.2633 H   0  0  0  0  0  0  0  0  0  0  0  0
   -5.3915   -3.5013   -0.4073 H   0  0  0  0  0  0  0  0  0  0  0  0
   -7.7403   -4.2493   -0.6302 H   0  0  0  0  0  0  0  0  0  0  0  0
   -8.9606   -1.3748    2.2285 H   0  0  0  0  0  0  0  0  0  0  0  0
   -6.5850   -0.6426    2.4362 H   0  0  0  0  0  0  0  0  0  0  0  0
   -6.3916    0.1175   -0.7455 H   0  0  0  0  0  0  0  0  0  0  0  0
   -5.6469    5.8837   -3.7313 H   0  0  0  0  0  0  0  0  0  0  0  0
   -5.1529    6.4777   -2.1192 H   0  0  0  0  0  0  0  0  0  0  0  0
   -6.9317    6.4293   -2.6065 H   0  0  0  0  0  0  0  0  0  0  0  0
  1  2  1  0
  2  3  1  0
  3  4  1  0
  4  5  1  0
  5  6  1  0
  6  7  1  0
  7  8  1  0
  8  9  2  0
  8 10  1  0
 10 11  2  0
 11 12  1  0
 12 13  2  0
 13 14  1  0
 14 15  2  0
 13 16  1  0
 16 17  2  0
 16 18  1  0
 18 19  1  0
 19 20  1  0
 20 21  1  0
 21 22  2  0
 22 23  1  0
 23 24  2  0
 24 25  1  0
 25 26  2  0
 24 27  1  0
 27 28  1  0
 27 29  1  0
 27 30  1  0
 19 31  1  0
 31 32  2  0
 31 33  1  0
 33 34  1  0
 34 35  2  0
 35 36  1  0
 36 37  2  0
 37 38  1  0
 37 39  1  0
 15 10  1  0
 26 21  1  0
 39 34  1  0
  1 40  1  0
  1 41  1  0
  1 42  1  0
  2 43  1  0
  2 44  1  0
  3 45  1  0
  3 46  1  0
  4 47  1  0
  4 48  1  0
  5 49  1  0
  5 50  1  0
  6 51  1  0
  6 52  1  0
  7 53  1  0
  7 54  1  0
 11 55  1  0
 12 56  1  0
 14 57  1  0
 15 58  1  0
 18 59  1  0
 19 60  1  6
 20 61  1  0
 20 62  1  0
 22 63  1  0
 23 64  1  0
 25 65  1  0
 26 66  1  0
 33 67  1  0
 38 68  1  0
 38 69  1  0
 38 70  1  0
M  END
$$$$
[H]ON(C([H])=O)C([H])(C([H])([H])c1c([H])c([H])c([H])c([H])c1[H])C([H])([H])n1c(-c2c([H])c([H])c(F)c([H])c2[H])nc2c([H])c([H])c([H])c([H])c21
     RDKit          3D

 49 52  0  0  0  0  0  0  0  0999 V2000
   -0.0496   -2.9225   -1.6628 O   0  0  0  0  0  0  0  0  0  0  0  0
    0.8626   -2.4477   -0.7983 N   0  0  0  0  0  0  0  0  0  0  0  0
    1.0147   -1.0208   -0.6132 C   0  0  0  0  0  0  0  0  0  0  0  0
    2.4355   -0.6322   -0.8936 C   0  0  0  0  0  0  0  0  0  0  0  0
    2.7920    0.7789   -0.7693 C   0  0  0  0  0  0  0  0  0  0  0  0
    2.6456    1.5623   -1.9204 C   0  0  0  0  0  0  0  0  0  0  0  0
    2.9722    2.8992   -1.9106 C   0  0  0  0  0  0  0  0  0  0  0  0
    3.4494    3.4702   -0.7496 C   0  0  0  0  0  0  0  0  0  0  0  0
    3.6075    2.7310    0.4047 C   0  0  0  0  0  0  0  0  0  0  0  0
    3.2709    1.4006    0.3555 C   0  0  0  0  0  0  0  0  0  0  0  0
    0.5005   -0.4731    0.6901 C   0  0  0  0  0  0  0  0  0  0  0  0
   -0.9111   -0.6623    0.9429 N   0  0  0  0  0  0  0  0  0  0  0  0
   -1.9344    0.0760    0.4846 C   0  0  0  0  0  0  0  0  0  0  0  0
   -3.0698   -0.4933    1.0050 N   0  0  0  0  0  0  0  0  0  0  0  0
   -2.7948   -1.5447    1.7658 C   0  0  0  0  0  0  0  0  0  0  0  0
   -3.6110   -2.4059    2.5084 C   0  0  0  0  0  0  0  0  0  0  0  0
   -3.0434   -3.4076    3.2416 C   0  0  0  0  0  0  0  0  0  0  0  0
   -1.6734   -3.5552    3.2396 C   0  0  0  0  0  0  0  0  0  0  0  0
   -0.9059   -2.6863    2.4939 C   0  0  0  0  0  0  0  0  0  0  0  0
   -1.4242   -1.6586    1.7334 C   0  0  0  0  0  0  0  0  0  0  0  0
   -2.0115    1.2332   -0.3901 C   0  0  0  0  0  0  0  0  0  0  0  0
   -3.2661    1.5404   -0.9309 C   0  0  0  0  0  0  0  0  0  0  0  0
   -3.4690    2.6406   -1.7277 C   0  0  0  0  0  0  0  0  0  0  0  0
   -2.4316    3.4940   -2.0278 C   0  0  0  0  0  0  0  0  0  0  0  0
   -2.6700    4.5671   -2.8160 F   0  0  0  0  0  0  0  0  0  0  0  0
   -1.2009    3.2040   -1.5041 C   0  0  0  0  0  0  0  0  0  0  0  0
   -1.0052    2.0935   -0.7021 C   0  0  0  0  0  0  0  0  0  0  0  0
    1.6620   -3.3489   -0.0804 C   0  0  0  0  0  0  0  0  0  0  0  0
    1.5702   -4.5955   -0.2034 O   0  0  0  0  0  0  0  0  0  0  0  0
    0.3022   -2.7886   -2.5785 H   0  0  0  0  0  0  0  0  0  0  0  0
    0.3553   -0.4864   -1.3809 H   0  0  0  0  0  0  0  0  0  0  0  0
    2.6668   -1.0020   -1.9373 H   0  0  0  0  0  0  0  0  0  0  0  0
    3.1523   -1.2215   -0.2522 H   0  0  0  0  0  0  0  0  0  0  0  0
    2.2716    1.1266   -2.8400 H   0  0  0  0  0  0  0  0  0  0  0  0
    2.8678    3.5326   -2.7936 H   0  0  0  0  0  0  0  0  0  0  0  0
    3.7185    4.5309   -0.7077 H   0  0  0  0  0  0  0  0  0  0  0  0
    3.9814    3.1569    1.3321 H   0  0  0  0  0  0  0  0  0  0  0  0
    3.3885    0.8096    1.2481 H   0  0  0  0  0  0  0  0  0  0  0  0
    0.8964    0.5154    0.9407 H   0  0  0  0  0  0  0  0  0  0  0  0
    1.0648   -1.1271    1.4708 H   0  0  0  0  0  0  0  0  0  0  0  0
   -4.6791   -2.2530    2.4812 H   0  0  0  0  0  0  0  0  0  0  0  0
   -3.6593   -4.1048    3.8387 H   0  0  0  0  0  0  0  0  0  0  0  0
   -1.2266   -4.3494    3.8225 H   0  0  0  0  0  0  0  0  0  0  0  0
    0.1669   -2.8065    2.5176 H   0  0  0  0  0  0  0  0  0  0  0  0
   -4.1417    0.9230   -0.7485 H   0  0  0  0  0  0  0  0  0  0  0  0
   -4.4429    2.8569   -2.1349 H   0  0  0  0  0  0  0  0  0  0  0  0
   -0.3826    3.8534   -1.7246 H   0  0  0  0  0  0  0  0  0  0  0  0
   -0.0059    1.9670   -0.3319 H   0  0  0  0  0  0  0  0  0  0  0  0
    2.3943   -2.9691    0.6136 H   0  0  0  0  0  0  0  0  0  0  0  0
  1  2  1  0
  2  3  1  0
  3  4  1  0
  4  5  1  0
  5  6  2  0
  6  7  1  0
  7  8  2  0
  8  9  1  0
  9 10  2  0
  3 11  1  0
 11 12  1  0
 12 13  1  0
 13 14  2  0
 14 15  1  0
 15 16  2  0
 16 17  1  0
 17 18  2  0
 18 19  1  0
 19 20  2  0
 13 21  1  0
 21 22  2  0
 22 23  1  0
 23 24  2  0
 24 25  1  0
 24 26  1  0
 26 27  2  0
  2 28  1  0
 28 29  2  0
 10  5  1  0
 20 12  1  0
 27 21  1  0
 20 15  1  0
  1 30  1  0
  3 31  1  0
  4 32  1  0
  4 33  1  0
  6 34  1  0
  7 35  1  0
  8 36  1  0
  9 37  1  0
 10 38  1  0
 11 39  1  0
 11 40  1  0
 16 41  1  0
 17 42  1  0
 18 43  1  0
 19 44  1  0
 22 45  1  0
 23 46  1  0
 26 47  1  0
 27 48  1  0
 28 49  1  0
M  END
$$$$
[H]c1nc(Cl)c([H])c(N2C([H])([H])C([H])(OC([H])([H])[H])C2([H])[H])c1C(=O)N([H])c1c([H])c([H])c(C(=O)N([H])[H])c(N([H])[H])c1[H]
     RDKit          3D

 44 46  0  0  0  0  0  0  0  0999 V2000
   -5.6267   -2.2788   -1.1284 C   0  0  0  0  0  0  0  0  0  0  0  0
   -4.3657   -2.2941   -0.4930 O   0  0  0  0  0  0  0  0  0  0  0  0
   -4.0810   -1.0000   -0.1339 C   0  0  0  0  0  0  0  0  0  0  0  0
   -2.6267   -0.5578   -0.3884 C   0  0  0  0  0  0  0  0  0  0  0  0
   -2.7837    0.2286    0.8048 N   0  0  0  0  0  0  0  0  0  0  0  0
   -3.6037   -0.8415    1.3190 C   0  0  0  0  0  0  0  0  0  0  0  0
   -2.3475    1.4789    1.2702 C   0  0  0  0  0  0  0  0  0  0  0  0
   -3.2606    2.5073    1.5723 C   0  0  0  0  0  0  0  0  0  0  0  0
   -2.8135    3.7145    2.0144 C   0  0  0  0  0  0  0  0  0  0  0  0
   -4.0183    4.9431    2.3705 Cl  0  0  0  0  0  0  0  0  0  0  0  0
   -1.5134    3.9865    2.1829 N   0  0  0  0  0  0  0  0  0  0  0  0
   -0.6152    3.0327    1.9059 C   0  0  0  0  0  0  0  0  0  0  0  0
   -1.0310    1.8002    1.4573 C   0  0  0  0  0  0  0  0  0  0  0  0
   -0.0178    0.7656    1.1727 C   0  0  0  0  0  0  0  0  0  0  0  0
   -0.1726   -0.3789    1.5847 O   0  0  0  0  0  0  0  0  0  0  0  0
    1.1101    1.1440    0.4234 N   0  0  0  0  0  0  0  0  0  0  0  0
    2.2041    0.3905    0.0108 C   0  0  0  0  0  0  0  0  0  0  0  0
    2.3017   -0.9526    0.1837 C   0  0  0  0  0  0  0  0  0  0  0  0
    3.4470   -1.6394   -0.2508 C   0  0  0  0  0  0  0  0  0  0  0  0
    4.4953   -1.0003   -0.8558 C   0  0  0  0  0  0  0  0  0  0  0  0
    5.6877   -1.7006   -1.3089 C   0  0  0  0  0  0  0  0  0  0  0  0
    5.7618   -3.1193   -1.1121 N   0  0  0  0  0  0  0  0  0  0  0  0
    6.6198   -1.0687   -1.8563 O   0  0  0  0  0  0  0  0  0  0  0  0
    4.4001    0.3608   -1.0331 C   0  0  0  0  0  0  0  0  0  0  0  0
    5.4619    1.0730   -1.6550 N   0  0  0  0  0  0  0  0  0  0  0  0
    3.2885    1.0160   -0.6095 C   0  0  0  0  0  0  0  0  0  0  0  0
   -5.4960   -1.6084   -2.0063 H   0  0  0  0  0  0  0  0  0  0  0  0
   -6.3725   -1.7322   -0.4796 H   0  0  0  0  0  0  0  0  0  0  0  0
   -5.9681   -3.2686   -1.4270 H   0  0  0  0  0  0  0  0  0  0  0  0
   -4.8180   -0.2371   -0.3863 H   0  0  0  0  0  0  0  0  0  0  0  0
   -1.9858   -1.4401   -0.3590 H   0  0  0  0  0  0  0  0  0  0  0  0
   -2.6232    0.0057   -1.3426 H   0  0  0  0  0  0  0  0  0  0  0  0
   -3.0213   -1.7363    1.6520 H   0  0  0  0  0  0  0  0  0  0  0  0
   -4.3949   -0.5410    2.0244 H   0  0  0  0  0  0  0  0  0  0  0  0
   -4.3217    2.2767    1.4314 H   0  0  0  0  0  0  0  0  0  0  0  0
    0.4395    3.2319    2.0350 H   0  0  0  0  0  0  0  0  0  0  0  0
    1.1064    2.1794    0.1329 H   0  0  0  0  0  0  0  0  0  0  0  0
    1.5407   -1.5674    0.6426 H   0  0  0  0  0  0  0  0  0  0  0  0
    3.5080   -2.7064   -0.1056 H   0  0  0  0  0  0  0  0  0  0  0  0
    5.5265   -3.4540   -0.1602 H   0  0  0  0  0  0  0  0  0  0  0  0
    6.0327   -3.7751   -1.8688 H   0  0  0  0  0  0  0  0  0  0  0  0
    6.3071    1.4112   -1.1524 H   0  0  0  0  0  0  0  0  0  0  0  0
    5.3844    1.2645   -2.6716 H   0  0  0  0  0  0  0  0  0  0  0  0
    3.2558    2.0876   -0.7692 H   0  0  0  0  0  0  0  0  0  0  0  0
  1  2  1  0
  2  3  1  0
  3  4  1  0
  4  5  1  0
  5  6  1  0
  5  7  1  0
  7  8  2  0
  8  9  1  0
  9 10  1  0
  9 11  2  0
 11 12  1  0
 12 13  2  0
 13 14  1  0
 14 15  2  0
 14 16  1  0
 16 17  1  0
 17 18  2  0
 18 19  1  0
 19 20  2  0
 20 21  1  0
 21 22  1  0
 21 23  2  0
 20 24  1  0
 24 25  1  0
 24 26  2  0
  6  3  1  0
 13  7  1  0
 26 17  1  0
  1 27  1  0
  1 28  1  0
  1 29  1  0
  3 30  1  0
  4 31  1  0
  4 32  1  0
  6 33  1  0
  6 34  1  0
  8 35  1  0
 12 36  1  0
 16 37  1  0
 18 38  1  0
 19 39  1  0
 22 40  1  0
 22 41  1  0
 25 42  1  0
 25 43  1  0
 26 44  1  0
M  END
$$$$
[H]c1c([H])c(N=Nc2c(C(=O)N([H])[H])c(C([H])([H])[H])nn2-c2c([H])c([H])c3c([H])c(OC([H])([H])[H])c([H])c([H])c3c2[H])c([H])c([H])c1Br
     RDKit          3D

 48 51  0  0  0  0  0  0  0  0999 V2000
    6.3071    0.6978    3.5580 C   0  0  0  0  0  0  0  0  0  0  0  0
    5.8333   -0.1583    2.5594 O   0  0  0  0  0  0  0  0  0  0  0  0
    4.6407    0.0468    1.8716 C   0  0  0  0  0  0  0  0  0  0  0  0
    3.8017    1.1038    2.0930 C   0  0  0  0  0  0  0  0  0  0  0  0
    2.6226    1.2839    1.3949 C   0  0  0  0  0  0  0  0  0  0  0  0
    2.2777    0.3496    0.4274 C   0  0  0  0  0  0  0  0  0  0  0  0
    1.0913    0.4981   -0.3001 C   0  0  0  0  0  0  0  0  0  0  0  0
    0.7306   -0.4159   -1.2621 C   0  0  0  0  0  0  0  0  0  0  0  0
    1.5789   -1.4779   -1.4805 C   0  0  0  0  0  0  0  0  0  0  0  0
    2.7494   -1.6585   -0.7896 C   0  0  0  0  0  0  0  0  0  0  0  0
    3.0976   -0.7302    0.1750 C   0  0  0  0  0  0  0  0  0  0  0  0
    4.2829   -0.8730    0.9065 C   0  0  0  0  0  0  0  0  0  0  0  0
   -0.4924   -0.2607   -2.0118 N   0  0  0  0  0  0  0  0  0  0  0  0
   -0.7105    0.6017   -2.9871 N   0  0  0  0  0  0  0  0  0  0  0  0
   -1.9477    0.5013   -3.4921 C   0  0  0  0  0  0  0  0  0  0  0  0
   -2.5523    1.3107   -4.6033 C   0  0  0  0  0  0  0  0  0  0  0  0
   -2.5675   -0.5026   -2.7844 C   0  0  0  0  0  0  0  0  0  0  0  0
   -3.9263   -0.9763   -2.9740 C   0  0  0  0  0  0  0  0  0  0  0  0
   -4.7278   -0.3701   -3.9758 N   0  0  0  0  0  0  0  0  0  0  0  0
   -4.4421   -1.8935   -2.3036 O   0  0  0  0  0  0  0  0  0  0  0  0
   -1.6269   -0.9657   -1.8571 C   0  0  0  0  0  0  0  0  0  0  0  0
   -1.8488   -1.9894   -0.9431 N   0  0  0  0  0  0  0  0  0  0  0  0
   -2.1326   -2.0324    0.2320 N   0  0  0  0  0  0  0  0  0  0  0  0
   -2.3787   -1.1556    1.2534 C   0  0  0  0  0  0  0  0  0  0  0  0
   -2.5350    0.1901    1.0652 C   0  0  0  0  0  0  0  0  0  0  0  0
   -2.7884    1.0370    2.1496 C   0  0  0  0  0  0  0  0  0  0  0  0
   -2.8882    0.5462    3.4333 C   0  0  0  0  0  0  0  0  0  0  0  0
   -3.2370    1.7309    4.8956 Br  0  0  0  0  0  0  0  0  0  0  0  0
   -2.7303   -0.8120    3.6212 C   0  0  0  0  0  0  0  0  0  0  0  0
   -2.4823   -1.6369    2.5582 C   0  0  0  0  0  0  0  0  0  0  0  0
    6.5444    1.7213    3.1951 H   0  0  0  0  0  0  0  0  0  0  0  0
    5.6203    0.7600    4.4262 H   0  0  0  0  0  0  0  0  0  0  0  0
    7.2536    0.2728    3.9458 H   0  0  0  0  0  0  0  0  0  0  0  0
    4.0856    1.8310    2.8575 H   0  0  0  0  0  0  0  0  0  0  0  0
    1.9463    2.1106    1.5542 H   0  0  0  0  0  0  0  0  0  0  0  0
    0.4845    1.3560   -0.0691 H   0  0  0  0  0  0  0  0  0  0  0  0
    1.3152   -2.2073   -2.2305 H   0  0  0  0  0  0  0  0  0  0  0  0
    3.4280   -2.4994   -0.9583 H   0  0  0  0  0  0  0  0  0  0  0  0
    4.8959   -1.7474    0.6652 H   0  0  0  0  0  0  0  0  0  0  0  0
   -3.4406    1.8651   -4.2376 H   0  0  0  0  0  0  0  0  0  0  0  0
   -1.7484    1.9946   -4.9776 H   0  0  0  0  0  0  0  0  0  0  0  0
   -2.7691    0.6131   -5.4135 H   0  0  0  0  0  0  0  0  0  0  0  0
   -4.7039   -0.7216   -4.9473 H   0  0  0  0  0  0  0  0  0  0  0  0
   -5.3475    0.4408   -3.7191 H   0  0  0  0  0  0  0  0  0  0  0  0
   -2.4718    0.6505    0.1033 H   0  0  0  0  0  0  0  0  0  0  0  0
   -2.9138    2.1174    1.9988 H   0  0  0  0  0  0  0  0  0  0  0  0
   -2.8156   -1.1762    4.6591 H   0  0  0  0  0  0  0  0  0  0  0  0
   -2.3619   -2.6896    2.7182 H   0  0  0  0  0  0  0  0  0  0  0  0
  1  2  1  0
  2  3  1  0
  3  4  2  0
  4  5  1  0
  5  6  2  0
  6  7  1  0
  7  8  2  0
  8  9  1  0
  9 10  2  0
 10 11  1  0
 11 12  2  0
  8 13  1  0
 13 14  1  0
 14 15  2  0
 15 16  1  0
 15 17  1  0
 17 18  1  0
 18 19  1  0
 18 20  2  0
 17 21  2  0
 21 22  1  0
 22 23  2  3
 23 24  1  0
 24 25  2  0
 25 26  1  0
 26 27  2  0
 27 28  1  0
 27 29  1  0
 29 30  2  0
 12  3  1  0
 21 13  1  0
 30 24  1  0
 11  6  1  0
  1 31  1  0
  1 32  1  0
  1 33  1  0
  4 34  1  0
  5 35  1  0
  7 36  1  0
  9 37  1  0
 10 38  1  0
 12 39  1  0
 16 40  1  0
 16 41  1  0
 16 42  1  0
 19 43  1  0
 19 44  1  0
 25 45  1  0
 26 46  1  0
 29 47  1  0
 30 48  1  0
M  END
$$$$
[H]ON([H])C(=O)C([H])([H])[C@@]1([H])C(=O)[C@@]([H])(C([H])(C([H])([H])[H])C([H])([H])[H])N(C([H])([H])c2c([H])c([H])c([H])c([H])c2[H])C(=O)N1C([H])([H])[H]
     RDKit          3D

 47 48  0  0  0  0  0  0  0  0999 V2000
   -2.1677   -2.0955   -1.7915 C   0  0  0  0  0  0  0  0  0  0  0  0
   -0.9103   -1.9585   -0.9897 C   0  0  0  0  0  0  0  0  0  0  0  0
   -0.0716   -3.2053   -1.2464 C   0  0  0  0  0  0  0  0  0  0  0  0
   -0.1883   -0.7163   -1.2434 C   0  0  1  0  0  0  0  0  0  0  0  0
   -0.7451    0.5650   -0.9608 N   0  0  0  0  0  0  0  0  0  0  0  0
   -2.1466    0.7691   -0.7555 C   0  0  0  0  0  0  0  0  0  0  0  0
   -2.6140    0.5445    0.6247 C   0  0  0  0  0  0  0  0  0  0  0  0
   -3.9444    0.3457    0.8678 C   0  0  0  0  0  0  0  0  0  0  0  0
   -4.4032    0.1446    2.1646 C   0  0  0  0  0  0  0  0  0  0  0  0
   -3.5132    0.1457    3.2090 C   0  0  0  0  0  0  0  0  0  0  0  0
   -2.1759    0.3477    2.9447 C   0  0  0  0  0  0  0  0  0  0  0  0
   -1.7238    0.5470    1.6557 C   0  0  0  0  0  0  0  0  0  0  0  0
    0.1746    1.7129   -0.8609 C   0  0  0  0  0  0  0  0  0  0  0  0
   -0.3528    2.7808   -0.4776 O   0  0  0  0  0  0  0  0  0  0  0  0
    1.5524    1.5897   -1.1817 N   0  0  0  0  0  0  0  0  0  0  0  0
    2.2732    2.8019   -1.5244 C   0  0  0  0  0  0  0  0  0  0  0  0
    2.1356    0.2867   -1.1457 C   0  0  1  0  0  0  0  0  0  0  0  0
    3.4119    0.1963   -0.3644 C   0  0  0  0  0  0  0  0  0  0  0  0
    3.3155    0.5702    1.0380 C   0  0  0  0  0  0  0  0  0  0  0  0
    2.2217    0.9727    1.5006 O   0  0  0  0  0  0  0  0  0  0  0  0
    4.4209    0.4962    1.9108 N   0  0  0  0  0  0  0  0  0  0  0  0
    4.3137    0.8455    3.2034 O   0  0  0  0  0  0  0  0  0  0  0  0
    1.1907   -0.7023   -0.6351 C   0  0  0  0  0  0  0  0  0  0  0  0
    1.4658   -1.4742    0.2194 O   0  0  0  0  0  0  0  0  0  0  0  0
   -3.1026   -1.9295   -1.2427 H   0  0  0  0  0  0  0  0  0  0  0  0
   -2.1763   -1.5051   -2.7293 H   0  0  0  0  0  0  0  0  0  0  0  0
   -2.2750   -3.1678   -2.1834 H   0  0  0  0  0  0  0  0  0  0  0  0
   -1.2297   -2.0860    0.0941 H   0  0  0  0  0  0  0  0  0  0  0  0
    0.6671   -3.0604   -2.0328 H   0  0  0  0  0  0  0  0  0  0  0  0
   -0.7741   -4.0031   -1.5599 H   0  0  0  0  0  0  0  0  0  0  0  0
    0.3730   -3.6042   -0.2903 H   0  0  0  0  0  0  0  0  0  0  0  0
    0.0719   -0.6600   -2.3778 H   0  0  0  0  0  0  0  0  0  0  0  0
   -2.2777    1.9156   -0.9826 H   0  0  0  0  0  0  0  0  0  0  0  0
   -2.8117    0.3535   -1.5059 H   0  0  0  0  0  0  0  0  0  0  0  0
   -4.7014    0.3327    0.0896 H   0  0  0  0  0  0  0  0  0  0  0  0
   -5.4589   -0.0127    2.3533 H   0  0  0  0  0  0  0  0  0  0  0  0
   -3.8553   -0.0112    4.2387 H   0  0  0  0  0  0  0  0  0  0  0  0
   -1.4970    0.3428    3.7943 H   0  0  0  0  0  0  0  0  0  0  0  0
   -0.6535    0.7008    1.5037 H   0  0  0  0  0  0  0  0  0  0  0  0
    2.5767    3.3730   -0.6233 H   0  0  0  0  0  0  0  0  0  0  0  0
    1.6154    3.5138   -2.1043 H   0  0  0  0  0  0  0  0  0  0  0  0
    3.1001    2.5484   -2.1924 H   0  0  0  0  0  0  0  0  0  0  0  0
    2.3472    0.0373   -2.2394 H   0  0  0  0  0  0  0  0  0  0  0  0
    4.1373    0.8980   -0.8751 H   0  0  0  0  0  0  0  0  0  0  0  0
    3.8893   -0.8011   -0.4477 H   0  0  0  0  0  0  0  0  0  0  0  0
    5.3418    0.1685    1.5673 H   0  0  0  0  0  0  0  0  0  0  0  0
    5.1745    1.1466    3.5842 H   0  0  0  0  0  0  0  0  0  0  0  0
  1  2  1  0
  2  3  1  0
  2  4  1  0
  4  5  1  0
  5  6  1  0
  6  7  1  0
  7  8  2  0
  8  9  1  0
  9 10  2  0
 10 11  1  0
 11 12  2  0
  5 13  1  0
 13 14  2  0
 13 15  1  0
 15 16  1  0
 15 17  1  0
 17 18  1  0
 18 19  1  0
 19 20  2  0
 19 21  1  0
 21 22  1  0
 17 23  1  0
 23 24  2  0
 23  4  1  0
 12  7  1  0
  1 25  1  0
  1 26  1  0
  1 27  1  0
  2 28  1  0
  3 29  1  0
  3 30  1  0
  3 31  1  0
  4 32  1  6
  6 33  1  0
  6 34  1  0
  8 35  1  0
  9 36  1  0
 10 37  1  0
 11 38  1  0
 12 39  1  0
 16 40  1  0
 16 41  1  0
 16 42  1  0
 17 43  1  6
 18 44  1  0
 18 45  1  0
 21 46  1  0
 22 47  1  0
M  END
$$$$
[H]Oc1c([H])c(OC([H])([H])C([H])([H])[H])c(-c2onc(C(=O)N([H])C([H])([H])C([H])([H])[H])c2-c2c([H])c(SC([H])([H])C([H])(C([H])([H])[H])C([H])([H])[H])c3c(c2[H])C([H])([H])C([H])([H])N3S(=O)(=O)C([H])([H])[H])c([H])c1Cl
     RDKit          3D

 71 74  0  0  0  0  0  0  0  0999 V2000
   -0.2378   -4.6501    3.8559 C   0  0  0  0  0  0  0  0  0  0  0  0
   -1.6573   -4.6518    3.3227 C   0  0  0  0  0  0  0  0  0  0  0  0
   -2.1554   -3.3116    3.1373 N   0  0  0  0  0  0  0  0  0  0  0  0
   -1.5571   -2.3735    2.2595 C   0  0  0  0  0  0  0  0  0  0  0  0
   -0.5444   -2.7009    1.5963 O   0  0  0  0  0  0  0  0  0  0  0  0
   -2.0800   -1.0229    2.0940 C   0  0  0  0  0  0  0  0  0  0  0  0
   -3.1453   -0.4973    2.7725 N   0  0  0  0  0  0  0  0  0  0  0  0
   -3.3226    0.7195    2.3725 O   0  0  0  0  0  0  0  0  0  0  0  0
   -2.4377    1.0494    1.4606 C   0  0  0  0  0  0  0  0  0  0  0  0
   -1.6303   -0.0297    1.2547 C   0  0  0  0  0  0  0  0  0  0  0  0
   -0.5227   -0.1288    0.3318 C   0  0  0  0  0  0  0  0  0  0  0  0
   -0.7093   -0.8546   -0.8225 C   0  0  0  0  0  0  0  0  0  0  0  0
    0.2715   -1.0232   -1.7582 C   0  0  0  0  0  0  0  0  0  0  0  0
    0.3343   -1.8127   -3.0400 C   0  0  0  0  0  0  0  0  0  0  0  0
    1.8439   -2.0634   -3.1412 C   0  0  0  0  0  0  0  0  0  0  0  0
    2.3549   -0.7310   -2.6826 N   0  0  0  0  0  0  0  0  0  0  0  0
    1.5326   -0.4453   -1.5705 C   0  0  0  0  0  0  0  0  0  0  0  0
    1.7071    0.2861   -0.3921 C   0  0  0  0  0  0  0  0  0  0  0  0
    3.3317    0.9707   -0.1257 S   0  0  0  0  0  0  0  0  0  0  0  0
    4.4110   -0.2454    0.6177 C   0  0  0  0  0  0  0  0  0  0  0  0
    4.0954   -0.6680    2.0064 C   0  0  0  0  0  0  0  0  0  0  0  0
    4.1078    0.5288    2.9293 C   0  0  0  0  0  0  0  0  0  0  0  0
    2.9371   -1.5636    2.2095 C   0  0  0  0  0  0  0  0  0  0  0  0
    0.7010    0.4383    0.5326 C   0  0  0  0  0  0  0  0  0  0  0  0
    3.6061    0.1664   -3.3660 S   0  0  0  0  0  0  0  0  0  0  0  0
    3.0402    0.4854   -5.0853 C   0  0  0  0  0  0  0  0  0  0  0  0
    4.8868   -0.5832   -3.5274 O   0  0  0  0  0  0  0  0  0  0  0  0
    3.7976    1.5584   -2.8510 O   0  0  0  0  0  0  0  0  0  0  0  0
   -2.3522    2.3437    0.8018 C   0  0  0  0  0  0  0  0  0  0  0  0
   -1.3310    3.2074    1.1147 C   0  0  0  0  0  0  0  0  0  0  0  0
   -1.2116    4.4383    0.5100 C   0  0  0  0  0  0  0  0  0  0  0  0
    0.1056    5.4889    0.9457 Cl  0  0  0  0  0  0  0  0  0  0  0  0
   -2.1533    4.8240   -0.4483 C   0  0  0  0  0  0  0  0  0  0  0  0
   -2.0487    6.0566   -1.0660 O   0  0  0  0  0  0  0  0  0  0  0  0
   -3.1683    3.9465   -0.7465 C   0  0  0  0  0  0  0  0  0  0  0  0
   -3.3039    2.7203   -0.1579 C   0  0  0  0  0  0  0  0  0  0  0  0
   -4.3251    1.8178   -0.4456 O   0  0  0  0  0  0  0  0  0  0  0  0
   -5.3553    2.0124   -1.3621 C   0  0  0  0  0  0  0  0  0  0  0  0
   -4.9109    2.2191   -2.7849 C   0  0  0  0  0  0  0  0  0  0  0  0
    0.5105   -4.2816    3.1322 H   0  0  0  0  0  0  0  0  0  0  0  0
    0.0588   -5.6816    4.1627 H   0  0  0  0  0  0  0  0  0  0  0  0
   -0.2108   -3.9806    4.7344 H   0  0  0  0  0  0  0  0  0  0  0  0
   -1.7469   -5.2695    2.4046 H   0  0  0  0  0  0  0  0  0  0  0  0
   -2.2751   -5.1578    4.0851 H   0  0  0  0  0  0  0  0  0  0  0  0
   -3.0151   -3.0395    3.6991 H   0  0  0  0  0  0  0  0  0  0  0  0
   -1.6744   -1.3318   -1.0320 H   0  0  0  0  0  0  0  0  0  0  0  0
    0.0027   -1.2529   -3.9088 H   0  0  0  0  0  0  0  0  0  0  0  0
   -0.1687   -2.7711   -2.8403 H   0  0  0  0  0  0  0  0  0  0  0  0
    2.2072   -2.2136   -4.1419 H   0  0  0  0  0  0  0  0  0  0  0  0
    2.1664   -2.7732   -2.3723 H   0  0  0  0  0  0  0  0  0  0  0  0
    5.4653    0.1795    0.6337 H   0  0  0  0  0  0  0  0  0  0  0  0
    4.5316   -1.1402   -0.0659 H   0  0  0  0  0  0  0  0  0  0  0  0
    5.0125   -1.2842    2.3405 H   0  0  0  0  0  0  0  0  0  0  0  0
    4.4594    0.2846    3.9527 H   0  0  0  0  0  0  0  0  0  0  0  0
    4.8199    1.2670    2.5067 H   0  0  0  0  0  0  0  0  0  0  0  0
    3.0655    0.9165    2.9789 H   0  0  0  0  0  0  0  0  0  0  0  0
    3.2026   -2.4590    2.8654 H   0  0  0  0  0  0  0  0  0  0  0  0
    2.1556   -1.0460    2.8079 H   0  0  0  0  0  0  0  0  0  0  0  0
    2.5659   -1.9292    1.2324 H   0  0  0  0  0  0  0  0  0  0  0  0
    0.8908    1.0136    1.4288 H   0  0  0  0  0  0  0  0  0  0  0  0
    2.8365   -0.4803   -5.5578 H   0  0  0  0  0  0  0  0  0  0  0  0
    2.0757    1.0135   -4.9443 H   0  0  0  0  0  0  0  0  0  0  0  0
    3.7869    1.1149   -5.5628 H   0  0  0  0  0  0  0  0  0  0  0  0
   -0.5920    2.9049    1.8822 H   0  0  0  0  0  0  0  0  0  0  0  0
   -2.7253    6.3408   -1.7618 H   0  0  0  0  0  0  0  0  0  0  0  0
   -3.8825    4.2707   -1.4848 H   0  0  0  0  0  0  0  0  0  0  0  0
   -5.9233    2.9324   -1.0393 H   0  0  0  0  0  0  0  0  0  0  0  0
   -6.0844    1.1853   -1.3372 H   0  0  0  0  0  0  0  0  0  0  0  0
   -5.4179    3.1077   -3.2388 H   0  0  0  0  0  0  0  0  0  0  0  0
   -3.8029    2.2937   -2.8724 H   0  0  0  0  0  0  0  0  0  0  0  0
   -5.1985    1.3459   -3.4388 H   0  0  0  0  0  0  0  0  0  0  0  0
  1  2  1  0
  2  3  1  0
  3  4  1  0
  4  5  2  0
  4  6  1  0
  6  7  2  0
  7  8  1  0
  8  9  1  0
  9 10  2  0
 10 11  1  0
 11 12  2  0
 12 13  1  0
 13 14  1  0
 14 15  1  0
 15 16  1  0
 16 17  1  0
 17 18  1  0
 18 19  1  0
 19 20  1  0
 20 21  1  0
 21 22  1  0
 21 23  1  0
 18 24  2  0
 16 25  1  0
 25 26  1  0
 25 27  2  0
 25 28  2  0
  9 29  1  0
 29 30  2  0
 30 31  1  0
 31 32  1  0
 31 33  2  0
 33 34  1  0
 33 35  1  0
 35 36  2  0
 36 37  1  0
 37 38  1  0
 38 39  1  0
 10  6  1  0
 24 11  1  0
 36 29  1  0
 17 13  2  0
  1 40  1  0
  1 41  1  0
  1 42  1  0
  2 43  1  0
  2 44  1  0
  3 45  1  0
 12 46  1  0
 14 47  1  0
 14 48  1  0
 15 49  1  0
 15 50  1  0
 20 51  1  0
 20 52  1  0
 21 53  1  0
 22 54  1  0
 22 55  1  0
 22 56  1  0
 23 57  1  0
 23 58  1  0
 23 59  1  0
 24 60  1  0
 26 61  1  0
 26 62  1  0
 26 63  1  0
 30 64  1  0
 34 65  1  0
 35 66  1  0
 38 67  1  0
 38 68  1  0
 39 69  1  0
 39 70  1  0
 39 71  1  0
M  END
$$$$
[H]Oc1c([H])c([H])c2c(c1[H])[C@@]13C([H])([H])c4nc5c([H])c([H])c([H])c([H])c5c([H])c4C([H])([H])[C@@]1(O[H])[C@]([H])(N(C([H])([H])[H])C([H])([H])C3([H])[H])C2([H])[H]
     RDKit          3D

 52 57  0  0  0  0  0  0  0  0999 V2000
   -3.6694   -2.2069   -1.4732 C   0  0  0  0  0  0  0  0  0  0  0  0
   -2.4082   -1.5952   -1.3506 N   0  0  0  0  0  0  0  0  0  0  0  0
   -1.9170   -0.8253   -2.3906 C   0  0  0  0  0  0  0  0  0  0  0  0
   -1.0670    0.3544   -2.0598 C   0  0  0  0  0  0  0  0  0  0  0  0
   -0.6643    0.3750   -0.5828 C   0  0  2  0  0  0  0  0  0  0  0  0
    0.4734    1.3043   -0.3437 C   0  0  0  0  0  0  0  0  0  0  0  0
    1.7514    0.6380    0.0147 C   0  0  0  0  0  0  0  0  0  0  0  0
    2.8798    1.2549   -0.3102 N   0  0  0  0  0  0  0  0  0  0  0  0
    4.0762    0.7258   -0.0214 C   0  0  0  0  0  0  0  0  0  0  0  0
    5.2444    1.4143   -0.3844 C   0  0  0  0  0  0  0  0  0  0  0  0
    6.4594    0.8835   -0.0946 C   0  0  0  0  0  0  0  0  0  0  0  0
    6.5267   -0.3352    0.5580 C   0  0  0  0  0  0  0  0  0  0  0  0
    5.3973   -1.0295    0.9242 C   0  0  0  0  0  0  0  0  0  0  0  0
    4.1496   -0.4932    0.6313 C   0  0  0  0  0  0  0  0  0  0  0  0
    2.9844   -1.1548    0.9798 C   0  0  0  0  0  0  0  0  0  0  0  0
    1.7904   -0.5669    0.6595 C   0  0  0  0  0  0  0  0  0  0  0  0
    0.4739   -1.2163    0.9973 C   0  0  0  0  0  0  0  0  0  0  0  0
   -0.3720   -1.0541   -0.2407 C   0  0  2  0  0  0  0  0  0  0  0  0
    0.3296   -1.6140   -1.3074 O   0  0  0  0  0  0  0  0  0  0  0  0
   -1.6998   -1.7576   -0.1569 C   0  0  1  0  0  0  0  0  0  0  0  0
   -2.5230   -1.2844    1.0073 C   0  0  0  0  0  0  0  0  0  0  0  0
   -2.7304    0.1803    0.8749 C   0  0  0  0  0  0  0  0  0  0  0  0
   -3.7939    0.8265    1.4849 C   0  0  0  0  0  0  0  0  0  0  0  0
   -4.0130    2.1846    1.3812 C   0  0  0  0  0  0  0  0  0  0  0  0
   -3.1170    2.9172    0.6282 C   0  0  0  0  0  0  0  0  0  0  0  0
   -3.3457    4.2827    0.5298 O   0  0  0  0  0  0  0  0  0  0  0  0
   -2.0611    2.2769    0.0223 C   0  0  0  0  0  0  0  0  0  0  0  0
   -1.8527    0.9043    0.1360 C   0  0  0  0  0  0  0  0  0  0  0  0
   -3.7433   -2.6736   -2.4933 H   0  0  0  0  0  0  0  0  0  0  0  0
   -3.7248   -3.0719   -0.7645 H   0  0  0  0  0  0  0  0  0  0  0  0
   -4.5470   -1.5413   -1.3629 H   0  0  0  0  0  0  0  0  0  0  0  0
   -2.7795   -0.4378   -3.0113 H   0  0  0  0  0  0  0  0  0  0  0  0
   -1.3431   -1.4702   -3.1132 H   0  0  0  0  0  0  0  0  0  0  0  0
   -0.1069    0.3506   -2.6230 H   0  0  0  0  0  0  0  0  0  0  0  0
   -1.5439    1.3348   -2.2753 H   0  0  0  0  0  0  0  0  0  0  0  0
    0.2518    1.9766    0.5388 H   0  0  0  0  0  0  0  0  0  0  0  0
    0.6395    2.0099   -1.1878 H   0  0  0  0  0  0  0  0  0  0  0  0
    5.0963    2.3599   -0.8911 H   0  0  0  0  0  0  0  0  0  0  0  0
    7.3648    1.4193   -0.3770 H   0  0  0  0  0  0  0  0  0  0  0  0
    7.4783   -0.7956    0.8089 H   0  0  0  0  0  0  0  0  0  0  0  0
    5.4286   -1.9865    1.4365 H   0  0  0  0  0  0  0  0  0  0  0  0
    3.0384   -2.1042    1.4882 H   0  0  0  0  0  0  0  0  0  0  0  0
    0.5899   -2.2975    1.1769 H   0  0  0  0  0  0  0  0  0  0  0  0
    0.0265   -0.7333    1.8670 H   0  0  0  0  0  0  0  0  0  0  0  0
    1.0629   -2.2116   -1.0012 H   0  0  0  0  0  0  0  0  0  0  0  0
   -1.4833   -2.8371    0.0162 H   0  0  0  0  0  0  0  0  0  0  0  0
   -3.4970   -1.7984    0.9851 H   0  0  0  0  0  0  0  0  0  0  0  0
   -2.0485   -1.5246    1.9870 H   0  0  0  0  0  0  0  0  0  0  0  0
   -4.4978    0.2287    2.0808 H   0  0  0  0  0  0  0  0  0  0  0  0
   -4.8644    2.6508    1.8793 H   0  0  0  0  0  0  0  0  0  0  0  0
   -2.7194    4.8625   -0.0093 H   0  0  0  0  0  0  0  0  0  0  0  0
   -1.3800    2.9015   -0.5629 H   0  0  0  0  0  0  0  0  0  0  0  0
  1  2  1  0
  2  3  1  0
  3  4  1  0
  5  4  1  6
  5  6  1  0
  6  7  1  0
  7  8  2  0
  8  9  1  0
  9 10  2  0
 10 11  1  0
 11 12  2  0
 12 13  1  0
 13 14  2  0
 14 15  1  0
 15 16  2  0
 16 17  1  0
 17 18  1  0
 18 19  1  6
 18 20  1  0
 20 21  1  0
 21 22  1  0
 22 23  2  0
 23 24  1  0
 24 25  2  0
 25 26  1  0
 25 27  1  0
 27 28  2  0
 20  2  1  0
 28 22  1  0
 18  5  1  0
 28  5  1  0
 16  7  1  0
 14  9  1  0
  1 29  1  0
  1 30  1  0
  1 31  1  0
  3 32  1  0
  3 33  1  0
  4 34  1  0
  4 35  1  0
  6 36  1  0
  6 37  1  0
 10 38  1  0
 11 39  1  0
 12 40  1  0
 13 41  1  0
 15 42  1  0
 17 43  1  0
 17 44  1  0
 19 45  1  0
 20 46  1  1
 21 47  1  0
 21 48  1  0
 23 49  1  0
 24 50  1  0
 26 51  1  0
 27 52  1  0
M  END
$$$$
[H]c1nc(N([H])c2c([H])c([H])c(N3C([H])([H])C([H])([H])C([H])(N4C([H])([H])C([H])([H])N(C([H])([H])[H])C([H])([H])C4([H])[H])C([H])([H])C3([H])[H])c([H])c2OC([H])([H])[H])nc(N([H])c2c([H])c([H])c([H])c([H])c2S(=O)(=O)C([H])(C([H])([H])[H])C([H])([H])[H])c1F
     RDKit          3D

 82 86  0  0  0  0  0  0  0  0999 V2000
   -0.3063    2.3350   -2.9829 C   0  0  0  0  0  0  0  0  0  0  0  0
   -0.6870    1.5345   -1.9061 O   0  0  0  0  0  0  0  0  0  0  0  0
    0.1469    0.9955   -0.9491 C   0  0  0  0  0  0  0  0  0  0  0  0
    1.4910    1.1996   -0.9588 C   0  0  0  0  0  0  0  0  0  0  0  0
    2.3459    0.6675   -0.0071 C   0  0  0  0  0  0  0  0  0  0  0  0
    1.7761   -0.0920    0.9706 C   0  0  0  0  0  0  0  0  0  0  0  0
    0.3782   -0.3077    0.9858 C   0  0  0  0  0  0  0  0  0  0  0  0
   -0.4579    0.2118    0.0559 C   0  0  0  0  0  0  0  0  0  0  0  0
   -1.8514    0.0543    0.0634 N   0  0  0  0  0  0  0  0  0  0  0  0
   -2.5826   -0.8387    0.8452 C   0  0  0  0  0  0  0  0  0  0  0  0
   -2.0569   -1.6983    1.6961 N   0  0  0  0  0  0  0  0  0  0  0  0
   -2.8278   -2.5355    2.4065 C   0  0  0  0  0  0  0  0  0  0  0  0
   -4.1978   -2.5269    2.2729 C   0  0  0  0  0  0  0  0  0  0  0  0
   -4.9871   -3.3510    2.9679 F   0  0  0  0  0  0  0  0  0  0  0  0
   -4.7463   -1.6079    1.3658 C   0  0  0  0  0  0  0  0  0  0  0  0
   -6.1629   -1.5948    1.2068 N   0  0  0  0  0  0  0  0  0  0  0  0
   -6.9446   -0.7747    0.4063 C   0  0  0  0  0  0  0  0  0  0  0  0
   -6.4621    0.2732   -0.3309 C   0  0  0  0  0  0  0  0  0  0  0  0
   -7.2579    1.1020   -1.1134 C   0  0  0  0  0  0  0  0  0  0  0  0
   -8.5984    0.8824   -1.1699 C   0  0  0  0  0  0  0  0  0  0  0  0
   -9.1033   -0.1815   -0.4245 C   0  0  0  0  0  0  0  0  0  0  0  0
   -8.3405   -1.0059    0.3495 C   0  0  0  0  0  0  0  0  0  0  0  0
   -9.0572   -2.3155    1.2456 S   0  0  0  0  0  0  0  0  0  0  0  0
   -8.8846   -2.0892    2.7257 O   0  0  0  0  0  0  0  0  0  0  0  0
   -8.4523   -3.6372    0.8129 O   0  0  0  0  0  0  0  0  0  0  0  0
  -10.8251   -2.4362    1.0001 C   0  0  0  0  0  0  0  0  0  0  0  0
  -11.1927   -2.7251   -0.4183 C   0  0  0  0  0  0  0  0  0  0  0  0
  -11.4588   -1.2229    1.5998 C   0  0  0  0  0  0  0  0  0  0  0  0
   -3.9156   -0.8383    0.7234 N   0  0  0  0  0  0  0  0  0  0  0  0
    3.7709    0.8887   -0.0520 N   0  0  0  0  0  0  0  0  0  0  0  0
    4.5917    0.8141    1.1162 C   0  0  0  0  0  0  0  0  0  0  0  0
    5.8643    0.0417    0.9475 C   0  0  0  0  0  0  0  0  0  0  0  0
    6.5560    0.3396   -0.3600 C   0  0  0  0  0  0  0  0  0  0  0  0
    5.8471    1.4345   -1.1212 C   0  0  0  0  0  0  0  0  0  0  0  0
    4.3926    1.1814   -1.3161 C   0  0  0  0  0  0  0  0  0  0  0  0
    7.8837    0.7291   -0.0913 N   0  0  0  0  0  0  0  0  0  0  0  0
    8.7188   -0.2025    0.5495 C   0  0  0  0  0  0  0  0  0  0  0  0
   10.1143   -0.3042    0.0515 C   0  0  0  0  0  0  0  0  0  0  0  0
   10.6290    0.8802   -0.5554 N   0  0  0  0  0  0  0  0  0  0  0  0
   11.2947    1.7344    0.3787 C   0  0  0  0  0  0  0  0  0  0  0  0
    9.7021    1.5486   -1.4094 C   0  0  0  0  0  0  0  0  0  0  0  0
    8.4255    1.8875   -0.6197 C   0  0  0  0  0  0  0  0  0  0  0  0
    0.2465    3.2338   -2.6171 H   0  0  0  0  0  0  0  0  0  0  0  0
    0.2089    1.8220   -3.8032 H   0  0  0  0  0  0  0  0  0  0  0  0
   -1.2657    2.7411   -3.4217 H   0  0  0  0  0  0  0  0  0  0  0  0
    1.9575    1.8073   -1.7403 H   0  0  0  0  0  0  0  0  0  0  0  0
    2.3846   -0.5415    1.7503 H   0  0  0  0  0  0  0  0  0  0  0  0
    0.0469   -0.9165    1.8210 H   0  0  0  0  0  0  0  0  0  0  0  0
   -2.4035    0.7132   -0.6204 H   0  0  0  0  0  0  0  0  0  0  0  0
   -2.3413   -3.2212    3.0928 H   0  0  0  0  0  0  0  0  0  0  0  0
   -6.6935   -2.3160    1.7869 H   0  0  0  0  0  0  0  0  0  0  0  0
   -5.4061    0.5582   -0.3642 H   0  0  0  0  0  0  0  0  0  0  0  0
   -6.8492    1.9215   -1.6878 H   0  0  0  0  0  0  0  0  0  0  0  0
   -9.2521    1.5099   -1.7761 H   0  0  0  0  0  0  0  0  0  0  0  0
  -10.1903   -0.2916   -0.5185 H   0  0  0  0  0  0  0  0  0  0  0  0
  -11.1233   -3.3223    1.6450 H   0  0  0  0  0  0  0  0  0  0  0  0
  -12.0381   -2.1128   -0.7492 H   0  0  0  0  0  0  0  0  0  0  0  0
  -10.2922   -2.6171   -1.0663 H   0  0  0  0  0  0  0  0  0  0  0  0
  -11.4791   -3.8002   -0.5026 H   0  0  0  0  0  0  0  0  0  0  0  0
  -10.7157   -0.4855    1.9743 H   0  0  0  0  0  0  0  0  0  0  0  0
  -12.1451   -1.5203    2.4145 H   0  0  0  0  0  0  0  0  0  0  0  0
  -12.1033   -0.7479    0.8067 H   0  0  0  0  0  0  0  0  0  0  0  0
    4.0795    0.4867    2.0356 H   0  0  0  0  0  0  0  0  0  0  0  0
    4.9074    1.8805    1.3387 H   0  0  0  0  0  0  0  0  0  0  0  0
    5.6276   -1.0363    0.9737 H   0  0  0  0  0  0  0  0  0  0  0  0
    6.5299    0.2608    1.7987 H   0  0  0  0  0  0  0  0  0  0  0  0
    6.5477   -0.5641   -0.9901 H   0  0  0  0  0  0  0  0  0  0  0  0
    5.9603    2.4412   -0.6731 H   0  0  0  0  0  0  0  0  0  0  0  0
    6.3078    1.4737   -2.1310 H   0  0  0  0  0  0  0  0  0  0  0  0
    4.1668    0.4133   -2.0890 H   0  0  0  0  0  0  0  0  0  0  0  0
    3.9556    2.1402   -1.7222 H   0  0  0  0  0  0  0  0  0  0  0  0
    8.7806    0.0682    1.6428 H   0  0  0  0  0  0  0  0  0  0  0  0
    8.1963   -1.1966    0.5487 H   0  0  0  0  0  0  0  0  0  0  0  0
   10.1597   -1.1121   -0.7268 H   0  0  0  0  0  0  0  0  0  0  0  0
   10.8288   -0.6578    0.8487 H   0  0  0  0  0  0  0  0  0  0  0  0
   11.0206    1.5460    1.4354 H   0  0  0  0  0  0  0  0  0  0  0  0
   11.1782    2.8018    0.1077 H   0  0  0  0  0  0  0  0  0  0  0  0
   12.3969    1.5204    0.3048 H   0  0  0  0  0  0  0  0  0  0  0  0
    9.4852    1.0059   -2.3395 H   0  0  0  0  0  0  0  0  0  0  0  0
   10.1432    2.5374   -1.6889 H   0  0  0  0  0  0  0  0  0  0  0  0
    8.7879    2.6250    0.1623 H   0  0  0  0  0  0  0  0  0  0  0  0
    7.8229    2.5017   -1.3077 H   0  0  0  0  0  0  0  0  0  0  0  0
  1  2  1  0
  2  3  1  0
  3  4  2  0
  4  5  1  0
  5  6  2  0
  6  7  1  0
  7  8  2  0
  8  9  1  0
  9 10  1  0
 10 11  2  0
 11 12  1  0
 12 13  2  0
 13 14  1  0
 13 15  1  0
 15 16  1  0
 16 17  1  0
 17 18  2  0
 18 19  1  0
 19 20  2  0
 20 21  1  0
 21 22  2  0
 22 23  1  0
 23 24  2  0
 23 25  2  0
 23 26  1  0
 26 27  1  0
 26 28  1  0
 15 29  2  0
  5 30  1  0
 30 31  1  0
 31 32  1  0
 32 33  1  0
 33 34  1  0
 34 35  1  0
 33 36  1  0
 36 37  1  0
 37 38  1  0
 38 39  1  0
 39 40  1  0
 39 41  1  0
 41 42  1  0
  8  3  1  0
 29 10  1  0
 35 30  1  0
 42 36  1  0
 22 17  1  0
  1 43  1  0
  1 44  1  0
  1 45  1  0
  4 46  1  0
  6 47  1  0
  7 48  1  0
  9 49  1  0
 12 50  1  0
 16 51  1  0
 18 52  1  0
 19 53  1  0
 20 54  1  0
 21 55  1  0
 26 56  1  0
 27 57  1  0
 27 58  1  0
 27 59  1  0
 28 60  1  0
 28 61  1  0
 28 62  1  0
 31 63  1  0
 31 64  1  0
 32 65  1  0
 32 66  1  0
 33 67  1  0
 34 68  1  0
 34 69  1  0
 35 70  1  0
 35 71  1  0
 37 72  1  0
 37 73  1  0
 38 74  1  0
 38 75  1  0
 40 76  1  0
 40 77  1  0
 40 78  1  0
 41 79  1  0
 41 80  1  0
 42 81  1  0
 42 82  1  0
M  END
$$$$
[H]c1nc([H])n([H])c1-c1nc(N2C([H])([H])C([H])([H])OC([H])([H])C2([H])[H])c2c([H])c([H])c([H])c(-c3c([H])c([H])c(F)c([H])c3[H])c2n1
     RDKit          3D

 46 50  0  0  0  0  0  0  0  0999 V2000
   -7.2070    0.0234    0.5050 F   0  0  0  0  0  0  0  0  0  0  0  0
   -5.8829   -0.3242    0.5028 C   0  0  0  0  0  0  0  0  0  0  0  0
   -5.0696   -0.0392   -0.5709 C   0  0  0  0  0  0  0  0  0  0  0  0
   -3.7139   -0.3904   -0.5831 C   0  0  0  0  0  0  0  0  0  0  0  0
   -3.1620   -1.0363    0.4944 C   0  0  0  0  0  0  0  0  0  0  0  0
   -3.9907   -1.3168    1.5669 C   0  0  0  0  0  0  0  0  0  0  0  0
   -5.3201   -0.9724    1.5786 C   0  0  0  0  0  0  0  0  0  0  0  0
   -1.7554   -1.4114    0.5214 C   0  0  0  0  0  0  0  0  0  0  0  0
   -1.4299   -2.7196    0.8949 C   0  0  0  0  0  0  0  0  0  0  0  0
   -0.1096   -3.0953    0.9194 C   0  0  0  0  0  0  0  0  0  0  0  0
    0.8697   -2.1667    0.5727 C   0  0  0  0  0  0  0  0  0  0  0  0
    0.5514   -0.8873    0.2084 C   0  0  0  0  0  0  0  0  0  0  0  0
    1.5789   -0.0134   -0.1288 C   0  0  0  0  0  0  0  0  0  0  0  0
    2.9521   -0.3360   -0.0897 N   0  0  0  0  0  0  0  0  0  0  0  0
    3.6093   -0.5026    1.1780 C   0  0  0  0  0  0  0  0  0  0  0  0
    4.8310   -1.3689    0.9455 C   0  0  0  0  0  0  0  0  0  0  0  0
    5.7098   -0.8024    0.0549 O   0  0  0  0  0  0  0  0  0  0  0  0
    5.1485   -0.1056   -0.9837 C   0  0  0  0  0  0  0  0  0  0  0  0
    3.7201   -0.5045   -1.2942 C   0  0  0  0  0  0  0  0  0  0  0  0
    1.1720    1.2454   -0.4879 N   0  0  0  0  0  0  0  0  0  0  0  0
   -0.1159    1.6182   -0.5148 C   0  0  0  0  0  0  0  0  0  0  0  0
   -1.0895    0.7529   -0.1827 N   0  0  0  0  0  0  0  0  0  0  0  0
   -0.7798   -0.5046    0.1819 C   0  0  0  0  0  0  0  0  0  0  0  0
   -0.4775    2.9952   -0.9131 C   0  0  0  0  0  0  0  0  0  0  0  0
    0.4163    3.9844   -1.2778 C   0  0  0  0  0  0  0  0  0  0  0  0
   -0.3187    5.0725   -1.5620 N   0  0  0  0  0  0  0  0  0  0  0  0
   -1.6156    4.7675   -1.3800 C   0  0  0  0  0  0  0  0  0  0  0  0
   -1.7139    3.4914   -0.9814 N   0  0  0  0  0  0  0  0  0  0  0  0
   -5.5169    0.4687   -1.4103 H   0  0  0  0  0  0  0  0  0  0  0  0
   -3.1150   -0.1493   -1.4538 H   0  0  0  0  0  0  0  0  0  0  0  0
   -3.5166   -1.8322    2.4072 H   0  0  0  0  0  0  0  0  0  0  0  0
   -5.9399   -1.2060    2.4319 H   0  0  0  0  0  0  0  0  0  0  0  0
   -2.2198   -3.4239    1.1612 H   0  0  0  0  0  0  0  0  0  0  0  0
    0.2092   -4.0968    1.2004 H   0  0  0  0  0  0  0  0  0  0  0  0
    1.9193   -2.4421    0.5723 H   0  0  0  0  0  0  0  0  0  0  0  0
    4.0177    0.5075    1.5060 H   0  0  0  0  0  0  0  0  0  0  0  0
    2.9980   -0.8967    1.9873 H   0  0  0  0  0  0  0  0  0  0  0  0
    4.4749   -2.3703    0.6223 H   0  0  0  0  0  0  0  0  0  0  0  0
    5.3284   -1.5103    1.9205 H   0  0  0  0  0  0  0  0  0  0  0  0
    5.2506    0.9941   -0.8756 H   0  0  0  0  0  0  0  0  0  0  0  0
    5.7397   -0.3603   -1.9081 H   0  0  0  0  0  0  0  0  0  0  0  0
    3.3669    0.1825   -2.0988 H   0  0  0  0  0  0  0  0  0  0  0  0
    3.7581   -1.5561   -1.6434 H   0  0  0  0  0  0  0  0  0  0  0  0
    1.4998    3.8650   -1.3148 H   0  0  0  0  0  0  0  0  0  0  0  0
   -2.4711    5.4352   -1.5269 H   0  0  0  0  0  0  0  0  0  0  0  0
   -2.5905    2.9378   -0.7518 H   0  0  0  0  0  0  0  0  0  0  0  0
  1  2  1  0
  2  3  2  0
  3  4  1  0
  4  5  2  0
  5  6  1  0
  6  7  2  0
  5  8  1  0
  8  9  2  0
  9 10  1  0
 10 11  2  0
 11 12  1  0
 12 13  2  0
 13 14  1  0
 14 15  1  0
 15 16  1  0
 16 17  1  0
 17 18  1  0
 18 19  1  0
 13 20  1  0
 20 21  2  0
 21 22  1  0
 22 23  2  0
 21 24  1  0
 24 25  2  0
 25 26  1  0
 26 27  2  0
 27 28  1  0
  7  2  1  0
 23  8  1  0
 28 24  1  0
 23 12  1  0
 19 14  1  0
  3 29  1  0
  4 30  1  0
  6 31  1  0
  7 32  1  0
  9 33  1  0
 10 34  1  0
 11 35  1  0
 15 36  1  0
 15 37  1  0
 16 38  1  0
 16 39  1  0
 18 40  1  0
 18 41  1  0
 19 42  1  0
 19 43  1  0
 25 44  1  0
 27 45  1  0
 28 46  1  0
M  END
$$$$
[H]c1nc(N([H])[C@]2([H])C([H])([H])C([H])([H])[C@@]([H])(N([H])[H])C([H])([H])C2([H])[H])c2c([H])c(OC([H])([H])[H])c(OC([H])([H])[H])c([H])c2n1
     RDKit          3D

 44 46  0  0  0  0  0  0  0  0999 V2000
    6.3044   -0.5296   -0.8818 C   0  0  0  0  0  0  0  0  0  0  0  0
    5.3894    0.4138   -0.3695 O   0  0  0  0  0  0  0  0  0  0  0  0
    4.0632    0.0530   -0.1917 C   0  0  0  0  0  0  0  0  0  0  0  0
    3.6538   -1.2304   -0.5198 C   0  0  0  0  0  0  0  0  0  0  0  0
    2.3332   -1.6285   -0.3555 C   0  0  0  0  0  0  0  0  0  0  0  0
    1.9506   -2.8888   -0.6820 N   0  0  0  0  0  0  0  0  0  0  0  0
    0.6736   -3.2588   -0.5182 C   0  0  0  0  0  0  0  0  0  0  0  0
   -0.1785   -2.3497   -0.0312 N   0  0  0  0  0  0  0  0  0  0  0  0
    0.1428   -1.0889    0.3091 C   0  0  0  0  0  0  0  0  0  0  0  0
   -0.8559   -0.2137    0.8178 N   0  0  0  0  0  0  0  0  0  0  0  0
   -2.2244   -0.7257    0.9556 C   0  0  1  0  0  0  0  0  0  0  0  0
   -3.1401    0.3207    1.5016 C   0  0  0  0  0  0  0  0  0  0  0  0
   -3.4061    1.3524    0.4308 C   0  0  0  0  0  0  0  0  0  0  0  0
   -4.0902    0.6725   -0.7257 C   0  0  2  0  0  0  0  0  0  0  0  0
   -5.4235    1.1980   -0.9519 N   0  0  0  0  0  0  0  0  0  0  0  0
   -4.1404   -0.8331   -0.5523 C   0  0  0  0  0  0  0  0  0  0  0  0
   -2.7144   -1.3069   -0.3530 C   0  0  0  0  0  0  0  0  0  0  0  0
    1.4530   -0.6911    0.1470 C   0  0  0  0  0  0  0  0  0  0  0  0
    1.8634    0.5932    0.4752 C   0  0  0  0  0  0  0  0  0  0  0  0
    3.1758    0.9788    0.3086 C   0  0  0  0  0  0  0  0  0  0  0  0
    3.6572    2.2369    0.6124 O   0  0  0  0  0  0  0  0  0  0  0  0
    2.8981    3.2886    1.1252 C   0  0  0  0  0  0  0  0  0  0  0  0
    6.3238   -1.4635   -0.2793 H   0  0  0  0  0  0  0  0  0  0  0  0
    7.3229   -0.1060   -0.8572 H   0  0  0  0  0  0  0  0  0  0  0  0
    6.0547   -0.8381   -1.9237 H   0  0  0  0  0  0  0  0  0  0  0  0
    4.3342   -1.9720   -0.9139 H   0  0  0  0  0  0  0  0  0  0  0  0
    0.3516   -4.2751   -0.7785 H   0  0  0  0  0  0  0  0  0  0  0  0
   -0.7008    0.7506    1.0982 H   0  0  0  0  0  0  0  0  0  0  0  0
   -2.2099   -1.5743    1.6894 H   0  0  0  0  0  0  0  0  0  0  0  0
   -4.0403   -0.1017    1.9481 H   0  0  0  0  0  0  0  0  0  0  0  0
   -2.5889    0.8404    2.3297 H   0  0  0  0  0  0  0  0  0  0  0  0
   -4.0482    2.1625    0.8238 H   0  0  0  0  0  0  0  0  0  0  0  0
   -2.4054    1.7622    0.1394 H   0  0  0  0  0  0  0  0  0  0  0  0
   -3.4758    0.8626   -1.6421 H   0  0  0  0  0  0  0  0  0  0  0  0
   -6.0330    0.8840   -0.1551 H   0  0  0  0  0  0  0  0  0  0  0  0
   -5.3263    2.2480   -0.9307 H   0  0  0  0  0  0  0  0  0  0  0  0
   -4.5395   -1.2467   -1.5100 H   0  0  0  0  0  0  0  0  0  0  0  0
   -4.7990   -1.1358    0.2721 H   0  0  0  0  0  0  0  0  0  0  0  0
   -2.1208   -0.9588   -1.1998 H   0  0  0  0  0  0  0  0  0  0  0  0
   -2.7528   -2.4200   -0.3319 H   0  0  0  0  0  0  0  0  0  0  0  0
    1.1646    1.3038    0.8632 H   0  0  0  0  0  0  0  0  0  0  0  0
    1.8189    3.2489    0.8189 H   0  0  0  0  0  0  0  0  0  0  0  0
    3.2859    4.2337    0.6466 H   0  0  0  0  0  0  0  0  0  0  0  0
    2.9988    3.4325    2.2091 H   0  0  0  0  0  0  0  0  0  0  0  0
  1  2  1  0
  2  3  1  0
  3  4  2  0
  4  5  1  0
  5  6  2  0
  6  7  1  0
  7  8  2  0
  8  9  1  0
  9 10  1  0
 10 11  1  0
 11 12  1  0
 12 13  1  0
 13 14  1  0
 14 15  1  0
 14 16  1  0
 16 17  1  0
  9 18  2  0
 18 19  1  0
 19 20  2  0
 20 21  1  0
 21 22  1  0
 20  3  1  0
 18  5  1  0
 17 11  1  0
  1 23  1  0
  1 24  1  0
  1 25  1  0
  4 26  1  0
  7 27  1  0
 10 28  1  0
 11 29  1  1
 12 30  1  0
 12 31  1  0
 13 32  1  0
 13 33  1  0
 14 34  1  6
 15 35  1  0
 15 36  1  0
 16 37  1  0
 16 38  1  0
 17 39  1  0
 17 40  1  0
 19 41  1  0
 22 42  1  0
 22 43  1  0
 22 44  1  0
M  END
$$$$
[H]c1c2c(c3c([H])nn([H])c3c1[H])C([H])([H])[C@@]1(C([H])([H])C([H])([H])C([H])([H])[H])C2=C(C(=O)N([H])N([H])[H])C(=O)C([H])([H])C1([H])[H]
     RDKit          3D

 44 47  0  0  0  0  0  0  0  0999 V2000
   -3.9088   -0.2013   -1.5458 C   0  0  0  0  0  0  0  0  0  0  0  0
   -2.8693   -0.9400   -0.6990 C   0  0  0  0  0  0  0  0  0  0  0  0
   -1.4832   -0.5305   -1.0738 C   0  0  0  0  0  0  0  0  0  0  0  0
   -0.4393   -1.2477   -0.2655 C   0  0  2  0  0  0  0  0  0  0  0  0
   -0.6925   -0.8878    1.2130 C   0  0  0  0  0  0  0  0  0  0  0  0
   -0.4736    0.5948    1.1670 C   0  0  0  0  0  0  0  0  0  0  0  0
    0.4765    0.7976    0.1727 C   0  0  0  0  0  0  0  0  0  0  0  0
    0.8938    2.0713   -0.1751 C   0  0  0  0  0  0  0  0  0  0  0  0
    0.3764    3.1825    0.4656 C   0  0  0  0  0  0  0  0  0  0  0  0
   -0.5632    2.9592    1.4516 C   0  0  0  0  0  0  0  0  0  0  0  0
   -1.2513    3.8136    2.2547 N   0  0  0  0  0  0  0  0  0  0  0  0
   -2.0457    3.1205    3.0473 N   0  0  0  0  0  0  0  0  0  0  0  0
   -1.9187    1.8014    2.8059 C   0  0  0  0  0  0  0  0  0  0  0  0
   -0.9945    1.6946    1.8106 C   0  0  0  0  0  0  0  0  0  0  0  0
    0.8684   -0.5113   -0.3511 C   0  0  0  0  0  0  0  0  0  0  0  0
    1.9707   -0.9234   -0.8810 C   0  0  0  0  0  0  0  0  0  0  0  0
    1.9149   -2.3025   -1.5055 C   0  0  0  0  0  0  0  0  0  0  0  0
    2.6500   -2.5514   -2.4760 O   0  0  0  0  0  0  0  0  0  0  0  0
    0.9592   -3.2663   -0.8863 C   0  0  0  0  0  0  0  0  0  0  0  0
   -0.3526   -2.6706   -0.5626 C   0  0  0  0  0  0  0  0  0  0  0  0
    3.2985   -0.3515   -0.7525 C   0  0  0  0  0  0  0  0  0  0  0  0
    4.2277   -0.8248   -1.5309 O   0  0  0  0  0  0  0  0  0  0  0  0
    3.7372    0.6350    0.1092 N   0  0  0  0  0  0  0  0  0  0  0  0
    5.0961    1.0744    0.0698 N   0  0  0  0  0  0  0  0  0  0  0  0
   -3.4990    0.0843   -2.5308 H   0  0  0  0  0  0  0  0  0  0  0  0
   -4.7976   -0.8450   -1.5927 H   0  0  0  0  0  0  0  0  0  0  0  0
   -4.2177    0.7411   -1.0345 H   0  0  0  0  0  0  0  0  0  0  0  0
   -2.9790   -2.0231   -0.9697 H   0  0  0  0  0  0  0  0  0  0  0  0
   -3.1440   -0.8035    0.3437 H   0  0  0  0  0  0  0  0  0  0  0  0
   -1.4285    0.5813   -0.9265 H   0  0  0  0  0  0  0  0  0  0  0  0
   -1.3257   -0.6655   -2.1729 H   0  0  0  0  0  0  0  0  0  0  0  0
    0.1886   -1.3052    1.7448 H   0  0  0  0  0  0  0  0  0  0  0  0
   -1.6441   -1.2034    1.5909 H   0  0  0  0  0  0  0  0  0  0  0  0
    1.6096    2.2449   -0.9644 H   0  0  0  0  0  0  0  0  0  0  0  0
    0.6600    4.1957    0.2430 H   0  0  0  0  0  0  0  0  0  0  0  0
   -1.1655    4.8606    2.2471 H   0  0  0  0  0  0  0  0  0  0  0  0
   -2.4153    0.9628    3.2687 H   0  0  0  0  0  0  0  0  0  0  0  0
    0.7901   -4.1380   -1.5872 H   0  0  0  0  0  0  0  0  0  0  0  0
    1.3924   -3.6949    0.0693 H   0  0  0  0  0  0  0  0  0  0  0  0
   -0.7809   -3.2398    0.3195 H   0  0  0  0  0  0  0  0  0  0  0  0
   -1.0557   -2.9082   -1.4182 H   0  0  0  0  0  0  0  0  0  0  0  0
    3.1917    1.0705    0.8424 H   0  0  0  0  0  0  0  0  0  0  0  0
    5.6919    0.3522   -0.3797 H   0  0  0  0  0  0  0  0  0  0  0  0
    5.4518    1.1973    1.0448 H   0  0  0  0  0  0  0  0  0  0  0  0
  1  2  1  0
  2  3  1  0
  4  3  1  6
  4  5  1  0
  5  6  1  0
  6  7  2  0
  7  8  1  0
  8  9  2  0
  9 10  1  0
 10 11  1  0
 11 12  1  0
 12 13  2  0
 13 14  1  0
  7 15  1  0
 15 16  2  0
 16 17  1  0
 17 18  2  0
 17 19  1  0
 19 20  1  0
 16 21  1  0
 21 22  2  0
 21 23  1  0
 23 24  1  0
 15  4  1  0
 20  4  1  0
 14  6  1  0
 14 10  2  0
  1 25  1  0
  1 26  1  0
  1 27  1  0
  2 28  1  0
  2 29  1  0
  3 30  1  0
  3 31  1  0
  5 32  1  0
  5 33  1  0
  8 34  1  0
  9 35  1  0
 11 36  1  0
 13 37  1  0
 19 38  1  0
 19 39  1  0
 20 40  1  0
 20 41  1  0
 23 42  1  0
 24 43  1  0
 24 44  1  0
M  END
$$$$
[H]c1c([H])c(OC([H])(F)F)c([H])c(-c2c([H])c3c([H])c([H])c(C(=O)N4C([H])([H])C([H])([H])S(=O)(=O)C([H])([H])C4([H])[H])c([H])c3n2C([H])([H])C([H])(C([H])([H])[H])C([H])([H])[H])c1[H]
     RDKit          3D

 59 62  0  0  0  0  0  0  0  0999 V2000
   -1.9489   -2.6076   -2.8567 C   0  0  0  0  0  0  0  0  0  0  0  0
   -1.7126   -1.8833   -1.5511 C   0  0  0  0  0  0  0  0  0  0  0  0
   -2.9032   -2.0778   -0.6661 C   0  0  0  0  0  0  0  0  0  0  0  0
   -1.4055   -0.4134   -1.8644 C   0  0  0  0  0  0  0  0  0  0  0  0
   -1.1751    0.3656   -0.6734 N   0  0  0  0  0  0  0  0  0  0  0  0
   -1.9905    1.1295    0.0442 C   0  0  0  0  0  0  0  0  0  0  0  0
   -1.2510    1.5467    1.1681 C   0  0  0  0  0  0  0  0  0  0  0  0
    0.0086    1.0204    1.0981 C   0  0  0  0  0  0  0  0  0  0  0  0
    1.1286    1.0855    1.8908 C   0  0  0  0  0  0  0  0  0  0  0  0
    2.2918    0.4032    1.5139 C   0  0  0  0  0  0  0  0  0  0  0  0
    2.3842   -0.3439    0.3764 C   0  0  0  0  0  0  0  0  0  0  0  0
    1.2175   -0.3837   -0.4058 C   0  0  0  0  0  0  0  0  0  0  0  0
    0.0606    0.2860   -0.0460 C   0  0  0  0  0  0  0  0  0  0  0  0
    3.5276   -1.1023   -0.0774 C   0  0  0  0  0  0  0  0  0  0  0  0
    3.3939   -1.6610   -1.2625 O   0  0  0  0  0  0  0  0  0  0  0  0
    4.7581   -1.3582    0.5089 N   0  0  0  0  0  0  0  0  0  0  0  0
    5.7070   -2.1824   -0.2981 C   0  0  0  0  0  0  0  0  0  0  0  0
    6.9017   -1.3836   -0.6858 C   0  0  0  0  0  0  0  0  0  0  0  0
    6.9709    0.2085    0.0862 S   0  0  0  0  0  0  0  0  0  0  0  0
    8.4122    0.6489    0.2902 O   0  0  0  0  0  0  0  0  0  0  0  0
    6.3713    1.1959   -0.8741 O   0  0  0  0  0  0  0  0  0  0  0  0
    6.0944    0.2942    1.6031 C   0  0  0  0  0  0  0  0  0  0  0  0
    5.3071   -0.9887    1.7775 C   0  0  0  0  0  0  0  0  0  0  0  0
   -3.3989    1.4999   -0.1507 C   0  0  0  0  0  0  0  0  0  0  0  0
   -4.0890    1.4425   -1.3146 C   0  0  0  0  0  0  0  0  0  0  0  0
   -5.4386    1.7476   -1.3328 C   0  0  0  0  0  0  0  0  0  0  0  0
   -6.0850    2.1106   -0.1786 C   0  0  0  0  0  0  0  0  0  0  0  0
   -5.4442    2.1906    1.0361 C   0  0  0  0  0  0  0  0  0  0  0  0
   -6.0288    2.5472    2.2279 O   0  0  0  0  0  0  0  0  0  0  0  0
   -7.3653    2.8787    2.3570 C   0  0  0  0  0  0  0  0  0  0  0  0
   -7.5518    4.1728    2.8397 F   0  0  0  0  0  0  0  0  0  0  0  0
   -7.9985    1.9647    3.2045 F   0  0  0  0  0  0  0  0  0  0  0  0
   -4.0812    1.8691    0.9881 C   0  0  0  0  0  0  0  0  0  0  0  0
   -2.4447   -3.5822   -2.7057 H   0  0  0  0  0  0  0  0  0  0  0  0
   -2.6279   -1.9845   -3.4888 H   0  0  0  0  0  0  0  0  0  0  0  0
   -0.9836   -2.7068   -3.4254 H   0  0  0  0  0  0  0  0  0  0  0  0
   -0.8114   -2.2888   -1.0254 H   0  0  0  0  0  0  0  0  0  0  0  0
   -2.7971   -1.5796    0.3186 H   0  0  0  0  0  0  0  0  0  0  0  0
   -3.7929   -1.6916   -1.2248 H   0  0  0  0  0  0  0  0  0  0  0  0
   -3.0935   -3.1568   -0.5216 H   0  0  0  0  0  0  0  0  0  0  0  0
   -2.1008   -0.0995   -2.5924 H   0  0  0  0  0  0  0  0  0  0  0  0
   -0.4013   -0.4318   -2.4297 H   0  0  0  0  0  0  0  0  0  0  0  0
   -1.6110    2.1764    1.9489 H   0  0  0  0  0  0  0  0  0  0  0  0
    1.0794    1.6680    2.7925 H   0  0  0  0  0  0  0  0  0  0  0  0
    3.1111    0.5162    2.1703 H   0  0  0  0  0  0  0  0  0  0  0  0
    1.2223   -0.9573   -1.3211 H   0  0  0  0  0  0  0  0  0  0  0  0
    5.9453   -3.0438    0.3572 H   0  0  0  0  0  0  0  0  0  0  0  0
    5.1893   -2.5750   -1.1820 H   0  0  0  0  0  0  0  0  0  0  0  0
    6.9521   -1.3099   -1.8008 H   0  0  0  0  0  0  0  0  0  0  0  0
    7.8120   -1.9413   -0.3863 H   0  0  0  0  0  0  0  0  0  0  0  0
    5.4082    1.1501    1.6040 H   0  0  0  0  0  0  0  0  0  0  0  0
    6.7897    0.3355    2.4914 H   0  0  0  0  0  0  0  0  0  0  0  0
    6.0900   -1.7915    2.0530 H   0  0  0  0  0  0  0  0  0  0  0  0
    4.6520   -0.9264    2.6283 H   0  0  0  0  0  0  0  0  0  0  0  0
   -3.6059    1.1913   -2.2683 H   0  0  0  0  0  0  0  0  0  0  0  0
   -5.9612    1.6874   -2.2969 H   0  0  0  0  0  0  0  0  0  0  0  0
   -7.1598    2.3430   -0.2498 H   0  0  0  0  0  0  0  0  0  0  0  0
   -7.9354    2.8396    1.4190 H   0  0  0  0  0  0  0  0  0  0  0  0
   -3.5920    1.9370    1.9751 H   0  0  0  0  0  0  0  0  0  0  0  0
  1  2  1  0
  2  3  1  0
  2  4  1  0
  4  5  1  0
  5  6  1  0
  6  7  2  0
  7  8  1  0
  8  9  2  0
  9 10  1  0
 10 11  2  0
 11 12  1  0
 12 13  2  0
 11 14  1  0
 14 15  2  0
 14 16  1  0
 16 17  1  0
 17 18  1  0
 18 19  1  0
 19 20  2  0
 19 21  2  0
 19 22  1  0
 22 23  1  0
  6 24  1  0
 24 25  2  0
 25 26  1  0
 26 27  2  0
 27 28  1  0
 28 29  1  0
 29 30  1  0
 30 31  1  0
 30 32  1  0
 28 33  2  0
 13  5  1  0
 23 16  1  0
 33 24  1  0
 13  8  1  0
  1 34  1  0
  1 35  1  0
  1 36  1  0
  2 37  1  0
  3 38  1  0
  3 39  1  0
  3 40  1  0
  4 41  1  0
  4 42  1  0
  7 43  1  0
  9 44  1  0
 10 45  1  0
 12 46  1  0
 17 47  1  0
 17 48  1  0
 18 49  1  0
 18 50  1  0
 22 51  1  0
 22 52  1  0
 23 53  1  0
 23 54  1  0
 25 55  1  0
 26 56  1  0
 27 57  1  0
 30 58  1  0
 33 59  1  0
M  END
$$$$
[H]c1c(-c2nn(C3([H])C([H])([H])C([H])([H])OC([H])([H])C3([H])[H])c3c2C([H])([H])N(C(=O)C(F)(F)F)C([H])([H])C3([H])[H])c([H])c2c([H])nn([H])c2c1[H]
     RDKit          3D

 50 54  0  0  0  0  0  0  0  0999 V2000
    2.0392    6.1201    0.0792 F   0  0  0  0  0  0  0  0  0  0  0  0
    1.8678    4.7500    0.2637 C   0  0  0  0  0  0  0  0  0  0  0  0
    2.3607    4.3157    1.4622 F   0  0  0  0  0  0  0  0  0  0  0  0
    2.5338    4.1716   -0.8277 F   0  0  0  0  0  0  0  0  0  0  0  0
    0.4339    4.3784    0.1191 C   0  0  0  0  0  0  0  0  0  0  0  0
   -0.3704    5.2933   -0.1891 O   0  0  0  0  0  0  0  0  0  0  0  0
   -0.0398    3.0615    0.3124 N   0  0  0  0  0  0  0  0  0  0  0  0
   -1.4638    2.8172    0.1385 C   0  0  0  0  0  0  0  0  0  0  0  0
   -1.8580    1.7644    1.1561 C   0  0  0  0  0  0  0  0  0  0  0  0
   -1.1153    0.5315    0.8074 C   0  0  0  0  0  0  0  0  0  0  0  0
    0.2327    0.6553    0.5725 C   0  0  0  0  0  0  0  0  0  0  0  0
    0.8861    2.0086    0.6768 C   0  0  0  0  0  0  0  0  0  0  0  0
    0.7020   -0.5998    0.2719 C   0  0  0  0  0  0  0  0  0  0  0  0
   -0.3234   -1.4334    0.3260 N   0  0  0  0  0  0  0  0  0  0  0  0
   -1.4146   -0.7662    0.6454 N   0  0  0  0  0  0  0  0  0  0  0  0
   -2.7149   -1.3342    0.7965 C   0  0  0  0  0  0  0  0  0  0  0  0
   -2.7283   -2.7538    0.2694 C   0  0  0  0  0  0  0  0  0  0  0  0
   -4.1032   -3.3254    0.4466 C   0  0  0  0  0  0  0  0  0  0  0  0
   -5.0938   -2.5857   -0.1669 O   0  0  0  0  0  0  0  0  0  0  0  0
   -4.6027   -1.4761   -0.8443 C   0  0  0  0  0  0  0  0  0  0  0  0
   -3.7827   -0.5784    0.0420 C   0  0  0  0  0  0  0  0  0  0  0  0
    2.1102   -0.8592   -0.0389 C   0  0  0  0  0  0  0  0  0  0  0  0
    3.1591   -0.3399    0.6860 C   0  0  0  0  0  0  0  0  0  0  0  0
    4.4793   -0.6170    0.3490 C   0  0  0  0  0  0  0  0  0  0  0  0
    4.7444   -1.4404   -0.7492 C   0  0  0  0  0  0  0  0  0  0  0  0
    5.9012   -1.8742   -1.3009 N   0  0  0  0  0  0  0  0  0  0  0  0
    5.5650   -2.6311   -2.3258 N   0  0  0  0  0  0  0  0  0  0  0  0
    4.2433   -2.7239   -2.4854 C   0  0  0  0  0  0  0  0  0  0  0  0
    3.7105   -1.9529   -1.4646 C   0  0  0  0  0  0  0  0  0  0  0  0
    2.4012   -1.6642   -1.1117 C   0  0  0  0  0  0  0  0  0  0  0  0
   -2.0580    3.7267    0.2242 H   0  0  0  0  0  0  0  0  0  0  0  0
   -1.5754    2.3578   -0.8660 H   0  0  0  0  0  0  0  0  0  0  0  0
   -1.4465    2.1242    2.1390 H   0  0  0  0  0  0  0  0  0  0  0  0
   -2.9260    1.6374    1.2750 H   0  0  0  0  0  0  0  0  0  0  0  0
    1.0874    2.1413    1.7732 H   0  0  0  0  0  0  0  0  0  0  0  0
    1.8160    2.0003    0.1042 H   0  0  0  0  0  0  0  0  0  0  0  0
   -2.9829   -1.4252    1.8912 H   0  0  0  0  0  0  0  0  0  0  0  0
   -2.3513   -2.8327   -0.7577 H   0  0  0  0  0  0  0  0  0  0  0  0
   -2.0499   -3.3371    0.9546 H   0  0  0  0  0  0  0  0  0  0  0  0
   -4.3288   -3.3605    1.5348 H   0  0  0  0  0  0  0  0  0  0  0  0
   -4.0705   -4.3807    0.0689 H   0  0  0  0  0  0  0  0  0  0  0  0
   -5.4808   -0.8895   -1.1863 H   0  0  0  0  0  0  0  0  0  0  0  0
   -4.0485   -1.7718   -1.7703 H   0  0  0  0  0  0  0  0  0  0  0  0
   -4.4684   -0.1370    0.7929 H   0  0  0  0  0  0  0  0  0  0  0  0
   -3.3056    0.1783   -0.6079 H   0  0  0  0  0  0  0  0  0  0  0  0
    2.9392    0.2955    1.5331 H   0  0  0  0  0  0  0  0  0  0  0  0
    5.3113   -0.2326    0.8872 H   0  0  0  0  0  0  0  0  0  0  0  0
    6.8654   -1.6472   -0.9705 H   0  0  0  0  0  0  0  0  0  0  0  0
    3.6848   -3.2652   -3.2269 H   0  0  0  0  0  0  0  0  0  0  0  0
    1.6290   -2.0939   -1.7091 H   0  0  0  0  0  0  0  0  0  0  0  0
  1  2  1  0
  2  3  1  0
  2  4  1  0
  2  5  1  0
  5  6  2  0
  5  7  1  0
  7  8  1  0
  8  9  1  0
  9 10  1  0
 10 11  2  0
 11 12  1  0
 11 13  1  0
 13 14  2  0
 14 15  1  0
 15 16  1  0
 16 17  1  0
 17 18  1  0
 18 19  1  0
 19 20  1  0
 20 21  1  0
 13 22  1  0
 22 23  2  0
 23 24  1  0
 24 25  2  0
 25 26  1  0
 26 27  1  0
 27 28  2  0
 28 29  1  0
 29 30  2  0
 12  7  1  0
 21 16  1  0
 30 22  1  0
 15 10  1  0
 29 25  1  0
  8 31  1  0
  8 32  1  0
  9 33  1  0
  9 34  1  0
 12 35  1  0
 12 36  1  0
 16 37  1  0
 17 38  1  0
 17 39  1  0
 18 40  1  0
 18 41  1  0
 20 42  1  0
 20 43  1  0
 21 44  1  0
 21 45  1  0
 23 46  1  0
 24 47  1  0
 26 48  1  0
 28 49  1  0
 30 50  1  0
M  END
$$$$
[H]c1nc([H])c([H])c(C(=O)N([H])c2nc3c(C([H])([H])[H])c([H])c(N4C([H])([H])C([H])([H])N(C([H])([H])[H])C([H])([H])C4([H])[H])nc3n2-c2c([H])c(C([H])([H])[H])c([H])c(C([H])([H])[H])c2[H])c1[H]
     RDKit          3D

 63 67  0  0  0  0  0  0  0  0999 V2000
    7.2946   -0.5049   -0.9383 C   0  0  0  0  0  0  0  0  0  0  0  0
    6.3765   -1.0275    0.0607 N   0  0  0  0  0  0  0  0  0  0  0  0
    6.2697   -0.2126    1.2214 C   0  0  0  0  0  0  0  0  0  0  0  0
    5.0377    0.6524    1.2568 C   0  0  0  0  0  0  0  0  0  0  0  0
    3.8532   -0.0579    0.8704 N   0  0  0  0  0  0  0  0  0  0  0  0
    4.0457   -1.4618    0.5230 C   0  0  0  0  0  0  0  0  0  0  0  0
    5.1479   -1.4637   -0.5223 C   0  0  0  0  0  0  0  0  0  0  0  0
    2.6124    0.6050    0.8426 C   0  0  0  0  0  0  0  0  0  0  0  0
    2.5475    1.9475    1.1410 C   0  0  0  0  0  0  0  0  0  0  0  0
    1.3615    2.6558    1.1334 C   0  0  0  0  0  0  0  0  0  0  0  0
    1.2645    4.0950    1.4487 C   0  0  0  0  0  0  0  0  0  0  0  0
    0.2133    1.9630    0.8101 C   0  0  0  0  0  0  0  0  0  0  0  0
   -1.0871    2.2972    0.7006 N   0  0  0  0  0  0  0  0  0  0  0  0
   -1.8418    1.2447    0.3510 C   0  0  0  0  0  0  0  0  0  0  0  0
   -3.2720    1.2165    0.1400 N   0  0  0  0  0  0  0  0  0  0  0  0
   -4.0082    2.3957    0.2960 C   0  0  0  0  0  0  0  0  0  0  0  0
   -3.4343    3.4561    0.6104 O   0  0  0  0  0  0  0  0  0  0  0  0
   -5.4508    2.4217    0.0977 C   0  0  0  0  0  0  0  0  0  0  0  0
   -6.1115    3.6369   -0.0935 C   0  0  0  0  0  0  0  0  0  0  0  0
   -7.4645    3.6436   -0.2701 C   0  0  0  0  0  0  0  0  0  0  0  0
   -8.1462    2.4856   -0.2589 N   0  0  0  0  0  0  0  0  0  0  0  0
   -7.5452    1.3008   -0.0782 C   0  0  0  0  0  0  0  0  0  0  0  0
   -6.1832    1.2762    0.1013 C   0  0  0  0  0  0  0  0  0  0  0  0
   -0.9975    0.2052    0.2333 N   0  0  0  0  0  0  0  0  0  0  0  0
   -1.3656   -1.1200   -0.1254 C   0  0  0  0  0  0  0  0  0  0  0  0
   -1.8159   -1.4560   -1.3704 C   0  0  0  0  0  0  0  0  0  0  0  0
   -2.1656   -2.7732   -1.6766 C   0  0  0  0  0  0  0  0  0  0  0  0
   -2.6496   -3.1124   -3.0278 C   0  0  0  0  0  0  0  0  0  0  0  0
   -2.0672   -3.7820   -0.7278 C   0  0  0  0  0  0  0  0  0  0  0  0
   -1.6144   -3.4259    0.5137 C   0  0  0  0  0  0  0  0  0  0  0  0
   -1.4837   -4.4539    1.5818 C   0  0  0  0  0  0  0  0  0  0  0  0
   -1.2675   -2.1273    0.8227 C   0  0  0  0  0  0  0  0  0  0  0  0
    0.2636    0.6186    0.5089 C   0  0  0  0  0  0  0  0  0  0  0  0
    1.4487   -0.0049    0.5358 N   0  0  0  0  0  0  0  0  0  0  0  0
    7.0495   -0.9963   -1.8974 H   0  0  0  0  0  0  0  0  0  0  0  0
    8.3191   -0.7989   -0.6358 H   0  0  0  0  0  0  0  0  0  0  0  0
    7.2678    0.5993   -0.9878 H   0  0  0  0  0  0  0  0  0  0  0  0
    7.1521    0.4782    1.2404 H   0  0  0  0  0  0  0  0  0  0  0  0
    6.3547   -0.7979    2.1796 H   0  0  0  0  0  0  0  0  0  0  0  0
    5.1810    1.4979    0.5722 H   0  0  0  0  0  0  0  0  0  0  0  0
    4.9000    1.0390    2.2774 H   0  0  0  0  0  0  0  0  0  0  0  0
    4.3834   -2.0493    1.4075 H   0  0  0  0  0  0  0  0  0  0  0  0
    3.1093   -1.8614    0.1322 H   0  0  0  0  0  0  0  0  0  0  0  0
    4.8012   -0.8016   -1.3447 H   0  0  0  0  0  0  0  0  0  0  0  0
    5.2884   -2.4826   -0.9299 H   0  0  0  0  0  0  0  0  0  0  0  0
    3.4410    2.4920    1.3944 H   0  0  0  0  0  0  0  0  0  0  0  0
    2.1389    4.3447    2.1043 H   0  0  0  0  0  0  0  0  0  0  0  0
    1.3211    4.7273    0.5256 H   0  0  0  0  0  0  0  0  0  0  0  0
    0.3592    4.3643    2.0267 H   0  0  0  0  0  0  0  0  0  0  0  0
   -3.7349    0.3135   -0.1254 H   0  0  0  0  0  0  0  0  0  0  0  0
   -5.5195    4.5484   -0.0946 H   0  0  0  0  0  0  0  0  0  0  0  0
   -7.9941    4.6008   -0.4220 H   0  0  0  0  0  0  0  0  0  0  0  0
   -8.1035    0.3793   -0.0704 H   0  0  0  0  0  0  0  0  0  0  0  0
   -5.6754    0.3298    0.2532 H   0  0  0  0  0  0  0  0  0  0  0  0
   -1.8980   -0.6666   -2.1297 H   0  0  0  0  0  0  0  0  0  0  0  0
   -3.3116   -4.0071   -2.9866 H   0  0  0  0  0  0  0  0  0  0  0  0
   -1.7727   -3.3537   -3.6768 H   0  0  0  0  0  0  0  0  0  0  0  0
   -3.2516   -2.2616   -3.4503 H   0  0  0  0  0  0  0  0  0  0  0  0
   -2.3277   -4.7914   -0.9391 H   0  0  0  0  0  0  0  0  0  0  0  0
   -2.1532   -5.3159    1.3869 H   0  0  0  0  0  0  0  0  0  0  0  0
   -0.4382   -4.8243    1.6614 H   0  0  0  0  0  0  0  0  0  0  0  0
   -1.7366   -3.9404    2.5482 H   0  0  0  0  0  0  0  0  0  0  0  0
   -0.9149   -1.8987    1.8243 H   0  0  0  0  0  0  0  0  0  0  0  0
  1  2  1  0
  2  3  1  0
  3  4  1  0
  4  5  1  0
  5  6  1  0
  6  7  1  0
  5  8  1  0
  8  9  2  0
  9 10  1  0
 10 11  1  0
 10 12  2  0
 12 13  1  0
 13 14  2  0
 14 15  1  0
 15 16  1  0
 16 17  2  0
 16 18  1  0
 18 19  2  0
 19 20  1  0
 20 21  2  0
 21 22  1  0
 22 23  2  0
 14 24  1  0
 24 25  1  0
 25 26  2  0
 26 27  1  0
 27 28  1  0
 27 29  2  0
 29 30  1  0
 30 31  1  0
 30 32  2  0
 24 33  1  0
 33 34  2  0
  7  2  1  0
 34  8  1  0
 33 12  1  0
 23 18  1  0
 32 25  1  0
  1 35  1  0
  1 36  1  0
  1 37  1  0
  3 38  1  0
  3 39  1  0
  4 40  1  0
  4 41  1  0
  6 42  1  0
  6 43  1  0
  7 44  1  0
  7 45  1  0
  9 46  1  0
 11 47  1  0
 11 48  1  0
 11 49  1  0
 15 50  1  0
 19 51  1  0
 20 52  1  0
 22 53  1  0
 23 54  1  0
 26 55  1  0
 28 56  1  0
 28 57  1  0
 28 58  1  0
 29 59  1  0
 31 60  1  0
 31 61  1  0
 31 62  1  0
 32 63  1  0
M  END
$$$$
[H]c1nc2c(N([H])C3([H])C([H])([H])C3([H])[H])nc(N([H])c3c([H])c(C#N)c([H])c(C([H])([H])[H])c3OC([H])(F)F)nn2c1[N+]#[C-]
     RDKit          3D

 43 46  0  0  0  0  0  0  0  0999 V2000
    5.1887    1.6460   -0.2610 C   0  0  0  0  0  0  0  0  0  0  0  0
    4.1140    0.6125   -0.2262 C   0  0  0  0  0  0  0  0  0  0  0  0
    4.5329   -0.6948   -0.1479 C   0  0  0  0  0  0  0  0  0  0  0  0
    3.5918   -1.6873   -0.1192 C   0  0  0  0  0  0  0  0  0  0  0  0
    2.2368   -1.3333   -0.1711 C   0  0  0  0  0  0  0  0  0  0  0  0
    1.7840   -0.0412   -0.2495 C   0  0  0  0  0  0  0  0  0  0  0  0
    0.4599    0.3819   -0.3290 N   0  0  0  0  0  0  0  0  0  0  0  0
   -0.7411   -0.4009   -0.2552 C   0  0  0  0  0  0  0  0  0  0  0  0
   -1.9330    0.2191   -0.3606 N   0  0  0  0  0  0  0  0  0  0  0  0
   -3.0888   -0.4309   -0.2980 C   0  0  0  0  0  0  0  0  0  0  0  0
   -4.3549    0.2028   -0.3897 N   0  0  0  0  0  0  0  0  0  0  0  0
   -4.6303    1.5858   -0.5924 C   0  0  0  0  0  0  0  0  0  0  0  0
   -3.9557    2.6004    0.3299 C   0  0  0  0  0  0  0  0  0  0  0  0
   -3.6178    2.5376   -1.1180 C   0  0  0  0  0  0  0  0  0  0  0  0
   -3.0812   -1.8223   -0.1144 C   0  0  0  0  0  0  0  0  0  0  0  0
   -4.0553   -2.7440   -0.0124 N   0  0  0  0  0  0  0  0  0  0  0  0
   -3.4770   -3.9440    0.1572 C   0  0  0  0  0  0  0  0  0  0  0  0
   -2.1156   -3.7412    0.1577 C   0  0  0  0  0  0  0  0  0  0  0  0
   -1.1207   -4.6593    0.2985 N   0  0  0  0  0  0  0  0  0  0  0  0
   -0.2704   -5.4476    0.4035 C   0  0  0  0  0  0  0  0  0  0  0  0
   -1.8754   -2.4010   -0.0141 N   0  0  0  0  0  0  0  0  0  0  0  0
   -0.7645   -1.7079   -0.0834 N   0  0  0  0  0  0  0  0  0  0  0  0
    2.7780    0.9439   -0.2757 C   0  0  0  0  0  0  0  0  0  0  0  0
    2.4768    2.3111   -0.3518 O   0  0  0  0  0  0  0  0  0  0  0  0
    2.2948    3.1410    0.7624 C   0  0  0  0  0  0  0  0  0  0  0  0
    3.3471    4.0510    0.8991 F   0  0  0  0  0  0  0  0  0  0  0  0
    1.1436    3.8741    0.7475 F   0  0  0  0  0  0  0  0  0  0  0  0
    3.9747   -3.0821   -0.0368 C   0  0  0  0  0  0  0  0  0  0  0  0
    4.2892   -4.1973    0.0211 N   0  0  0  0  0  0  0  0  0  0  0  0
    4.9270    2.4744   -0.9651 H   0  0  0  0  0  0  0  0  0  0  0  0
    5.4087    1.9931    0.7680 H   0  0  0  0  0  0  0  0  0  0  0  0
    6.1030    1.1911   -0.7092 H   0  0  0  0  0  0  0  0  0  0  0  0
    5.5856   -0.9395   -0.1094 H   0  0  0  0  0  0  0  0  0  0  0  0
    1.5415   -2.1502   -0.1493 H   0  0  0  0  0  0  0  0  0  0  0  0
    0.3071    1.4364   -0.4758 H   0  0  0  0  0  0  0  0  0  0  0  0
   -5.2141   -0.4430   -0.2926 H   0  0  0  0  0  0  0  0  0  0  0  0
   -5.7321    1.8372   -0.7860 H   0  0  0  0  0  0  0  0  0  0  0  0
   -3.2044    2.1904    1.0364 H   0  0  0  0  0  0  0  0  0  0  0  0
   -4.5659    3.4551    0.6688 H   0  0  0  0  0  0  0  0  0  0  0  0
   -2.6378    2.2504   -1.5012 H   0  0  0  0  0  0  0  0  0  0  0  0
   -4.0710    3.3476   -1.7885 H   0  0  0  0  0  0  0  0  0  0  0  0
   -3.9445   -4.9122    0.2755 H   0  0  0  0  0  0  0  0  0  0  0  0
    2.3661    2.4968    1.6853 H   0  0  0  0  0  0  0  0  0  0  0  0
  1  2  1  0
  2  3  2  0
  3  4  1  0
  4  5  2  0
  5  6  1  0
  6  7  1  0
  7  8  1  0
  8  9  1  0
  9 10  2  0
 10 11  1  0
 11 12  1  0
 12 13  1  0
 13 14  1  0
 10 15  1  0
 15 16  2  0
 16 17  1  0
 17 18  2  0
 18 19  1  0
 19 20  3  0
 18 21  1  0
 21 22  1  0
  6 23  2  0
 23 24  1  0
 24 25  1  0
 25 26  1  0
 25 27  1  0
  4 28  1  0
 28 29  3  0
 23  2  1  0
 22  8  2  0
 14 12  1  0
 21 15  1  0
  1 30  1  0
  1 31  1  0
  1 32  1  0
  3 33  1  0
  5 34  1  0
  7 35  1  0
 11 36  1  0
 12 37  1  0
 13 38  1  0
 13 39  1  0
 14 40  1  0
 14 41  1  0
 17 42  1  0
 25 43  1  0
M  CHG  2  19   1  20  -1
M  END
$$$$
[H]c1nc(N([H])c2c([H])c([H])c(N3C([H])([H])C([H])([H])N([H])C([H])([H])C3([H])[H])c([H])c2[H])nc(-c2c([H])c([H])nc(N([H])C(=O)C([H])([H])[H])c2[H])c1[H]
     RDKit          3D

 52 55  0  0  0  0  0  0  0  0999 V2000
   10.4195   -0.6164    1.3728 C   0  0  0  0  0  0  0  0  0  0  0  0
    9.2860   -0.4693    0.4262 C   0  0  0  0  0  0  0  0  0  0  0  0
    9.5215   -0.3618   -0.8013 O   0  0  0  0  0  0  0  0  0  0  0  0
    7.9637   -0.4487    0.8848 N   0  0  0  0  0  0  0  0  0  0  0  0
    6.8349   -0.3094    0.0333 C   0  0  0  0  0  0  0  0  0  0  0  0
    5.5403   -0.2906    0.5154 C   0  0  0  0  0  0  0  0  0  0  0  0
    4.4487   -0.1571   -0.3036 C   0  0  0  0  0  0  0  0  0  0  0  0
    4.6792   -0.0392   -1.6535 C   0  0  0  0  0  0  0  0  0  0  0  0
    5.9851   -0.0615   -2.1060 C   0  0  0  0  0  0  0  0  0  0  0  0
    7.0444   -0.1937   -1.2834 N   0  0  0  0  0  0  0  0  0  0  0  0
    3.0555   -0.1306    0.1643 C   0  0  0  0  0  0  0  0  0  0  0  0
    2.7529   -0.2342    1.5065 C   0  0  0  0  0  0  0  0  0  0  0  0
    1.4380   -0.2131    1.9902 C   0  0  0  0  0  0  0  0  0  0  0  0
    0.4936   -0.0847    1.0476 N   0  0  0  0  0  0  0  0  0  0  0  0
    0.7461    0.0182   -0.2584 C   0  0  0  0  0  0  0  0  0  0  0  0
   -0.3023    0.1460   -1.1892 N   0  0  0  0  0  0  0  0  0  0  0  0
   -1.6781    0.1645   -0.9441 C   0  0  0  0  0  0  0  0  0  0  0  0
   -2.2395   -0.4113    0.1505 C   0  0  0  0  0  0  0  0  0  0  0  0
   -3.6261   -0.3406    0.3535 C   0  0  0  0  0  0  0  0  0  0  0  0
   -4.4845    0.2888   -0.5036 C   0  0  0  0  0  0  0  0  0  0  0  0
   -3.8869    0.8754   -1.6256 C   0  0  0  0  0  0  0  0  0  0  0  0
   -2.5444    0.8201   -1.8428 C   0  0  0  0  0  0  0  0  0  0  0  0
   -5.8810    0.3518   -0.3073 N   0  0  0  0  0  0  0  0  0  0  0  0
   -6.5077   -0.3589    0.7677 C   0  0  0  0  0  0  0  0  0  0  0  0
   -7.8514   -0.8894    0.2422 C   0  0  0  0  0  0  0  0  0  0  0  0
   -8.7181    0.1570   -0.1985 N   0  0  0  0  0  0  0  0  0  0  0  0
   -8.0352    1.3953   -0.5127 C   0  0  0  0  0  0  0  0  0  0  0  0
   -6.7064    1.1448   -1.1928 C   0  0  0  0  0  0  0  0  0  0  0  0
    2.0462   -0.0047   -0.7112 N   0  0  0  0  0  0  0  0  0  0  0  0
   11.1865    0.1260    1.0757 H   0  0  0  0  0  0  0  0  0  0  0  0
   10.0946   -0.4166    2.4241 H   0  0  0  0  0  0  0  0  0  0  0  0
   10.8035   -1.6458    1.2647 H   0  0  0  0  0  0  0  0  0  0  0  0
    7.7650   -0.5389    1.9150 H   0  0  0  0  0  0  0  0  0  0  0  0
    5.4197   -0.3861    1.5756 H   0  0  0  0  0  0  0  0  0  0  0  0
    3.8920    0.0711   -2.3914 H   0  0  0  0  0  0  0  0  0  0  0  0
    6.1965    0.0316   -3.1779 H   0  0  0  0  0  0  0  0  0  0  0  0
    3.5509   -0.3369    2.2274 H   0  0  0  0  0  0  0  0  0  0  0  0
    1.2065   -0.2925    3.0224 H   0  0  0  0  0  0  0  0  0  0  0  0
   -0.0437    0.2431   -2.2396 H   0  0  0  0  0  0  0  0  0  0  0  0
   -1.7056   -0.9512    0.8940 H   0  0  0  0  0  0  0  0  0  0  0  0
   -4.0162   -0.8230    1.2626 H   0  0  0  0  0  0  0  0  0  0  0  0
   -4.5792    1.3749   -2.3034 H   0  0  0  0  0  0  0  0  0  0  0  0
   -2.0961    1.2879   -2.7295 H   0  0  0  0  0  0  0  0  0  0  0  0
   -5.9346   -1.2793    1.0683 H   0  0  0  0  0  0  0  0  0  0  0  0
   -6.6542    0.2622    1.6771 H   0  0  0  0  0  0  0  0  0  0  0  0
   -7.6186   -1.5555   -0.6121 H   0  0  0  0  0  0  0  0  0  0  0  0
   -8.2922   -1.5453    1.0276 H   0  0  0  0  0  0  0  0  0  0  0  0
   -9.3663   -0.1329   -0.9646 H   0  0  0  0  0  0  0  0  0  0  0  0
   -8.6830    1.9200   -1.2627 H   0  0  0  0  0  0  0  0  0  0  0  0
   -7.8886    1.9636    0.4075 H   0  0  0  0  0  0  0  0  0  0  0  0
   -6.8178    0.7231   -2.2002 H   0  0  0  0  0  0  0  0  0  0  0  0
   -6.2130    2.1539   -1.2767 H   0  0  0  0  0  0  0  0  0  0  0  0
  1  2  1  0
  2  3  2  0
  2  4  1  0
  4  5  1  0
  5  6  2  0
  6  7  1  0
  7  8  2  0
  8  9  1  0
  9 10  2  0
  7 11  1  0
 11 12  2  0
 12 13  1  0
 13 14  2  0
 14 15  1  0
 15 16  1  0
 16 17  1  0
 17 18  2  0
 18 19  1  0
 19 20  2  0
 20 21  1  0
 21 22  2  0
 20 23  1  0
 23 24  1  0
 24 25  1  0
 25 26  1  0
 26 27  1  0
 27 28  1  0
 15 29  2  0
 10  5  1  0
 29 11  1  0
 22 17  1  0
 28 23  1  0
  1 30  1  0
  1 31  1  0
  1 32  1  0
  4 33  1  0
  6 34  1  0
  8 35  1  0
  9 36  1  0
 12 37  1  0
 13 38  1  0
 16 39  1  0
 18 40  1  0
 19 41  1  0
 21 42  1  0
 22 43  1  0
 24 44  1  0
 24 45  1  0
 25 46  1  0
 25 47  1  0
 26 48  1  0
 27 49  1  0
 27 50  1  0
 28 51  1  0
 28 52  1  0
M  END
$$$$
[H]ON(C([H])([H])[C@]([H])(c1nc(-c2c([H])nn([H])c2[H])n(-c2nc([H])c([H])c([H])c2[H])n1)C([H])([H])C1([H])C([H])([H])C([H])([H])C([H])([H])C([H])([H])C1([H])[H])[C@@]([H])(C([H])=O)C([H])([H])C([H])=C([H])[H]
     RDKit          3D

 64 67  0  0  0  0  0  0  0  0999 V2000
   -0.8820    1.5446    2.4441 O   0  0  0  0  0  0  0  0  0  0  0  0
   -0.8293    1.9059    1.1490 N   0  0  0  0  0  0  0  0  0  0  0  0
   -1.3027    0.9257    0.2440 C   0  0  0  0  0  0  0  0  0  0  0  0
   -0.7574   -0.4555    0.4967 C   0  0  1  0  0  0  0  0  0  0  0  0
   -1.3266   -1.4010   -0.5289 C   0  0  0  0  0  0  0  0  0  0  0  0
   -2.8126   -1.5216   -0.5291 C   0  0  0  0  0  0  0  0  0  0  0  0
   -3.2206   -2.5272   -1.6179 C   0  0  0  0  0  0  0  0  0  0  0  0
   -4.7186   -2.7400   -1.5563 C   0  0  0  0  0  0  0  0  0  0  0  0
   -5.1826   -3.2910   -0.2333 C   0  0  0  0  0  0  0  0  0  0  0  0
   -4.0046   -3.3546    0.6937 C   0  0  0  0  0  0  0  0  0  0  0  0
   -3.4201   -1.9378    0.7678 C   0  0  0  0  0  0  0  0  0  0  0  0
    0.7330   -0.5224    0.3384 C   0  0  0  0  0  0  0  0  0  0  0  0
    1.3905   -1.6546    0.1100 N   0  0  0  0  0  0  0  0  0  0  0  0
    2.7150   -1.4059    0.0245 C   0  0  0  0  0  0  0  0  0  0  0  0
    3.7135   -2.4504   -0.2272 C   0  0  0  0  0  0  0  0  0  0  0  0
    3.3749   -3.7998   -0.3816 C   0  0  0  0  0  0  0  0  0  0  0  0
    4.5066   -4.4801   -0.6020 N   0  0  0  0  0  0  0  0  0  0  0  0
    5.5184   -3.6571   -0.5961 N   0  0  0  0  0  0  0  0  0  0  0  0
    5.0704   -2.3992   -0.3685 C   0  0  0  0  0  0  0  0  0  0  0  0
    2.8276   -0.0928    0.2093 N   0  0  0  0  0  0  0  0  0  0  0  0
    4.0534    0.6338    0.2187 C   0  0  0  0  0  0  0  0  0  0  0  0
    4.4807    1.2378   -0.9382 C   0  0  0  0  0  0  0  0  0  0  0  0
    5.6674    1.9809   -0.9709 C   0  0  0  0  0  0  0  0  0  0  0  0
    6.3729    2.0686    0.2151 C   0  0  0  0  0  0  0  0  0  0  0  0
    5.9171    1.4507    1.3588 C   0  0  0  0  0  0  0  0  0  0  0  0
    4.7764    0.7470    1.3543 N   0  0  0  0  0  0  0  0  0  0  0  0
    1.6161    0.4624    0.4028 N   0  0  0  0  0  0  0  0  0  0  0  0
   -1.4561    3.2029    0.9263 C   0  0  2  0  0  0  0  0  0  0  0  0
   -1.0771    3.6873   -0.4376 C   0  0  0  0  0  0  0  0  0  0  0  0
   -1.6894    4.9798   -0.8294 C   0  0  0  0  0  0  0  0  0  0  0  0
   -2.6748    5.4976   -0.1515 C   0  0  0  0  0  0  0  0  0  0  0  0
   -0.9217    4.1658    1.9577 C   0  0  0  0  0  0  0  0  0  0  0  0
   -0.1450    3.7522    2.7718 O   0  0  0  0  0  0  0  0  0  0  0  0
   -0.4408    0.7103    2.6466 H   0  0  0  0  0  0  0  0  0  0  0  0
   -0.9275    1.1835   -0.7904 H   0  0  0  0  0  0  0  0  0  0  0  0
   -2.3995    0.8538    0.1797 H   0  0  0  0  0  0  0  0  0  0  0  0
   -1.0737   -0.8384    1.4716 H   0  0  0  0  0  0  0  0  0  0  0  0
   -0.9116   -2.4292   -0.4280 H   0  0  0  0  0  0  0  0  0  0  0  0
   -1.0295   -1.0946   -1.5730 H   0  0  0  0  0  0  0  0  0  0  0  0
   -3.2527   -0.5538   -0.9014 H   0  0  0  0  0  0  0  0  0  0  0  0
   -2.6778   -3.4690   -1.5273 H   0  0  0  0  0  0  0  0  0  0  0  0
   -3.0068   -2.0669   -2.6030 H   0  0  0  0  0  0  0  0  0  0  0  0
   -5.2493   -1.7834   -1.7305 H   0  0  0  0  0  0  0  0  0  0  0  0
   -5.0165   -3.4417   -2.3468 H   0  0  0  0  0  0  0  0  0  0  0  0
   -5.6225   -4.3152   -0.3264 H   0  0  0  0  0  0  0  0  0  0  0  0
   -5.9388   -2.6315    0.2433 H   0  0  0  0  0  0  0  0  0  0  0  0
   -4.3083   -3.6005    1.7409 H   0  0  0  0  0  0  0  0  0  0  0  0
   -3.2008   -4.0243    0.3633 H   0  0  0  0  0  0  0  0  0  0  0  0
   -4.2889   -1.2672    0.9717 H   0  0  0  0  0  0  0  0  0  0  0  0
   -2.7679   -1.9305    1.6380 H   0  0  0  0  0  0  0  0  0  0  0  0
    2.3884   -4.2407   -0.3362 H   0  0  0  0  0  0  0  0  0  0  0  0
    6.5339   -3.8948   -0.7410 H   0  0  0  0  0  0  0  0  0  0  0  0
    5.6887   -1.5265   -0.3145 H   0  0  0  0  0  0  0  0  0  0  0  0
    3.8848    1.1341   -1.8358 H   0  0  0  0  0  0  0  0  0  0  0  0
    6.0189    2.4636   -1.8736 H   0  0  0  0  0  0  0  0  0  0  0  0
    7.3140    2.6362    0.2648 H   0  0  0  0  0  0  0  0  0  0  0  0
    6.4960    1.5422    2.2665 H   0  0  0  0  0  0  0  0  0  0  0  0
   -2.5450    3.1175    1.0651 H   0  0  0  0  0  0  0  0  0  0  0  0
    0.0435    3.7399   -0.4680 H   0  0  0  0  0  0  0  0  0  0  0  0
   -1.3439    2.9779   -1.2671 H   0  0  0  0  0  0  0  0  0  0  0  0
   -1.2911    5.5146   -1.7259 H   0  0  0  0  0  0  0  0  0  0  0  0
   -3.0893    5.0304    0.7037 H   0  0  0  0  0  0  0  0  0  0  0  0
   -3.0963    6.4570   -0.4760 H   0  0  0  0  0  0  0  0  0  0  0  0
   -1.2022    5.1953    1.9953 H   0  0  0  0  0  0  0  0  0  0  0  0
  1  2  1  0
  2  3  1  0
  3  4  1  0
  4  5  1  0
  5  6  1  0
  6  7  1  0
  7  8  1  0
  8  9  1  0
  9 10  1  0
 10 11  1  0
  4 12  1  0
 12 13  1  0
 13 14  2  0
 14 15  1  0
 15 16  1  0
 16 17  2  0
 17 18  1  0
 18 19  1  0
 14 20  1  0
 20 21  1  0
 21 22  2  0
 22 23  1  0
 23 24  2  0
 24 25  1  0
 25 26  2  0
 20 27  1  0
  2 28  1  0
 28 29  1  0
 29 30  1  0
 30 31  2  3
 28 32  1  0
 32 33  2  0
 11  6  1  0
 27 12  2  0
 19 15  2  0
 26 21  1  0
  1 34  1  0
  3 35  1  0
  3 36  1  0
  4 37  1  1
  5 38  1  0
  5 39  1  0
  6 40  1  0
  7 41  1  0
  7 42  1  0
  8 43  1  0
  8 44  1  0
  9 45  1  0
  9 46  1  0
 10 47  1  0
 10 48  1  0
 11 49  1  0
 11 50  1  0
 16 51  1  0
 18 52  1  0
 19 53  1  0
 22 54  1  0
 23 55  1  0
 24 56  1  0
 25 57  1  0
 28 58  1  6
 29 59  1  0
 29 60  1  0
 30 61  1  0
 31 62  1  0
 31 63  1  0
 32 64  1  0
M  END
$$$$
[H]c1c([H])c([N+](=O)[O-])c([H])c2c1C(=O)N(C([H])([H])C([H])([H])C([H])([H])[C@]13O[C@@]([H])(C([H])([H])C1([H])[H])C([H])([H])[C@]3([H])O[C@]([H])(c1nnn(C([H])([H])C([H])([H])C([H])([H])C([H])([H])C([H])([H])C([H])([H])C([H])([H])C([H])([H])C([H])([H])C([H])([H])C([H])([H])C([H])([H])[H])n1)C([H])([H])[H])C([H])([H])C2([H])[H]
     RDKit          2D

 94 98  0  0  0  0  0  0  0  0999 V2000
   25.5383  -14.6463    0.0000 C   0  0  0  0  0  0  0  0  0  0  0  0
   24.1680  -14.0362    0.0000 C   0  0  0  0  0  0  0  0  0  0  0  0
   22.7977  -13.4261    0.0000 C   0  0  0  0  0  0  0  0  0  0  0  0
   21.4273  -12.8160    0.0000 C   0  0  0  0  0  0  0  0  0  0  0  0
   20.0570  -12.2059    0.0000 C   0  0  0  0  0  0  0  0  0  0  0  0
   18.6867  -11.5958    0.0000 C   0  0  0  0  0  0  0  0  0  0  0  0
   17.3164  -10.9857    0.0000 C   0  0  0  0  0  0  0  0  0  0  0  0
   15.9461  -10.3756    0.0000 C   0  0  0  0  0  0  0  0  0  0  0  0
   14.5757   -9.7655    0.0000 C   0  0  0  0  0  0  0  0  0  0  0  0
   13.2054   -9.1554    0.0000 C   0  0  0  0  0  0  0  0  0  0  0  0
   11.8351   -8.5452    0.0000 C   0  0  0  0  0  0  0  0  0  0  0  0
   10.4648   -7.9351    0.0000 C   0  0  0  0  0  0  0  0  0  0  0  0
    9.0945   -7.3250    0.0000 N   0  0  0  0  0  0  0  0  0  0  0  0
    7.7954   -8.0750    0.0000 N   0  0  0  0  0  0  0  0  0  0  0  0
    6.6807   -7.0713    0.0000 N   0  0  0  0  0  0  0  0  0  0  0  0
    7.2908   -5.7010    0.0000 C   0  0  0  0  0  0  0  0  0  0  0  0
    8.7826   -5.8578    0.0000 N   0  0  0  0  0  0  0  0  0  0  0  0
    6.5408   -4.4020    0.0000 C   0  0  0  0  0  0  0  0  0  0  0  0
    5.7908   -3.1029    0.0000 C   0  0  0  0  0  0  0  0  0  0  0  0
    5.2418   -5.1520    0.0000 O   0  0  0  0  0  0  0  0  0  0  0  0
    5.2418   -6.6520    0.0000 C   0  0  0  0  0  0  0  0  0  0  0  0
    5.5537   -8.1192    0.0000 C   0  0  0  0  0  0  0  0  0  0  0  0
    4.2546   -8.8692    0.0000 C   0  0  0  0  0  0  0  0  0  0  0  0
    2.7628   -8.7124    0.0000 C   0  0  0  0  0  0  0  0  0  0  0  0
    2.4510   -7.2452    0.0000 C   0  0  0  0  0  0  0  0  0  0  0  0
    3.7500   -6.4952    0.0000 C   0  0  0  0  0  0  0  0  0  0  0  0
    3.0000   -5.1962    0.0000 C   0  0  0  0  0  0  0  0  0  0  0  0
    2.2500   -3.8971    0.0000 C   0  0  0  0  0  0  0  0  0  0  0  0
    1.5000   -2.5981    0.0000 C   0  0  0  0  0  0  0  0  0  0  0  0
    0.7500   -1.2990    0.0000 N   0  0  0  0  0  0  0  0  0  0  0  0
    1.5000    0.0000    0.0000 C   0  0  0  0  0  0  0  0  0  0  0  0
    0.7500    1.2990    0.0000 C   0  0  0  0  0  0  0  0  0  0  0  0
   -0.7500    1.2990    0.0000 C   0  0  0  0  0  0  0  0  0  0  0  0
   -1.5000    2.5981    0.0000 C   0  0  0  0  0  0  0  0  0  0  0  0
   -3.0000    2.5981    0.0000 C   0  0  0  0  0  0  0  0  0  0  0  0
   -3.7500    1.2990    0.0000 C   0  0  0  0  0  0  0  0  0  0  0  0
   -3.0000    0.0000    0.0000 C   0  0  0  0  0  0  0  0  0  0  0  0
   -1.5000    0.0000    0.0000 C   0  0  0  0  0  0  0  0  0  0  0  0
   -0.7500   -1.2990    0.0000 C   0  0  0  0  0  0  0  0  0  0  0  0
   -1.5000   -2.5981    0.0000 O   0  0  0  0  0  0  0  0  0  0  0  0
   -3.7500    3.8971    0.0000 N   0  0  0  0  0  0  0  0  0  0  0  0
   -5.2500    3.8971    0.0000 O   0  0  0  0  0  0  0  0  0  0  0  0
   -3.0000    5.1962    0.0000 O   0  0  0  0  0  0  0  0  0  0  0  0
    3.1399   -7.8655    0.0000 O   0  0  0  0  0  0  0  0  0  0  0  0
   26.9086  -15.2564    0.0000 H   0  0  0  0  0  0  0  0  0  0  0  0
   24.9282  -16.0166    0.0000 H   0  0  0  0  0  0  0  0  0  0  0  0
   26.1484  -13.2760    0.0000 H   0  0  0  0  0  0  0  0  0  0  0  0
   23.5579  -15.4065    0.0000 H   0  0  0  0  0  0  0  0  0  0  0  0
   24.7781  -12.6659    0.0000 H   0  0  0  0  0  0  0  0  0  0  0  0
   23.4078  -12.0558    0.0000 H   0  0  0  0  0  0  0  0  0  0  0  0
   22.1875  -14.7964    0.0000 H   0  0  0  0  0  0  0  0  0  0  0  0
   20.8172  -14.1863    0.0000 H   0  0  0  0  0  0  0  0  0  0  0  0
   22.0374  -11.4457    0.0000 H   0  0  0  0  0  0  0  0  0  0  0  0
   20.6671  -10.8356    0.0000 H   0  0  0  0  0  0  0  0  0  0  0  0
   19.4469  -13.5762    0.0000 H   0  0  0  0  0  0  0  0  0  0  0  0
   18.0766  -12.9661    0.0000 H   0  0  0  0  0  0  0  0  0  0  0  0
   19.2968  -10.2255    0.0000 H   0  0  0  0  0  0  0  0  0  0  0  0
   17.9265   -9.6153    0.0000 H   0  0  0  0  0  0  0  0  0  0  0  0
   16.7063  -12.3560    0.0000 H   0  0  0  0  0  0  0  0  0  0  0  0
   15.3360  -11.7459    0.0000 H   0  0  0  0  0  0  0  0  0  0  0  0
   16.5562   -9.0052    0.0000 H   0  0  0  0  0  0  0  0  0  0  0  0
   15.1858   -8.3951    0.0000 H   0  0  0  0  0  0  0  0  0  0  0  0
   13.9656  -11.1358    0.0000 H   0  0  0  0  0  0  0  0  0  0  0  0
   12.5953  -10.5257    0.0000 H   0  0  0  0  0  0  0  0  0  0  0  0
   13.8155   -7.7850    0.0000 H   0  0  0  0  0  0  0  0  0  0  0  0
   12.4452   -7.1749    0.0000 H   0  0  0  0  0  0  0  0  0  0  0  0
   11.2250   -9.9156    0.0000 H   0  0  0  0  0  0  0  0  0  0  0  0
   11.0749   -6.5648    0.0000 H   0  0  0  0  0  0  0  0  0  0  0  0
    9.8547   -9.3055    0.0000 H   0  0  0  0  0  0  0  0  0  0  0  0
    7.8399   -3.6520    0.0000 H   0  0  0  0  0  0  0  0  0  0  0  0
    5.0408   -1.8039    0.0000 H   0  0  0  0  0  0  0  0  0  0  0  0
    7.0899   -2.3529    0.0000 H   0  0  0  0  0  0  0  0  0  0  0  0
    4.5929   -4.0057    0.0000 H   0  0  0  0  0  0  0  0  0  0  0  0
    6.0312   -6.7630    0.0000 H   0  0  0  0  0  0  0  0  0  0  0  0
    7.0500   -8.0147    0.0000 H   0  0  0  0  0  0  0  0  0  0  0  0
    6.1638   -9.4895    0.0000 H   0  0  0  0  0  0  0  0  0  0  0  0
    4.0978  -10.3610    0.0000 H   0  0  0  0  0  0  0  0  0  0  0  0
    2.7628  -10.2124    0.0000 H   0  0  0  0  0  0  0  0  0  0  0  0
    1.2710   -8.8692    0.0000 H   0  0  0  0  0  0  0  0  0  0  0  0
    1.0244   -7.7087    0.0000 H   0  0  0  0  0  0  0  0  0  0  0  0
    1.6784   -5.9595    0.0000 H   0  0  0  0  0  0  0  0  0  0  0  0
    1.6192   -5.7822    0.0000 H   0  0  0  0  0  0  0  0  0  0  0  0
    4.3808   -4.6101    0.0000 H   0  0  0  0  0  0  0  0  0  0  0  0
    3.5490   -3.1471    0.0000 H   0  0  0  0  0  0  0  0  0  0  0  0
    0.9510   -4.6471    0.0000 H   0  0  0  0  0  0  0  0  0  0  0  0
    2.8808   -2.0120    0.0000 H   0  0  0  0  0  0  0  0  0  0  0  0
    0.2010   -3.3481    0.0000 H   0  0  0  0  0  0  0  0  0  0  0  0
    2.6491    0.9642    0.0000 H   0  0  0  0  0  0  0  0  0  0  0  0
    2.7580   -0.8169    0.0000 H   0  0  0  0  0  0  0  0  0  0  0  0
    0.4895    2.7762    0.0000 H   0  0  0  0  0  0  0  0  0  0  0  0
    2.1595    1.8121    0.0000 H   0  0  0  0  0  0  0  0  0  0  0  0
   -0.7500    3.8971    0.0000 H   0  0  0  0  0  0  0  0  0  0  0  0
   -5.2500    1.2990    0.0000 H   0  0  0  0  0  0  0  0  0  0  0  0
   -3.7500   -1.2990    0.0000 H   0  0  0  0  0  0  0  0  0  0  0  0
  1  2  1  0
  2  3  1  0
  3  4  1  0
  4  5  1  0
  5  6  1  0
  6  7  1  0
  7  8  1  0
  8  9  1  0
  9 10  1  0
 10 11  1  0
 11 12  1  0
 12 13  1  0
 13 14  1  0
 14 15  2  0
 15 16  1  0
 16 17  2  0
 16 18  1  0
 18 19  1  0
 18 20  1  0
 20 21  1  0
 21 22  1  0
 22 23  1  0
 23 24  1  0
 24 25  1  0
 25 26  1  0
 26 27  1  6
 27 28  1  0
 28 29  1  0
 29 30  1  0
 30 31  1  0
 31 32  1  0
 32 33  1  0
 33 34  2  0
 34 35  1  0
 35 36  2  0
 36 37  1  0
 37 38  2  0
 38 39  1  0
 39 40  2  0
 35 41  1  0
 41 42  1  0
 41 43  2  0
 26 44  1  0
 17 13  1  0
 26 21  1  0
 39 30  1  0
 44 23  1  0
 38 33  1  0
  1 45  1  0
  1 46  1  0
  1 47  1  0
  2 48  1  0
  2 49  1  0
  3 50  1  0
  3 51  1  0
  4 52  1  0
  4 53  1  0
  5 54  1  0
  5 55  1  0
  6 56  1  0
  6 57  1  0
  7 58  1  0
  7 59  1  0
  8 60  1  0
  8 61  1  0
  9 62  1  0
  9 63  1  0
 10 64  1  0
 10 65  1  0
 11 66  1  0
 11 67  1  0
 12 68  1  0
 12 69  1  0
 18 70  1  6
 19 71  1  0
 19 72  1  0
 19 73  1  0
 21 74  1  6
 22 75  1  0
 22 76  1  0
 23 77  1  1
 24 78  1  0
 24 79  1  0
 25 80  1  0
 25 81  1  0
 27 82  1  0
 27 83  1  0
 28 84  1  0
 28 85  1  0
 29 86  1  0
 29 87  1  0
 31 88  1  0
 31 89  1  0
 32 90  1  0
 32 91  1  0
 34 92  1  0
 36 93  1  0
 37 94  1  0
M  CHG  2  41   1  42  -1
M  END
$$$$
[H]OC(=O)c1c([H])c([H])c(-c2c([H])c([H])c([H])c([H])c2[H])c([H])c1-c1c([H])c([H])c(OC([H])([H])[H])c(OC([H])([H])[H])c1[H]
     RDKit          3D

 43 45  0  0  0  0  0  0  0  0999 V2000
    4.9065    3.3971   -0.3388 C   0  0  0  0  0  0  0  0  0  0  0  0
    4.6650    2.2320    0.4294 O   0  0  0  0  0  0  0  0  0  0  0  0
    3.5105    1.5166    0.1284 C   0  0  0  0  0  0  0  0  0  0  0  0
    2.6231    1.8893   -0.8581 C   0  0  0  0  0  0  0  0  0  0  0  0
    1.5032    1.1268   -1.0939 C   0  0  0  0  0  0  0  0  0  0  0  0
    1.2113   -0.0363   -0.3662 C   0  0  0  0  0  0  0  0  0  0  0  0
    2.1190   -0.3836    0.6151 C   0  0  0  0  0  0  0  0  0  0  0  0
    3.2287    0.3618    0.8572 C   0  0  0  0  0  0  0  0  0  0  0  0
    4.1071   -0.0561    1.8735 O   0  0  0  0  0  0  0  0  0  0  0  0
    3.8453   -1.2120    2.6178 C   0  0  0  0  0  0  0  0  0  0  0  0
   -0.0211   -0.7284   -0.6489 C   0  0  0  0  0  0  0  0  0  0  0  0
   -1.2390   -0.1144   -0.3123 C   0  0  0  0  0  0  0  0  0  0  0  0
   -2.4592   -0.7215   -0.4851 C   0  0  0  0  0  0  0  0  0  0  0  0
   -2.4940   -1.9906   -1.0124 C   0  0  0  0  0  0  0  0  0  0  0  0
   -1.3307   -2.6169   -1.3518 C   0  0  0  0  0  0  0  0  0  0  0  0
   -0.0744   -1.9754   -1.1683 C   0  0  0  0  0  0  0  0  0  0  0  0
    1.0878   -2.6822   -1.6186 C   0  0  0  0  0  0  0  0  0  0  0  0
    0.9647   -3.9765   -2.0976 O   0  0  0  0  0  0  0  0  0  0  0  0
    2.2177   -2.1973   -1.6052 O   0  0  0  0  0  0  0  0  0  0  0  0
   -3.6958   -0.0184   -0.1098 C   0  0  0  0  0  0  0  0  0  0  0  0
   -4.8564   -0.2449   -0.7846 C   0  0  0  0  0  0  0  0  0  0  0  0
   -6.0460    0.4119   -0.4455 C   0  0  0  0  0  0  0  0  0  0  0  0
   -6.0217    1.3109    0.6056 C   0  0  0  0  0  0  0  0  0  0  0  0
   -4.8569    1.5491    1.2955 C   0  0  0  0  0  0  0  0  0  0  0  0
   -3.7120    0.8835    0.9304 C   0  0  0  0  0  0  0  0  0  0  0  0
    5.8871    3.8153   -0.0363 H   0  0  0  0  0  0  0  0  0  0  0  0
    4.1077    4.1354   -0.1610 H   0  0  0  0  0  0  0  0  0  0  0  0
    4.8820    3.0780   -1.4016 H   0  0  0  0  0  0  0  0  0  0  0  0
    2.8399    2.7915   -1.4301 H   0  0  0  0  0  0  0  0  0  0  0  0
    0.7993    1.4148   -1.8703 H   0  0  0  0  0  0  0  0  0  0  0  0
    1.8986   -1.2839    1.1832 H   0  0  0  0  0  0  0  0  0  0  0  0
    3.6109   -2.0805    1.9483 H   0  0  0  0  0  0  0  0  0  0  0  0
    4.6740   -1.5330    3.2507 H   0  0  0  0  0  0  0  0  0  0  0  0
    2.9632   -1.0531    3.2902 H   0  0  0  0  0  0  0  0  0  0  0  0
   -1.1820    0.8897    0.1029 H   0  0  0  0  0  0  0  0  0  0  0  0
   -3.4744   -2.4468   -1.1369 H   0  0  0  0  0  0  0  0  0  0  0  0
   -1.3668   -3.6206   -1.7683 H   0  0  0  0  0  0  0  0  0  0  0  0
    1.5094   -4.2545   -2.8968 H   0  0  0  0  0  0  0  0  0  0  0  0
   -4.8566   -0.9519   -1.6045 H   0  0  0  0  0  0  0  0  0  0  0  0
   -6.9498    0.2238   -0.9847 H   0  0  0  0  0  0  0  0  0  0  0  0
   -6.9145    1.8539    0.9182 H   0  0  0  0  0  0  0  0  0  0  0  0
   -4.8174    2.2403    2.1110 H   0  0  0  0  0  0  0  0  0  0  0  0
   -2.7932    1.0570    1.4579 H   0  0  0  0  0  0  0  0  0  0  0  0
  1  2  1  0
  2  3  1  0
  3  4  2  0
  4  5  1  0
  5  6  2  0
  6  7  1  0
  7  8  2  0
  8  9  1  0
  9 10  1  0
  6 11  1  0
 11 12  2  0
 12 13  1  0
 13 14  2  0
 14 15  1  0
 15 16  2  0
 16 17  1  0
 17 18  1  0
 17 19  2  0
 13 20  1  0
 20 21  2  0
 21 22  1  0
 22 23  2  0
 23 24  1  0
 24 25  2  0
  8  3  1  0
 16 11  1  0
 25 20  1  0
  1 26  1  0
  1 27  1  0
  1 28  1  0
  4 29  1  0
  5 30  1  0
  7 31  1  0
 10 32  1  0
 10 33  1  0
 10 34  1  0
 12 35  1  0
 14 36  1  0
 15 37  1  0
 18 38  1  0
 21 39  1  0
 22 40  1  0
 23 41  1  0
 24 42  1  0
 25 43  1  0
M  END
$$$$
[H]c1nc(N([H])c2c([H])c([H])c(-c3oc([H])c([H])c3[H])c([H])c2[H])nc(N([H])C([H])([H])[H])c1C(=O)N([H])C1([H])C([H])([H])C([H])([H])N(C([H])([H])[H])C([H])([H])C1([H])[H]
     RDKit          3D

 56 59  0  0  0  0  0  0  0  0999 V2000
   -0.0253   -0.6722    5.4834 C   0  0  0  0  0  0  0  0  0  0  0  0
    0.8165   -0.7233    4.2764 N   0  0  0  0  0  0  0  0  0  0  0  0
    0.2036   -0.4511    3.0385 C   0  0  0  0  0  0  0  0  0  0  0  0
   -1.1407   -0.1513    3.0430 N   0  0  0  0  0  0  0  0  0  0  0  0
   -1.8165    0.1267    1.9139 C   0  0  0  0  0  0  0  0  0  0  0  0
   -3.1960    0.4088    1.9339 N   0  0  0  0  0  0  0  0  0  0  0  0
   -3.9669    0.7243    0.8059 C   0  0  0  0  0  0  0  0  0  0  0  0
   -5.3599    0.5146    0.9238 C   0  0  0  0  0  0  0  0  0  0  0  0
   -6.2161    0.8071   -0.0966 C   0  0  0  0  0  0  0  0  0  0  0  0
   -5.7805    1.3224   -1.2997 C   0  0  0  0  0  0  0  0  0  0  0  0
   -4.4277    1.5365   -1.4401 C   0  0  0  0  0  0  0  0  0  0  0  0
   -3.5618    1.2310   -0.3820 C   0  0  0  0  0  0  0  0  0  0  0  0
   -6.6970    1.6341   -2.3887 C   0  0  0  0  0  0  0  0  0  0  0  0
   -8.0750    1.4401   -2.3041 C   0  0  0  0  0  0  0  0  0  0  0  0
   -8.6059    1.8491   -3.5289 C   0  0  0  0  0  0  0  0  0  0  0  0
   -7.5151    2.2601   -4.2653 C   0  0  0  0  0  0  0  0  0  0  0  0
   -6.4066    2.1223   -3.5695 O   0  0  0  0  0  0  0  0  0  0  0  0
   -1.1008    0.0929    0.7937 N   0  0  0  0  0  0  0  0  0  0  0  0
    0.1870   -0.1851    0.7086 C   0  0  0  0  0  0  0  0  0  0  0  0
    0.9282   -0.4818    1.8717 C   0  0  0  0  0  0  0  0  0  0  0  0
    2.3260   -0.7869    1.7633 C   0  0  0  0  0  0  0  0  0  0  0  0
    3.0335   -1.0635    2.7465 O   0  0  0  0  0  0  0  0  0  0  0  0
    2.9835   -0.7897    0.5160 N   0  0  0  0  0  0  0  0  0  0  0  0
    4.4188   -1.1027    0.3890 C   0  0  0  0  0  0  0  0  0  0  0  0
    5.0947    0.0931   -0.2146 C   0  0  0  0  0  0  0  0  0  0  0  0
    6.3365   -0.2131   -0.9657 C   0  0  0  0  0  0  0  0  0  0  0  0
    6.3942   -1.4524   -1.6536 N   0  0  0  0  0  0  0  0  0  0  0  0
    7.2540   -1.4901   -2.7904 C   0  0  0  0  0  0  0  0  0  0  0  0
    5.0927   -2.0002   -1.8456 C   0  0  0  0  0  0  0  0  0  0  0  0
    4.5114   -2.3275   -0.4858 C   0  0  0  0  0  0  0  0  0  0  0  0
    0.5375   -0.1604    6.2765 H   0  0  0  0  0  0  0  0  0  0  0  0
   -0.2047   -1.7224    5.8547 H   0  0  0  0  0  0  0  0  0  0  0  0
   -0.9950   -0.2225    5.2790 H   0  0  0  0  0  0  0  0  0  0  0  0
    1.7762   -0.9508    4.4308 H   0  0  0  0  0  0  0  0  0  0  0  0
   -3.6712    0.3771    2.8991 H   0  0  0  0  0  0  0  0  0  0  0  0
   -5.7555    0.1088    1.8544 H   0  0  0  0  0  0  0  0  0  0  0  0
   -7.2982    0.6395    0.0067 H   0  0  0  0  0  0  0  0  0  0  0  0
   -4.0484    1.9393   -2.3688 H   0  0  0  0  0  0  0  0  0  0  0  0
   -2.5233    1.4443   -0.5646 H   0  0  0  0  0  0  0  0  0  0  0  0
   -8.6511    1.0553   -1.4786 H   0  0  0  0  0  0  0  0  0  0  0  0
   -9.6545    1.8245   -3.7839 H   0  0  0  0  0  0  0  0  0  0  0  0
   -7.5448    2.6428   -5.2690 H   0  0  0  0  0  0  0  0  0  0  0  0
    0.6983   -0.1918   -0.2462 H   0  0  0  0  0  0  0  0  0  0  0  0
    2.5235   -0.5785   -0.3779 H   0  0  0  0  0  0  0  0  0  0  0  0
    4.7763   -1.3112    1.4130 H   0  0  0  0  0  0  0  0  0  0  0  0
    4.3512    0.6754   -0.8094 H   0  0  0  0  0  0  0  0  0  0  0  0
    5.3718    0.7735    0.6434 H   0  0  0  0  0  0  0  0  0  0  0  0
    7.2636   -0.1414   -0.3313 H   0  0  0  0  0  0  0  0  0  0  0  0
    6.4748    0.6125   -1.7247 H   0  0  0  0  0  0  0  0  0  0  0  0
    7.9919   -0.6561   -2.6969 H   0  0  0  0  0  0  0  0  0  0  0  0
    7.8780   -2.4279   -2.8287 H   0  0  0  0  0  0  0  0  0  0  0  0
    6.7471   -1.4069   -3.7630 H   0  0  0  0  0  0  0  0  0  0  0  0
    4.4464   -1.2225   -2.3138 H   0  0  0  0  0  0  0  0  0  0  0  0
    5.0996   -2.9426   -2.4266 H   0  0  0  0  0  0  0  0  0  0  0  0
    5.1861   -3.0601    0.0016 H   0  0  0  0  0  0  0  0  0  0  0  0
    3.5358   -2.8230   -0.6526 H   0  0  0  0  0  0  0  0  0  0  0  0
  1  2  1  0
  2  3  1  0
  3  4  2  0
  4  5  1  0
  5  6  1  0
  6  7  1  0
  7  8  2  0
  8  9  1  0
  9 10  2  0
 10 11  1  0
 11 12  2  0
 10 13  1  0
 13 14  2  0
 14 15  1  0
 15 16  2  0
 16 17  1  0
  5 18  2  0
 18 19  1  0
 19 20  2  0
 20 21  1  0
 21 22  2  0
 21 23  1  0
 23 24  1  0
 24 25  1  0
 25 26  1  0
 26 27  1  0
 27 28  1  0
 27 29  1  0
 29 30  1  0
 20  3  1  0
 30 24  1  0
 12  7  1  0
 17 13  1  0
  1 31  1  0
  1 32  1  0
  1 33  1  0
  2 34  1  0
  6 35  1  0
  8 36  1  0
  9 37  1  0
 11 38  1  0
 12 39  1  0
 14 40  1  0
 15 41  1  0
 16 42  1  0
 19 43  1  0
 23 44  1  0
 24 45  1  0
 25 46  1  0
 25 47  1  0
 26 48  1  0
 26 49  1  0
 28 50  1  0
 28 51  1  0
 28 52  1  0
 29 53  1  0
 29 54  1  0
 30 55  1  0
 30 56  1  0
M  END
$$$$
[H]ON([H])C(=O)C([H])([H])[C@]([H])(C(=O)N([H])[C@]([H])(C(=O)N([H])C([H])([H])C(=O)N([H])C([H])([H])[H])C([H])([H])c1c([H])c([H])c([H])c([H])c1[H])C([H])([H])C([H])(C([H])([H])[H])C([H])([H])[H]
     RDKit          3D

 59 59  0  0  0  0  0  0  0  0999 V2000
   -5.3377    1.3619   -0.7853 C   0  0  0  0  0  0  0  0  0  0  0  0
   -4.7386    0.0319   -0.4636 C   0  0  0  0  0  0  0  0  0  0  0  0
   -5.0024   -0.8831   -1.6791 C   0  0  0  0  0  0  0  0  0  0  0  0
   -3.2975   -0.0140   -0.1946 C   0  0  0  0  0  0  0  0  0  0  0  0
   -2.6813    0.6825    0.9707 C   0  0  2  0  0  0  0  0  0  0  0  0
   -2.8838    2.1680    0.9720 C   0  0  0  0  0  0  0  0  0  0  0  0
   -2.2499    2.8274    2.1675 C   0  0  0  0  0  0  0  0  0  0  0  0
   -1.9200    2.1278    3.1494 O   0  0  0  0  0  0  0  0  0  0  0  0
   -2.0153    4.2118    2.2052 N   0  0  0  0  0  0  0  0  0  0  0  0
   -1.4425    4.7933    3.2757 O   0  0  0  0  0  0  0  0  0  0  0  0
   -1.1905    0.4699    0.7961 C   0  0  0  0  0  0  0  0  0  0  0  0
   -0.4508    1.4556    0.9372 O   0  0  0  0  0  0  0  0  0  0  0  0
   -0.6047   -0.7630    0.4898 N   0  0  0  0  0  0  0  0  0  0  0  0
    0.8893   -0.9194    0.3481 C   0  0  1  0  0  0  0  0  0  0  0  0
    1.2304   -2.0498    1.1518 C   0  0  0  0  0  0  0  0  0  0  0  0
    2.5618   -2.5744    1.3375 C   0  0  0  0  0  0  0  0  0  0  0  0
    3.5104   -1.9543    2.1472 C   0  0  0  0  0  0  0  0  0  0  0  0
    4.7046   -2.5571    2.3431 C   0  0  0  0  0  0  0  0  0  0  0  0
    5.0692   -3.7556    1.7980 C   0  0  0  0  0  0  0  0  0  0  0  0
    4.1352   -4.3789    0.9943 C   0  0  0  0  0  0  0  0  0  0  0  0
    2.9073   -3.8028    0.7664 C   0  0  0  0  0  0  0  0  0  0  0  0
    1.2611   -0.6140   -0.9983 C   0  0  0  0  0  0  0  0  0  0  0  0
    0.5693    0.3301   -1.6010 O   0  0  0  0  0  0  0  0  0  0  0  0
    2.2690   -1.1663   -1.7786 N   0  0  0  0  0  0  0  0  0  0  0  0
    2.5349   -0.6874   -3.1539 C   0  0  0  0  0  0  0  0  0  0  0  0
    3.0370    0.6844   -3.1982 C   0  0  0  0  0  0  0  0  0  0  0  0
    3.2429    1.2512   -4.3279 O   0  0  0  0  0  0  0  0  0  0  0  0
    3.3193    1.4514   -2.0708 N   0  0  0  0  0  0  0  0  0  0  0  0
    3.8036    2.8265   -2.2258 C   0  0  0  0  0  0  0  0  0  0  0  0
   -4.5911    2.0755   -1.1484 H   0  0  0  0  0  0  0  0  0  0  0  0
   -6.0614    1.2703   -1.6666 H   0  0  0  0  0  0  0  0  0  0  0  0
   -5.9020    1.7858    0.0676 H   0  0  0  0  0  0  0  0  0  0  0  0
   -5.3345   -0.4590    0.3824 H   0  0  0  0  0  0  0  0  0  0  0  0
   -4.2744   -1.7220   -1.6533 H   0  0  0  0  0  0  0  0  0  0  0  0
   -4.8434   -0.3317   -2.6262 H   0  0  0  0  0  0  0  0  0  0  0  0
   -6.0266   -1.2963   -1.6394 H   0  0  0  0  0  0  0  0  0  0  0  0
   -2.9869   -1.1160   -0.2045 H   0  0  0  0  0  0  0  0  0  0  0  0
   -2.7859    0.3376   -1.1612 H   0  0  0  0  0  0  0  0  0  0  0  0
   -2.9796    0.2245    1.9372 H   0  0  0  0  0  0  0  0  0  0  0  0
   -2.5270    2.6722    0.0638 H   0  0  0  0  0  0  0  0  0  0  0  0
   -3.9784    2.4403    1.0727 H   0  0  0  0  0  0  0  0  0  0  0  0
   -2.2894    4.7842    1.3891 H   0  0  0  0  0  0  0  0  0  0  0  0
   -1.9212    5.6172    3.5485 H   0  0  0  0  0  0  0  0  0  0  0  0
   -1.1498   -1.6016    0.3423 H   0  0  0  0  0  0  0  0  0  0  0  0
    1.2366    0.0262    0.9704 H   0  0  0  0  0  0  0  0  0  0  0  0
    0.5937   -2.9450    0.7930 H   0  0  0  0  0  0  0  0  0  0  0  0
    0.8340   -1.8361    2.2171 H   0  0  0  0  0  0  0  0  0  0  0  0
    3.2083   -1.0112    2.5760 H   0  0  0  0  0  0  0  0  0  0  0  0
    5.4294   -2.0411    2.9907 H   0  0  0  0  0  0  0  0  0  0  0  0
    6.0437   -4.2175    1.9821 H   0  0  0  0  0  0  0  0  0  0  0  0
    4.3588   -5.3379    0.5276 H   0  0  0  0  0  0  0  0  0  0  0  0
    2.2222   -4.3584    0.1128 H   0  0  0  0  0  0  0  0  0  0  0  0
    2.8529   -1.9372   -1.4359 H   0  0  0  0  0  0  0  0  0  0  0  0
    1.5839   -0.7415   -3.7542 H   0  0  0  0  0  0  0  0  0  0  0  0
    3.2049   -1.4296   -3.6404 H   0  0  0  0  0  0  0  0  0  0  0  0
    3.2181    1.0501   -1.1071 H   0  0  0  0  0  0  0  0  0  0  0  0
    3.0631    3.3946   -2.8427 H   0  0  0  0  0  0  0  0  0  0  0  0
    3.7676    3.2830   -1.2134 H   0  0  0  0  0  0  0  0  0  0  0  0
    4.8040    2.8670   -2.6473 H   0  0  0  0  0  0  0  0  0  0  0  0
  1  2  1  0
  2  3  1  0
  2  4  1  0
  4  5  1  0
  5  6  1  0
  6  7  1  0
  7  8  2  0
  7  9  1  0
  9 10  1  0
  5 11  1  0
 11 12  2  0
 11 13  1  0
 13 14  1  0
 14 15  1  0
 15 16  1  0
 16 17  2  0
 17 18  1  0
 18 19  2  0
 19 20  1  0
 20 21  2  0
 14 22  1  0
 22 23  2  0
 22 24  1  0
 24 25  1  0
 25 26  1  0
 26 27  2  0
 26 28  1  0
 28 29  1  0
 21 16  1  0
  1 30  1  0
  1 31  1  0
  1 32  1  0
  2 33  1  0
  3 34  1  0
  3 35  1  0
  3 36  1  0
  4 37  1  0
  4 38  1  0
  5 39  1  1
  6 40  1  0
  6 41  1  0
  9 42  1  0
 10 43  1  0
 13 44  1  0
 14 45  1  1
 15 46  1  0
 15 47  1  0
 17 48  1  0
 18 49  1  0
 19 50  1  0
 20 51  1  0
 21 52  1  0
 24 53  1  0
 25 54  1  0
 25 55  1  0
 28 56  1  0
 29 57  1  0
 29 58  1  0
 29 59  1  0
M  END
$$$$
[H]c1oc(-c2c([H])c([H])c(C(=O)N([H])C3([H])C([H])([H])C([H])([H])N(C(=O)OC(C([H])([H])[H])(C([H])([H])[H])C([H])([H])[H])C([H])([H])C3([H])[H])c([H])c2[H])c([H])c1[H]
     RDKit          3D

 53 55  0  0  0  0  0  0  0  0999 V2000
   -7.0641   -0.6582   -0.1774 C   0  0  0  0  0  0  0  0  0  0  0  0
   -6.2687   -0.3300    1.0451 C   0  0  0  0  0  0  0  0  0  0  0  0
   -6.1093   -1.6448    1.8176 C   0  0  0  0  0  0  0  0  0  0  0  0
   -7.0236    0.6888    1.8588 C   0  0  0  0  0  0  0  0  0  0  0  0
   -4.9915    0.1799    0.7828 O   0  0  0  0  0  0  0  0  0  0  0  0
   -4.0008   -0.4934    0.1165 C   0  0  0  0  0  0  0  0  0  0  0  0
   -4.2059   -1.6317   -0.2890 O   0  0  0  0  0  0  0  0  0  0  0  0
   -2.7234    0.1202   -0.1135 N   0  0  0  0  0  0  0  0  0  0  0  0
   -1.7183   -0.6651   -0.7828 C   0  0  0  0  0  0  0  0  0  0  0  0
   -1.1035    0.1613   -1.8559 C   0  0  0  0  0  0  0  0  0  0  0  0
   -0.3689    1.2956   -1.2064 C   0  0  0  0  0  0  0  0  0  0  0  0
   -1.0142    1.8179    0.0300 C   0  0  0  0  0  0  0  0  0  0  0  0
   -2.4271    1.4590    0.2783 C   0  0  0  0  0  0  0  0  0  0  0  0
    0.9710    0.8065   -0.8971 N   0  0  0  0  0  0  0  0  0  0  0  0
    2.1234    1.2960   -1.5971 C   0  0  0  0  0  0  0  0  0  0  0  0
    2.0178    2.1541   -2.4992 O   0  0  0  0  0  0  0  0  0  0  0  0
    3.4682    0.7935   -1.2594 C   0  0  0  0  0  0  0  0  0  0  0  0
    4.3147    1.5835   -0.5100 C   0  0  0  0  0  0  0  0  0  0  0  0
    5.5700    1.1176   -0.2165 C   0  0  0  0  0  0  0  0  0  0  0  0
    6.0335   -0.1097   -0.6343 C   0  0  0  0  0  0  0  0  0  0  0  0
    5.1828   -0.8899   -1.3795 C   0  0  0  0  0  0  0  0  0  0  0  0
    3.9113   -0.4333   -1.6843 C   0  0  0  0  0  0  0  0  0  0  0  0
    7.3805   -0.5515   -0.2811 C   0  0  0  0  0  0  0  0  0  0  0  0
    7.9133   -1.7494   -0.7330 C   0  0  0  0  0  0  0  0  0  0  0  0
    9.1945   -1.8559   -0.2129 C   0  0  0  0  0  0  0  0  0  0  0  0
    9.3730   -0.6910    0.5418 C   0  0  0  0  0  0  0  0  0  0  0  0
    8.2668    0.0360    0.4592 O   0  0  0  0  0  0  0  0  0  0  0  0
   -7.0819    0.1737   -0.9289 H   0  0  0  0  0  0  0  0  0  0  0  0
   -6.8313   -1.6441   -0.6358 H   0  0  0  0  0  0  0  0  0  0  0  0
   -8.1415   -0.7613    0.1562 H   0  0  0  0  0  0  0  0  0  0  0  0
   -6.9404   -1.8287    2.5110 H   0  0  0  0  0  0  0  0  0  0  0  0
   -5.1524   -1.6898    2.3784 H   0  0  0  0  0  0  0  0  0  0  0  0
   -6.0885   -2.4867    1.0719 H   0  0  0  0  0  0  0  0  0  0  0  0
   -6.6109    1.6956    1.5921 H   0  0  0  0  0  0  0  0  0  0  0  0
   -6.7760    0.4950    2.9277 H   0  0  0  0  0  0  0  0  0  0  0  0
   -8.1184    0.6490    1.7056 H   0  0  0  0  0  0  0  0  0  0  0  0
   -2.1596   -1.5902   -1.2389 H   0  0  0  0  0  0  0  0  0  0  0  0
   -0.9182   -1.0190   -0.1009 H   0  0  0  0  0  0  0  0  0  0  0  0
   -0.3786   -0.4767   -2.4071 H   0  0  0  0  0  0  0  0  0  0  0  0
   -1.8443    0.4801   -2.6229 H   0  0  0  0  0  0  0  0  0  0  0  0
   -0.2482    2.1591   -1.9288 H   0  0  0  0  0  0  0  0  0  0  0  0
   -0.3732    1.4833    0.9038 H   0  0  0  0  0  0  0  0  0  0  0  0
   -0.9611    2.9442    0.0319 H   0  0  0  0  0  0  0  0  0  0  0  0
   -3.0824    2.1542   -0.3011 H   0  0  0  0  0  0  0  0  0  0  0  0
   -2.7067    1.6011    1.3516 H   0  0  0  0  0  0  0  0  0  0  0  0
    1.1038    0.0972   -0.1621 H   0  0  0  0  0  0  0  0  0  0  0  0
    3.9747    2.5791   -0.1534 H   0  0  0  0  0  0  0  0  0  0  0  0
    6.2451    1.7350    0.3729 H   0  0  0  0  0  0  0  0  0  0  0  0
    5.4942   -1.8737   -1.7409 H   0  0  0  0  0  0  0  0  0  0  0  0
    3.2390   -1.0628   -2.2792 H   0  0  0  0  0  0  0  0  0  0  0  0
    7.4540   -2.4895   -1.3670 H   0  0  0  0  0  0  0  0  0  0  0  0
    9.9236   -2.6493   -0.3406 H   0  0  0  0  0  0  0  0  0  0  0  0
   10.2775   -0.4804    1.0742 H   0  0  0  0  0  0  0  0  0  0  0  0
  1  2  1  0
  2  3  1  0
  2  4  1  0
  2  5  1  0
  5  6  1  0
  6  7  2  0
  6  8  1  0
  8  9  1  0
  9 10  1  0
 10 11  1  0
 11 12  1  0
 12 13  1  0
 11 14  1  0
 14 15  1  0
 15 16  2  0
 15 17  1  0
 17 18  2  0
 18 19  1  0
 19 20  2  0
 20 21  1  0
 21 22  2  0
 20 23  1  0
 23 24  2  0
 24 25  1  0
 25 26  2  0
 26 27  1  0
 13  8  1  0
 22 17  1  0
 27 23  1  0
  1 28  1  0
  1 29  1  0
  1 30  1  0
  3 31  1  0
  3 32  1  0
  3 33  1  0
  4 34  1  0
  4 35  1  0
  4 36  1  0
  9 37  1  0
  9 38  1  0
 10 39  1  0
 10 40  1  0
 11 41  1  0
 12 42  1  0
 12 43  1  0
 13 44  1  0
 13 45  1  0
 14 46  1  0
 18 47  1  0
 19 48  1  0
 21 49  1  0
 22 50  1  0
 24 51  1  0
 25 52  1  0
 26 53  1  0
M  END
$$$$
[H]OC(=O)[C@@]([H])(N([H])C(=O)C([H])(C([H])([H])S[H])C1([H])c2c(c([H])c3c([H])c([H])c([H])c([H])c3c2[H])C([H])([H])C1([H])[H])C([H])([H])c1c([H])n([H])c2c([H])c([H])c([H])c([H])c12
     RDKit          3D

 59 63  0  0  0  0  0  0  0  0999 V2000
   -4.3538    2.0436   -0.8854 O   0  0  0  0  0  0  0  0  0  0  0  0
   -3.1280    1.6970   -0.3161 C   0  0  0  0  0  0  0  0  0  0  0  0
   -2.5952    2.6272    0.3942 O   0  0  0  0  0  0  0  0  0  0  0  0
   -2.4560    0.4013   -0.4885 C   0  0  2  0  0  0  0  0  0  0  0  0
   -3.0035   -0.7612    0.2473 C   0  0  0  0  0  0  0  0  0  0  0  0
   -4.4007   -1.0521   -0.0710 C   0  0  0  0  0  0  0  0  0  0  0  0
   -4.8426   -1.8470   -1.1303 C   0  0  0  0  0  0  0  0  0  0  0  0
   -6.1754   -1.8567   -1.1563 N   0  0  0  0  0  0  0  0  0  0  0  0
   -6.6406   -1.0941   -0.1466 C   0  0  0  0  0  0  0  0  0  0  0  0
   -7.8917   -0.7684    0.3129 C   0  0  0  0  0  0  0  0  0  0  0  0
   -8.1174    0.0246    1.4073 C   0  0  0  0  0  0  0  0  0  0  0  0
   -7.0035    0.5247    2.0861 C   0  0  0  0  0  0  0  0  0  0  0  0
   -5.7351    0.2223    1.6562 C   0  0  0  0  0  0  0  0  0  0  0  0
   -5.5326   -0.5860    0.5393 C   0  0  0  0  0  0  0  0  0  0  0  0
   -1.0459    0.5803   -0.0486 N   0  0  0  0  0  0  0  0  0  0  0  0
   -0.0501    0.5338   -1.0310 C   0  0  0  0  0  0  0  0  0  0  0  0
   -0.3681    0.3445   -2.2573 O   0  0  0  0  0  0  0  0  0  0  0  0
    1.3979    0.6925   -0.7436 C   0  0  0  0  0  0  0  0  0  0  0  0
    1.5979    2.0082   -0.0614 C   0  0  0  0  0  0  0  0  0  0  0  0
    1.0244    3.3416   -1.1571 S   0  0  0  0  0  0  0  0  0  0  0  0
    1.9322   -0.4705    0.0719 C   0  0  0  0  0  0  0  0  0  0  0  0
    1.7359   -1.7797   -0.6812 C   0  0  0  0  0  0  0  0  0  0  0  0
    2.9080   -1.7743   -1.6833 C   0  0  0  0  0  0  0  0  0  0  0  0
    3.9629   -1.1328   -0.8355 C   0  0  0  0  0  0  0  0  0  0  0  0
    5.3450   -1.2173   -0.9695 C   0  0  0  0  0  0  0  0  0  0  0  0
    6.1509   -0.5570   -0.0698 C   0  0  0  0  0  0  0  0  0  0  0  0
    7.5226   -0.6090   -0.1588 C   0  0  0  0  0  0  0  0  0  0  0  0
    8.3030    0.0573    0.7492 C   0  0  0  0  0  0  0  0  0  0  0  0
    7.7407    0.7959    1.7740 C   0  0  0  0  0  0  0  0  0  0  0  0
    6.3762    0.8662    1.8883 C   0  0  0  0  0  0  0  0  0  0  0  0
    5.6028    0.1865    0.9616 C   0  0  0  0  0  0  0  0  0  0  0  0
    4.2378    0.2744    1.0993 C   0  0  0  0  0  0  0  0  0  0  0  0
    3.4178   -0.3968    0.1839 C   0  0  0  0  0  0  0  0  0  0  0  0
   -5.0174    2.6581   -0.3990 H   0  0  0  0  0  0  0  0  0  0  0  0
   -2.4166    0.2024   -1.5859 H   0  0  0  0  0  0  0  0  0  0  0  0
   -2.8725   -0.5274    1.3551 H   0  0  0  0  0  0  0  0  0  0  0  0
   -2.3628   -1.6560    0.0361 H   0  0  0  0  0  0  0  0  0  0  0  0
   -4.1652   -2.3573   -1.8002 H   0  0  0  0  0  0  0  0  0  0  0  0
   -6.7753   -2.3579   -1.8284 H   0  0  0  0  0  0  0  0  0  0  0  0
   -8.7470   -1.1695   -0.2310 H   0  0  0  0  0  0  0  0  0  0  0  0
   -9.1269    0.2625    1.7433 H   0  0  0  0  0  0  0  0  0  0  0  0
   -7.1579    1.1571    2.9588 H   0  0  0  0  0  0  0  0  0  0  0  0
   -4.8906    0.6242    2.2008 H   0  0  0  0  0  0  0  0  0  0  0  0
   -0.8143    0.7321    0.9384 H   0  0  0  0  0  0  0  0  0  0  0  0
    1.9675    0.6595   -1.6996 H   0  0  0  0  0  0  0  0  0  0  0  0
    2.6545    2.2316    0.1871 H   0  0  0  0  0  0  0  0  0  0  0  0
    1.0426    2.0861    0.8943 H   0  0  0  0  0  0  0  0  0  0  0  0
    1.7345    4.5183   -0.8588 H   0  0  0  0  0  0  0  0  0  0  0  0
    1.4840   -0.5566    1.0666 H   0  0  0  0  0  0  0  0  0  0  0  0
    1.8357   -2.6461   -0.0190 H   0  0  0  0  0  0  0  0  0  0  0  0
    0.7918   -1.8266   -1.2236 H   0  0  0  0  0  0  0  0  0  0  0  0
    3.1807   -2.7919   -1.9884 H   0  0  0  0  0  0  0  0  0  0  0  0
    2.6251   -1.1455   -2.5463 H   0  0  0  0  0  0  0  0  0  0  0  0
    5.7796   -1.8010   -1.7804 H   0  0  0  0  0  0  0  0  0  0  0  0
    7.9261   -1.1994   -0.9774 H   0  0  0  0  0  0  0  0  0  0  0  0
    9.3928   -0.0081    0.6434 H   0  0  0  0  0  0  0  0  0  0  0  0
    8.3808    1.3257    2.4959 H   0  0  0  0  0  0  0  0  0  0  0  0
    5.8946    1.4286    2.6700 H   0  0  0  0  0  0  0  0  0  0  0  0
    3.7405    0.8384    1.8802 H   0  0  0  0  0  0  0  0  0  0  0  0
  1  2  1  0
  2  3  2  0
  2  4  1  0
  4  5  1  0
  5  6  1  0
  6  7  2  0
  7  8  1  0
  8  9  1  0
  9 10  2  0
 10 11  1  0
 11 12  2  0
 12 13  1  0
 13 14  2  0
  4 15  1  0
 15 16  1  0
 16 17  2  0
 16 18  1  0
 18 19  1  0
 19 20  1  0
 18 21  1  0
 21 22  1  0
 22 23  1  0
 23 24  1  0
 24 25  2  0
 25 26  1  0
 26 27  2  0
 27 28  1  0
 28 29  2  0
 29 30  1  0
 30 31  2  0
 31 32  1  0
 32 33  2  0
 14  6  1  0
 33 21  1  0
 14  9  1  0
 33 24  1  0
 31 26  1  0
  1 34  1  0
  4 35  1  6
  5 36  1  0
  5 37  1  0
  7 38  1  0
  8 39  1  0
 10 40  1  0
 11 41  1  0
 12 42  1  0
 13 43  1  0
 15 44  1  0
 18 45  1  0
 19 46  1  0
 19 47  1  0
 20 48  1  0
 21 49  1  0
 22 50  1  0
 22 51  1  0
 23 52  1  0
 23 53  1  0
 25 54  1  0
 27 55  1  0
 28 56  1  0
 29 57  1  0
 30 58  1  0
 32 59  1  0
M  END
$$$$
[H]Oc1c([H])c(Br)c([H])c2c([H])c(C(=O)[O-])oc12
     RDKit          3D

 18 19  0  0  0  0  0  0  0  0999 V2000
    4.2912   -0.8548   -0.4310 O   0  0  0  0  0  0  0  0  0  0  0  0
    3.4426    0.2378   -0.3831 C   0  0  0  0  0  0  0  0  0  0  0  0
    3.9639    1.3885   -0.4015 O   0  0  0  0  0  0  0  0  0  0  0  0
    2.0056    0.0845   -0.3142 C   0  0  0  0  0  0  0  0  0  0  0  0
    1.3456   -1.1290   -0.2895 C   0  0  0  0  0  0  0  0  0  0  0  0
    0.0004   -0.7873   -0.2220 C   0  0  0  0  0  0  0  0  0  0  0  0
   -1.1776   -1.5234   -0.1692 C   0  0  0  0  0  0  0  0  0  0  0  0
   -2.3967   -0.9193   -0.1063 C   0  0  0  0  0  0  0  0  0  0  0  0
   -3.9908   -1.9519   -0.0351 Br  0  0  0  0  0  0  0  0  0  0  0  0
   -2.4540    0.4671   -0.0951 C   0  0  0  0  0  0  0  0  0  0  0  0
   -1.3153    1.2404   -0.1458 C   0  0  0  0  0  0  0  0  0  0  0  0
   -1.4261    2.6215   -0.1321 O   0  0  0  0  0  0  0  0  0  0  0  0
   -0.0909    0.5986   -0.2092 C   0  0  0  0  0  0  0  0  0  0  0  0
    1.1290    1.0588   -0.2657 O   0  0  0  0  0  0  0  0  0  0  0  0
    1.7413   -2.1365   -0.3148 H   0  0  0  0  0  0  0  0  0  0  0  0
   -1.0464   -2.6071   -0.1822 H   0  0  0  0  0  0  0  0  0  0  0  0
   -3.4021    0.9858   -0.0459 H   0  0  0  0  0  0  0  0  0  0  0  0
   -0.6197    3.2263   -0.1676 H   0  0  0  0  0  0  0  0  0  0  0  0
  1  2  1  0
  2  3  2  0
  2  4  1  0
  4  5  2  0
  5  6  1  0
  6  7  2  0
  7  8  1  0
  8  9  1  0
  8 10  2  0
 10 11  1  0
 11 12  1  0
 11 13  2  0
 13 14  1  0
 14  4  1  0
 13  6  1  0
  5 15  1  0
  7 16  1  0
 10 17  1  0
 12 18  1  0
M  CHG  1   1  -1
M  END
$$$$
[H]c1c([H])c([H])c2c(c1[H])c(C([H])([H])[C@@]1([H])C(=O)N([H])[C@@]([H])(C([H])([H])C([H])(C([H])([H])[H])C([H])([H])[H])C(=O)N([H])[C@@]([H])(C([H])([H])c3c([H])n([H])c4c([H])c([H])c([H])c([H])c34)[C@@]([H])(C([H])([H])C([H])([H])C([H])([H])C([H])([H])N([H])C(=O)N([H])N([H])[H])C(=O)N([H])[C@@]([H])([C@@]([H])(C([H])([H])[H])C([H])([H])C([H])([H])[H])C(=O)N1[H])c([H])n2[H]
     RDKit          3D

109113  0  0  0  0  0  0  0  0999 V2000
    1.1151    5.5623    2.5424 C   0  0  0  0  0  0  0  0  0  0  0  0
    1.5738    4.1874    2.1395 C   0  0  0  0  0  0  0  0  0  0  0  0
    0.6219    3.1829    2.7249 C   0  0  2  0  0  0  0  0  0  0  0  0
    0.6153    3.3010    4.2207 C   0  0  0  0  0  0  0  0  0  0  0  0
    0.9129    1.7634    2.2456 C   0  0  2  0  0  0  0  0  0  0  0  0
   -0.0935    0.9262    2.9034 N   0  0  0  0  0  0  0  0  0  0  0  0
   -1.2726    0.4536    2.2173 C   0  0  0  0  0  0  0  0  0  0  0  0
   -2.3162    0.4627    2.9568 O   0  0  0  0  0  0  0  0  0  0  0  0
   -1.2546    0.0116    0.8089 C   0  0  2  0  0  0  0  0  0  0  0  0
   -1.9259    1.0226   -0.1165 C   0  0  0  0  0  0  0  0  0  0  0  0
   -3.3547    1.2886    0.1913 C   0  0  0  0  0  0  0  0  0  0  0  0
   -3.8514    2.3064   -0.8442 C   0  0  0  0  0  0  0  0  0  0  0  0
   -5.3086    2.6328   -0.6032 C   0  0  0  0  0  0  0  0  0  0  0  0
   -5.7884    3.5941   -1.5708 N   0  0  0  0  0  0  0  0  0  0  0  0
   -7.1113    4.0802   -1.5894 C   0  0  0  0  0  0  0  0  0  0  0  0
   -7.9336    3.6545   -0.7109 O   0  0  0  0  0  0  0  0  0  0  0  0
   -7.5584    5.0204   -2.5442 N   0  0  0  0  0  0  0  0  0  0  0  0
   -8.8355    5.5359   -2.6128 N   0  0  0  0  0  0  0  0  0  0  0  0
   -1.6534   -1.3728    0.5309 C   0  0  2  0  0  0  0  0  0  0  0  0
   -2.4324   -1.9921    1.7015 C   0  0  0  0  0  0  0  0  0  0  0  0
   -2.8462   -3.3826    1.4325 C   0  0  0  0  0  0  0  0  0  0  0  0
   -2.2377   -4.5038    1.9440 C   0  0  0  0  0  0  0  0  0  0  0  0
   -2.8825   -5.5890    1.4863 N   0  0  0  0  0  0  0  0  0  0  0  0
   -3.9017   -5.2285    0.6861 C   0  0  0  0  0  0  0  0  0  0  0  0
   -4.8701   -5.9423   -0.0295 C   0  0  0  0  0  0  0  0  0  0  0  0
   -5.8034   -5.2658   -0.7697 C   0  0  0  0  0  0  0  0  0  0  0  0
   -5.8061   -3.8822   -0.8234 C   0  0  0  0  0  0  0  0  0  0  0  0
   -4.8413   -3.2011   -0.1094 C   0  0  0  0  0  0  0  0  0  0  0  0
   -3.8805   -3.8474    0.6512 C   0  0  0  0  0  0  0  0  0  0  0  0
   -0.6499   -2.2949    0.0526 N   0  0  0  0  0  0  0  0  0  0  0  0
    0.6984   -2.2107   -0.2009 C   0  0  0  0  0  0  0  0  0  0  0  0
    1.4469   -2.8980    0.6185 O   0  0  0  0  0  0  0  0  0  0  0  0
    1.4785   -1.4916   -1.2237 C   0  0  2  0  0  0  0  0  0  0  0  0
    1.3643   -1.9345   -2.6281 C   0  0  0  0  0  0  0  0  0  0  0  0
    1.7578   -3.3303   -2.9686 C   0  0  0  0  0  0  0  0  0  0  0  0
    1.5583   -3.4693   -4.5049 C   0  0  0  0  0  0  0  0  0  0  0  0
    0.7853   -4.3728   -2.4103 C   0  0  0  0  0  0  0  0  0  0  0  0
    2.9131   -1.4915   -0.8807 N   0  0  0  0  0  0  0  0  0  0  0  0
    3.4752   -0.7332    0.1555 C   0  0  0  0  0  0  0  0  0  0  0  0
    4.2358   -1.3671    0.9781 O   0  0  0  0  0  0  0  0  0  0  0  0
    3.2981    0.6838    0.4114 C   0  0  2  0  0  0  0  0  0  0  0  0
    4.2831    1.5276   -0.3338 C   0  0  0  0  0  0  0  0  0  0  0  0
    5.7067    1.2873   -0.0705 C   0  0  0  0  0  0  0  0  0  0  0  0
    6.4067    1.9724    0.9151 C   0  0  0  0  0  0  0  0  0  0  0  0
    7.6677    1.5202    0.9690 N   0  0  0  0  0  0  0  0  0  0  0  0
    7.8249    0.5467    0.0378 C   0  0  0  0  0  0  0  0  0  0  0  0
    8.9162   -0.2203   -0.3240 C   0  0  0  0  0  0  0  0  0  0  0  0
    8.7854   -1.1364   -1.3417 C   0  0  0  0  0  0  0  0  0  0  0  0
    7.5759   -1.2849   -1.9923 C   0  0  0  0  0  0  0  0  0  0  0  0
    6.4862   -0.5283   -1.6398 C   0  0  0  0  0  0  0  0  0  0  0  0
    6.6140    0.3995   -0.6086 C   0  0  0  0  0  0  0  0  0  0  0  0
    3.3489    1.0289    1.8215 N   0  0  0  0  0  0  0  0  0  0  0  0
    2.2339    1.2870    2.6437 C   0  0  0  0  0  0  0  0  0  0  0  0
    2.3971    1.0783    3.8974 O   0  0  0  0  0  0  0  0  0  0  0  0
    1.6754    5.9053    3.4202 H   0  0  0  0  0  0  0  0  0  0  0  0
    0.0271    5.5290    2.6902 H   0  0  0  0  0  0  0  0  0  0  0  0
    1.3162    6.3256    1.7384 H   0  0  0  0  0  0  0  0  0  0  0  0
    1.5946    4.1275    1.0502 H   0  0  0  0  0  0  0  0  0  0  0  0
    2.5762    4.0174    2.5833 H   0  0  0  0  0  0  0  0  0  0  0  0
   -0.3999    3.4306    2.3571 H   0  0  0  0  0  0  0  0  0  0  0  0
    1.6820    3.3502    4.5407 H   0  0  0  0  0  0  0  0  0  0  0  0
    0.0248    2.5474    4.7387 H   0  0  0  0  0  0  0  0  0  0  0  0
    0.1281    4.2897    4.4524 H   0  0  0  0  0  0  0  0  0  0  0  0
    0.7547    1.7688    1.1523 H   0  0  0  0  0  0  0  0  0  0  0  0
    0.0931    0.6918    3.9092 H   0  0  0  0  0  0  0  0  0  0  0  0
   -0.1719    0.0972    0.4949 H   0  0  0  0  0  0  0  0  0  0  0  0
   -1.7891    0.6283   -1.1430 H   0  0  0  0  0  0  0  0  0  0  0  0
   -1.3198    1.9496   -0.0533 H   0  0  0  0  0  0  0  0  0  0  0  0
   -3.9395    0.3632   -0.0089 H   0  0  0  0  0  0  0  0  0  0  0  0
   -3.5719    1.6056    1.2035 H   0  0  0  0  0  0  0  0  0  0  0  0
   -3.2851    3.2325   -0.8471 H   0  0  0  0  0  0  0  0  0  0  0  0
   -3.7193    1.8133   -1.8276 H   0  0  0  0  0  0  0  0  0  0  0  0
   -5.9064    1.7049   -0.7394 H   0  0  0  0  0  0  0  0  0  0  0  0
   -5.4250    3.0696    0.4162 H   0  0  0  0  0  0  0  0  0  0  0  0
   -5.1178    3.9483   -2.2954 H   0  0  0  0  0  0  0  0  0  0  0  0
   -6.8657    5.3604   -3.2664 H   0  0  0  0  0  0  0  0  0  0  0  0
   -8.8356    6.5849   -2.7528 H   0  0  0  0  0  0  0  0  0  0  0  0
   -9.4602    5.2272   -1.8564 H   0  0  0  0  0  0  0  0  0  0  0  0
   -2.4305   -1.3277   -0.2941 H   0  0  0  0  0  0  0  0  0  0  0  0
   -1.8269   -1.8979    2.6137 H   0  0  0  0  0  0  0  0  0  0  0  0
   -3.3594   -1.3919    1.7922 H   0  0  0  0  0  0  0  0  0  0  0  0
   -1.3861   -4.5871    2.6050 H   0  0  0  0  0  0  0  0  0  0  0  0
   -2.6427   -6.5935    1.7085 H   0  0  0  0  0  0  0  0  0  0  0  0
   -4.8176   -7.0208    0.0513 H   0  0  0  0  0  0  0  0  0  0  0  0
   -6.5397   -5.8606   -1.3111 H   0  0  0  0  0  0  0  0  0  0  0  0
   -6.5712   -3.4167   -1.4263 H   0  0  0  0  0  0  0  0  0  0  0  0
   -4.8536   -2.1234   -0.1592 H   0  0  0  0  0  0  0  0  0  0  0  0
   -1.1095   -3.2548   -0.1232 H   0  0  0  0  0  0  0  0  0  0  0  0
    1.2603   -0.3909   -1.2389 H   0  0  0  0  0  0  0  0  0  0  0  0
    0.2859   -1.8253   -2.9375 H   0  0  0  0  0  0  0  0  0  0  0  0
    1.9388   -1.2709   -3.3383 H   0  0  0  0  0  0  0  0  0  0  0  0
    2.8056   -3.5889   -2.7975 H   0  0  0  0  0  0  0  0  0  0  0  0
    0.4865   -3.4271   -4.7342 H   0  0  0  0  0  0  0  0  0  0  0  0
    1.9197   -4.4768   -4.7745 H   0  0  0  0  0  0  0  0  0  0  0  0
    2.1626   -2.7252   -5.0363 H   0  0  0  0  0  0  0  0  0  0  0  0
    1.0860   -4.7915   -1.4550 H   0  0  0  0  0  0  0  0  0  0  0  0
    0.7229   -5.2457   -3.1385 H   0  0  0  0  0  0  0  0  0  0  0  0
   -0.2177   -3.9108   -2.4411 H   0  0  0  0  0  0  0  0  0  0  0  0
    3.5157   -2.1011   -1.4524 H   0  0  0  0  0  0  0  0  0  0  0  0
    2.2857    1.0550    0.0749 H   0  0  0  0  0  0  0  0  0  0  0  0
    4.1521    1.4343   -1.4465 H   0  0  0  0  0  0  0  0  0  0  0  0
    4.0878    2.6321   -0.1623 H   0  0  0  0  0  0  0  0  0  0  0  0
    6.0055    2.7687    1.5638 H   0  0  0  0  0  0  0  0  0  0  0  0
    8.4525    1.8117    1.5890 H   0  0  0  0  0  0  0  0  0  0  0  0
    9.8627   -0.0851    0.2058 H   0  0  0  0  0  0  0  0  0  0  0  0
    9.6402   -1.7462   -1.6335 H   0  0  0  0  0  0  0  0  0  0  0  0
    7.5041   -2.0173   -2.7939 H   0  0  0  0  0  0  0  0  0  0  0  0
    5.5304   -0.6246   -2.1481 H   0  0  0  0  0  0  0  0  0  0  0  0
    4.2979    1.0849    2.2496 H   0  0  0  0  0  0  0  0  0  0  0  0
  1  2  1  0
  2  3  1  0
  3  4  1  0
  3  5  1  0
  5  6  1  0
  6  7  1  0
  7  8  2  0
  7  9  1  0
  9 10  1  0
 10 11  1  0
 11 12  1  0
 12 13  1  0
 13 14  1  0
 14 15  1  0
 15 16  2  0
 15 17  1  0
 17 18  1  0
  9 19  1  0
 19 20  1  0
 20 21  1  0
 21 22  2  0
 22 23  1  0
 23 24  1  0
 24 25  2  0
 25 26  1  0
 26 27  2  0
 27 28  1  0
 28 29  2  0
 19 30  1  0
 30 31  1  0
 31 32  2  0
 31 33  1  0
 33 34  1  0
 34 35  1  0
 35 36  1  0
 35 37  1  0
 33 38  1  0
 38 39  1  0
 39 40  2  0
 39 41  1  0
 41 42  1  0
 42 43  1  0
 43 44  2  0
 44 45  1  0
 45 46  1  0
 46 47  2  0
 47 48  1  0
 48 49  2  0
 49 50  1  0
 50 51  2  0
 41 52  1  0
 52 53  1  0
 53 54  2  0
 53  5  1  0
 29 21  1  0
 51 43  1  0
 29 24  1  0
 51 46  1  0
  1 55  1  0
  1 56  1  0
  1 57  1  0
  2 58  1  0
  2 59  1  0
  3 60  1  6
  4 61  1  0
  4 62  1  0
  4 63  1  0
  5 64  1  6
  6 65  1  0
  9 66  1  6
 10 67  1  0
 10 68  1  0
 11 69  1  0
 11 70  1  0
 12 71  1  0
 12 72  1  0
 13 73  1  0
 13 74  1  0
 14 75  1  0
 17 76  1  0
 18 77  1  0
 18 78  1  0
 19 79  1  6
 20 80  1  0
 20 81  1  0
 22 82  1  0
 23 83  1  0
 25 84  1  0
 26 85  1  0
 27 86  1  0
 28 87  1  0
 30 88  1  0
 33 89  1  6
 34 90  1  0
 34 91  1  0
 35 92  1  0
 36 93  1  0
 36 94  1  0
 36 95  1  0
 37 96  1  0
 37 97  1  0
 37 98  1  0
 38 99  1  0
 41100  1  6
 42101  1  0
 42102  1  0
 44103  1  0
 45104  1  0
 47105  1  0
 48106  1  0
 49107  1  0
 50108  1  0
 52109  1  0
M  END
$$$$
[H]c1c(-c2c([H])c([H])c(OC([H])([H])C([H])([H])[H])c([H])c2[H])nc(SC([H])([H])[H])nc1N([H])C(=O)N([H])c1c([H])c(C([H])([H])[H])n(C([H])([H])[H])c1[H]
     RDKit          3D

 51 53  0  0  0  0  0  0  0  0999 V2000
   -8.3855    2.8297   -0.6574 C   0  0  0  0  0  0  0  0  0  0  0  0
   -6.9907    2.3216   -0.5107 C   0  0  0  0  0  0  0  0  0  0  0  0
   -6.9592    0.9669   -0.1466 O   0  0  0  0  0  0  0  0  0  0  0  0
   -5.7006    0.3551    0.0222 C   0  0  0  0  0  0  0  0  0  0  0  0
   -4.5475    1.0886   -0.1711 C   0  0  0  0  0  0  0  0  0  0  0  0
   -3.2886    0.5068   -0.0123 C   0  0  0  0  0  0  0  0  0  0  0  0
   -3.1372   -0.8075    0.3393 C   0  0  0  0  0  0  0  0  0  0  0  0
   -4.3100   -1.5445    0.5339 C   0  0  0  0  0  0  0  0  0  0  0  0
   -5.5559   -0.9661    0.3765 C   0  0  0  0  0  0  0  0  0  0  0  0
   -1.8623   -1.4899    0.5236 C   0  0  0  0  0  0  0  0  0  0  0  0
   -0.6335   -0.8223    0.3645 C   0  0  0  0  0  0  0  0  0  0  0  0
    0.5465   -1.4680    0.5401 C   0  0  0  0  0  0  0  0  0  0  0  0
    1.8158   -0.8863    0.4244 N   0  0  0  0  0  0  0  0  0  0  0  0
    2.1711    0.4627    0.1501 C   0  0  0  0  0  0  0  0  0  0  0  0
    1.2204    1.2557   -0.0066 O   0  0  0  0  0  0  0  0  0  0  0  0
    3.4920    0.7892    0.0797 N   0  0  0  0  0  0  0  0  0  0  0  0
    4.7826    1.1085    0.0108 C   0  0  0  0  0  0  0  0  0  0  0  0
    5.5434    2.2706    0.1427 C   0  0  0  0  0  0  0  0  0  0  0  0
    6.8681    2.0009   -0.0455 C   0  0  0  0  0  0  0  0  0  0  0  0
    8.0117    2.9684    0.0044 C   0  0  0  0  0  0  0  0  0  0  0  0
    6.9841    0.7010   -0.2941 N   0  0  0  0  0  0  0  0  0  0  0  0
    8.2585   -0.0031   -0.5556 C   0  0  0  0  0  0  0  0  0  0  0  0
    5.8072    0.1309   -0.2745 C   0  0  0  0  0  0  0  0  0  0  0  0
    0.4957   -2.8045    0.8804 N   0  0  0  0  0  0  0  0  0  0  0  0
   -0.6582   -3.4538    1.0357 C   0  0  0  0  0  0  0  0  0  0  0  0
   -0.7207   -5.1874    1.4810 S   0  0  0  0  0  0  0  0  0  0  0  0
   -2.4570   -5.6964    1.5988 C   0  0  0  0  0  0  0  0  0  0  0  0
   -1.7938   -2.7879    0.8555 N   0  0  0  0  0  0  0  0  0  0  0  0
   -8.8186    3.1652    0.3069 H   0  0  0  0  0  0  0  0  0  0  0  0
   -9.0013    2.0604   -1.1587 H   0  0  0  0  0  0  0  0  0  0  0  0
   -8.3321    3.6967   -1.3676 H   0  0  0  0  0  0  0  0  0  0  0  0
   -6.4558    2.3966   -1.4781 H   0  0  0  0  0  0  0  0  0  0  0  0
   -6.4224    2.8786    0.2659 H   0  0  0  0  0  0  0  0  0  0  0  0
   -4.6536    2.1245   -0.4498 H   0  0  0  0  0  0  0  0  0  0  0  0
   -2.4162    1.1087   -0.1721 H   0  0  0  0  0  0  0  0  0  0  0  0
   -4.1949   -2.5906    0.8155 H   0  0  0  0  0  0  0  0  0  0  0  0
   -6.4586   -1.5393    0.5290 H   0  0  0  0  0  0  0  0  0  0  0  0
   -0.6703    0.2099    0.0972 H   0  0  0  0  0  0  0  0  0  0  0  0
    2.6814   -1.5276    0.5511 H   0  0  0  0  0  0  0  0  0  0  0  0
    3.1122    2.0647   -0.3326 H   0  0  0  0  0  0  0  0  0  0  0  0
    5.1349    3.2518    0.3735 H   0  0  0  0  0  0  0  0  0  0  0  0
    8.6528    2.7423    0.8752 H   0  0  0  0  0  0  0  0  0  0  0  0
    7.5822    3.9832    0.1397 H   0  0  0  0  0  0  0  0  0  0  0  0
    8.5898    2.8742   -0.9295 H   0  0  0  0  0  0  0  0  0  0  0  0
    8.1908   -1.0125   -0.1465 H   0  0  0  0  0  0  0  0  0  0  0  0
    8.3865   -0.0781   -1.6636 H   0  0  0  0  0  0  0  0  0  0  0  0
    9.0697    0.6057   -0.1400 H   0  0  0  0  0  0  0  0  0  0  0  0
    5.5363   -0.9132   -0.4349 H   0  0  0  0  0  0  0  0  0  0  0  0
   -2.8349   -6.0149    0.5908 H   0  0  0  0  0  0  0  0  0  0  0  0
   -3.0749   -4.8369    1.9657 H   0  0  0  0  0  0  0  0  0  0  0  0
   -2.5996   -6.4883    2.3589 H   0  0  0  0  0  0  0  0  0  0  0  0
  1  2  1  0
  2  3  1  0
  3  4  1  0
  4  5  2  0
  5  6  1  0
  6  7  2  0
  7  8  1  0
  8  9  2  0
  7 10  1  0
 10 11  2  0
 11 12  1  0
 12 13  1  0
 13 14  1  0
 14 15  2  0
 14 16  1  0
 16 17  1  0
 17 18  1  0
 18 19  2  0
 19 20  1  0
 19 21  1  0
 21 22  1  0
 21 23  1  0
 12 24  2  0
 24 25  1  0
 25 26  1  0
 26 27  1  0
 25 28  2  0
  9  4  1  0
 28 10  1  0
 23 17  2  0
  1 29  1  0
  1 30  1  0
  1 31  1  0
  2 32  1  0
  2 33  1  0
  5 34  1  0
  6 35  1  0
  8 36  1  0
  9 37  1  0
 11 38  1  0
 13 39  1  0
 16 40  1  0
 18 41  1  0
 20 42  1  0
 20 43  1  0
 20 44  1  0
 22 45  1  0
 22 46  1  0
 22 47  1  0
 23 48  1  0
 27 49  1  0
 27 50  1  0
 27 51  1  0
M  END
$$$$
[H]C1=C([H])C([H])(N([H])C(=O)c2c([H])c([H])c(C([H])([H])C([H])([H])N3C(=O)C(=O)N(c4c([H])c([H])c([H])c(Cl)c4[H])C3([H])[H])c([H])c2[H])C([H])([H])C([H])([H])C1([H])[H]
     RDKit          3D

 55 58  0  0  0  0  0  0  0  0999 V2000
   -6.8322    4.1547   -0.8301 Cl  0  0  0  0  0  0  0  0  0  0  0  0
   -7.3626    2.4743   -0.7117 C   0  0  0  0  0  0  0  0  0  0  0  0
   -8.7128    2.1988   -0.8625 C   0  0  0  0  0  0  0  0  0  0  0  0
   -9.1025    0.8890   -0.7686 C   0  0  0  0  0  0  0  0  0  0  0  0
   -8.2092   -0.1291   -0.5342 C   0  0  0  0  0  0  0  0  0  0  0  0
   -6.8554    0.1309   -0.3805 C   0  0  0  0  0  0  0  0  0  0  0  0
   -6.4742    1.4693   -0.4793 C   0  0  0  0  0  0  0  0  0  0  0  0
   -5.9109   -0.8878   -0.1311 N   0  0  0  0  0  0  0  0  0  0  0  0
   -4.6693   -1.1824   -0.8638 C   0  0  0  0  0  0  0  0  0  0  0  0
   -3.7296   -1.4841    0.2174 N   0  0  0  0  0  0  0  0  0  0  0  0
   -2.3806   -1.0776    0.3174 C   0  0  0  0  0  0  0  0  0  0  0  0
   -1.3600   -2.0488   -0.2427 C   0  0  0  0  0  0  0  0  0  0  0  0
   -0.0411   -1.4161   -0.0137 C   0  0  0  0  0  0  0  0  0  0  0  0
    0.5287   -0.6333   -0.9824 C   0  0  0  0  0  0  0  0  0  0  0  0
    1.7518   -0.0183   -0.7803 C   0  0  0  0  0  0  0  0  0  0  0  0
    2.4281   -0.1789    0.4044 C   0  0  0  0  0  0  0  0  0  0  0  0
    1.8646   -0.9723    1.4032 C   0  0  0  0  0  0  0  0  0  0  0  0
    0.6495   -1.5682    1.1689 C   0  0  0  0  0  0  0  0  0  0  0  0
    3.7162    0.4664    0.6048 C   0  0  0  0  0  0  0  0  0  0  0  0
    3.8180    1.3857    1.4526 O   0  0  0  0  0  0  0  0  0  0  0  0
    4.8275    0.0346   -0.1672 N   0  0  0  0  0  0  0  0  0  0  0  0
    6.1010    0.6882    0.0438 C   0  0  0  0  0  0  0  0  0  0  0  0
    6.7337    1.1457   -1.2491 C   0  0  0  0  0  0  0  0  0  0  0  0
    7.9665    1.9521   -0.9374 C   0  0  0  0  0  0  0  0  0  0  0  0
    8.5132    1.6505    0.4203 C   0  0  0  0  0  0  0  0  0  0  0  0
    8.3156    0.2393    0.8483 C   0  0  0  0  0  0  0  0  0  0  0  0
    7.0921   -0.2648    0.6629 C   0  0  0  0  0  0  0  0  0  0  0  0
   -4.5370   -2.2591    1.1278 C   0  0  0  0  0  0  0  0  0  0  0  0
   -4.0761   -3.0967    1.9447 O   0  0  0  0  0  0  0  0  0  0  0  0
   -5.9328   -1.8855    0.9120 C   0  0  0  0  0  0  0  0  0  0  0  0
   -6.9635   -2.3132    1.4874 O   0  0  0  0  0  0  0  0  0  0  0  0
   -9.4025    3.0057   -1.0442 H   0  0  0  0  0  0  0  0  0  0  0  0
  -10.1473    0.6555   -0.8828 H   0  0  0  0  0  0  0  0  0  0  0  0
   -8.5375   -1.1456   -0.4636 H   0  0  0  0  0  0  0  0  0  0  0  0
   -5.4083    1.6549   -0.3560 H   0  0  0  0  0  0  0  0  0  0  0  0
   -4.8518   -2.1375   -1.4429 H   0  0  0  0  0  0  0  0  0  0  0  0
   -4.3546   -0.3529   -1.4928 H   0  0  0  0  0  0  0  0  0  0  0  0
   -2.2036   -0.1126   -0.2425 H   0  0  0  0  0  0  0  0  0  0  0  0
   -2.0332   -0.8542    1.3582 H   0  0  0  0  0  0  0  0  0  0  0  0
   -1.4729   -2.2246   -1.3280 H   0  0  0  0  0  0  0  0  0  0  0  0
   -1.3469   -3.0068    0.3432 H   0  0  0  0  0  0  0  0  0  0  0  0
    0.0197   -0.4990   -1.9031 H   0  0  0  0  0  0  0  0  0  0  0  0
    2.1757    0.5896   -1.5532 H   0  0  0  0  0  0  0  0  0  0  0  0
    2.4078   -1.0849    2.3190 H   0  0  0  0  0  0  0  0  0  0  0  0
    0.1890   -2.1906    1.9275 H   0  0  0  0  0  0  0  0  0  0  0  0
    4.7304   -0.7266   -0.8587 H   0  0  0  0  0  0  0  0  0  0  0  0
    6.0130    1.5170    0.7604 H   0  0  0  0  0  0  0  0  0  0  0  0
    7.0988    0.2394   -1.8165 H   0  0  0  0  0  0  0  0  0  0  0  0
    6.0041    1.7276   -1.8579 H   0  0  0  0  0  0  0  0  0  0  0  0
    7.6755    3.0397   -0.9793 H   0  0  0  0  0  0  0  0  0  0  0  0
    8.7524    1.8269   -1.7313 H   0  0  0  0  0  0  0  0  0  0  0  0
    8.0074    2.3010    1.1952 H   0  0  0  0  0  0  0  0  0  0  0  0
    9.5802    1.9346    0.4816 H   0  0  0  0  0  0  0  0  0  0  0  0
    9.1062   -0.3540    1.2857 H   0  0  0  0  0  0  0  0  0  0  0  0
    6.8417   -1.2661    0.9335 H   0  0  0  0  0  0  0  0  0  0  0  0
  1  2  1  0
  2  3  2  0
  3  4  1  0
  4  5  2  0
  5  6  1  0
  6  7  2  0
  6  8  1  0
  8  9  1  0
  9 10  1  0
 10 11  1  0
 11 12  1  0
 12 13  1  0
 13 14  2  0
 14 15  1  0
 15 16  2  0
 16 17  1  0
 17 18  2  0
 16 19  1  0
 19 20  2  0
 19 21  1  0
 21 22  1  0
 22 23  1  0
 23 24  1  0
 24 25  1  0
 25 26  1  0
 26 27  2  0
 10 28  1  0
 28 29  2  0
 28 30  1  0
 30 31  2  0
  7  2  1  0
 30  8  1  0
 18 13  1  0
 27 22  1  0
  3 32  1  0
  4 33  1  0
  5 34  1  0
  7 35  1  0
  9 36  1  0
  9 37  1  0
 11 38  1  0
 11 39  1  0
 12 40  1  0
 12 41  1  0
 14 42  1  0
 15 43  1  0
 17 44  1  0
 18 45  1  0
 21 46  1  0
 22 47  1  0
 23 48  1  0
 23 49  1  0
 24 50  1  0
 24 51  1  0
 25 52  1  0
 25 53  1  0
 26 54  1  0
 27 55  1  0
M  END
$$$$
[H]c1nc([H])n(C([H])([H])c2nc(-c3c([H])c([H])c(C(F)(F)F)c([H])c3[H])no2)c1[H]
     RDKit          3D

 30 32  0  0  0  0  0  0  0  0999 V2000
   -6.4479   -0.3647   -0.6594 F   0  0  0  0  0  0  0  0  0  0  0  0
   -5.7864   -0.9857    0.4111 C   0  0  0  0  0  0  0  0  0  0  0  0
   -6.3340   -0.4170    1.5495 F   0  0  0  0  0  0  0  0  0  0  0  0
   -5.9860   -2.3378    0.4228 F   0  0  0  0  0  0  0  0  0  0  0  0
   -4.3629   -0.6939    0.2314 C   0  0  0  0  0  0  0  0  0  0  0  0
   -3.5517   -0.1760    1.1960 C   0  0  0  0  0  0  0  0  0  0  0  0
   -2.2272    0.1109    0.9732 C   0  0  0  0  0  0  0  0  0  0  0  0
   -1.6551   -0.1175   -0.2548 C   0  0  0  0  0  0  0  0  0  0  0  0
   -2.4448   -0.6443   -1.2505 C   0  0  0  0  0  0  0  0  0  0  0  0
   -3.7685   -0.9254   -1.0114 C   0  0  0  0  0  0  0  0  0  0  0  0
   -0.2640    0.2229   -0.5425 C   0  0  0  0  0  0  0  0  0  0  0  0
    0.3237    0.0110   -1.7400 N   0  0  0  0  0  0  0  0  0  0  0  0
    1.5263    0.4693   -1.6867 O   0  0  0  0  0  0  0  0  0  0  0  0
    1.7845    0.9887   -0.4804 C   0  0  0  0  0  0  0  0  0  0  0  0
    3.0845    1.5852   -0.1791 C   0  0  0  0  0  0  0  0  0  0  0  0
    4.1630    0.6862    0.0919 N   0  0  0  0  0  0  0  0  0  0  0  0
    5.0265    0.1803   -0.8021 C   0  0  0  0  0  0  0  0  0  0  0  0
    5.9359   -0.6171   -0.1780 C   0  0  0  0  0  0  0  0  0  0  0  0
    5.6332   -0.6080    1.1308 N   0  0  0  0  0  0  0  0  0  0  0  0
    4.5375    0.1997    1.2772 C   0  0  0  0  0  0  0  0  0  0  0  0
    0.6761    0.8269    0.2052 N   0  0  0  0  0  0  0  0  0  0  0  0
   -3.9413    0.0392    2.2046 H   0  0  0  0  0  0  0  0  0  0  0  0
   -1.6080    0.5169    1.7618 H   0  0  0  0  0  0  0  0  0  0  0  0
   -2.0131   -0.8382   -2.2320 H   0  0  0  0  0  0  0  0  0  0  0  0
   -4.4043   -1.3268   -1.8064 H   0  0  0  0  0  0  0  0  0  0  0  0
    3.3347    2.2576   -1.0632 H   0  0  0  0  0  0  0  0  0  0  0  0
    2.9938    2.3455    0.6741 H   0  0  0  0  0  0  0  0  0  0  0  0
    4.9462    0.4184   -1.8624 H   0  0  0  0  0  0  0  0  0  0  0  0
    6.7521   -1.1798   -0.6123 H   0  0  0  0  0  0  0  0  0  0  0  0
    4.0773    0.3733    2.2516 H   0  0  0  0  0  0  0  0  0  0  0  0
  1  2  1  0
  2  3  1  0
  2  4  1  0
  2  5  1  0
  5  6  2  0
  6  7  1  0
  7  8  2  0
  8  9  1  0
  9 10  2  0
  8 11  1  0
 11 12  2  0
 12 13  1  0
 13 14  1  0
 14 15  1  0
 15 16  1  0
 16 17  1  0
 17 18  2  0
 18 19  1  0
 19 20  2  0
 14 21  2  0
 10  5  1  0
 21 11  1  0
 20 16  1  0
  6 22  1  0
  7 23  1  0
  9 24  1  0
 10 25  1  0
 15 26  1  0
 15 27  1  0
 17 28  1  0
 18 29  1  0
 20 30  1  0
M  END
$$$$
[H]N=C(N([H])[H])N([H])C([H])([H])C([H])([H])[C@@]([H])(C(=O)c1nc([H])c([H])s1)N([H])C(=O)[C@@]([H])(N([H])C(=O)[C@@]([H])(N([H])C(=O)C([H])([H])[H])C([H])([H])C([H])([H])S(=O)(=O)C([H])([H])[H])C([H])([H])C([H])(C([H])([H])[H])C([H])([H])[H]
     RDKit          3D

 71 71  0  0  0  0  0  0  0  0999 V2000
   -0.2500   -1.7011   -4.0121 C   0  0  0  0  0  0  0  0  0  0  0  0
   -0.4726   -0.8375   -2.7508 C   0  0  0  0  0  0  0  0  0  0  0  0
   -1.7606   -0.1250   -2.9799 C   0  0  0  0  0  0  0  0  0  0  0  0
   -0.4092   -1.7613   -1.6011 C   0  0  0  0  0  0  0  0  0  0  0  0
   -0.5845   -1.2159   -0.2374 C   0  0  2  0  0  0  0  0  0  0  0  0
   -1.7962   -0.5598    0.0789 N   0  0  0  0  0  0  0  0  0  0  0  0
   -2.7295   -1.0728    1.0096 C   0  0  0  0  0  0  0  0  0  0  0  0
   -2.5386   -2.1467    1.6174 O   0  0  0  0  0  0  0  0  0  0  0  0
   -4.0150   -0.3390    1.3156 C   0  0  2  0  0  0  0  0  0  0  0  0
   -3.7120    1.0444    1.7827 C   0  0  0  0  0  0  0  0  0  0  0  0
   -4.9208    1.8527    2.0775 C   0  0  0  0  0  0  0  0  0  0  0  0
   -5.9593    2.1853    0.6866 S   0  0  0  0  0  0  0  0  0  0  0  0
   -5.0855    3.0789   -0.5840 C   0  0  0  0  0  0  0  0  0  0  0  0
   -6.6293    0.9999    0.1209 O   0  0  0  0  0  0  0  0  0  0  0  0
   -7.0552    3.1226    1.1845 O   0  0  0  0  0  0  0  0  0  0  0  0
   -4.7704   -1.0892    2.3018 N   0  0  0  0  0  0  0  0  0  0  0  0
   -5.7924   -1.9971    1.9432 C   0  0  0  0  0  0  0  0  0  0  0  0
   -6.5390   -2.7324    2.9981 C   0  0  0  0  0  0  0  0  0  0  0  0
   -6.1410   -2.2477    0.7543 O   0  0  0  0  0  0  0  0  0  0  0  0
    0.5710   -0.4370    0.2862 C   0  0  0  0  0  0  0  0  0  0  0  0
    0.3909    0.3267    1.2754 O   0  0  0  0  0  0  0  0  0  0  0  0
    1.8802   -0.4919   -0.2553 N   0  0  0  0  0  0  0  0  0  0  0  0
    2.9789    0.2863    0.3235 C   0  0  1  0  0  0  0  0  0  0  0  0
    4.1854   -0.5924    0.5294 C   0  0  0  0  0  0  0  0  0  0  0  0
    4.7065   -1.2022   -0.7508 C   0  0  0  0  0  0  0  0  0  0  0  0
    5.8714   -2.0172   -0.4070 N   0  0  0  0  0  0  0  0  0  0  0  0
    7.0845   -1.4480    0.0478 C   0  0  0  0  0  0  0  0  0  0  0  0
    7.6113   -0.2654   -0.5029 N   0  0  0  0  0  0  0  0  0  0  0  0
    7.7212   -2.0357    0.9984 N   0  0  0  0  0  0  0  0  0  0  0  0
    3.3505    1.4088   -0.5545 C   0  0  0  0  0  0  0  0  0  0  0  0
    2.8260    1.5562   -1.6650 O   0  0  0  0  0  0  0  0  0  0  0  0
    4.3532    2.3666   -0.1054 C   0  0  0  0  0  0  0  0  0  0  0  0
    5.0288    2.4134    1.0367 N   0  0  0  0  0  0  0  0  0  0  0  0
    5.8836    3.3431    1.2612 C   0  0  0  0  0  0  0  0  0  0  0  0
    6.0785    4.2899    0.2828 C   0  0  0  0  0  0  0  0  0  0  0  0
    4.9866    3.7568   -0.9226 S   0  0  0  0  0  0  0  0  0  0  0  0
   -0.7829   -2.6825   -3.9061 H   0  0  0  0  0  0  0  0  0  0  0  0
   -0.7021   -1.2151   -4.8921 H   0  0  0  0  0  0  0  0  0  0  0  0
    0.8019   -1.9088   -4.1994 H   0  0  0  0  0  0  0  0  0  0  0  0
    0.3417   -0.0793   -2.7607 H   0  0  0  0  0  0  0  0  0  0  0  0
   -1.7144    0.9509   -2.6325 H   0  0  0  0  0  0  0  0  0  0  0  0
   -2.6458   -0.5640   -2.4836 H   0  0  0  0  0  0  0  0  0  0  0  0
   -2.0353   -0.0768   -4.0697 H   0  0  0  0  0  0  0  0  0  0  0  0
    0.5935   -2.2743   -1.6442 H   0  0  0  0  0  0  0  0  0  0  0  0
   -1.1271   -2.6116   -1.8041 H   0  0  0  0  0  0  0  0  0  0  0  0
   -0.5780   -2.1623    0.4372 H   0  0  0  0  0  0  0  0  0  0  0  0
   -2.0474    0.3567   -0.3711 H   0  0  0  0  0  0  0  0  0  0  0  0
   -4.5661   -0.3326    0.3753 H   0  0  0  0  0  0  0  0  0  0  0  0
   -3.0877    1.5163    0.9749 H   0  0  0  0  0  0  0  0  0  0  0  0
   -3.0774    1.0066    2.7185 H   0  0  0  0  0  0  0  0  0  0  0  0
   -4.6336    2.8504    2.5189 H   0  0  0  0  0  0  0  0  0  0  0  0
   -5.5772    1.3748    2.8539 H   0  0  0  0  0  0  0  0  0  0  0  0
   -4.0145    2.8217   -0.6241 H   0  0  0  0  0  0  0  0  0  0  0  0
   -5.5539    2.8358   -1.5579 H   0  0  0  0  0  0  0  0  0  0  0  0
   -5.1379    4.1741   -0.4350 H   0  0  0  0  0  0  0  0  0  0  0  0
   -4.5729   -0.9762    3.3377 H   0  0  0  0  0  0  0  0  0  0  0  0
   -6.8466   -3.7062    2.6162 H   0  0  0  0  0  0  0  0  0  0  0  0
   -7.4472   -2.1047    3.2225 H   0  0  0  0  0  0  0  0  0  0  0  0
   -5.8728   -2.7888    3.8887 H   0  0  0  0  0  0  0  0  0  0  0  0
    2.1092   -1.0705   -1.0729 H   0  0  0  0  0  0  0  0  0  0  0  0
    2.6232    0.6324    1.3163 H   0  0  0  0  0  0  0  0  0  0  0  0
    4.9846   -0.0706    1.0631 H   0  0  0  0  0  0  0  0  0  0  0  0
    3.9133   -1.4597    1.1936 H   0  0  0  0  0  0  0  0  0  0  0  0
    4.9780   -0.4261   -1.5037 H   0  0  0  0  0  0  0  0  0  0  0  0
    3.9484   -1.8878   -1.1449 H   0  0  0  0  0  0  0  0  0  0  0  0
    5.8594   -3.0642   -0.4833 H   0  0  0  0  0  0  0  0  0  0  0  0
    8.5186   -0.3051   -1.0046 H   0  0  0  0  0  0  0  0  0  0  0  0
    7.1324    0.6501   -0.4288 H   0  0  0  0  0  0  0  0  0  0  0  0
    8.6292   -1.6832    1.3972 H   0  0  0  0  0  0  0  0  0  0  0  0
    6.4682    3.4169    2.2043 H   0  0  0  0  0  0  0  0  0  0  0  0
    6.7719    5.1477    0.3167 H   0  0  0  0  0  0  0  0  0  0  0  0
  1  2  1  0
  2  3  1  0
  2  4  1  0
  4  5  1  0
  5  6  1  0
  6  7  1  0
  7  8  2  0
  7  9  1  0
  9 10  1  0
 10 11  1  0
 11 12  1  0
 12 13  1  0
 12 14  2  0
 12 15  2  0
  9 16  1  0
 16 17  1  0
 17 18  1  0
 17 19  2  0
  5 20  1  0
 20 21  2  0
 20 22  1  0
 22 23  1  0
 23 24  1  0
 24 25  1  0
 25 26  1  0
 26 27  1  0
 27 28  1  0
 27 29  2  3
 23 30  1  0
 30 31  2  0
 30 32  1  0
 32 33  2  0
 33 34  1  0
 34 35  2  0
 35 36  1  0
 36 32  1  0
  1 37  1  0
  1 38  1  0
  1 39  1  0
  2 40  1  0
  3 41  1  0
  3 42  1  0
  3 43  1  0
  4 44  1  0
  4 45  1  0
  5 46  1  1
  6 47  1  0
  9 48  1  6
 10 49  1  0
 10 50  1  0
 11 51  1  0
 11 52  1  0
 13 53  1  0
 13 54  1  0
 13 55  1  0
 16 56  1  0
 18 57  1  0
 18 58  1  0
 18 59  1  0
 22 60  1  0
 23 61  1  1
 24 62  1  0
 24 63  1  0
 25 64  1  0
 25 65  1  0
 26 66  1  0
 28 67  1  0
 28 68  1  0
 29 69  1  0
 34 70  1  0
 35 71  1  0
M  END
$$$$
[H]c1c([H])c(OC([H])([H])C(=O)N([H])Oc2nc3c([H])c([H])c(F)c([H])c3c([H])c2[H])c([H])c(C([H])([H])C([H])([H])C([H])([H])C([H])([H])[H])c1[H]
     RDKit          3D

 48 50  0  0  0  0  0  0  0  0999 V2000
    8.3380    2.0884   -0.0444 C   0  0  0  0  0  0  0  0  0  0  0  0
    7.0953    2.8089   -0.4767 C   0  0  0  0  0  0  0  0  0  0  0  0
    6.0091    1.8704   -0.9815 C   0  0  0  0  0  0  0  0  0  0  0  0
    5.6433    0.8607    0.0848 C   0  0  0  0  0  0  0  0  0  0  0  0
    4.5354    0.0028   -0.4150 C   0  0  0  0  0  0  0  0  0  0  0  0
    4.6989   -1.1153   -1.1876 C   0  0  0  0  0  0  0  0  0  0  0  0
    3.6207   -1.8889   -1.5755 C   0  0  0  0  0  0  0  0  0  0  0  0
    2.3297   -1.5768   -1.2061 C   0  0  0  0  0  0  0  0  0  0  0  0
    2.1256   -0.4459   -0.4198 C   0  0  0  0  0  0  0  0  0  0  0  0
    0.9473   -0.0904   -0.0294 O   0  0  0  0  0  0  0  0  0  0  0  0
   -0.2865    0.1442    0.2869 C   0  0  0  0  0  0  0  0  0  0  0  0
   -0.9331   -1.0149    1.0678 C   0  0  0  0  0  0  0  0  0  0  0  0
   -0.2039   -2.0648    1.1693 O   0  0  0  0  0  0  0  0  0  0  0  0
   -2.1825   -0.8271    1.5643 N   0  0  0  0  0  0  0  0  0  0  0  0
   -3.3665   -0.6498    2.0351 O   0  0  0  0  0  0  0  0  0  0  0  0
   -4.6041   -0.8312    1.4970 C   0  0  0  0  0  0  0  0  0  0  0  0
   -5.2397   -2.0778    1.5142 C   0  0  0  0  0  0  0  0  0  0  0  0
   -6.4918   -2.2590    0.9774 C   0  0  0  0  0  0  0  0  0  0  0  0
   -7.1763   -1.2102    0.3948 C   0  0  0  0  0  0  0  0  0  0  0  0
   -8.4513   -1.3473   -0.1505 C   0  0  0  0  0  0  0  0  0  0  0  0
   -9.0969   -0.2571   -0.7110 C   0  0  0  0  0  0  0  0  0  0  0  0
  -10.3324   -0.4261   -1.2391 F   0  0  0  0  0  0  0  0  0  0  0  0
   -8.4760    0.9774   -0.7337 C   0  0  0  0  0  0  0  0  0  0  0  0
   -7.2159    1.0725   -0.1855 C   0  0  0  0  0  0  0  0  0  0  0  0
   -6.5352    0.0129    0.3857 C   0  0  0  0  0  0  0  0  0  0  0  0
   -5.2934    0.1733    0.9227 N   0  0  0  0  0  0  0  0  0  0  0  0
    3.2391    0.3112   -0.0487 C   0  0  0  0  0  0  0  0  0  0  0  0
    9.2010    2.8121   -0.0303 H   0  0  0  0  0  0  0  0  0  0  0  0
    8.1687    1.6860    1.0016 H   0  0  0  0  0  0  0  0  0  0  0  0
    8.5938    1.2702   -0.7264 H   0  0  0  0  0  0  0  0  0  0  0  0
    6.7381    3.4368    0.3651 H   0  0  0  0  0  0  0  0  0  0  0  0
    7.3435    3.5239   -1.3160 H   0  0  0  0  0  0  0  0  0  0  0  0
    5.1380    2.4873   -1.2449 H   0  0  0  0  0  0  0  0  0  0  0  0
    6.3753    1.3143   -1.8715 H   0  0  0  0  0  0  0  0  0  0  0  0
    6.4978    0.1985    0.3487 H   0  0  0  0  0  0  0  0  0  0  0  0
    5.2723    1.3641    1.0216 H   0  0  0  0  0  0  0  0  0  0  0  0
    5.6730   -1.4001   -1.5086 H   0  0  0  0  0  0  0  0  0  0  0  0
    3.7595   -2.7886   -2.1909 H   0  0  0  0  0  0  0  0  0  0  0  0
    1.4749   -2.1704   -1.5081 H   0  0  0  0  0  0  0  0  0  0  0  0
   -1.0237    0.4061   -0.5421 H   0  0  0  0  0  0  0  0  0  0  0  0
   -0.3924    1.0500    0.9676 H   0  0  0  0  0  0  0  0  0  0  0  0
   -2.2063   -2.0684    2.1342 H   0  0  0  0  0  0  0  0  0  0  0  0
   -4.6926   -2.9095    1.9807 H   0  0  0  0  0  0  0  0  0  0  0  0
   -6.9883   -3.2321    0.9968 H   0  0  0  0  0  0  0  0  0  0  0  0
   -8.9368   -2.3135   -0.1333 H   0  0  0  0  0  0  0  0  0  0  0  0
   -8.9793    1.8511   -1.1784 H   0  0  0  0  0  0  0  0  0  0  0  0
   -6.7444    2.0525   -0.2140 H   0  0  0  0  0  0  0  0  0  0  0  0
    3.0308    1.1900    0.5651 H   0  0  0  0  0  0  0  0  0  0  0  0
  1  2  1  0
  2  3  1  0
  3  4  1  0
  4  5  1  0
  5  6  2  0
  6  7  1  0
  7  8  2  0
  8  9  1  0
  9 10  1  0
 10 11  1  0
 11 12  1  0
 12 13  2  0
 12 14  1  0
 14 15  1  0
 15 16  1  0
 16 17  2  0
 17 18  1  0
 18 19  2  0
 19 20  1  0
 20 21  2  0
 21 22  1  0
 21 23  1  0
 23 24  2  0
 24 25  1  0
 25 26  2  0
  9 27  2  0
 27  5  1  0
 26 16  1  0
 25 19  1  0
  1 28  1  0
  1 29  1  0
  1 30  1  0
  2 31  1  0
  2 32  1  0
  3 33  1  0
  3 34  1  0
  4 35  1  0
  4 36  1  0
  6 37  1  0
  7 38  1  0
  8 39  1  0
 11 40  1  0
 11 41  1  0
 14 42  1  0
 17 43  1  0
 18 44  1  0
 20 45  1  0
 23 46  1  0
 24 47  1  0
 27 48  1  0
M  END
$$$$
[H]O[C@]1([H])[C@@]([H])(C([H])([H])OS(=O)(=O)N([H])C(=O)[C@@]([H])(N([H])[H])C([H])(C([H])([H])[H])C([H])([H])[H])O[C@@]([H])(n2c([H])nc3c(N([H])[H])nc([H])nc32)[C@]1([H])O[H]
     RDKit          3D

 53 55  0  0  0  0  0  0  0  0999 V2000
   -6.4789   -1.1689    1.3555 C   0  0  0  0  0  0  0  0  0  0  0  0
   -5.2288   -0.4974    0.8693 C   0  0  0  0  0  0  0  0  0  0  0  0
   -4.8532   -0.9135   -0.5293 C   0  0  0  0  0  0  0  0  0  0  0  0
   -5.4383    1.0154    0.9144 C   0  0  2  0  0  0  0  0  0  0  0  0
   -6.5896    1.3172    0.0453 N   0  0  0  0  0  0  0  0  0  0  0  0
   -4.2460    1.6181    0.2907 C   0  0  0  0  0  0  0  0  0  0  0  0
   -4.3365    2.1689   -0.8262 O   0  0  0  0  0  0  0  0  0  0  0  0
   -2.9991    1.5902    0.9249 N   0  0  0  0  0  0  0  0  0  0  0  0
   -1.5716    2.2814    0.2458 S   0  0  0  0  0  0  0  0  0  0  0  0
   -1.2738    3.5454    0.9655 O   0  0  0  0  0  0  0  0  0  0  0  0
   -1.9326    2.6581   -1.1880 O   0  0  0  0  0  0  0  0  0  0  0  0
   -0.2936    1.2354    0.1652 O   0  0  0  0  0  0  0  0  0  0  0  0
   -0.5545    0.2709   -0.8105 C   0  0  0  0  0  0  0  0  0  0  0  0
    0.6048   -0.7053   -0.9512 C   0  0  1  0  0  0  0  0  0  0  0  0
    1.7692   -0.0392   -1.3202 O   0  0  0  0  0  0  0  0  0  0  0  0
    2.7995   -0.8902   -0.9414 C   0  0  2  0  0  0  0  0  0  0  0  0
    2.4001   -1.3459    0.4147 C   0  0  2  0  0  0  0  0  0  0  0  0
    2.8604   -2.6289    0.7172 O   0  0  0  0  0  0  0  0  0  0  0  0
    0.8929   -1.4508    0.3092 C   0  0  2  0  0  0  0  0  0  0  0  0
    0.4973   -2.7846    0.1188 O   0  0  0  0  0  0  0  0  0  0  0  0
    4.0709   -0.1903   -0.9708 N   0  0  0  0  0  0  0  0  0  0  0  0
    4.3313    0.7295   -1.9335 C   0  0  0  0  0  0  0  0  0  0  0  0
    5.5512    1.2246   -1.7342 N   0  0  0  0  0  0  0  0  0  0  0  0
    6.0881    0.6393   -0.6546 C   0  0  0  0  0  0  0  0  0  0  0  0
    7.3108    0.7634    0.0047 C   0  0  0  0  0  0  0  0  0  0  0  0
    8.2306    1.6923   -0.5321 N   0  0  0  0  0  0  0  0  0  0  0  0
    7.4915   -0.0040    1.0720 N   0  0  0  0  0  0  0  0  0  0  0  0
    6.5706   -0.8708    1.5302 C   0  0  0  0  0  0  0  0  0  0  0  0
    5.3788   -0.9958    0.8923 N   0  0  0  0  0  0  0  0  0  0  0  0
    5.1407   -0.2452   -0.1917 C   0  0  0  0  0  0  0  0  0  0  0  0
   -6.3413   -2.2870    1.3543 H   0  0  0  0  0  0  0  0  0  0  0  0
   -6.6934   -0.8094    2.3781 H   0  0  0  0  0  0  0  0  0  0  0  0
   -7.3708   -0.9060    0.7434 H   0  0  0  0  0  0  0  0  0  0  0  0
   -4.4040   -0.8106    1.5392 H   0  0  0  0  0  0  0  0  0  0  0  0
   -5.0886   -1.9703   -0.6862 H   0  0  0  0  0  0  0  0  0  0  0  0
   -5.3747   -0.2742   -1.2968 H   0  0  0  0  0  0  0  0  0  0  0  0
   -3.7797   -0.7411   -0.6682 H   0  0  0  0  0  0  0  0  0  0  0  0
   -5.6527    1.3769    1.9311 H   0  0  0  0  0  0  0  0  0  0  0  0
   -7.4287    1.4237    0.6612 H   0  0  0  0  0  0  0  0  0  0  0  0
   -6.3703    2.1981   -0.4781 H   0  0  0  0  0  0  0  0  0  0  0  0
   -2.9131    1.1350    1.8573 H   0  0  0  0  0  0  0  0  0  0  0  0
   -0.6627    0.7694   -1.7824 H   0  0  0  0  0  0  0  0  0  0  0  0
   -1.4536   -0.2731   -0.5145 H   0  0  0  0  0  0  0  0  0  0  0  0
    0.3408   -1.3795   -1.8069 H   0  0  0  0  0  0  0  0  0  0  0  0
    2.8008   -1.7669   -1.6278 H   0  0  0  0  0  0  0  0  0  0  0  0
    2.6435   -0.6152    1.2133 H   0  0  0  0  0  0  0  0  0  0  0  0
    2.8715   -2.7100    1.7044 H   0  0  0  0  0  0  0  0  0  0  0  0
    0.3803   -1.0329    1.1997 H   0  0  0  0  0  0  0  0  0  0  0  0
    0.6436   -3.0213   -0.8400 H   0  0  0  0  0  0  0  0  0  0  0  0
    3.6735    1.0377   -2.7526 H   0  0  0  0  0  0  0  0  0  0  0  0
    8.9506    1.3942   -1.2182 H   0  0  0  0  0  0  0  0  0  0  0  0
    8.2089    2.6915   -0.2549 H   0  0  0  0  0  0  0  0  0  0  0  0
    6.8282   -1.4480    2.4183 H   0  0  0  0  0  0  0  0  0  0  0  0
  1  2  1  0
  2  3  1  0
  2  4  1  0
  4  5  1  0
  4  6  1  0
  6  7  2  0
  6  8  1  0
  8  9  1  0
  9 10  2  0
  9 11  2  0
  9 12  1  0
 12 13  1  0
 13 14  1  0
 14 15  1  0
 15 16  1  0
 16 17  1  0
 17 18  1  0
 17 19  1  0
 19 20  1  0
 16 21  1  0
 21 22  1  0
 22 23  2  0
 23 24  1  0
 24 25  2  0
 25 26  1  0
 25 27  1  0
 27 28  2  0
 28 29  1  0
 29 30  2  0
 19 14  1  0
 30 21  1  0
 30 24  1  0
  1 31  1  0
  1 32  1  0
  1 33  1  0
  2 34  1  0
  3 35  1  0
  3 36  1  0
  3 37  1  0
  4 38  1  1
  5 39  1  0
  5 40  1  0
  8 41  1  0
 13 42  1  0
 13 43  1  0
 14 44  1  6
 16 45  1  6
 17 46  1  1
 18 47  1  0
 19 48  1  1
 20 49  1  0
 22 50  1  0
 26 51  1  0
 26 52  1  0
 28 53  1  0
M  END
$$$$
[H]OC(=O)c1nc(C(=O)c2c([H])c([H])c(O[H])c(O[H])c2[H])c2c([H])c(O[H])c(O[H])c([H])c2c1[H]
     RDKit          3D

 36 38  0  0  0  0  0  0  0  0999 V2000
   -3.6175   -0.8541    4.0404 O   0  0  0  0  0  0  0  0  0  0  0  0
   -2.3728   -1.1062    3.5337 C   0  0  0  0  0  0  0  0  0  0  0  0
   -1.4406   -1.5815    4.2595 O   0  0  0  0  0  0  0  0  0  0  0  0
   -2.0652   -0.8398    2.1358 C   0  0  0  0  0  0  0  0  0  0  0  0
   -3.0048   -0.3341    1.2697 C   0  0  0  0  0  0  0  0  0  0  0  0
   -2.6685   -0.1026   -0.0408 C   0  0  0  0  0  0  0  0  0  0  0  0
   -3.6176    0.4163   -0.9069 C   0  0  0  0  0  0  0  0  0  0  0  0
   -3.2274    0.6478   -2.2344 C   0  0  0  0  0  0  0  0  0  0  0  0
   -4.1579    1.1637   -3.1015 O   0  0  0  0  0  0  0  0  0  0  0  0
   -1.9568    0.3707   -2.6560 C   0  0  0  0  0  0  0  0  0  0  0  0
   -1.5175    0.5776   -3.9456 O   0  0  0  0  0  0  0  0  0  0  0  0
   -1.0123   -0.1538   -1.7680 C   0  0  0  0  0  0  0  0  0  0  0  0
   -1.3830   -0.3839   -0.4701 C   0  0  0  0  0  0  0  0  0  0  0  0
   -0.4301   -0.8955    0.4005 C   0  0  0  0  0  0  0  0  0  0  0  0
   -0.8217   -1.0961    1.6609 N   0  0  0  0  0  0  0  0  0  0  0  0
    0.8926   -1.2010   -0.1127 C   0  0  0  0  0  0  0  0  0  0  0  0
    0.9262   -2.1963   -0.9276 O   0  0  0  0  0  0  0  0  0  0  0  0
    2.1046   -0.4844    0.2191 C   0  0  0  0  0  0  0  0  0  0  0  0
    2.2568    0.2907    1.3381 C   0  0  0  0  0  0  0  0  0  0  0  0
    3.4397    0.9783    1.5975 C   0  0  0  0  0  0  0  0  0  0  0  0
    4.4997    0.8815    0.7035 C   0  0  0  0  0  0  0  0  0  0  0  0
    5.6983    1.5592    0.9339 O   0  0  0  0  0  0  0  0  0  0  0  0
    4.3622    0.1133   -0.4136 C   0  0  0  0  0  0  0  0  0  0  0  0
    5.4472    0.0292   -1.3054 O   0  0  0  0  0  0  0  0  0  0  0  0
    3.1774   -0.5585   -0.6472 C   0  0  0  0  0  0  0  0  0  0  0  0
   -4.2208   -0.1474    3.6345 H   0  0  0  0  0  0  0  0  0  0  0  0
   -3.9935   -0.1202    1.6110 H   0  0  0  0  0  0  0  0  0  0  0  0
   -4.6178    0.6314   -0.5582 H   0  0  0  0  0  0  0  0  0  0  0  0
   -3.9666    1.3535   -4.0610 H   0  0  0  0  0  0  0  0  0  0  0  0
   -2.1322    0.9525   -4.6339 H   0  0  0  0  0  0  0  0  0  0  0  0
   -0.0079   -0.3577   -2.1141 H   0  0  0  0  0  0  0  0  0  0  0  0
    1.4684    0.4012    2.0642 H   0  0  0  0  0  0  0  0  0  0  0  0
    3.5901    1.5958    2.4698 H   0  0  0  0  0  0  0  0  0  0  0  0
    5.8903    2.1430    1.7209 H   0  0  0  0  0  0  0  0  0  0  0  0
    5.3935   -0.5247   -2.1532 H   0  0  0  0  0  0  0  0  0  0  0  0
    3.0858   -1.1680   -1.5427 H   0  0  0  0  0  0  0  0  0  0  0  0
  1  2  1  0
  2  3  2  0
  2  4  1  0
  4  5  2  0
  5  6  1  0
  6  7  2  0
  7  8  1  0
  8  9  1  0
  8 10  2  0
 10 11  1  0
 10 12  1  0
 12 13  2  0
 13 14  1  0
 14 15  2  0
 14 16  1  0
 16 17  2  0
 16 18  1  0
 18 19  2  0
 19 20  1  0
 20 21  2  0
 21 22  1  0
 21 23  1  0
 23 24  1  0
 23 25  2  0
 15  4  1  0
 25 18  1  0
 13  6  1  0
  1 26  1  0
  5 27  1  0
  7 28  1  0
  9 29  1  0
 11 30  1  0
 12 31  1  0
 19 32  1  0
 20 33  1  0
 22 34  1  0
 24 35  1  0
 25 36  1  0
M  END
$$$$
[H]OC(=O)c1sc2c([H])c([H])c(C(=O)C([H])(N([H])C(=O)c3oc4c([H])c([H])c([H])c([H])c4c3[H])C([H])([H])C([H])([H])C(=O)O[H])c([H])c2c1[H]
     RDKit          3D

 49 52  0  0  0  0  0  0  0  0999 V2000
   -8.5337    2.2948    0.0800 O   0  0  0  0  0  0  0  0  0  0  0  0
   -7.2951    2.1244    0.6790 C   0  0  0  0  0  0  0  0  0  0  0  0
   -7.0999    2.5357    1.8239 O   0  0  0  0  0  0  0  0  0  0  0  0
   -6.2356    1.4397   -0.1003 C   0  0  0  0  0  0  0  0  0  0  0  0
   -4.9556    1.1681    0.2916 C   0  0  0  0  0  0  0  0  0  0  0  0
   -4.1610    0.5308   -0.5977 C   0  0  0  0  0  0  0  0  0  0  0  0
   -2.8182    0.1513   -0.4218 C   0  0  0  0  0  0  0  0  0  0  0  0
   -2.1164   -0.4921   -1.4074 C   0  0  0  0  0  0  0  0  0  0  0  0
   -2.6920   -0.8085   -2.6442 C   0  0  0  0  0  0  0  0  0  0  0  0
   -4.0065   -0.4335   -2.8078 C   0  0  0  0  0  0  0  0  0  0  0  0
   -4.7097    0.2159   -1.8084 C   0  0  0  0  0  0  0  0  0  0  0  0
   -6.3002    0.8069   -1.6822 S   0  0  0  0  0  0  0  0  0  0  0  0
   -0.7131   -0.8988   -1.2025 C   0  0  0  0  0  0  0  0  0  0  0  0
   -0.1257   -1.4141   -2.2153 O   0  0  0  0  0  0  0  0  0  0  0  0
    0.0282   -0.7525    0.0515 C   0  0  0  0  0  0  0  0  0  0  0  0
   -0.0297   -1.9937    0.9165 C   0  0  0  0  0  0  0  0  0  0  0  0
   -1.3783   -2.4307    1.3369 C   0  0  0  0  0  0  0  0  0  0  0  0
   -1.2340   -3.6503    2.1745 C   0  0  0  0  0  0  0  0  0  0  0  0
   -2.4366   -4.1948    2.6632 O   0  0  0  0  0  0  0  0  0  0  0  0
   -0.1454   -4.1907    2.4527 O   0  0  0  0  0  0  0  0  0  0  0  0
    1.4522   -0.5210   -0.1948 N   0  0  0  0  0  0  0  0  0  0  0  0
    2.1465    0.5860    0.2933 C   0  0  0  0  0  0  0  0  0  0  0  0
    1.4989    1.4329    0.9915 O   0  0  0  0  0  0  0  0  0  0  0  0
    3.5558    0.8571    0.0714 C   0  0  0  0  0  0  0  0  0  0  0  0
    4.2691    1.9340    0.5537 C   0  0  0  0  0  0  0  0  0  0  0  0
    5.5750    1.8354    0.1264 C   0  0  0  0  0  0  0  0  0  0  0  0
    6.6971    2.6112    0.3034 C   0  0  0  0  0  0  0  0  0  0  0  0
    7.9067    2.2583   -0.2583 C   0  0  0  0  0  0  0  0  0  0  0  0
    7.9579    1.1041   -1.0032 C   0  0  0  0  0  0  0  0  0  0  0  0
    6.8311    0.3320   -1.1767 C   0  0  0  0  0  0  0  0  0  0  0  0
    5.6069    0.6668   -0.6223 C   0  0  0  0  0  0  0  0  0  0  0  0
    4.4113    0.1355   -0.6243 O   0  0  0  0  0  0  0  0  0  0  0  0
   -8.6377    2.8102   -0.7955 H   0  0  0  0  0  0  0  0  0  0  0  0
   -4.6443    1.4877    1.3186 H   0  0  0  0  0  0  0  0  0  0  0  0
   -2.3122    0.3749    0.5004 H   0  0  0  0  0  0  0  0  0  0  0  0
   -2.1301   -1.3147   -3.4136 H   0  0  0  0  0  0  0  0  0  0  0  0
   -4.5042   -0.6563   -3.7552 H   0  0  0  0  0  0  0  0  0  0  0  0
   -0.3480    0.0897    0.6309 H   0  0  0  0  0  0  0  0  0  0  0  0
    0.5598   -1.7571    1.8422 H   0  0  0  0  0  0  0  0  0  0  0  0
    0.4980   -2.8508    0.4500 H   0  0  0  0  0  0  0  0  0  0  0  0
   -1.9066   -1.6798    1.9753 H   0  0  0  0  0  0  0  0  0  0  0  0
   -2.0139   -2.7497    0.4747 H   0  0  0  0  0  0  0  0  0  0  0  0
   -2.6718   -5.1662    2.5751 H   0  0  0  0  0  0  0  0  0  0  0  0
    1.9457   -1.2330   -0.7659 H   0  0  0  0  0  0  0  0  0  0  0  0
    3.9238    2.7596    1.1731 H   0  0  0  0  0  0  0  0  0  0  0  0
    6.6434    3.5257    0.8978 H   0  0  0  0  0  0  0  0  0  0  0  0
    8.8119    2.8459   -0.1396 H   0  0  0  0  0  0  0  0  0  0  0  0
    8.9223    0.8378   -1.4418 H   0  0  0  0  0  0  0  0  0  0  0  0
    6.9140   -0.5638   -1.7668 H   0  0  0  0  0  0  0  0  0  0  0  0
  1  2  1  0
  2  3  2  0
  2  4  1  0
  4  5  2  0
  5  6  1  0
  6  7  2  0
  7  8  1  0
  8  9  2  0
  9 10  1  0
 10 11  2  0
 11 12  1  0
  8 13  1  0
 13 14  2  0
 13 15  1  0
 15 16  1  0
 16 17  1  0
 17 18  1  0
 18 19  1  0
 18 20  2  0
 15 21  1  0
 21 22  1  0
 22 23  2  0
 22 24  1  0
 24 25  2  0
 25 26  1  0
 26 27  2  0
 27 28  1  0
 28 29  2  0
 29 30  1  0
 30 31  2  0
 31 32  1  0
 12  4  1  0
 32 24  1  0
 11  6  1  0
 31 26  1  0
  1 33  1  0
  5 34  1  0
  7 35  1  0
  9 36  1  0
 10 37  1  0
 15 38  1  0
 16 39  1  0
 16 40  1  0
 17 41  1  0
 17 42  1  0
 19 43  1  0
 21 44  1  0
 25 45  1  0
 27 46  1  0
 28 47  1  0
 29 48  1  0
 30 49  1  0
M  END
$$$$
[H]OC(=O)C([H])([H])c1c([H])c([H])c(OC([H])([H])C([H])([H])C([H])([H])C([H])([H])C([H])([H])c2c([H])c([H])c(Cl)c(Cl)c2[H])c([H])c1[H]
     RDKit          3D

 44 45  0  0  0  0  0  0  0  0999 V2000
   -8.6029    1.2722    0.5683 O   0  0  0  0  0  0  0  0  0  0  0  0
   -7.2280    1.2259    0.5193 C   0  0  0  0  0  0  0  0  0  0  0  0
   -6.5942    1.8550    1.4047 O   0  0  0  0  0  0  0  0  0  0  0  0
   -6.4945    0.4593   -0.5426 C   0  0  0  0  0  0  0  0  0  0  0  0
   -5.0265    0.5833   -0.3529 C   0  0  0  0  0  0  0  0  0  0  0  0
   -4.3094   -0.3002    0.4174 C   0  0  0  0  0  0  0  0  0  0  0  0
   -2.9309   -0.1804    0.5933 C   0  0  0  0  0  0  0  0  0  0  0  0
   -2.2071    0.8288    0.0049 C   0  0  0  0  0  0  0  0  0  0  0  0
   -0.8581    1.0244    0.1139 O   0  0  0  0  0  0  0  0  0  0  0  0
    0.0917    0.2902    0.7671 C   0  0  0  0  0  0  0  0  0  0  0  0
    0.2722   -1.0637    0.1723 C   0  0  0  0  0  0  0  0  0  0  0  0
    1.2991   -1.8976    0.8798 C   0  0  0  0  0  0  0  0  0  0  0  0
    2.6555   -1.2991    0.8993 C   0  0  0  0  0  0  0  0  0  0  0  0
    3.1719   -1.0991   -0.4943 C   0  0  0  0  0  0  0  0  0  0  0  0
    4.5279   -0.5129   -0.3854 C   0  0  0  0  0  0  0  0  0  0  0  0
    5.6531   -1.3076   -0.3150 C   0  0  0  0  0  0  0  0  0  0  0  0
    6.9033   -0.7348   -0.2141 C   0  0  0  0  0  0  0  0  0  0  0  0
    7.0616    0.6273   -0.1812 C   0  0  0  0  0  0  0  0  0  0  0  0
    8.6186    1.4065   -0.0545 Cl  0  0  0  0  0  0  0  0  0  0  0  0
    5.9376    1.4392   -0.2513 C   0  0  0  0  0  0  0  0  0  0  0  0
    6.0887    3.1715   -0.2131 Cl  0  0  0  0  0  0  0  0  0  0  0  0
    4.6821    0.8482   -0.3529 C   0  0  0  0  0  0  0  0  0  0  0  0
   -2.9637    1.7245   -0.7808 C   0  0  0  0  0  0  0  0  0  0  0  0
   -4.3164    1.6023   -0.9494 C   0  0  0  0  0  0  0  0  0  0  0  0
   -9.1925    0.5977    0.1075 H   0  0  0  0  0  0  0  0  0  0  0  0
   -6.8320   -0.6045   -0.4143 H   0  0  0  0  0  0  0  0  0  0  0  0
   -6.8227    0.7519   -1.5592 H   0  0  0  0  0  0  0  0  0  0  0  0
   -4.8669   -1.1084    0.8915 H   0  0  0  0  0  0  0  0  0  0  0  0
   -2.4471   -0.9095    1.2445 H   0  0  0  0  0  0  0  0  0  0  0  0
   -0.2107    0.1794    1.8464 H   0  0  0  0  0  0  0  0  0  0  0  0
    1.0579    0.8508    0.8147 H   0  0  0  0  0  0  0  0  0  0  0  0
   -0.6725   -1.6106    0.1281 H   0  0  0  0  0  0  0  0  0  0  0  0
    0.6608   -0.8836   -0.8780 H   0  0  0  0  0  0  0  0  0  0  0  0
    1.3538   -2.8740    0.3234 H   0  0  0  0  0  0  0  0  0  0  0  0
    0.9260   -2.1061    1.9136 H   0  0  0  0  0  0  0  0  0  0  0  0
    2.6367   -0.2977    1.3967 H   0  0  0  0  0  0  0  0  0  0  0  0
    3.3458   -1.9940    1.4483 H   0  0  0  0  0  0  0  0  0  0  0  0
    3.2331   -2.0682   -1.0425 H   0  0  0  0  0  0  0  0  0  0  0  0
    2.5835   -0.4207   -1.1158 H   0  0  0  0  0  0  0  0  0  0  0  0
    5.5643   -2.3844   -0.3384 H   0  0  0  0  0  0  0  0  0  0  0  0
    7.7664   -1.3673   -0.1605 H   0  0  0  0  0  0  0  0  0  0  0  0
    3.7927    1.4572   -0.4088 H   0  0  0  0  0  0  0  0  0  0  0  0
   -2.4218    2.5234   -1.2512 H   0  0  0  0  0  0  0  0  0  0  0  0
   -4.8864    2.3053   -1.5616 H   0  0  0  0  0  0  0  0  0  0  0  0
  1  2  1  0
  2  3  2  0
  2  4  1  0
  4  5  1  0
  5  6  2  0
  6  7  1  0
  7  8  2  0
  8  9  1  0
  9 10  1  0
 10 11  1  0
 11 12  1  0
 12 13  1  0
 13 14  1  0
 14 15  1  0
 15 16  2  0
 16 17  1  0
 17 18  2  0
 18 19  1  0
 18 20  1  0
 20 21  1  0
 20 22  2  0
  8 23  1  0
 23 24  2  0
 24  5  1  0
 22 15  1  0
  1 25  1  0
  4 26  1  0
  4 27  1  0
  6 28  1  0
  7 29  1  0
 10 30  1  0
 10 31  1  0
 11 32  1  0
 11 33  1  0
 12 34  1  0
 12 35  1  0
 13 36  1  0
 13 37  1  0
 14 38  1  0
 14 39  1  0
 16 40  1  0
 17 41  1  0
 22 42  1  0
 23 43  1  0
 24 44  1  0
M  END
$$$$
[H]c1nc(C(=O)N([H])[C@]([H])(c2nnc([C@]([H])(N([H])C3([H])C([H])([H])C([H])([H])C([H])([H])C([H])([H])C3([H])[H])C([H])([H])c3c([H])nc([H])n3[H])n2C([H])([H])c2c([H])c([H])c(OC([H])([H])[H])c([H])c2[H])C([H])([H])c2nc([H])n([H])c2[H])c([H])c([H])c1[H]
     RDKit          3D

 82 87  0  0  0  0  0  0  0  0999 V2000
    0.4591    7.1564   -0.8154 C   0  0  0  0  0  0  0  0  0  0  0  0
   -0.6710    6.3220   -0.6439 O   0  0  0  0  0  0  0  0  0  0  0  0
   -0.5022    5.0342   -0.1404 C   0  0  0  0  0  0  0  0  0  0  0  0
    0.7525    4.5696    0.1903 C   0  0  0  0  0  0  0  0  0  0  0  0
    0.8769    3.2793    0.6891 C   0  0  0  0  0  0  0  0  0  0  0  0
   -0.2070    2.4325    0.8709 C   0  0  0  0  0  0  0  0  0  0  0  0
    0.0472    1.0759    1.4104 C   0  0  0  0  0  0  0  0  0  0  0  0
    0.1121    0.0135    0.4682 N   0  0  0  0  0  0  0  0  0  0  0  0
    1.1911   -0.4260   -0.2067 C   0  0  0  0  0  0  0  0  0  0  0  0
    0.8218   -1.4286   -1.0027 N   0  0  0  0  0  0  0  0  0  0  0  0
   -0.4385   -1.6028   -0.8248 N   0  0  0  0  0  0  0  0  0  0  0  0
   -0.9519   -0.7193    0.0997 C   0  0  0  0  0  0  0  0  0  0  0  0
   -2.3392   -0.8013    0.4568 C   0  0  1  0  0  0  0  0  0  0  0  0
   -2.9017   -0.5073    1.7460 C   0  0  0  0  0  0  0  0  0  0  0  0
   -2.3882   -1.4025    2.8454 C   0  0  0  0  0  0  0  0  0  0  0  0
   -1.4925   -2.4393    2.7773 C   0  0  0  0  0  0  0  0  0  0  0  0
   -1.3458   -2.9368    4.0271 N   0  0  0  0  0  0  0  0  0  0  0  0
   -2.1258   -2.2395    4.8780 C   0  0  0  0  0  0  0  0  0  0  0  0
   -2.7529   -1.3110    4.1457 N   0  0  0  0  0  0  0  0  0  0  0  0
   -3.1238   -0.2886   -0.6314 N   0  0  0  0  0  0  0  0  0  0  0  0
   -4.4258   -0.7582   -0.8202 C   0  0  0  0  0  0  0  0  0  0  0  0
   -4.6043   -2.2005   -1.1278 C   0  0  0  0  0  0  0  0  0  0  0  0
   -6.1028   -2.5350   -1.1695 C   0  0  0  0  0  0  0  0  0  0  0  0
   -6.8969   -1.4777   -1.8695 C   0  0  0  0  0  0  0  0  0  0  0  0
   -5.9574   -0.7712   -2.8237 C   0  0  0  0  0  0  0  0  0  0  0  0
   -4.9887    0.0226   -2.0179 C   0  0  0  0  0  0  0  0  0  0  0  0
    2.5813    0.1022   -0.0933 C   0  0  2  0  0  0  0  0  0  0  0  0
    2.9894    0.8232   -1.3640 C   0  0  0  0  0  0  0  0  0  0  0  0
    4.3333    1.4108   -1.1482 C   0  0  0  0  0  0  0  0  0  0  0  0
    5.0642    2.0983   -2.1188 C   0  0  0  0  0  0  0  0  0  0  0  0
    6.2059    2.5033   -1.5426 N   0  0  0  0  0  0  0  0  0  0  0  0
    6.2403    2.1136   -0.2679 C   0  0  0  0  0  0  0  0  0  0  0  0
    5.1071    1.4560   -0.0400 N   0  0  0  0  0  0  0  0  0  0  0  0
    3.3756   -1.0901    0.1409 N   0  0  0  0  0  0  0  0  0  0  0  0
    4.3234   -1.7543   -0.5977 C   0  0  0  0  0  0  0  0  0  0  0  0
    4.7400   -1.4710   -1.7355 O   0  0  0  0  0  0  0  0  0  0  0  0
    4.9539   -2.9677    0.0026 C   0  0  0  0  0  0  0  0  0  0  0  0
    5.9150   -3.6776   -0.6664 C   0  0  0  0  0  0  0  0  0  0  0  0
    6.5045   -4.8007   -0.1289 C   0  0  0  0  0  0  0  0  0  0  0  0
    6.1026   -5.2163    1.1329 C   0  0  0  0  0  0  0  0  0  0  0  0
    5.1383   -4.4893    1.7836 C   0  0  0  0  0  0  0  0  0  0  0  0
    4.5884   -3.3983    1.2225 N   0  0  0  0  0  0  0  0  0  0  0  0
   -1.4498    2.9136    0.5358 C   0  0  0  0  0  0  0  0  0  0  0  0
   -1.5765    4.1897    0.0418 C   0  0  0  0  0  0  0  0  0  0  0  0
    0.8373    7.4839    0.1941 H   0  0  0  0  0  0  0  0  0  0  0  0
    0.1431    8.0743   -1.3499 H   0  0  0  0  0  0  0  0  0  0  0  0
    1.2909    6.6747   -1.3426 H   0  0  0  0  0  0  0  0  0  0  0  0
    1.6096    5.2202    0.0527 H   0  0  0  0  0  0  0  0  0  0  0  0
    1.9043    2.9870    0.9314 H   0  0  0  0  0  0  0  0  0  0  0  0
    1.1023    1.1490    1.8354 H   0  0  0  0  0  0  0  0  0  0  0  0
   -0.5091    0.8920    2.3466 H   0  0  0  0  0  0  0  0  0  0  0  0
   -2.5940   -1.9582    0.3704 H   0  0  0  0  0  0  0  0  0  0  0  0
   -3.9987   -0.8097    1.7154 H   0  0  0  0  0  0  0  0  0  0  0  0
   -2.9664    0.5399    2.0867 H   0  0  0  0  0  0  0  0  0  0  0  0
   -1.0028   -2.7897    1.9033 H   0  0  0  0  0  0  0  0  0  0  0  0
   -2.1864   -2.4413    5.9280 H   0  0  0  0  0  0  0  0  0  0  0  0
   -3.4271   -0.6104    4.5054 H   0  0  0  0  0  0  0  0  0  0  0  0
   -2.6005   -0.1285   -1.5102 H   0  0  0  0  0  0  0  0  0  0  0  0
   -5.1159   -0.4946    0.0248 H   0  0  0  0  0  0  0  0  0  0  0  0
   -4.2157   -2.9051   -0.3636 H   0  0  0  0  0  0  0  0  0  0  0  0
   -4.1554   -2.4260   -2.1220 H   0  0  0  0  0  0  0  0  0  0  0  0
   -6.4904   -2.6617   -0.1393 H   0  0  0  0  0  0  0  0  0  0  0  0
   -6.2302   -3.5412   -1.6662 H   0  0  0  0  0  0  0  0  0  0  0  0
   -7.3091   -0.7147   -1.1868 H   0  0  0  0  0  0  0  0  0  0  0  0
   -7.7307   -1.9780   -2.4060 H   0  0  0  0  0  0  0  0  0  0  0  0
   -5.3914   -1.5014   -3.4615 H   0  0  0  0  0  0  0  0  0  0  0  0
   -6.5330   -0.0575   -3.4553 H   0  0  0  0  0  0  0  0  0  0  0  0
   -4.1532    0.3250   -2.7121 H   0  0  0  0  0  0  0  0  0  0  0  0
   -5.4176    0.9944   -1.6586 H   0  0  0  0  0  0  0  0  0  0  0  0
    2.7675    0.7781    0.7195 H   0  0  0  0  0  0  0  0  0  0  0  0
    2.2400    1.6198   -1.5961 H   0  0  0  0  0  0  0  0  0  0  0  0
    3.0327    0.1131   -2.2041 H   0  0  0  0  0  0  0  0  0  0  0  0
    4.7782    2.2824   -3.1561 H   0  0  0  0  0  0  0  0  0  0  0  0
    6.9534    3.0440   -2.0290 H   0  0  0  0  0  0  0  0  0  0  0  0
    7.0414    2.2953    0.4567 H   0  0  0  0  0  0  0  0  0  0  0  0
    3.1568   -1.5403    1.1226 H   0  0  0  0  0  0  0  0  0  0  0  0
    6.2378   -3.3631   -1.6510 H   0  0  0  0  0  0  0  0  0  0  0  0
    7.2598   -5.3645   -0.6457 H   0  0  0  0  0  0  0  0  0  0  0  0
    6.5357   -6.1039    1.6137 H   0  0  0  0  0  0  0  0  0  0  0  0
    4.8204   -4.8019    2.7592 H   0  0  0  0  0  0  0  0  0  0  0  0
   -2.3089    2.3262    0.6519 H   0  0  0  0  0  0  0  0  0  0  0  0
   -2.5560    4.5872   -0.2296 H   0  0  0  0  0  0  0  0  0  0  0  0
  1  2  1  0
  2  3  1  0
  3  4  2  0
  4  5  1  0
  5  6  2  0
  6  7  1  0
  7  8  1  0
  8  9  1  0
  9 10  2  0
 10 11  1  0
 11 12  2  0
 12 13  1  0
 13 14  1  0
 14 15  1  0
 15 16  2  0
 16 17  1  0
 17 18  2  0
 18 19  1  0
 13 20  1  0
 20 21  1  0
 21 22  1  0
 22 23  1  0
 23 24  1  0
 24 25  1  0
 25 26  1  0
  9 27  1  0
 27 28  1  0
 28 29  1  0
 29 30  2  0
 30 31  1  0
 31 32  1  0
 32 33  2  0
 27 34  1  0
 34 35  1  0
 35 36  2  0
 35 37  1  0
 37 38  2  0
 38 39  1  0
 39 40  2  0
 40 41  1  0
 41 42  2  0
  6 43  1  0
 43 44  2  0
 44  3  1  0
 12  8  1  0
 19 15  1  0
 26 21  1  0
 33 29  1  0
 42 37  1  0
  1 45  1  0
  1 46  1  0
  1 47  1  0
  4 48  1  0
  5 49  1  0
  7 50  1  0
  7 51  1  0
 13 52  1  6
 14 53  1  0
 14 54  1  0
 16 55  1  0
 18 56  1  0
 19 57  1  0
 20 58  1  0
 21 59  1  0
 22 60  1  0
 22 61  1  0
 23 62  1  0
 23 63  1  0
 24 64  1  0
 24 65  1  0
 25 66  1  0
 25 67  1  0
 26 68  1  0
 26 69  1  0
 27 70  1  1
 28 71  1  0
 28 72  1  0
 30 73  1  0
 31 74  1  0
 32 75  1  0
 34 76  1  0
 38 77  1  0
 39 78  1  0
 40 79  1  0
 41 80  1  0
 43 81  1  0
 44 82  1  0
M  END
$$$$
[H]c1c([H])c([H])c(C([H])([H])n2c(C([H])([H])C([H])([H])C([H])([H])C([H])([H])C([H])([H])[H])c(C(=O)C(=O)N([H])[H])c3c(OC([H])([H])C(=O)N([H])S(=O)(=O)C(F)(F)F)c([H])c4c([H])c([H])c([H])c([H])c4c32)c([H])c1[H]
     RDKit          3D

 70 73  0  0  0  0  0  0  0  0999 V2000
   -5.0410    4.4323    1.2412 C   0  0  0  0  0  0  0  0  0  0  0  0
   -3.9872    3.8497    2.1745 C   0  0  0  0  0  0  0  0  0  0  0  0
   -2.8256    3.2173    1.3400 C   0  0  0  0  0  0  0  0  0  0  0  0
   -3.2378    2.1128    0.5185 C   0  0  0  0  0  0  0  0  0  0  0  0
   -2.4909    1.4098   -0.4758 C   0  0  0  0  0  0  0  0  0  0  0  0
   -1.3305    0.5343   -0.3870 C   0  0  0  0  0  0  0  0  0  0  0  0
   -0.0330    0.8464   -0.0035 C   0  0  0  0  0  0  0  0  0  0  0  0
    0.4840    2.0791    0.4181 C   0  0  0  0  0  0  0  0  0  0  0  0
    0.2971    2.3780    1.6885 O   0  0  0  0  0  0  0  0  0  0  0  0
    1.1400    3.1096   -0.3122 C   0  0  0  0  0  0  0  0  0  0  0  0
    0.2102    4.0900   -1.0700 N   0  0  0  0  0  0  0  0  0  0  0  0
    2.3751    3.3625   -0.5196 O   0  0  0  0  0  0  0  0  0  0  0  0
    0.6999   -0.3395   -0.1592 C   0  0  0  0  0  0  0  0  0  0  0  0
    2.0923   -0.5083   -0.0849 C   0  0  0  0  0  0  0  0  0  0  0  0
    2.8577    0.5203    0.3390 O   0  0  0  0  0  0  0  0  0  0  0  0
    4.1414    0.6123    0.4345 C   0  0  0  0  0  0  0  0  0  0  0  0
    5.0945   -0.2769    1.2237 C   0  0  0  0  0  0  0  0  0  0  0  0
    4.7157   -1.2111    1.8517 O   0  0  0  0  0  0  0  0  0  0  0  0
    6.3679    0.2603    0.9502 N   0  0  0  0  0  0  0  0  0  0  0  0
    7.7542    0.8452    0.6524 S   0  0  0  0  0  0  0  0  0  0  0  0
    7.9734    0.9384   -0.9399 O   0  0  0  0  0  0  0  0  0  0  0  0
    7.6469    2.4720    0.9272 O   0  0  0  0  0  0  0  0  0  0  0  0
    9.2716    0.4808    1.3463 C   0  0  0  0  0  0  0  0  0  0  0  0
   10.2366    1.3263    0.7663 F   0  0  0  0  0  0  0  0  0  0  0  0
    9.6695   -0.8369    1.0559 F   0  0  0  0  0  0  0  0  0  0  0  0
    9.3006    0.7670    2.6946 F   0  0  0  0  0  0  0  0  0  0  0  0
    2.5842   -1.7154   -0.4602 C   0  0  0  0  0  0  0  0  0  0  0  0
    1.7912   -2.7753   -0.8929 C   0  0  0  0  0  0  0  0  0  0  0  0
    2.3274   -3.9787   -1.1212 C   0  0  0  0  0  0  0  0  0  0  0  0
    1.5248   -5.0301   -1.4458 C   0  0  0  0  0  0  0  0  0  0  0  0
    0.1485   -4.8560   -1.5455 C   0  0  0  0  0  0  0  0  0  0  0  0
   -0.4141   -3.5957   -1.2865 C   0  0  0  0  0  0  0  0  0  0  0  0
    0.4010   -2.5228   -0.9530 C   0  0  0  0  0  0  0  0  0  0  0  0
   -0.1564   -1.3303   -0.6096 C   0  0  0  0  0  0  0  0  0  0  0  0
   -1.3699   -0.8215   -0.7707 N   0  0  0  0  0  0  0  0  0  0  0  0
   -2.4479   -1.3364   -1.4854 C   0  0  0  0  0  0  0  0  0  0  0  0
   -3.6245   -1.9280   -0.8453 C   0  0  0  0  0  0  0  0  0  0  0  0
   -4.5730   -2.4504   -1.7780 C   0  0  0  0  0  0  0  0  0  0  0  0
   -5.6659   -3.1339   -1.2420 C   0  0  0  0  0  0  0  0  0  0  0  0
   -5.8192   -3.3138    0.1363 C   0  0  0  0  0  0  0  0  0  0  0  0
   -4.8498   -2.7984    0.9803 C   0  0  0  0  0  0  0  0  0  0  0  0
   -3.7903   -2.1124    0.4807 C   0  0  0  0  0  0  0  0  0  0  0  0
   -4.6005    5.4585    0.9340 H   0  0  0  0  0  0  0  0  0  0  0  0
   -5.3116    3.8982    0.3529 H   0  0  0  0  0  0  0  0  0  0  0  0
   -5.9211    4.7844    1.8844 H   0  0  0  0  0  0  0  0  0  0  0  0
   -4.4026    3.0717    2.8458 H   0  0  0  0  0  0  0  0  0  0  0  0
   -3.5853    4.6603    2.8008 H   0  0  0  0  0  0  0  0  0  0  0  0
   -2.1092    3.0110    2.1923 H   0  0  0  0  0  0  0  0  0  0  0  0
   -2.3819    4.0950    0.7630 H   0  0  0  0  0  0  0  0  0  0  0  0
   -3.6543    1.2579    1.2969 H   0  0  0  0  0  0  0  0  0  0  0  0
   -4.2449    2.3864    0.0467 H   0  0  0  0  0  0  0  0  0  0  0  0
   -2.2963    2.1709   -1.3689 H   0  0  0  0  0  0  0  0  0  0  0  0
   -3.3151    0.7943   -1.1066 H   0  0  0  0  0  0  0  0  0  0  0  0
   -0.7728    3.9628   -0.9121 H   0  0  0  0  0  0  0  0  0  0  0  0
    0.7020    4.7457   -1.7113 H   0  0  0  0  0  0  0  0  0  0  0  0
    4.4898    1.6736    0.5040 H   0  0  0  0  0  0  0  0  0  0  0  0
    4.5918    0.4298   -0.7090 H   0  0  0  0  0  0  0  0  0  0  0  0
    6.8908   -1.0884    1.2345 H   0  0  0  0  0  0  0  0  0  0  0  0
    3.6647   -1.9001   -0.4664 H   0  0  0  0  0  0  0  0  0  0  0  0
    3.4083   -4.0714   -1.0577 H   0  0  0  0  0  0  0  0  0  0  0  0
    2.0053   -6.0053   -1.6461 H   0  0  0  0  0  0  0  0  0  0  0  0
   -0.4664   -5.6833   -1.7958 H   0  0  0  0  0  0  0  0  0  0  0  0
   -1.4748   -3.5799   -1.2738 H   0  0  0  0  0  0  0  0  0  0  0  0
   -2.9001   -0.5217   -2.1355 H   0  0  0  0  0  0  0  0  0  0  0  0
   -2.1766   -2.0135   -2.4064 H   0  0  0  0  0  0  0  0  0  0  0  0
   -4.4715   -2.2666   -2.8370 H   0  0  0  0  0  0  0  0  0  0  0  0
   -6.4348   -3.5447   -1.8658 H   0  0  0  0  0  0  0  0  0  0  0  0
   -6.6896   -3.8964    0.4313 H   0  0  0  0  0  0  0  0  0  0  0  0
   -4.9548   -2.9162    2.0569 H   0  0  0  0  0  0  0  0  0  0  0  0
   -3.0376   -1.6856    1.1172 H   0  0  0  0  0  0  0  0  0  0  0  0
  1  2  1  0
  2  3  1  0
  3  4  1  0
  4  5  1  0
  5  6  1  0
  6  7  2  0
  7  8  1  0
  8  9  2  0
  8 10  1  0
 10 11  1  0
 10 12  2  0
  7 13  1  0
 13 14  2  0
 14 15  1  0
 15 16  1  0
 16 17  1  0
 17 18  2  0
 17 19  1  0
 19 20  1  0
 20 21  2  0
 20 22  2  0
 20 23  1  0
 23 24  1  0
 23 25  1  0
 23 26  1  0
 14 27  1  0
 27 28  2  0
 28 29  1  0
 29 30  2  0
 30 31  1  0
 31 32  2  0
 32 33  1  0
 33 34  2  0
 34 35  1  0
 35 36  1  0
 36 37  1  0
 37 38  2  0
 38 39  1  0
 39 40  2  0
 40 41  1  0
 41 42  2  0
 35  6  1  0
 42 37  1  0
 34 13  1  0
 33 28  1  0
  1 43  1  0
  1 44  1  0
  1 45  1  0
  2 46  1  0
  2 47  1  0
  3 48  1  0
  3 49  1  0
  4 50  1  0
  4 51  1  0
  5 52  1  0
  5 53  1  0
 11 54  1  0
 11 55  1  0
 16 56  1  0
 16 57  1  0
 19 58  1  0
 27 59  1  0
 29 60  1  0
 30 61  1  0
 31 62  1  0
 32 63  1  0
 36 64  1  0
 36 65  1  0
 38 66  1  0
 39 67  1  0
 40 68  1  0
 41 69  1  0
 42 70  1  0
M  END
$$$$
[H]c1nc(N([H])[H])c([H])c(C([H])([H])N2C([H])([H])C([H])([H])C([H])(n3c(=O)n([H])c4c([H])c([H])c([H])c([H])c43)C([H])([H])C2([H])[H])c1[H]
     RDKit          3D

 45 48  0  0  0  0  0  0  0  0999 V2000
    5.9937   -0.3942    1.7771 N   0  0  0  0  0  0  0  0  0  0  0  0
    5.1643    0.4365    0.9949 C   0  0  0  0  0  0  0  0  0  0  0  0
    4.0594   -0.0767    0.3161 C   0  0  0  0  0  0  0  0  0  0  0  0
    3.2232    0.6749   -0.4530 C   0  0  0  0  0  0  0  0  0  0  0  0
    2.0418    0.1364   -1.1752 C   0  0  0  0  0  0  0  0  0  0  0  0
    1.5911   -1.1044   -0.5843 N   0  0  0  0  0  0  0  0  0  0  0  0
    1.1728   -0.9809    0.7664 C   0  0  0  0  0  0  0  0  0  0  0  0
   -0.2647   -1.2337    1.0323 C   0  0  0  0  0  0  0  0  0  0  0  0
   -1.2152   -1.0960   -0.0907 C   0  0  0  0  0  0  0  0  0  0  0  0
   -0.6131   -0.9975   -1.4630 C   0  0  0  0  0  0  0  0  0  0  0  0
    0.6798   -1.7813   -1.4450 C   0  0  0  0  0  0  0  0  0  0  0  0
   -2.1612   -0.0043    0.0738 N   0  0  0  0  0  0  0  0  0  0  0  0
   -3.4845   -0.0448   -0.1587 C   0  0  0  0  0  0  0  0  0  0  0  0
   -4.3213   -1.0594   -0.5968 C   0  0  0  0  0  0  0  0  0  0  0  0
   -5.6692   -0.9000   -0.7746 C   0  0  0  0  0  0  0  0  0  0  0  0
   -6.2036    0.3542   -0.4946 C   0  0  0  0  0  0  0  0  0  0  0  0
   -5.4168    1.3934   -0.0576 C   0  0  0  0  0  0  0  0  0  0  0  0
   -4.0504    1.1736    0.1055 C   0  0  0  0  0  0  0  0  0  0  0  0
   -3.0677    1.9712    0.5041 N   0  0  0  0  0  0  0  0  0  0  0  0
   -1.9206    1.2570    0.4852 C   0  0  0  0  0  0  0  0  0  0  0  0
   -0.8223    1.7273    0.8067 O   0  0  0  0  0  0  0  0  0  0  0  0
    3.5222    2.0404   -0.5445 C   0  0  0  0  0  0  0  0  0  0  0  0
    4.6143    2.5404    0.1280 C   0  0  0  0  0  0  0  0  0  0  0  0
    5.4095    1.7542    0.8756 N   0  0  0  0  0  0  0  0  0  0  0  0
    6.6872   -0.9990    1.3166 H   0  0  0  0  0  0  0  0  0  0  0  0
    5.8966   -0.3867    2.8013 H   0  0  0  0  0  0  0  0  0  0  0  0
    3.8930   -1.1183    0.4251 H   0  0  0  0  0  0  0  0  0  0  0  0
    2.4094   -0.0804   -2.2199 H   0  0  0  0  0  0  0  0  0  0  0  0
    1.2233    0.9065   -1.2258 H   0  0  0  0  0  0  0  0  0  0  0  0
    1.7959   -1.6953    1.3813 H   0  0  0  0  0  0  0  0  0  0  0  0
    1.5129    0.0344    1.1302 H   0  0  0  0  0  0  0  0  0  0  0  0
   -0.5830   -0.4987    1.8321 H   0  0  0  0  0  0  0  0  0  0  0  0
   -0.3652   -2.2276    1.5617 H   0  0  0  0  0  0  0  0  0  0  0  0
   -1.8475   -2.0350   -0.1060 H   0  0  0  0  0  0  0  0  0  0  0  0
   -1.2640   -1.5361   -2.2166 H   0  0  0  0  0  0  0  0  0  0  0  0
   -0.5093    0.0321   -1.8073 H   0  0  0  0  0  0  0  0  0  0  0  0
    1.1173   -1.8913   -2.4472 H   0  0  0  0  0  0  0  0  0  0  0  0
    0.4556   -2.7758   -0.9764 H   0  0  0  0  0  0  0  0  0  0  0  0
   -3.8758   -2.0257   -0.8069 H   0  0  0  0  0  0  0  0  0  0  0  0
   -6.3330   -1.6776   -1.1142 H   0  0  0  0  0  0  0  0  0  0  0  0
   -7.2721    0.5131   -0.6260 H   0  0  0  0  0  0  0  0  0  0  0  0
   -5.8064    2.3776    0.1671 H   0  0  0  0  0  0  0  0  0  0  0  0
   -3.1478    2.9814    0.7881 H   0  0  0  0  0  0  0  0  0  0  0  0
    2.8952    2.7060   -1.1442 H   0  0  0  0  0  0  0  0  0  0  0  0
    4.8566    3.6100    0.0623 H   0  0  0  0  0  0  0  0  0  0  0  0
  1  2  1  0
  2  3  2  0
  3  4  1  0
  4  5  1  0
  5  6  1  0
  6  7  1  0
  7  8  1  0
  8  9  1  0
  9 10  1  0
 10 11  1  0
  9 12  1  0
 12 13  1  0
 13 14  2  0
 14 15  1  0
 15 16  2  0
 16 17  1  0
 17 18  2  0
 18 19  1  0
 19 20  1  0
 20 21  2  0
  4 22  2  0
 22 23  1  0
 23 24  2  0
 24  2  1  0
 11  6  1  0
 20 12  1  0
 18 13  1  0
  1 25  1  0
  1 26  1  0
  3 27  1  0
  5 28  1  0
  5 29  1  0
  7 30  1  0
  7 31  1  0
  8 32  1  0
  8 33  1  0
  9 34  1  0
 10 35  1  0
 10 36  1  0
 11 37  1  0
 11 38  1  0
 14 39  1  0
 15 40  1  0
 16 41  1  0
 17 42  1  0
 19 43  1  0
 22 44  1  0
 23 45  1  0
M  END
$$$$
[H]c1c([H])c(N([H])C(=O)N([H])c2c([H])c([H])c(C(F)(F)F)c([H])c2[H])c([H])c(F)c1C(=O)N1C([H])([H])C([H])([H])OC([H])([H])C1([H])[H]
     RDKit          3D

 46 48  0  0  0  0  0  0  0  0999 V2000
    2.8387   -1.3558   -2.0162 F   0  0  0  0  0  0  0  0  0  0  0  0
    2.0095   -0.7917   -1.0447 C   0  0  0  0  0  0  0  0  0  0  0  0
    1.0201   -1.5042   -0.5251 C   0  0  0  0  0  0  0  0  0  0  0  0
    0.1622   -0.9374    0.3987 C   0  0  0  0  0  0  0  0  0  0  0  0
   -0.8309   -1.7904    1.0197 N   0  0  0  0  0  0  0  0  0  0  0  0
   -2.1354   -1.4297    0.7502 C   0  0  0  0  0  0  0  0  0  0  0  0
   -2.3295   -0.3948   -0.0370 O   0  0  0  0  0  0  0  0  0  0  0  0
   -3.3095   -2.0240    1.2244 N   0  0  0  0  0  0  0  0  0  0  0  0
   -4.4953   -1.3078    0.7613 C   0  0  0  0  0  0  0  0  0  0  0  0
   -5.3129   -1.6782   -0.2582 C   0  0  0  0  0  0  0  0  0  0  0  0
   -6.3348   -0.8022   -0.6778 C   0  0  0  0  0  0  0  0  0  0  0  0
   -6.5369    0.4089   -0.1104 C   0  0  0  0  0  0  0  0  0  0  0  0
   -5.6865    0.7707    0.9372 C   0  0  0  0  0  0  0  0  0  0  0  0
   -4.6887   -0.0499    1.3783 C   0  0  0  0  0  0  0  0  0  0  0  0
   -7.5816    1.3971   -0.5025 C   0  0  0  0  0  0  0  0  0  0  0  0
   -6.9999    2.4194   -1.2346 F   0  0  0  0  0  0  0  0  0  0  0  0
   -7.9552    2.0052    0.7249 F   0  0  0  0  0  0  0  0  0  0  0  0
   -8.6778    0.8816   -1.0487 F   0  0  0  0  0  0  0  0  0  0  0  0
    0.3282    0.3789    0.7789 C   0  0  0  0  0  0  0  0  0  0  0  0
    1.3738    1.1098    0.2130 C   0  0  0  0  0  0  0  0  0  0  0  0
    2.2396    0.5567   -0.7015 C   0  0  0  0  0  0  0  0  0  0  0  0
    3.4422    1.1502   -1.2104 C   0  0  0  0  0  0  0  0  0  0  0  0
    3.4253    1.6047   -2.4476 O   0  0  0  0  0  0  0  0  0  0  0  0
    4.6564    1.2771   -0.5679 N   0  0  0  0  0  0  0  0  0  0  0  0
    4.6990    0.9163    0.8809 C   0  0  0  0  0  0  0  0  0  0  0  0
    5.2860   -0.5179    0.9306 C   0  0  0  0  0  0  0  0  0  0  0  0
    5.9494   -0.7261   -0.2627 O   0  0  0  0  0  0  0  0  0  0  0  0
    6.7550    0.2636   -0.7424 C   0  0  0  0  0  0  0  0  0  0  0  0
    5.9474    1.5447   -1.1377 C   0  0  0  0  0  0  0  0  0  0  0  0
    0.8346   -2.5659   -0.8040 H   0  0  0  0  0  0  0  0  0  0  0  0
   -0.5084   -2.5432    1.6169 H   0  0  0  0  0  0  0  0  0  0  0  0
   -3.3604   -2.8386    1.8209 H   0  0  0  0  0  0  0  0  0  0  0  0
   -5.2150   -2.6239   -0.7686 H   0  0  0  0  0  0  0  0  0  0  0  0
   -6.9994   -1.1173   -1.4865 H   0  0  0  0  0  0  0  0  0  0  0  0
   -5.8075    1.7428    1.3721 H   0  0  0  0  0  0  0  0  0  0  0  0
   -4.0098    0.2378    2.1745 H   0  0  0  0  0  0  0  0  0  0  0  0
   -0.3591    0.8074    1.4645 H   0  0  0  0  0  0  0  0  0  0  0  0
    1.5223    2.1269    0.5018 H   0  0  0  0  0  0  0  0  0  0  0  0
    3.7354    1.0007    1.3139 H   0  0  0  0  0  0  0  0  0  0  0  0
    5.4174    1.6608    1.3264 H   0  0  0  0  0  0  0  0  0  0  0  0
    4.3832   -1.1536    0.9805 H   0  0  0  0  0  0  0  0  0  0  0  0
    5.9612   -0.6477    1.7708 H   0  0  0  0  0  0  0  0  0  0  0  0
    7.5448    0.5771   -0.0517 H   0  0  0  0  0  0  0  0  0  0  0  0
    7.2357   -0.1325   -1.6754 H   0  0  0  0  0  0  0  0  0  0  0  0
    6.3844    2.4151   -0.6357 H   0  0  0  0  0  0  0  0  0  0  0  0
    5.9828    1.6792   -2.2242 H   0  0  0  0  0  0  0  0  0  0  0  0
  1  2  1  0
  2  3  2  0
  3  4  1  0
  4  5  1  0
  5  6  1  0
  6  7  2  0
  6  8  1  0
  8  9  1  0
  9 10  2  0
 10 11  1  0
 11 12  2  0
 12 13  1  0
 13 14  2  0
 12 15  1  0
 15 16  1  0
 15 17  1  0
 15 18  1  0
  4 19  2  0
 19 20  1  0
 20 21  2  0
 21 22  1  0
 22 23  2  0
 22 24  1  0
 24 25  1  0
 25 26  1  0
 26 27  1  0
 27 28  1  0
 28 29  1  0
 21  2  1  0
 29 24  1  0
 14  9  1  0
  3 30  1  0
  5 31  1  0
  8 32  1  0
 10 33  1  0
 11 34  1  0
 13 35  1  0
 14 36  1  0
 19 37  1  0
 20 38  1  0
 25 39  1  0
 25 40  1  0
 26 41  1  0
 26 42  1  0
 28 43  1  0
 28 44  1  0
 29 45  1  0
 29 46  1  0
M  END
$$$$
[H]/C(=C1\SC(C([H])([H])[H])(C([H])([H])[H])N([H])C(=O)N(C([H])([H])C(=O)N2C([H])([H])C([H])([H])N(C([H])([H])[H])C([H])([H])C2([H])[H])C1=O)c1c([H])c([H])c(Cl)c(Cl)c1[H]
     RDKit          3D

 54 56  0  0  0  0  0  0  0  0999 V2000
    4.6822    2.4583    0.6171 C   0  0  0  0  0  0  0  0  0  0  0  0
    4.6657    1.9151   -0.7041 N   0  0  0  0  0  0  0  0  0  0  0  0
    5.0317    0.5390   -0.7968 C   0  0  0  0  0  0  0  0  0  0  0  0
    3.9194   -0.4143   -0.5162 C   0  0  0  0  0  0  0  0  0  0  0  0
    2.6681    0.0539   -1.0745 N   0  0  0  0  0  0  0  0  0  0  0  0
    2.7041    1.1569   -1.9867 C   0  0  0  0  0  0  0  0  0  0  0  0
    3.5405    2.2930   -1.4960 C   0  0  0  0  0  0  0  0  0  0  0  0
    1.4266   -0.5560   -0.7358 C   0  0  0  0  0  0  0  0  0  0  0  0
    1.4524   -1.5209    0.0688 O   0  0  0  0  0  0  0  0  0  0  0  0
    0.1409   -0.0595   -1.3215 C   0  0  0  0  0  0  0  0  0  0  0  0
   -0.9309   -0.8802   -0.7862 N   0  0  0  0  0  0  0  0  0  0  0  0
   -1.2424   -2.0388   -1.5505 C   0  0  0  0  0  0  0  0  0  0  0  0
   -0.7095   -2.1257   -2.7087 O   0  0  0  0  0  0  0  0  0  0  0  0
   -2.0860   -3.1121   -1.1601 N   0  0  0  0  0  0  0  0  0  0  0  0
   -2.4540   -3.6628    0.1004 C   0  0  0  0  0  0  0  0  0  0  0  0
   -3.3089   -4.8995   -0.0824 C   0  0  0  0  0  0  0  0  0  0  0  0
   -1.2088   -4.1186    0.8586 C   0  0  0  0  0  0  0  0  0  0  0  0
   -3.3579   -2.5370    1.1878 S   0  0  0  0  0  0  0  0  0  0  0  0
   -2.7549   -0.8575    1.0162 C   0  0  0  0  0  0  0  0  0  0  0  0
   -3.4982    0.0701    1.5371 C   0  0  0  0  0  0  0  0  0  0  0  0
   -3.2047    1.4801    1.5036 C   0  0  0  0  0  0  0  0  0  0  0  0
   -3.0466    2.1391    0.3149 C   0  0  0  0  0  0  0  0  0  0  0  0
   -2.7655    3.5036    0.2501 C   0  0  0  0  0  0  0  0  0  0  0  0
   -2.6538    4.1599    1.4473 C   0  0  0  0  0  0  0  0  0  0  0  0
   -2.2991    5.8856    1.4173 Cl  0  0  0  0  0  0  0  0  0  0  0  0
   -2.8066    3.5282    2.6614 C   0  0  0  0  0  0  0  0  0  0  0  0
   -2.6485    4.4390    4.1699 Cl  0  0  0  0  0  0  0  0  0  0  0  0
   -3.0833    2.1801    2.6694 C   0  0  0  0  0  0  0  0  0  0  0  0
   -1.4981   -0.4052    0.4175 C   0  0  0  0  0  0  0  0  0  0  0  0
   -0.9137    0.4928    1.0905 O   0  0  0  0  0  0  0  0  0  0  0  0
    5.3809    3.3430    0.6175 H   0  0  0  0  0  0  0  0  0  0  0  0
    3.7182    2.8221    0.9687 H   0  0  0  0  0  0  0  0  0  0  0  0
    5.1340    1.7027    1.3013 H   0  0  0  0  0  0  0  0  0  0  0  0
    5.8782    0.3705   -0.0837 H   0  0  0  0  0  0  0  0  0  0  0  0
    5.4608    0.3392   -1.8059 H   0  0  0  0  0  0  0  0  0  0  0  0
    4.1048   -1.4148   -0.9627 H   0  0  0  0  0  0  0  0  0  0  0  0
    3.8062   -0.5476    0.5967 H   0  0  0  0  0  0  0  0  0  0  0  0
    1.6651    1.5479   -2.1357 H   0  0  0  0  0  0  0  0  0  0  0  0
    3.0702    0.7557   -2.9727 H   0  0  0  0  0  0  0  0  0  0  0  0
    3.9202    2.8371   -2.3947 H   0  0  0  0  0  0  0  0  0  0  0  0
    2.9402    3.0509   -0.9268 H   0  0  0  0  0  0  0  0  0  0  0  0
    0.1375   -0.1402   -2.4318 H   0  0  0  0  0  0  0  0  0  0  0  0
    0.0072    0.9795   -0.9727 H   0  0  0  0  0  0  0  0  0  0  0  0
   -2.5232   -3.5925   -1.9915 H   0  0  0  0  0  0  0  0  0  0  0  0
   -3.2421   -5.5799    0.7914 H   0  0  0  0  0  0  0  0  0  0  0  0
   -2.8724   -5.4414   -0.9677 H   0  0  0  0  0  0  0  0  0  0  0  0
   -4.3428   -4.6052   -0.3291 H   0  0  0  0  0  0  0  0  0  0  0  0
   -0.4179   -4.3144    0.0864 H   0  0  0  0  0  0  0  0  0  0  0  0
   -0.8040   -3.2951    1.4828 H   0  0  0  0  0  0  0  0  0  0  0  0
   -1.3664   -5.0566    1.3893 H   0  0  0  0  0  0  0  0  0  0  0  0
   -4.4390   -0.2098    2.0560 H   0  0  0  0  0  0  0  0  0  0  0  0
   -3.1327    1.6299   -0.6415 H   0  0  0  0  0  0  0  0  0  0  0  0
   -2.6431    4.0111   -0.7074 H   0  0  0  0  0  0  0  0  0  0  0  0
   -3.1997    1.7013    3.6257 H   0  0  0  0  0  0  0  0  0  0  0  0
  1  2  1  0
  2  3  1  0
  3  4  1  0
  4  5  1  0
  5  6  1  0
  6  7  1  0
  5  8  1  0
  8  9  2  0
  8 10  1  0
 10 11  1  0
 11 12  1  0
 12 13  2  0
 12 14  1  0
 14 15  1  0
 15 16  1  0
 15 17  1  0
 15 18  1  0
 18 19  1  0
 19 20  2  0
 20 21  1  0
 21 22  2  0
 22 23  1  0
 23 24  2  0
 24 25  1  0
 24 26  1  0
 26 27  1  0
 26 28  2  0
 19 29  1  0
 29 30  2  0
  7  2  1  0
 29 11  1  0
 28 21  1  0
  1 31  1  0
  1 32  1  0
  1 33  1  0
  3 34  1  0
  3 35  1  0
  4 36  1  0
  4 37  1  0
  6 38  1  0
  6 39  1  0
  7 40  1  0
  7 41  1  0
 10 42  1  0
 10 43  1  0
 14 44  1  0
 16 45  1  0
 16 46  1  0
 16 47  1  0
 17 48  1  0
 17 49  1  0
 17 50  1  0
 20 51  1  0
 22 52  1  0
 23 53  1  0
 28 54  1  0
M  END
$$$$
[H]c1c([H])c([H])c(C([H])([H])Oc2c([H])c([H])c(N3C(=O)C([H])(C(=O)OC([H])([H])C([H])([H])[H])C3=O)c([H])c2Cl)c([H])c1[H]
     RDKit          3D

 42 44  0  0  0  0  0  0  0  0999 V2000
   -6.9943    0.1136    1.9412 C   0  0  0  0  0  0  0  0  0  0  0  0
   -6.7909   -0.9521    0.9002 C   0  0  0  0  0  0  0  0  0  0  0  0
   -5.6328   -0.5851    0.1435 O   0  0  0  0  0  0  0  0  0  0  0  0
   -5.5973    0.5928   -0.5868 C   0  0  0  0  0  0  0  0  0  0  0  0
   -6.6035    1.3230   -0.5628 O   0  0  0  0  0  0  0  0  0  0  0  0
   -4.4205    1.0110   -1.3813 C   0  0  0  0  0  0  0  0  0  0  0  0
   -3.4886   -0.0780   -1.7143 C   0  0  0  0  0  0  0  0  0  0  0  0
   -3.5974   -1.2015   -2.3232 O   0  0  0  0  0  0  0  0  0  0  0  0
   -2.4352    0.6083   -1.0921 N   0  0  0  0  0  0  0  0  0  0  0  0
   -3.3088    1.6408   -0.7032 C   0  0  0  0  0  0  0  0  0  0  0  0
   -3.1186    2.6993   -0.0148 O   0  0  0  0  0  0  0  0  0  0  0  0
   -1.0257    0.4452   -0.8791 C   0  0  0  0  0  0  0  0  0  0  0  0
   -0.5524   -0.4675    0.0288 C   0  0  0  0  0  0  0  0  0  0  0  0
    0.8301   -0.5974    0.2453 C   0  0  0  0  0  0  0  0  0  0  0  0
    1.7398    0.1701   -0.4338 C   0  0  0  0  0  0  0  0  0  0  0  0
    3.1098    0.1126   -0.2864 O   0  0  0  0  0  0  0  0  0  0  0  0
    3.6950   -0.8016    0.6172 C   0  0  0  0  0  0  0  0  0  0  0  0
    5.1777   -0.6676    0.6012 C   0  0  0  0  0  0  0  0  0  0  0  0
    5.7423    0.5628    0.3099 C   0  0  0  0  0  0  0  0  0  0  0  0
    7.1158    0.7029    0.2727 C   0  0  0  0  0  0  0  0  0  0  0  0
    7.9477   -0.3611    0.5199 C   0  0  0  0  0  0  0  0  0  0  0  0
    7.3866   -1.5848    0.8103 C   0  0  0  0  0  0  0  0  0  0  0  0
    6.0100   -1.7197    0.8469 C   0  0  0  0  0  0  0  0  0  0  0  0
    1.2547    1.1124   -1.3730 C   0  0  0  0  0  0  0  0  0  0  0  0
    2.4142    2.1085   -2.2528 Cl  0  0  0  0  0  0  0  0  0  0  0  0
   -0.0840    1.1975   -1.5437 C   0  0  0  0  0  0  0  0  0  0  0  0
   -6.8934   -0.4203    2.9394 H   0  0  0  0  0  0  0  0  0  0  0  0
   -7.9811    0.6003    1.8668 H   0  0  0  0  0  0  0  0  0  0  0  0
   -6.1606    0.8328    1.9083 H   0  0  0  0  0  0  0  0  0  0  0  0
   -6.6869   -1.9445    1.3441 H   0  0  0  0  0  0  0  0  0  0  0  0
   -7.6992   -0.9379    0.2525 H   0  0  0  0  0  0  0  0  0  0  0  0
   -4.7788    1.5739   -2.2956 H   0  0  0  0  0  0  0  0  0  0  0  0
   -1.2657   -1.0658    0.5605 H   0  0  0  0  0  0  0  0  0  0  0  0
    1.1817   -1.3134    0.9652 H   0  0  0  0  0  0  0  0  0  0  0  0
    3.3015   -0.5499    1.6317 H   0  0  0  0  0  0  0  0  0  0  0  0
    3.3491   -1.8101    0.3365 H   0  0  0  0  0  0  0  0  0  0  0  0
    5.0955    1.4259    0.1115 H   0  0  0  0  0  0  0  0  0  0  0  0
    7.5317    1.6516    0.0511 H   0  0  0  0  0  0  0  0  0  0  0  0
    9.0298   -0.2082    0.4788 H   0  0  0  0  0  0  0  0  0  0  0  0
    8.0507   -2.4113    1.0008 H   0  0  0  0  0  0  0  0  0  0  0  0
    5.6201   -2.7146    1.0810 H   0  0  0  0  0  0  0  0  0  0  0  0
   -0.4683    1.9072   -2.2643 H   0  0  0  0  0  0  0  0  0  0  0  0
  1  2  1  0
  2  3  1  0
  3  4  1  0
  4  5  2  0
  4  6  1  0
  6  7  1  0
  7  8  2  0
  7  9  1  0
  9 10  1  0
 10 11  2  0
  9 12  1  0
 12 13  2  0
 13 14  1  0
 14 15  2  0
 15 16  1  0
 16 17  1  0
 17 18  1  0
 18 19  2  0
 19 20  1  0
 20 21  2  0
 21 22  1  0
 22 23  2  0
 15 24  1  0
 24 25  1  0
 24 26  2  0
 10  6  1  0
 26 12  1  0
 23 18  1  0
  1 27  1  0
  1 28  1  0
  1 29  1  0
  2 30  1  0
  2 31  1  0
  6 32  1  0
 13 33  1  0
 14 34  1  0
 17 35  1  0
 17 36  1  0
 19 37  1  0
 20 38  1  0
 21 39  1  0
 22 40  1  0
 23 41  1  0
 26 42  1  0
M  END
$$$$
[H]c1c([H])c(N([H])C(=O)c2c(C([H])([H])[H])c3c(C(=O)C(=O)N([H])C4([H])C([H])([H])C([H])([H])C4([H])[H])c(C([H])([H])[H])n(C([H])([H])[H])c3n2C([H])([H])c2nonc2C([H])(F)F)c([H])c(Cl)c1F
     RDKit          3D

 64 68  0  0  0  0  0  0  0  0999 V2000
    2.7324    3.3747   -0.3001 C   0  0  0  0  0  0  0  0  0  0  0  0
    1.5618    2.4725   -0.2171 C   0  0  0  0  0  0  0  0  0  0  0  0
    1.6623    1.1254    0.1353 C   0  0  0  0  0  0  0  0  0  0  0  0
    2.9162    0.4697    0.4783 C   0  0  0  0  0  0  0  0  0  0  0  0
    3.1897    0.5032    1.7348 O   0  0  0  0  0  0  0  0  0  0  0  0
    3.8176   -0.1695   -0.4549 C   0  0  0  0  0  0  0  0  0  0  0  0
    3.5492   -0.2432   -1.6711 O   0  0  0  0  0  0  0  0  0  0  0  0
    5.0271   -0.7232    0.0095 N   0  0  0  0  0  0  0  0  0  0  0  0
    6.0402   -1.3729   -0.7671 C   0  0  0  0  0  0  0  0  0  0  0  0
    6.3934   -2.7314   -0.1832 C   0  0  0  0  0  0  0  0  0  0  0  0
    7.3492   -2.0022    0.7576 C   0  0  0  0  0  0  0  0  0  0  0  0
    7.4385   -0.9256   -0.3077 C   0  0  0  0  0  0  0  0  0  0  0  0
    0.3579    0.6795    0.0929 C   0  0  0  0  0  0  0  0  0  0  0  0
   -0.3760   -0.4941    0.2926 C   0  0  0  0  0  0  0  0  0  0  0  0
    0.2594   -1.7805    0.7262 C   0  0  0  0  0  0  0  0  0  0  0  0
   -1.6839   -0.1657    0.0471 C   0  0  0  0  0  0  0  0  0  0  0  0
   -2.7563   -1.1210    0.0309 C   0  0  0  0  0  0  0  0  0  0  0  0
   -3.9635   -0.6969    0.0909 O   0  0  0  0  0  0  0  0  0  0  0  0
   -2.6488   -2.5172   -0.0531 N   0  0  0  0  0  0  0  0  0  0  0  0
   -3.8218   -3.3535   -0.0331 C   0  0  0  0  0  0  0  0  0  0  0  0
   -4.8352   -3.0549    0.8370 C   0  0  0  0  0  0  0  0  0  0  0  0
   -5.9832   -3.8355    0.8131 C   0  0  0  0  0  0  0  0  0  0  0  0
   -6.0976   -4.8854   -0.0650 C   0  0  0  0  0  0  0  0  0  0  0  0
   -7.2257   -5.6479   -0.0899 F   0  0  0  0  0  0  0  0  0  0  0  0
   -5.0859   -5.1952   -0.9431 C   0  0  0  0  0  0  0  0  0  0  0  0
   -5.2379   -6.5433   -2.0698 Cl  0  0  0  0  0  0  0  0  0  0  0  0
   -3.9609   -4.4151   -0.9072 C   0  0  0  0  0  0  0  0  0  0  0  0
   -1.7354    1.1921   -0.2890 N   0  0  0  0  0  0  0  0  0  0  0  0
   -2.9871    1.8663   -0.5555 C   0  0  0  0  0  0  0  0  0  0  0  0
   -3.6145    2.5974    0.5732 C   0  0  0  0  0  0  0  0  0  0  0  0
   -4.0548    2.0157    1.7393 N   0  0  0  0  0  0  0  0  0  0  0  0
   -4.4681    2.9051    2.5763 O   0  0  0  0  0  0  0  0  0  0  0  0
   -4.3432    4.0828    2.0617 N   0  0  0  0  0  0  0  0  0  0  0  0
   -3.8153    3.9315    0.8108 C   0  0  0  0  0  0  0  0  0  0  0  0
   -3.6113    5.0794   -0.0942 C   0  0  0  0  0  0  0  0  0  0  0  0
   -4.9164    5.5433   -0.4504 F   0  0  0  0  0  0  0  0  0  0  0  0
   -2.9060    6.1172    0.4488 F   0  0  0  0  0  0  0  0  0  0  0  0
   -0.4985    1.6987   -0.2651 C   0  0  0  0  0  0  0  0  0  0  0  0
    0.2640    2.7950   -0.4538 N   0  0  0  0  0  0  0  0  0  0  0  0
   -0.1437    4.1199   -0.8725 C   0  0  0  0  0  0  0  0  0  0  0  0
    3.2891    3.2633   -1.2678 H   0  0  0  0  0  0  0  0  0  0  0  0
    3.4978    3.1756    0.4827 H   0  0  0  0  0  0  0  0  0  0  0  0
    2.4488    4.4462   -0.2393 H   0  0  0  0  0  0  0  0  0  0  0  0
    5.2035   -0.6379    1.0637 H   0  0  0  0  0  0  0  0  0  0  0  0
    5.9105   -1.4589   -1.8401 H   0  0  0  0  0  0  0  0  0  0  0  0
    6.9527   -3.3521   -0.9276 H   0  0  0  0  0  0  0  0  0  0  0  0
    5.5717   -3.2648    0.3216 H   0  0  0  0  0  0  0  0  0  0  0  0
    8.2983   -2.5454    0.9634 H   0  0  0  0  0  0  0  0  0  0  0  0
    6.8401   -1.6597    1.6871 H   0  0  0  0  0  0  0  0  0  0  0  0
    7.4541    0.1111    0.1085 H   0  0  0  0  0  0  0  0  0  0  0  0
    8.2458   -1.0991   -1.0175 H   0  0  0  0  0  0  0  0  0  0  0  0
    0.4924   -2.4460   -0.1268 H   0  0  0  0  0  0  0  0  0  0  0  0
    1.2573   -1.5648    1.1957 H   0  0  0  0  0  0  0  0  0  0  0  0
   -0.3482   -2.2488    1.5159 H   0  0  0  0  0  0  0  0  0  0  0  0
   -1.7653   -3.0449   -0.1514 H   0  0  0  0  0  0  0  0  0  0  0  0
   -4.8383   -2.2701    1.5671 H   0  0  0  0  0  0  0  0  0  0  0  0
   -6.8160   -3.6426    1.4799 H   0  0  0  0  0  0  0  0  0  0  0  0
   -3.1422   -4.6498   -1.6093 H   0  0  0  0  0  0  0  0  0  0  0  0
   -3.6914    1.2148   -1.1148 H   0  0  0  0  0  0  0  0  0  0  0  0
   -2.7838    2.6849   -1.3556 H   0  0  0  0  0  0  0  0  0  0  0  0
   -3.1817    4.8238   -1.0791 H   0  0  0  0  0  0  0  0  0  0  0  0
    0.7239    4.6583   -1.2975 H   0  0  0  0  0  0  0  0  0  0  0  0
   -0.4616    4.6919    0.0391 H   0  0  0  0  0  0  0  0  0  0  0  0
   -0.9460    4.1201   -1.6115 H   0  0  0  0  0  0  0  0  0  0  0  0
  1  2  1  0
  2  3  2  0
  3  4  1  0
  4  5  2  0
  4  6  1  0
  6  7  2  0
  6  8  1  0
  8  9  1  0
  9 10  1  0
 10 11  1  0
 11 12  1  0
  3 13  1  0
 13 14  1  0
 14 15  1  0
 14 16  2  0
 16 17  1  0
 17 18  2  0
 17 19  1  0
 19 20  1  0
 20 21  2  0
 21 22  1  0
 22 23  2  0
 23 24  1  0
 23 25  1  0
 25 26  1  0
 25 27  2  0
 16 28  1  0
 28 29  1  0
 29 30  1  0
 30 31  2  0
 31 32  1  0
 32 33  1  0
 33 34  2  0
 34 35  1  0
 35 36  1  0
 35 37  1  0
 28 38  1  0
 38 39  1  0
 39 40  1  0
 39  2  1  0
 12  9  1  0
 38 13  2  0
 27 20  1  0
 34 30  1  0
  1 41  1  0
  1 42  1  0
  1 43  1  0
  8 44  1  0
  9 45  1  0
 10 46  1  0
 10 47  1  0
 11 48  1  0
 11 49  1  0
 12 50  1  0
 12 51  1  0
 15 52  1  0
 15 53  1  0
 15 54  1  0
 19 55  1  0
 21 56  1  0
 22 57  1  0
 27 58  1  0
 29 59  1  0
 29 60  1  0
 35 61  1  0
 40 62  1  0
 40 63  1  0
 40 64  1  0
M  END
$$$$
[H]c1c([H])c([H])c(C([H])([H])[C@@]2([H])C(=O)N(C([H])([H])C([H])([H])C([H])(C([H])([H])[H])C([H])([H])[H])C([H])(SC([H])([H])C([H])([H])C([H])(C([H])([H])[H])C([H])([H])[H])C(=O)N2c2c([H])c([H])c(F)c([H])c2[H])c([H])c1[H]
     RDKit          3D

 68 70  0  0  0  0  0  0  0  0999 V2000
    1.6869    4.5215   -0.3353 C   0  0  0  0  0  0  0  0  0  0  0  0
    0.1807    4.3809   -0.2540 C   0  0  0  0  0  0  0  0  0  0  0  0
   -0.3095    5.4632    0.6713 C   0  0  0  0  0  0  0  0  0  0  0  0
   -0.2137    3.0362    0.3191 C   0  0  0  0  0  0  0  0  0  0  0  0
    0.3363    1.9250   -0.5727 C   0  0  0  0  0  0  0  0  0  0  0  0
    0.0547    0.6171   -0.1169 N   0  0  0  0  0  0  0  0  0  0  0  0
    0.8637   -0.1786    0.8162 C   0  0  0  0  0  0  0  0  0  0  0  0
    2.3550    0.6141    1.2678 S   0  0  0  0  0  0  0  0  0  0  0  0
    3.6422    0.6312    0.0429 C   0  0  0  0  0  0  0  0  0  0  0  0
    4.1931   -0.7723   -0.2343 C   0  0  0  0  0  0  0  0  0  0  0  0
    5.2370   -0.5860   -1.3094 C   0  0  0  0  0  0  0  0  0  0  0  0
    6.3341    0.3461   -0.8474 C   0  0  0  0  0  0  0  0  0  0  0  0
    5.8771   -1.9015   -1.6974 C   0  0  0  0  0  0  0  0  0  0  0  0
   -0.1120   -0.4760    1.9106 C   0  0  0  0  0  0  0  0  0  0  0  0
    0.1406   -0.1660    3.0780 O   0  0  0  0  0  0  0  0  0  0  0  0
   -1.3223   -1.1203    1.5504 N   0  0  0  0  0  0  0  0  0  0  0  0
   -1.6585   -1.2129    0.1151 C   0  0  1  0  0  0  0  0  0  0  0  0
   -3.0856   -1.5812   -0.0664 C   0  0  0  0  0  0  0  0  0  0  0  0
   -3.4785   -1.7299   -1.4816 C   0  0  0  0  0  0  0  0  0  0  0  0
   -3.1305   -2.8712   -2.2014 C   0  0  0  0  0  0  0  0  0  0  0  0
   -3.5554   -3.0239   -3.4939 C   0  0  0  0  0  0  0  0  0  0  0  0
   -4.3340   -2.0865   -4.1532 C   0  0  0  0  0  0  0  0  0  0  0  0
   -4.6785   -0.9632   -3.4484 C   0  0  0  0  0  0  0  0  0  0  0  0
   -4.2476   -0.8168   -2.1500 C   0  0  0  0  0  0  0  0  0  0  0  0
   -1.1758   -0.0279   -0.5653 C   0  0  0  0  0  0  0  0  0  0  0  0
   -1.7480    0.4931   -1.5325 O   0  0  0  0  0  0  0  0  0  0  0  0
   -2.1544   -1.6886    2.5664 C   0  0  0  0  0  0  0  0  0  0  0  0
   -2.1898   -3.0578    2.7192 C   0  0  0  0  0  0  0  0  0  0  0  0
   -2.9567   -3.6651    3.6716 C   0  0  0  0  0  0  0  0  0  0  0  0
   -3.7260   -2.8917    4.5153 C   0  0  0  0  0  0  0  0  0  0  0  0
   -4.5034   -3.4806    5.4782 F   0  0  0  0  0  0  0  0  0  0  0  0
   -3.7044   -1.5121    4.3788 C   0  0  0  0  0  0  0  0  0  0  0  0
   -2.9268   -0.9227    3.4149 C   0  0  0  0  0  0  0  0  0  0  0  0
    1.9262    5.5969   -0.2816 H   0  0  0  0  0  0  0  0  0  0  0  0
    2.2022    4.0062    0.4989 H   0  0  0  0  0  0  0  0  0  0  0  0
    1.9900    4.1116   -1.3299 H   0  0  0  0  0  0  0  0  0  0  0  0
   -0.2200    4.5566   -1.2482 H   0  0  0  0  0  0  0  0  0  0  0  0
   -0.5501    6.3678    0.0390 H   0  0  0  0  0  0  0  0  0  0  0  0
   -1.2280    5.1800    1.1921 H   0  0  0  0  0  0  0  0  0  0  0  0
    0.4931    5.8267    1.3541 H   0  0  0  0  0  0  0  0  0  0  0  0
    0.2787    2.9359    1.3018 H   0  0  0  0  0  0  0  0  0  0  0  0
   -1.2964    3.0157    0.4141 H   0  0  0  0  0  0  0  0  0  0  0  0
    1.4110    2.0622   -0.7416 H   0  0  0  0  0  0  0  0  0  0  0  0
   -0.1951    2.0722   -1.5514 H   0  0  0  0  0  0  0  0  0  0  0  0
    1.0500   -1.2003    0.3155 H   0  0  0  0  0  0  0  0  0  0  0  0
    3.3278    1.0218   -0.9279 H   0  0  0  0  0  0  0  0  0  0  0  0
    4.5374    1.2154    0.3782 H   0  0  0  0  0  0  0  0  0  0  0  0
    4.6832   -1.2067    0.6426 H   0  0  0  0  0  0  0  0  0  0  0  0
    3.4139   -1.4412   -0.6245 H   0  0  0  0  0  0  0  0  0  0  0  0
    4.7404   -0.1450   -2.1780 H   0  0  0  0  0  0  0  0  0  0  0  0
    6.4529    0.3412    0.2455 H   0  0  0  0  0  0  0  0  0  0  0  0
    7.3002   -0.0046   -1.2652 H   0  0  0  0  0  0  0  0  0  0  0  0
    6.1910    1.3724   -1.2545 H   0  0  0  0  0  0  0  0  0  0  0  0
    6.5192   -1.6992   -2.5777 H   0  0  0  0  0  0  0  0  0  0  0  0
    6.5014   -2.3183   -0.8895 H   0  0  0  0  0  0  0  0  0  0  0  0
    5.1329   -2.6637   -1.9825 H   0  0  0  0  0  0  0  0  0  0  0  0
   -1.0624   -2.1221   -0.2216 H   0  0  0  0  0  0  0  0  0  0  0  0
   -3.7244   -0.7160    0.3160 H   0  0  0  0  0  0  0  0  0  0  0  0
   -3.4378   -2.4351    0.5489 H   0  0  0  0  0  0  0  0  0  0  0  0
   -2.5211   -3.5977   -1.6808 H   0  0  0  0  0  0  0  0  0  0  0  0
   -3.2855   -3.9209   -4.0556 H   0  0  0  0  0  0  0  0  0  0  0  0
   -4.6417   -2.2553   -5.1749 H   0  0  0  0  0  0  0  0  0  0  0  0
   -5.2806   -0.2079   -3.9163 H   0  0  0  0  0  0  0  0  0  0  0  0
   -4.5710    0.1085   -1.6489 H   0  0  0  0  0  0  0  0  0  0  0  0
   -1.5913   -3.6543    2.0619 H   0  0  0  0  0  0  0  0  0  0  0  0
   -2.9964   -4.7450    3.8070 H   0  0  0  0  0  0  0  0  0  0  0  0
   -4.3190   -0.9227    5.0577 H   0  0  0  0  0  0  0  0  0  0  0  0
   -2.9206    0.1694    3.3216 H   0  0  0  0  0  0  0  0  0  0  0  0
  1  2  1  0
  2  3  1  0
  2  4  1  0
  4  5  1  0
  5  6  1  0
  6  7  1  0
  7  8  1  0
  8  9  1  0
  9 10  1  0
 10 11  1  0
 11 12  1  0
 11 13  1  0
  7 14  1  0
 14 15  2  0
 14 16  1  0
 16 17  1  0
 17 18  1  0
 18 19  1  0
 19 20  2  0
 20 21  1  0
 21 22  2  0
 22 23  1  0
 23 24  2  0
 17 25  1  0
 25 26  2  0
 16 27  1  0
 27 28  2  0
 28 29  1  0
 29 30  2  0
 30 31  1  0
 30 32  1  0
 32 33  2  0
 25  6  1  0
 33 27  1  0
 24 19  1  0
  1 34  1  0
  1 35  1  0
  1 36  1  0
  2 37  1  0
  3 38  1  0
  3 39  1  0
  3 40  1  0
  4 41  1  0
  4 42  1  0
  5 43  1  0
  5 44  1  0
  7 45  1  0
  9 46  1  0
  9 47  1  0
 10 48  1  0
 10 49  1  0
 11 50  1  0
 12 51  1  0
 12 52  1  0
 12 53  1  0
 13 54  1  0
 13 55  1  0
 13 56  1  0
 17 57  1  6
 18 58  1  0
 18 59  1  0
 20 60  1  0
 21 61  1  0
 22 62  1  0
 23 63  1  0
 24 64  1  0
 28 65  1  0
 29 66  1  0
 32 67  1  0
 33 68  1  0
M  END
$$$$
[H]c1nc2c([H])c(N3C([H])([H])C([H])([H])N(C(=O)OC(C([H])([H])[H])(C([H])([H])[H])C([H])([H])[H])C([H])([H])C3([H])[H])sc2c(Oc2c([H])c([H])c([H])c(N([H])C(=O)N([H])C([H])([H])c3c([H])c([H])c(C(F)(F)F)c([H])c3[H])c2[H])c1[H]
     RDKit          3D

 76 80  0  0  0  0  0  0  0  0999 V2000
  -11.0584    0.9887   -0.0559 C   0  0  0  0  0  0  0  0  0  0  0  0
   -9.9545    0.6674    0.9425 C   0  0  0  0  0  0  0  0  0  0  0  0
   -9.9008   -0.8327    1.1110 C   0  0  0  0  0  0  0  0  0  0  0  0
  -10.3389    1.3563    2.2293 C   0  0  0  0  0  0  0  0  0  0  0  0
   -8.7106    1.2186    0.5430 O   0  0  0  0  0  0  0  0  0  0  0  0
   -8.1383    0.8293   -0.6786 C   0  0  0  0  0  0  0  0  0  0  0  0
   -8.7365   -0.0047   -1.3774 O   0  0  0  0  0  0  0  0  0  0  0  0
   -6.8993    1.4339   -1.0154 N   0  0  0  0  0  0  0  0  0  0  0  0
   -6.3078    2.4174   -0.1333 C   0  0  0  0  0  0  0  0  0  0  0  0
   -4.9393    1.9147    0.2808 C   0  0  0  0  0  0  0  0  0  0  0  0
   -4.3796    1.1117   -0.7583 N   0  0  0  0  0  0  0  0  0  0  0  0
   -4.7636    1.3343   -2.1319 C   0  0  0  0  0  0  0  0  0  0  0  0
   -6.2620    1.0363   -2.2240 C   0  0  0  0  0  0  0  0  0  0  0  0
   -3.4227    0.0551   -0.5122 C   0  0  0  0  0  0  0  0  0  0  0  0
   -3.6941   -1.2371   -0.1623 C   0  0  0  0  0  0  0  0  0  0  0  0
   -2.6177   -2.0554    0.0062 C   0  0  0  0  0  0  0  0  0  0  0  0
   -2.6493   -3.3855    0.3478 N   0  0  0  0  0  0  0  0  0  0  0  0
   -1.5507   -4.0829    0.4774 C   0  0  0  0  0  0  0  0  0  0  0  0
   -0.2750   -3.6124    0.2992 C   0  0  0  0  0  0  0  0  0  0  0  0
   -0.1771   -2.2356   -0.0556 C   0  0  0  0  0  0  0  0  0  0  0  0
    0.9715   -1.7114   -0.2448 O   0  0  0  0  0  0  0  0  0  0  0  0
    2.0574   -1.0494   -0.2455 C   0  0  0  0  0  0  0  0  0  0  0  0
    2.2042    0.2315   -0.8049 C   0  0  0  0  0  0  0  0  0  0  0  0
    3.3852    0.8691   -0.7747 C   0  0  0  0  0  0  0  0  0  0  0  0
    4.5025    0.2911   -0.1971 C   0  0  0  0  0  0  0  0  0  0  0  0
    4.4428   -0.9598    0.3665 C   0  0  0  0  0  0  0  0  0  0  0  0
    5.5963   -1.5705    0.9012 N   0  0  0  0  0  0  0  0  0  0  0  0
    6.8707   -1.4349    0.3056 C   0  0  0  0  0  0  0  0  0  0  0  0
    7.0538   -0.7572   -0.7370 O   0  0  0  0  0  0  0  0  0  0  0  0
    8.0397   -2.0530    0.8414 N   0  0  0  0  0  0  0  0  0  0  0  0
    9.3406   -1.9844    0.2911 C   0  0  0  0  0  0  0  0  0  0  0  0
   10.0926   -0.7318    0.4601 C   0  0  0  0  0  0  0  0  0  0  0  0
   11.1119   -0.4251   -0.4670 C   0  0  0  0  0  0  0  0  0  0  0  0
   11.8386    0.7447   -0.3416 C   0  0  0  0  0  0  0  0  0  0  0  0
   11.6072    1.6502    0.6703 C   0  0  0  0  0  0  0  0  0  0  0  0
   10.6202    1.3562    1.5717 C   0  0  0  0  0  0  0  0  0  0  0  0
    9.8776    0.1734    1.4563 C   0  0  0  0  0  0  0  0  0  0  0  0
   12.4660    2.8474    0.7011 C   0  0  0  0  0  0  0  0  0  0  0  0
   12.6244    3.2410   -0.6092 F   0  0  0  0  0  0  0  0  0  0  0  0
   11.8510    3.9093    1.4117 F   0  0  0  0  0  0  0  0  0  0  0  0
   13.7336    2.6214    1.1902 F   0  0  0  0  0  0  0  0  0  0  0  0
    3.2204   -1.5939    0.3293 C   0  0  0  0  0  0  0  0  0  0  0  0
   -1.3868   -1.5180   -0.1857 C   0  0  0  0  0  0  0  0  0  0  0  0
   -1.7194    0.0952   -0.5921 S   0  0  0  0  0  0  0  0  0  0  0  0
  -11.2045    0.1301   -0.7495 H   0  0  0  0  0  0  0  0  0  0  0  0
  -10.8226    1.8797   -0.6513 H   0  0  0  0  0  0  0  0  0  0  0  0
  -11.9954    1.1070    0.5006 H   0  0  0  0  0  0  0  0  0  0  0  0
  -10.6790   -1.3136    0.4686 H   0  0  0  0  0  0  0  0  0  0  0  0
  -10.1225   -1.0565    2.1916 H   0  0  0  0  0  0  0  0  0  0  0  0
   -8.8887   -1.1748    0.8132 H   0  0  0  0  0  0  0  0  0  0  0  0
  -11.2943    0.9175    2.6617 H   0  0  0  0  0  0  0  0  0  0  0  0
  -10.4862    2.4413    2.0501 H   0  0  0  0  0  0  0  0  0  0  0  0
   -9.5104    1.2492    2.9304 H   0  0  0  0  0  0  0  0  0  0  0  0
   -6.9259    2.5819    0.7654 H   0  0  0  0  0  0  0  0  0  0  0  0
   -6.1553    3.3226   -0.7519 H   0  0  0  0  0  0  0  0  0  0  0  0
   -5.0550    1.3898    1.2350 H   0  0  0  0  0  0  0  0  0  0  0  0
   -4.3074    2.7983    0.4857 H   0  0  0  0  0  0  0  0  0  0  0  0
   -4.6405    2.4235   -2.3621 H   0  0  0  0  0  0  0  0  0  0  0  0
   -4.1801    0.7605   -2.8560 H   0  0  0  0  0  0  0  0  0  0  0  0
   -6.3645   -0.0725   -2.3427 H   0  0  0  0  0  0  0  0  0  0  0  0
   -6.6730    1.5030   -3.1512 H   0  0  0  0  0  0  0  0  0  0  0  0
   -4.7625   -1.5388   -0.0393 H   0  0  0  0  0  0  0  0  0  0  0  0
   -1.6012   -5.1506    0.7570 H   0  0  0  0  0  0  0  0  0  0  0  0
    0.6153   -4.2025    0.4135 H   0  0  0  0  0  0  0  0  0  0  0  0
    1.3071    0.6704   -1.2638 H   0  0  0  0  0  0  0  0  0  0  0  0
    3.4515    1.8768   -1.2314 H   0  0  0  0  0  0  0  0  0  0  0  0
    5.3983    0.8976   -0.2139 H   0  0  0  0  0  0  0  0  0  0  0  0
    5.5161   -2.1546    1.7816 H   0  0  0  0  0  0  0  0  0  0  0  0
    7.8607   -2.6033    1.7336 H   0  0  0  0  0  0  0  0  0  0  0  0
    9.3024   -2.2920   -0.7982 H   0  0  0  0  0  0  0  0  0  0  0  0
    9.9527   -2.8360    0.7579 H   0  0  0  0  0  0  0  0  0  0  0  0
   11.2596   -1.1330   -1.2570 H   0  0  0  0  0  0  0  0  0  0  0  0
   12.6122    0.9517   -1.0676 H   0  0  0  0  0  0  0  0  0  0  0  0
   10.4549    2.0497    2.3763 H   0  0  0  0  0  0  0  0  0  0  0  0
    9.1161    0.0043    2.2075 H   0  0  0  0  0  0  0  0  0  0  0  0
    3.1960   -2.5852    0.7951 H   0  0  0  0  0  0  0  0  0  0  0  0
  1  2  1  0
  2  3  1  0
  2  4  1  0
  2  5  1  0
  5  6  1  0
  6  7  2  0
  6  8  1  0
  8  9  1  0
  9 10  1  0
 10 11  1  0
 11 12  1  0
 12 13  1  0
 11 14  1  0
 14 15  2  0
 15 16  1  0
 16 17  2  0
 17 18  1  0
 18 19  2  0
 19 20  1  0
 20 21  1  0
 21 22  1  0
 22 23  2  0
 23 24  1  0
 24 25  2  0
 25 26  1  0
 26 27  1  0
 27 28  1  0
 28 29  2  0
 28 30  1  0
 30 31  1  0
 31 32  1  0
 32 33  2  0
 33 34  1  0
 34 35  2  0
 35 36  1  0
 36 37  2  0
 35 38  1  0
 38 39  1  0
 38 40  1  0
 38 41  1  0
 26 42  2  0
 20 43  2  0
 43 44  1  0
 13  8  1  0
 44 14  1  0
 43 16  1  0
 42 22  1  0
 37 32  1  0
  1 45  1  0
  1 46  1  0
  1 47  1  0
  3 48  1  0
  3 49  1  0
  3 50  1  0
  4 51  1  0
  4 52  1  0
  4 53  1  0
  9 54  1  0
  9 55  1  0
 10 56  1  0
 10 57  1  0
 12 58  1  0
 12 59  1  0
 13 60  1  0
 13 61  1  0
 15 62  1  0
 18 63  1  0
 19 64  1  0
 23 65  1  0
 24 66  1  0
 25 67  1  0
 27 68  1  0
 30 69  1  0
 31 70  1  0
 31 71  1  0
 33 72  1  0
 34 73  1  0
 36 74  1  0
 37 75  1  0
 42 76  1  0
M  END
$$$$
[H]c1c([H])c(F)c([H])c(C([H])([H])[C@]2([H])N([H])C([H])([H])C([H])([H])[C@@]3([H])C([H])([H])[C@@]23C(=O)OC([H])([H])C([H])([H])[H])c1[H]
     RDKit          3D

 40 42  0  0  0  0  0  0  0  0999 V2000
    3.3388   -2.8645   -0.9658 C   0  0  0  0  0  0  0  0  0  0  0  0
    2.3613   -2.5701    0.1468 C   0  0  0  0  0  0  0  0  0  0  0  0
    1.9983   -1.2056    0.0326 O   0  0  0  0  0  0  0  0  0  0  0  0
    1.0965   -0.5951    0.9169 C   0  0  0  0  0  0  0  0  0  0  0  0
    0.6261   -1.3106    1.8126 O   0  0  0  0  0  0  0  0  0  0  0  0
    0.7428    0.8567    0.7562 C   0  0  1  0  0  0  0  0  0  0  0  0
    2.0120    1.7493    0.9724 C   0  0  0  0  0  0  0  0  0  0  0  0
    1.3299    1.6109   -0.3375 C   0  0  2  0  0  0  0  0  0  0  0  0
    0.6016    2.8492   -0.7771 C   0  0  0  0  0  0  0  0  0  0  0  0
   -0.2077    3.5012    0.2741 C   0  0  0  0  0  0  0  0  0  0  0  0
   -0.3649    2.8099    1.5061 N   0  0  0  0  0  0  0  0  0  0  0  0
   -0.5415    1.3616    1.3088 C   0  0  1  0  0  0  0  0  0  0  0  0
   -1.7566    1.1733    0.4738 C   0  0  0  0  0  0  0  0  0  0  0  0
   -2.0931   -0.2259    0.1446 C   0  0  0  0  0  0  0  0  0  0  0  0
   -1.5980   -0.7955   -1.0018 C   0  0  0  0  0  0  0  0  0  0  0  0
   -1.8982   -2.1122   -1.3420 C   0  0  0  0  0  0  0  0  0  0  0  0
   -2.7037   -2.8674   -0.5247 C   0  0  0  0  0  0  0  0  0  0  0  0
   -3.2126   -2.3014    0.6416 C   0  0  0  0  0  0  0  0  0  0  0  0
   -3.9996   -3.0531    1.4315 F   0  0  0  0  0  0  0  0  0  0  0  0
   -2.8967   -0.9780    0.9609 C   0  0  0  0  0  0  0  0  0  0  0  0
    4.0941   -3.5853   -0.5967 H   0  0  0  0  0  0  0  0  0  0  0  0
    2.7847   -3.2446   -1.8452 H   0  0  0  0  0  0  0  0  0  0  0  0
    3.8480   -1.9283   -1.2715 H   0  0  0  0  0  0  0  0  0  0  0  0
    1.4863   -3.2458    0.1320 H   0  0  0  0  0  0  0  0  0  0  0  0
    2.9279   -2.6600    1.1005 H   0  0  0  0  0  0  0  0  0  0  0  0
    1.8178    2.6282    1.6231 H   0  0  0  0  0  0  0  0  0  0  0  0
    2.9769    1.2613    1.0653 H   0  0  0  0  0  0  0  0  0  0  0  0
    1.8605    1.0886   -1.1508 H   0  0  0  0  0  0  0  0  0  0  0  0
    1.4032    3.5738   -1.1104 H   0  0  0  0  0  0  0  0  0  0  0  0
    0.0378    2.6296   -1.7153 H   0  0  0  0  0  0  0  0  0  0  0  0
   -1.2231    3.7492   -0.1557 H   0  0  0  0  0  0  0  0  0  0  0  0
    0.2013    4.5240    0.5322 H   0  0  0  0  0  0  0  0  0  0  0  0
   -1.1840    3.2139    2.0155 H   0  0  0  0  0  0  0  0  0  0  0  0
   -0.6886    0.8977    2.3085 H   0  0  0  0  0  0  0  0  0  0  0  0
   -2.6269    1.5381    1.1061 H   0  0  0  0  0  0  0  0  0  0  0  0
   -1.8126    1.8228   -0.4259 H   0  0  0  0  0  0  0  0  0  0  0  0
   -0.9545   -0.2643   -1.6997 H   0  0  0  0  0  0  0  0  0  0  0  0
   -1.5097   -2.5586   -2.2412 H   0  0  0  0  0  0  0  0  0  0  0  0
   -2.9651   -3.8946   -0.7466 H   0  0  0  0  0  0  0  0  0  0  0  0
   -3.3086   -0.5783    1.8683 H   0  0  0  0  0  0  0  0  0  0  0  0
  1  2  1  0
  2  3  1  0
  3  4  1  0
  4  5  2  0
  6  4  1  6
  6  7  1  0
  7  8  1  0
  8  9  1  0
  9 10  1  0
 10 11  1  0
 11 12  1  0
 12 13  1  0
 13 14  1  0
 14 15  2  0
 15 16  1  0
 16 17  2  0
 17 18  1  0
 18 19  1  0
 18 20  2  0
  8  6  1  0
 20 14  1  0
 12  6  1  0
  1 21  1  0
  1 22  1  0
  1 23  1  0
  2 24  1  0
  2 25  1  0
  7 26  1  0
  7 27  1  0
  8 28  1  6
  9 29  1  0
  9 30  1  0
 10 31  1  0
 10 32  1  0
 11 33  1  0
 12 34  1  1
 13 35  1  0
 13 36  1  0
 15 37  1  0
 16 38  1  0
 17 39  1  0
 20 40  1  0
M  END
$$$$
[H]c1nc(N([H])c2c([H])c(C3([H])C([H])([H])C3([H])[H])nn2[H])nc(N(c2nc(N([H])c3c([H])c([H])c([H])c(N4C([H])([H])C([H])([H])OC([H])([H])C4([H])[H])c3[H])nc(C([H])([H])[H])c2[H])C([H])([H])[H])c1[H]
     RDKit          3D

 67 72  0  0  0  0  0  0  0  0999 V2000
   -1.1851   -0.6549    4.3257 C   0  0  0  0  0  0  0  0  0  0  0  0
   -1.4948   -0.7415    2.9294 N   0  0  0  0  0  0  0  0  0  0  0  0
   -2.7614   -0.3435    2.4210 C   0  0  0  0  0  0  0  0  0  0  0  0
   -3.7327    0.2276    3.1889 C   0  0  0  0  0  0  0  0  0  0  0  0
   -4.9661    0.5746    2.6314 C   0  0  0  0  0  0  0  0  0  0  0  0
   -5.1477    0.3230    1.3245 N   0  0  0  0  0  0  0  0  0  0  0  0
   -4.2310   -0.2294    0.5466 C   0  0  0  0  0  0  0  0  0  0  0  0
   -4.4320   -0.4995   -0.8180 N   0  0  0  0  0  0  0  0  0  0  0  0
   -5.6147   -0.2284   -1.5385 C   0  0  0  0  0  0  0  0  0  0  0  0
   -6.8015    0.3346   -1.1205 C   0  0  0  0  0  0  0  0  0  0  0  0
   -7.6972    0.4021   -2.1898 C   0  0  0  0  0  0  0  0  0  0  0  0
   -7.0351   -0.1193   -3.2256 N   0  0  0  0  0  0  0  0  0  0  0  0
   -5.8302   -0.4885   -2.8665 N   0  0  0  0  0  0  0  0  0  0  0  0
   -9.0930    0.9460   -2.1758 C   0  0  0  0  0  0  0  0  0  0  0  0
   -9.2905    2.2939   -1.5005 C   0  0  0  0  0  0  0  0  0  0  0  0
   -9.8213    0.9938   -0.8661 C   0  0  0  0  0  0  0  0  0  0  0  0
   -3.0320   -0.5609    1.1098 N   0  0  0  0  0  0  0  0  0  0  0  0
   -0.5231   -1.2383    2.0274 C   0  0  0  0  0  0  0  0  0  0  0  0
   -0.7992   -2.4149    1.3770 C   0  0  0  0  0  0  0  0  0  0  0  0
    0.1543   -2.8898    0.4966 C   0  0  0  0  0  0  0  0  0  0  0  0
   -0.0963   -4.1772   -0.2504 C   0  0  0  0  0  0  0  0  0  0  0  0
    1.2536   -2.1828    0.3463 N   0  0  0  0  0  0  0  0  0  0  0  0
    1.5576   -1.0515    0.9503 C   0  0  0  0  0  0  0  0  0  0  0  0
    2.7416   -0.2836    0.7919 N   0  0  0  0  0  0  0  0  0  0  0  0
    3.8441   -0.5605   -0.0414 C   0  0  0  0  0  0  0  0  0  0  0  0
    4.0229   -1.6961   -0.7962 C   0  0  0  0  0  0  0  0  0  0  0  0
    5.1228   -1.8920   -1.6020 C   0  0  0  0  0  0  0  0  0  0  0  0
    6.1235   -0.9281   -1.6891 C   0  0  0  0  0  0  0  0  0  0  0  0
    5.9857    0.2232   -0.9506 C   0  0  0  0  0  0  0  0  0  0  0  0
    4.8797    0.3810   -0.1633 C   0  0  0  0  0  0  0  0  0  0  0  0
    6.9934    1.2569   -0.9941 N   0  0  0  0  0  0  0  0  0  0  0  0
    6.7941    2.4562   -0.2558 C   0  0  0  0  0  0  0  0  0  0  0  0
    7.9291    3.4305   -0.4651 C   0  0  0  0  0  0  0  0  0  0  0  0
    9.1068    2.7011   -0.3026 O   0  0  0  0  0  0  0  0  0  0  0  0
    9.3310    1.9237   -1.4114 C   0  0  0  0  0  0  0  0  0  0  0  0
    8.1677    1.0310   -1.7859 C   0  0  0  0  0  0  0  0  0  0  0  0
    0.6073   -0.5820    1.8247 N   0  0  0  0  0  0  0  0  0  0  0  0
   -0.6327    0.3076    4.5164 H   0  0  0  0  0  0  0  0  0  0  0  0
   -0.4733   -1.4593    4.6217 H   0  0  0  0  0  0  0  0  0  0  0  0
   -2.0638   -0.6192    5.0000 H   0  0  0  0  0  0  0  0  0  0  0  0
   -3.5908    0.4299    4.2260 H   0  0  0  0  0  0  0  0  0  0  0  0
   -5.7126    1.0248    3.2631 H   0  0  0  0  0  0  0  0  0  0  0  0
   -3.6518   -0.9498   -1.4005 H   0  0  0  0  0  0  0  0  0  0  0  0
   -7.0834    0.6918   -0.1556 H   0  0  0  0  0  0  0  0  0  0  0  0
   -5.1394   -0.9195   -3.5110 H   0  0  0  0  0  0  0  0  0  0  0  0
   -9.6556    0.8561   -3.1037 H   0  0  0  0  0  0  0  0  0  0  0  0
   -8.3686    2.7274   -1.0257 H   0  0  0  0  0  0  0  0  0  0  0  0
  -10.0389    3.0015   -1.9138 H   0  0  0  0  0  0  0  0  0  0  0  0
  -10.9287    0.8767   -0.8402 H   0  0  0  0  0  0  0  0  0  0  0  0
   -9.2903    0.6936    0.0559 H   0  0  0  0  0  0  0  0  0  0  0  0
   -1.7150   -2.9815    1.5179 H   0  0  0  0  0  0  0  0  0  0  0  0
    0.9123   -4.5688   -0.4997 H   0  0  0  0  0  0  0  0  0  0  0  0
   -0.6770   -4.8926    0.3437 H   0  0  0  0  0  0  0  0  0  0  0  0
   -0.5888   -3.9218   -1.2242 H   0  0  0  0  0  0  0  0  0  0  0  0
    2.8327    0.6207    1.3684 H   0  0  0  0  0  0  0  0  0  0  0  0
    3.3034   -2.4885   -0.7821 H   0  0  0  0  0  0  0  0  0  0  0  0
    5.2196   -2.7997   -2.1768 H   0  0  0  0  0  0  0  0  0  0  0  0
    6.9867   -1.0852   -2.3275 H   0  0  0  0  0  0  0  0  0  0  0  0
    4.8067    1.3115    0.4088 H   0  0  0  0  0  0  0  0  0  0  0  0
    5.8611    3.0025   -0.5494 H   0  0  0  0  0  0  0  0  0  0  0  0
    6.6436    2.2276    0.8350 H   0  0  0  0  0  0  0  0  0  0  0  0
    7.8164    3.8632   -1.4757 H   0  0  0  0  0  0  0  0  0  0  0  0
    7.8312    4.2044    0.3321 H   0  0  0  0  0  0  0  0  0  0  0  0
   10.2752    1.3672   -1.2453 H   0  0  0  0  0  0  0  0  0  0  0  0
    9.5700    2.6192   -2.2688 H   0  0  0  0  0  0  0  0  0  0  0  0
    7.9591    1.1442   -2.8840 H   0  0  0  0  0  0  0  0  0  0  0  0
    8.5624   -0.0207   -1.6757 H   0  0  0  0  0  0  0  0  0  0  0  0
  1  2  1  0
  2  3  1  0
  3  4  2  0
  4  5  1  0
  5  6  2  0
  6  7  1  0
  7  8  1  0
  8  9  1  0
  9 10  2  0
 10 11  1  0
 11 12  2  0
 12 13  1  0
 11 14  1  0
 14 15  1  0
 15 16  1  0
  7 17  2  0
  2 18  1  0
 18 19  2  0
 19 20  1  0
 20 21  1  0
 20 22  2  0
 22 23  1  0
 23 24  1  0
 24 25  1  0
 25 26  2  0
 26 27  1  0
 27 28  2  0
 28 29  1  0
 29 30  2  0
 29 31  1  0
 31 32  1  0
 32 33  1  0
 33 34  1  0
 34 35  1  0
 35 36  1  0
 23 37  2  0
 17  3  1  0
 37 18  1  0
 13  9  1  0
 16 14  1  0
 30 25  1  0
 36 31  1  0
  1 38  1  0
  1 39  1  0
  1 40  1  0
  4 41  1  0
  5 42  1  0
  8 43  1  0
 10 44  1  0
 13 45  1  0
 14 46  1  0
 15 47  1  0
 15 48  1  0
 16 49  1  0
 16 50  1  0
 19 51  1  0
 21 52  1  0
 21 53  1  0
 21 54  1  0
 24 55  1  0
 26 56  1  0
 27 57  1  0
 28 58  1  0
 30 59  1  0
 32 60  1  0
 32 61  1  0
 33 62  1  0
 33 63  1  0
 35 64  1  0
 35 65  1  0
 36 66  1  0
 36 67  1  0
M  END
$$$$
[H]OC([H])([H])[C@]1([H])N([C@]([H])(c2c([H])c([H])c([H])c(OC([H])([H])[H])c2[H])C2([H])C([H])([H])C([H])([H])C([H])([H])C([H])([H])C2([H])[H])C([H])([H])[C@@]([H])(c2c([H])c([H])c([H])c([H])c2[H])C([H])([H])[C@]([H])(N([H])[H])[C@@]1([H])O[H]
     RDKit          3D

 70 73  0  0  0  0  0  0  0  0999 V2000
    4.8266    4.3249    0.2777 C   0  0  0  0  0  0  0  0  0  0  0  0
    3.9615    3.3763   -0.3136 O   0  0  0  0  0  0  0  0  0  0  0  0
    3.2818    2.4451    0.4827 C   0  0  0  0  0  0  0  0  0  0  0  0
    3.4732    2.4733    1.8472 C   0  0  0  0  0  0  0  0  0  0  0  0
    2.7955    1.5498    2.6081 C   0  0  0  0  0  0  0  0  0  0  0  0
    1.9678    0.6477    2.0061 C   0  0  0  0  0  0  0  0  0  0  0  0
    1.7591    0.5996    0.6385 C   0  0  0  0  0  0  0  0  0  0  0  0
    2.4410    1.5250   -0.1038 C   0  0  0  0  0  0  0  0  0  0  0  0
    0.8262   -0.4381    0.0382 C   0  0  1  0  0  0  0  0  0  0  0  0
   -0.1499    0.0780   -0.7794 N   0  0  0  0  0  0  0  0  0  0  0  0
   -0.9353    0.9981    0.1044 C   0  0  0  0  0  0  0  0  0  0  0  0
   -2.3010    0.3844    0.1884 C   0  0  2  0  0  0  0  0  0  0  0  0
   -3.1449    1.1738   -0.8275 C   0  0  0  0  0  0  0  0  0  0  0  0
   -2.8657    0.8136   -2.2345 C   0  0  2  0  0  0  0  0  0  0  0  0
   -4.0737    0.1372   -2.7353 N   0  0  0  0  0  0  0  0  0  0  0  0
   -1.7475   -0.1333   -2.4730 C   0  0  1  0  0  0  0  0  0  0  0  0
   -1.7760   -0.4629   -3.8271 O   0  0  0  0  0  0  0  0  0  0  0  0
   -0.3641    0.4209   -2.0409 C   0  0  2  0  0  0  0  0  0  0  0  0
    0.4817    0.2751   -3.2320 C   0  0  0  0  0  0  0  0  0  0  0  0
    0.8484   -0.9988   -3.6285 O   0  0  0  0  0  0  0  0  0  0  0  0
   -2.9769    0.5987    1.4740 C   0  0  0  0  0  0  0  0  0  0  0  0
   -3.1400    1.8742    1.9967 C   0  0  0  0  0  0  0  0  0  0  0  0
   -3.7848    1.9866    3.2025 C   0  0  0  0  0  0  0  0  0  0  0  0
   -4.2467    0.8665    3.8572 C   0  0  0  0  0  0  0  0  0  0  0  0
   -4.0902   -0.4067    3.3473 C   0  0  0  0  0  0  0  0  0  0  0  0
   -3.4462   -0.5091    2.1444 C   0  0  0  0  0  0  0  0  0  0  0  0
    1.5752   -1.6916   -0.3596 C   0  0  0  0  0  0  0  0  0  0  0  0
    2.2620   -2.1919    0.9272 C   0  0  0  0  0  0  0  0  0  0  0  0
    2.9440   -3.5425    0.6642 C   0  0  0  0  0  0  0  0  0  0  0  0
    1.8309   -4.5592    0.5450 C   0  0  0  0  0  0  0  0  0  0  0  0
    1.0357   -4.1463   -0.6748 C   0  0  0  0  0  0  0  0  0  0  0  0
    0.5061   -2.7567   -0.5760 C   0  0  0  0  0  0  0  0  0  0  0  0
    4.1770    5.0234    0.8589 H   0  0  0  0  0  0  0  0  0  0  0  0
    5.5563    3.8176    0.9418 H   0  0  0  0  0  0  0  0  0  0  0  0
    5.3902    4.8783   -0.4721 H   0  0  0  0  0  0  0  0  0  0  0  0
    4.1448    3.2132    2.2833 H   0  0  0  0  0  0  0  0  0  0  0  0
    2.9628    1.5905    3.6896 H   0  0  0  0  0  0  0  0  0  0  0  0
    1.4270   -0.0917    2.6251 H   0  0  0  0  0  0  0  0  0  0  0  0
    2.3254    1.5403   -1.1863 H   0  0  0  0  0  0  0  0  0  0  0  0
    0.2729   -0.8234    0.9331 H   0  0  0  0  0  0  0  0  0  0  0  0
   -0.4543    1.1588    1.0616 H   0  0  0  0  0  0  0  0  0  0  0  0
   -0.9051    1.9729   -0.4279 H   0  0  0  0  0  0  0  0  0  0  0  0
   -2.2851   -0.6899   -0.0299 H   0  0  0  0  0  0  0  0  0  0  0  0
   -4.2094    1.1269   -0.5704 H   0  0  0  0  0  0  0  0  0  0  0  0
   -2.8555    2.2584   -0.6947 H   0  0  0  0  0  0  0  0  0  0  0  0
   -2.7233    1.6929   -2.8903 H   0  0  0  0  0  0  0  0  0  0  0  0
   -4.8807    0.7247   -2.4636 H   0  0  0  0  0  0  0  0  0  0  0  0
   -4.0075   -0.0897   -3.7296 H   0  0  0  0  0  0  0  0  0  0  0  0
   -1.9105   -1.1293   -1.9615 H   0  0  0  0  0  0  0  0  0  0  0  0
   -2.1166    0.2877   -4.3576 H   0  0  0  0  0  0  0  0  0  0  0  0
   -0.6045    1.5537   -2.0505 H   0  0  0  0  0  0  0  0  0  0  0  0
   -0.1349    0.6468   -4.1170 H   0  0  0  0  0  0  0  0  0  0  0  0
    1.3450    0.9842   -3.2852 H   0  0  0  0  0  0  0  0  0  0  0  0
    1.8516   -1.0312   -3.6226 H   0  0  0  0  0  0  0  0  0  0  0  0
   -2.7531    2.7188    1.4317 H   0  0  0  0  0  0  0  0  0  0  0  0
   -3.9082    2.9904    3.6041 H   0  0  0  0  0  0  0  0  0  0  0  0
   -4.7524    0.9880    4.8088 H   0  0  0  0  0  0  0  0  0  0  0  0
   -4.4637   -1.2655    3.8842 H   0  0  0  0  0  0  0  0  0  0  0  0
   -3.3227   -1.5251    1.7393 H   0  0  0  0  0  0  0  0  0  0  0  0
    2.3228   -1.6063   -1.1107 H   0  0  0  0  0  0  0  0  0  0  0  0
    3.0998   -1.5333    1.2250 H   0  0  0  0  0  0  0  0  0  0  0  0
    1.5663   -2.3203    1.7486 H   0  0  0  0  0  0  0  0  0  0  0  0
    3.6284   -3.7378    1.4929 H   0  0  0  0  0  0  0  0  0  0  0  0
    3.4652   -3.4999   -0.3268 H   0  0  0  0  0  0  0  0  0  0  0  0
    2.2192   -5.5783    0.3504 H   0  0  0  0  0  0  0  0  0  0  0  0
    1.2007   -4.5185    1.4582 H   0  0  0  0  0  0  0  0  0  0  0  0
    1.6660   -4.3058   -1.5703 H   0  0  0  0  0  0  0  0  0  0  0  0
    0.1515   -4.8230   -0.7085 H   0  0  0  0  0  0  0  0  0  0  0  0
   -0.1196   -2.5956   -1.4479 H   0  0  0  0  0  0  0  0  0  0  0  0
   -0.1396   -2.7147    0.3434 H   0  0  0  0  0  0  0  0  0  0  0  0
  1  2  1  0
  2  3  1  0
  3  4  2  0
  4  5  1  0
  5  6  2  0
  6  7  1  0
  7  8  2  0
  7  9  1  0
  9 10  1  0
 10 11  1  0
 11 12  1  0
 12 13  1  0
 13 14  1  0
 14 15  1  0
 14 16  1  0
 16 17  1  0
 16 18  1  0
 18 19  1  0
 19 20  1  0
 12 21  1  0
 21 22  2  0
 22 23  1  0
 23 24  2  0
 24 25  1  0
 25 26  2  0
  9 27  1  0
 27 28  1  0
 28 29  1  0
 29 30  1  0
 30 31  1  0
 31 32  1  0
  8  3  1  0
 18 10  1  0
 26 21  1  0
 32 27  1  0
  1 33  1  0
  1 34  1  0
  1 35  1  0
  4 36  1  0
  5 37  1  0
  6 38  1  0
  8 39  1  0
  9 40  1  1
 11 41  1  0
 11 42  1  0
 12 43  1  6
 13 44  1  0
 13 45  1  0
 14 46  1  6
 15 47  1  0
 15 48  1  0
 16 49  1  1
 17 50  1  0
 18 51  1  1
 19 52  1  0
 19 53  1  0
 20 54  1  0
 22 55  1  0
 23 56  1  0
 24 57  1  0
 25 58  1  0
 26 59  1  0
 27 60  1  0
 28 61  1  0
 28 62  1  0
 29 63  1  0
 29 64  1  0
 30 65  1  0
 30 66  1  0
 31 67  1  0
 31 68  1  0
 32 69  1  0
 32 70  1  0
M  END
$$$$
[H]c1nc(-c2c([H])nc3c(nnn3-c3c([H])c([H])c(OC([H])([H])C([H])([H])N4C([H])([H])C([H])([H])N([H])C([H])([H])C4([H])[H])c([H])c3[H])c2[H])oc1[H]
     RDKit          3D

 50 54  0  0  0  0  0  0  0  0999 V2000
   -3.4325    0.1922   -1.2728 C   0  0  0  0  0  0  0  0  0  0  0  0
   -4.8487    0.4633   -0.8544 C   0  0  0  0  0  0  0  0  0  0  0  0
   -5.4946   -0.6109   -0.1747 N   0  0  0  0  0  0  0  0  0  0  0  0
   -6.9368   -0.3911   -0.0480 C   0  0  0  0  0  0  0  0  0  0  0  0
   -7.3133    0.8201    0.7215 C   0  0  0  0  0  0  0  0  0  0  0  0
   -6.4158    1.2286    1.7255 N   0  0  0  0  0  0  0  0  0  0  0  0
   -5.3258    0.4002    2.0651 C   0  0  0  0  0  0  0  0  0  0  0  0
   -5.0672   -0.7943    1.2102 C   0  0  0  0  0  0  0  0  0  0  0  0
   -2.6201   -0.1017   -0.1898 O   0  0  0  0  0  0  0  0  0  0  0  0
   -1.2716   -0.4215   -0.3180 C   0  0  0  0  0  0  0  0  0  0  0  0
   -0.6958   -0.4530   -1.5733 C   0  0  0  0  0  0  0  0  0  0  0  0
    0.6283   -0.7682   -1.7263 C   0  0  0  0  0  0  0  0  0  0  0  0
    1.4519   -1.0689   -0.6456 C   0  0  0  0  0  0  0  0  0  0  0  0
    0.8443   -1.0284    0.6032 C   0  0  0  0  0  0  0  0  0  0  0  0
   -0.4931   -0.7109    0.7724 C   0  0  0  0  0  0  0  0  0  0  0  0
    2.8116   -1.4079   -0.8508 N   0  0  0  0  0  0  0  0  0  0  0  0
    3.2512   -2.4919   -1.4805 N   0  0  0  0  0  0  0  0  0  0  0  0
    4.5674   -2.4928   -1.5124 N   0  0  0  0  0  0  0  0  0  0  0  0
    5.0131   -1.3669   -0.8821 C   0  0  0  0  0  0  0  0  0  0  0  0
    6.2983   -0.9047   -0.6554 C   0  0  0  0  0  0  0  0  0  0  0  0
    6.4745    0.2872    0.0141 C   0  0  0  0  0  0  0  0  0  0  0  0
    5.3407    0.9490    0.4209 C   0  0  0  0  0  0  0  0  0  0  0  0
    4.0953    0.4650    0.1816 N   0  0  0  0  0  0  0  0  0  0  0  0
    3.8890   -0.6994   -0.4723 C   0  0  0  0  0  0  0  0  0  0  0  0
    7.8264    0.8215    0.2486 C   0  0  0  0  0  0  0  0  0  0  0  0
    8.1318    1.9464    0.8887 N   0  0  0  0  0  0  0  0  0  0  0  0
    9.4974    2.0724    0.8830 C   0  0  0  0  0  0  0  0  0  0  0  0
    9.9881    0.9818    0.2176 C   0  0  0  0  0  0  0  0  0  0  0  0
    8.9581    0.2804   -0.1326 O   0  0  0  0  0  0  0  0  0  0  0  0
   -3.4225   -0.6384   -2.0482 H   0  0  0  0  0  0  0  0  0  0  0  0
   -3.0745    1.1085   -1.8152 H   0  0  0  0  0  0  0  0  0  0  0  0
   -4.8489    1.4286   -0.2886 H   0  0  0  0  0  0  0  0  0  0  0  0
   -5.4162    0.6276   -1.8241 H   0  0  0  0  0  0  0  0  0  0  0  0
   -7.3057   -1.2859    0.5406 H   0  0  0  0  0  0  0  0  0  0  0  0
   -7.4407   -0.4833   -1.0449 H   0  0  0  0  0  0  0  0  0  0  0  0
   -7.4287    1.6776   -0.0108 H   0  0  0  0  0  0  0  0  0  0  0  0
   -8.3447    0.7146    1.1654 H   0  0  0  0  0  0  0  0  0  0  0  0
   -6.2869    2.2557    1.8446 H   0  0  0  0  0  0  0  0  0  0  0  0
   -4.3962    1.0473    2.0422 H   0  0  0  0  0  0  0  0  0  0  0  0
   -5.3745    0.0414    3.1377 H   0  0  0  0  0  0  0  0  0  0  0  0
   -4.0741   -1.2296    1.3240 H   0  0  0  0  0  0  0  0  0  0  0  0
   -5.7767   -1.5977    1.5943 H   0  0  0  0  0  0  0  0  0  0  0  0
   -1.2797   -0.2276   -2.4729 H   0  0  0  0  0  0  0  0  0  0  0  0
    1.0816   -0.7944   -2.7164 H   0  0  0  0  0  0  0  0  0  0  0  0
    1.4376   -1.2555    1.4688 H   0  0  0  0  0  0  0  0  0  0  0  0
   -0.9018   -0.6961    1.7938 H   0  0  0  0  0  0  0  0  0  0  0  0
    7.1640   -1.4719   -0.9975 H   0  0  0  0  0  0  0  0  0  0  0  0
    5.4810    1.8786    0.9494 H   0  0  0  0  0  0  0  0  0  0  0  0
    9.9979    2.8996    1.3358 H   0  0  0  0  0  0  0  0  0  0  0  0
   11.0577    0.8051    0.0525 H   0  0  0  0  0  0  0  0  0  0  0  0
  1  2  1  0
  2  3  1  0
  3  4  1  0
  4  5  1  0
  5  6  1  0
  6  7  1  0
  7  8  1  0
  1  9  1  0
  9 10  1  0
 10 11  2  0
 11 12  1  0
 12 13  2  0
 13 14  1  0
 14 15  2  0
 13 16  1  0
 16 17  1  0
 17 18  2  0
 18 19  1  0
 19 20  2  0
 20 21  1  0
 21 22  2  0
 22 23  1  0
 23 24  2  0
 21 25  1  0
 25 26  2  0
 26 27  1  0
 27 28  2  0
 28 29  1  0
  8  3  1  0
 15 10  1  0
 24 16  1  0
 29 25  1  0
 24 19  1  0
  1 30  1  0
  1 31  1  0
  2 32  1  0
  2 33  1  0
  4 34  1  0
  4 35  1  0
  5 36  1  0
  5 37  1  0
  6 38  1  0
  7 39  1  0
  7 40  1  0
  8 41  1  0
  8 42  1  0
 11 43  1  0
 12 44  1  0
 14 45  1  0
 15 46  1  0
 20 47  1  0
 22 48  1  0
 27 49  1  0
 28 50  1  0
M  END
$$$$
[H]/C(=C(/[H])C([H])([H])N(C([H])([H])[H])C([H])([H])c1c([H])nc([H])n1[H])C([H])([H])Oc1c(C([H])([H])[H])c([H])c([H])c([H])c1C([H])([H])[H].[H]Cl
     RDKit          3D

 46 46  0  0  0  0  0  0  0  0999 V2000
    0.6866    0.0000    0.0000 Cl  0  0  0  0  0  0  0  0  0  0  0  0
    3.5780    0.6217   -1.2326 C   0  0  0  0  0  0  0  0  0  0  0  0
    2.7964    0.0773   -0.1403 N   0  0  0  0  0  0  0  0  0  0  0  0
    1.4844   -0.3831   -0.5836 C   0  0  0  0  0  0  0  0  0  0  0  0
    0.5913    0.6838   -1.0047 C   0  0  0  0  0  0  0  0  0  0  0  0
   -0.5739    0.8495   -0.3637 C   0  0  0  0  0  0  0  0  0  0  0  0
   -1.5464    1.9021   -0.7167 C   0  0  0  0  0  0  0  0  0  0  0  0
   -2.7695    1.3285   -1.0880 O   0  0  0  0  0  0  0  0  0  0  0  0
   -3.5848    0.5157   -0.3649 C   0  0  0  0  0  0  0  0  0  0  0  0
   -3.5521   -0.8447   -0.4439 C   0  0  0  0  0  0  0  0  0  0  0  0
   -2.6394   -1.5620   -1.3752 C   0  0  0  0  0  0  0  0  0  0  0  0
   -4.4057   -1.6269    0.3248 C   0  0  0  0  0  0  0  0  0  0  0  0
   -5.3014   -1.0298    1.1801 C   0  0  0  0  0  0  0  0  0  0  0  0
   -5.3561    0.3457    1.2782 C   0  0  0  0  0  0  0  0  0  0  0  0
   -4.5024    1.1099    0.5097 C   0  0  0  0  0  0  0  0  0  0  0  0
   -4.5159    2.5930    0.5703 C   0  0  0  0  0  0  0  0  0  0  0  0
    3.4183   -1.0988    0.4383 C   0  0  0  0  0  0  0  0  0  0  0  0
    4.7397   -0.8864    1.0092 C   0  0  0  0  0  0  0  0  0  0  0  0
    5.3990    0.3039    1.1837 C   0  0  0  0  0  0  0  0  0  0  0  0
    6.6037    0.0868    1.7445 N   0  0  0  0  0  0  0  0  0  0  0  0
    6.6842   -1.2557    1.9163 C   0  0  0  0  0  0  0  0  0  0  0  0
    5.5501   -1.8545    1.4697 N   0  0  0  0  0  0  0  0  0  0  0  0
   -0.6866    0.0000    0.0000 H   0  0  0  0  0  0  0  0  0  0  0  0
    3.7516    1.7114   -1.0772 H   0  0  0  0  0  0  0  0  0  0  0  0
    3.0520    0.5423   -2.2077 H   0  0  0  0  0  0  0  0  0  0  0  0
    4.5281    0.0504   -1.3571 H   0  0  0  0  0  0  0  0  0  0  0  0
    1.6631   -1.1595   -1.3768 H   0  0  0  0  0  0  0  0  0  0  0  0
    1.0496   -0.9327    0.2710 H   0  0  0  0  0  0  0  0  0  0  0  0
    0.7717    1.3870   -1.8112 H   0  0  0  0  0  0  0  0  0  0  0  0
   -0.8214    0.1782    0.4688 H   0  0  0  0  0  0  0  0  0  0  0  0
   -1.1486    2.5736   -1.5112 H   0  0  0  0  0  0  0  0  0  0  0  0
   -1.6934    2.5048    0.2240 H   0  0  0  0  0  0  0  0  0  0  0  0
   -1.7685   -1.9711   -0.8431 H   0  0  0  0  0  0  0  0  0  0  0  0
   -2.3046   -0.9352   -2.2078 H   0  0  0  0  0  0  0  0  0  0  0  0
   -3.2128   -2.4506   -1.7540 H   0  0  0  0  0  0  0  0  0  0  0  0
   -4.3743   -2.7037    0.2580 H   0  0  0  0  0  0  0  0  0  0  0  0
   -5.9783   -1.6367    1.7911 H   0  0  0  0  0  0  0  0  0  0  0  0
   -6.0598    0.8595    1.9515 H   0  0  0  0  0  0  0  0  0  0  0  0
   -4.2653    2.9666   -0.4433 H   0  0  0  0  0  0  0  0  0  0  0  0
   -3.7790    2.8918    1.3389 H   0  0  0  0  0  0  0  0  0  0  0  0
   -5.5427    2.9592    0.8215 H   0  0  0  0  0  0  0  0  0  0  0  0
    2.7387   -1.3966    1.2920 H   0  0  0  0  0  0  0  0  0  0  0  0
    3.3632   -1.9630   -0.2629 H   0  0  0  0  0  0  0  0  0  0  0  0
    5.0120    1.2731    0.9146 H   0  0  0  0  0  0  0  0  0  0  0  0
    7.5561   -1.7239    2.3535 H   0  0  0  0  0  0  0  0  0  0  0  0
    5.3652   -2.9008    1.4935 H   0  0  0  0  0  0  0  0  0  0  0  0
  2  3  1  0
  3  4  1  0
  4  5  1  0
  5  6  2  0
  6  7  1  0
  7  8  1  0
  8  9  1  0
  9 10  2  0
 10 11  1  0
 10 12  1  0
 12 13  2  0
 13 14  1  0
 14 15  2  0
 15 16  1  0
  3 17  1  0
 17 18  1  0
 18 19  2  0
 19 20  1  0
 20 21  2  0
 21 22  1  0
 15  9  1  0
 22 18  1  0
  1 23  1  0
  2 24  1  0
  2 25  1  0
  2 26  1  0
  4 27  1  0
  4 28  1  0
  5 29  1  0
  6 30  1  0
  7 31  1  0
  7 32  1  0
 11 33  1  0
 11 34  1  0
 11 35  1  0
 12 36  1  0
 13 37  1  0
 14 38  1  0
 16 39  1  0
 16 40  1  0
 16 41  1  0
 17 42  1  0
 17 43  1  0
 19 44  1  0
 21 45  1  0
 22 46  1  0
M  END
$$$$
[H]c1nc(N([H])C(=O)N2[C@@]([H])(C([H])([H])[H])c3c([H])c(F)c([H])c([H])c3C(=O)[C@@](c3nc(-c4c([H])c([H])c([H])c([H])c4[H])c([H])s3)(C([H])([H])[H])[C@]2([H])C([H])([H])[H])nc([H])c1[H]
     RDKit          3D

 60 64  0  0  0  0  0  0  0  0999 V2000
    0.9762    0.5159    2.1804 C   0  0  0  0  0  0  0  0  0  0  0  0
    0.6006    0.8378    0.7015 C   0  0  1  0  0  0  0  0  0  0  0  0
   -0.4723   -0.0880    0.3448 C   0  0  2  0  0  0  0  0  0  0  0  0
    0.1329   -1.2884   -0.3464 C   0  0  0  0  0  0  0  0  0  0  0  0
   -1.5774    0.3642   -0.4598 N   0  0  0  0  0  0  0  0  0  0  0  0
   -1.6961    1.4539   -1.4112 C   0  0  1  0  0  0  0  0  0  0  0  0
   -2.6133    1.3233   -2.5388 C   0  0  0  0  0  0  0  0  0  0  0  0
   -1.6651    2.7841   -0.7352 C   0  0  0  0  0  0  0  0  0  0  0  0
   -2.6118    3.6749   -1.1140 C   0  0  0  0  0  0  0  0  0  0  0  0
   -2.6247    4.9334   -0.5180 C   0  0  0  0  0  0  0  0  0  0  0  0
   -3.5933    5.7959   -0.9289 F   0  0  0  0  0  0  0  0  0  0  0  0
   -1.6944    5.2713    0.4388 C   0  0  0  0  0  0  0  0  0  0  0  0
   -0.7283    4.3700    0.8288 C   0  0  0  0  0  0  0  0  0  0  0  0
   -0.7199    3.1255    0.2360 C   0  0  0  0  0  0  0  0  0  0  0  0
    0.3398    2.2710    0.7258 C   0  0  0  0  0  0  0  0  0  0  0  0
    1.2654    2.9316    1.3211 O   0  0  0  0  0  0  0  0  0  0  0  0
   -2.7424   -0.4026   -0.2992 C   0  0  0  0  0  0  0  0  0  0  0  0
   -3.8398   -0.1143   -0.8864 O   0  0  0  0  0  0  0  0  0  0  0  0
   -2.7923   -1.5714    0.5344 N   0  0  0  0  0  0  0  0  0  0  0  0
   -4.0131   -2.3161    0.6585 C   0  0  0  0  0  0  0  0  0  0  0  0
   -5.1200   -1.9627    0.0223 N   0  0  0  0  0  0  0  0  0  0  0  0
   -6.2592   -2.6444    0.1285 C   0  0  0  0  0  0  0  0  0  0  0  0
   -6.3253   -3.7653    0.9216 C   0  0  0  0  0  0  0  0  0  0  0  0
   -5.1865   -4.1433    1.5866 C   0  0  0  0  0  0  0  0  0  0  0  0
   -4.0687   -3.4086    1.4346 N   0  0  0  0  0  0  0  0  0  0  0  0
    1.8989    0.6419   -0.0599 C   0  0  0  0  0  0  0  0  0  0  0  0
    2.8994   -0.1577    0.2603 N   0  0  0  0  0  0  0  0  0  0  0  0
    3.9595   -0.2173   -0.4811 C   0  0  0  0  0  0  0  0  0  0  0  0
    3.9847    0.5840   -1.6004 C   0  0  0  0  0  0  0  0  0  0  0  0
    2.4699    1.3663   -1.4975 S   0  0  0  0  0  0  0  0  0  0  0  0
    5.1052   -1.1071   -0.1497 C   0  0  0  0  0  0  0  0  0  0  0  0
    6.2102   -1.1477   -0.9524 C   0  0  0  0  0  0  0  0  0  0  0  0
    7.2760   -1.9828   -0.6341 C   0  0  0  0  0  0  0  0  0  0  0  0
    7.2368   -2.7751    0.4841 C   0  0  0  0  0  0  0  0  0  0  0  0
    6.1278   -2.7250    1.2768 C   0  0  0  0  0  0  0  0  0  0  0  0
    5.0587   -1.9082    0.9861 C   0  0  0  0  0  0  0  0  0  0  0  0
    0.2222    1.0271    2.8148 H   0  0  0  0  0  0  0  0  0  0  0  0
    0.8497   -0.5722    2.3615 H   0  0  0  0  0  0  0  0  0  0  0  0
    1.9977    0.8723    2.3395 H   0  0  0  0  0  0  0  0  0  0  0  0
   -0.9396   -0.4466    1.3093 H   0  0  0  0  0  0  0  0  0  0  0  0
   -0.6133   -1.9132   -0.8771 H   0  0  0  0  0  0  0  0  0  0  0  0
    0.6880   -1.9444    0.3299 H   0  0  0  0  0  0  0  0  0  0  0  0
    0.7890   -0.8865   -1.1739 H   0  0  0  0  0  0  0  0  0  0  0  0
   -0.6373    1.4276   -1.9017 H   0  0  0  0  0  0  0  0  0  0  0  0
   -2.5530    0.2536   -2.9095 H   0  0  0  0  0  0  0  0  0  0  0  0
   -2.1621    1.8922   -3.4104 H   0  0  0  0  0  0  0  0  0  0  0  0
   -3.6629    1.5834   -2.4311 H   0  0  0  0  0  0  0  0  0  0  0  0
   -3.3398    3.4140   -1.8670 H   0  0  0  0  0  0  0  0  0  0  0  0
   -1.7262    6.2604    0.8887 H   0  0  0  0  0  0  0  0  0  0  0  0
    0.0201    4.5875    1.5724 H   0  0  0  0  0  0  0  0  0  0  0  0
   -1.9903   -1.9344    1.0732 H   0  0  0  0  0  0  0  0  0  0  0  0
   -7.1353   -2.3261   -0.4031 H   0  0  0  0  0  0  0  0  0  0  0  0
   -7.2679   -4.3198    1.0025 H   0  0  0  0  0  0  0  0  0  0  0  0
   -5.2239   -5.0327    2.2211 H   0  0  0  0  0  0  0  0  0  0  0  0
    4.7856    0.6823   -2.3574 H   0  0  0  0  0  0  0  0  0  0  0  0
    6.2947   -0.5396   -1.8530 H   0  0  0  0  0  0  0  0  0  0  0  0
    8.1213   -1.9846   -1.2883 H   0  0  0  0  0  0  0  0  0  0  0  0
    8.0658   -3.4240    0.7308 H   0  0  0  0  0  0  0  0  0  0  0  0
    6.0444   -3.3345    2.1783 H   0  0  0  0  0  0  0  0  0  0  0  0
    4.1745   -1.8608    1.6080 H   0  0  0  0  0  0  0  0  0  0  0  0
  2  1  1  1
  2  3  1  0
  3  4  1  0
  3  5  1  0
  5  6  1  0
  6  7  1  0
  6  8  1  0
  8  9  2  0
  9 10  1  0
 10 11  1  0
 10 12  2  0
 12 13  1  0
 13 14  2  0
 14 15  1  0
 15 16  2  0
  5 17  1  0
 17 18  2  0
 17 19  1  0
 19 20  1  0
 20 21  2  0
 21 22  1  0
 22 23  2  0
 23 24  1  0
 24 25  2  0
  2 26  1  0
 26 27  2  0
 27 28  1  0
 28 29  2  0
 29 30  1  0
 28 31  1  0
 31 32  2  0
 32 33  1  0
 33 34  2  0
 34 35  1  0
 35 36  2  0
 15  2  1  0
 25 20  1  0
 30 26  1  0
 36 31  1  0
 14  8  1  0
  1 37  1  0
  1 38  1  0
  1 39  1  0
  3 40  1  1
  4 41  1  0
  4 42  1  0
  4 43  1  0
  6 44  1  6
  7 45  1  0
  7 46  1  0
  7 47  1  0
  9 48  1  0
 12 49  1  0
 13 50  1  0
 19 51  1  0
 22 52  1  0
 23 53  1  0
 24 54  1  0
 29 55  1  0
 32 56  1  0
 33 57  1  0
 34 58  1  0
 35 59  1  0
 36 60  1  0
M  END
$$$$
[H]c1nc([H])c(C([H])([H])[C@]2([H])N3C([H])([H])C([H])([H])C([H])(C([H])([H])C3([H])[H])[C@@]2([H])N([H])C(=O)c2sc3c([H])c(Cl)c([H])c([H])c3c2[H])c([H])c1[H]
     RDKit          3D

 50 54  0  0  0  0  0  0  0  0999 V2000
    9.0798    2.2868   -0.7405 Cl  0  0  0  0  0  0  0  0  0  0  0  0
    7.4494    1.7035   -0.5287 C   0  0  0  0  0  0  0  0  0  0  0  0
    6.9325    0.7694   -1.4037 C   0  0  0  0  0  0  0  0  0  0  0  0
    5.6767    0.2849   -1.2848 C   0  0  0  0  0  0  0  0  0  0  0  0
    4.8057    0.6966   -0.2622 C   0  0  0  0  0  0  0  0  0  0  0  0
    3.5401    0.2797   -0.0525 C   0  0  0  0  0  0  0  0  0  0  0  0
    2.8737    0.8215    1.0152 C   0  0  0  0  0  0  0  0  0  0  0  0
    4.0248    1.8848    1.6848 S   0  0  0  0  0  0  0  0  0  0  0  0
    5.3149    1.6188    0.6023 C   0  0  0  0  0  0  0  0  0  0  0  0
    6.6155    2.1262    0.4863 C   0  0  0  0  0  0  0  0  0  0  0  0
    1.4882    0.5352    1.4584 C   0  0  0  0  0  0  0  0  0  0  0  0
    1.0715    1.1485    2.4715 O   0  0  0  0  0  0  0  0  0  0  0  0
    0.6685   -0.3792    0.7838 N   0  0  0  0  0  0  0  0  0  0  0  0
   -0.6722   -0.6835    1.1785 C   0  0  2  0  0  0  0  0  0  0  0  0
   -0.8786   -2.1424    1.5263 C   0  0  0  0  0  0  0  0  0  0  0  0
   -0.9982   -2.9396    0.2208 C   0  0  0  0  0  0  0  0  0  0  0  0
   -2.3082   -2.5199   -0.4159 C   0  0  0  0  0  0  0  0  0  0  0  0
   -2.7734   -1.2378    0.1013 N   0  0  0  0  0  0  0  0  0  0  0  0
   -3.2718   -1.4941    1.4411 C   0  0  0  0  0  0  0  0  0  0  0  0
   -2.2296   -2.2500    2.2019 C   0  0  0  0  0  0  0  0  0  0  0  0
   -1.6442   -0.3323    0.0950 C   0  0  1  0  0  0  0  0  0  0  0  0
   -2.0998    1.1155    0.2164 C   0  0  0  0  0  0  0  0  0  0  0  0
   -3.0636    1.4630   -0.8585 C   0  0  0  0  0  0  0  0  0  0  0  0
   -4.4235    1.3149   -0.7446 C   0  0  0  0  0  0  0  0  0  0  0  0
   -5.2936    1.6499   -1.7696 C   0  0  0  0  0  0  0  0  0  0  0  0
   -4.7541    2.1462   -2.9325 C   0  0  0  0  0  0  0  0  0  0  0  0
   -3.4281    2.2942   -3.0526 N   0  0  0  0  0  0  0  0  0  0  0  0
   -2.5823    1.9671   -2.0526 C   0  0  0  0  0  0  0  0  0  0  0  0
    7.5780    0.4126   -2.2265 H   0  0  0  0  0  0  0  0  0  0  0  0
    5.3641   -0.4576   -2.0373 H   0  0  0  0  0  0  0  0  0  0  0  0
    2.9936   -0.4691   -0.6773 H   0  0  0  0  0  0  0  0  0  0  0  0
    6.9580    2.8519    1.2003 H   0  0  0  0  0  0  0  0  0  0  0  0
    1.0762   -0.8686   -0.0682 H   0  0  0  0  0  0  0  0  0  0  0  0
   -0.9044   -0.0756    2.0781 H   0  0  0  0  0  0  0  0  0  0  0  0
   -0.1233   -2.5498    2.1963 H   0  0  0  0  0  0  0  0  0  0  0  0
   -1.0544   -4.0116    0.5459 H   0  0  0  0  0  0  0  0  0  0  0  0
   -0.1425   -2.7455   -0.4475 H   0  0  0  0  0  0  0  0  0  0  0  0
   -3.0780   -3.2742   -0.1269 H   0  0  0  0  0  0  0  0  0  0  0  0
   -2.2610   -2.5238   -1.5208 H   0  0  0  0  0  0  0  0  0  0  0  0
   -3.6062   -0.5645    1.9448 H   0  0  0  0  0  0  0  0  0  0  0  0
   -4.1933   -2.1124    1.3107 H   0  0  0  0  0  0  0  0  0  0  0  0
   -2.4993   -3.3436    2.1718 H   0  0  0  0  0  0  0  0  0  0  0  0
   -2.1838   -1.9972    3.2795 H   0  0  0  0  0  0  0  0  0  0  0  0
   -1.1522   -0.4228   -0.8937 H   0  0  0  0  0  0  0  0  0  0  0  0
   -1.1778    1.7312    0.1433 H   0  0  0  0  0  0  0  0  0  0  0  0
   -2.5820    1.3217    1.1786 H   0  0  0  0  0  0  0  0  0  0  0  0
   -4.8389    0.9248    0.1710 H   0  0  0  0  0  0  0  0  0  0  0  0
   -6.3613    1.5369   -1.6886 H   0  0  0  0  0  0  0  0  0  0  0  0
   -5.4129    2.4075   -3.7282 H   0  0  0  0  0  0  0  0  0  0  0  0
   -1.5186    2.1020   -2.1903 H   0  0  0  0  0  0  0  0  0  0  0  0
  1  2  1  0
  2  3  2  0
  3  4  1  0
  4  5  2  0
  5  6  1  0
  6  7  2  0
  7  8  1  0
  8  9  1  0
  9 10  2  0
  7 11  1  0
 11 12  2  0
 11 13  1  0
 13 14  1  0
 14 15  1  0
 15 16  1  0
 16 17  1  0
 17 18  1  0
 18 19  1  0
 19 20  1  0
 18 21  1  0
 21 22  1  0
 22 23  1  0
 23 24  2  0
 24 25  1  0
 25 26  2  0
 26 27  1  0
 27 28  2  0
 10  2  1  0
 21 14  1  0
 28 23  1  0
  9  5  1  0
 20 15  1  0
  3 29  1  0
  4 30  1  0
  6 31  1  0
 10 32  1  0
 13 33  1  0
 14 34  1  1
 15 35  1  0
 16 36  1  0
 16 37  1  0
 17 38  1  0
 17 39  1  0
 19 40  1  0
 19 41  1  0
 20 42  1  0
 20 43  1  0
 21 44  1  6
 22 45  1  0
 22 46  1  0
 24 47  1  0
 25 48  1  0
 26 49  1  0
 28 50  1  0
M  END
$$$$
[H]c1nn2c([H])c([H])c(N3C([H])([H])C([H])([H])OC([H])([H])C3([H])[H])nc2c1C(=O)N([H])N=C1C(=O)N([H])c2c([H])c([H])c(C(=O)N([H])[H])c(F)c21
     RDKit          3D

 50 54  0  0  0  0  0  0  0  0999 V2000
    7.1339    2.3186    3.5468 N   0  0  0  0  0  0  0  0  0  0  0  0
    7.6095    1.4641    2.5726 C   0  0  0  0  0  0  0  0  0  0  0  0
    8.8966    1.3832    2.3661 O   0  0  0  0  0  0  0  0  0  0  0  0
    6.8076    0.6118    1.7344 C   0  0  0  0  0  0  0  0  0  0  0  0
    7.3850   -0.3926    1.0265 C   0  0  0  0  0  0  0  0  0  0  0  0
    6.7019   -1.2374    0.1666 C   0  0  0  0  0  0  0  0  0  0  0  0
    5.3269   -1.0526    0.0150 C   0  0  0  0  0  0  0  0  0  0  0  0
    4.3878   -1.7144   -0.7112 N   0  0  0  0  0  0  0  0  0  0  0  0
    3.0734   -1.1218   -0.5008 C   0  0  0  0  0  0  0  0  0  0  0  0
    2.0440   -1.5825   -1.0851 O   0  0  0  0  0  0  0  0  0  0  0  0
    3.2795   -0.0514    0.4131 C   0  0  0  0  0  0  0  0  0  0  0  0
    2.4552    0.8061    0.9316 N   0  0  0  0  0  0  0  0  0  0  0  0
    1.1590    0.7840    0.6184 N   0  0  0  0  0  0  0  0  0  0  0  0
   -0.1476    0.7618    0.3032 C   0  0  0  0  0  0  0  0  0  0  0  0
   -1.1082    0.7443    1.1361 O   0  0  0  0  0  0  0  0  0  0  0  0
   -0.5513    0.7413   -1.1485 C   0  0  0  0  0  0  0  0  0  0  0  0
    0.1959    1.0628   -2.2293 C   0  0  0  0  0  0  0  0  0  0  0  0
   -0.6342    0.9211   -3.3442 N   0  0  0  0  0  0  0  0  0  0  0  0
   -1.7968    0.5402   -2.9311 N   0  0  0  0  0  0  0  0  0  0  0  0
   -2.9446    0.3050   -3.6325 C   0  0  0  0  0  0  0  0  0  0  0  0
   -4.0719   -0.0631   -2.8976 C   0  0  0  0  0  0  0  0  0  0  0  0
   -4.0953   -0.2047   -1.5358 C   0  0  0  0  0  0  0  0  0  0  0  0
   -2.8950    0.0488   -0.8939 N   0  0  0  0  0  0  0  0  0  0  0  0
   -1.8279    0.4040   -1.6109 C   0  0  0  0  0  0  0  0  0  0  0  0
   -5.2173   -0.5696   -0.7820 N   0  0  0  0  0  0  0  0  0  0  0  0
   -6.3785   -1.1835   -1.2851 C   0  0  0  0  0  0  0  0  0  0  0  0
   -7.6414   -0.5896   -0.6800 C   0  0  0  0  0  0  0  0  0  0  0  0
   -7.5494   -0.3863    0.6840 O   0  0  0  0  0  0  0  0  0  0  0  0
   -6.3880   -0.8783    1.2765 C   0  0  0  0  0  0  0  0  0  0  0  0
   -5.1512   -0.2749    0.6485 C   0  0  0  0  0  0  0  0  0  0  0  0
    4.7340   -0.0055    0.7576 C   0  0  0  0  0  0  0  0  0  0  0  0
    5.4262    0.8161    1.5977 C   0  0  0  0  0  0  0  0  0  0  0  0
    4.8500    1.8066    2.2743 F   0  0  0  0  0  0  0  0  0  0  0  0
    7.3857    2.0802    4.5678 H   0  0  0  0  0  0  0  0  0  0  0  0
    6.5561    3.1750    3.4374 H   0  0  0  0  0  0  0  0  0  0  0  0
    8.4711   -0.5829    1.1181 H   0  0  0  0  0  0  0  0  0  0  0  0
    7.2179   -2.0013   -0.3458 H   0  0  0  0  0  0  0  0  0  0  0  0
    4.5024   -2.5487   -1.3773 H   0  0  0  0  0  0  0  0  0  0  0  0
    0.9365    0.6225    1.9859 H   0  0  0  0  0  0  0  0  0  0  0  0
    1.2300    1.3671   -2.2930 H   0  0  0  0  0  0  0  0  0  0  0  0
   -2.9440    0.3927   -4.6928 H   0  0  0  0  0  0  0  0  0  0  0  0
   -5.0114   -0.2339   -3.4419 H   0  0  0  0  0  0  0  0  0  0  0  0
   -6.4754   -0.9896   -2.3761 H   0  0  0  0  0  0  0  0  0  0  0  0
   -6.3632   -2.3093   -1.1801 H   0  0  0  0  0  0  0  0  0  0  0  0
   -7.9049    0.3468   -1.1742 H   0  0  0  0  0  0  0  0  0  0  0  0
   -8.4558   -1.3112   -0.8257 H   0  0  0  0  0  0  0  0  0  0  0  0
   -6.3321   -1.9571    1.3801 H   0  0  0  0  0  0  0  0  0  0  0  0
   -6.3891   -0.4497    2.3316 H   0  0  0  0  0  0  0  0  0  0  0  0
   -5.2483    0.8272    0.8047 H   0  0  0  0  0  0  0  0  0  0  0  0
   -4.2431   -0.6393    1.1441 H   0  0  0  0  0  0  0  0  0  0  0  0
  1  2  1  0
  2  3  2  0
  2  4  1  0
  4  5  2  0
  5  6  1  0
  6  7  2  0
  7  8  1  0
  8  9  1  0
  9 10  2  0
  9 11  1  0
 11 12  2  3
 12 13  1  0
 13 14  1  0
 14 15  2  0
 14 16  1  0
 16 17  1  0
 17 18  2  0
 18 19  1  0
 19 20  1  0
 20 21  2  0
 21 22  1  0
 22 23  2  0
 23 24  1  0
 22 25  1  0
 25 26  1  0
 26 27  1  0
 27 28  1  0
 28 29  1  0
 29 30  1  0
 11 31  1  0
 31 32  2  0
 32 33  1  0
 32  4  1  0
 31  7  1  0
 24 16  2  0
 30 25  1  0
 24 19  1  0
  1 34  1  0
  1 35  1  0
  5 36  1  0
  6 37  1  0
  8 38  1  0
 13 39  1  0
 17 40  1  0
 20 41  1  0
 21 42  1  0
 26 43  1  0
 26 44  1  0
 27 45  1  0
 27 46  1  0
 29 47  1  0
 29 48  1  0
 30 49  1  0
 30 50  1  0
M  END
$$$$
[H]OC(=O)c1c([H])c([H])c(C([H])([H])c2c([H])c(=O)c3c([H])c(O[H])c(O[H])c([H])c3n2[H])c([H])c1O[H]
     RDKit          3D

 37 39  0  0  0  0  0  0  0  0999 V2000
   -6.0742    1.4314   -0.8935 O   0  0  0  0  0  0  0  0  0  0  0  0
   -5.2233    1.7779    0.1426 C   0  0  0  0  0  0  0  0  0  0  0  0
   -5.4736    2.8269    0.7879 O   0  0  0  0  0  0  0  0  0  0  0  0
   -4.0890    0.9344    0.4462 C   0  0  0  0  0  0  0  0  0  0  0  0
   -3.2219    1.2502    1.4714 C   0  0  0  0  0  0  0  0  0  0  0  0
   -2.1300    0.4648    1.7856 C   0  0  0  0  0  0  0  0  0  0  0  0
   -1.8962   -0.6714    1.0537 C   0  0  0  0  0  0  0  0  0  0  0  0
   -0.7595   -1.5846    1.3020 C   0  0  0  0  0  0  0  0  0  0  0  0
    0.4492   -1.2439    0.5460 C   0  0  0  0  0  0  0  0  0  0  0  0
    0.6850   -1.7641   -0.7111 C   0  0  0  0  0  0  0  0  0  0  0  0
    1.8043   -1.4679   -1.4478 C   0  0  0  0  0  0  0  0  0  0  0  0
    2.0291   -1.9382   -2.5979 O   0  0  0  0  0  0  0  0  0  0  0  0
    2.7554   -0.6054   -0.9182 C   0  0  0  0  0  0  0  0  0  0  0  0
    3.9048   -0.2874   -1.6484 C   0  0  0  0  0  0  0  0  0  0  0  0
    4.8070    0.5742   -1.0640 C   0  0  0  0  0  0  0  0  0  0  0  0
    5.9843    0.9457   -1.7252 O   0  0  0  0  0  0  0  0  0  0  0  0
    4.6090    1.1154    0.1892 C   0  0  0  0  0  0  0  0  0  0  0  0
    5.5417    1.9951    0.7728 O   0  0  0  0  0  0  0  0  0  0  0  0
    3.4593    0.7685    0.8652 C   0  0  0  0  0  0  0  0  0  0  0  0
    2.5037   -0.0963    0.3365 C   0  0  0  0  0  0  0  0  0  0  0  0
    1.3912   -0.4129    1.0265 N   0  0  0  0  0  0  0  0  0  0  0  0
   -2.7608   -0.9834    0.0339 C   0  0  0  0  0  0  0  0  0  0  0  0
   -3.8510   -0.2055   -0.2849 C   0  0  0  0  0  0  0  0  0  0  0  0
   -4.7235   -0.5201   -1.3139 O   0  0  0  0  0  0  0  0  0  0  0  0
   -7.0857    1.3785   -0.7922 H   0  0  0  0  0  0  0  0  0  0  0  0
   -3.4102    2.1443    2.0434 H   0  0  0  0  0  0  0  0  0  0  0  0
   -1.4374    0.6889    2.5812 H   0  0  0  0  0  0  0  0  0  0  0  0
   -0.5532   -1.5731    2.4081 H   0  0  0  0  0  0  0  0  0  0  0  0
   -1.1237   -2.6232    1.0992 H   0  0  0  0  0  0  0  0  0  0  0  0
   -0.0386   -2.4420   -1.1552 H   0  0  0  0  0  0  0  0  0  0  0  0
    4.0554   -0.7040   -2.6111 H   0  0  0  0  0  0  0  0  0  0  0  0
    6.2064    0.5960   -2.6443 H   0  0  0  0  0  0  0  0  0  0  0  0
    6.3876    2.2570    0.2880 H   0  0  0  0  0  0  0  0  0  0  0  0
    3.2545    1.1637    1.8500 H   0  0  0  0  0  0  0  0  0  0  0  0
    1.2710    0.0216    1.9879 H   0  0  0  0  0  0  0  0  0  0  0  0
   -2.6121   -1.8840   -0.5784 H   0  0  0  0  0  0  0  0  0  0  0  0
   -4.6348   -1.3269   -1.9017 H   0  0  0  0  0  0  0  0  0  0  0  0
  1  2  1  0
  2  3  2  0
  2  4  1  0
  4  5  2  0
  5  6  1  0
  6  7  2  0
  7  8  1  0
  8  9  1  0
  9 10  2  0
 10 11  1  0
 11 12  2  0
 11 13  1  0
 13 14  2  0
 14 15  1  0
 15 16  1  0
 15 17  2  0
 17 18  1  0
 17 19  1  0
 19 20  2  0
 20 21  1  0
  7 22  1  0
 22 23  2  0
 23 24  1  0
 23  4  1  0
 21  9  1  0
 20 13  1  0
  1 25  1  0
  5 26  1  0
  6 27  1  0
  8 28  1  0
  8 29  1  0
 10 30  1  0
 14 31  1  0
 16 32  1  0
 18 33  1  0
 19 34  1  0
 21 35  1  0
 22 36  1  0
 24 37  1  0
M  END
$$$$
[H]c1nc2oc(C(=O)N([H])C([H])([H])c3nc4c([H])c([H])c([H])c([H])c4s3)c([H])c2c(C([H])([H])[H])c1[H]
     RDKit          3D

 36 39  0  0  0  0  0  0  0  0999 V2000
   -4.6845   -1.2256   -2.0308 C   0  0  0  0  0  0  0  0  0  0  0  0
   -4.6769   -0.1669   -0.9907 C   0  0  0  0  0  0  0  0  0  0  0  0
   -5.7596    0.6611   -0.8175 C   0  0  0  0  0  0  0  0  0  0  0  0
   -5.7020    1.6339    0.1680 C   0  0  0  0  0  0  0  0  0  0  0  0
   -4.6337    1.8044    0.9631 N   0  0  0  0  0  0  0  0  0  0  0  0
   -3.5560    0.9797    0.7901 C   0  0  0  0  0  0  0  0  0  0  0  0
   -2.3965    0.8948    1.3891 O   0  0  0  0  0  0  0  0  0  0  0  0
   -1.6487   -0.0582    0.8966 C   0  0  0  0  0  0  0  0  0  0  0  0
   -2.3720   -0.6553   -0.1128 C   0  0  0  0  0  0  0  0  0  0  0  0
   -3.5701    0.0048   -0.1718 C   0  0  0  0  0  0  0  0  0  0  0  0
   -0.2972   -0.4458    1.3123 C   0  0  0  0  0  0  0  0  0  0  0  0
    0.2660   -1.3893    0.7206 O   0  0  0  0  0  0  0  0  0  0  0  0
    0.3236    0.2616    2.3694 N   0  0  0  0  0  0  0  0  0  0  0  0
    1.6366   -0.0240    2.8611 C   0  0  0  0  0  0  0  0  0  0  0  0
    2.6899    0.1378    1.7926 C   0  0  0  0  0  0  0  0  0  0  0  0
    3.1947   -0.7760    0.9875 N   0  0  0  0  0  0  0  0  0  0  0  0
    4.1117   -0.4457    0.1133 C   0  0  0  0  0  0  0  0  0  0  0  0
    4.7276   -1.3236   -0.7990 C   0  0  0  0  0  0  0  0  0  0  0  0
    5.6682   -0.8465   -1.6548 C   0  0  0  0  0  0  0  0  0  0  0  0
    6.0846    0.4602   -1.7098 C   0  0  0  0  0  0  0  0  0  0  0  0
    5.4835    1.3231   -0.8177 C   0  0  0  0  0  0  0  0  0  0  0  0
    4.5073    0.8619    0.0805 C   0  0  0  0  0  0  0  0  0  0  0  0
    3.5378    1.5485    1.3110 S   0  0  0  0  0  0  0  0  0  0  0  0
   -5.6900   -1.7303   -1.9396 H   0  0  0  0  0  0  0  0  0  0  0  0
   -3.9413   -2.0100   -1.8468 H   0  0  0  0  0  0  0  0  0  0  0  0
   -4.6569   -0.7888   -3.0397 H   0  0  0  0  0  0  0  0  0  0  0  0
   -6.6409    0.5643   -1.4304 H   0  0  0  0  0  0  0  0  0  0  0  0
   -6.5465    2.2990    0.3219 H   0  0  0  0  0  0  0  0  0  0  0  0
   -2.0360   -1.4967   -0.7383 H   0  0  0  0  0  0  0  0  0  0  0  0
   -0.2194    1.0484    2.8209 H   0  0  0  0  0  0  0  0  0  0  0  0
    1.9106    0.7033    3.6465 H   0  0  0  0  0  0  0  0  0  0  0  0
    1.7186   -1.0290    3.3271 H   0  0  0  0  0  0  0  0  0  0  0  0
    4.4624   -2.3875   -0.8324 H   0  0  0  0  0  0  0  0  0  0  0  0
    6.1537   -1.5270   -2.3705 H   0  0  0  0  0  0  0  0  0  0  0  0
    6.8298    0.7727   -2.4073 H   0  0  0  0  0  0  0  0  0  0  0  0
    5.7220    2.3664   -0.7621 H   0  0  0  0  0  0  0  0  0  0  0  0
  1  2  1  0
  2  3  2  0
  3  4  1  0
  4  5  2  0
  5  6  1  0
  6  7  1  0
  7  8  1  0
  8  9  2  0
  9 10  1  0
  8 11  1  0
 11 12  2  0
 11 13  1  0
 13 14  1  0
 14 15  1  0
 15 16  2  0
 16 17  1  0
 17 18  2  0
 18 19  1  0
 19 20  2  0
 20 21  1  0
 21 22  2  0
 22 23  1  0
 10  2  1  0
 23 15  1  0
 10  6  2  0
 22 17  1  0
  1 24  1  0
  1 25  1  0
  1 26  1  0
  3 27  1  0
  4 28  1  0
  9 29  1  0
 13 30  1  0
 14 31  1  0
 14 32  1  0
 18 33  1  0
 19 34  1  0
 20 35  1  0
 21 36  1  0
M  END
$$$$
[H]c1c(OC([H])([H])C([H])([H])C(=O)N2C([H])([H])C([H])([H])C([H])([H])[C@@]([H])(N([H])C(=O)N([H])C([H])(C([H])([H])[H])C([H])([H])[H])C2([H])[H])c([H])c(C([H])([H])[H])c([H])c1C([H])([H])[H]
     RDKit          3D

 57 58  0  0  0  0  0  0  0  0999 V2000
    7.7364   -2.2492    1.4123 C   0  0  0  0  0  0  0  0  0  0  0  0
    6.3597   -1.8321    1.8142 C   0  0  0  0  0  0  0  0  0  0  0  0
    6.4560   -1.0830    3.1344 C   0  0  0  0  0  0  0  0  0  0  0  0
    5.7385   -0.9303    0.8763 N   0  0  0  0  0  0  0  0  0  0  0  0
    4.4911   -1.2118    0.2722 C   0  0  0  0  0  0  0  0  0  0  0  0
    3.8741   -2.2862    0.5461 O   0  0  0  0  0  0  0  0  0  0  0  0
    3.8882   -0.3183   -0.6507 N   0  0  0  0  0  0  0  0  0  0  0  0
    2.6095   -0.5806   -1.2791 C   0  0  2  0  0  0  0  0  0  0  0  0
    2.6988   -0.6095   -2.7959 C   0  0  0  0  0  0  0  0  0  0  0  0
    2.7149    0.7676   -3.3826 C   0  0  0  0  0  0  0  0  0  0  0  0
    1.3660    1.4059   -3.1812 C   0  0  0  0  0  0  0  0  0  0  0  0
    0.8426    0.9909   -1.9026 N   0  0  0  0  0  0  0  0  0  0  0  0
    1.6770    0.5235   -0.8240 C   0  0  0  0  0  0  0  0  0  0  0  0
   -0.5625    1.0459   -1.6992 C   0  0  0  0  0  0  0  0  0  0  0  0
   -1.3316    1.4523   -2.6193 O   0  0  0  0  0  0  0  0  0  0  0  0
   -1.0984    0.6146   -0.3837 C   0  0  0  0  0  0  0  0  0  0  0  0
   -2.6049    0.7710   -0.4369 C   0  0  0  0  0  0  0  0  0  0  0  0
   -3.2101    0.3820    0.7717 O   0  0  0  0  0  0  0  0  0  0  0  0
   -4.5864    0.4681    0.8794 C   0  0  0  0  0  0  0  0  0  0  0  0
   -5.3645    0.9241   -0.1615 C   0  0  0  0  0  0  0  0  0  0  0  0
   -6.7327    0.9992   -0.0254 C   0  0  0  0  0  0  0  0  0  0  0  0
   -7.5310    1.4927   -1.1618 C   0  0  0  0  0  0  0  0  0  0  0  0
   -7.3525    0.6241    1.1421 C   0  0  0  0  0  0  0  0  0  0  0  0
   -6.5802    0.1601    2.2060 C   0  0  0  0  0  0  0  0  0  0  0  0
   -7.2313   -0.2555    3.4936 C   0  0  0  0  0  0  0  0  0  0  0  0
   -5.2176    0.0863    2.0685 C   0  0  0  0  0  0  0  0  0  0  0  0
    8.3809   -2.2850    2.3154 H   0  0  0  0  0  0  0  0  0  0  0  0
    7.7643   -3.2933    0.9982 H   0  0  0  0  0  0  0  0  0  0  0  0
    8.2174   -1.5520    0.6966 H   0  0  0  0  0  0  0  0  0  0  0  0
    5.7434   -2.7447    1.9649 H   0  0  0  0  0  0  0  0  0  0  0  0
    6.8169   -1.7192    3.9631 H   0  0  0  0  0  0  0  0  0  0  0  0
    5.4170   -0.6830    3.3235 H   0  0  0  0  0  0  0  0  0  0  0  0
    7.0873   -0.1924    2.9590 H   0  0  0  0  0  0  0  0  0  0  0  0
    6.2454   -0.0469    0.6515 H   0  0  0  0  0  0  0  0  0  0  0  0
    4.3702    0.5748   -0.9027 H   0  0  0  0  0  0  0  0  0  0  0  0
    2.2424   -1.5495   -0.8919 H   0  0  0  0  0  0  0  0  0  0  0  0
    3.5633   -1.2144   -3.1386 H   0  0  0  0  0  0  0  0  0  0  0  0
    1.7976   -1.1319   -3.1772 H   0  0  0  0  0  0  0  0  0  0  0  0
    2.8996    0.6311   -4.4850 H   0  0  0  0  0  0  0  0  0  0  0  0
    3.5156    1.4111   -2.9654 H   0  0  0  0  0  0  0  0  0  0  0  0
    0.6883    0.9931   -3.9794 H   0  0  0  0  0  0  0  0  0  0  0  0
    1.4106    2.5139   -3.2445 H   0  0  0  0  0  0  0  0  0  0  0  0
    2.2380    1.3951   -0.4362 H   0  0  0  0  0  0  0  0  0  0  0  0
    1.0748    0.1387    0.0059 H   0  0  0  0  0  0  0  0  0  0  0  0
   -0.6521    1.1728    0.4503 H   0  0  0  0  0  0  0  0  0  0  0  0
   -0.8438   -0.4721   -0.2581 H   0  0  0  0  0  0  0  0  0  0  0  0
   -2.9131    1.7878   -0.6963 H   0  0  0  0  0  0  0  0  0  0  0  0
   -2.9752    0.0903   -1.2534 H   0  0  0  0  0  0  0  0  0  0  0  0
   -4.8761    1.2258   -1.1006 H   0  0  0  0  0  0  0  0  0  0  0  0
   -7.2346    0.9957   -2.1221 H   0  0  0  0  0  0  0  0  0  0  0  0
   -7.2606    2.5705   -1.3043 H   0  0  0  0  0  0  0  0  0  0  0  0
   -8.6177    1.4181   -0.9851 H   0  0  0  0  0  0  0  0  0  0  0  0
   -8.4302    0.6789    1.2607 H   0  0  0  0  0  0  0  0  0  0  0  0
   -6.7475   -1.1915    3.8330 H   0  0  0  0  0  0  0  0  0  0  0  0
   -7.0617    0.5358    4.2493 H   0  0  0  0  0  0  0  0  0  0  0  0
   -8.3170   -0.4028    3.2821 H   0  0  0  0  0  0  0  0  0  0  0  0
   -4.5923   -0.2684    2.8747 H   0  0  0  0  0  0  0  0  0  0  0  0
  1  2  1  0
  2  3  1  0
  2  4  1  0
  4  5  1  0
  5  6  2  0
  5  7  1  0
  7  8  1  0
  8  9  1  0
  9 10  1  0
 10 11  1  0
 11 12  1  0
 12 13  1  0
 12 14  1  0
 14 15  2  0
 14 16  1  0
 16 17  1  0
 17 18  1  0
 18 19  1  0
 19 20  2  0
 20 21  1  0
 21 22  1  0
 21 23  2  0
 23 24  1  0
 24 25  1  0
 24 26  2  0
 13  8  1  0
 26 19  1  0
  1 27  1  0
  1 28  1  0
  1 29  1  0
  2 30  1  0
  3 31  1  0
  3 32  1  0
  3 33  1  0
  4 34  1  0
  7 35  1  0
  8 36  1  1
  9 37  1  0
  9 38  1  0
 10 39  1  0
 10 40  1  0
 11 41  1  0
 11 42  1  0
 13 43  1  0
 13 44  1  0
 16 45  1  0
 16 46  1  0
 17 47  1  0
 17 48  1  0
 20 49  1  0
 22 50  1  0
 22 51  1  0
 22 52  1  0
 23 53  1  0
 25 54  1  0
 25 55  1  0
 25 56  1  0
 26 57  1  0
M  END
$$$$
[H]OC1([H])[C@@]([H])(C([H])([H])OS(=O)(=O)N([H])C(=O)[C@@]([H])(N([H])[H])C([H])([H])C([H])(C([H])([H])[H])C([H])([H])[H])O[C@@]([H])(n2c([H])nc3c(N([H])[H])nc([H])nc32)[C@]1([H])N([H])[H]
     RDKit          3D

 57 59  0  0  0  0  0  0  0  0999 V2000
    8.0195    0.8801   -0.3997 C   0  0  0  0  0  0  0  0  0  0  0  0
    6.5689    0.8903    0.1781 C   0  0  0  0  0  0  0  0  0  0  0  0
    5.7139    1.4855   -0.9353 C   0  0  0  0  0  0  0  0  0  0  0  0
    6.2216   -0.5200    0.4906 C   0  0  0  0  0  0  0  0  0  0  0  0
    4.9191   -0.8023    1.1207 C   0  0  2  0  0  0  0  0  0  0  0  0
    4.8617   -2.3021    1.3105 N   0  0  0  0  0  0  0  0  0  0  0  0
    3.6864   -0.4874    0.4154 C   0  0  0  0  0  0  0  0  0  0  0  0
    3.2189   -1.3243   -0.4386 O   0  0  0  0  0  0  0  0  0  0  0  0
    2.9735    0.7259    0.6503 N   0  0  0  0  0  0  0  0  0  0  0  0
    1.5170    1.1180   -0.1596 S   0  0  0  0  0  0  0  0  0  0  0  0
    1.6397    0.8210   -1.6310 O   0  0  0  0  0  0  0  0  0  0  0  0
    1.3007    2.6101   -0.0503 O   0  0  0  0  0  0  0  0  0  0  0  0
    0.1718    0.3649    0.5021 O   0  0  0  0  0  0  0  0  0  0  0  0
   -0.4172   -0.4969   -0.3957 C   0  0  0  0  0  0  0  0  0  0  0  0
   -1.6301   -1.2085    0.1196 C   0  0  1  0  0  0  0  0  0  0  0  0
   -2.6717   -0.4040    0.4947 O   0  0  0  0  0  0  0  0  0  0  0  0
   -3.8521   -1.1173    0.2508 C   0  0  2  0  0  0  0  0  0  0  0  0
   -3.5587   -1.7235   -1.1058 C   0  0  2  0  0  0  0  0  0  0  0  0
   -4.4276   -2.8395   -1.4252 N   0  0  0  0  0  0  0  0  0  0  0  0
   -2.1286   -2.1885   -0.8968 C   0  0  0  0  0  0  0  0  0  0  0  0
   -1.3952   -2.1663   -2.0778 O   0  0  0  0  0  0  0  0  0  0  0  0
   -5.0127   -0.2929    0.2747 N   0  0  0  0  0  0  0  0  0  0  0  0
   -6.2013   -0.6136   -0.2620 C   0  0  0  0  0  0  0  0  0  0  0  0
   -7.0740    0.4150   -0.0466 N   0  0  0  0  0  0  0  0  0  0  0  0
   -6.4227    1.3769    0.6268 C   0  0  0  0  0  0  0  0  0  0  0  0
   -6.8775    2.6022    1.0721 C   0  0  0  0  0  0  0  0  0  0  0  0
   -8.2229    2.9927    0.8277 N   0  0  0  0  0  0  0  0  0  0  0  0
   -6.0102    3.3798    1.7269 N   0  0  0  0  0  0  0  0  0  0  0  0
   -4.7379    2.9633    1.9352 C   0  0  0  0  0  0  0  0  0  0  0  0
   -4.3126    1.7618    1.4917 N   0  0  0  0  0  0  0  0  0  0  0  0
   -5.1341    0.9246    0.8230 C   0  0  0  0  0  0  0  0  0  0  0  0
    8.7072    0.4654    0.3386 H   0  0  0  0  0  0  0  0  0  0  0  0
    8.2517    1.9335   -0.6548 H   0  0  0  0  0  0  0  0  0  0  0  0
    7.9470    0.2531   -1.3191 H   0  0  0  0  0  0  0  0  0  0  0  0
    6.5433    1.5529    1.0526 H   0  0  0  0  0  0  0  0  0  0  0  0
    5.0962    2.3009   -0.5731 H   0  0  0  0  0  0  0  0  0  0  0  0
    6.4180    1.9674   -1.6890 H   0  0  0  0  0  0  0  0  0  0  0  0
    5.1113    0.7169   -1.4206 H   0  0  0  0  0  0  0  0  0  0  0  0
    7.0497   -0.8988    1.1638 H   0  0  0  0  0  0  0  0  0  0  0  0
    6.3371   -1.1096   -0.4721 H   0  0  0  0  0  0  0  0  0  0  0  0
    4.8942   -0.4098    2.1515 H   0  0  0  0  0  0  0  0  0  0  0  0
    4.0007   -2.4048    1.9101 H   0  0  0  0  0  0  0  0  0  0  0  0
    4.5625   -2.6591    0.3645 H   0  0  0  0  0  0  0  0  0  0  0  0
    3.3739    1.3930    1.3520 H   0  0  0  0  0  0  0  0  0  0  0  0
    0.3514   -1.2169   -0.7412 H   0  0  0  0  0  0  0  0  0  0  0  0
   -0.6714    0.0953   -1.3227 H   0  0  0  0  0  0  0  0  0  0  0  0
   -1.3030   -1.7705    1.0394 H   0  0  0  0  0  0  0  0  0  0  0  0
   -3.9289   -1.9973    0.9543 H   0  0  0  0  0  0  0  0  0  0  0  0
   -3.6325   -0.9111   -1.8468 H   0  0  0  0  0  0  0  0  0  0  0  0
   -4.9289   -2.5813   -2.3275 H   0  0  0  0  0  0  0  0  0  0  0  0
   -3.7874   -3.6333   -1.7162 H   0  0  0  0  0  0  0  0  0  0  0  0
   -2.1810   -3.2086   -0.4519 H   0  0  0  0  0  0  0  0  0  0  0  0
   -0.9525   -3.0521   -2.1475 H   0  0  0  0  0  0  0  0  0  0  0  0
   -6.5337   -1.4979   -0.7954 H   0  0  0  0  0  0  0  0  0  0  0  0
   -8.9944    2.3842    1.1856 H   0  0  0  0  0  0  0  0  0  0  0  0
   -8.4214    3.8623    0.3039 H   0  0  0  0  0  0  0  0  0  0  0  0
   -4.0348    3.6011    2.4699 H   0  0  0  0  0  0  0  0  0  0  0  0
  1  2  1  0
  2  3  1  0
  2  4  1  0
  4  5  1  0
  5  6  1  0
  5  7  1  0
  7  8  2  0
  7  9  1  0
  9 10  1  0
 10 11  2  0
 10 12  2  0
 10 13  1  0
 13 14  1  0
 14 15  1  0
 15 16  1  0
 16 17  1  0
 17 18  1  0
 18 19  1  0
 18 20  1  0
 20 21  1  0
 17 22  1  0
 22 23  1  0
 23 24  2  0
 24 25  1  0
 25 26  2  0
 26 27  1  0
 26 28  1  0
 28 29  2  0
 29 30  1  0
 30 31  2  0
 20 15  1  0
 31 22  1  0
 31 25  1  0
  1 32  1  0
  1 33  1  0
  1 34  1  0
  2 35  1  0
  3 36  1  0
  3 37  1  0
  3 38  1  0
  4 39  1  0
  4 40  1  0
  5 41  1  1
  6 42  1  0
  6 43  1  0
  9 44  1  0
 14 45  1  0
 14 46  1  0
 15 47  1  1
 17 48  1  1
 18 49  1  6
 19 50  1  0
 19 51  1  0
 20 52  1  0
 21 53  1  0
 23 54  1  0
 27 55  1  0
 27 56  1  0
 29 57  1  0
M  END
$$$$
[H]OC(C([H])([H])[H])(C([H])([H])[H])C([H])([H])N([H])C([H])([H])C([H])([H])c1c([H])c([H])c([H])c(C#Cc2c([H])c(O[C@@]([H])(C([H])([H])[H])C([H])([H])OC([H])([H])[H])c([H])c(C(=O)N([H])c3nn(C([H])([H])[H])c([H])c3[H])c2[H])c1[H]
     RDKit          3D

 73 75  0  0  0  0  0  0  0  0999 V2000
   -5.9090   -4.5175   -0.7420 C   0  0  0  0  0  0  0  0  0  0  0  0
   -5.0393   -5.3463   -0.1164 O   0  0  0  0  0  0  0  0  0  0  0  0
   -3.7945   -4.8709    0.0716 C   0  0  0  0  0  0  0  0  0  0  0  0
   -3.6699   -3.6517    0.9170 C   0  0  2  0  0  0  0  0  0  0  0  0
   -4.1745   -3.9146    2.3421 C   0  0  0  0  0  0  0  0  0  0  0  0
   -4.2494   -2.4964    0.4799 O   0  0  0  0  0  0  0  0  0  0  0  0
   -3.6403   -1.2919    0.2139 C   0  0  0  0  0  0  0  0  0  0  0  0
   -2.2981   -1.0356    0.3474 C   0  0  0  0  0  0  0  0  0  0  0  0
   -1.7304    0.2143    0.0606 C   0  0  0  0  0  0  0  0  0  0  0  0
   -2.5092    1.2333   -0.3677 C   0  0  0  0  0  0  0  0  0  0  0  0
   -3.8593    0.9918   -0.5065 C   0  0  0  0  0  0  0  0  0  0  0  0
   -4.4221   -0.2205   -0.2305 C   0  0  0  0  0  0  0  0  0  0  0  0
   -4.7201    2.0847   -0.9789 C   0  0  0  0  0  0  0  0  0  0  0  0
   -4.1756    3.0033   -1.6309 O   0  0  0  0  0  0  0  0  0  0  0  0
   -6.0884    2.1072   -0.7162 N   0  0  0  0  0  0  0  0  0  0  0  0
   -6.9435    3.1257   -1.1494 C   0  0  0  0  0  0  0  0  0  0  0  0
   -6.6589    4.2333   -1.8768 C   0  0  0  0  0  0  0  0  0  0  0  0
   -7.8814    4.9162   -2.0247 C   0  0  0  0  0  0  0  0  0  0  0  0
   -8.8433    4.2249   -1.4021 N   0  0  0  0  0  0  0  0  0  0  0  0
  -10.2367    4.6303   -1.3455 C   0  0  0  0  0  0  0  0  0  0  0  0
   -8.2793    3.1639   -0.8853 N   0  0  0  0  0  0  0  0  0  0  0  0
   -0.2991    0.4138    0.2275 C   0  0  0  0  0  0  0  0  0  0  0  0
    0.8875    0.5874    0.3857 C   0  0  0  0  0  0  0  0  0  0  0  0
    2.2963    0.8113    0.5938 C   0  0  0  0  0  0  0  0  0  0  0  0
    2.8681    0.7685    1.8496 C   0  0  0  0  0  0  0  0  0  0  0  0
    4.2069    0.9770    2.0796 C   0  0  0  0  0  0  0  0  0  0  0  0
    5.0329    1.2425    1.0205 C   0  0  0  0  0  0  0  0  0  0  0  0
    4.5144    1.2958   -0.2469 C   0  0  0  0  0  0  0  0  0  0  0  0
    5.3292    1.5734   -1.4560 C   0  0  0  0  0  0  0  0  0  0  0  0
    5.8762    0.3664   -2.1297 C   0  0  0  0  0  0  0  0  0  0  0  0
    6.7517   -0.4534   -1.3625 N   0  0  0  0  0  0  0  0  0  0  0  0
    8.0262    0.1378   -1.0549 C   0  0  0  0  0  0  0  0  0  0  0  0
    8.8235   -0.8840   -0.2720 C   0  0  0  0  0  0  0  0  0  0  0  0
   10.1877   -0.3396    0.0287 C   0  0  0  0  0  0  0  0  0  0  0  0
    8.1021   -1.3141    0.9609 C   0  0  0  0  0  0  0  0  0  0  0  0
    8.9520   -2.0095   -1.0992 O   0  0  0  0  0  0  0  0  0  0  0  0
    3.1666    1.0817   -0.4418 C   0  0  0  0  0  0  0  0  0  0  0  0
   -6.1075   -3.6148   -0.1679 H   0  0  0  0  0  0  0  0  0  0  0  0
   -5.4262   -4.2048   -1.7086 H   0  0  0  0  0  0  0  0  0  0  0  0
   -6.8428   -5.1017   -0.9560 H   0  0  0  0  0  0  0  0  0  0  0  0
   -3.2746   -4.6220   -0.9214 H   0  0  0  0  0  0  0  0  0  0  0  0
   -3.1242   -5.7054    0.4635 H   0  0  0  0  0  0  0  0  0  0  0  0
   -2.5575   -3.4899    1.0609 H   0  0  0  0  0  0  0  0  0  0  0  0
   -3.5096   -4.5841    2.8925 H   0  0  0  0  0  0  0  0  0  0  0  0
   -5.2221   -4.2686    2.2490 H   0  0  0  0  0  0  0  0  0  0  0  0
   -4.2118   -2.9300    2.8469 H   0  0  0  0  0  0  0  0  0  0  0  0
   -1.6526   -1.8268    0.6854 H   0  0  0  0  0  0  0  0  0  0  0  0
   -2.0455    2.1814   -0.5809 H   0  0  0  0  0  0  0  0  0  0  0  0
   -5.4793   -0.4397   -0.3336 H   0  0  0  0  0  0  0  0  0  0  0  0
   -6.4727    1.2810   -0.1492 H   0  0  0  0  0  0  0  0  0  0  0  0
   -5.7356    4.5877   -2.2877 H   0  0  0  0  0  0  0  0  0  0  0  0
   -7.9832    5.8349   -2.5558 H   0  0  0  0  0  0  0  0  0  0  0  0
  -10.4037    5.2963   -0.4839 H   0  0  0  0  0  0  0  0  0  0  0  0
  -10.4776    5.2187   -2.2664 H   0  0  0  0  0  0  0  0  0  0  0  0
  -10.9261    3.7810   -1.2994 H   0  0  0  0  0  0  0  0  0  0  0  0
    2.1841    0.5551    2.6820 H   0  0  0  0  0  0  0  0  0  0  0  0
    4.5692    0.9237    3.1081 H   0  0  0  0  0  0  0  0  0  0  0  0
    6.0951    1.4116    1.1747 H   0  0  0  0  0  0  0  0  0  0  0  0
    6.1269    2.2758   -1.1287 H   0  0  0  0  0  0  0  0  0  0  0  0
    4.6753    2.1082   -2.1902 H   0  0  0  0  0  0  0  0  0  0  0  0
    6.4869    0.7464   -3.0024 H   0  0  0  0  0  0  0  0  0  0  0  0
    5.0743   -0.2349   -2.6028 H   0  0  0  0  0  0  0  0  0  0  0  0
    6.3605   -0.9072   -0.5306 H   0  0  0  0  0  0  0  0  0  0  0  0
    8.6035    0.4095   -1.9640 H   0  0  0  0  0  0  0  0  0  0  0  0
    7.8603    1.0015   -0.3871 H   0  0  0  0  0  0  0  0  0  0  0  0
   10.5095   -0.5632    1.0677 H   0  0  0  0  0  0  0  0  0  0  0  0
   10.2147    0.7451   -0.1080 H   0  0  0  0  0  0  0  0  0  0  0  0
   10.9216   -0.7794   -0.6740 H   0  0  0  0  0  0  0  0  0  0  0  0
    7.5846   -0.5132    1.5070 H   0  0  0  0  0  0  0  0  0  0  0  0
    8.8647   -1.8272    1.6205 H   0  0  0  0  0  0  0  0  0  0  0  0
    7.3459   -2.1311    0.7700 H   0  0  0  0  0  0  0  0  0  0  0  0
    9.6564   -2.5693   -0.7321 H   0  0  0  0  0  0  0  0  0  0  0  0
    2.7202    1.1170   -1.4405 H   0  0  0  0  0  0  0  0  0  0  0  0
  1  2  1  0
  2  3  1  0
  3  4  1  0
  4  5  1  0
  4  6  1  0
  6  7  1  0
  7  8  2  0
  8  9  1  0
  9 10  2  0
 10 11  1  0
 11 12  2  0
 11 13  1  0
 13 14  2  0
 13 15  1  0
 15 16  1  0
 16 17  1  0
 17 18  2  0
 18 19  1  0
 19 20  1  0
 19 21  1  0
  9 22  1  0
 22 23  3  0
 23 24  1  0
 24 25  2  0
 25 26  1  0
 26 27  2  0
 27 28  1  0
 28 29  1  0
 29 30  1  0
 30 31  1  0
 31 32  1  0
 32 33  1  0
 33 34  1  0
 33 35  1  0
 33 36  1  0
 28 37  2  0
 12  7  1  0
 21 16  2  0
 37 24  1  0
  1 38  1  0
  1 39  1  0
  1 40  1  0
  3 41  1  0
  3 42  1  0
  4 43  1  1
  5 44  1  0
  5 45  1  0
  5 46  1  0
  8 47  1  0
 10 48  1  0
 12 49  1  0
 15 50  1  0
 17 51  1  0
 18 52  1  0
 20 53  1  0
 20 54  1  0
 20 55  1  0
 25 56  1  0
 26 57  1  0
 27 58  1  0
 29 59  1  0
 29 60  1  0
 30 61  1  0
 30 62  1  0
 31 63  1  0
 32 64  1  0
 32 65  1  0
 34 66  1  0
 34 67  1  0
 34 68  1  0
 35 69  1  0
 35 70  1  0
 35 71  1  0
 36 72  1  0
 37 73  1  0
M  END
$$$$
[H]OC(=O)c1c([H])c([H])c(O[C@]2([H])C([H])([H])C([H])([H])[C@@]([H])(N([H])C(=O)N([H])C34C([H])([H])C5([H])C([H])([H])C([H])(C([H])([H])C([H])(C5([H])[H])C3([H])[H])C4([H])[H])C([H])([H])C2([H])[H])c([H])c1[H]
     RDKit          3D

 62 66  0  0  0  0  0  0  0  0999 V2000
   10.6800   -2.0991    0.7981 O   0  0  0  0  0  0  0  0  0  0  0  0
    9.9814   -0.9157    0.9651 C   0  0  0  0  0  0  0  0  0  0  0  0
   10.5989    0.0831    1.3963 O   0  0  0  0  0  0  0  0  0  0  0  0
    8.5671   -0.8841    0.6341 C   0  0  0  0  0  0  0  0  0  0  0  0
    7.9015   -1.9877    0.1618 C   0  0  0  0  0  0  0  0  0  0  0  0
    6.5800   -1.9578   -0.1474 C   0  0  0  0  0  0  0  0  0  0  0  0
    5.8359   -0.7808    0.0069 C   0  0  0  0  0  0  0  0  0  0  0  0
    4.5026   -0.8313   -0.3278 O   0  0  0  0  0  0  0  0  0  0  0  0
    3.6298    0.2468   -0.2325 C   0  0  1  0  0  0  0  0  0  0  0  0
    2.9929    0.5153   -1.5899 C   0  0  0  0  0  0  0  0  0  0  0  0
    1.5613    1.0098   -1.4383 C   0  0  0  0  0  0  0  0  0  0  0  0
    0.6736   -0.1269   -0.9867 C   0  0  1  0  0  0  0  0  0  0  0  0
    1.5683   -1.0727   -0.1810 C   0  0  0  0  0  0  0  0  0  0  0  0
    2.4662   -0.2038    0.6651 C   0  0  0  0  0  0  0  0  0  0  0  0
   -0.3791    0.3130   -0.0955 N   0  0  0  0  0  0  0  0  0  0  0  0
   -1.7534    0.1128   -0.3434 C   0  0  0  0  0  0  0  0  0  0  0  0
   -2.0936   -0.4784   -1.3920 O   0  0  0  0  0  0  0  0  0  0  0  0
   -2.7178    0.5626    0.5585 N   0  0  0  0  0  0  0  0  0  0  0  0
   -4.1400    0.4420    0.4495 C   0  0  0  0  0  0  0  0  0  0  0  0
   -4.5992    1.1764   -0.7886 C   0  0  0  0  0  0  0  0  0  0  0  0
   -6.1254    1.2375   -0.8701 C   0  0  0  0  0  0  0  0  0  0  0  0
   -6.5870   -0.1960   -1.0289 C   0  0  0  0  0  0  0  0  0  0  0  0
   -6.1077   -0.9937    0.1648 C   0  0  0  0  0  0  0  0  0  0  0  0
   -6.7812   -0.3983    1.3835 C   0  0  0  0  0  0  0  0  0  0  0  0
   -6.3012    1.0181    1.5641 C   0  0  0  0  0  0  0  0  0  0  0  0
   -6.6274    1.8886    0.3737 C   0  0  0  0  0  0  0  0  0  0  0  0
   -4.8007    0.9710    1.6948 C   0  0  0  0  0  0  0  0  0  0  0  0
   -4.5947   -0.9920    0.2875 C   0  0  0  0  0  0  0  0  0  0  0  0
    6.4820    0.3371    0.4787 C   0  0  0  0  0  0  0  0  0  0  0  0
    7.8417    0.2787    0.7889 C   0  0  0  0  0  0  0  0  0  0  0  0
   11.3122   -2.1528    0.0043 H   0  0  0  0  0  0  0  0  0  0  0  0
    8.4579   -2.9271    0.0296 H   0  0  0  0  0  0  0  0  0  0  0  0
    6.0551   -2.8308   -0.5206 H   0  0  0  0  0  0  0  0  0  0  0  0
    4.0356    1.1887    0.1312 H   0  0  0  0  0  0  0  0  0  0  0  0
    3.5629    1.3274   -2.0871 H   0  0  0  0  0  0  0  0  0  0  0  0
    3.0586   -0.3708   -2.2527 H   0  0  0  0  0  0  0  0  0  0  0  0
    1.5693    1.8565   -0.7496 H   0  0  0  0  0  0  0  0  0  0  0  0
    1.2651    1.3891   -2.4454 H   0  0  0  0  0  0  0  0  0  0  0  0
    0.2907   -0.6348   -1.8809 H   0  0  0  0  0  0  0  0  0  0  0  0
    0.9044   -1.6679    0.4575 H   0  0  0  0  0  0  0  0  0  0  0  0
    2.1734   -1.7195   -0.8760 H   0  0  0  0  0  0  0  0  0  0  0  0
    1.9254    0.6863    0.9881 H   0  0  0  0  0  0  0  0  0  0  0  0
    2.8698   -0.8094    1.5103 H   0  0  0  0  0  0  0  0  0  0  0  0
   -0.1002    0.8050    0.7775 H   0  0  0  0  0  0  0  0  0  0  0  0
   -2.3584    1.0506    1.4245 H   0  0  0  0  0  0  0  0  0  0  0  0
   -4.2248    0.6319   -1.6730 H   0  0  0  0  0  0  0  0  0  0  0  0
   -4.1782    2.2107   -0.7757 H   0  0  0  0  0  0  0  0  0  0  0  0
   -6.3551    1.8259   -1.7759 H   0  0  0  0  0  0  0  0  0  0  0  0
   -6.1931   -0.5802   -1.9793 H   0  0  0  0  0  0  0  0  0  0  0  0
   -7.6845   -0.1866   -0.9904 H   0  0  0  0  0  0  0  0  0  0  0  0
   -6.5049   -2.0199    0.0530 H   0  0  0  0  0  0  0  0  0  0  0  0
   -6.5597   -0.9585    2.3005 H   0  0  0  0  0  0  0  0  0  0  0  0
   -7.8606   -0.3518    1.1578 H   0  0  0  0  0  0  0  0  0  0  0  0
   -6.7141    1.4511    2.4933 H   0  0  0  0  0  0  0  0  0  0  0  0
   -6.0689    2.8371    0.5106 H   0  0  0  0  0  0  0  0  0  0  0  0
   -7.6979    2.1605    0.3303 H   0  0  0  0  0  0  0  0  0  0  0  0
   -4.5747    0.2301    2.5127 H   0  0  0  0  0  0  0  0  0  0  0  0
   -4.3684    1.9276    2.0376 H   0  0  0  0  0  0  0  0  0  0  0  0
   -4.3516   -1.6073    1.1709 H   0  0  0  0  0  0  0  0  0  0  0  0
   -4.2085   -1.4757   -0.6243 H   0  0  0  0  0  0  0  0  0  0  0  0
    5.9538    1.2619    0.6135 H   0  0  0  0  0  0  0  0  0  0  0  0
    8.3143    1.1782    1.1571 H   0  0  0  0  0  0  0  0  0  0  0  0
  1  2  1  0
  2  3  2  0
  2  4  1  0
  4  5  2  0
  5  6  1  0
  6  7  2  0
  7  8  1  0
  8  9  1  0
  9 10  1  0
 10 11  1  0
 11 12  1  0
 12 13  1  0
 13 14  1  0
 12 15  1  0
 15 16  1  0
 16 17  2  0
 16 18  1  0
 18 19  1  0
 19 20  1  0
 20 21  1  0
 21 22  1  0
 22 23  1  0
 23 24  1  0
 24 25  1  0
 25 26  1  0
 25 27  1  0
 23 28  1  0
  7 29  1  0
 29 30  2  0
 30  4  1  0
 14  9  1  0
 27 19  1  0
 28 19  1  0
 26 21  1  0
  1 31  1  0
  5 32  1  0
  6 33  1  0
  9 34  1  1
 10 35  1  0
 10 36  1  0
 11 37  1  0
 11 38  1  0
 12 39  1  6
 13 40  1  0
 13 41  1  0
 14 42  1  0
 14 43  1  0
 15 44  1  0
 18 45  1  0
 20 46  1  0
 20 47  1  0
 21 48  1  0
 22 49  1  0
 22 50  1  0
 23 51  1  0
 24 52  1  0
 24 53  1  0
 25 54  1  0
 26 55  1  0
 26 56  1  0
 27 57  1  0
 27 58  1  0
 28 59  1  0
 28 60  1  0
 29 61  1  0
 30 62  1  0
M  END
$$$$
[H]c1c([H])c([H])c(-c2nc3c([H])c(-c4c([H])c([H])c(N([H])C(=O)N([H])S(=O)(=O)c5c([H])c([H])c(C([H])([H])[H])c([H])c5[H])c([H])c4[H])c(C#N)c(N([H])[H])n3n2)c([H])c1[H]
     RDKit          3D

 59 63  0  0  0  0  0  0  0  0999 V2000
    8.0675    0.5542   -2.5430 C   0  0  0  0  0  0  0  0  0  0  0  0
    7.7339    0.2901   -1.1204 C   0  0  0  0  0  0  0  0  0  0  0  0
    7.6048   -0.9872   -0.6166 C   0  0  0  0  0  0  0  0  0  0  0  0
    7.2982   -1.2287    0.6965 C   0  0  0  0  0  0  0  0  0  0  0  0
    7.0999   -0.1776    1.5976 C   0  0  0  0  0  0  0  0  0  0  0  0
    7.2271    1.0977    1.1019 C   0  0  0  0  0  0  0  0  0  0  0  0
    7.5355    1.3251   -0.2207 C   0  0  0  0  0  0  0  0  0  0  0  0
    6.7268   -0.4779    3.2693 S   0  0  0  0  0  0  0  0  0  0  0  0
    7.3082    0.6331    4.1313 O   0  0  0  0  0  0  0  0  0  0  0  0
    7.4417   -1.7372    3.7029 O   0  0  0  0  0  0  0  0  0  0  0  0
    5.0707   -0.6909    3.5850 N   0  0  0  0  0  0  0  0  0  0  0  0
    4.0234   -0.3614    2.6361 C   0  0  0  0  0  0  0  0  0  0  0  0
    4.3676    0.1011    1.5344 O   0  0  0  0  0  0  0  0  0  0  0  0
    2.6729   -0.5703    2.9826 N   0  0  0  0  0  0  0  0  0  0  0  0
    1.5300   -0.3202    2.2151 C   0  0  0  0  0  0  0  0  0  0  0  0
    0.2888   -0.4375    2.8774 C   0  0  0  0  0  0  0  0  0  0  0  0
   -0.8420   -0.2016    2.1409 C   0  0  0  0  0  0  0  0  0  0  0  0
   -0.8382    0.1349    0.8246 C   0  0  0  0  0  0  0  0  0  0  0  0
    0.3751    0.2460    0.1887 C   0  0  0  0  0  0  0  0  0  0  0  0
    1.5537    0.0142    0.9018 C   0  0  0  0  0  0  0  0  0  0  0  0
   -2.1219    0.3494    0.1526 C   0  0  0  0  0  0  0  0  0  0  0  0
   -3.1286   -0.6090    0.2404 C   0  0  0  0  0  0  0  0  0  0  0  0
   -4.3393   -0.3972   -0.4197 C   0  0  0  0  0  0  0  0  0  0  0  0
   -5.4709   -1.1307   -0.5142 N   0  0  0  0  0  0  0  0  0  0  0  0
   -6.3465   -0.4635   -1.2801 C   0  0  0  0  0  0  0  0  0  0  0  0
   -5.7259    0.6683   -1.6378 N   0  0  0  0  0  0  0  0  0  0  0  0
   -4.4890    0.7358   -1.1225 N   0  0  0  0  0  0  0  0  0  0  0  0
   -3.5214    1.6655   -1.2112 C   0  0  0  0  0  0  0  0  0  0  0  0
   -3.7469    2.8345   -1.9672 N   0  0  0  0  0  0  0  0  0  0  0  0
   -2.3108    1.5016   -0.5775 C   0  0  0  0  0  0  0  0  0  0  0  0
   -1.2862    2.5371   -0.6788 C   0  0  0  0  0  0  0  0  0  0  0  0
   -0.4894    3.3766   -0.7579 N   0  0  0  0  0  0  0  0  0  0  0  0
   -7.7007   -0.8480   -1.6684 C   0  0  0  0  0  0  0  0  0  0  0  0
   -8.2519   -2.0367   -1.2431 C   0  0  0  0  0  0  0  0  0  0  0  0
   -9.5490   -2.4104   -1.6111 C   0  0  0  0  0  0  0  0  0  0  0  0
  -10.3103   -1.5850   -2.4174 C   0  0  0  0  0  0  0  0  0  0  0  0
   -9.7562   -0.3985   -2.8404 C   0  0  0  0  0  0  0  0  0  0  0  0
   -8.4735   -0.0363   -2.4721 C   0  0  0  0  0  0  0  0  0  0  0  0
    7.1288    0.7917   -3.1118 H   0  0  0  0  0  0  0  0  0  0  0  0
    8.8015    1.3524   -2.6924 H   0  0  0  0  0  0  0  0  0  0  0  0
    8.4656   -0.3761   -2.9981 H   0  0  0  0  0  0  0  0  0  0  0  0
    7.7632   -1.8028   -1.3341 H   0  0  0  0  0  0  0  0  0  0  0  0
    7.2025   -2.2407    1.0666 H   0  0  0  0  0  0  0  0  0  0  0  0
    7.0762    1.9298    1.7907 H   0  0  0  0  0  0  0  0  0  0  0  0
    7.6391    2.3440   -0.6303 H   0  0  0  0  0  0  0  0  0  0  0  0
    4.7915   -1.0786    4.5092 H   0  0  0  0  0  0  0  0  0  0  0  0
    2.5412   -0.9772    3.9626 H   0  0  0  0  0  0  0  0  0  0  0  0
    0.2578   -0.7021    3.9179 H   0  0  0  0  0  0  0  0  0  0  0  0
   -1.7884   -0.3050    2.7001 H   0  0  0  0  0  0  0  0  0  0  0  0
    0.4203    0.5034   -0.8596 H   0  0  0  0  0  0  0  0  0  0  0  0
    2.4535    0.1168    0.3236 H   0  0  0  0  0  0  0  0  0  0  0  0
   -2.9862   -1.4986    0.8038 H   0  0  0  0  0  0  0  0  0  0  0  0
   -4.0371    3.6996   -1.4729 H   0  0  0  0  0  0  0  0  0  0  0  0
   -3.6354    2.8678   -2.9975 H   0  0  0  0  0  0  0  0  0  0  0  0
   -7.6486   -2.6835   -0.6083 H   0  0  0  0  0  0  0  0  0  0  0  0
   -9.9875   -3.3412   -1.2811 H   0  0  0  0  0  0  0  0  0  0  0  0
  -11.3086   -1.9101   -2.6797 H   0  0  0  0  0  0  0  0  0  0  0  0
  -10.3484    0.2470   -3.4687 H   0  0  0  0  0  0  0  0  0  0  0  0
   -8.0279    0.8932   -2.7987 H   0  0  0  0  0  0  0  0  0  0  0  0
  1  2  1  0
  2  3  2  0
  3  4  1  0
  4  5  2  0
  5  6  1  0
  6  7  2  0
  5  8  1  0
  8  9  2  0
  8 10  2  0
  8 11  1  0
 11 12  1  0
 12 13  2  0
 12 14  1  0
 14 15  1  0
 15 16  2  0
 16 17  1  0
 17 18  2  0
 18 19  1  0
 19 20  2  0
 18 21  1  0
 21 22  2  0
 22 23  1  0
 23 24  2  0
 24 25  1  0
 25 26  2  0
 26 27  1  0
 27 28  1  0
 28 29  1  0
 28 30  2  0
 30 31  1  0
 31 32  3  0
 25 33  1  0
 33 34  2  0
 34 35  1  0
 35 36  2  0
 36 37  1  0
 37 38  2  0
  7  2  1  0
 20 15  1  0
 30 21  1  0
 38 33  1  0
 27 23  1  0
  1 39  1  0
  1 40  1  0
  1 41  1  0
  3 42  1  0
  4 43  1  0
  6 44  1  0
  7 45  1  0
 11 46  1  0
 14 47  1  0
 16 48  1  0
 17 49  1  0
 19 50  1  0
 20 51  1  0
 22 52  1  0
 29 53  1  0
 29 54  1  0
 34 55  1  0
 35 56  1  0
 36 57  1  0
 37 58  1  0
 38 59  1  0
M  END
$$$$
[H]c1c([H])c(Cl)c([H])c(N([H])C(=O)N2C(=O)C(C([H])([H])C([H])([H])[H])=C3N(c4c([H])c([H])c(OC([H])([H])[H])c([H])c4C([H])([H])C3([H])[H])C([H])([H])C([H])([H])C2([H])[H])c1[H]
     RDKit          3D

 57 60  0  0  0  0  0  0  0  0999 V2000
    0.6699   -4.0005   -0.5974 C   0  0  0  0  0  0  0  0  0  0  0  0
   -0.2597   -3.0243   -1.3300 C   0  0  0  0  0  0  0  0  0  0  0  0
   -0.2481   -1.6915   -0.8075 C   0  0  0  0  0  0  0  0  0  0  0  0
   -1.3265   -1.2982   -0.2539 C   0  0  0  0  0  0  0  0  0  0  0  0
   -2.3125   -2.3103   -0.2783 C   0  0  0  0  0  0  0  0  0  0  0  0
   -3.5100   -1.7815   -1.0392 C   0  0  0  0  0  0  0  0  0  0  0  0
   -3.9445   -0.5177   -0.3769 C   0  0  0  0  0  0  0  0  0  0  0  0
   -5.2823   -0.1564   -0.4274 C   0  0  0  0  0  0  0  0  0  0  0  0
   -5.7624    1.0018    0.1166 C   0  0  0  0  0  0  0  0  0  0  0  0
   -7.1321    1.2826    0.0165 O   0  0  0  0  0  0  0  0  0  0  0  0
   -7.6104    2.4738    0.5788 C   0  0  0  0  0  0  0  0  0  0  0  0
   -4.9005    1.8634    0.7469 C   0  0  0  0  0  0  0  0  0  0  0  0
   -3.5402    1.5212    0.8128 C   0  0  0  0  0  0  0  0  0  0  0  0
   -3.0608    0.3670    0.2723 C   0  0  0  0  0  0  0  0  0  0  0  0
   -1.7037   -0.0037    0.3514 N   0  0  0  0  0  0  0  0  0  0  0  0
   -0.9363    1.0171    0.9807 C   0  0  0  0  0  0  0  0  0  0  0  0
   -0.1252    1.7471   -0.1127 C   0  0  0  0  0  0  0  0  0  0  0  0
    1.3402    1.4206   -0.0015 C   0  0  0  0  0  0  0  0  0  0  0  0
    1.7299    0.1199   -0.4630 N   0  0  0  0  0  0  0  0  0  0  0  0
    3.1633   -0.0694   -0.3250 C   0  0  0  0  0  0  0  0  0  0  0  0
    3.5736   -1.1820   -0.7345 O   0  0  0  0  0  0  0  0  0  0  0  0
    4.0017    0.9204    0.2236 N   0  0  0  0  0  0  0  0  0  0  0  0
    5.3874    0.8516    0.4084 C   0  0  0  0  0  0  0  0  0  0  0  0
    6.0492    2.0542    0.7058 C   0  0  0  0  0  0  0  0  0  0  0  0
    7.4022    2.0258    0.9064 C   0  0  0  0  0  0  0  0  0  0  0  0
    8.1305    0.8661    0.8269 C   0  0  0  0  0  0  0  0  0  0  0  0
    7.5096   -0.3277    0.5374 C   0  0  0  0  0  0  0  0  0  0  0  0
    8.4021   -1.8247    0.4275 Cl  0  0  0  0  0  0  0  0  0  0  0  0
    6.1300   -0.2967    0.3334 C   0  0  0  0  0  0  0  0  0  0  0  0
    1.0693   -1.0110   -1.0041 C   0  0  0  0  0  0  0  0  0  0  0  0
    1.7930   -1.5781   -1.8728 O   0  0  0  0  0  0  0  0  0  0  0  0
    0.4476   -5.0438   -0.8959 H   0  0  0  0  0  0  0  0  0  0  0  0
    0.3975   -3.9251    0.4920 H   0  0  0  0  0  0  0  0  0  0  0  0
    1.7180   -3.7402   -0.6842 H   0  0  0  0  0  0  0  0  0  0  0  0
    0.4036   -2.8873   -2.3010 H   0  0  0  0  0  0  0  0  0  0  0  0
   -1.1078   -3.4621   -1.8188 H   0  0  0  0  0  0  0  0  0  0  0  0
   -2.7715   -2.2994    0.8032 H   0  0  0  0  0  0  0  0  0  0  0  0
   -2.1385   -3.3711   -0.3233 H   0  0  0  0  0  0  0  0  0  0  0  0
   -4.3548   -2.5006   -1.0347 H   0  0  0  0  0  0  0  0  0  0  0  0
   -3.2260   -1.4742   -2.0844 H   0  0  0  0  0  0  0  0  0  0  0  0
   -5.9431   -0.8664   -0.9378 H   0  0  0  0  0  0  0  0  0  0  0  0
   -6.9663    3.3506    0.3038 H   0  0  0  0  0  0  0  0  0  0  0  0
   -8.6407    2.7081    0.3001 H   0  0  0  0  0  0  0  0  0  0  0  0
   -7.5880    2.3705    1.6865 H   0  0  0  0  0  0  0  0  0  0  0  0
   -5.2195    2.7901    1.1936 H   0  0  0  0  0  0  0  0  0  0  0  0
   -2.8951    2.2098    1.2942 H   0  0  0  0  0  0  0  0  0  0  0  0
   -1.4149    1.7756    1.5537 H   0  0  0  0  0  0  0  0  0  0  0  0
   -0.0806    0.5505    1.5997 H   0  0  0  0  0  0  0  0  0  0  0  0
   -0.5533    1.4579   -1.0835 H   0  0  0  0  0  0  0  0  0  0  0  0
   -0.2083    2.8662    0.0269 H   0  0  0  0  0  0  0  0  0  0  0  0
    1.9507    2.2190   -0.5037 H   0  0  0  0  0  0  0  0  0  0  0  0
    1.6368    1.4497    1.0917 H   0  0  0  0  0  0  0  0  0  0  0  0
    3.5313    1.8223    0.5463 H   0  0  0  0  0  0  0  0  0  0  0  0
    5.5168    2.9938    0.7783 H   0  0  0  0  0  0  0  0  0  0  0  0
    7.9283    2.9617    1.1395 H   0  0  0  0  0  0  0  0  0  0  0  0
    9.2061    0.8291    0.9839 H   0  0  0  0  0  0  0  0  0  0  0  0
    5.6750   -1.2435    0.1197 H   0  0  0  0  0  0  0  0  0  0  0  0
  1  2  1  0
  2  3  1  0
  3  4  2  0
  4  5  1  0
  5  6  1  0
  6  7  1  0
  7  8  2  0
  8  9  1  0
  9 10  1  0
 10 11  1  0
  9 12  2  0
 12 13  1  0
 13 14  2  0
 14 15  1  0
 15 16  1  0
 16 17  1  0
 17 18  1  0
 18 19  1  0
 19 20  1  0
 20 21  2  0
 20 22  1  0
 22 23  1  0
 23 24  2  0
 24 25  1  0
 25 26  2  0
 26 27  1  0
 27 28  1  0
 27 29  2  0
 19 30  1  0
 30 31  2  0
 30  3  1  0
 15  4  1  0
 29 23  1  0
 14  7  1  0
  1 32  1  0
  1 33  1  0
  1 34  1  0
  2 35  1  0
  2 36  1  0
  5 37  1  0
  5 38  1  0
  6 39  1  0
  6 40  1  0
  8 41  1  0
 11 42  1  0
 11 43  1  0
 11 44  1  0
 12 45  1  0
 13 46  1  0
 16 47  1  0
 16 48  1  0
 17 49  1  0
 17 50  1  0
 18 51  1  0
 18 52  1  0
 22 53  1  0
 24 54  1  0
 25 55  1  0
 26 56  1  0
 29 57  1  0
M  END
$$$$
[H]c1nc(Oc2c([H])c([H])c(N([H])C(=O)N([H])c3c([H])c([H])c4c(c3[H])C([H])([H])N(C([H])([H])C([H])([H])[H])C([H])([H])C4([H])[H])c([H])c2C([H])([H])[H])c([H])c(N([H])C([H])([H])[H])n1
     RDKit          3D

 60 63  0  0  0  0  0  0  0  0999 V2000
   -6.6486    2.2210   -1.0858 C   0  0  0  0  0  0  0  0  0  0  0  0
   -7.4583    1.0734   -0.4875 C   0  0  0  0  0  0  0  0  0  0  0  0
   -7.1594   -0.1307   -1.2056 N   0  0  0  0  0  0  0  0  0  0  0  0
   -7.8539   -1.2890   -0.7332 C   0  0  0  0  0  0  0  0  0  0  0  0
   -7.4092   -1.7490    0.6203 C   0  0  0  0  0  0  0  0  0  0  0  0
   -5.9905   -1.4262    0.8412 C   0  0  0  0  0  0  0  0  0  0  0  0
   -5.4750   -1.8315    2.0885 C   0  0  0  0  0  0  0  0  0  0  0  0
   -4.1620   -1.5744    2.3862 C   0  0  0  0  0  0  0  0  0  0  0  0
   -3.3244   -0.9160    1.4720 C   0  0  0  0  0  0  0  0  0  0  0  0
   -2.0156   -0.6657    1.8698 N   0  0  0  0  0  0  0  0  0  0  0  0
   -0.9366   -0.5446    0.9423 C   0  0  0  0  0  0  0  0  0  0  0  0
   -1.1781   -0.6804   -0.2649 O   0  0  0  0  0  0  0  0  0  0  0  0
    0.3590   -0.2784    1.3977 N   0  0  0  0  0  0  0  0  0  0  0  0
    1.5133   -0.1407    0.6099 C   0  0  0  0  0  0  0  0  0  0  0  0
    1.6964   -0.5871   -0.6797 C   0  0  0  0  0  0  0  0  0  0  0  0
    2.8369   -0.4002   -1.4056 C   0  0  0  0  0  0  0  0  0  0  0  0
    3.9316    0.2978   -0.8230 C   0  0  0  0  0  0  0  0  0  0  0  0
    4.9975    0.4135   -1.6485 O   0  0  0  0  0  0  0  0  0  0  0  0
    6.2872   -0.0247   -1.5985 C   0  0  0  0  0  0  0  0  0  0  0  0
    7.3601    0.6272   -1.0663 C   0  0  0  0  0  0  0  0  0  0  0  0
    8.6212    0.0931   -1.0745 C   0  0  0  0  0  0  0  0  0  0  0  0
    9.7022    0.8123   -0.5087 N   0  0  0  0  0  0  0  0  0  0  0  0
    9.5116    2.1196    0.0854 C   0  0  0  0  0  0  0  0  0  0  0  0
    8.8047   -1.1160   -1.6288 N   0  0  0  0  0  0  0  0  0  0  0  0
    7.7439   -1.7821   -2.1670 C   0  0  0  0  0  0  0  0  0  0  0  0
    6.5233   -1.2729   -2.1620 N   0  0  0  0  0  0  0  0  0  0  0  0
    3.7969    0.7606    0.4568 C   0  0  0  0  0  0  0  0  0  0  0  0
    4.9008    1.5265    1.1445 C   0  0  0  0  0  0  0  0  0  0  0  0
    2.6223    0.5373    1.1286 C   0  0  0  0  0  0  0  0  0  0  0  0
   -3.8489   -0.5348    0.2746 C   0  0  0  0  0  0  0  0  0  0  0  0
   -5.1974   -0.7868   -0.0593 C   0  0  0  0  0  0  0  0  0  0  0  0
   -5.7428   -0.3642   -1.3650 C   0  0  0  0  0  0  0  0  0  0  0  0
   -6.5216    2.0569   -2.1832 H   0  0  0  0  0  0  0  0  0  0  0  0
   -7.1638    3.1774   -0.8528 H   0  0  0  0  0  0  0  0  0  0  0  0
   -5.6230    2.2445   -0.6576 H   0  0  0  0  0  0  0  0  0  0  0  0
   -7.2192    1.0332    0.5949 H   0  0  0  0  0  0  0  0  0  0  0  0
   -8.5479    1.2796   -0.5618 H   0  0  0  0  0  0  0  0  0  0  0  0
   -7.6935   -2.0937   -1.5067 H   0  0  0  0  0  0  0  0  0  0  0  0
   -8.9390   -1.0155   -0.6810 H   0  0  0  0  0  0  0  0  0  0  0  0
   -7.5045   -2.8777    0.6574 H   0  0  0  0  0  0  0  0  0  0  0  0
   -8.0650   -1.3083    1.4292 H   0  0  0  0  0  0  0  0  0  0  0  0
   -6.1005   -2.3417    2.8131 H   0  0  0  0  0  0  0  0  0  0  0  0
   -3.7710   -1.8858    3.3414 H   0  0  0  0  0  0  0  0  0  0  0  0
   -1.8166   -0.5587    2.9110 H   0  0  0  0  0  0  0  0  0  0  0  0
    0.5063   -0.1679    2.4520 H   0  0  0  0  0  0  0  0  0  0  0  0
    0.8514   -1.1467   -1.1288 H   0  0  0  0  0  0  0  0  0  0  0  0
    2.8802   -0.7871   -2.4052 H   0  0  0  0  0  0  0  0  0  0  0  0
    7.2369    1.6034   -0.6494 H   0  0  0  0  0  0  0  0  0  0  0  0
   10.6686    0.4228   -0.5028 H   0  0  0  0  0  0  0  0  0  0  0  0
    8.7529    2.0368    0.8874 H   0  0  0  0  0  0  0  0  0  0  0  0
    9.1059    2.7839   -0.7319 H   0  0  0  0  0  0  0  0  0  0  0  0
   10.4518    2.5578    0.4404 H   0  0  0  0  0  0  0  0  0  0  0  0
    7.9473   -2.7707   -2.6101 H   0  0  0  0  0  0  0  0  0  0  0  0
    4.4559    1.9740    2.0622 H   0  0  0  0  0  0  0  0  0  0  0  0
    5.6232    0.7851    1.4959 H   0  0  0  0  0  0  0  0  0  0  0  0
    5.2799    2.3235    0.4969 H   0  0  0  0  0  0  0  0  0  0  0  0
    2.5460    0.9152    2.1398 H   0  0  0  0  0  0  0  0  0  0  0  0
   -3.3144   -0.0019   -0.5063 H   0  0  0  0  0  0  0  0  0  0  0  0
   -5.5934   -1.1602   -2.1307 H   0  0  0  0  0  0  0  0  0  0  0  0
   -5.2411    0.5352   -1.7307 H   0  0  0  0  0  0  0  0  0  0  0  0
  1  2  1  0
  2  3  1  0
  3  4  1  0
  4  5  1  0
  5  6  1  0
  6  7  2  0
  7  8  1  0
  8  9  2  0
  9 10  1  0
 10 11  1  0
 11 12  2  0
 11 13  1  0
 13 14  1  0
 14 15  2  0
 15 16  1  0
 16 17  2  0
 17 18  1  0
 18 19  1  0
 19 20  2  0
 20 21  1  0
 21 22  1  0
 22 23  1  0
 21 24  2  0
 24 25  1  0
 25 26  2  0
 17 27  1  0
 27 28  1  0
 27 29  2  0
  9 30  1  0
 30 31  2  0
 31 32  1  0
 32  3  1  0
 31  6  1  0
 29 14  1  0
 26 19  1  0
  1 33  1  0
  1 34  1  0
  1 35  1  0
  2 36  1  0
  2 37  1  0
  4 38  1  0
  4 39  1  0
  5 40  1  0
  5 41  1  0
  7 42  1  0
  8 43  1  0
 10 44  1  0
 13 45  1  0
 15 46  1  0
 16 47  1  0
 20 48  1  0
 22 49  1  0
 23 50  1  0
 23 51  1  0
 23 52  1  0
 25 53  1  0
 28 54  1  0
 28 55  1  0
 28 56  1  0
 29 57  1  0
 30 58  1  0
 32 59  1  0
 32 60  1  0
M  END
$$$$
[H]c1nc(N([H])[H])c2c(-c3sc([H])c([H])c3[H])c([H])n([C@]3([H])C([H])([H])C([H])([H])[C@@]([H])(N([H])[C@]([H])(C(=O)N([H])[H])C([H])([H])C([H])([H])C([H])([H])n4nnnc4[H])C([H])([H])C3([H])[H])c2n1
     RDKit          3D

 62 66  0  0  0  0  0  0  0  0999 V2000
    6.7145   -1.7559   -0.3706 N   0  0  0  0  0  0  0  0  0  0  0  0
    5.3588   -1.7489    0.0430 C   0  0  0  0  0  0  0  0  0  0  0  0
    4.9863   -2.6925    0.9643 N   0  0  0  0  0  0  0  0  0  0  0  0
    3.7408   -2.7291    1.4182 C   0  0  0  0  0  0  0  0  0  0  0  0
    2.8626   -1.8297    0.9597 N   0  0  0  0  0  0  0  0  0  0  0  0
    3.1675   -0.8887    0.0637 C   0  0  0  0  0  0  0  0  0  0  0  0
    2.4894    0.1136   -0.5252 N   0  0  0  0  0  0  0  0  0  0  0  0
    3.2810    0.7826   -1.3449 C   0  0  0  0  0  0  0  0  0  0  0  0
    4.5774    0.2120   -1.3226 C   0  0  0  0  0  0  0  0  0  0  0  0
    5.6794    0.7672   -2.0975 C   0  0  0  0  0  0  0  0  0  0  0  0
    5.7002    2.0729   -2.5961 C   0  0  0  0  0  0  0  0  0  0  0  0
    6.7884    2.4662   -3.2425 C   0  0  0  0  0  0  0  0  0  0  0  0
    7.8193    1.5754   -3.3826 C   0  0  0  0  0  0  0  0  0  0  0  0
    7.1901    0.2181   -2.5858 S   0  0  0  0  0  0  0  0  0  0  0  0
    4.4773   -0.8205   -0.4405 C   0  0  0  0  0  0  0  0  0  0  0  0
    1.0703    0.3545   -0.2318 C   0  0  1  0  0  0  0  0  0  0  0  0
    0.3100   -0.8209   -0.7102 C   0  0  0  0  0  0  0  0  0  0  0  0
   -1.1606   -0.7126   -0.2716 C   0  0  0  0  0  0  0  0  0  0  0  0
   -1.1131   -0.7379    1.2186 C   0  0  1  0  0  0  0  0  0  0  0  0
   -0.4684    0.5381    1.7621 C   0  0  0  0  0  0  0  0  0  0  0  0
    0.8777    0.7863    1.1761 C   0  0  0  0  0  0  0  0  0  0  0  0
   -2.1966   -1.1013    1.9748 N   0  0  0  0  0  0  0  0  0  0  0  0
   -3.4339   -0.4525    2.0624 C   0  0  1  0  0  0  0  0  0  0  0  0
   -4.2061   -0.4623    0.7783 C   0  0  0  0  0  0  0  0  0  0  0  0
   -5.5414    0.2204    0.9380 C   0  0  0  0  0  0  0  0  0  0  0  0
   -6.3094    0.2676   -0.3790 C   0  0  0  0  0  0  0  0  0  0  0  0
   -5.5948    0.9903   -1.3949 N   0  0  0  0  0  0  0  0  0  0  0  0
   -4.7131    0.5953   -2.3262 C   0  0  0  0  0  0  0  0  0  0  0  0
   -4.3158    1.6491   -3.0553 N   0  0  0  0  0  0  0  0  0  0  0  0
   -4.9405    2.6982   -2.5882 N   0  0  0  0  0  0  0  0  0  0  0  0
   -5.7117    2.3090   -1.5890 N   0  0  0  0  0  0  0  0  0  0  0  0
   -4.2746   -1.1080    3.1287 C   0  0  0  0  0  0  0  0  0  0  0  0
   -5.2235   -0.3566    3.8563 N   0  0  0  0  0  0  0  0  0  0  0  0
   -4.1420   -2.3291    3.3914 O   0  0  0  0  0  0  0  0  0  0  0  0
    7.4477   -1.1645    0.0855 H   0  0  0  0  0  0  0  0  0  0  0  0
    6.9704   -2.4097   -1.1421 H   0  0  0  0  0  0  0  0  0  0  0  0
    3.4381   -3.4911    2.1620 H   0  0  0  0  0  0  0  0  0  0  0  0
    3.0064    1.6264   -1.9429 H   0  0  0  0  0  0  0  0  0  0  0  0
    4.8219    2.7403   -2.4392 H   0  0  0  0  0  0  0  0  0  0  0  0
    6.9139    3.4885   -3.6779 H   0  0  0  0  0  0  0  0  0  0  0  0
    8.7886    1.7304   -3.8864 H   0  0  0  0  0  0  0  0  0  0  0  0
    0.7722    1.2048   -0.9203 H   0  0  0  0  0  0  0  0  0  0  0  0
    0.2633   -0.8199   -1.8243 H   0  0  0  0  0  0  0  0  0  0  0  0
    0.7179   -1.8023   -0.4160 H   0  0  0  0  0  0  0  0  0  0  0  0
   -1.4780    0.2662   -0.7037 H   0  0  0  0  0  0  0  0  0  0  0  0
   -1.6837   -1.5825   -0.6547 H   0  0  0  0  0  0  0  0  0  0  0  0
   -0.2888   -1.5267    1.4482 H   0  0  0  0  0  0  0  0  0  0  0  0
   -0.4422    0.4224    2.8556 H   0  0  0  0  0  0  0  0  0  0  0  0
   -1.1866    1.3478    1.5398 H   0  0  0  0  0  0  0  0  0  0  0  0
    1.6408    0.2872    1.8101 H   0  0  0  0  0  0  0  0  0  0  0  0
    1.0919    1.8720    1.2543 H   0  0  0  0  0  0  0  0  0  0  0  0
   -2.1851   -2.0278    2.4408 H   0  0  0  0  0  0  0  0  0  0  0  0
   -3.3550    0.6368    2.3482 H   0  0  0  0  0  0  0  0  0  0  0  0
   -4.3380   -1.5107    0.4186 H   0  0  0  0  0  0  0  0  0  0  0  0
   -3.6179    0.1130    0.0202 H   0  0  0  0  0  0  0  0  0  0  0  0
   -6.1510   -0.4432    1.6248 H   0  0  0  0  0  0  0  0  0  0  0  0
   -5.5032    1.2125    1.3886 H   0  0  0  0  0  0  0  0  0  0  0  0
   -7.2749    0.7797   -0.1629 H   0  0  0  0  0  0  0  0  0  0  0  0
   -6.5390   -0.7662   -0.7196 H   0  0  0  0  0  0  0  0  0  0  0  0
   -4.3779   -0.4166   -2.4638 H   0  0  0  0  0  0  0  0  0  0  0  0
   -6.0559   -0.8440    4.2423 H   0  0  0  0  0  0  0  0  0  0  0  0
   -5.1412    0.6750    4.0340 H   0  0  0  0  0  0  0  0  0  0  0  0
  1  2  1  0
  2  3  2  0
  3  4  1  0
  4  5  2  0
  5  6  1  0
  6  7  1  0
  7  8  1  0
  8  9  2  0
  9 10  1  0
 10 11  2  0
 11 12  1  0
 12 13  2  0
 13 14  1  0
  9 15  1  0
  7 16  1  0
 16 17  1  0
 17 18  1  0
 18 19  1  0
 19 20  1  0
 20 21  1  0
 19 22  1  0
 22 23  1  0
 23 24  1  0
 24 25  1  0
 25 26  1  0
 26 27  1  0
 27 28  1  0
 28 29  2  0
 29 30  1  0
 30 31  2  0
 23 32  1  0
 32 33  1  0
 32 34  2  0
 15  2  1  0
 21 16  1  0
 31 27  1  0
 15  6  2  0
 14 10  1  0
  1 35  1  0
  1 36  1  0
  4 37  1  0
  8 38  1  0
 11 39  1  0
 12 40  1  0
 13 41  1  0
 16 42  1  6
 17 43  1  0
 17 44  1  0
 18 45  1  0
 18 46  1  0
 19 47  1  6
 20 48  1  0
 20 49  1  0
 21 50  1  0
 21 51  1  0
 22 52  1  0
 23 53  1  1
 24 54  1  0
 24 55  1  0
 25 56  1  0
 25 57  1  0
 26 58  1  0
 26 59  1  0
 28 60  1  0
 33 61  1  0
 33 62  1  0
M  END
$$$$
[H]c1c([H])c([H])c2c(c1[H])c1c3c(c4c5c([H])c([H])c([H])c([H])c5n5c4c1n2[C@]1([H])O[C@]5(C([H])([H])[H])[C@@]([H])(OC([H])([H])[H])[C@]([H])(N([H])C([H])([H])[H])C1([H])[H])C([H])([H])N([H])C3=O
     RDKit          3D

 61 68  0  0  0  0  0  0  0  0999 V2000
   -5.0032    2.3015   -0.0847 C   0  0  0  0  0  0  0  0  0  0  0  0
   -4.2911    1.1206   -0.5239 N   0  0  0  0  0  0  0  0  0  0  0  0
   -3.1564    0.9314    0.3042 C   0  0  2  0  0  0  0  0  0  0  0  0
   -2.1540    2.1226    0.1663 C   0  0  0  0  0  0  0  0  0  0  0  0
   -0.9665    1.4540   -0.0205 C   0  0  1  0  0  0  0  0  0  0  0  0
   -1.1415    0.7448   -1.1981 O   0  0  0  0  0  0  0  0  0  0  0  0
   -1.4119   -0.5987   -0.7868 C   0  0  2  0  0  0  0  0  0  0  0  0
   -1.8712   -1.2254   -2.1322 C   0  0  0  0  0  0  0  0  0  0  0  0
   -2.4889   -0.4501    0.1598 C   0  0  1  0  0  0  0  0  0  0  0  0
   -2.3890   -1.1153    1.3880 O   0  0  0  0  0  0  0  0  0  0  0  0
   -3.3269   -2.1274    1.5521 C   0  0  0  0  0  0  0  0  0  0  0  0
   -0.1378   -1.2020   -0.4914 N   0  0  0  0  0  0  0  0  0  0  0  0
    0.1616   -2.5344   -0.6109 C   0  0  0  0  0  0  0  0  0  0  0  0
   -0.5901   -3.6465   -0.8619 C   0  0  0  0  0  0  0  0  0  0  0  0
    0.0056   -4.9014   -0.9123 C   0  0  0  0  0  0  0  0  0  0  0  0
    1.3589   -5.0700   -0.7130 C   0  0  0  0  0  0  0  0  0  0  0  0
    2.1437   -3.9569   -0.4556 C   0  0  0  0  0  0  0  0  0  0  0  0
    1.5172   -2.7445   -0.4151 C   0  0  0  0  0  0  0  0  0  0  0  0
    2.0596   -1.5148   -0.1645 C   0  0  0  0  0  0  0  0  0  0  0  0
    3.3310   -1.0167    0.0798 C   0  0  0  0  0  0  0  0  0  0  0  0
    4.6039   -1.7769    0.1721 C   0  0  0  0  0  0  0  0  0  0  0  0
    5.6037   -0.7850    0.4503 N   0  0  0  0  0  0  0  0  0  0  0  0
    5.0034    0.5280    0.5134 C   0  0  0  0  0  0  0  0  0  0  0  0
    5.7188    1.5160    0.7371 O   0  0  0  0  0  0  0  0  0  0  0  0
    3.6006    0.3262    0.2783 C   0  0  0  0  0  0  0  0  0  0  0  0
    2.5644    1.2461    0.2408 C   0  0  0  0  0  0  0  0  0  0  0  0
    2.4247    2.5831    0.4378 C   0  0  0  0  0  0  0  0  0  0  0  0
    3.2960    3.5951    0.7015 C   0  0  0  0  0  0  0  0  0  0  0  0
    2.7602    4.8881    0.8432 C   0  0  0  0  0  0  0  0  0  0  0  0
    1.4157    5.1498    0.7252 C   0  0  0  0  0  0  0  0  0  0  0  0
    0.5372    4.1127    0.4564 C   0  0  0  0  0  0  0  0  0  0  0  0
    1.0796    2.8483    0.3203 C   0  0  0  0  0  0  0  0  0  0  0  0
    0.4024    1.7469    0.0621 N   0  0  0  0  0  0  0  0  0  0  0  0
    1.3106    0.7318   -0.0025 C   0  0  0  0  0  0  0  0  0  0  0  0
    1.0507   -0.6266   -0.2113 C   0  0  0  0  0  0  0  0  0  0  0  0
   -4.4222    3.2206   -0.0758 H   0  0  0  0  0  0  0  0  0  0  0  0
   -5.9751    2.4312   -0.6421 H   0  0  0  0  0  0  0  0  0  0  0  0
   -5.3325    2.1331    0.9827 H   0  0  0  0  0  0  0  0  0  0  0  0
   -4.9231    0.3185   -0.4524 H   0  0  0  0  0  0  0  0  0  0  0  0
   -3.5204    0.9543    1.3717 H   0  0  0  0  0  0  0  0  0  0  0  0
   -2.2319    2.7634    1.0681 H   0  0  0  0  0  0  0  0  0  0  0  0
   -2.5549    2.7584   -0.6810 H   0  0  0  0  0  0  0  0  0  0  0  0
   -1.0177    0.7572    0.9341 H   0  0  0  0  0  0  0  0  0  0  0  0
   -2.1640   -0.4180   -2.8609 H   0  0  0  0  0  0  0  0  0  0  0  0
   -1.0623   -1.7738   -2.6232 H   0  0  0  0  0  0  0  0  0  0  0  0
   -2.8063   -1.7859   -1.9703 H   0  0  0  0  0  0  0  0  0  0  0  0
   -3.3692   -1.0206   -0.3155 H   0  0  0  0  0  0  0  0  0  0  0  0
   -4.3685   -1.7465    1.5031 H   0  0  0  0  0  0  0  0  0  0  0  0
   -3.1360   -2.7642    2.4105 H   0  0  0  0  0  0  0  0  0  0  0  0
   -3.2309   -2.7727    0.6280 H   0  0  0  0  0  0  0  0  0  0  0  0
   -1.6587   -3.5713   -1.0137 H   0  0  0  0  0  0  0  0  0  0  0  0
   -0.5879   -5.7740   -1.1105 H   0  0  0  0  0  0  0  0  0  0  0  0
    1.8233   -6.0462   -0.7522 H   0  0  0  0  0  0  0  0  0  0  0  0
    3.2016   -4.0714   -0.2980 H   0  0  0  0  0  0  0  0  0  0  0  0
    4.5688   -2.4736    1.0276 H   0  0  0  0  0  0  0  0  0  0  0  0
    4.8295   -2.3223   -0.7651 H   0  0  0  0  0  0  0  0  0  0  0  0
    6.6092   -1.0259    0.5823 H   0  0  0  0  0  0  0  0  0  0  0  0
    4.3503    3.4578    0.8021 H   0  0  0  0  0  0  0  0  0  0  0  0
    3.4660    5.6873    1.0540 H   0  0  0  0  0  0  0  0  0  0  0  0
    1.0161    6.1615    0.8387 H   0  0  0  0  0  0  0  0  0  0  0  0
   -0.5241    4.2689    0.3538 H   0  0  0  0  0  0  0  0  0  0  0  0
  1  2  1  0
  2  3  1  0
  3  4  1  0
  4  5  1  0
  5  6  1  0
  6  7  1  0
  7  8  1  6
  7  9  1  0
  9 10  1  0
 10 11  1  0
  7 12  1  0
 12 13  1  0
 13 14  2  0
 14 15  1  0
 15 16  2  0
 16 17  1  0
 17 18  2  0
 18 19  1  0
 19 20  2  0
 20 21  1  0
 21 22  1  0
 22 23  1  0
 23 24  2  0
 23 25  1  0
 25 26  2  0
 26 27  1  0
 27 28  2  0
 28 29  1  0
 29 30  2  0
 30 31  1  0
 31 32  2  0
 32 33  1  0
 33 34  1  0
 34 35  2  0
  9  3  1  0
 35 12  1  0
 33  5  1  0
 18 13  1  0
 35 19  1  0
 25 20  1  0
 34 26  1  0
 32 27  1  0
  1 36  1  0
  1 37  1  0
  1 38  1  0
  2 39  1  0
  3 40  1  1
  4 41  1  0
  4 42  1  0
  5 43  1  1
  8 44  1  0
  8 45  1  0
  8 46  1  0
  9 47  1  6
 11 48  1  0
 11 49  1  0
 11 50  1  0
 14 51  1  0
 15 52  1  0
 16 53  1  0
 17 54  1  0
 21 55  1  0
 21 56  1  0
 22 57  1  0
 28 58  1  0
 29 59  1  0
 30 60  1  0
 31 61  1  0
M  END
$$$$
[H]Oc1c([H])c([H])c(C([H])([H])[C@@]2([H])C(=O)N([H])[C@@]([H])(C3([H])C([H])([H])C([H])([H])C3([H])[H])C(=O)N([H])[C@]([H])(C([H])([H])C([H])([H])[H])C(=O)N([H])[C@]([H])(C([H])(C([H])([H])[H])C([H])([H])[H])C(=O)N([H])[C@@]([H])(C([H])([H])c3c([H])c([H])c([H])c([H])c3[H])C(=O)N2[H])c([H])c1[H]
     RDKit          3D

 87 90  0  0  0  0  0  0  0  0999 V2000
   -4.5299   -4.5119    0.9449 C   0  0  0  0  0  0  0  0  0  0  0  0
   -4.3362   -2.9957    0.8181 C   0  0  0  0  0  0  0  0  0  0  0  0
   -2.9160   -2.6492    1.2950 C   0  0  1  0  0  0  0  0  0  0  0  0
   -1.9294   -3.2935    0.5266 N   0  0  0  0  0  0  0  0  0  0  0  0
   -0.9213   -2.8721   -0.3352 C   0  0  0  0  0  0  0  0  0  0  0  0
   -0.8957   -3.4281   -1.5100 O   0  0  0  0  0  0  0  0  0  0  0  0
    0.1463   -1.8726   -0.1246 C   0  0  1  0  0  0  0  0  0  0  0  0
    1.0653   -2.3896    0.9181 N   0  0  0  0  0  0  0  0  0  0  0  0
    1.6753   -1.6044    1.8972 C   0  0  0  0  0  0  0  0  0  0  0  0
    2.0742   -2.2034    2.9596 O   0  0  0  0  0  0  0  0  0  0  0  0
    1.9256   -0.1482    1.8744 C   0  0  2  0  0  0  0  0  0  0  0  0
    3.3917    0.1433    1.9893 C   0  0  0  0  0  0  0  0  0  0  0  0
    4.2507   -0.3822    0.9460 C   0  0  0  0  0  0  0  0  0  0  0  0
    4.8528   -1.6007    1.0452 C   0  0  0  0  0  0  0  0  0  0  0  0
    5.6799   -2.1257    0.0606 C   0  0  0  0  0  0  0  0  0  0  0  0
    5.9229   -1.4090   -1.0777 C   0  0  0  0  0  0  0  0  0  0  0  0
    6.7468   -1.9039   -2.0860 O   0  0  0  0  0  0  0  0  0  0  0  0
    5.3297   -0.1610   -1.2209 C   0  0  0  0  0  0  0  0  0  0  0  0
    4.5123    0.3368   -0.2277 C   0  0  0  0  0  0  0  0  0  0  0  0
    1.2768    0.4858    3.0325 N   0  0  0  0  0  0  0  0  0  0  0  0
    0.4127    1.5884    2.9753 C   0  0  0  0  0  0  0  0  0  0  0  0
    0.1319    2.1801    4.0525 O   0  0  0  0  0  0  0  0  0  0  0  0
   -0.2016    2.1085    1.6970 C   0  0  2  0  0  0  0  0  0  0  0  0
    0.6762    3.2679    1.3089 C   0  0  0  0  0  0  0  0  0  0  0  0
    0.3299    3.9834    0.0958 C   0  0  0  0  0  0  0  0  0  0  0  0
   -0.4620    5.1091    0.0642 C   0  0  0  0  0  0  0  0  0  0  0  0
   -0.7681    5.7584   -1.0958 C   0  0  0  0  0  0  0  0  0  0  0  0
   -0.2710    5.2779   -2.2868 C   0  0  0  0  0  0  0  0  0  0  0  0
    0.5165    4.1629   -2.2784 C   0  0  0  0  0  0  0  0  0  0  0  0
    0.8096    3.5292   -1.1042 C   0  0  0  0  0  0  0  0  0  0  0  0
   -1.5802    2.4585    1.9605 N   0  0  0  0  0  0  0  0  0  0  0  0
   -2.7157    2.2926    1.1933 C   0  0  0  0  0  0  0  0  0  0  0  0
   -3.4382    3.3427    0.9982 O   0  0  0  0  0  0  0  0  0  0  0  0
   -3.2481    1.0334    0.5364 C   0  0  2  0  0  0  0  0  0  0  0  0
   -3.2724   -0.0344    1.4854 N   0  0  0  0  0  0  0  0  0  0  0  0
   -2.7400   -1.2657    1.7358 C   0  0  0  0  0  0  0  0  0  0  0  0
   -1.7826   -1.2227    2.6498 O   0  0  0  0  0  0  0  0  0  0  0  0
   -2.6598    0.8577   -0.8036 C   0  0  0  0  0  0  0  0  0  0  0  0
   -3.0348    2.1747   -1.5715 C   0  0  0  0  0  0  0  0  0  0  0  0
   -3.4861   -0.1431   -1.6418 C   0  0  0  0  0  0  0  0  0  0  0  0
    0.9634   -1.5773   -1.3573 C   0  0  0  0  0  0  0  0  0  0  0  0
    0.2650   -1.1410   -2.5919 C   0  0  0  0  0  0  0  0  0  0  0  0
    1.1637   -2.1133   -3.3581 C   0  0  0  0  0  0  0  0  0  0  0  0
    1.6926   -2.6781   -2.0291 C   0  0  0  0  0  0  0  0  0  0  0  0
   -3.8407   -4.8828    1.7465 H   0  0  0  0  0  0  0  0  0  0  0  0
   -5.5842   -4.6768    1.1916 H   0  0  0  0  0  0  0  0  0  0  0  0
   -4.2003   -4.9665   -0.0012 H   0  0  0  0  0  0  0  0  0  0  0  0
   -4.4623   -2.7112   -0.2281 H   0  0  0  0  0  0  0  0  0  0  0  0
   -5.0301   -2.4684    1.4853 H   0  0  0  0  0  0  0  0  0  0  0  0
   -2.9510   -3.3196    2.2791 H   0  0  0  0  0  0  0  0  0  0  0  0
   -1.9443   -4.3890    0.5967 H   0  0  0  0  0  0  0  0  0  0  0  0
   -0.2616   -0.8902    0.2034 H   0  0  0  0  0  0  0  0  0  0  0  0
    1.2666   -3.4237    0.9120 H   0  0  0  0  0  0  0  0  0  0  0  0
    1.4978    0.3485    0.9851 H   0  0  0  0  0  0  0  0  0  0  0  0
    3.4726    1.2736    2.0375 H   0  0  0  0  0  0  0  0  0  0  0  0
    3.7268   -0.1579    3.0290 H   0  0  0  0  0  0  0  0  0  0  0  0
    4.7123   -2.2125    1.9139 H   0  0  0  0  0  0  0  0  0  0  0  0
    6.1319   -3.0995    0.1922 H   0  0  0  0  0  0  0  0  0  0  0  0
    7.7460   -1.7309   -2.1031 H   0  0  0  0  0  0  0  0  0  0  0  0
    5.5345    0.3822   -2.1203 H   0  0  0  0  0  0  0  0  0  0  0  0
    4.0687    1.3122   -0.3755 H   0  0  0  0  0  0  0  0  0  0  0  0
    1.5295    0.0153    3.9621 H   0  0  0  0  0  0  0  0  0  0  0  0
   -0.2320    1.3401    0.9060 H   0  0  0  0  0  0  0  0  0  0  0  0
    1.7274    2.8503    1.2927 H   0  0  0  0  0  0  0  0  0  0  0  0
    0.7307    4.0321    2.1398 H   0  0  0  0  0  0  0  0  0  0  0  0
   -0.8544    5.4873    1.0092 H   0  0  0  0  0  0  0  0  0  0  0  0
   -1.3946    6.6513   -1.1325 H   0  0  0  0  0  0  0  0  0  0  0  0
   -0.4965    5.7738   -3.2355 H   0  0  0  0  0  0  0  0  0  0  0  0
    0.8950    3.8053   -3.2288 H   0  0  0  0  0  0  0  0  0  0  0  0
    1.4296    2.6555   -1.1199 H   0  0  0  0  0  0  0  0  0  0  0  0
   -1.6859    2.9265    2.9306 H   0  0  0  0  0  0  0  0  0  0  0  0
   -4.3600    1.2270    0.3097 H   0  0  0  0  0  0  0  0  0  0  0  0
   -3.9618    0.3177    2.2985 H   0  0  0  0  0  0  0  0  0  0  0  0
   -1.6019    0.7635   -0.9216 H   0  0  0  0  0  0  0  0  0  0  0  0
   -4.1049    2.3641   -1.4823 H   0  0  0  0  0  0  0  0  0  0  0  0
   -2.8050    2.0359   -2.6488 H   0  0  0  0  0  0  0  0  0  0  0  0
   -2.3846    2.9994   -1.2212 H   0  0  0  0  0  0  0  0  0  0  0  0
   -4.5361   -0.0289   -1.2617 H   0  0  0  0  0  0  0  0  0  0  0  0
   -3.1900   -1.1733   -1.4806 H   0  0  0  0  0  0  0  0  0  0  0  0
   -3.5197    0.1513   -2.7113 H   0  0  0  0  0  0  0  0  0  0  0  0
    1.7278   -0.7586   -1.1122 H   0  0  0  0  0  0  0  0  0  0  0  0
   -0.7984   -1.3059   -2.7161 H   0  0  0  0  0  0  0  0  0  0  0  0
    0.4941   -0.1017   -2.9729 H   0  0  0  0  0  0  0  0  0  0  0  0
    0.6295   -2.8335   -3.9798 H   0  0  0  0  0  0  0  0  0  0  0  0
    1.9822   -1.6346   -3.9298 H   0  0  0  0  0  0  0  0  0  0  0  0
    2.8270   -2.5987   -1.9812 H   0  0  0  0  0  0  0  0  0  0  0  0
    1.4474   -3.7132   -1.8165 H   0  0  0  0  0  0  0  0  0  0  0  0
  1  2  1  0
  2  3  1  0
  3  4  1  0
  4  5  1  0
  5  6  2  0
  5  7  1  0
  7  8  1  0
  8  9  1  0
  9 10  2  0
  9 11  1  0
 11 12  1  0
 12 13  1  0
 13 14  2  0
 14 15  1  0
 15 16  2  0
 16 17  1  0
 16 18  1  0
 18 19  2  0
 11 20  1  0
 20 21  1  0
 21 22  2  0
 21 23  1  0
 23 24  1  0
 24 25  1  0
 25 26  2  0
 26 27  1  0
 27 28  2  0
 28 29  1  0
 29 30  2  0
 23 31  1  0
 31 32  1  0
 32 33  2  0
 32 34  1  0
 34 35  1  0
 35 36  1  0
 36 37  2  0
 34 38  1  0
 38 39  1  0
 38 40  1  0
  7 41  1  0
 41 42  1  0
 42 43  1  0
 43 44  1  0
 36  3  1  0
 44 41  1  0
 19 13  1  0
 30 25  1  0
  1 45  1  0
  1 46  1  0
  1 47  1  0
  2 48  1  0
  2 49  1  0
  3 50  1  1
  4 51  1  0
  7 52  1  1
  8 53  1  0
 11 54  1  6
 12 55  1  0
 12 56  1  0
 14 57  1  0
 15 58  1  0
 17 59  1  0
 18 60  1  0
 19 61  1  0
 20 62  1  0
 23 63  1  6
 24 64  1  0
 24 65  1  0
 26 66  1  0
 27 67  1  0
 28 68  1  0
 29 69  1  0
 30 70  1  0
 31 71  1  0
 34 72  1  6
 35 73  1  0
 38 74  1  0
 39 75  1  0
 39 76  1  0
 39 77  1  0
 40 78  1  0
 40 79  1  0
 40 80  1  0
 41 81  1  0
 42 82  1  0
 42 83  1  0
 43 84  1  0
 43 85  1  0
 44 86  1  0
 44 87  1  0
M  END
$$$$
[H]c1c([H])c([H])c(-n2nnc(-c3c([H])c([H])c(N([H])C(=O)C([H])(c4c([H])c([H])c([H])c([H])c4[H])C([H])([H])C([H])(C([H])([H])[H])C([H])([H])[H])c([H])c3[H])n2)c([H])c1[H]
     RDKit          3D

 56 59  0  0  0  0  0  0  0  0999 V2000
   -4.6996    2.0564   -2.8638 C   0  0  0  0  0  0  0  0  0  0  0  0
   -4.1650    1.9432   -1.4389 C   0  0  0  0  0  0  0  0  0  0  0  0
   -4.6552    3.0593   -0.5774 C   0  0  0  0  0  0  0  0  0  0  0  0
   -4.5849    0.5899   -0.8735 C   0  0  0  0  0  0  0  0  0  0  0  0
   -4.0749    0.4370    0.5213 C   0  0  0  0  0  0  0  0  0  0  0  0
   -2.5611    0.5145    0.5395 C   0  0  0  0  0  0  0  0  0  0  0  0
   -2.1096    1.4583    1.2378 O   0  0  0  0  0  0  0  0  0  0  0  0
   -1.7977   -0.4098   -0.1772 N   0  0  0  0  0  0  0  0  0  0  0  0
   -0.3946   -0.4167   -0.2127 C   0  0  0  0  0  0  0  0  0  0  0  0
    0.4600    0.2974    0.5717 C   0  0  0  0  0  0  0  0  0  0  0  0
    1.8493    0.2092    0.4210 C   0  0  0  0  0  0  0  0  0  0  0  0
    2.4287   -0.5990   -0.5218 C   0  0  0  0  0  0  0  0  0  0  0  0
    1.5758   -1.3259   -1.3201 C   0  0  0  0  0  0  0  0  0  0  0  0
    0.2141   -1.2455   -1.1795 C   0  0  0  0  0  0  0  0  0  0  0  0
    3.8670   -0.7062   -0.6969 C   0  0  0  0  0  0  0  0  0  0  0  0
    4.4957   -1.4847   -1.6060 N   0  0  0  0  0  0  0  0  0  0  0  0
    5.8172   -1.3088   -1.4555 N   0  0  0  0  0  0  0  0  0  0  0  0
    6.0422   -0.4455   -0.4817 N   0  0  0  0  0  0  0  0  0  0  0  0
    4.8524   -0.0893   -0.0319 N   0  0  0  0  0  0  0  0  0  0  0  0
    7.3181   -0.0015   -0.0246 C   0  0  0  0  0  0  0  0  0  0  0  0
    7.5386    1.2754    0.4484 C   0  0  0  0  0  0  0  0  0  0  0  0
    8.7812    1.6924    0.8887 C   0  0  0  0  0  0  0  0  0  0  0  0
    9.8549    0.8241    0.8659 C   0  0  0  0  0  0  0  0  0  0  0  0
    9.6407   -0.4554    0.3936 C   0  0  0  0  0  0  0  0  0  0  0  0
    8.3946   -0.8751   -0.0485 C   0  0  0  0  0  0  0  0  0  0  0  0
   -4.5079   -0.8442    1.1152 C   0  0  0  0  0  0  0  0  0  0  0  0
   -4.6717   -1.9792    0.3738 C   0  0  0  0  0  0  0  0  0  0  0  0
   -5.0687   -3.1410    1.0231 C   0  0  0  0  0  0  0  0  0  0  0  0
   -5.3016   -3.1945    2.3684 C   0  0  0  0  0  0  0  0  0  0  0  0
   -5.1350   -2.0406    3.1184 C   0  0  0  0  0  0  0  0  0  0  0  0
   -4.7451   -0.8895    2.4978 C   0  0  0  0  0  0  0  0  0  0  0  0
   -5.7014    1.5765   -2.9262 H   0  0  0  0  0  0  0  0  0  0  0  0
   -4.6989    3.1014   -3.1750 H   0  0  0  0  0  0  0  0  0  0  0  0
   -3.9867    1.4946   -3.5026 H   0  0  0  0  0  0  0  0  0  0  0  0
   -3.0722    1.9555   -1.4784 H   0  0  0  0  0  0  0  0  0  0  0  0
   -5.5649    2.6900   -0.0292 H   0  0  0  0  0  0  0  0  0  0  0  0
   -3.9500    3.4147    0.1863 H   0  0  0  0  0  0  0  0  0  0  0  0
   -5.0232    3.9261   -1.1740 H   0  0  0  0  0  0  0  0  0  0  0  0
   -5.6898    0.5483   -0.9310 H   0  0  0  0  0  0  0  0  0  0  0  0
   -4.2088   -0.2213   -1.5497 H   0  0  0  0  0  0  0  0  0  0  0  0
   -4.4807    1.2514    1.1710 H   0  0  0  0  0  0  0  0  0  0  0  0
   -2.3582   -1.1413   -0.7189 H   0  0  0  0  0  0  0  0  0  0  0  0
    0.0848    0.9474    1.3421 H   0  0  0  0  0  0  0  0  0  0  0  0
    2.5102    0.7953    1.0655 H   0  0  0  0  0  0  0  0  0  0  0  0
    2.0267   -1.9804   -2.0825 H   0  0  0  0  0  0  0  0  0  0  0  0
   -0.4388   -1.8365   -1.8306 H   0  0  0  0  0  0  0  0  0  0  0  0
    6.7032    1.9640    0.4703 H   0  0  0  0  0  0  0  0  0  0  0  0
    8.9512    2.6995    1.2607 H   0  0  0  0  0  0  0  0  0  0  0  0
   10.8394    1.1609    1.2168 H   0  0  0  0  0  0  0  0  0  0  0  0
   10.4468   -1.1521    0.3616 H   0  0  0  0  0  0  0  0  0  0  0  0
    8.2125   -1.8738   -0.4208 H   0  0  0  0  0  0  0  0  0  0  0  0
   -4.5157   -2.0154   -0.7049 H   0  0  0  0  0  0  0  0  0  0  0  0
   -5.2051   -4.0607    0.4476 H   0  0  0  0  0  0  0  0  0  0  0  0
   -5.6135   -4.1060    2.8803 H   0  0  0  0  0  0  0  0  0  0  0  0
   -5.3196   -2.0757    4.1928 H   0  0  0  0  0  0  0  0  0  0  0  0
   -4.6052    0.0327    3.0546 H   0  0  0  0  0  0  0  0  0  0  0  0
  1  2  1  0
  2  3  1  0
  2  4  1  0
  4  5  1  0
  5  6  1  0
  6  7  2  0
  6  8  1  0
  8  9  1  0
  9 10  2  0
 10 11  1  0
 11 12  2  0
 12 13  1  0
 13 14  2  0
 12 15  1  0
 15 16  1  0
 16 17  2  0
 17 18  1  0
 18 19  1  0
 18 20  1  0
 20 21  2  0
 21 22  1  0
 22 23  2  0
 23 24  1  0
 24 25  2  0
  5 26  1  0
 26 27  2  0
 27 28  1  0
 28 29  2  0
 29 30  1  0
 30 31  2  0
 14  9  1  0
 19 15  2  0
 25 20  1  0
 31 26  1  0
  1 32  1  0
  1 33  1  0
  1 34  1  0
  2 35  1  0
  3 36  1  0
  3 37  1  0
  3 38  1  0
  4 39  1  0
  4 40  1  0
  5 41  1  0
  8 42  1  0
 10 43  1  0
 11 44  1  0
 13 45  1  0
 14 46  1  0
 21 47  1  0
 22 48  1  0
 23 49  1  0
 24 50  1  0
 25 51  1  0
 27 52  1  0
 28 53  1  0
 29 54  1  0
 30 55  1  0
 31 56  1  0
M  END
$$$$
[H]c1c([H])c([H])c(C([H])([H])n2c(C3([H])C([H])([H])C([H])([H])N(C([H])([H])C([H])([H])C4(c5c([H])c([H])c(Cl)c(Cl)c5[H])/C(=N/OC([H])([H])[H])C4([H])[H])C([H])([H])C3([H])[H])nc3c([H])c([H])c([H])c([H])c32)c([H])c1[H]
     RDKit          3D

 70 75  0  0  0  0  0  0  0  0999 V2000
    7.1220    4.2144    0.1967 C   0  0  0  0  0  0  0  0  0  0  0  0
    6.6213    3.7947   -1.0804 O   0  0  0  0  0  0  0  0  0  0  0  0
    5.9961    2.6105   -1.2674 N   0  0  0  0  0  0  0  0  0  0  0  0
    5.4039    1.9955   -0.3144 C   0  0  0  0  0  0  0  0  0  0  0  0
    4.6061    0.8372    0.2329 C   0  0  0  0  0  0  0  0  0  0  0  0
    3.1885    0.7781   -0.2904 C   0  0  0  0  0  0  0  0  0  0  0  0
    2.4704   -0.4078    0.3079 C   0  0  0  0  0  0  0  0  0  0  0  0
    1.1163   -0.5223   -0.1478 N   0  0  0  0  0  0  0  0  0  0  0  0
    0.2531    0.5389    0.3321 C   0  0  0  0  0  0  0  0  0  0  0  0
   -1.0407    0.4031   -0.4853 C   0  0  0  0  0  0  0  0  0  0  0  0
   -1.7579   -0.7991    0.0885 C   0  0  0  0  0  0  0  0  0  0  0  0
   -0.8466   -1.9999   -0.1168 C   0  0  0  0  0  0  0  0  0  0  0  0
    0.5573   -1.7650    0.3109 C   0  0  0  0  0  0  0  0  0  0  0  0
   -3.0177   -1.0842   -0.6377 C   0  0  0  0  0  0  0  0  0  0  0  0
   -3.1407   -1.4022   -1.9493 N   0  0  0  0  0  0  0  0  0  0  0  0
   -4.4035   -1.6148   -2.2595 C   0  0  0  0  0  0  0  0  0  0  0  0
   -5.0713   -1.9683   -3.4222 C   0  0  0  0  0  0  0  0  0  0  0  0
   -6.4370   -2.1403   -3.4647 C   0  0  0  0  0  0  0  0  0  0  0  0
   -7.1814   -1.9605   -2.3275 C   0  0  0  0  0  0  0  0  0  0  0  0
   -6.5034   -1.6029   -1.1540 C   0  0  0  0  0  0  0  0  0  0  0  0
   -5.1381   -1.4322   -1.1217 C   0  0  0  0  0  0  0  0  0  0  0  0
   -4.2739   -1.1020   -0.1207 N   0  0  0  0  0  0  0  0  0  0  0  0
   -4.6803   -0.8267    1.2215 C   0  0  0  0  0  0  0  0  0  0  0  0
   -5.0044    0.5997    1.4859 C   0  0  0  0  0  0  0  0  0  0  0  0
   -4.0316    1.4845    1.9007 C   0  0  0  0  0  0  0  0  0  0  0  0
   -4.3684    2.8096    2.1429 C   0  0  0  0  0  0  0  0  0  0  0  0
   -5.6473    3.3015    1.9894 C   0  0  0  0  0  0  0  0  0  0  0  0
   -6.6148    2.4248    1.5784 C   0  0  0  0  0  0  0  0  0  0  0  0
   -6.2855    1.1079    1.3367 C   0  0  0  0  0  0  0  0  0  0  0  0
    4.9725    1.8924    1.1373 C   0  0  0  0  0  0  0  0  0  0  0  0
    5.3152   -0.4720    0.1752 C   0  0  0  0  0  0  0  0  0  0  0  0
    5.3107   -1.3113    1.2503 C   0  0  0  0  0  0  0  0  0  0  0  0
    5.9851   -2.5091    1.1362 C   0  0  0  0  0  0  0  0  0  0  0  0
    6.6447   -2.8399   -0.0416 C   0  0  0  0  0  0  0  0  0  0  0  0
    7.5032   -4.3631   -0.1889 Cl  0  0  0  0  0  0  0  0  0  0  0  0
    6.6334   -1.9784   -1.1064 C   0  0  0  0  0  0  0  0  0  0  0  0
    7.4449   -2.3568   -2.5900 Cl  0  0  0  0  0  0  0  0  0  0  0  0
    5.9621   -0.7785   -1.0024 C   0  0  0  0  0  0  0  0  0  0  0  0
    7.7561    5.1137    0.0748 H   0  0  0  0  0  0  0  0  0  0  0  0
    6.2390    4.4333    0.8396 H   0  0  0  0  0  0  0  0  0  0  0  0
    7.7490    3.4464    0.6679 H   0  0  0  0  0  0  0  0  0  0  0  0
    3.1810    0.6106   -1.4084 H   0  0  0  0  0  0  0  0  0  0  0  0
    2.6584    1.7236   -0.1402 H   0  0  0  0  0  0  0  0  0  0  0  0
    2.9887   -1.3441   -0.0568 H   0  0  0  0  0  0  0  0  0  0  0  0
    2.5364   -0.4439    1.4103 H   0  0  0  0  0  0  0  0  0  0  0  0
    0.0316    0.2909    1.4088 H   0  0  0  0  0  0  0  0  0  0  0  0
    0.6716    1.5390    0.2581 H   0  0  0  0  0  0  0  0  0  0  0  0
   -0.7716    0.1881   -1.5233 H   0  0  0  0  0  0  0  0  0  0  0  0
   -1.5843    1.3496   -0.3371 H   0  0  0  0  0  0  0  0  0  0  0  0
   -1.9175   -0.7153    1.1647 H   0  0  0  0  0  0  0  0  0  0  0  0
   -1.2508   -2.8624    0.4460 H   0  0  0  0  0  0  0  0  0  0  0  0
   -0.9316   -2.2623   -1.2041 H   0  0  0  0  0  0  0  0  0  0  0  0
    0.6356   -1.8830    1.4059 H   0  0  0  0  0  0  0  0  0  0  0  0
    1.1825   -2.5798   -0.1577 H   0  0  0  0  0  0  0  0  0  0  0  0
   -4.4931   -2.1131   -4.3270 H   0  0  0  0  0  0  0  0  0  0  0  0
   -6.9554   -2.4153   -4.3708 H   0  0  0  0  0  0  0  0  0  0  0  0
   -8.2610   -2.0812   -2.2954 H   0  0  0  0  0  0  0  0  0  0  0  0
   -7.0830   -1.4711   -0.2629 H   0  0  0  0  0  0  0  0  0  0  0  0
   -5.6427   -1.3836    1.4319 H   0  0  0  0  0  0  0  0  0  0  0  0
   -3.9800   -1.2362    1.9833 H   0  0  0  0  0  0  0  0  0  0  0  0
   -2.9828    1.1940    2.0659 H   0  0  0  0  0  0  0  0  0  0  0  0
   -3.6188    3.5255    2.4703 H   0  0  0  0  0  0  0  0  0  0  0  0
   -5.8875    4.3473    2.1853 H   0  0  0  0  0  0  0  0  0  0  0  0
   -7.6362    2.7922    1.4497 H   0  0  0  0  0  0  0  0  0  0  0  0
   -7.1159    0.4867    1.0282 H   0  0  0  0  0  0  0  0  0  0  0  0
    4.2414    2.6698    1.3852 H   0  0  0  0  0  0  0  0  0  0  0  0
    5.8344    1.8347    1.8425 H   0  0  0  0  0  0  0  0  0  0  0  0
    4.7867   -1.0182    2.1480 H   0  0  0  0  0  0  0  0  0  0  0  0
    6.0104   -3.1994    1.9497 H   0  0  0  0  0  0  0  0  0  0  0  0
    5.9473   -0.0922   -1.8362 H   0  0  0  0  0  0  0  0  0  0  0  0
  1  2  1  0
  2  3  1  0
  3  4  2  0
  4  5  1  0
  5  6  1  0
  6  7  1  0
  7  8  1  0
  8  9  1  0
  9 10  1  0
 10 11  1  0
 11 12  1  0
 12 13  1  0
 11 14  1  0
 14 15  2  0
 15 16  1  0
 16 17  2  0
 17 18  1  0
 18 19  2  0
 19 20  1  0
 20 21  2  0
 21 22  1  0
 22 23  1  0
 23 24  1  0
 24 25  2  0
 25 26  1  0
 26 27  2  0
 27 28  1  0
 28 29  2  0
  5 30  1  0
  5 31  1  0
 31 32  2  0
 32 33  1  0
 33 34  2  0
 34 35  1  0
 34 36  1  0
 36 37  1  0
 36 38  2  0
 30  4  1  0
 38 31  1  0
 13  8  1  0
 22 14  1  0
 29 24  1  0
 21 16  1  0
  1 39  1  0
  1 40  1  0
  1 41  1  0
  6 42  1  0
  6 43  1  0
  7 44  1  0
  7 45  1  0
  9 46  1  0
  9 47  1  0
 10 48  1  0
 10 49  1  0
 11 50  1  0
 12 51  1  0
 12 52  1  0
 13 53  1  0
 13 54  1  0
 17 55  1  0
 18 56  1  0
 19 57  1  0
 20 58  1  0
 23 59  1  0
 23 60  1  0
 25 61  1  0
 26 62  1  0
 27 63  1  0
 28 64  1  0
 29 65  1  0
 30 66  1  0
 30 67  1  0
 32 68  1  0
 33 69  1  0
 38 70  1  0
M  END
$$$$
[H]Oc1c([H])c(C([H])([H])[H])c2c(oc(=O)c3c(O[H])c([H])c(OC([H])([H])[H])c([H])c32)c1[H]
     RDKit          3D

 32 34  0  0  0  0  0  0  0  0999 V2000
    3.6241    1.6630   -0.7343 C   0  0  0  0  0  0  0  0  0  0  0  0
    3.4459    0.4521   -1.4358 O   0  0  0  0  0  0  0  0  0  0  0  0
    2.2544   -0.2832   -1.3068 C   0  0  0  0  0  0  0  0  0  0  0  0
    2.1294   -1.4347   -1.9966 C   0  0  0  0  0  0  0  0  0  0  0  0
    0.9428   -2.2017   -1.8913 C   0  0  0  0  0  0  0  0  0  0  0  0
    0.8906   -3.3449   -2.6133 O   0  0  0  0  0  0  0  0  0  0  0  0
   -0.0704   -1.7479   -1.0752 C   0  0  0  0  0  0  0  0  0  0  0  0
    0.0924   -0.5535   -0.3757 C   0  0  0  0  0  0  0  0  0  0  0  0
    1.2260    0.1889   -0.4711 C   0  0  0  0  0  0  0  0  0  0  0  0
   -0.9605   -0.1208    0.4387 C   0  0  0  0  0  0  0  0  0  0  0  0
   -0.8599    1.0411    1.1523 C   0  0  0  0  0  0  0  0  0  0  0  0
    0.2814    1.9227    1.1923 C   0  0  0  0  0  0  0  0  0  0  0  0
   -1.9961    1.3831    1.9456 C   0  0  0  0  0  0  0  0  0  0  0  0
   -3.1163    0.6093    1.9992 C   0  0  0  0  0  0  0  0  0  0  0  0
   -4.1647    1.0084    2.7859 O   0  0  0  0  0  0  0  0  0  0  0  0
   -3.1914   -0.5397    1.2831 C   0  0  0  0  0  0  0  0  0  0  0  0
   -2.1174   -0.9107    0.5010 C   0  0  0  0  0  0  0  0  0  0  0  0
   -2.2033   -2.0186   -0.1815 O   0  0  0  0  0  0  0  0  0  0  0  0
   -1.2490   -2.4613   -0.9502 C   0  0  0  0  0  0  0  0  0  0  0  0
   -1.3940   -3.5413   -1.5839 O   0  0  0  0  0  0  0  0  0  0  0  0
    4.6541    2.0313   -0.8333 H   0  0  0  0  0  0  0  0  0  0  0  0
    2.9371    2.4633   -1.1041 H   0  0  0  0  0  0  0  0  0  0  0  0
    3.4320    1.4726    0.3590 H   0  0  0  0  0  0  0  0  0  0  0  0
    2.9117   -1.8146   -2.6452 H   0  0  0  0  0  0  0  0  0  0  0  0
    0.3096   -4.0551   -2.7805 H   0  0  0  0  0  0  0  0  0  0  0  0
    1.4710    1.0750   -0.0327 H   0  0  0  0  0  0  0  0  0  0  0  0
   -0.0076    2.7339    1.9769 H   0  0  0  0  0  0  0  0  0  0  0  0
    1.1781    1.6057    1.7800 H   0  0  0  0  0  0  0  0  0  0  0  0
    0.4221    2.6520    0.3692 H   0  0  0  0  0  0  0  0  0  0  0  0
   -1.9061    2.3089    2.5050 H   0  0  0  0  0  0  0  0  0  0  0  0
   -4.9063    1.6002    2.4269 H   0  0  0  0  0  0  0  0  0  0  0  0
   -4.0597   -1.1837    1.2962 H   0  0  0  0  0  0  0  0  0  0  0  0
  1  2  1  0
  2  3  1  0
  3  4  2  0
  4  5  1  0
  5  6  1  0
  5  7  2  0
  7  8  1  0
  8  9  2  0
  8 10  1  0
 10 11  2  0
 11 12  1  0
 11 13  1  0
 13 14  2  0
 14 15  1  0
 14 16  1  0
 16 17  2  0
 17 18  1  0
 18 19  1  0
 19 20  2  0
  9  3  1  0
 17 10  1  0
 19  7  1  0
  1 21  1  0
  1 22  1  0
  1 23  1  0
  4 24  1  0
  6 25  1  0
  9 26  1  0
 12 27  1  0
 12 28  1  0
 12 29  1  0
 13 30  1  0
 15 31  1  0
 16 32  1  0
M  END
$$$$
[H]c1nc(N([H])C(=O)C2([H])C([H])([H])C([H])([H])OC([H])([H])C2([H])[H])c([H])c([H])c1-c1nc(N(C([H])([H])C([H])([H])OC([H])([H])[H])C([H])([H])C([H])([H])OC([H])([H])[H])nc(N2C([H])([H])C([H])([H])OC([H])([H])[C@@]2([H])C([H])([H])[H])c1[H]
     RDKit          3D

 75 78  0  0  0  0  0  0  0  0999 V2000
   -4.1006    0.6708    4.8544 C   0  0  0  0  0  0  0  0  0  0  0  0
   -4.3397    1.9230    4.3514 O   0  0  0  0  0  0  0  0  0  0  0  0
   -4.1750    2.0699    2.9905 C   0  0  0  0  0  0  0  0  0  0  0  0
   -2.7684    1.7570    2.6173 C   0  0  0  0  0  0  0  0  0  0  0  0
   -2.4927    1.8859    1.2190 N   0  0  0  0  0  0  0  0  0  0  0  0
   -2.4971    3.1590    0.5584 C   0  0  0  0  0  0  0  0  0  0  0  0
   -2.1756    3.0558   -0.9061 C   0  0  0  0  0  0  0  0  0  0  0  0
   -2.1850    4.2984   -1.4876 O   0  0  0  0  0  0  0  0  0  0  0  0
   -3.3487    4.9995   -1.4586 C   0  0  0  0  0  0  0  0  0  0  0  0
   -2.2062    0.7232    0.4701 C   0  0  0  0  0  0  0  0  0  0  0  0
   -3.1348   -0.0198   -0.1283 N   0  0  0  0  0  0  0  0  0  0  0  0
   -2.8020   -1.1289   -0.8335 C   0  0  0  0  0  0  0  0  0  0  0  0
   -1.4426   -1.4557   -0.9040 C   0  0  0  0  0  0  0  0  0  0  0  0
   -0.4882   -0.6782   -0.2795 C   0  0  0  0  0  0  0  0  0  0  0  0
   -0.9079    0.3861    0.3864 N   0  0  0  0  0  0  0  0  0  0  0  0
    0.9487   -0.9722   -0.3143 C   0  0  0  0  0  0  0  0  0  0  0  0
    1.5126   -2.0269   -0.9705 C   0  0  0  0  0  0  0  0  0  0  0  0
    2.8141   -2.2448   -0.9618 N   0  0  0  0  0  0  0  0  0  0  0  0
    3.7269   -1.4387   -0.2970 C   0  0  0  0  0  0  0  0  0  0  0  0
    5.0798   -1.8002   -0.3453 N   0  0  0  0  0  0  0  0  0  0  0  0
    6.2241   -1.2172    0.1093 C   0  0  0  0  0  0  0  0  0  0  0  0
    7.3062   -1.9751   -0.1023 O   0  0  0  0  0  0  0  0  0  0  0  0
    6.4482    0.0576    0.7605 C   0  0  0  0  0  0  0  0  0  0  0  0
    6.3301    1.2766   -0.1075 C   0  0  0  0  0  0  0  0  0  0  0  0
    7.6571    1.7182   -0.6941 C   0  0  0  0  0  0  0  0  0  0  0  0
    8.4183    0.5449   -0.9241 O   0  0  0  0  0  0  0  0  0  0  0  0
    8.8850    0.1265    0.3114 C   0  0  0  0  0  0  0  0  0  0  0  0
    7.8539    0.0423    1.3824 C   0  0  0  0  0  0  0  0  0  0  0  0
    3.1561   -0.3874    0.3564 C   0  0  0  0  0  0  0  0  0  0  0  0
    1.7889   -0.1302    0.3666 C   0  0  0  0  0  0  0  0  0  0  0  0
   -3.7767   -1.9094   -1.4880 N   0  0  0  0  0  0  0  0  0  0  0  0
   -4.5614   -1.2872   -2.5509 C   0  0  0  0  0  0  0  0  0  0  0  0
   -5.0347   -2.3404   -3.5388 C   0  0  0  0  0  0  0  0  0  0  0  0
   -5.5080   -3.4846   -2.9093 O   0  0  0  0  0  0  0  0  0  0  0  0
   -4.4079   -4.1233   -2.3180 C   0  0  0  0  0  0  0  0  0  0  0  0
   -4.0288   -3.2663   -1.1183 C   0  0  1  0  0  0  0  0  0  0  0  0
   -2.9319   -3.9674   -0.3868 C   0  0  0  0  0  0  0  0  0  0  0  0
   -4.3053    0.7484    5.9675 H   0  0  0  0  0  0  0  0  0  0  0  0
   -4.7964   -0.1091    4.4897 H   0  0  0  0  0  0  0  0  0  0  0  0
   -3.0325    0.3437    4.8210 H   0  0  0  0  0  0  0  0  0  0  0  0
   -4.9273    1.4607    2.4436 H   0  0  0  0  0  0  0  0  0  0  0  0
   -4.3372    3.1688    2.7866 H   0  0  0  0  0  0  0  0  0  0  0  0
   -2.1252    2.5150    3.1579 H   0  0  0  0  0  0  0  0  0  0  0  0
   -2.3911    0.7813    2.9944 H   0  0  0  0  0  0  0  0  0  0  0  0
   -3.4665    3.6880    0.6747 H   0  0  0  0  0  0  0  0  0  0  0  0
   -1.6590    3.7531    1.0198 H   0  0  0  0  0  0  0  0  0  0  0  0
   -1.1409    2.6479   -1.0696 H   0  0  0  0  0  0  0  0  0  0  0  0
   -2.9386    2.3708   -1.3421 H   0  0  0  0  0  0  0  0  0  0  0  0
   -3.1328    5.9719   -2.0161 H   0  0  0  0  0  0  0  0  0  0  0  0
   -4.1653    4.4531   -1.9693 H   0  0  0  0  0  0  0  0  0  0  0  0
   -3.7332    5.2650   -0.4370 H   0  0  0  0  0  0  0  0  0  0  0  0
   -1.1312   -2.3122   -1.4516 H   0  0  0  0  0  0  0  0  0  0  0  0
    0.8108   -2.6794   -1.5067 H   0  0  0  0  0  0  0  0  0  0  0  0
    5.1987   -2.8003   -0.8284 H   0  0  0  0  0  0  0  0  0  0  0  0
    5.7825    0.2176    1.6589 H   0  0  0  0  0  0  0  0  0  0  0  0
    5.9567    2.1105    0.4983 H   0  0  0  0  0  0  0  0  0  0  0  0
    5.5767    1.1155   -0.9215 H   0  0  0  0  0  0  0  0  0  0  0  0
    8.2191    2.3366    0.0086 H   0  0  0  0  0  0  0  0  0  0  0  0
    7.4788    2.2423   -1.6362 H   0  0  0  0  0  0  0  0  0  0  0  0
    9.4287   -0.8454    0.2291 H   0  0  0  0  0  0  0  0  0  0  0  0
    9.6428    0.9057    0.6523 H   0  0  0  0  0  0  0  0  0  0  0  0
    7.9324    0.8779    2.1058 H   0  0  0  0  0  0  0  0  0  0  0  0
    7.9778   -0.9428    1.9209 H   0  0  0  0  0  0  0  0  0  0  0  0
    3.7559    0.2898    0.9124 H   0  0  0  0  0  0  0  0  0  0  0  0
    1.3885    0.7285    0.9072 H   0  0  0  0  0  0  0  0  0  0  0  0
   -3.9756   -0.5430   -3.1305 H   0  0  0  0  0  0  0  0  0  0  0  0
   -5.4503   -0.7684   -2.1343 H   0  0  0  0  0  0  0  0  0  0  0  0
   -5.7598   -1.8906   -4.2446 H   0  0  0  0  0  0  0  0  0  0  0  0
   -4.1671   -2.6823   -4.1776 H   0  0  0  0  0  0  0  0  0  0  0  0
   -4.7257   -5.1236   -1.9805 H   0  0  0  0  0  0  0  0  0  0  0  0
   -3.5743   -4.1558   -3.0508 H   0  0  0  0  0  0  0  0  0  0  0  0
   -4.9551   -3.2513   -0.4836 H   0  0  0  0  0  0  0  0  0  0  0  0
   -3.3997   -4.9054    0.0607 H   0  0  0  0  0  0  0  0  0  0  0  0
   -2.5073   -3.4310    0.4616 H   0  0  0  0  0  0  0  0  0  0  0  0
   -2.1881   -4.3918   -1.1002 H   0  0  0  0  0  0  0  0  0  0  0  0
  1  2  1  0
  2  3  1  0
  3  4  1  0
  4  5  1  0
  5  6  1  0
  6  7  1  0
  7  8  1  0
  8  9  1  0
  5 10  1  0
 10 11  2  0
 11 12  1  0
 12 13  2  0
 13 14  1  0
 14 15  2  0
 14 16  1  0
 16 17  2  0
 17 18  1  0
 18 19  2  0
 19 20  1  0
 20 21  1  0
 21 22  2  0
 21 23  1  0
 23 24  1  0
 24 25  1  0
 25 26  1  0
 26 27  1  0
 27 28  1  0
 19 29  1  0
 29 30  2  0
 12 31  1  0
 31 32  1  0
 32 33  1  0
 33 34  1  0
 34 35  1  0
 35 36  1  0
 36 37  1  0
 15 10  1  0
 30 16  1  0
 36 31  1  0
 28 23  1  0
  1 38  1  0
  1 39  1  0
  1 40  1  0
  3 41  1  0
  3 42  1  0
  4 43  1  0
  4 44  1  0
  6 45  1  0
  6 46  1  0
  7 47  1  0
  7 48  1  0
  9 49  1  0
  9 50  1  0
  9 51  1  0
 13 52  1  0
 17 53  1  0
 20 54  1  0
 23 55  1  0
 24 56  1  0
 24 57  1  0
 25 58  1  0
 25 59  1  0
 27 60  1  0
 27 61  1  0
 28 62  1  0
 28 63  1  0
 29 64  1  0
 30 65  1  0
 32 66  1  0
 32 67  1  0
 33 68  1  0
 33 69  1  0
 35 70  1  0
 35 71  1  0
 36 72  1  1
 37 73  1  0
 37 74  1  0
 37 75  1  0
M  END
$$$$
