[H]OC(=O)c1c([H])c([H])c(C([H])([H])OC([H])([H])C2(c3c([H])c([H])c(C#N)c([H])c3[H])C([H])([H])C([H])(O[H])C2([H])[H])c([H])c1C([H])([H])[H]
     RDKit          3D

 47 49  0  0  0  0  0  0  0  0999 V2000
    5.2466    0.5734    0.7253 C   0  0  0  0  0  0  0  0  0  0  0  0
    4.0695    0.0414   -0.0487 C   0  0  0  0  0  0  0  0  0  0  0  0
    3.1459    0.9398   -0.5755 C   0  0  0  0  0  0  0  0  0  0  0  0
    2.0427    0.5195   -1.3012 C   0  0  0  0  0  0  0  0  0  0  0  0
    1.0743    1.4921   -1.8547 C   0  0  0  0  0  0  0  0  0  0  0  0
   -0.0123    1.7672   -1.0831 O   0  0  0  0  0  0  0  0  0  0  0  0
   -0.7952    0.6796   -0.8257 C   0  0  0  0  0  0  0  0  0  0  0  0
   -2.0314    0.9905    0.0069 C   0  0  0  0  0  0  0  0  0  0  0  0
   -2.9567    2.0001   -0.6457 C   0  0  0  0  0  0  0  0  0  0  0  0
   -2.3335    3.0589    0.2599 C   0  0  0  0  0  0  0  0  0  0  0  0
   -3.2595    3.8345    0.9372 O   0  0  0  0  0  0  0  0  0  0  0  0
   -1.8414    1.9241    1.1505 C   0  0  0  0  0  0  0  0  0  0  0  0
   -2.7278   -0.2867    0.2772 C   0  0  0  0  0  0  0  0  0  0  0  0
   -2.9063   -0.7814    1.5386 C   0  0  0  0  0  0  0  0  0  0  0  0
   -3.5644   -1.9994    1.7201 C   0  0  0  0  0  0  0  0  0  0  0  0
   -4.0515   -2.7365    0.6514 C   0  0  0  0  0  0  0  0  0  0  0  0
   -3.8566   -2.2107   -0.6149 C   0  0  0  0  0  0  0  0  0  0  0  0
   -3.2063   -1.0090   -0.7881 C   0  0  0  0  0  0  0  0  0  0  0  0
   -4.7291   -3.9978    0.8450 C   0  0  0  0  0  0  0  0  0  0  0  0
   -5.2606   -5.0300    1.0118 N   0  0  0  0  0  0  0  0  0  0  0  0
    1.9269   -0.8447   -1.4623 C   0  0  0  0  0  0  0  0  0  0  0  0
    2.8293   -1.7376   -0.9482 C   0  0  0  0  0  0  0  0  0  0  0  0
    3.9503   -1.3154   -0.2107 C   0  0  0  0  0  0  0  0  0  0  0  0
    4.8724   -2.3091    0.3107 C   0  0  0  0  0  0  0  0  0  0  0  0
    6.0027   -1.9718    1.0289 O   0  0  0  0  0  0  0  0  0  0  0  0
    4.6604   -3.5166    0.1180 O   0  0  0  0  0  0  0  0  0  0  0  0
    6.2029    0.3096    0.2677 H   0  0  0  0  0  0  0  0  0  0  0  0
    5.2070    0.1950    1.7623 H   0  0  0  0  0  0  0  0  0  0  0  0
    5.2110    1.6953    0.7206 H   0  0  0  0  0  0  0  0  0  0  0  0
    3.2641    2.0126   -0.4330 H   0  0  0  0  0  0  0  0  0  0  0  0
    1.5875    2.4855   -2.0401 H   0  0  0  0  0  0  0  0  0  0  0  0
    0.7856    1.1128   -2.8731 H   0  0  0  0  0  0  0  0  0  0  0  0
   -1.0961    0.1517   -1.7449 H   0  0  0  0  0  0  0  0  0  0  0  0
   -0.2145   -0.0430   -0.2005 H   0  0  0  0  0  0  0  0  0  0  0  0
   -2.7294    2.1741   -1.7268 H   0  0  0  0  0  0  0  0  0  0  0  0
   -4.0210    1.8102   -0.3992 H   0  0  0  0  0  0  0  0  0  0  0  0
   -1.4877    3.5981   -0.1696 H   0  0  0  0  0  0  0  0  0  0  0  0
   -2.7750    4.6681    1.2037 H   0  0  0  0  0  0  0  0  0  0  0  0
   -2.5506    1.7391    2.0049 H   0  0  0  0  0  0  0  0  0  0  0  0
   -0.7867    2.0903    1.4891 H   0  0  0  0  0  0  0  0  0  0  0  0
   -2.5437   -0.2459    2.4305 H   0  0  0  0  0  0  0  0  0  0  0  0
   -3.7189   -2.4116    2.7022 H   0  0  0  0  0  0  0  0  0  0  0  0
   -4.2391   -2.7893   -1.4643 H   0  0  0  0  0  0  0  0  0  0  0  0
   -3.0902   -0.6627   -1.8088 H   0  0  0  0  0  0  0  0  0  0  0  0
    1.0550   -1.1950   -2.0374 H   0  0  0  0  0  0  0  0  0  0  0  0
    2.7246   -2.8131   -1.0818 H   0  0  0  0  0  0  0  0  0  0  0  0
    6.9270   -1.9559    0.5893 H   0  0  0  0  0  0  0  0  0  0  0  0
  1  2  1  0
  2  3  2  0
  3  4  1  0
  4  5  1  0
  5  6  1  0
  6  7  1  0
  7  8  1  0
  8  9  1  0
  9 10  1  0
 10 11  1  0
 10 12  1  0
  8 13  1  0
 13 14  2  0
 14 15  1  0
 15 16  2  0
 16 17  1  0
 17 18  2  0
 16 19  1  0
 19 20  3  0
  4 21  2  0
 21 22  1  0
 22 23  2  0
 23 24  1  0
 24 25  1  0
 24 26  2  0
 23  2  1  0
 12  8  1  0
 18 13  1  0
  1 27  1  0
  1 28  1  0
  1 29  1  0
  3 30  1  0
  5 31  1  0
  5 32  1  0
  7 33  1  0
  7 34  1  0
  9 35  1  0
  9 36  1  0
 10 37  1  0
 11 38  1  0
 12 39  1  0
 12 40  1  0
 14 41  1  0
 15 42  1  0
 17 43  1  0
 18 44  1  0
 21 45  1  0
 22 46  1  0
 25 47  1  0
M  END
$$$$
[H]OC(=O)C(O[C@@]1([H])OC([H])([H])c2c([H])c([H])c(OC([H])([H])[H])c([H])c2OC1(C([H])([H])[H])C([H])([H])[H])(C([H])([H])[H])C([H])([H])[H]
     RDKit          3D

 44 45  0  0  0  0  0  0  0  0999 V2000
    6.7858   -0.1734    0.5880 C   0  0  0  0  0  0  0  0  0  0  0  0
    5.6688    0.2966   -0.1180 O   0  0  0  0  0  0  0  0  0  0  0  0
    4.3779   -0.1253    0.1193 C   0  0  0  0  0  0  0  0  0  0  0  0
    4.0944   -1.0591    1.0893 C   0  0  0  0  0  0  0  0  0  0  0  0
    2.7855   -1.4984    1.3423 C   0  0  0  0  0  0  0  0  0  0  0  0
    1.8144   -0.9514    0.5776 C   0  0  0  0  0  0  0  0  0  0  0  0
    0.4770   -1.4995    0.9314 C   0  0  0  0  0  0  0  0  0  0  0  0
   -0.3663   -1.4442   -0.2074 O   0  0  0  0  0  0  0  0  0  0  0  0
   -1.0814   -0.2412   -0.2768 C   0  0  2  0  0  0  0  0  0  0  0  0
   -2.2338   -0.3402   -0.9677 O   0  0  0  0  0  0  0  0  0  0  0  0
   -3.4467   -0.2628   -0.4367 C   0  0  0  0  0  0  0  0  0  0  0  0
   -3.6472    1.0662    0.2628 C   0  0  0  0  0  0  0  0  0  0  0  0
   -4.4686   -0.2087   -1.6073 C   0  0  0  0  0  0  0  0  0  0  0  0
   -3.8496   -1.2887    0.5184 C   0  0  0  0  0  0  0  0  0  0  0  0
   -5.0967   -1.2361    1.0996 O   0  0  0  0  0  0  0  0  0  0  0  0
   -3.0779   -2.2158    0.8171 O   0  0  0  0  0  0  0  0  0  0  0  0
    2.0427   -0.0180   -0.4011 C   0  0  0  0  0  0  0  0  0  0  0  0
    1.0585    0.5521   -1.1924 O   0  0  0  0  0  0  0  0  0  0  0  0
   -0.2788    0.8907   -0.8514 C   0  0  0  0  0  0  0  0  0  0  0  0
   -0.3159    2.0527    0.1043 C   0  0  0  0  0  0  0  0  0  0  0  0
   -0.9282    1.3472   -2.1638 C   0  0  0  0  0  0  0  0  0  0  0  0
    3.3228    0.3851   -0.6199 C   0  0  0  0  0  0  0  0  0  0  0  0
    7.0985   -1.1718    0.1802 H   0  0  0  0  0  0  0  0  0  0  0  0
    6.5171   -0.2726    1.6796 H   0  0  0  0  0  0  0  0  0  0  0  0
    7.6475    0.5191    0.5293 H   0  0  0  0  0  0  0  0  0  0  0  0
    4.8836   -1.4918    1.6978 H   0  0  0  0  0  0  0  0  0  0  0  0
    2.6222   -2.2381    2.1213 H   0  0  0  0  0  0  0  0  0  0  0  0
    0.0879   -0.9007    1.7631 H   0  0  0  0  0  0  0  0  0  0  0  0
    0.5743   -2.5634    1.1973 H   0  0  0  0  0  0  0  0  0  0  0  0
   -1.3263   -0.0077    0.7819 H   0  0  0  0  0  0  0  0  0  0  0  0
   -3.0394    1.0298    1.2009 H   0  0  0  0  0  0  0  0  0  0  0  0
   -3.4022    1.9416   -0.3391 H   0  0  0  0  0  0  0  0  0  0  0  0
   -4.7082    1.1285    0.6523 H   0  0  0  0  0  0  0  0  0  0  0  0
   -5.4837   -0.0241   -1.1861 H   0  0  0  0  0  0  0  0  0  0  0  0
   -4.2106    0.6972   -2.1863 H   0  0  0  0  0  0  0  0  0  0  0  0
   -4.3962   -1.0992   -2.2303 H   0  0  0  0  0  0  0  0  0  0  0  0
   -5.6785   -2.0841    1.0171 H   0  0  0  0  0  0  0  0  0  0  0  0
   -0.6574    1.6890    1.0862 H   0  0  0  0  0  0  0  0  0  0  0  0
   -1.0666    2.7778   -0.2564 H   0  0  0  0  0  0  0  0  0  0  0  0
    0.6601    2.5821    0.1631 H   0  0  0  0  0  0  0  0  0  0  0  0
   -1.4340    0.4908   -2.6293 H   0  0  0  0  0  0  0  0  0  0  0  0
   -0.1528    1.7132   -2.8696 H   0  0  0  0  0  0  0  0  0  0  0  0
   -1.6729    2.1342   -1.9804 H   0  0  0  0  0  0  0  0  0  0  0  0
    3.5009    1.1223   -1.3935 H   0  0  0  0  0  0  0  0  0  0  0  0
  1  2  1  0
  2  3  1  0
  3  4  2  0
  4  5  1  0
  5  6  2  0
  6  7  1  0
  7  8  1  0
  8  9  1  0
  9 10  1  0
 10 11  1  0
 11 12  1  0
 11 13  1  0
 11 14  1  0
 14 15  1  0
 14 16  2  0
  6 17  1  0
 17 18  1  0
 18 19  1  0
 19 20  1  0
 19 21  1  0
 17 22  2  0
 22  3  1  0
 19  9  1  0
  1 23  1  0
  1 24  1  0
  1 25  1  0
  4 26  1  0
  5 27  1  0
  7 28  1  0
  7 29  1  0
  9 30  1  1
 12 31  1  0
 12 32  1  0
 12 33  1  0
 13 34  1  0
 13 35  1  0
 13 36  1  0
 15 37  1  0
 20 38  1  0
 20 39  1  0
 20 40  1  0
 21 41  1  0
 21 42  1  0
 21 43  1  0
 22 44  1  0
M  END
$$$$
[H]OC(=O)c1c([H])c([H])c([H])c(C([H])([H])c2c([H])c([H])c(SC([H])([H])[H])c([H])c2[H])c1C([H])([H])[H]
     RDKit          3D

 35 36  0  0  0  0  0  0  0  0999 V2000
    5.2066   -2.7142   -0.4727 C   0  0  0  0  0  0  0  0  0  0  0  0
    4.8619   -1.1374   -1.2960 S   0  0  0  0  0  0  0  0  0  0  0  0
    3.4311   -0.4170   -0.5240 C   0  0  0  0  0  0  0  0  0  0  0  0
    2.9292    0.7984   -0.9929 C   0  0  0  0  0  0  0  0  0  0  0  0
    1.8296    1.3778   -0.4178 C   0  0  0  0  0  0  0  0  0  0  0  0
    1.1484    0.7915    0.6658 C   0  0  0  0  0  0  0  0  0  0  0  0
   -0.0333    1.4912    1.2373 C   0  0  0  0  0  0  0  0  0  0  0  0
   -1.2501    1.3265    0.4246 C   0  0  0  0  0  0  0  0  0  0  0  0
   -1.4981    2.3032   -0.5489 C   0  0  0  0  0  0  0  0  0  0  0  0
   -2.5603    2.2112   -1.4141 C   0  0  0  0  0  0  0  0  0  0  0  0
   -3.3886    1.1287   -1.3089 C   0  0  0  0  0  0  0  0  0  0  0  0
   -3.1554    0.1372   -0.3352 C   0  0  0  0  0  0  0  0  0  0  0  0
   -2.0800    0.2580    0.5228 C   0  0  0  0  0  0  0  0  0  0  0  0
   -1.9224   -0.7704    1.5615 C   0  0  0  0  0  0  0  0  0  0  0  0
   -4.0959   -0.9798   -0.3351 C   0  0  0  0  0  0  0  0  0  0  0  0
   -5.1688   -1.0118   -1.2479 O   0  0  0  0  0  0  0  0  0  0  0  0
   -3.9893   -1.9266    0.4535 O   0  0  0  0  0  0  0  0  0  0  0  0
    1.6504   -0.3890    1.1088 C   0  0  0  0  0  0  0  0  0  0  0  0
    2.7736   -0.9969    0.5330 C   0  0  0  0  0  0  0  0  0  0  0  0
    4.9556   -2.6773    0.5971 H   0  0  0  0  0  0  0  0  0  0  0  0
    4.5644   -3.4664   -1.0241 H   0  0  0  0  0  0  0  0  0  0  0  0
    6.2764   -2.9777   -0.6417 H   0  0  0  0  0  0  0  0  0  0  0  0
    3.4214    1.2981   -1.8375 H   0  0  0  0  0  0  0  0  0  0  0  0
    1.4177    2.3343   -0.7714 H   0  0  0  0  0  0  0  0  0  0  0  0
    0.2351    2.5738    1.2313 H   0  0  0  0  0  0  0  0  0  0  0  0
   -0.1734    1.2398    2.3070 H   0  0  0  0  0  0  0  0  0  0  0  0
   -0.8429    3.1689   -0.6399 H   0  0  0  0  0  0  0  0  0  0  0  0
   -2.7342    2.9930   -2.1727 H   0  0  0  0  0  0  0  0  0  0  0  0
   -4.2446    1.0330   -1.9929 H   0  0  0  0  0  0  0  0  0  0  0  0
   -2.8796   -0.7884    2.1590 H   0  0  0  0  0  0  0  0  0  0  0  0
   -1.1606   -0.5412    2.3243 H   0  0  0  0  0  0  0  0  0  0  0  0
   -1.6819   -1.7329    1.1039 H   0  0  0  0  0  0  0  0  0  0  0  0
   -6.1138   -1.1153   -0.8546 H   0  0  0  0  0  0  0  0  0  0  0  0
    1.1621   -0.8805    1.9517 H   0  0  0  0  0  0  0  0  0  0  0  0
    3.1099   -1.9419    0.9456 H   0  0  0  0  0  0  0  0  0  0  0  0
  1  2  1  0
  2  3  1  0
  3  4  2  0
  4  5  1  0
  5  6  2  0
  6  7  1  0
  7  8  1  0
  8  9  2  0
  9 10  1  0
 10 11  2  0
 11 12  1  0
 12 13  2  0
 13 14  1  0
 12 15  1  0
 15 16  1  0
 15 17  2  0
  6 18  1  0
 18 19  2  0
 19  3  1  0
 13  8  1  0
  1 20  1  0
  1 21  1  0
  1 22  1  0
  4 23  1  0
  5 24  1  0
  7 25  1  0
  7 26  1  0
  9 27  1  0
 10 28  1  0
 11 29  1  0
 14 30  1  0
 14 31  1  0
 14 32  1  0
 16 33  1  0
 18 34  1  0
 19 35  1  0
M  END
$$$$
[H]OC(=O)C(=NN([H])S(=O)(=O)c1c([H])c([H])c(OC([H])([H])[H])c(OC([H])([H])[H])c1[H])/C([H])=C(\[H])c1c([H])c([H])c(F)c([H])c1[H]
     RDKit          3D

 45 46  0  0  0  0  0  0  0  0999 V2000
   -4.9980   -2.6634    1.6960 C   0  0  0  0  0  0  0  0  0  0  0  0
   -5.2111   -1.3416    1.2517 O   0  0  0  0  0  0  0  0  0  0  0  0
   -4.2606   -0.7848    0.4084 C   0  0  0  0  0  0  0  0  0  0  0  0
   -3.1349   -1.4623   -0.0050 C   0  0  0  0  0  0  0  0  0  0  0  0
   -2.1973   -0.9080   -0.8390 C   0  0  0  0  0  0  0  0  0  0  0  0
   -2.3449    0.3694   -1.3051 C   0  0  0  0  0  0  0  0  0  0  0  0
   -3.4702    1.0677   -0.9012 C   0  0  0  0  0  0  0  0  0  0  0  0
   -4.4179    0.5140   -0.0610 C   0  0  0  0  0  0  0  0  0  0  0  0
   -5.5499    1.2297    0.3397 O   0  0  0  0  0  0  0  0  0  0  0  0
   -5.7058    2.5490   -0.1396 C   0  0  0  0  0  0  0  0  0  0  0  0
   -1.1858    1.1293   -2.3690 S   0  0  0  0  0  0  0  0  0  0  0  0
   -0.5218    0.0996   -3.2523 O   0  0  0  0  0  0  0  0  0  0  0  0
   -1.9310    2.0815   -3.2753 O   0  0  0  0  0  0  0  0  0  0  0  0
    0.0243    1.9532   -1.4812 N   0  0  0  0  0  0  0  0  0  0  0  0
    1.1934    1.3256   -1.0793 N   0  0  0  0  0  0  0  0  0  0  0  0
    1.5481    1.1928    0.1349 C   0  0  0  0  0  0  0  0  0  0  0  0
    2.7975    0.5163    0.4540 C   0  0  0  0  0  0  0  0  0  0  0  0
    3.5971    0.0231   -0.4807 C   0  0  0  0  0  0  0  0  0  0  0  0
    4.8526   -0.6596   -0.2151 C   0  0  0  0  0  0  0  0  0  0  0  0
    5.3684   -0.8800    1.0307 C   0  0  0  0  0  0  0  0  0  0  0  0
    6.5767   -1.5397    1.2372 C   0  0  0  0  0  0  0  0  0  0  0  0
    7.2963   -1.9962    0.1523 C   0  0  0  0  0  0  0  0  0  0  0  0
    8.4828   -2.6450    0.3354 F   0  0  0  0  0  0  0  0  0  0  0  0
    6.7895   -1.7818   -1.1131 C   0  0  0  0  0  0  0  0  0  0  0  0
    5.5886   -1.1244   -1.2850 C   0  0  0  0  0  0  0  0  0  0  0  0
    0.7351    1.7006    1.2085 C   0  0  0  0  0  0  0  0  0  0  0  0
   -0.4661    2.3610    1.0889 O   0  0  0  0  0  0  0  0  0  0  0  0
    1.1419    1.5383    2.4104 O   0  0  0  0  0  0  0  0  0  0  0  0
   -4.0270   -2.7077    2.2084 H   0  0  0  0  0  0  0  0  0  0  0  0
   -5.7780   -3.0314    2.3703 H   0  0  0  0  0  0  0  0  0  0  0  0
   -4.9258   -3.2985    0.7947 H   0  0  0  0  0  0  0  0  0  0  0  0
   -3.0035   -2.4717    0.3541 H   0  0  0  0  0  0  0  0  0  0  0  0
   -1.3170   -1.4700   -1.1482 H   0  0  0  0  0  0  0  0  0  0  0  0
   -3.6074    2.0807   -1.2581 H   0  0  0  0  0  0  0  0  0  0  0  0
   -4.9585    3.1859    0.3631 H   0  0  0  0  0  0  0  0  0  0  0  0
   -6.7441    2.8627    0.1205 H   0  0  0  0  0  0  0  0  0  0  0  0
   -5.5893    2.5722   -1.2456 H   0  0  0  0  0  0  0  0  0  0  0  0
   -0.1425    2.9566   -1.2518 H   0  0  0  0  0  0  0  0  0  0  0  0
    3.1143    0.3946    1.4795 H   0  0  0  0  0  0  0  0  0  0  0  0
    3.2428    0.1661   -1.4965 H   0  0  0  0  0  0  0  0  0  0  0  0
    4.8516   -0.5476    1.8952 H   0  0  0  0  0  0  0  0  0  0  0  0
    6.9868   -1.7153    2.2219 H   0  0  0  0  0  0  0  0  0  0  0  0
    7.3623   -2.1436   -1.9444 H   0  0  0  0  0  0  0  0  0  0  0  0
    5.1914   -0.9575   -2.2981 H   0  0  0  0  0  0  0  0  0  0  0  0
   -1.2528    2.2604    1.6915 H   0  0  0  0  0  0  0  0  0  0  0  0
  1  2  1  0
  2  3  1  0
  3  4  2  0
  4  5  1  0
  5  6  2  0
  6  7  1  0
  7  8  2  0
  8  9  1  0
  9 10  1  0
  6 11  1  0
 11 12  2  0
 11 13  2  0
 11 14  1  0
 14 15  1  0
 15 16  2  0
 16 17  1  0
 17 18  2  0
 18 19  1  0
 19 20  2  0
 20 21  1  0
 21 22  2  0
 22 23  1  0
 22 24  1  0
 24 25  2  0
 16 26  1  0
 26 27  1  0
 26 28  2  0
  8  3  1  0
 25 19  1  0
  1 29  1  0
  1 30  1  0
  1 31  1  0
  4 32  1  0
  5 33  1  0
  7 34  1  0
 10 35  1  0
 10 36  1  0
 10 37  1  0
 14 38  1  0
 17 39  1  0
 18 40  1  0
 20 41  1  0
 21 42  1  0
 24 43  1  0
 25 44  1  0
 27 45  1  0
M  END
$$$$
[H]OC(=O)c1c([H])c([H])c([H])c(Oc2c([H])c(C([H])([H])N([H])C(=O)c3c([H])c(C(=O)O[H])c([H])c([H])c3C([H])([H])[H])c([H])c([H])c2F)c1[H]
     RDKit          3D

 49 51  0  0  0  0  0  0  0  0999 V2000
    3.4647   -2.6821    0.9478 C   0  0  0  0  0  0  0  0  0  0  0  0
    4.4428   -1.6382    0.5223 C   0  0  0  0  0  0  0  0  0  0  0  0
    5.7741   -1.7769    0.9329 C   0  0  0  0  0  0  0  0  0  0  0  0
    6.7261   -0.8436    0.6204 C   0  0  0  0  0  0  0  0  0  0  0  0
    6.3882    0.2686   -0.1170 C   0  0  0  0  0  0  0  0  0  0  0  0
    5.0800    0.4003   -0.5191 C   0  0  0  0  0  0  0  0  0  0  0  0
    4.0856   -0.5401   -0.2132 C   0  0  0  0  0  0  0  0  0  0  0  0
    2.7715   -0.2805   -0.7479 C   0  0  0  0  0  0  0  0  0  0  0  0
    2.4170    0.9579   -0.9201 O   0  0  0  0  0  0  0  0  0  0  0  0
    1.7898   -1.2051   -1.1259 N   0  0  0  0  0  0  0  0  0  0  0  0
    0.4811   -0.7989   -1.6408 C   0  0  0  0  0  0  0  0  0  0  0  0
   -0.4305   -0.3588   -0.5728 C   0  0  0  0  0  0  0  0  0  0  0  0
   -0.4289   -1.0511    0.6257 C   0  0  0  0  0  0  0  0  0  0  0  0
   -1.2679   -0.6902    1.6594 C   0  0  0  0  0  0  0  0  0  0  0  0
   -2.1230    0.3623    1.5225 C   0  0  0  0  0  0  0  0  0  0  0  0
   -2.9417    0.7329    2.5301 F   0  0  0  0  0  0  0  0  0  0  0  0
   -2.1090    1.0448    0.3083 C   0  0  0  0  0  0  0  0  0  0  0  0
   -2.9829    2.1300    0.1457 O   0  0  0  0  0  0  0  0  0  0  0  0
   -4.3683    1.9135    0.1807 C   0  0  0  0  0  0  0  0  0  0  0  0
   -5.2042    2.9958    0.2400 C   0  0  0  0  0  0  0  0  0  0  0  0
   -6.5915    2.8120    0.2739 C   0  0  0  0  0  0  0  0  0  0  0  0
   -7.1480    1.5548    0.2483 C   0  0  0  0  0  0  0  0  0  0  0  0
   -6.3042    0.4703    0.1881 C   0  0  0  0  0  0  0  0  0  0  0  0
   -4.9361    0.6620    0.1555 C   0  0  0  0  0  0  0  0  0  0  0  0
   -6.8653   -0.8691    0.1519 C   0  0  0  0  0  0  0  0  0  0  0  0
   -8.2311   -1.1110    0.1631 O   0  0  0  0  0  0  0  0  0  0  0  0
   -6.0792   -1.8502    0.1084 O   0  0  0  0  0  0  0  0  0  0  0  0
   -1.2829    0.7086   -0.7380 C   0  0  0  0  0  0  0  0  0  0  0  0
    7.4101    1.2884   -0.4504 C   0  0  0  0  0  0  0  0  0  0  0  0
    7.0564    2.3839   -1.2179 O   0  0  0  0  0  0  0  0  0  0  0  0
    8.5692    1.1380   -0.0329 O   0  0  0  0  0  0  0  0  0  0  0  0
    3.4096   -3.5315    0.2542 H   0  0  0  0  0  0  0  0  0  0  0  0
    2.5001   -2.2372    1.2411 H   0  0  0  0  0  0  0  0  0  0  0  0
    3.8636   -3.1200    1.9158 H   0  0  0  0  0  0  0  0  0  0  0  0
    6.0340   -2.6679    1.5218 H   0  0  0  0  0  0  0  0  0  0  0  0
    7.7457   -0.9722    0.9493 H   0  0  0  0  0  0  0  0  0  0  0  0
    4.8159    1.2885   -1.1080 H   0  0  0  0  0  0  0  0  0  0  0  0
    1.9653   -2.2216   -1.0706 H   0  0  0  0  0  0  0  0  0  0  0  0
    0.5923    0.0249   -2.3950 H   0  0  0  0  0  0  0  0  0  0  0  0
    0.0117   -1.6398   -2.2010 H   0  0  0  0  0  0  0  0  0  0  0  0
    0.2245   -1.8904    0.7702 H   0  0  0  0  0  0  0  0  0  0  0  0
   -1.2158   -1.2811    2.5850 H   0  0  0  0  0  0  0  0  0  0  0  0
   -4.7922    3.9953    0.2612 H   0  0  0  0  0  0  0  0  0  0  0  0
   -7.2526    3.6641    0.3223 H   0  0  0  0  0  0  0  0  0  0  0  0
   -8.2260    1.4415    0.2788 H   0  0  0  0  0  0  0  0  0  0  0  0
   -4.2627   -0.2002    0.1007 H   0  0  0  0  0  0  0  0  0  0  0  0
   -8.6822   -1.3911   -0.7224 H   0  0  0  0  0  0  0  0  0  0  0  0
   -1.3269    1.2925   -1.6577 H   0  0  0  0  0  0  0  0  0  0  0  0
    7.4336    3.3182   -1.1084 H   0  0  0  0  0  0  0  0  0  0  0  0
  1  2  1  0
  2  3  2  0
  3  4  1  0
  4  5  2  0
  5  6  1  0
  6  7  2  0
  7  8  1  0
  8  9  2  0
  8 10  1  0
 10 11  1  0
 11 12  1  0
 12 13  2  0
 13 14  1  0
 14 15  2  0
 15 16  1  0
 15 17  1  0
 17 18  1  0
 18 19  1  0
 19 20  2  0
 20 21  1  0
 21 22  2  0
 22 23  1  0
 23 24  2  0
 23 25  1  0
 25 26  1  0
 25 27  2  0
 17 28  2  0
  5 29  1  0
 29 30  1  0
 29 31  2  0
  7  2  1  0
 28 12  1  0
 24 19  1  0
  1 32  1  0
  1 33  1  0
  1 34  1  0
  3 35  1  0
  4 36  1  0
  6 37  1  0
 10 38  1  0
 11 39  1  0
 11 40  1  0
 13 41  1  0
 14 42  1  0
 20 43  1  0
 21 44  1  0
 22 45  1  0
 24 46  1  0
 26 47  1  0
 28 48  1  0
 30 49  1  0
M  END
$$$$
[H]OC(=O)c1c([H])c([H])c([H])c([H])c1Sc1c([H])c([H])c([C@]2([H])C([H])([H])[C@]2([H])C(=O)N([H])[C@@]([H])(C([H])([H])[H])C([H])([H])c2c([H])c([H])c(-c3c([H])c([H])c([H])c([H])c3[H])c([H])c2[H])c([H])c1[H]
     RDKit          3D

 66 70  0  0  0  0  0  0  0  0999 V2000
    0.7297    0.0731    0.5612 C   0  0  0  0  0  0  0  0  0  0  0  0
    1.2202    1.1987    1.4151 C   0  0  1  0  0  0  0  0  0  0  0  0
    2.2746    1.9792    0.6622 C   0  0  0  0  0  0  0  0  0  0  0  0
    3.4441    1.1526    0.2827 C   0  0  0  0  0  0  0  0  0  0  0  0
    4.5148    1.0201    1.1415 C   0  0  0  0  0  0  0  0  0  0  0  0
    5.6199    0.2577    0.8130 C   0  0  0  0  0  0  0  0  0  0  0  0
    5.7009   -0.4067   -0.3917 C   0  0  0  0  0  0  0  0  0  0  0  0
    4.6228   -0.2706   -1.2510 C   0  0  0  0  0  0  0  0  0  0  0  0
    3.5192    0.4879   -0.9287 C   0  0  0  0  0  0  0  0  0  0  0  0
    6.8442   -1.2226   -0.7799 C   0  0  0  0  0  0  0  0  0  0  0  0
    8.0998   -0.8954   -0.3431 C   0  0  0  0  0  0  0  0  0  0  0  0
    9.1920   -1.6686   -0.7093 C   0  0  0  0  0  0  0  0  0  0  0  0
    9.0152   -2.7781   -1.5205 C   0  0  0  0  0  0  0  0  0  0  0  0
    7.7552   -3.1188   -1.9678 C   0  0  0  0  0  0  0  0  0  0  0  0
    6.7053   -2.3325   -1.5857 C   0  0  0  0  0  0  0  0  0  0  0  0
    0.0845    2.1132    1.6019 N   0  0  0  0  0  0  0  0  0  0  0  0
   -0.3723    2.4697    2.8917 C   0  0  0  0  0  0  0  0  0  0  0  0
    0.2392    1.9705    3.9045 O   0  0  0  0  0  0  0  0  0  0  0  0
   -1.4936    3.3736    3.1586 C   0  0  1  0  0  0  0  0  0  0  0  0
   -1.9601    4.3766    2.1584 C   0  0  0  0  0  0  0  0  0  0  0  0
   -2.8248    3.2370    2.4380 C   0  0  1  0  0  0  0  0  0  0  0  0
   -3.0602    2.1491    1.4723 C   0  0  0  0  0  0  0  0  0  0  0  0
   -3.3462    2.3714    0.1334 C   0  0  0  0  0  0  0  0  0  0  0  0
   -3.5751    1.3416   -0.7465 C   0  0  0  0  0  0  0  0  0  0  0  0
   -3.5291    0.0257   -0.3262 C   0  0  0  0  0  0  0  0  0  0  0  0
   -3.8371   -1.2621   -1.5329 S   0  0  0  0  0  0  0  0  0  0  0  0
   -5.5511   -1.6784   -1.6669 C   0  0  0  0  0  0  0  0  0  0  0  0
   -6.4049   -0.8965   -2.4547 C   0  0  0  0  0  0  0  0  0  0  0  0
   -7.7326   -1.2255   -2.5504 C   0  0  0  0  0  0  0  0  0  0  0  0
   -8.2652   -2.3211   -1.8840 C   0  0  0  0  0  0  0  0  0  0  0  0
   -7.4241   -3.0841   -1.1141 C   0  0  0  0  0  0  0  0  0  0  0  0
   -6.0662   -2.7575   -1.0106 C   0  0  0  0  0  0  0  0  0  0  0  0
   -5.2243   -3.6293   -0.2321 C   0  0  0  0  0  0  0  0  0  0  0  0
   -5.7994   -4.6328    0.5306 O   0  0  0  0  0  0  0  0  0  0  0  0
   -3.9801   -3.5407   -0.1960 O   0  0  0  0  0  0  0  0  0  0  0  0
   -3.2503   -0.2295    0.9866 C   0  0  0  0  0  0  0  0  0  0  0  0
   -3.0248    0.8165    1.8460 C   0  0  0  0  0  0  0  0  0  0  0  0
   -0.1215   -0.4767    1.0154 H   0  0  0  0  0  0  0  0  0  0  0  0
    1.5425   -0.6966    0.4206 H   0  0  0  0  0  0  0  0  0  0  0  0
    0.4496    0.4230   -0.4466 H   0  0  0  0  0  0  0  0  0  0  0  0
    1.5401    0.8724    2.3996 H   0  0  0  0  0  0  0  0  0  0  0  0
    2.6669    2.8347    1.2316 H   0  0  0  0  0  0  0  0  0  0  0  0
    1.7940    2.3814   -0.2528 H   0  0  0  0  0  0  0  0  0  0  0  0
    4.4720    1.5332    2.0943 H   0  0  0  0  0  0  0  0  0  0  0  0
    6.4598    0.1534    1.4844 H   0  0  0  0  0  0  0  0  0  0  0  0
    4.6823   -0.7977   -2.2155 H   0  0  0  0  0  0  0  0  0  0  0  0
    2.6741    0.5935   -1.6025 H   0  0  0  0  0  0  0  0  0  0  0  0
    8.2948   -0.0497    0.2845 H   0  0  0  0  0  0  0  0  0  0  0  0
   10.2043   -1.4450   -0.3844 H   0  0  0  0  0  0  0  0  0  0  0  0
    9.8300   -3.4100   -1.8299 H   0  0  0  0  0  0  0  0  0  0  0  0
    7.5513   -3.9664   -2.6000 H   0  0  0  0  0  0  0  0  0  0  0  0
    5.6920   -2.5884   -1.9325 H   0  0  0  0  0  0  0  0  0  0  0  0
   -0.3447    2.4815    0.7372 H   0  0  0  0  0  0  0  0  0  0  0  0
   -1.6205    3.6504    4.2609 H   0  0  0  0  0  0  0  0  0  0  0  0
   -1.3592    4.3917    1.2131 H   0  0  0  0  0  0  0  0  0  0  0  0
   -2.1795    5.4053    2.5100 H   0  0  0  0  0  0  0  0  0  0  0  0
   -3.7472    3.4426    3.0680 H   0  0  0  0  0  0  0  0  0  0  0  0
   -3.3780    3.4139   -0.1758 H   0  0  0  0  0  0  0  0  0  0  0  0
   -3.7978    1.5754   -1.8030 H   0  0  0  0  0  0  0  0  0  0  0  0
   -5.9796   -0.0403   -2.9723 H   0  0  0  0  0  0  0  0  0  0  0  0
   -8.4217   -0.6418   -3.1514 H   0  0  0  0  0  0  0  0  0  0  0  0
   -9.3330   -2.5368   -1.9948 H   0  0  0  0  0  0  0  0  0  0  0  0
   -7.8450   -3.9360   -0.5971 H   0  0  0  0  0  0  0  0  0  0  0  0
   -6.5792   -4.3643    1.1425 H   0  0  0  0  0  0  0  0  0  0  0  0
   -3.2062   -1.2681    1.3578 H   0  0  0  0  0  0  0  0  0  0  0  0
   -2.8007    0.6020    2.9003 H   0  0  0  0  0  0  0  0  0  0  0  0
  1  2  1  0
  2  3  1  0
  3  4  1  0
  4  5  2  0
  5  6  1  0
  6  7  2  0
  7  8  1  0
  8  9  2  0
  7 10  1  0
 10 11  2  0
 11 12  1  0
 12 13  2  0
 13 14  1  0
 14 15  2  0
  2 16  1  0
 16 17  1  0
 17 18  2  0
 17 19  1  0
 19 20  1  0
 20 21  1  0
 21 22  1  0
 22 23  2  0
 23 24  1  0
 24 25  2  0
 25 26  1  0
 26 27  1  0
 27 28  2  0
 28 29  1  0
 29 30  2  0
 30 31  1  0
 31 32  2  0
 32 33  1  0
 33 34  1  0
 33 35  2  0
 25 36  1  0
 36 37  2  0
  9  4  1  0
 15 10  1  0
 21 19  1  0
 37 22  1  0
 32 27  1  0
  1 38  1  0
  1 39  1  0
  1 40  1  0
  2 41  1  1
  3 42  1  0
  3 43  1  0
  5 44  1  0
  6 45  1  0
  8 46  1  0
  9 47  1  0
 11 48  1  0
 12 49  1  0
 13 50  1  0
 14 51  1  0
 15 52  1  0
 16 53  1  0
 19 54  1  1
 20 55  1  0
 20 56  1  0
 21 57  1  1
 23 58  1  0
 24 59  1  0
 28 60  1  0
 29 61  1  0
 30 62  1  0
 31 63  1  0
 34 64  1  0
 36 65  1  0
 37 66  1  0
M  END
$$$$
[H]c1nc(N([H])c2c([H])n(C([H])([H])C([H])([H])C([H])([H])C([H])([H])[H])c(=O)n(C([H])([H])[H])c2=O)sc1C(=O)N1C([H])([H])C([H])([H])N([H])C([H])([H])C1([H])[H]
     RDKit          3D

 51 53  0  0  0  0  0  0  0  0999 V2000
   -3.5121    3.4999   -0.7079 C   0  0  0  0  0  0  0  0  0  0  0  0
   -4.0503    3.5687    0.6985 C   0  0  0  0  0  0  0  0  0  0  0  0
   -3.5344    2.3930    1.5084 C   0  0  0  0  0  0  0  0  0  0  0  0
   -3.9964    1.0989    0.8477 C   0  0  0  0  0  0  0  0  0  0  0  0
   -3.4630    0.0114    1.6817 N   0  0  0  0  0  0  0  0  0  0  0  0
   -2.2228   -0.4950    1.3926 C   0  0  0  0  0  0  0  0  0  0  0  0
   -1.7042   -1.5085    2.1543 C   0  0  0  0  0  0  0  0  0  0  0  0
   -0.4733   -2.1120    1.9785 N   0  0  0  0  0  0  0  0  0  0  0  0
    0.5247   -1.8368    0.9882 C   0  0  0  0  0  0  0  0  0  0  0  0
    0.5119   -0.9653    0.0292 N   0  0  0  0  0  0  0  0  0  0  0  0
    1.5179   -0.8388   -0.8007 C   0  0  0  0  0  0  0  0  0  0  0  0
    2.5945   -1.6565   -0.6316 C   0  0  0  0  0  0  0  0  0  0  0  0
    2.0489   -2.5709    0.7585 S   0  0  0  0  0  0  0  0  0  0  0  0
    3.8557   -1.8236   -1.3329 C   0  0  0  0  0  0  0  0  0  0  0  0
    4.6074   -2.7388   -0.7498 O   0  0  0  0  0  0  0  0  0  0  0  0
    4.4021   -1.2333   -2.4487 N   0  0  0  0  0  0  0  0  0  0  0  0
    5.7878   -1.6581   -2.8650 C   0  0  0  0  0  0  0  0  0  0  0  0
    6.4195   -0.4113   -3.4112 C   0  0  0  0  0  0  0  0  0  0  0  0
    5.9760    0.8054   -2.7558 N   0  0  0  0  0  0  0  0  0  0  0  0
    4.5749    1.0896   -3.0320 C   0  0  0  0  0  0  0  0  0  0  0  0
    3.8464   -0.2431   -3.3267 C   0  0  0  0  0  0  0  0  0  0  0  0
   -2.5124   -1.9527    3.1954 C   0  0  0  0  0  0  0  0  0  0  0  0
   -2.1028   -2.8661    3.9214 O   0  0  0  0  0  0  0  0  0  0  0  0
   -3.7236   -1.4339    3.4512 N   0  0  0  0  0  0  0  0  0  0  0  0
   -4.5599   -1.9050    4.5389 C   0  0  0  0  0  0  0  0  0  0  0  0
   -4.2052   -0.4471    2.6934 C   0  0  0  0  0  0  0  0  0  0  0  0
   -5.3443    0.0763    2.8950 O   0  0  0  0  0  0  0  0  0  0  0  0
   -4.1396    2.7287   -1.2399 H   0  0  0  0  0  0  0  0  0  0  0  0
   -2.4489    3.2020   -0.6489 H   0  0  0  0  0  0  0  0  0  0  0  0
   -3.6596    4.4767   -1.2178 H   0  0  0  0  0  0  0  0  0  0  0  0
   -5.1554    3.4839    0.6725 H   0  0  0  0  0  0  0  0  0  0  0  0
   -3.8066    4.5293    1.1565 H   0  0  0  0  0  0  0  0  0  0  0  0
   -3.9154    2.4824    2.5294 H   0  0  0  0  0  0  0  0  0  0  0  0
   -2.4334    2.3634    1.5508 H   0  0  0  0  0  0  0  0  0  0  0  0
   -3.6517    1.0121   -0.1806 H   0  0  0  0  0  0  0  0  0  0  0  0
   -5.0849    1.0379    0.8915 H   0  0  0  0  0  0  0  0  0  0  0  0
   -1.6764   -0.0845    0.5676 H   0  0  0  0  0  0  0  0  0  0  0  0
   -0.1728   -2.9038    2.6504 H   0  0  0  0  0  0  0  0  0  0  0  0
    1.4571   -0.0629   -1.6018 H   0  0  0  0  0  0  0  0  0  0  0  0
    6.3415   -2.0280   -1.9905 H   0  0  0  0  0  0  0  0  0  0  0  0
    5.6896   -2.3958   -3.6757 H   0  0  0  0  0  0  0  0  0  0  0  0
    7.5269   -0.4590   -3.2498 H   0  0  0  0  0  0  0  0  0  0  0  0
    6.1844   -0.3449   -4.4862 H   0  0  0  0  0  0  0  0  0  0  0  0
    6.5455    1.6309   -3.0390 H   0  0  0  0  0  0  0  0  0  0  0  0
    4.0443    1.5571   -2.2047 H   0  0  0  0  0  0  0  0  0  0  0  0
    4.4785    1.7037   -3.9267 H   0  0  0  0  0  0  0  0  0  0  0  0
    4.1517   -0.5470   -4.3787 H   0  0  0  0  0  0  0  0  0  0  0  0
    2.7884   -0.0382   -3.2748 H   0  0  0  0  0  0  0  0  0  0  0  0
   -4.2615   -1.4811    5.5170 H   0  0  0  0  0  0  0  0  0  0  0  0
   -5.6401   -1.7076    4.3028 H   0  0  0  0  0  0  0  0  0  0  0  0
   -4.4249   -2.9960    4.6062 H   0  0  0  0  0  0  0  0  0  0  0  0
  1  2  1  0
  2  3  1  0
  3  4  1  0
  4  5  1  0
  5  6  1  0
  6  7  2  0
  7  8  1  0
  8  9  1  0
  9 10  2  0
 10 11  1  0
 11 12  2  0
 12 13  1  0
 12 14  1  0
 14 15  2  0
 14 16  1  0
 16 17  1  0
 17 18  1  0
 18 19  1  0
 19 20  1  0
 20 21  1  0
  7 22  1  0
 22 23  2  0
 22 24  1  0
 24 25  1  0
 24 26  1  0
 26 27  2  0
 26  5  1  0
 13  9  1  0
 21 16  1  0
  1 28  1  0
  1 29  1  0
  1 30  1  0
  2 31  1  0
  2 32  1  0
  3 33  1  0
  3 34  1  0
  4 35  1  0
  4 36  1  0
  6 37  1  0
  8 38  1  0
 11 39  1  0
 17 40  1  0
 17 41  1  0
 18 42  1  0
 18 43  1  0
 19 44  1  0
 20 45  1  0
 20 46  1  0
 21 47  1  0
 21 48  1  0
 25 49  1  0
 25 50  1  0
 25 51  1  0
M  END
$$$$
[H]OC(=S)C([H])([H])c1c([H])c([H])c([H])c(-c2c([H])c([H])c3c(N([H])C(=O)c4c([H])c([H])c([H])c(C(F)(F)F)c4[H])nn(C(=O)N([H])c4c([H])c([H])c([H])c(C(F)(F)F)c4[H])c3c2[H])c1[H]
     RDKit          3D

 65 69  0  0  0  0  0  0  0  0999 V2000
   -6.6827   -4.2895    1.3094 O   0  0  0  0  0  0  0  0  0  0  0  0
   -7.1822   -3.5504    0.2695 C   0  0  0  0  0  0  0  0  0  0  0  0
   -8.5573   -4.0715   -0.4688 S   0  0  0  0  0  0  0  0  0  0  0  0
   -6.4745   -2.2979   -0.1733 C   0  0  0  0  0  0  0  0  0  0  0  0
   -5.0974   -2.7068   -0.6116 C   0  0  0  0  0  0  0  0  0  0  0  0
   -5.0389   -3.7440   -1.5219 C   0  0  0  0  0  0  0  0  0  0  0  0
   -3.8223   -4.1703   -1.9962 C   0  0  0  0  0  0  0  0  0  0  0  0
   -2.7196   -3.5311   -1.5290 C   0  0  0  0  0  0  0  0  0  0  0  0
   -2.7538   -2.4727   -0.6063 C   0  0  0  0  0  0  0  0  0  0  0  0
   -3.9487   -2.0664   -0.1510 C   0  0  0  0  0  0  0  0  0  0  0  0
   -1.4363   -1.9225   -0.2735 C   0  0  0  0  0  0  0  0  0  0  0  0
   -0.3271   -2.7745   -0.2115 C   0  0  0  0  0  0  0  0  0  0  0  0
    0.9389   -2.2970   -0.0650 C   0  0  0  0  0  0  0  0  0  0  0  0
    1.1463   -0.9337    0.0216 C   0  0  0  0  0  0  0  0  0  0  0  0
    2.2962   -0.1690    0.0803 C   0  0  0  0  0  0  0  0  0  0  0  0
    3.5952   -0.7297    0.0985 N   0  0  0  0  0  0  0  0  0  0  0  0
    4.8105   -0.0154    0.1383 C   0  0  0  0  0  0  0  0  0  0  0  0
    4.8943    1.2464    0.2591 O   0  0  0  0  0  0  0  0  0  0  0  0
    6.0280   -0.8302    0.0231 C   0  0  0  0  0  0  0  0  0  0  0  0
    6.0301   -1.7772   -1.0267 C   0  0  0  0  0  0  0  0  0  0  0  0
    7.1596   -2.5584   -1.1736 C   0  0  0  0  0  0  0  0  0  0  0  0
    8.2377   -2.4227   -0.3293 C   0  0  0  0  0  0  0  0  0  0  0  0
    8.2242   -1.5022    0.6829 C   0  0  0  0  0  0  0  0  0  0  0  0
    7.0921   -0.7088    0.8380 C   0  0  0  0  0  0  0  0  0  0  0  0
    9.4139   -1.3811    1.6046 C   0  0  0  0  0  0  0  0  0  0  0  0
   10.2652   -0.3819    1.1770 F   0  0  0  0  0  0  0  0  0  0  0  0
   10.0884   -2.5984    1.5937 F   0  0  0  0  0  0  0  0  0  0  0  0
    8.9859   -1.0899    2.8994 F   0  0  0  0  0  0  0  0  0  0  0  0
    1.9114    1.0866    0.0630 N   0  0  0  0  0  0  0  0  0  0  0  0
    0.5660    1.2008   -0.0092 N   0  0  0  0  0  0  0  0  0  0  0  0
   -0.0936    2.4349   -0.1742 C   0  0  0  0  0  0  0  0  0  0  0  0
    0.7769    3.4235   -0.4037 O   0  0  0  0  0  0  0  0  0  0  0  0
   -1.4029    2.8134   -0.1563 N   0  0  0  0  0  0  0  0  0  0  0  0
   -1.8194    4.1826   -0.4493 C   0  0  0  0  0  0  0  0  0  0  0  0
   -1.2048    4.8874   -1.4431 C   0  0  0  0  0  0  0  0  0  0  0  0
   -1.6048    6.1984   -1.7057 C   0  0  0  0  0  0  0  0  0  0  0  0
   -2.6115    6.7533   -0.9621 C   0  0  0  0  0  0  0  0  0  0  0  0
   -3.2330    6.0527    0.0320 C   0  0  0  0  0  0  0  0  0  0  0  0
   -2.8194    4.7386    0.2873 C   0  0  0  0  0  0  0  0  0  0  0  0
   -4.3005    6.6189    0.8599 C   0  0  0  0  0  0  0  0  0  0  0  0
   -3.9799    6.4603    2.2125 F   0  0  0  0  0  0  0  0  0  0  0  0
   -4.5134    7.9599    0.5744 F   0  0  0  0  0  0  0  0  0  0  0  0
   -5.4678    5.9102    0.6245 F   0  0  0  0  0  0  0  0  0  0  0  0
    0.0915   -0.0608   -0.0356 C   0  0  0  0  0  0  0  0  0  0  0  0
   -1.2195   -0.5696   -0.1818 C   0  0  0  0  0  0  0  0  0  0  0  0
   -6.7599   -5.3236    1.2266 H   0  0  0  0  0  0  0  0  0  0  0  0
   -7.0088   -1.8612   -1.0235 H   0  0  0  0  0  0  0  0  0  0  0  0
   -6.4475   -1.5573    0.6526 H   0  0  0  0  0  0  0  0  0  0  0  0
   -5.9416   -4.2415   -1.8729 H   0  0  0  0  0  0  0  0  0  0  0  0
   -3.7425   -4.9724   -2.7082 H   0  0  0  0  0  0  0  0  0  0  0  0
   -1.7536   -3.8558   -1.9132 H   0  0  0  0  0  0  0  0  0  0  0  0
   -4.0108   -1.2664    0.5487 H   0  0  0  0  0  0  0  0  0  0  0  0
   -0.5551   -3.8314   -0.2914 H   0  0  0  0  0  0  0  0  0  0  0  0
    1.7805   -2.9411   -0.0000 H   0  0  0  0  0  0  0  0  0  0  0  0
    3.6582   -1.7934    0.0112 H   0  0  0  0  0  0  0  0  0  0  0  0
    5.1788   -1.8786   -1.6712 H   0  0  0  0  0  0  0  0  0  0  0  0
    7.1913   -3.2837   -1.9579 H   0  0  0  0  0  0  0  0  0  0  0  0
    9.1272   -3.0504   -0.4537 H   0  0  0  0  0  0  0  0  0  0  0  0
    7.0988    0.0099    1.6425 H   0  0  0  0  0  0  0  0  0  0  0  0
   -2.1958    2.1798    0.0835 H   0  0  0  0  0  0  0  0  0  0  0  0
   -0.4301    4.4908   -2.0601 H   0  0  0  0  0  0  0  0  0  0  0  0
   -1.1220    6.7639   -2.4878 H   0  0  0  0  0  0  0  0  0  0  0  0
   -2.9602    7.7667   -1.1337 H   0  0  0  0  0  0  0  0  0  0  0  0
   -3.2954    4.1875    1.0837 H   0  0  0  0  0  0  0  0  0  0  0  0
   -2.0524    0.1143   -0.2436 H   0  0  0  0  0  0  0  0  0  0  0  0
  1  2  1  0
  2  3  2  0
  2  4  1  0
  4  5  1  0
  5  6  2  0
  6  7  1  0
  7  8  2  0
  8  9  1  0
  9 10  2  0
  9 11  1  0
 11 12  2  0
 12 13  1  0
 13 14  2  0
 14 15  1  0
 15 16  1  0
 16 17  1  0
 17 18  2  0
 17 19  1  0
 19 20  2  0
 20 21  1  0
 21 22  2  0
 22 23  1  0
 23 24  2  0
 23 25  1  0
 25 26  1  0
 25 27  1  0
 25 28  1  0
 15 29  2  0
 29 30  1  0
 30 31  1  0
 31 32  2  0
 31 33  1  0
 33 34  1  0
 34 35  2  0
 35 36  1  0
 36 37  2  0
 37 38  1  0
 38 39  2  0
 38 40  1  0
 40 41  1  0
 40 42  1  0
 40 43  1  0
 30 44  1  0
 44 45  2  0
 10  5  1  0
 45 11  1  0
 44 14  1  0
 24 19  1  0
 39 34  1  0
  1 46  1  0
  4 47  1  0
  4 48  1  0
  6 49  1  0
  7 50  1  0
  8 51  1  0
 10 52  1  0
 12 53  1  0
 13 54  1  0
 16 55  1  0
 20 56  1  0
 21 57  1  0
 22 58  1  0
 24 59  1  0
 33 60  1  0
 35 61  1  0
 36 62  1  0
 37 63  1  0
 39 64  1  0
 45 65  1  0
M  END
$$$$
[H]c1c([H])c2c(c([H])c1N([H])C(=O)C([H])([H])C([H])(c1c([H])c([H])c(C(F)(F)F)c([H])c1[H])C([H])([H])C([H])([H])C([H])(C([H])([H])[H])C([H])([H])[H])C([H])([H])OC([H])([H])C2([H])[H]
     RDKit          3D

 58 60  0  0  0  0  0  0  0  0999 V2000
   -5.3779   -0.9776    0.0347 C   0  0  0  0  0  0  0  0  0  0  0  0
   -4.8743   -1.4844   -1.2689 C   0  0  0  0  0  0  0  0  0  0  0  0
   -5.0068   -3.0023   -1.2321 C   0  0  0  0  0  0  0  0  0  0  0  0
   -3.5861   -1.0202   -1.7915 C   0  0  0  0  0  0  0  0  0  0  0  0
   -2.3327   -1.2424   -1.0590 C   0  0  0  0  0  0  0  0  0  0  0  0
   -2.1137   -0.6054    0.2457 C   0  0  0  0  0  0  0  0  0  0  0  0
   -0.8083   -0.9836    0.8978 C   0  0  0  0  0  0  0  0  0  0  0  0
    0.4306   -0.6623    0.1990 C   0  0  0  0  0  0  0  0  0  0  0  0
    0.4385   -0.0393   -0.8590 O   0  0  0  0  0  0  0  0  0  0  0  0
    1.6405   -1.0995    0.7960 N   0  0  0  0  0  0  0  0  0  0  0  0
    2.9448   -0.8921    0.2913 C   0  0  0  0  0  0  0  0  0  0  0  0
    3.2525   -0.4398   -0.9638 C   0  0  0  0  0  0  0  0  0  0  0  0
    4.5699   -0.2334   -1.3815 C   0  0  0  0  0  0  0  0  0  0  0  0
    5.5839   -0.4953   -0.5010 C   0  0  0  0  0  0  0  0  0  0  0  0
    7.0162   -0.3040   -0.8373 C   0  0  0  0  0  0  0  0  0  0  0  0
    7.6472    0.3755    0.3570 C   0  0  0  0  0  0  0  0  0  0  0  0
    7.4693   -0.2597    1.5518 O   0  0  0  0  0  0  0  0  0  0  0  0
    6.4923   -1.2088    1.6251 C   0  0  0  0  0  0  0  0  0  0  0  0
    5.3020   -0.9519    0.7661 C   0  0  0  0  0  0  0  0  0  0  0  0
    4.0216   -1.1515    1.1714 C   0  0  0  0  0  0  0  0  0  0  0  0
   -2.2708    0.8782    0.2874 C   0  0  0  0  0  0  0  0  0  0  0  0
   -2.6759    1.4458    1.5018 C   0  0  0  0  0  0  0  0  0  0  0  0
   -2.8630    2.7805    1.6961 C   0  0  0  0  0  0  0  0  0  0  0  0
   -2.6446    3.6447    0.6408 C   0  0  0  0  0  0  0  0  0  0  0  0
   -2.2475    3.1235   -0.5656 C   0  0  0  0  0  0  0  0  0  0  0  0
   -2.0638    1.7464   -0.7333 C   0  0  0  0  0  0  0  0  0  0  0  0
   -2.8437    5.1149    0.8387 C   0  0  0  0  0  0  0  0  0  0  0  0
   -1.9871    5.5043    1.8696 F   0  0  0  0  0  0  0  0  0  0  0  0
   -4.1611    5.3821    1.1359 F   0  0  0  0  0  0  0  0  0  0  0  0
   -2.3980    5.7544   -0.2945 F   0  0  0  0  0  0  0  0  0  0  0  0
   -5.1013   -1.6458    0.9053 H   0  0  0  0  0  0  0  0  0  0  0  0
   -6.5291   -1.0678    0.0361 H   0  0  0  0  0  0  0  0  0  0  0  0
   -5.2165    0.0943    0.2390 H   0  0  0  0  0  0  0  0  0  0  0  0
   -5.6718   -1.1802   -2.0349 H   0  0  0  0  0  0  0  0  0  0  0  0
   -6.0641   -3.1975   -0.9374 H   0  0  0  0  0  0  0  0  0  0  0  0
   -4.8681   -3.4661   -2.2182 H   0  0  0  0  0  0  0  0  0  0  0  0
   -4.3831   -3.4680   -0.4438 H   0  0  0  0  0  0  0  0  0  0  0  0
   -3.6975    0.1007   -1.9558 H   0  0  0  0  0  0  0  0  0  0  0  0
   -3.4770   -1.3687   -2.8821 H   0  0  0  0  0  0  0  0  0  0  0  0
   -2.1373   -2.3678   -0.8998 H   0  0  0  0  0  0  0  0  0  0  0  0
   -1.4995   -1.0140   -1.8073 H   0  0  0  0  0  0  0  0  0  0  0  0
   -2.8890   -0.9942    0.9777 H   0  0  0  0  0  0  0  0  0  0  0  0
   -0.7809   -0.4828    1.9077 H   0  0  0  0  0  0  0  0  0  0  0  0
   -0.8859   -2.0869    1.1418 H   0  0  0  0  0  0  0  0  0  0  0  0
    1.5972   -1.6447    1.7109 H   0  0  0  0  0  0  0  0  0  0  0  0
    2.4527   -0.2365   -1.6921 H   0  0  0  0  0  0  0  0  0  0  0  0
    4.7622    0.1294   -2.3915 H   0  0  0  0  0  0  0  0  0  0  0  0
    7.5365   -1.2608   -0.9923 H   0  0  0  0  0  0  0  0  0  0  0  0
    7.1318    0.3958   -1.6963 H   0  0  0  0  0  0  0  0  0  0  0  0
    7.3307    1.4574    0.3895 H   0  0  0  0  0  0  0  0  0  0  0  0
    8.7633    0.4420    0.1830 H   0  0  0  0  0  0  0  0  0  0  0  0
    6.1438   -1.3024    2.6628 H   0  0  0  0  0  0  0  0  0  0  0  0
    6.9604   -2.1909    1.3176 H   0  0  0  0  0  0  0  0  0  0  0  0
    3.8354   -1.5130    2.1833 H   0  0  0  0  0  0  0  0  0  0  0  0
   -2.8479    0.7889    2.3265 H   0  0  0  0  0  0  0  0  0  0  0  0
   -3.1762    3.1815    2.6493 H   0  0  0  0  0  0  0  0  0  0  0  0
   -2.0770    3.7932   -1.3964 H   0  0  0  0  0  0  0  0  0  0  0  0
   -1.7660    1.4081   -1.7014 H   0  0  0  0  0  0  0  0  0  0  0  0
  1  2  1  0
  2  3  1  0
  2  4  1  0
  4  5  1  0
  5  6  1  0
  6  7  1  0
  7  8  1  0
  8  9  2  0
  8 10  1  0
 10 11  1  0
 11 12  2  0
 12 13  1  0
 13 14  2  0
 14 15  1  0
 15 16  1  0
 16 17  1  0
 17 18  1  0
 18 19  1  0
 19 20  2  0
  6 21  1  0
 21 22  2  0
 22 23  1  0
 23 24  2  0
 24 25  1  0
 25 26  2  0
 24 27  1  0
 27 28  1  0
 27 29  1  0
 27 30  1  0
 20 11  1  0
 26 21  1  0
 19 14  1  0
  1 31  1  0
  1 32  1  0
  1 33  1  0
  2 34  1  0
  3 35  1  0
  3 36  1  0
  3 37  1  0
  4 38  1  0
  4 39  1  0
  5 40  1  0
  5 41  1  0
  6 42  1  0
  7 43  1  0
  7 44  1  0
 10 45  1  0
 12 46  1  0
 13 47  1  0
 15 48  1  0
 15 49  1  0
 16 50  1  0
 16 51  1  0
 18 52  1  0
 18 53  1  0
 20 54  1  0
 22 55  1  0
 23 56  1  0
 25 57  1  0
 26 58  1  0
M  END
$$$$
[H]OC(=O)c1c([H])c(C([H])([H])Oc2c([H])c([H])c(C([H])(C(=O)N([H])c3nc4c([H])c([H])c([H])c([H])c4n3[H])C([H])([H])[H])c([H])c2[H])c([H])c([H])c1F
     RDKit          3D

 52 55  0  0  0  0  0  0  0  0999 V2000
   -2.6069   -1.4248   -0.9357 C   0  0  0  0  0  0  0  0  0  0  0  0
   -2.2318   -0.2711   -0.0031 C   0  0  0  0  0  0  0  0  0  0  0  0
   -0.7452   -0.0532   -0.1038 C   0  0  0  0  0  0  0  0  0  0  0  0
    0.1498   -1.0329    0.2637 C   0  0  0  0  0  0  0  0  0  0  0  0
    1.5284   -0.8474    0.1771 C   0  0  0  0  0  0  0  0  0  0  0  0
    2.0265    0.3591   -0.2932 C   0  0  0  0  0  0  0  0  0  0  0  0
    3.3904    0.5687   -0.3890 O   0  0  0  0  0  0  0  0  0  0  0  0
    4.3391   -0.3848   -0.0322 C   0  0  0  0  0  0  0  0  0  0  0  0
    5.7084    0.1411   -0.2500 C   0  0  0  0  0  0  0  0  0  0  0  0
    5.8555    1.4116   -0.7397 C   0  0  0  0  0  0  0  0  0  0  0  0
    7.0974    1.9428   -0.9581 C   0  0  0  0  0  0  0  0  0  0  0  0
    8.2180    1.1926   -0.6829 C   0  0  0  0  0  0  0  0  0  0  0  0
    9.4673    1.6731   -0.8819 F   0  0  0  0  0  0  0  0  0  0  0  0
    8.0908   -0.1077   -0.1820 C   0  0  0  0  0  0  0  0  0  0  0  0
    6.8241   -0.6036    0.0232 C   0  0  0  0  0  0  0  0  0  0  0  0
    9.2898   -0.8761    0.0993 C   0  0  0  0  0  0  0  0  0  0  0  0
   10.5304   -0.3257   -0.1265 O   0  0  0  0  0  0  0  0  0  0  0  0
    9.1870   -2.0368    0.5463 O   0  0  0  0  0  0  0  0  0  0  0  0
    1.1294    1.3388   -0.6607 C   0  0  0  0  0  0  0  0  0  0  0  0
   -0.2396    1.1405   -0.5691 C   0  0  0  0  0  0  0  0  0  0  0  0
   -2.6189   -0.5520    1.3900 C   0  0  0  0  0  0  0  0  0  0  0  0
   -1.6999   -0.8179    2.2608 O   0  0  0  0  0  0  0  0  0  0  0  0
   -3.9323   -0.5493    1.8389 N   0  0  0  0  0  0  0  0  0  0  0  0
   -5.0957   -0.2427    1.1049 C   0  0  0  0  0  0  0  0  0  0  0  0
   -5.2160    0.1169   -0.1637 N   0  0  0  0  0  0  0  0  0  0  0  0
   -6.4976    0.3102   -0.4504 C   0  0  0  0  0  0  0  0  0  0  0  0
   -7.1240    0.6887   -1.6231 C   0  0  0  0  0  0  0  0  0  0  0  0
   -8.5015    0.8157   -1.6372 C   0  0  0  0  0  0  0  0  0  0  0  0
   -9.2278    0.5662   -0.4940 C   0  0  0  0  0  0  0  0  0  0  0  0
   -8.5774    0.1925    0.6539 C   0  0  0  0  0  0  0  0  0  0  0  0
   -7.1974    0.0541    0.7086 C   0  0  0  0  0  0  0  0  0  0  0  0
   -6.3482   -0.2862    1.6703 N   0  0  0  0  0  0  0  0  0  0  0  0
   -1.6600   -1.9777   -1.2275 H   0  0  0  0  0  0  0  0  0  0  0  0
   -3.2577   -2.1585   -0.4591 H   0  0  0  0  0  0  0  0  0  0  0  0
   -2.9715   -0.9779   -1.8709 H   0  0  0  0  0  0  0  0  0  0  0  0
   -2.7374    0.6265   -0.3533 H   0  0  0  0  0  0  0  0  0  0  0  0
   -0.2616   -1.9797    0.6327 H   0  0  0  0  0  0  0  0  0  0  0  0
    2.1834   -1.6368    0.4739 H   0  0  0  0  0  0  0  0  0  0  0  0
    4.2373   -1.3503   -0.5932 H   0  0  0  0  0  0  0  0  0  0  0  0
    4.2516   -0.6750    1.0505 H   0  0  0  0  0  0  0  0  0  0  0  0
    4.9869    2.0452   -0.9730 H   0  0  0  0  0  0  0  0  0  0  0  0
    7.1986    2.9645   -1.3517 H   0  0  0  0  0  0  0  0  0  0  0  0
    6.7456   -1.6077    0.4098 H   0  0  0  0  0  0  0  0  0  0  0  0
   11.3395   -0.9190   -0.1860 H   0  0  0  0  0  0  0  0  0  0  0  0
    1.5271    2.2679   -1.0229 H   0  0  0  0  0  0  0  0  0  0  0  0
   -0.9386    1.9292   -0.8652 H   0  0  0  0  0  0  0  0  0  0  0  0
   -4.0477   -0.7833    2.8927 H   0  0  0  0  0  0  0  0  0  0  0  0
   -6.5688    0.8852   -2.5180 H   0  0  0  0  0  0  0  0  0  0  0  0
   -8.9695    1.1159   -2.5766 H   0  0  0  0  0  0  0  0  0  0  0  0
  -10.3025    0.6702   -0.5226 H   0  0  0  0  0  0  0  0  0  0  0  0
   -9.1335   -0.0055    1.5545 H   0  0  0  0  0  0  0  0  0  0  0  0
   -6.5934   -0.5338    2.6498 H   0  0  0  0  0  0  0  0  0  0  0  0
  1  2  1  0
  2  3  1  0
  3  4  2  0
  4  5  1  0
  5  6  2  0
  6  7  1  0
  7  8  1  0
  8  9  1  0
  9 10  2  0
 10 11  1  0
 11 12  2  0
 12 13  1  0
 12 14  1  0
 14 15  2  0
 14 16  1  0
 16 17  1  0
 16 18  2  0
  6 19  1  0
 19 20  2  0
  2 21  1  0
 21 22  2  0
 21 23  1  0
 23 24  1  0
 24 25  2  0
 25 26  1  0
 26 27  2  0
 27 28  1  0
 28 29  2  0
 29 30  1  0
 30 31  2  0
 31 32  1  0
 20  3  1  0
 32 24  1  0
 15  9  1  0
 31 26  1  0
  1 33  1  0
  1 34  1  0
  1 35  1  0
  2 36  1  0
  4 37  1  0
  5 38  1  0
  8 39  1  0
  8 40  1  0
 10 41  1  0
 11 42  1  0
 15 43  1  0
 17 44  1  0
 19 45  1  0
 20 46  1  0
 23 47  1  0
 27 48  1  0
 28 49  1  0
 29 50  1  0
 30 51  1  0
 32 52  1  0
M  END
$$$$
[H]OS(=O)(=O)c1c([H])c(-c2c([H])c([H])c([H])c(C([H])([H])C([H])(C([H])([H])[H])C([H])([H])[H])c2[H])c([H])c([H])c1OC([H])([H])[H]
     RDKit          3D

 42 43  0  0  0  0  0  0  0  0999 V2000
    5.5209    2.4443   -0.0066 C   0  0  0  0  0  0  0  0  0  0  0  0
    5.1769    1.1116    0.3075 O   0  0  0  0  0  0  0  0  0  0  0  0
    3.8846    0.6870    0.0671 C   0  0  0  0  0  0  0  0  0  0  0  0
    2.9637    1.5628   -0.4694 C   0  0  0  0  0  0  0  0  0  0  0  0
    1.6692    1.1332   -0.7089 C   0  0  0  0  0  0  0  0  0  0  0  0
    1.3137   -0.1686   -0.4078 C   0  0  0  0  0  0  0  0  0  0  0  0
    2.2641   -1.0424    0.1365 C   0  0  0  0  0  0  0  0  0  0  0  0
    3.5564   -0.6145    0.3759 C   0  0  0  0  0  0  0  0  0  0  0  0
    4.7936   -1.6427    1.0500 S   0  0  0  0  0  0  0  0  0  0  0  0
    4.1013   -3.1714    1.3234 O   0  0  0  0  0  0  0  0  0  0  0  0
    5.8727   -1.8557    0.0092 O   0  0  0  0  0  0  0  0  0  0  0  0
    5.3734   -1.1056    2.3041 O   0  0  0  0  0  0  0  0  0  0  0  0
   -0.0271   -0.6535   -0.6433 C   0  0  0  0  0  0  0  0  0  0  0  0
   -0.2660   -1.9691   -0.9628 C   0  0  0  0  0  0  0  0  0  0  0  0
   -1.5572   -2.4395   -1.1895 C   0  0  0  0  0  0  0  0  0  0  0  0
   -2.5977   -1.5343   -1.0821 C   0  0  0  0  0  0  0  0  0  0  0  0
   -2.3906   -0.1893   -0.7590 C   0  0  0  0  0  0  0  0  0  0  0  0
   -3.5409    0.7182   -0.6610 C   0  0  0  0  0  0  0  0  0  0  0  0
   -4.1220    0.7718    0.7402 C   0  0  0  0  0  0  0  0  0  0  0  0
   -5.2893    1.7342    0.6988 C   0  0  0  0  0  0  0  0  0  0  0  0
   -4.6697   -0.6006    1.0751 C   0  0  0  0  0  0  0  0  0  0  0  0
   -1.0810    0.2133   -0.5458 C   0  0  0  0  0  0  0  0  0  0  0  0
    6.6254    2.6070    0.0505 H   0  0  0  0  0  0  0  0  0  0  0  0
    5.0083    3.1140    0.7113 H   0  0  0  0  0  0  0  0  0  0  0  0
    5.2263    2.7365   -1.0313 H   0  0  0  0  0  0  0  0  0  0  0  0
    3.2146    2.5840   -0.7136 H   0  0  0  0  0  0  0  0  0  0  0  0
    0.9212    1.7929   -1.1285 H   0  0  0  0  0  0  0  0  0  0  0  0
    2.0145   -2.0707    0.3832 H   0  0  0  0  0  0  0  0  0  0  0  0
    3.7921   -3.5669    0.4938 H   0  0  0  0  0  0  0  0  0  0  0  0
    0.5544   -2.6671   -1.0440 H   0  0  0  0  0  0  0  0  0  0  0  0
   -1.7671   -3.4692   -1.4417 H   0  0  0  0  0  0  0  0  0  0  0  0
   -3.5932   -1.9109   -1.2601 H   0  0  0  0  0  0  0  0  0  0  0  0
   -4.3235    0.3659   -1.3627 H   0  0  0  0  0  0  0  0  0  0  0  0
   -3.2297    1.7356   -0.9914 H   0  0  0  0  0  0  0  0  0  0  0  0
   -3.3724    1.0710    1.4886 H   0  0  0  0  0  0  0  0  0  0  0  0
   -5.2965    2.3777    1.6026 H   0  0  0  0  0  0  0  0  0  0  0  0
   -5.2164    2.3995   -0.1914 H   0  0  0  0  0  0  0  0  0  0  0  0
   -6.2319    1.1672    0.5726 H   0  0  0  0  0  0  0  0  0  0  0  0
   -5.2903   -0.5818    2.0017 H   0  0  0  0  0  0  0  0  0  0  0  0
   -3.8362   -1.3212    1.2826 H   0  0  0  0  0  0  0  0  0  0  0  0
   -5.2662   -0.9930    0.2213 H   0  0  0  0  0  0  0  0  0  0  0  0
   -0.8823    1.2401   -0.2952 H   0  0  0  0  0  0  0  0  0  0  0  0
  1  2  1  0
  2  3  1  0
  3  4  2  0
  4  5  1  0
  5  6  2  0
  6  7  1  0
  7  8  2  0
  8  9  1  0
  9 10  1  0
  9 11  2  0
  9 12  2  0
  6 13  1  0
 13 14  2  0
 14 15  1  0
 15 16  2  0
 16 17  1  0
 17 18  1  0
 18 19  1  0
 19 20  1  0
 19 21  1  0
 17 22  2  0
  8  3  1  0
 22 13  1  0
  1 23  1  0
  1 24  1  0
  1 25  1  0
  4 26  1  0
  5 27  1  0
  7 28  1  0
 10 29  1  0
 14 30  1  0
 15 31  1  0
 16 32  1  0
 18 33  1  0
 18 34  1  0
 19 35  1  0
 20 36  1  0
 20 37  1  0
 20 38  1  0
 21 39  1  0
 21 40  1  0
 21 41  1  0
 22 42  1  0
M  END
$$$$
[H]O[C@@]1(C([H])([H])[H])C([H])([H])[C@]([H])(C([H])(C([H])([H])[H])C([H])([H])[H])[C@@]1([H])OC(=O)C([H])([H])[C@]1([H])N(c2nc(C([H])([H])[H])c(N([H])c3c([H])c([H])c([H])c(C(F)(F)F)c3[H])s2)C(=O)C([H])([H])C1([H])[H]
     RDKit          3D

 66 69  0  0  0  0  0  0  0  0999 V2000
   -6.9742    1.3860    0.9580 C   0  0  0  0  0  0  0  0  0  0  0  0
   -6.4914    0.0622    0.4118 C   0  0  0  0  0  0  0  0  0  0  0  0
   -6.2349   -0.9694    1.4617 C   0  0  0  0  0  0  0  0  0  0  0  0
   -5.4199    0.1490   -0.6096 C   0  0  2  0  0  0  0  0  0  0  0  0
   -4.1023    0.7997   -0.2437 C   0  0  1  0  0  0  0  0  0  0  0  0
   -3.0521   -0.0795   -0.0783 O   0  0  0  0  0  0  0  0  0  0  0  0
   -2.2997   -0.2515    1.0489 C   0  0  0  0  0  0  0  0  0  0  0  0
   -2.6060    0.5160    2.0052 O   0  0  0  0  0  0  0  0  0  0  0  0
   -1.2348   -1.2221    1.2271 C   0  0  0  0  0  0  0  0  0  0  0  0
   -0.4918   -1.8040    0.1473 C   0  0  1  0  0  0  0  0  0  0  0  0
   -1.2590   -2.4723   -0.9736 C   0  0  0  0  0  0  0  0  0  0  0  0
   -1.1118   -1.5316   -2.1651 C   0  0  0  0  0  0  0  0  0  0  0  0
   -0.0065   -0.6278   -1.6940 C   0  0  0  0  0  0  0  0  0  0  0  0
    0.3009    0.4469   -2.2258 O   0  0  0  0  0  0  0  0  0  0  0  0
    0.5906   -1.2378   -0.5568 N   0  0  0  0  0  0  0  0  0  0  0  0
    1.9827   -1.3761   -0.2327 C   0  0  0  0  0  0  0  0  0  0  0  0
    2.6082   -2.5545   -0.0440 N   0  0  0  0  0  0  0  0  0  0  0  0
    3.8551   -2.6044    0.2291 C   0  0  0  0  0  0  0  0  0  0  0  0
    4.5801   -3.9324    0.4327 C   0  0  0  0  0  0  0  0  0  0  0  0
    4.5371   -1.3978    0.3220 C   0  0  0  0  0  0  0  0  0  0  0  0
    5.9191   -1.2632    0.6227 N   0  0  0  0  0  0  0  0  0  0  0  0
    6.6997   -0.1244    0.6839 C   0  0  0  0  0  0  0  0  0  0  0  0
    8.0786   -0.2563    0.8884 C   0  0  0  0  0  0  0  0  0  0  0  0
    8.9142    0.8269    0.9343 C   0  0  0  0  0  0  0  0  0  0  0  0
    8.4086    2.1016    0.7803 C   0  0  0  0  0  0  0  0  0  0  0  0
    7.0570    2.2600    0.5793 C   0  0  0  0  0  0  0  0  0  0  0  0
    6.2148    1.1379    0.5336 C   0  0  0  0  0  0  0  0  0  0  0  0
    6.5256    3.6390    0.4149 C   0  0  0  0  0  0  0  0  0  0  0  0
    7.0374    4.3702    1.4933 F   0  0  0  0  0  0  0  0  0  0  0  0
    5.1448    3.6349    0.4319 F   0  0  0  0  0  0  0  0  0  0  0  0
    6.9943    4.2707   -0.7095 F   0  0  0  0  0  0  0  0  0  0  0  0
    3.2656   -0.3113   -0.0033 S   0  0  0  0  0  0  0  0  0  0  0  0
   -4.1740    1.7278   -1.3922 C   0  0  1  0  0  0  0  0  0  0  0  0
   -4.1946    3.2092   -1.0463 C   0  0  0  0  0  0  0  0  0  0  0  0
   -3.3559    1.5405   -2.4835 O   0  0  0  0  0  0  0  0  0  0  0  0
   -5.5911    1.1949   -1.6789 C   0  0  0  0  0  0  0  0  0  0  0  0
   -7.5693    1.9412    0.1749 H   0  0  0  0  0  0  0  0  0  0  0  0
   -6.2236    1.9900    1.4536 H   0  0  0  0  0  0  0  0  0  0  0  0
   -7.7556    1.1285    1.7273 H   0  0  0  0  0  0  0  0  0  0  0  0
   -7.4176   -0.3311   -0.1460 H   0  0  0  0  0  0  0  0  0  0  0  0
   -6.3400   -1.9956    1.0223 H   0  0  0  0  0  0  0  0  0  0  0  0
   -7.0171   -0.8567    2.2573 H   0  0  0  0  0  0  0  0  0  0  0  0
   -5.2208   -0.9005    1.8507 H   0  0  0  0  0  0  0  0  0  0  0  0
   -5.3162   -0.8454   -1.1010 H   0  0  0  0  0  0  0  0  0  0  0  0
   -4.2667    1.3757    0.7067 H   0  0  0  0  0  0  0  0  0  0  0  0
   -0.4621   -0.7721    1.9586 H   0  0  0  0  0  0  0  0  0  0  0  0
   -1.6785   -2.0279    1.9077 H   0  0  0  0  0  0  0  0  0  0  0  0
   -0.0395   -2.8032    0.6756 H   0  0  0  0  0  0  0  0  0  0  0  0
   -0.7034   -3.3868   -1.2702 H   0  0  0  0  0  0  0  0  0  0  0  0
   -2.2859   -2.7415   -0.7572 H   0  0  0  0  0  0  0  0  0  0  0  0
   -2.0049   -1.0236   -2.4869 H   0  0  0  0  0  0  0  0  0  0  0  0
   -0.7150   -2.1063   -3.0504 H   0  0  0  0  0  0  0  0  0  0  0  0
    5.1546   -4.1020   -0.5163 H   0  0  0  0  0  0  0  0  0  0  0  0
    3.8869   -4.7667    0.5429 H   0  0  0  0  0  0  0  0  0  0  0  0
    5.2804   -3.8374    1.2903 H   0  0  0  0  0  0  0  0  0  0  0  0
    6.4410   -2.1909    0.8502 H   0  0  0  0  0  0  0  0  0  0  0  0
    8.5509   -1.2271    1.0215 H   0  0  0  0  0  0  0  0  0  0  0  0
    9.9910    0.7453    1.0897 H   0  0  0  0  0  0  0  0  0  0  0  0
    9.0541    2.9878    0.8133 H   0  0  0  0  0  0  0  0  0  0  0  0
    5.1668    1.3416    0.3899 H   0  0  0  0  0  0  0  0  0  0  0  0
   -4.2017    3.8058   -1.9676 H   0  0  0  0  0  0  0  0  0  0  0  0
   -3.3908    3.4138   -0.3375 H   0  0  0  0  0  0  0  0  0  0  0  0
   -5.1442    3.4593   -0.4899 H   0  0  0  0  0  0  0  0  0  0  0  0
   -3.9034    1.6770   -3.2856 H   0  0  0  0  0  0  0  0  0  0  0  0
   -6.3118    1.9868   -1.4604 H   0  0  0  0  0  0  0  0  0  0  0  0
   -5.6721    0.8050   -2.7143 H   0  0  0  0  0  0  0  0  0  0  0  0
  1  2  1  0
  2  3  1  0
  2  4  1  0
  4  5  1  0
  5  6  1  0
  6  7  1  0
  7  8  2  0
  7  9  1  0
  9 10  1  0
 10 11  1  0
 11 12  1  0
 12 13  1  0
 13 14  2  0
 13 15  1  0
 15 16  1  0
 16 17  2  0
 17 18  1  0
 18 19  1  0
 18 20  2  0
 20 21  1  0
 21 22  1  0
 22 23  2  0
 23 24  1  0
 24 25  2  0
 25 26  1  0
 26 27  2  0
 26 28  1  0
 28 29  1  0
 28 30  1  0
 28 31  1  0
 20 32  1  0
  5 33  1  0
 33 34  1  0
 33 35  1  6
 33 36  1  0
 36  4  1  0
 15 10  1  0
 32 16  1  0
 27 22  1  0
  1 37  1  0
  1 38  1  0
  1 39  1  0
  2 40  1  0
  3 41  1  0
  3 42  1  0
  3 43  1  0
  4 44  1  6
  5 45  1  1
  9 46  1  0
  9 47  1  0
 10 48  1  1
 11 49  1  0
 11 50  1  0
 12 51  1  0
 12 52  1  0
 19 53  1  0
 19 54  1  0
 19 55  1  0
 21 56  1  0
 23 57  1  0
 24 58  1  0
 25 59  1  0
 27 60  1  0
 34 61  1  0
 34 62  1  0
 34 63  1  0
 35 64  1  0
 36 65  1  0
 36 66  1  0
M  END
$$$$
[H]OC(=O)c1c([H])nc(C([H])(C(=O)N([H])c2onc(C([H])([H])c3c([H])c([H])c(N4C([H])([H])C([H])([H])OC([H])([H])C4([H])[H])c([H])c3[H])c2C(F)(F)F)C([H])([H])C([H])([H])[H])nc1[H]
     RDKit          3D

 61 64  0  0  0  0  0  0  0  0999 V2000
   -3.6470   -2.3698    0.6114 C   0  0  0  0  0  0  0  0  0  0  0  0
   -4.4102   -1.4935    1.5473 C   0  0  0  0  0  0  0  0  0  0  0  0
   -4.8172   -0.1630    0.9477 C   0  0  0  0  0  0  0  0  0  0  0  0
   -3.6522    0.6399    0.5114 C   0  0  0  0  0  0  0  0  0  0  0  0
   -3.7027    1.1194   -0.6550 O   0  0  0  0  0  0  0  0  0  0  0  0
   -2.5716    0.8321    1.3806 N   0  0  0  0  0  0  0  0  0  0  0  0
   -1.4139    1.5769    1.0637 C   0  0  0  0  0  0  0  0  0  0  0  0
   -1.1799    2.1842   -0.0637 O   0  0  0  0  0  0  0  0  0  0  0  0
   -0.0271    2.7771   -0.0395 N   0  0  0  0  0  0  0  0  0  0  0  0
    0.5772    2.5641    1.1880 C   0  0  0  0  0  0  0  0  0  0  0  0
    1.9259    3.0300    1.4971 C   0  0  0  0  0  0  0  0  0  0  0  0
    3.0085    2.0961    1.1296 C   0  0  0  0  0  0  0  0  0  0  0  0
    3.6036    1.2540    2.0112 C   0  0  0  0  0  0  0  0  0  0  0  0
    4.6242    0.3915    1.5799 C   0  0  0  0  0  0  0  0  0  0  0  0
    5.0516    0.3698    0.2689 C   0  0  0  0  0  0  0  0  0  0  0  0
    4.4457    1.2305   -0.6366 C   0  0  0  0  0  0  0  0  0  0  0  0
    3.4599    2.0567   -0.1991 C   0  0  0  0  0  0  0  0  0  0  0  0
    6.0693   -0.4976   -0.1864 N   0  0  0  0  0  0  0  0  0  0  0  0
    6.6047   -0.3988   -1.5292 C   0  0  0  0  0  0  0  0  0  0  0  0
    8.0388   -0.9309   -1.4430 C   0  0  0  0  0  0  0  0  0  0  0  0
    7.9646   -2.2840   -1.2076 O   0  0  0  0  0  0  0  0  0  0  0  0
    6.9894   -2.6795   -0.3196 C   0  0  0  0  0  0  0  0  0  0  0  0
    6.6456   -1.5498    0.6476 C   0  0  0  0  0  0  0  0  0  0  0  0
   -0.2923    1.8165    1.8765 C   0  0  0  0  0  0  0  0  0  0  0  0
   -0.2524    1.2941    3.2446 C   0  0  0  0  0  0  0  0  0  0  0  0
   -1.4119    1.8081    3.9071 F   0  0  0  0  0  0  0  0  0  0  0  0
   -0.3251   -0.0575    3.3058 F   0  0  0  0  0  0  0  0  0  0  0  0
    0.7415    1.7560    4.0518 F   0  0  0  0  0  0  0  0  0  0  0  0
   -5.8541   -0.2699   -0.0875 C   0  0  0  0  0  0  0  0  0  0  0  0
   -5.5810   -0.9141   -1.2620 N   0  0  0  0  0  0  0  0  0  0  0  0
   -6.5212   -1.0145   -2.2179 C   0  0  0  0  0  0  0  0  0  0  0  0
   -7.7834   -0.4849   -2.0684 C   0  0  0  0  0  0  0  0  0  0  0  0
   -8.7630   -0.6153   -3.1380 C   0  0  0  0  0  0  0  0  0  0  0  0
   -8.4215   -1.2573   -4.3007 O   0  0  0  0  0  0  0  0  0  0  0  0
   -9.9291   -0.1298   -2.9806 O   0  0  0  0  0  0  0  0  0  0  0  0
   -8.0591    0.1680   -0.8767 C   0  0  0  0  0  0  0  0  0  0  0  0
   -7.0872    0.2380    0.0381 N   0  0  0  0  0  0  0  0  0  0  0  0
   -4.1555   -3.3159    0.3529 H   0  0  0  0  0  0  0  0  0  0  0  0
   -3.3527   -1.7624   -0.2681 H   0  0  0  0  0  0  0  0  0  0  0  0
   -2.7039   -2.6685    1.1579 H   0  0  0  0  0  0  0  0  0  0  0  0
   -3.8763   -1.2819    2.4898 H   0  0  0  0  0  0  0  0  0  0  0  0
   -5.3511   -2.0121    1.8337 H   0  0  0  0  0  0  0  0  0  0  0  0
   -5.2724    0.4135    1.8074 H   0  0  0  0  0  0  0  0  0  0  0  0
   -2.6482    0.3743    2.3392 H   0  0  0  0  0  0  0  0  0  0  0  0
    2.0733    3.2449    2.5975 H   0  0  0  0  0  0  0  0  0  0  0  0
    2.1843    3.9927    1.0095 H   0  0  0  0  0  0  0  0  0  0  0  0
    3.3521    1.1929    3.0626 H   0  0  0  0  0  0  0  0  0  0  0  0
    5.0804   -0.2661    2.2982 H   0  0  0  0  0  0  0  0  0  0  0  0
    4.7398    1.2512   -1.6607 H   0  0  0  0  0  0  0  0  0  0  0  0
    2.9946    2.7316   -0.9352 H   0  0  0  0  0  0  0  0  0  0  0  0
    6.0159   -0.9009   -2.2950 H   0  0  0  0  0  0  0  0  0  0  0  0
    6.6817    0.6969   -1.7894 H   0  0  0  0  0  0  0  0  0  0  0  0
    8.5775   -0.7558   -2.3984 H   0  0  0  0  0  0  0  0  0  0  0  0
    8.5049   -0.4011   -0.5969 H   0  0  0  0  0  0  0  0  0  0  0  0
    7.3013   -3.5452    0.3027 H   0  0  0  0  0  0  0  0  0  0  0  0
    6.0571   -2.8872   -0.9036 H   0  0  0  0  0  0  0  0  0  0  0  0
    7.5744   -1.1330    1.0853 H   0  0  0  0  0  0  0  0  0  0  0  0
    5.9236   -1.8744    1.4048 H   0  0  0  0  0  0  0  0  0  0  0  0
   -6.2992   -1.5328   -3.1597 H   0  0  0  0  0  0  0  0  0  0  0  0
   -8.3971   -2.2440   -4.4131 H   0  0  0  0  0  0  0  0  0  0  0  0
   -9.0518    0.5907   -0.7470 H   0  0  0  0  0  0  0  0  0  0  0  0
  1  2  1  0
  2  3  1  0
  3  4  1  0
  4  5  2  0
  4  6  1  0
  6  7  1  0
  7  8  1  0
  8  9  1  0
  9 10  2  0
 10 11  1  0
 11 12  1  0
 12 13  2  0
 13 14  1  0
 14 15  2  0
 15 16  1  0
 16 17  2  0
 15 18  1  0
 18 19  1  0
 19 20  1  0
 20 21  1  0
 21 22  1  0
 22 23  1  0
 10 24  1  0
 24 25  1  0
 25 26  1  0
 25 27  1  0
 25 28  1  0
  3 29  1  0
 29 30  2  0
 30 31  1  0
 31 32  2  0
 32 33  1  0
 33 34  1  0
 33 35  2  0
 32 36  1  0
 36 37  2  0
 24  7  2  0
 37 29  1  0
 17 12  1  0
 23 18  1  0
  1 38  1  0
  1 39  1  0
  1 40  1  0
  2 41  1  0
  2 42  1  0
  3 43  1  0
  6 44  1  0
 11 45  1  0
 11 46  1  0
 13 47  1  0
 14 48  1  0
 16 49  1  0
 17 50  1  0
 19 51  1  0
 19 52  1  0
 20 53  1  0
 20 54  1  0
 22 55  1  0
 22 56  1  0
 23 57  1  0
 23 58  1  0
 31 59  1  0
 34 60  1  0
 36 61  1  0
M  END
$$$$
[H]OC(=O)[C@]([H])(C(=O)N1C([H])([H])C([H])([H])N(c2c([H])c([H])c(C(F)(F)F)c([H])c2[H])C([H])([H])C1([H])[H])[C@@]([H])(C([H])([H])[H])[C@@]1([H])C([H])([H])[C@@]1([H])c1nc([H])c([H])c([H])c1[H]
     RDKit          3D

 59 62  0  0  0  0  0  0  0  0999 V2000
   -2.4388   -2.0336   -1.0285 C   0  0  0  0  0  0  0  0  0  0  0  0
   -2.4813   -0.5020   -1.0281 C   0  0  2  0  0  0  0  0  0  0  0  0
   -2.1603    0.0943    0.2540 C   0  0  1  0  0  0  0  0  0  0  0  0
   -0.8535   -0.5017    0.7454 C   0  0  0  0  0  0  0  0  0  0  0  0
   -0.9790   -1.0910    1.8794 O   0  0  0  0  0  0  0  0  0  0  0  0
    0.3973   -0.5020    0.1571 N   0  0  0  0  0  0  0  0  0  0  0  0
    0.9445    0.0771   -1.0025 C   0  0  0  0  0  0  0  0  0  0  0  0
    2.3721    0.6097   -0.8358 C   0  0  0  0  0  0  0  0  0  0  0  0
    3.2187   -0.3739   -0.2148 N   0  0  0  0  0  0  0  0  0  0  0  0
    2.5963   -1.6664    0.0927 C   0  0  0  0  0  0  0  0  0  0  0  0
    1.3831   -1.3926    0.8956 C   0  0  0  0  0  0  0  0  0  0  0  0
    4.5729   -0.1148    0.0666 C   0  0  0  0  0  0  0  0  0  0  0  0
    5.4784    0.4753   -0.7896 C   0  0  0  0  0  0  0  0  0  0  0  0
    6.7769    0.7224   -0.4674 C   0  0  0  0  0  0  0  0  0  0  0  0
    7.2100    0.3596    0.7973 C   0  0  0  0  0  0  0  0  0  0  0  0
    6.3496   -0.2348    1.7017 C   0  0  0  0  0  0  0  0  0  0  0  0
    5.0530   -0.4671    1.3377 C   0  0  0  0  0  0  0  0  0  0  0  0
    8.6181    0.5613    1.2246 C   0  0  0  0  0  0  0  0  0  0  0  0
    9.0652   -0.6009    1.8363 F   0  0  0  0  0  0  0  0  0  0  0  0
    9.4053    0.9109    0.1340 F   0  0  0  0  0  0  0  0  0  0  0  0
    8.6126    1.6021    2.1503 F   0  0  0  0  0  0  0  0  0  0  0  0
   -1.6648    1.5412    0.0441 C   0  0  0  0  0  0  0  0  0  0  0  0
   -2.1440    2.3616   -0.9141 O   0  0  0  0  0  0  0  0  0  0  0  0
   -0.7915    1.9240    0.8194 O   0  0  0  0  0  0  0  0  0  0  0  0
   -3.4961    0.0027   -1.9788 C   0  0  1  0  0  0  0  0  0  0  0  0
   -4.8576   -0.7026   -1.9813 C   0  0  0  0  0  0  0  0  0  0  0  0
   -4.7168    0.7022   -1.4976 C   0  0  1  0  0  0  0  0  0  0  0  0
   -5.3074    0.9715   -0.2114 C   0  0  0  0  0  0  0  0  0  0  0  0
   -6.1232   -0.0109    0.3724 C   0  0  0  0  0  0  0  0  0  0  0  0
   -6.7598    0.1913    1.5875 C   0  0  0  0  0  0  0  0  0  0  0  0
   -6.5841    1.3882    2.2411 C   0  0  0  0  0  0  0  0  0  0  0  0
   -5.7741    2.3579    1.6635 C   0  0  0  0  0  0  0  0  0  0  0  0
   -5.2053    2.0760    0.4976 N   0  0  0  0  0  0  0  0  0  0  0  0
   -2.5324   -2.3950   -2.0570 H   0  0  0  0  0  0  0  0  0  0  0  0
   -1.4660   -2.3328   -0.6244 H   0  0  0  0  0  0  0  0  0  0  0  0
   -3.1791   -2.4431   -0.3061 H   0  0  0  0  0  0  0  0  0  0  0  0
   -1.4624   -0.3321   -1.6388 H   0  0  0  0  0  0  0  0  0  0  0  0
   -2.9023    0.0249    1.0059 H   0  0  0  0  0  0  0  0  0  0  0  0
    1.0631   -0.7721   -1.7537 H   0  0  0  0  0  0  0  0  0  0  0  0
    0.4103    0.8504   -1.5301 H   0  0  0  0  0  0  0  0  0  0  0  0
    2.7718    0.7608   -1.8585 H   0  0  0  0  0  0  0  0  0  0  0  0
    2.3815    1.5572   -0.2881 H   0  0  0  0  0  0  0  0  0  0  0  0
    2.4218   -2.2159   -0.8656 H   0  0  0  0  0  0  0  0  0  0  0  0
    3.3219   -2.1873    0.7294 H   0  0  0  0  0  0  0  0  0  0  0  0
    0.8603   -2.3903    1.0499 H   0  0  0  0  0  0  0  0  0  0  0  0
    1.6061   -0.9762    1.8807 H   0  0  0  0  0  0  0  0  0  0  0  0
    5.1208    0.7598   -1.7775 H   0  0  0  0  0  0  0  0  0  0  0  0
    7.4962    1.1783   -1.1408 H   0  0  0  0  0  0  0  0  0  0  0  0
    6.7113   -0.5056    2.6675 H   0  0  0  0  0  0  0  0  0  0  0  0
    4.4018   -0.9286    2.0704 H   0  0  0  0  0  0  0  0  0  0  0  0
   -1.8716    2.4143   -1.8698 H   0  0  0  0  0  0  0  0  0  0  0  0
   -3.1305    0.3164   -2.9914 H   0  0  0  0  0  0  0  0  0  0  0  0
   -5.0018   -1.4986   -1.2605 H   0  0  0  0  0  0  0  0  0  0  0  0
   -5.3211   -0.8771   -2.9855 H   0  0  0  0  0  0  0  0  0  0  0  0
   -5.0688    1.4825   -2.2639 H   0  0  0  0  0  0  0  0  0  0  0  0
   -6.3278   -0.9741   -0.0748 H   0  0  0  0  0  0  0  0  0  0  0  0
   -7.4006   -0.5819    2.0174 H   0  0  0  0  0  0  0  0  0  0  0  0
   -7.0377    1.6310    3.1753 H   0  0  0  0  0  0  0  0  0  0  0  0
   -5.5810    3.3122    2.1417 H   0  0  0  0  0  0  0  0  0  0  0  0
  1  2  1  0
  2  3  1  0
  3  4  1  0
  4  5  2  0
  4  6  1  0
  6  7  1  0
  7  8  1  0
  8  9  1  0
  9 10  1  0
 10 11  1  0
  9 12  1  0
 12 13  2  0
 13 14  1  0
 14 15  2  0
 15 16  1  0
 16 17  2  0
 15 18  1  0
 18 19  1  0
 18 20  1  0
 18 21  1  0
  3 22  1  0
 22 23  1  0
 22 24  2  0
  2 25  1  0
 25 26  1  0
 26 27  1  0
 27 28  1  0
 28 29  2  0
 29 30  1  0
 30 31  2  0
 31 32  1  0
 32 33  2  0
 11  6  1  0
 17 12  1  0
 27 25  1  0
 33 28  1  0
  1 34  1  0
  1 35  1  0
  1 36  1  0
  2 37  1  6
  3 38  1  1
  7 39  1  0
  7 40  1  0
  8 41  1  0
  8 42  1  0
 10 43  1  0
 10 44  1  0
 11 45  1  0
 11 46  1  0
 13 47  1  0
 14 48  1  0
 16 49  1  0
 17 50  1  0
 23 51  1  0
 25 52  1  6
 26 53  1  0
 26 54  1  0
 27 55  1  6
 29 56  1  0
 30 57  1  0
 31 58  1  0
 32 59  1  0
M  END
$$$$
