[H]c1nc(N([H])c2c([H])c([H])c3nc([H])n([C@]([H])(c4c([H])c([H])c([H])c([H])c4[H])C([H])([H])[H])c3c2[H])c(Cl)c([H])c1[H]
     RDKit          3D

 42 45  0  0  0  0  0  0  0  0999 V2000
   -2.9535   -1.1341   -1.7687 C   0  0  0  0  0  0  0  0  0  0  0  0
   -2.3755   -0.3553   -0.5840 C   0  0  1  0  0  0  0  0  0  0  0  0
   -3.5050    0.2334    0.1550 C   0  0  0  0  0  0  0  0  0  0  0  0
   -3.4528    1.4322    0.8282 C   0  0  0  0  0  0  0  0  0  0  0  0
   -4.5370    1.9466    1.5088 C   0  0  0  0  0  0  0  0  0  0  0  0
   -5.7127    1.2374    1.5158 C   0  0  0  0  0  0  0  0  0  0  0  0
   -5.7914    0.0258    0.8446 C   0  0  0  0  0  0  0  0  0  0  0  0
   -4.6915   -0.4698    0.1693 C   0  0  0  0  0  0  0  0  0  0  0  0
   -1.5572   -1.2164    0.2088 N   0  0  0  0  0  0  0  0  0  0  0  0
   -1.9011   -2.3095    0.9074 C   0  0  0  0  0  0  0  0  0  0  0  0
   -0.8253   -2.8325    1.5179 N   0  0  0  0  0  0  0  0  0  0  0  0
    0.2442   -2.0725    1.2171 C   0  0  0  0  0  0  0  0  0  0  0  0
    1.5799   -2.1024    1.5362 C   0  0  0  0  0  0  0  0  0  0  0  0
    2.4079   -1.1056    1.0139 C   0  0  0  0  0  0  0  0  0  0  0  0
    1.9853   -0.0940    0.2013 C   0  0  0  0  0  0  0  0  0  0  0  0
    2.7877    0.9262   -0.3699 N   0  0  0  0  0  0  0  0  0  0  0  0
    4.1751    0.8966   -0.4905 C   0  0  0  0  0  0  0  0  0  0  0  0
    5.0058   -0.0796   -0.1389 N   0  0  0  0  0  0  0  0  0  0  0  0
    6.3280   -0.0818   -0.2842 C   0  0  0  0  0  0  0  0  0  0  0  0
    6.9760    1.0149   -0.8541 C   0  0  0  0  0  0  0  0  0  0  0  0
    6.1640    2.0701   -1.2436 C   0  0  0  0  0  0  0  0  0  0  0  0
    4.8001    2.0162   -1.0682 C   0  0  0  0  0  0  0  0  0  0  0  0
    3.8793    3.4145   -1.6014 Cl  0  0  0  0  0  0  0  0  0  0  0  0
    0.6108   -0.0960   -0.1033 C   0  0  0  0  0  0  0  0  0  0  0  0
   -0.2152   -1.0633    0.3992 C   0  0  0  0  0  0  0  0  0  0  0  0
   -3.8308   -0.6393   -2.1835 H   0  0  0  0  0  0  0  0  0  0  0  0
   -2.1058   -1.2408   -2.4861 H   0  0  0  0  0  0  0  0  0  0  0  0
   -3.1618   -2.1533   -1.3917 H   0  0  0  0  0  0  0  0  0  0  0  0
   -1.8137    0.4875   -1.0404 H   0  0  0  0  0  0  0  0  0  0  0  0
   -2.5144    1.9740    0.8086 H   0  0  0  0  0  0  0  0  0  0  0  0
   -4.5030    2.8874    2.0396 H   0  0  0  0  0  0  0  0  0  0  0  0
   -6.5967    1.6084    2.0428 H   0  0  0  0  0  0  0  0  0  0  0  0
   -6.7241   -0.5579    0.8380 H   0  0  0  0  0  0  0  0  0  0  0  0
   -4.7668   -1.4322   -0.3594 H   0  0  0  0  0  0  0  0  0  0  0  0
   -2.9250   -2.6884    0.9481 H   0  0  0  0  0  0  0  0  0  0  0  0
    1.9520   -2.8797    2.1706 H   0  0  0  0  0  0  0  0  0  0  0  0
    3.4474   -1.1609    1.3054 H   0  0  0  0  0  0  0  0  0  0  0  0
    2.2890    1.8031   -0.7417 H   0  0  0  0  0  0  0  0  0  0  0  0
    6.9332   -0.9126    0.0263 H   0  0  0  0  0  0  0  0  0  0  0  0
    8.0401    1.0582   -0.9915 H   0  0  0  0  0  0  0  0  0  0  0  0
    6.6194    2.9456   -1.6917 H   0  0  0  0  0  0  0  0  0  0  0  0
    0.2351    0.6993   -0.7515 H   0  0  0  0  0  0  0  0  0  0  0  0
  1  2  1  0
  2  3  1  0
  3  4  2  0
  4  5  1  0
  5  6  2  0
  6  7  1  0
  7  8  2  0
  2  9  1  0
  9 10  1  0
 10 11  2  0
 11 12  1  0
 12 13  2  0
 13 14  1  0
 14 15  2  0
 15 16  1  0
 16 17  1  0
 17 18  2  0
 18 19  1  0
 19 20  2  0
 20 21  1  0
 21 22  2  0
 22 23  1  0
 15 24  1  0
 24 25  2  0
  8  3  1  0
 25  9  1  0
 25 12  1  0
 22 17  1  0
  1 26  1  0
  1 27  1  0
  1 28  1  0
  2 29  1  6
  4 30  1  0
  5 31  1  0
  6 32  1  0
  7 33  1  0
  8 34  1  0
 10 35  1  0
 13 36  1  0
 14 37  1  0
 16 38  1  0
 19 39  1  0
 20 40  1  0
 21 41  1  0
 24 42  1  0
M  END
$$$$
[H]c1c([H])c(C#N)c([H])c(N2C([H])([H])C([H])([H])N(c3c([H])c([H])c(C#N)c(N([H])C(=O)c4c([H])c([H])c5c(c4[H])c([H])c([H])n5C([H])([H])[H])c3[H])C([H])([H])C2([H])[H])c1[H]
     RDKit          3D

 59 63  0  0  0  0  0  0  0  0999 V2000
   -8.7303    1.7455    3.0244 C   0  0  0  0  0  0  0  0  0  0  0  0
   -8.1336    1.1557    1.8188 N   0  0  0  0  0  0  0  0  0  0  0  0
   -8.7863    0.7036    0.7291 C   0  0  0  0  0  0  0  0  0  0  0  0
   -7.8850    0.2217   -0.1943 C   0  0  0  0  0  0  0  0  0  0  0  0
   -6.6201    0.3813    0.3447 C   0  0  0  0  0  0  0  0  0  0  0  0
   -5.3421    0.0783   -0.1297 C   0  0  0  0  0  0  0  0  0  0  0  0
   -4.2289    0.3475    0.6268 C   0  0  0  0  0  0  0  0  0  0  0  0
   -4.4345    0.9272    1.8689 C   0  0  0  0  0  0  0  0  0  0  0  0
   -5.6932    1.2256    2.3364 C   0  0  0  0  0  0  0  0  0  0  0  0
   -6.8237    0.9577    1.5795 C   0  0  0  0  0  0  0  0  0  0  0  0
   -2.8473    0.0499    0.1620 C   0  0  0  0  0  0  0  0  0  0  0  0
   -1.9870    0.1110    1.0572 O   0  0  0  0  0  0  0  0  0  0  0  0
   -2.5828   -0.2664   -1.1760 N   0  0  0  0  0  0  0  0  0  0  0  0
   -1.3188   -0.5638   -1.7143 C   0  0  0  0  0  0  0  0  0  0  0  0
   -0.1275   -0.6007   -1.0351 C   0  0  0  0  0  0  0  0  0  0  0  0
    1.0768   -0.9110   -1.6804 C   0  0  0  0  0  0  0  0  0  0  0  0
    1.0453   -1.1829   -3.0286 C   0  0  0  0  0  0  0  0  0  0  0  0
   -0.1307   -1.1566   -3.7469 C   0  0  0  0  0  0  0  0  0  0  0  0
   -1.3009   -0.8506   -3.0990 C   0  0  0  0  0  0  0  0  0  0  0  0
   -2.5252   -0.8273   -3.8671 C   0  0  0  0  0  0  0  0  0  0  0  0
   -3.5078   -0.8254   -4.4721 N   0  0  0  0  0  0  0  0  0  0  0  0
    2.2962   -0.9232   -0.9485 N   0  0  0  0  0  0  0  0  0  0  0  0
    2.4631   -0.1629    0.2873 C   0  0  0  0  0  0  0  0  0  0  0  0
    3.6323    0.7910   -0.0072 C   0  0  0  0  0  0  0  0  0  0  0  0
    4.8232    0.0323   -0.2769 N   0  0  0  0  0  0  0  0  0  0  0  0
    4.7102   -0.8354   -1.4622 C   0  0  0  0  0  0  0  0  0  0  0  0
    3.4535   -1.6946   -1.3479 C   0  0  0  0  0  0  0  0  0  0  0  0
    5.9981    0.0776    0.4990 C   0  0  0  0  0  0  0  0  0  0  0  0
    5.9817    0.6384    1.7649 C   0  0  0  0  0  0  0  0  0  0  0  0
    7.1280    0.7154    2.5656 C   0  0  0  0  0  0  0  0  0  0  0  0
    8.3079    0.2143    2.0707 C   0  0  0  0  0  0  0  0  0  0  0  0
    8.3578   -0.3502    0.8146 C   0  0  0  0  0  0  0  0  0  0  0  0
    7.1924   -0.4096    0.0432 C   0  0  0  0  0  0  0  0  0  0  0  0
    9.6131   -0.8576    0.3467 C   0  0  0  0  0  0  0  0  0  0  0  0
   10.6353   -1.2592   -0.0255 N   0  0  0  0  0  0  0  0  0  0  0  0
   -8.9550    0.9156    3.7257 H   0  0  0  0  0  0  0  0  0  0  0  0
   -8.0236    2.4198    3.5263 H   0  0  0  0  0  0  0  0  0  0  0  0
   -9.6741    2.2400    2.7187 H   0  0  0  0  0  0  0  0  0  0  0  0
   -9.8669    0.7385    0.6445 H   0  0  0  0  0  0  0  0  0  0  0  0
   -8.1095   -0.1978   -1.1487 H   0  0  0  0  0  0  0  0  0  0  0  0
   -5.2571   -0.3682   -1.0890 H   0  0  0  0  0  0  0  0  0  0  0  0
   -3.5775    1.1554    2.4978 H   0  0  0  0  0  0  0  0  0  0  0  0
   -5.8713    1.6834    3.3148 H   0  0  0  0  0  0  0  0  0  0  0  0
   -3.4335   -0.2752   -1.8391 H   0  0  0  0  0  0  0  0  0  0  0  0
   -0.1088   -0.3982    0.0007 H   0  0  0  0  0  0  0  0  0  0  0  0
    1.9997   -1.4203   -3.5297 H   0  0  0  0  0  0  0  0  0  0  0  0
   -0.0970   -1.3800   -4.8107 H   0  0  0  0  0  0  0  0  0  0  0  0
    1.5888    0.4114    0.5837 H   0  0  0  0  0  0  0  0  0  0  0  0
    2.8465   -0.8403    1.0911 H   0  0  0  0  0  0  0  0  0  0  0  0
    3.6730    1.5078    0.7977 H   0  0  0  0  0  0  0  0  0  0  0  0
    3.3174    1.3387   -0.9299 H   0  0  0  0  0  0  0  0  0  0  0  0
    5.5370   -1.5589   -1.5395 H   0  0  0  0  0  0  0  0  0  0  0  0
    4.6621   -0.2148   -2.3712 H   0  0  0  0  0  0  0  0  0  0  0  0
    3.3145   -2.2209   -2.2982 H   0  0  0  0  0  0  0  0  0  0  0  0
    3.6913   -2.4227   -0.5319 H   0  0  0  0  0  0  0  0  0  0  0  0
    5.0685    1.0202    2.1415 H   0  0  0  0  0  0  0  0  0  0  0  0
    7.0831    1.1621    3.5562 H   0  0  0  0  0  0  0  0  0  0  0  0
    9.2081    0.2726    2.6946 H   0  0  0  0  0  0  0  0  0  0  0  0
    7.2750   -0.8529   -0.9336 H   0  0  0  0  0  0  0  0  0  0  0  0
  1  2  1  0
  2  3  1  0
  3  4  2  0
  4  5  1  0
  5  6  2  0
  6  7  1  0
  7  8  2  0
  8  9  1  0
  9 10  2  0
  7 11  1  0
 11 12  2  0
 11 13  1  0
 13 14  1  0
 14 15  2  0
 15 16  1  0
 16 17  2  0
 17 18  1  0
 18 19  2  0
 19 20  1  0
 20 21  3  0
 16 22  1  0
 22 23  1  0
 23 24  1  0
 24 25  1  0
 25 26  1  0
 26 27  1  0
 25 28  1  0
 28 29  2  0
 29 30  1  0
 30 31  2  0
 31 32  1  0
 32 33  2  0
 32 34  1  0
 34 35  3  0
 10  2  1  0
 19 14  1  0
 27 22  1  0
 33 28  1  0
 10  5  1  0
  1 36  1  0
  1 37  1  0
  1 38  1  0
  3 39  1  0
  4 40  1  0
  6 41  1  0
  8 42  1  0
  9 43  1  0
 13 44  1  0
 15 45  1  0
 17 46  1  0
 18 47  1  0
 23 48  1  0
 23 49  1  0
 24 50  1  0
 24 51  1  0
 26 52  1  0
 26 53  1  0
 27 54  1  0
 27 55  1  0
 29 56  1  0
 30 57  1  0
 31 58  1  0
 33 59  1  0
M  END
$$$$
[H]c1c([H])c(S(=O)(=O)N([H])C([H])([H])c2c([H])c3c([H])c(Cl)c([H])c([H])c3n2[H])c([H])c([H])c1F
     RDKit          3D

 34 36  0  0  0  0  0  0  0  0999 V2000
   -5.5742    2.9953    0.3280 F   0  0  0  0  0  0  0  0  0  0  0  0
   -4.8420    1.8526    0.2777 C   0  0  0  0  0  0  0  0  0  0  0  0
   -4.7506    1.1239   -0.8903 C   0  0  0  0  0  0  0  0  0  0  0  0
   -4.0163   -0.0405   -0.9770 C   0  0  0  0  0  0  0  0  0  0  0  0
   -3.3299   -0.5290    0.1313 C   0  0  0  0  0  0  0  0  0  0  0  0
   -3.4267    0.2057    1.2947 C   0  0  0  0  0  0  0  0  0  0  0  0
   -4.1626    1.3699    1.3765 C   0  0  0  0  0  0  0  0  0  0  0  0
   -2.3994   -2.0021    0.0283 S   0  0  0  0  0  0  0  0  0  0  0  0
   -3.0143   -2.9374   -0.9838 O   0  0  0  0  0  0  0  0  0  0  0  0
   -2.4004   -2.7412    1.3485 O   0  0  0  0  0  0  0  0  0  0  0  0
   -0.7644   -1.6238   -0.4493 N   0  0  0  0  0  0  0  0  0  0  0  0
   -0.2093   -0.7832    0.5683 C   0  0  0  0  0  0  0  0  0  0  0  0
    1.2075   -0.4167    0.2188 C   0  0  0  0  0  0  0  0  0  0  0  0
    1.9364   -0.7887   -0.8891 C   0  0  0  0  0  0  0  0  0  0  0  0
    3.2047   -0.2469   -0.8479 C   0  0  0  0  0  0  0  0  0  0  0  0
    4.3172   -0.2841   -1.6604 C   0  0  0  0  0  0  0  0  0  0  0  0
    5.4644    0.3929   -1.3138 C   0  0  0  0  0  0  0  0  0  0  0  0
    6.9114    0.3939   -2.2888 Cl  0  0  0  0  0  0  0  0  0  0  0  0
    5.4689    1.1081   -0.1327 C   0  0  0  0  0  0  0  0  0  0  0  0
    4.3723    1.1608    0.6947 C   0  0  0  0  0  0  0  0  0  0  0  0
    3.2232    0.4824    0.3470 C   0  0  0  0  0  0  0  0  0  0  0  0
    2.0198    0.3603    0.9571 N   0  0  0  0  0  0  0  0  0  0  0  0
   -5.2786    1.4910   -1.7598 H   0  0  0  0  0  0  0  0  0  0  0  0
   -3.9485   -0.6124   -1.9055 H   0  0  0  0  0  0  0  0  0  0  0  0
   -2.8891   -0.1824    2.1520 H   0  0  0  0  0  0  0  0  0  0  0  0
   -4.2220    1.9320    2.3107 H   0  0  0  0  0  0  0  0  0  0  0  0
   -0.2051   -2.4861   -0.5736 H   0  0  0  0  0  0  0  0  0  0  0  0
   -0.1970   -1.2403    1.5688 H   0  0  0  0  0  0  0  0  0  0  0  0
   -0.8320    0.1447    0.6442 H   0  0  0  0  0  0  0  0  0  0  0  0
    1.5621   -1.4176   -1.6776 H   0  0  0  0  0  0  0  0  0  0  0  0
    4.2927   -0.8477   -2.5770 H   0  0  0  0  0  0  0  0  0  0  0  0
    6.3641    1.6387    0.1416 H   0  0  0  0  0  0  0  0  0  0  0  0
    4.3587    1.7161    1.6233 H   0  0  0  0  0  0  0  0  0  0  0  0
    1.7587    0.8118    1.8808 H   0  0  0  0  0  0  0  0  0  0  0  0
  1  2  1  0
  2  3  2  0
  3  4  1  0
  4  5  2  0
  5  6  1  0
  6  7  2  0
  5  8  1  0
  8  9  2  0
  8 10  2  0
  8 11  1  0
 11 12  1  0
 12 13  1  0
 13 14  2  0
 14 15  1  0
 15 16  2  0
 16 17  1  0
 17 18  1  0
 17 19  2  0
 19 20  1  0
 20 21  2  0
 21 22  1  0
  7  2  1  0
 22 13  1  0
 21 15  1  0
  3 23  1  0
  4 24  1  0
  6 25  1  0
  7 26  1  0
 11 27  1  0
 12 28  1  0
 12 29  1  0
 14 30  1  0
 16 31  1  0
 19 32  1  0
 20 33  1  0
 22 34  1  0
M  END
$$$$
[H]c1c(OC([H])([H])[H])c(N([H])C(=O)C2([H])C([H])([H])C([H])([H])N(C([H])([H])[H])C([H])([H])C2([H])[H])c([H])n2nc(C3([H])C([H])([H])C([H])([H])C4(C(=O)N([H])C(=O)N4[H])C([H])([H])C3([H])[H])c(C#N)c12
     RDKit          3D

 64 68  0  0  0  0  0  0  0  0999 V2000
   -1.5780   -3.6391   -3.6379 C   0  0  0  0  0  0  0  0  0  0  0  0
   -1.8582   -3.1271   -2.3505 O   0  0  0  0  0  0  0  0  0  0  0  0
   -1.0969   -2.1142   -1.7923 C   0  0  0  0  0  0  0  0  0  0  0  0
   -0.0535   -1.5964   -2.4946 C   0  0  0  0  0  0  0  0  0  0  0  0
    0.6832   -0.6026   -1.9312 C   0  0  0  0  0  0  0  0  0  0  0  0
    1.7853    0.1431   -2.3386 C   0  0  0  0  0  0  0  0  0  0  0  0
    2.4354   -0.0102   -3.5945 C   0  0  0  0  0  0  0  0  0  0  0  0
    2.9826   -0.1279   -4.6098 N   0  0  0  0  0  0  0  0  0  0  0  0
    2.1046    1.0194   -1.3419 C   0  0  0  0  0  0  0  0  0  0  0  0
    1.2156    0.8085   -0.3549 N   0  0  0  0  0  0  0  0  0  0  0  0
    0.3799   -0.1484   -0.7071 N   0  0  0  0  0  0  0  0  0  0  0  0
   -0.6734   -0.6739   -0.0028 C   0  0  0  0  0  0  0  0  0  0  0  0
   -1.4610   -1.6743   -0.5009 C   0  0  0  0  0  0  0  0  0  0  0  0
   -2.5640   -2.2852    0.1369 N   0  0  0  0  0  0  0  0  0  0  0  0
   -3.0523   -1.9430    1.4004 C   0  0  0  0  0  0  0  0  0  0  0  0
   -2.5884   -1.0632    2.1299 O   0  0  0  0  0  0  0  0  0  0  0  0
   -4.2466   -2.6697    1.9862 C   0  0  0  0  0  0  0  0  0  0  0  0
   -5.4444   -2.5084    1.0863 C   0  0  0  0  0  0  0  0  0  0  0  0
   -6.6245   -2.0999    1.9390 C   0  0  0  0  0  0  0  0  0  0  0  0
   -6.3499   -0.8381    2.6174 N   0  0  0  0  0  0  0  0  0  0  0  0
   -7.5145   -0.2975    3.2507 C   0  0  0  0  0  0  0  0  0  0  0  0
   -5.2213   -0.9402    3.4912 C   0  0  0  0  0  0  0  0  0  0  0  0
   -4.5316   -2.2639    3.3887 C   0  0  0  0  0  0  0  0  0  0  0  0
    3.1677    1.9993   -1.2889 C   0  0  0  0  0  0  0  0  0  0  0  0
    3.1489    2.8783   -0.0781 C   0  0  0  0  0  0  0  0  0  0  0  0
    4.3790    3.6394    0.2025 C   0  0  0  0  0  0  0  0  0  0  0  0
    5.6523    3.1571   -0.3556 C   0  0  0  0  0  0  0  0  0  0  0  0
    5.5479    2.2941   -1.5863 C   0  0  0  0  0  0  0  0  0  0  0  0
    4.4889    1.2549   -1.2915 C   0  0  0  0  0  0  0  0  0  0  0  0
    6.5183    4.2813   -0.7086 N   0  0  0  0  0  0  0  0  0  0  0  0
    7.8707    3.9793   -0.4490 C   0  0  0  0  0  0  0  0  0  0  0  0
    8.8457    4.6246   -0.9099 O   0  0  0  0  0  0  0  0  0  0  0  0
    7.8607    2.8409    0.4058 N   0  0  0  0  0  0  0  0  0  0  0  0
    6.5137    2.4608    0.6585 C   0  0  0  0  0  0  0  0  0  0  0  0
    6.1837    1.6776    1.5842 O   0  0  0  0  0  0  0  0  0  0  0  0
   -2.1976   -4.5638   -3.7758 H   0  0  0  0  0  0  0  0  0  0  0  0
   -0.4902   -3.8971   -3.6539 H   0  0  0  0  0  0  0  0  0  0  0  0
   -1.8396   -2.8701   -4.3841 H   0  0  0  0  0  0  0  0  0  0  0  0
    0.2392   -1.9211   -3.4848 H   0  0  0  0  0  0  0  0  0  0  0  0
   -0.8753   -0.2737    0.9796 H   0  0  0  0  0  0  0  0  0  0  0  0
   -3.0799   -3.0816   -0.3806 H   0  0  0  0  0  0  0  0  0  0  0  0
   -3.9493   -3.7453    1.9757 H   0  0  0  0  0  0  0  0  0  0  0  0
   -5.2646   -1.7412    0.2956 H   0  0  0  0  0  0  0  0  0  0  0  0
   -5.7168   -3.4776    0.6156 H   0  0  0  0  0  0  0  0  0  0  0  0
   -7.5093   -2.0278    1.2862 H   0  0  0  0  0  0  0  0  0  0  0  0
   -6.7700   -2.8727    2.7182 H   0  0  0  0  0  0  0  0  0  0  0  0
   -8.0690    0.2856    2.4658 H   0  0  0  0  0  0  0  0  0  0  0  0
   -7.2905    0.3686    4.0939 H   0  0  0  0  0  0  0  0  0  0  0  0
   -8.2119   -1.0794    3.6146 H   0  0  0  0  0  0  0  0  0  0  0  0
   -4.5320   -0.0937    3.3109 H   0  0  0  0  0  0  0  0  0  0  0  0
   -5.5937   -0.8200    4.5328 H   0  0  0  0  0  0  0  0  0  0  0  0
   -5.1322   -3.0517    3.9100 H   0  0  0  0  0  0  0  0  0  0  0  0
   -3.5883   -2.1776    3.9738 H   0  0  0  0  0  0  0  0  0  0  0  0
    3.1988    2.6808   -2.1810 H   0  0  0  0  0  0  0  0  0  0  0  0
    2.3222    3.6130   -0.2236 H   0  0  0  0  0  0  0  0  0  0  0  0
    2.8596    2.2307    0.7887 H   0  0  0  0  0  0  0  0  0  0  0  0
    4.5023    3.6750    1.3276 H   0  0  0  0  0  0  0  0  0  0  0  0
    4.2660    4.7324   -0.0667 H   0  0  0  0  0  0  0  0  0  0  0  0
    6.5114    1.7932   -1.7459 H   0  0  0  0  0  0  0  0  0  0  0  0
    5.2194    2.9383   -2.4192 H   0  0  0  0  0  0  0  0  0  0  0  0
    4.6560    0.9123   -0.2350 H   0  0  0  0  0  0  0  0  0  0  0  0
    4.4896    0.4235   -1.9871 H   0  0  0  0  0  0  0  0  0  0  0  0
    6.1939    5.1963   -1.1027 H   0  0  0  0  0  0  0  0  0  0  0  0
    8.7461    2.4093    0.7513 H   0  0  0  0  0  0  0  0  0  0  0  0
  1  2  1  0
  2  3  1  0
  3  4  2  0
  4  5  1  0
  5  6  2  0
  6  7  1  0
  7  8  3  0
  6  9  1  0
  9 10  2  0
 10 11  1  0
 11 12  1  0
 12 13  2  0
 13 14  1  0
 14 15  1  0
 15 16  2  0
 15 17  1  0
 17 18  1  0
 18 19  1  0
 19 20  1  0
 20 21  1  0
 20 22  1  0
 22 23  1  0
  9 24  1  0
 24 25  1  0
 25 26  1  0
 26 27  1  0
 27 28  1  0
 28 29  1  0
 27 30  1  0
 30 31  1  0
 31 32  2  0
 31 33  1  0
 33 34  1  0
 34 35  2  0
 13  3  1  0
 23 17  1  0
 29 24  1  0
 11  5  1  0
 34 27  1  0
  1 36  1  0
  1 37  1  0
  1 38  1  0
  4 39  1  0
 12 40  1  0
 14 41  1  0
 17 42  1  0
 18 43  1  0
 18 44  1  0
 19 45  1  0
 19 46  1  0
 21 47  1  0
 21 48  1  0
 21 49  1  0
 22 50  1  0
 22 51  1  0
 23 52  1  0
 23 53  1  0
 24 54  1  0
 25 55  1  0
 25 56  1  0
 26 57  1  0
 26 58  1  0
 28 59  1  0
 28 60  1  0
 29 61  1  0
 29 62  1  0
 30 63  1  0
 33 64  1  0
M  END
$$$$
[H]OC([H])([H])[C@]([H])(N([H])c1c([H])c([H])c2nc([H])c(N([H])[C@]3([H])C([H])([H])C([H])([H])[C@@]([H])(C([H])([H])C(=O)N([H])[H])C([H])([H])C3([H])OC(C([H])([H])[H])(C([H])([H])[H])C([H])([H])[H])c(OC([H])(F)F)c2c1[H])C([H])(C([H])([H])[H])C([H])([H])[H]
     RDKit          3D

 77 79  0  0  0  0  0  0  0  0999 V2000
   -8.7640   -0.6725    1.2650 C   0  0  0  0  0  0  0  0  0  0  0  0
   -7.2930   -0.4814    0.9045 C   0  0  0  0  0  0  0  0  0  0  0  0
   -6.7836   -1.6915    0.2154 C   0  0  0  0  0  0  0  0  0  0  0  0
   -7.0915    0.7734    0.1126 C   0  0  2  0  0  0  0  0  0  0  0  0
   -7.8588    0.7432   -1.1697 C   0  0  0  0  0  0  0  0  0  0  0  0
   -7.8745    2.0026   -1.7788 O   0  0  0  0  0  0  0  0  0  0  0  0
   -5.7456    1.1701    0.0864 N   0  0  0  0  0  0  0  0  0  0  0  0
   -4.5981    0.6645   -0.5588 C   0  0  0  0  0  0  0  0  0  0  0  0
   -4.5889   -0.0352   -1.7274 C   0  0  0  0  0  0  0  0  0  0  0  0
   -3.4193   -0.5205   -2.3017 C   0  0  0  0  0  0  0  0  0  0  0  0
   -2.2263   -0.2808   -1.6583 C   0  0  0  0  0  0  0  0  0  0  0  0
   -1.0674   -0.7425   -2.2105 N   0  0  0  0  0  0  0  0  0  0  0  0
    0.1239   -0.5432   -1.6503 C   0  0  0  0  0  0  0  0  0  0  0  0
    0.2101    0.1621   -0.4521 C   0  0  0  0  0  0  0  0  0  0  0  0
    1.4785    0.4176    0.1046 N   0  0  0  0  0  0  0  0  0  0  0  0
    2.6822   -0.1829   -0.4067 C   0  0  2  0  0  0  0  0  0  0  0  0
    2.6264   -1.6470   -0.0081 C   0  0  0  0  0  0  0  0  0  0  0  0
    3.7449   -2.4608   -0.6211 C   0  0  0  0  0  0  0  0  0  0  0  0
    5.0245   -1.7920   -0.2354 C   0  0  1  0  0  0  0  0  0  0  0  0
    6.2610   -2.5363   -0.6126 C   0  0  0  0  0  0  0  0  0  0  0  0
    6.3818   -3.8672    0.0115 C   0  0  0  0  0  0  0  0  0  0  0  0
    7.4825   -4.7412   -0.3182 N   0  0  0  0  0  0  0  0  0  0  0  0
    5.5758   -4.3237    0.8393 O   0  0  0  0  0  0  0  0  0  0  0  0
    5.0475   -0.3688   -0.7842 C   0  0  0  0  0  0  0  0  0  0  0  0
    3.9632    0.4216    0.0587 C   0  0  0  0  0  0  0  0  0  0  0  0
    4.0395    1.7304   -0.3079 O   0  0  0  0  0  0  0  0  0  0  0  0
    4.4869    2.6557    0.5643 C   0  0  0  0  0  0  0  0  0  0  0  0
    3.7835    2.8601    1.8496 C   0  0  0  0  0  0  0  0  0  0  0  0
    4.3985    4.0085   -0.1776 C   0  0  0  0  0  0  0  0  0  0  0  0
    5.9845    2.5158    0.8612 C   0  0  0  0  0  0  0  0  0  0  0  0
   -0.9305    0.6583    0.1649 C   0  0  0  0  0  0  0  0  0  0  0  0
   -0.9099    1.3602    1.3576 O   0  0  0  0  0  0  0  0  0  0  0  0
   -1.0118    0.8342    2.6422 C   0  0  0  0  0  0  0  0  0  0  0  0
    0.1985    0.8859    3.3654 F   0  0  0  0  0  0  0  0  0  0  0  0
   -2.0089    1.4176    3.3929 F   0  0  0  0  0  0  0  0  0  0  0  0
   -2.1567    0.4275   -0.4586 C   0  0  0  0  0  0  0  0  0  0  0  0
   -3.3421    0.8698    0.0395 C   0  0  0  0  0  0  0  0  0  0  0  0
   -8.7917   -1.5483    1.9596 H   0  0  0  0  0  0  0  0  0  0  0  0
   -9.1197    0.1921    1.8263 H   0  0  0  0  0  0  0  0  0  0  0  0
   -9.3713   -0.9501    0.3973 H   0  0  0  0  0  0  0  0  0  0  0  0
   -6.7772   -0.3585    1.8984 H   0  0  0  0  0  0  0  0  0  0  0  0
   -7.3314   -2.5693    0.6797 H   0  0  0  0  0  0  0  0  0  0  0  0
   -5.7131   -1.9332    0.3993 H   0  0  0  0  0  0  0  0  0  0  0  0
   -7.0308   -1.6783   -0.8418 H   0  0  0  0  0  0  0  0  0  0  0  0
   -7.6443    1.6040    0.7114 H   0  0  0  0  0  0  0  0  0  0  0  0
   -7.7077   -0.0880   -1.8400 H   0  0  0  0  0  0  0  0  0  0  0  0
   -8.9545    0.6210   -0.8334 H   0  0  0  0  0  0  0  0  0  0  0  0
   -7.5027    1.9174   -2.6871 H   0  0  0  0  0  0  0  0  0  0  0  0
   -5.5481    2.0740    0.7008 H   0  0  0  0  0  0  0  0  0  0  0  0
   -5.4908   -0.2312   -2.2486 H   0  0  0  0  0  0  0  0  0  0  0  0
   -3.4279   -1.0757   -3.2325 H   0  0  0  0  0  0  0  0  0  0  0  0
    0.9820   -0.9445   -2.1661 H   0  0  0  0  0  0  0  0  0  0  0  0
    1.5534    1.0605    0.9027 H   0  0  0  0  0  0  0  0  0  0  0  0
    2.7162   -0.0992   -1.5378 H   0  0  0  0  0  0  0  0  0  0  0  0
    1.6714   -2.0972   -0.2069 H   0  0  0  0  0  0  0  0  0  0  0  0
    2.8310   -1.6473    1.0996 H   0  0  0  0  0  0  0  0  0  0  0  0
    3.6520   -3.4694   -0.2505 H   0  0  0  0  0  0  0  0  0  0  0  0
    3.6462   -2.4988   -1.7281 H   0  0  0  0  0  0  0  0  0  0  0  0
    5.0549   -1.6826    0.8817 H   0  0  0  0  0  0  0  0  0  0  0  0
    7.1588   -1.9329   -0.3134 H   0  0  0  0  0  0  0  0  0  0  0  0
    6.3229   -2.6605   -1.7358 H   0  0  0  0  0  0  0  0  0  0  0  0
    7.7208   -4.9239   -1.3140 H   0  0  0  0  0  0  0  0  0  0  0  0
    8.0029   -5.1612    0.4553 H   0  0  0  0  0  0  0  0  0  0  0  0
    4.7132   -0.3416   -1.8285 H   0  0  0  0  0  0  0  0  0  0  0  0
    6.0348    0.0408   -0.5979 H   0  0  0  0  0  0  0  0  0  0  0  0
    4.1630    0.1720    1.0977 H   0  0  0  0  0  0  0  0  0  0  0  0
    4.2400    3.7361    2.3555 H   0  0  0  0  0  0  0  0  0  0  0  0
    2.7076    3.1402    1.6967 H   0  0  0  0  0  0  0  0  0  0  0  0
    3.8788    2.0125    2.5641 H   0  0  0  0  0  0  0  0  0  0  0  0
    5.0464    3.9594   -1.0807 H   0  0  0  0  0  0  0  0  0  0  0  0
    3.3415    4.1895   -0.4711 H   0  0  0  0  0  0  0  0  0  0  0  0
    4.7286    4.7839    0.5237 H   0  0  0  0  0  0  0  0  0  0  0  0
    6.2927    3.3281    1.5448 H   0  0  0  0  0  0  0  0  0  0  0  0
    6.2069    1.5533    1.3384 H   0  0  0  0  0  0  0  0  0  0  0  0
    6.5000    2.6663   -0.1038 H   0  0  0  0  0  0  0  0  0  0  0  0
   -1.2268   -0.2755    2.6356 H   0  0  0  0  0  0  0  0  0  0  0  0
   -3.3513    1.4241    0.9442 H   0  0  0  0  0  0  0  0  0  0  0  0
  1  2  1  0
  2  3  1  0
  2  4  1  0
  4  5  1  0
  5  6  1  0
  4  7  1  0
  7  8  1  0
  8  9  2  0
  9 10  1  0
 10 11  2  0
 11 12  1  0
 12 13  2  0
 13 14  1  0
 14 15  1  0
 15 16  1  0
 16 17  1  0
 17 18  1  0
 18 19  1  0
 19 20  1  0
 20 21  1  0
 21 22  1  0
 21 23  2  0
 19 24  1  0
 24 25  1  0
 25 26  1  0
 26 27  1  0
 27 28  1  0
 27 29  1  0
 27 30  1  0
 14 31  2  0
 31 32  1  0
 32 33  1  0
 33 34  1  0
 33 35  1  0
 31 36  1  0
 36 37  2  0
 37  8  1  0
 36 11  1  0
 25 16  1  0
  1 38  1  0
  1 39  1  0
  1 40  1  0
  2 41  1  0
  3 42  1  0
  3 43  1  0
  3 44  1  0
  4 45  1  1
  5 46  1  0
  5 47  1  0
  6 48  1  0
  7 49  1  0
  9 50  1  0
 10 51  1  0
 13 52  1  0
 15 53  1  0
 16 54  1  6
 17 55  1  0
 17 56  1  0
 18 57  1  0
 18 58  1  0
 19 59  1  1
 20 60  1  0
 20 61  1  0
 22 62  1  0
 22 63  1  0
 24 64  1  0
 24 65  1  0
 25 66  1  0
 28 67  1  0
 28 68  1  0
 28 69  1  0
 29 70  1  0
 29 71  1  0
 29 72  1  0
 30 73  1  0
 30 74  1  0
 30 75  1  0
 33 76  1  0
 37 77  1  0
M  END
$$$$
[H]c1nc(N([H])c2nc3c([H])c(N([H])C(=O)C4([H])C([H])([H])C([H])([H])S(=O)(=O)C([H])([H])C4([H])[H])c(C(C([H])([H])[H])(C([H])([H])[H])C([H])([H])[H])c([H])c3s2)c([H])c([H])c1C#N
     RDKit          3D

 58 61  0  0  0  0  0  0  0  0999 V2000
   -1.7891    1.6479    1.9240 C   0  0  0  0  0  0  0  0  0  0  0  0
   -0.8285    2.1924    0.8979 C   0  0  0  0  0  0  0  0  0  0  0  0
   -1.5592    3.1599   -0.0575 C   0  0  0  0  0  0  0  0  0  0  0  0
    0.0935    3.1339    1.6881 C   0  0  0  0  0  0  0  0  0  0  0  0
   -0.0253    1.2008    0.2065 C   0  0  0  0  0  0  0  0  0  0  0  0
    1.3385    1.2206    0.4806 C   0  0  0  0  0  0  0  0  0  0  0  0
    2.2272    0.2863   -0.0335 C   0  0  0  0  0  0  0  0  0  0  0  0
    3.9005   -0.0238    0.0645 S   0  0  0  0  0  0  0  0  0  0  0  0
    3.9529   -1.4259   -0.9476 C   0  0  0  0  0  0  0  0  0  0  0  0
    5.1113   -2.2029   -1.2973 N   0  0  0  0  0  0  0  0  0  0  0  0
    6.3765   -1.7927   -0.8054 C   0  0  0  0  0  0  0  0  0  0  0  0
    7.5017   -2.5194   -1.1126 C   0  0  0  0  0  0  0  0  0  0  0  0
    8.7371   -2.1216   -0.6459 C   0  0  0  0  0  0  0  0  0  0  0  0
    8.8359   -0.9855    0.1332 C   0  0  0  0  0  0  0  0  0  0  0  0
    7.6737   -0.3055    0.4037 C   0  0  0  0  0  0  0  0  0  0  0  0
    6.4902   -0.7004   -0.0520 N   0  0  0  0  0  0  0  0  0  0  0  0
   10.1186   -0.5270    0.6432 C   0  0  0  0  0  0  0  0  0  0  0  0
   11.1256   -0.1593    1.0600 N   0  0  0  0  0  0  0  0  0  0  0  0
    2.7063   -1.5642   -1.2905 N   0  0  0  0  0  0  0  0  0  0  0  0
    1.8031   -0.7177   -0.8483 C   0  0  0  0  0  0  0  0  0  0  0  0
    0.4461   -0.7641   -1.1446 C   0  0  0  0  0  0  0  0  0  0  0  0
   -0.4606    0.1722   -0.6344 C   0  0  0  0  0  0  0  0  0  0  0  0
   -1.7947    0.0024   -0.9314 N   0  0  0  0  0  0  0  0  0  0  0  0
   -3.0947   -0.1658   -1.2267 C   0  0  0  0  0  0  0  0  0  0  0  0
   -3.5282   -0.7148   -2.3507 O   0  0  0  0  0  0  0  0  0  0  0  0
   -4.2976    0.2058   -0.3806 C   0  0  0  0  0  0  0  0  0  0  0  0
   -5.5068    0.2117   -1.2503 C   0  0  0  0  0  0  0  0  0  0  0  0
   -6.7796    0.0703   -0.3925 C   0  0  0  0  0  0  0  0  0  0  0  0
   -6.8133   -1.6874    0.0016 S   0  0  0  0  0  0  0  0  0  0  0  0
   -7.5652   -2.4759   -0.9964 O   0  0  0  0  0  0  0  0  0  0  0  0
   -7.3315   -1.9314    1.3880 O   0  0  0  0  0  0  0  0  0  0  0  0
   -5.0610   -2.1370    0.0360 C   0  0  0  0  0  0  0  0  0  0  0  0
   -4.3824   -0.9147    0.6521 C   0  0  0  0  0  0  0  0  0  0  0  0
   -1.3932    1.7738    2.9524 H   0  0  0  0  0  0  0  0  0  0  0  0
   -1.8650    0.5442    1.7850 H   0  0  0  0  0  0  0  0  0  0  0  0
   -2.7740    2.1538    1.9026 H   0  0  0  0  0  0  0  0  0  0  0  0
   -2.0338    2.6670   -0.8889 H   0  0  0  0  0  0  0  0  0  0  0  0
   -0.7550    3.8614   -0.4461 H   0  0  0  0  0  0  0  0  0  0  0  0
   -2.2047    3.7864    0.5619 H   0  0  0  0  0  0  0  0  0  0  0  0
    0.5512    2.6119    2.5230 H   0  0  0  0  0  0  0  0  0  0  0  0
   -0.6134    3.9486    2.0514 H   0  0  0  0  0  0  0  0  0  0  0  0
    0.7569    3.6608    0.9921 H   0  0  0  0  0  0  0  0  0  0  0  0
    1.7937    1.9700    1.1127 H   0  0  0  0  0  0  0  0  0  0  0  0
    4.9974   -3.0149   -1.8801 H   0  0  0  0  0  0  0  0  0  0  0  0
    7.4290   -3.4119   -1.7277 H   0  0  0  0  0  0  0  0  0  0  0  0
    9.6472   -2.6488   -0.8534 H   0  0  0  0  0  0  0  0  0  0  0  0
    7.7330    0.5918    1.0170 H   0  0  0  0  0  0  0  0  0  0  0  0
    0.0512   -1.5667   -1.7799 H   0  0  0  0  0  0  0  0  0  0  0  0
   -1.4848   -0.1486   -2.2428 H   0  0  0  0  0  0  0  0  0  0  0  0
   -4.1010    1.1709    0.0819 H   0  0  0  0  0  0  0  0  0  0  0  0
   -5.4924   -0.6516   -1.9253 H   0  0  0  0  0  0  0  0  0  0  0  0
   -5.5381    1.1581   -1.8231 H   0  0  0  0  0  0  0  0  0  0  0  0
   -7.6318    0.2830   -1.0429 H   0  0  0  0  0  0  0  0  0  0  0  0
   -6.6619    0.6936    0.4900 H   0  0  0  0  0  0  0  0  0  0  0  0
   -4.9229   -2.9822    0.7012 H   0  0  0  0  0  0  0  0  0  0  0  0
   -4.7167   -2.3559   -0.9794 H   0  0  0  0  0  0  0  0  0  0  0  0
   -5.0211   -0.5629    1.4728 H   0  0  0  0  0  0  0  0  0  0  0  0
   -3.3705   -1.1990    0.9774 H   0  0  0  0  0  0  0  0  0  0  0  0
  1  2  1  0
  2  3  1  0
  2  4  1  0
  2  5  1  0
  5  6  2  0
  6  7  1  0
  7  8  1  0
  8  9  1  0
  9 10  1  0
 10 11  1  0
 11 12  2  0
 12 13  1  0
 13 14  2  0
 14 15  1  0
 15 16  2  0
 14 17  1  0
 17 18  3  0
  9 19  2  0
 19 20  1  0
 20 21  1  0
 21 22  2  0
 22 23  1  0
 23 24  1  0
 24 25  2  0
 24 26  1  0
 26 27  1  0
 27 28  1  0
 28 29  1  0
 29 30  2  0
 29 31  2  0
 29 32  1  0
 32 33  1  0
 22  5  1  0
 33 26  1  0
 20  7  2  0
 16 11  1  0
  1 34  1  0
  1 35  1  0
  1 36  1  0
  3 37  1  0
  3 38  1  0
  3 39  1  0
  4 40  1  0
  4 41  1  0
  4 42  1  0
  6 43  1  0
 10 44  1  0
 12 45  1  0
 13 46  1  0
 15 47  1  0
 21 48  1  0
 23 49  1  0
 26 50  1  0
 27 51  1  0
 27 52  1  0
 28 53  1  0
 28 54  1  0
 32 55  1  0
 32 56  1  0
 33 57  1  0
 33 58  1  0
M  END
$$$$
[H]c1nc(N([H])c2c(OC([H])([H])[H])c([H])c3c(c2[H])c([H])c([H])n3[H])nc(N2C([H])([H])C([H])([H])[C@]([H])(N([H])C(=O)N([H])C([H])([H])[H])C2([H])[H])c1Cl
     RDKit          3D

 51 54  0  0  0  0  0  0  0  0999 V2000
    5.8830   -3.3771    2.8791 C   0  0  0  0  0  0  0  0  0  0  0  0
    5.1450   -2.5727    1.9422 N   0  0  0  0  0  0  0  0  0  0  0  0
    4.6041   -1.3402    2.3428 C   0  0  0  0  0  0  0  0  0  0  0  0
    4.7785   -0.9630    3.5237 O   0  0  0  0  0  0  0  0  0  0  0  0
    3.8655   -0.4955    1.4723 N   0  0  0  0  0  0  0  0  0  0  0  0
    3.3016    0.7605    1.8412 C   0  0  1  0  0  0  0  0  0  0  0  0
    3.9695    1.8375    1.0073 C   0  0  0  0  0  0  0  0  0  0  0  0
    3.0956    1.8720   -0.2194 C   0  0  0  0  0  0  0  0  0  0  0  0
    1.7652    1.8182    0.3548 N   0  0  0  0  0  0  0  0  0  0  0  0
    1.8659    0.9291    1.5006 C   0  0  0  0  0  0  0  0  0  0  0  0
    0.5794    2.4526   -0.0452 C   0  0  0  0  0  0  0  0  0  0  0  0
   -0.5486    1.8286   -0.4010 N   0  0  0  0  0  0  0  0  0  0  0  0
   -1.6821    2.4316   -0.7830 C   0  0  0  0  0  0  0  0  0  0  0  0
   -2.8718    1.7987   -1.1589 N   0  0  0  0  0  0  0  0  0  0  0  0
   -3.1730    0.4287   -1.2302 C   0  0  0  0  0  0  0  0  0  0  0  0
   -2.2892   -0.5652   -0.9234 C   0  0  0  0  0  0  0  0  0  0  0  0
   -2.6175   -1.9310   -1.0039 C   0  0  0  0  0  0  0  0  0  0  0  0
   -1.9227   -3.0956   -0.7553 C   0  0  0  0  0  0  0  0  0  0  0  0
   -2.7852   -4.1667   -1.0153 C   0  0  0  0  0  0  0  0  0  0  0  0
   -3.9541   -3.6420   -1.4059 N   0  0  0  0  0  0  0  0  0  0  0  0
   -3.8615   -2.2988   -1.4017 C   0  0  0  0  0  0  0  0  0  0  0  0
   -4.7683   -1.3097   -1.7159 C   0  0  0  0  0  0  0  0  0  0  0  0
   -4.4428    0.0062   -1.6353 C   0  0  0  0  0  0  0  0  0  0  0  0
   -5.3739    0.9517   -1.9566 O   0  0  0  0  0  0  0  0  0  0  0  0
   -6.6766    0.6129   -2.3739 C   0  0  0  0  0  0  0  0  0  0  0  0
   -1.6938    3.8010   -0.8142 N   0  0  0  0  0  0  0  0  0  0  0  0
   -0.6198    4.4915   -0.4774 C   0  0  0  0  0  0  0  0  0  0  0  0
    0.5343    3.8392   -0.0877 C   0  0  0  0  0  0  0  0  0  0  0  0
    1.9073    4.8178    0.3406 Cl  0  0  0  0  0  0  0  0  0  0  0  0
    5.2805   -3.4363    3.8080 H   0  0  0  0  0  0  0  0  0  0  0  0
    6.0236   -4.4286    2.5420 H   0  0  0  0  0  0  0  0  0  0  0  0
    6.8923   -2.9708    3.0952 H   0  0  0  0  0  0  0  0  0  0  0  0
    5.0115   -2.9003    0.9724 H   0  0  0  0  0  0  0  0  0  0  0  0
    3.7278   -0.8222    0.4907 H   0  0  0  0  0  0  0  0  0  0  0  0
    3.4968    1.0327    2.9073 H   0  0  0  0  0  0  0  0  0  0  0  0
    3.9919    2.7781    1.5690 H   0  0  0  0  0  0  0  0  0  0  0  0
    4.9942    1.5058    0.6939 H   0  0  0  0  0  0  0  0  0  0  0  0
    3.2423    0.9524   -0.7912 H   0  0  0  0  0  0  0  0  0  0  0  0
    3.2487    2.7863   -0.8265 H   0  0  0  0  0  0  0  0  0  0  0  0
    1.3401    1.4299    2.3439 H   0  0  0  0  0  0  0  0  0  0  0  0
    1.3280   -0.0219    1.3178 H   0  0  0  0  0  0  0  0  0  0  0  0
   -3.6826    2.4540   -1.4364 H   0  0  0  0  0  0  0  0  0  0  0  0
   -1.2992   -0.3831   -0.6048 H   0  0  0  0  0  0  0  0  0  0  0  0
   -0.9083   -3.1308   -0.4244 H   0  0  0  0  0  0  0  0  0  0  0  0
   -2.4989   -5.2097   -0.9019 H   0  0  0  0  0  0  0  0  0  0  0  0
   -4.7975   -4.1811   -1.6700 H   0  0  0  0  0  0  0  0  0  0  0  0
   -5.7780   -1.6382   -2.0382 H   0  0  0  0  0  0  0  0  0  0  0  0
   -7.1343    1.5491   -2.7733 H   0  0  0  0  0  0  0  0  0  0  0  0
   -6.6063   -0.1486   -3.1589 H   0  0  0  0  0  0  0  0  0  0  0  0
   -7.2482    0.2768   -1.4817 H   0  0  0  0  0  0  0  0  0  0  0  0
   -0.6383    5.5863   -0.5053 H   0  0  0  0  0  0  0  0  0  0  0  0
  1  2  1  0
  2  3  1  0
  3  4  2  0
  3  5  1  0
  5  6  1  0
  6  7  1  0
  7  8  1  0
  8  9  1  0
  9 10  1  0
  9 11  1  0
 11 12  2  0
 12 13  1  0
 13 14  1  0
 14 15  1  0
 15 16  2  0
 16 17  1  0
 17 18  1  0
 18 19  2  0
 19 20  1  0
 20 21  1  0
 21 22  1  0
 22 23  2  0
 23 24  1  0
 24 25  1  0
 13 26  2  0
 26 27  1  0
 27 28  2  0
 28 29  1  0
 10  6  1  0
 28 11  1  0
 23 15  1  0
 21 17  2  0
  1 30  1  0
  1 31  1  0
  1 32  1  0
  2 33  1  0
  5 34  1  0
  6 35  1  1
  7 36  1  0
  7 37  1  0
  8 38  1  0
  8 39  1  0
 10 40  1  0
 10 41  1  0
 14 42  1  0
 16 43  1  0
 18 44  1  0
 19 45  1  0
 20 46  1  0
 22 47  1  0
 25 48  1  0
 25 49  1  0
 25 50  1  0
 27 51  1  0
M  END
$$$$
[H]c1c([H])c([H])c(C([H])([H])C([H])([H])[H])c(-c2c3c([H])c(C#N)c([H])c([H])c3nn2[H])c1[H]
     RDKit          3D

 32 34  0  0  0  0  0  0  0  0999 V2000
   -1.8518    2.0787    0.7420 C   0  0  0  0  0  0  0  0  0  0  0  0
   -1.8334    0.6228    1.0136 C   0  0  0  0  0  0  0  0  0  0  0  0
   -1.8140   -0.3141   -0.1034 C   0  0  0  0  0  0  0  0  0  0  0  0
   -2.9797   -0.3159   -0.8992 C   0  0  0  0  0  0  0  0  0  0  0  0
   -3.1245   -1.1304   -1.9992 C   0  0  0  0  0  0  0  0  0  0  0  0
   -2.1227   -1.9940   -2.3768 C   0  0  0  0  0  0  0  0  0  0  0  0
   -0.9910   -2.0052   -1.6186 C   0  0  0  0  0  0  0  0  0  0  0  0
   -0.8225   -1.1744   -0.4865 C   0  0  0  0  0  0  0  0  0  0  0  0
    0.4402   -1.2580    0.2094 C   0  0  0  0  0  0  0  0  0  0  0  0
    0.8352   -2.4171    0.7982 N   0  0  0  0  0  0  0  0  0  0  0  0
    2.0281   -2.2198    1.2829 N   0  0  0  0  0  0  0  0  0  0  0  0
    2.4751   -0.9597    1.0419 C   0  0  0  0  0  0  0  0  0  0  0  0
    3.6328   -0.2941    1.3317 C   0  0  0  0  0  0  0  0  0  0  0  0
    3.7789    1.0091    0.9247 C   0  0  0  0  0  0  0  0  0  0  0  0
    2.7566    1.6272    0.2291 C   0  0  0  0  0  0  0  0  0  0  0  0
    1.6016    0.9752   -0.0621 C   0  0  0  0  0  0  0  0  0  0  0  0
    1.4398   -0.3440    0.3472 C   0  0  0  0  0  0  0  0  0  0  0  0
    2.9354    2.9805   -0.1843 C   0  0  0  0  0  0  0  0  0  0  0  0
    3.0860    4.0849   -0.5476 N   0  0  0  0  0  0  0  0  0  0  0  0
   -0.9422    2.5270    0.3490 H   0  0  0  0  0  0  0  0  0  0  0  0
   -2.6703    2.3822    0.0310 H   0  0  0  0  0  0  0  0  0  0  0  0
   -2.1558    2.6002    1.6906 H   0  0  0  0  0  0  0  0  0  0  0  0
   -2.7305    0.4004    1.6763 H   0  0  0  0  0  0  0  0  0  0  0  0
   -0.9551    0.4212    1.6959 H   0  0  0  0  0  0  0  0  0  0  0  0
   -3.7786    0.3539   -0.6515 H   0  0  0  0  0  0  0  0  0  0  0  0
   -4.0453   -1.0750   -2.5842 H   0  0  0  0  0  0  0  0  0  0  0  0
   -2.2526   -2.6231   -3.2542 H   0  0  0  0  0  0  0  0  0  0  0  0
   -0.2041   -2.6963   -1.9102 H   0  0  0  0  0  0  0  0  0  0  0  0
    0.3001   -3.3354    0.8831 H   0  0  0  0  0  0  0  0  0  0  0  0
    4.4172   -0.8281    1.8784 H   0  0  0  0  0  0  0  0  0  0  0  0
    4.7137    1.4887    1.1673 H   0  0  0  0  0  0  0  0  0  0  0  0
    0.8333    1.4326   -0.6145 H   0  0  0  0  0  0  0  0  0  0  0  0
  1  2  1  0
  2  3  1  0
  3  4  2  0
  4  5  1  0
  5  6  2  0
  6  7  1  0
  7  8  2  0
  8  9  1  0
  9 10  1  0
 10 11  1  0
 11 12  2  0
 12 13  1  0
 13 14  2  0
 14 15  1  0
 15 16  2  0
 16 17  1  0
 15 18  1  0
 18 19  3  0
  8  3  1  0
 17  9  2  0
 17 12  1  0
  1 20  1  0
  1 21  1  0
  1 22  1  0
  2 23  1  0
  2 24  1  0
  4 25  1  0
  5 26  1  0
  6 27  1  0
  7 28  1  0
 10 29  1  0
 13 30  1  0
 14 31  1  0
 16 32  1  0
M  END
$$$$
[H]c1nc(N([H])c2c([H])c([H])c3c(c2[H])c(C2=NC([H])([H])C([H])([H])N2[H])c([H])n