[H]c1nc(N([H])c2c([H])c([H])c(C(=O)N3C([H])([H])C([H])([H])SC([H])([H])C3([H])[H])c(Cl)c2[H])c2nc([H])c([C@@]([H])(N3C([H])([H])C([H])([H])C([H])([H])C([H])([H])[C@]3([H])C([H])([H])[H])C([H])([H])[H])n2n1
     RDKit          3D

 64 68  0  0  0  0  0  0  0  0999 V2000
   -5.4974    2.1208   -1.3348 C   0  0  0  0  0  0  0  0  0  0  0  0
   -4.5566    0.9388   -1.2743 C   0  0  2  0  0  0  0  0  0  0  0  0
   -4.9855   -0.1097   -0.4151 N   0  0  0  0  0  0  0  0  0  0  0  0
   -5.1063    0.2152    0.9561 C   0  0  0  0  0  0  0  0  0  0  0  0
   -6.5224    0.5882    1.2954 C   0  0  0  0  0  0  0  0  0  0  0  0
   -7.5148   -0.4412    0.8575 C   0  0  0  0  0  0  0  0  0  0  0  0
   -7.3059   -0.9312   -0.5416 C   0  0  0  0  0  0  0  0  0  0  0  0
   -5.8713   -1.0589   -0.9435 C   0  0  2  0  0  0  0  0  0  0  0  0
   -5.3338   -2.4600   -0.6183 C   0  0  0  0  0  0  0  0  0  0  0  0
   -3.1765    1.3819   -0.9418 C   0  0  0  0  0  0  0  0  0  0  0  0
   -2.7430    2.6842   -0.8226 C   0  0  0  0  0  0  0  0  0  0  0  0
   -1.4167    2.6909   -0.5097 N   0  0  0  0  0  0  0  0  0  0  0  0
   -1.0338    1.4190   -0.4361 C   0  0  0  0  0  0  0  0  0  0  0  0
    0.2396    0.8900   -0.1449 C   0  0  0  0  0  0  0  0  0  0  0  0
    1.3257    1.7232    0.0970 N   0  0  0  0  0  0  0  0  0  0  0  0
    2.6261    1.3237    0.4174 C   0  0  0  0  0  0  0  0  0  0  0  0
    2.9444    0.1411    1.0126 C   0  0  0  0  0  0  0  0  0  0  0  0
    4.2743   -0.2090    1.2779 C   0  0  0  0  0  0  0  0  0  0  0  0
    5.3212    0.6094    0.9585 C   0  0  0  0  0  0  0  0  0  0  0  0
    6.7101    0.2820    1.2223 C   0  0  0  0  0  0  0  0  0  0  0  0
    7.2139    0.6059    2.3191 O   0  0  0  0  0  0  0  0  0  0  0  0
    7.4738   -0.4020    0.2246 N   0  0  0  0  0  0  0  0  0  0  0  0
    8.8601   -0.7198    0.4951 C   0  0  0  0  0  0  0  0  0  0  0  0
    8.9897   -2.2039    0.7367 C   0  0  0  0  0  0  0  0  0  0  0  0
    8.0578   -3.1546   -0.4973 S   0  0  0  0  0  0  0  0  0  0  0  0
    6.5853   -2.2369   -1.0389 C   0  0  0  0  0  0  0  0  0  0  0  0
    6.9051   -0.7727   -1.0355 C   0  0  0  0  0  0  0  0  0  0  0  0
    4.9858    1.8108    0.3543 C   0  0  0  0  0  0  0  0  0  0  0  0
    6.3058    2.8850   -0.0665 Cl  0  0  0  0  0  0  0  0  0  0  0  0
    3.7085    2.1646    0.0904 C   0  0  0  0  0  0  0  0  0  0  0  0
    0.3016   -0.4348   -0.1495 N   0  0  0  0  0  0  0  0  0  0  0  0
   -0.7592   -1.2144   -0.4097 C   0  0  0  0  0  0  0  0  0  0  0  0
   -1.9693   -0.6999   -0.6863 N   0  0  0  0  0  0  0  0  0  0  0  0
   -2.0795    0.6185   -0.6932 N   0  0  0  0  0  0  0  0  0  0  0  0
   -5.3362    2.8345   -0.5050 H   0  0  0  0  0  0  0  0  0  0  0  0
   -6.5132    1.7404   -1.4289 H   0  0  0  0  0  0  0  0  0  0  0  0
   -5.2266    2.7006   -2.2661 H   0  0  0  0  0  0  0  0  0  0  0  0
   -4.5517    0.5118   -2.3220 H   0  0  0  0  0  0  0  0  0  0  0  0
   -4.4703    1.1053    1.1659 H   0  0  0  0  0  0  0  0  0  0  0  0
   -4.7283   -0.5985    1.6133 H   0  0  0  0  0  0  0  0  0  0  0  0
   -6.5758    0.6292    2.4229 H   0  0  0  0  0  0  0  0  0  0  0  0
   -6.7806    1.5891    0.9506 H   0  0  0  0  0  0  0  0  0  0  0  0
   -7.5477   -1.2704    1.6006 H   0  0  0  0  0  0  0  0  0  0  0  0
   -8.5265    0.0295    0.8926 H   0  0  0  0  0  0  0  0  0  0  0  0
   -7.7569   -1.9565   -0.5979 H   0  0  0  0  0  0  0  0  0  0  0  0
   -7.8834   -0.3218   -1.2695 H   0  0  0  0  0  0  0  0  0  0  0  0
   -5.8388   -1.0010   -2.0631 H   0  0  0  0  0  0  0  0  0  0  0  0
   -6.0140   -3.2037   -1.0798 H   0  0  0  0  0  0  0  0  0  0  0  0
   -5.2484   -2.6021    0.4724 H   0  0  0  0  0  0  0  0  0  0  0  0
   -4.3623   -2.5331   -1.1484 H   0  0  0  0  0  0  0  0  0  0  0  0
   -3.3452    3.5781   -0.9528 H   0  0  0  0  0  0  0  0  0  0  0  0
    1.1635    2.7782    0.0375 H   0  0  0  0  0  0  0  0  0  0  0  0
    2.1784   -0.5488    1.3132 H   0  0  0  0  0  0  0  0  0  0  0  0
    4.4555   -1.1635    1.7523 H   0  0  0  0  0  0  0  0  0  0  0  0
    9.1747   -0.1487    1.3864 H   0  0  0  0  0  0  0  0  0  0  0  0
    9.4896   -0.4368   -0.3864 H   0  0  0  0  0  0  0  0  0  0  0  0
   10.0776   -2.4466    0.6212 H   0  0  0  0  0  0  0  0  0  0  0  0
    8.6323   -2.4301    1.7577 H   0  0  0  0  0  0  0  0  0  0  0  0
    5.7569   -2.4286   -0.3466 H   0  0  0  0  0  0  0  0  0  0  0  0
    6.3029   -2.5864   -2.0560 H   0  0  0  0  0  0  0  0  0  0  0  0
    7.6538   -0.5228   -1.8413 H   0  0  0  0  0  0  0  0  0  0  0  0
    6.0078   -0.1614   -1.2953 H   0  0  0  0  0  0  0  0  0  0  0  0
    3.4331    3.1116   -0.3875 H   0  0  0  0  0  0  0  0  0  0  0  0
   -0.5773   -2.2916   -0.3823 H   0  0  0  0  0  0  0  0  0  0  0  0
  1  2  1  0
  2  3  1  0
  3  4  1  0
  4  5  1  0
  5  6  1  0
  6  7  1  0
  7  8  1  0
  8  9  1  0
  2 10  1  0
 10 11  2  0
 11 12  1  0
 12 13  2  0
 13 14  1  0
 14 15  1  0
 15 16  1  0
 16 17  2  0
 17 18  1  0
 18 19  2  0
 19 20  1  0
 20 21  2  0
 20 22  1  0
 22 23  1  0
 23 24  1  0
 24 25  1  0
 25 26  1  0
 26 27  1  0
 19 28  1  0
 28 29  1  0
 28 30  2  0
 14 31  2  0
 31 32  1  0
 32 33  2  0
 33 34  1  0
  8  3  1  0
 34 10  1  0
 34 13  1  0
 30 16  1  0
 27 22  1  0
  1 35  1  0
  1 36  1  0
  1 37  1  0
  2 38  1  6
  4 39  1  0
  4 40  1  0
  5 41  1  0
  5 42  1  0
  6 43  1  0
  6 44  1  0
  7 45  1  0
  7 46  1  0
  8 47  1  6
  9 48  1  0
  9 49  1  0
  9 50  1  0
 11 51  1  0
 15 52  1  0
 17 53  1  0
 18 54  1  0
 23 55  1  0
 23 56  1  0
 24 57  1  0
 24 58  1  0
 26 59  1  0
 26 60  1  0
 27 61  1  0
 27 62  1  0
 30 63  1  0
 32 64  1  0
M  END
$$$$
[H]c1nc(N([H])[H])c2nc([H])c(C([H])([H])N3C4([H])C([H])([H])C([H])([H])C3([H])C([H])([H])C([H])(N([H])c3nc(C(F)(F)F)c([H])s3)C4([H])[H])n2c1[H]
     RDKit          3D

 49 53  0  0  0  0  0  0  0  0999 V2000
   -7.2401    1.3521   -0.4108 N   0  0  0  0  0  0  0  0  0  0  0  0
   -6.2178    0.5289    0.1141 C   0  0  0  0  0  0  0  0  0  0  0  0
   -6.3817   -0.0118    1.3467 N   0  0  0  0  0  0  0  0  0  0  0  0
   -5.4074   -0.7940    1.8553 C   0  0  0  0  0  0  0  0  0  0  0  0
   -4.2540   -1.0553    1.1532 C   0  0  0  0  0  0  0  0  0  0  0  0
   -4.0692   -0.5224   -0.0860 N   0  0  0  0  0  0  0  0  0  0  0  0
   -3.0751   -0.5941   -0.9898 C   0  0  0  0  0  0  0  0  0  0  0  0
   -1.8425   -1.3418   -0.8256 C   0  0  0  0  0  0  0  0  0  0  0  0
   -0.6625   -0.6690   -0.5593 N   0  0  0  0  0  0  0  0  0  0  0  0
   -0.1644    0.2782   -1.4645 C   0  0  0  0  0  0  0  0  0  0  0  0
   -0.2166    1.6465   -0.8096 C   0  0  0  0  0  0  0  0  0  0  0  0
   -0.5632    1.3564    0.6334 C   0  0  0  0  0  0  0  0  0  0  0  0
   -0.3451   -0.1649    0.7079 C   0  0  0  0  0  0  0  0  0  0  0  0
    1.1496   -0.3336    0.9365 C   0  0  0  0  0  0  0  0  0  0  0  0
    1.9500   -0.4178   -0.2943 C   0  0  0  0  0  0  0  0  0  0  0  0
    1.3375   -0.0564   -1.5881 C   0  0  0  0  0  0  0  0  0  0  0  0
    3.1607    0.3655   -0.1445 N   0  0  0  0  0  0  0  0  0  0  0  0
    4.4485   -0.2078    0.1123 C   0  0  0  0  0  0  0  0  0  0  0  0
    5.6155    0.3856    0.2880 N   0  0  0  0  0  0  0  0  0  0  0  0
    6.6825   -0.3097    0.4720 C   0  0  0  0  0  0  0  0  0  0  0  0
    6.5679   -1.6784    0.4786 C   0  0  0  0  0  0  0  0  0  0  0  0
    4.8717   -1.8610    0.2122 S   0  0  0  0  0  0  0  0  0  0  0  0
    8.0474    0.3289    0.6835 C   0  0  0  0  0  0  0  0  0  0  0  0
    7.9082    1.6210    1.1533 F   0  0  0  0  0  0  0  0  0  0  0  0
    8.8038   -0.4569    1.5189 F   0  0  0  0  0  0  0  0  0  0  0  0
    8.6465    0.3956   -0.5590 F   0  0  0  0  0  0  0  0  0  0  0  0
   -3.4827    0.1702   -2.0575 C   0  0  0  0  0  0  0  0  0  0  0  0
   -4.7047    0.7023   -1.8197 N   0  0  0  0  0  0  0  0  0  0  0  0
   -5.0670    0.2626   -0.5821 C   0  0  0  0  0  0  0  0  0  0  0  0
   -7.9046    1.7957    0.2527 H   0  0  0  0  0  0  0  0  0  0  0  0
   -7.3180    1.5089   -1.4296 H   0  0  0  0  0  0  0  0  0  0  0  0
   -5.5602   -1.2003    2.8352 H   0  0  0  0  0  0  0  0  0  0  0  0
   -3.4606   -1.6872    1.5591 H   0  0  0  0  0  0  0  0  0  0  0  0
   -1.9287   -2.1680   -0.0585 H   0  0  0  0  0  0  0  0  0  0  0  0
   -1.7012   -1.9326   -1.7806 H   0  0  0  0  0  0  0  0  0  0  0  0
   -0.6037    0.2813   -2.4724 H   0  0  0  0  0  0  0  0  0  0  0  0
   -0.9782    2.3054   -1.2799 H   0  0  0  0  0  0  0  0  0  0  0  0
    0.7427    2.1874   -0.8931 H   0  0  0  0  0  0  0  0  0  0  0  0
   -1.6150    1.6366    0.8614 H   0  0  0  0  0  0  0  0  0  0  0  0
    0.0978    1.9094    1.3123 H   0  0  0  0  0  0  0  0  0  0  0  0
   -0.9473   -0.5223    1.5520 H   0  0  0  0  0  0  0  0  0  0  0  0
    1.2575   -1.2553    1.5396 H   0  0  0  0  0  0  0  0  0  0  0  0
    1.4623    0.5003    1.6352 H   0  0  0  0  0  0  0  0  0  0  0  0
    2.3110   -1.4966   -0.4175 H   0  0  0  0  0  0  0  0  0  0  0  0
    1.3551   -0.9066   -2.3342 H   0  0  0  0  0  0  0  0  0  0  0  0
    1.8296    0.7814   -2.1093 H   0  0  0  0  0  0  0  0  0  0  0  0
    3.0724    1.3973   -0.2160 H   0  0  0  0  0  0  0  0  0  0  0  0
    7.3608   -2.4321    0.6216 H   0  0  0  0  0  0  0  0  0  0  0  0
   -2.9677    0.3786   -2.9951 H   0  0  0  0  0  0  0  0  0  0  0  0
  1  2  1  0
  2  3  2  0
  3  4  1  0
  4  5  2  0
  5  6  1  0
  6  7  1  0
  7  8  1  0
  8  9  1  0
  9 10  1  0
 10 11  1  0
 11 12  1  0
 12 13  1  0
 13 14  1  0
 14 15  1  0
 15 16  1  0
 15 17  1  0
 17 18  1  0
 18 19  2  0
 19 20  1  0
 20 21  2  0
 21 22  1  0
 20 23  1  0
 23 24  1  0
 23 25  1  0
 23 26  1  0
  7 27  2  0
 27 28  1  0
 28 29  2  0
 29  2  1  0
 29  6  1  0
 13  9  1  0
 22 18  1  0
 16 10  1  0
  1 30  1  0
  1 31  1  0
  4 32  1  0
  5 33  1  0
  8 34  1  0
  8 35  1  0
 10 36  1  0
 11 37  1  0
 11 38  1  0
 12 39  1  0
 12 40  1  0
 13 41  1  0
 14 42  1  0
 14 43  1  0
 15 44  1  0
 16 45  1  0
 16 46  1  0
 17 47  1  0
 21 48  1  0
 27 49  1  0
M  END
$$$$
[H]c1sc(N([H])c2c(C([H])([H])[H])sc3c(OC([H])([H])[H])c([H])c([H])c([H])c23)nc1C([H])([H])N1C([H])([H])C([H])([H])N(C([H])([H])[H])C([H])([H])C1([H])[H]
     RDKit          3D

 50 53  0  0  0  0  0  0  0  0999 V2000
    7.7163   -1.4967    1.9997 C   0  0  0  0  0  0  0  0  0  0  0  0
    6.7517   -1.0689    1.0949 O   0  0  0  0  0  0  0  0  0  0  0  0
    5.3917   -1.2424    1.2427 C   0  0  0  0  0  0  0  0  0  0  0  0
    4.8408   -1.8742    2.3358 C   0  0  0  0  0  0  0  0  0  0  0  0
    3.4632   -1.9656    2.3317 C   0  0  0  0  0  0  0  0  0  0  0  0
    2.6734   -1.4791    1.3380 C   0  0  0  0  0  0  0  0  0  0  0  0
    3.2348   -0.8333    0.2203 C   0  0  0  0  0  0  0  0  0  0  0  0
    2.5621   -0.3088   -0.8312 C   0  0  0  0  0  0  0  0  0  0  0  0
    1.1078   -0.3166   -0.9904 N   0  0  0  0  0  0  0  0  0  0  0  0
    0.3772    0.7996   -0.4670 C   0  0  0  0  0  0  0  0  0  0  0  0
   -0.9289    1.0076   -0.4923 N   0  0  0  0  0  0  0  0  0  0  0  0
   -1.4275    2.0775    0.0289 C   0  0  0  0  0  0  0  0  0  0  0  0
   -2.9148    2.3777    0.0354 C   0  0  0  0  0  0  0  0  0  0  0  0
   -3.6870    1.2074   -0.3401 N   0  0  0  0  0  0  0  0  0  0  0  0
   -5.1051    1.5201   -0.3686 C   0  0  0  0  0  0  0  0  0  0  0  0
   -5.9202    0.2996   -0.7550 C   0  0  0  0  0  0  0  0  0  0  0  0
   -5.4558   -0.8726   -0.0216 N   0  0  0  0  0  0  0  0  0  0  0  0
   -4.6809   -1.6818   -0.9359 C   0  0  0  0  0  0  0  0  0  0  0  0
   -4.6036   -0.4910    1.0807 C   0  0  0  0  0  0  0  0  0  0  0  0
   -3.3447    0.1165    0.5221 C   0  0  0  0  0  0  0  0  0  0  0  0
   -0.5571    2.9746    0.6010 C   0  0  0  0  0  0  0  0  0  0  0  0
    0.9437    2.2012    0.3439 S   0  0  0  0  0  0  0  0  0  0  0  0
    3.3256    0.2763   -1.8149 C   0  0  0  0  0  0  0  0  0  0  0  0
    2.8536    0.9323   -3.0866 C   0  0  0  0  0  0  0  0  0  0  0  0
    4.9166    0.0774   -1.2482 S   0  0  0  0  0  0  0  0  0  0  0  0
    4.5875   -0.7383    0.2149 C   0  0  0  0  0  0  0  0  0  0  0  0
    8.0281   -2.5370    1.7005 H   0  0  0  0  0  0  0  0  0  0  0  0
    8.6363   -0.8687    1.8367 H   0  0  0  0  0  0  0  0  0  0  0  0
    7.3958   -1.5146    3.0406 H   0  0  0  0  0  0  0  0  0  0  0  0
    5.4472   -2.2681    3.1363 H   0  0  0  0  0  0  0  0  0  0  0  0
    3.0111   -2.4596    3.1831 H   0  0  0  0  0  0  0  0  0  0  0  0
    1.6052   -1.6089    1.4421 H   0  0  0  0  0  0  0  0  0  0  0  0
    0.5903   -1.0607   -1.4463 H   0  0  0  0  0  0  0  0  0  0  0  0
   -3.2291    2.7711    1.0016 H   0  0  0  0  0  0  0  0  0  0  0  0
   -3.0621    3.1278   -0.7556 H   0  0  0  0  0  0  0  0  0  0  0  0
   -5.2469    2.2695   -1.1744 H   0  0  0  0  0  0  0  0  0  0  0  0
   -5.4264    1.9704    0.5717 H   0  0  0  0  0  0  0  0  0  0  0  0
   -5.8630    0.1536   -1.8367 H   0  0  0  0  0  0  0  0  0  0  0  0
   -6.9667    0.4953   -0.4509 H   0  0  0  0  0  0  0  0  0  0  0  0
   -3.9702   -2.3513   -0.3955 H   0  0  0  0  0  0  0  0  0  0  0  0
   -4.1029   -1.0976   -1.6731 H   0  0  0  0  0  0  0  0  0  0  0  0
   -5.4266   -2.3399   -1.4672 H   0  0  0  0  0  0  0  0  0  0  0  0
   -4.4063   -1.3699    1.7105 H   0  0  0  0  0  0  0  0  0  0  0  0
   -5.1232    0.2844    1.6832 H   0  0  0  0  0  0  0  0  0  0  0  0
   -2.6592    0.4640    1.3240 H   0  0  0  0  0  0  0  0  0  0  0  0
   -2.8639   -0.6683   -0.1131 H   0  0  0  0  0  0  0  0  0  0  0  0
   -0.7949    3.9360    1.0910 H   0  0  0  0  0  0  0  0  0  0  0  0
    2.8040    2.0179   -2.9982 H   0  0  0  0  0  0  0  0  0  0  0  0
    1.9042    0.4492   -3.3515 H   0  0  0  0  0  0  0  0  0  0  0  0
    3.5987    0.7071   -3.8888 H   0  0  0  0  0  0  0  0  0  0  0  0
  1  2  1  0
  2  3  1  0
  3  4  2  0
  4  5  1  0
  5  6  2  0
  6  7  1  0
  7  8  1  0
  8  9  1  0
  9 10  1  0
 10 11  2  0
 11 12  1  0
 12 13  1  0
 13 14  1  0
 14 15  1  0
 15 16  1  0
 16 17  1  0
 17 18  1  0
 17 19  1  0
 19 20  1  0
 12 21  2  0
 21 22  1  0
  8 23  2  0
 23 24  1  0
 23 25  1  0
 25 26  1  0
 26  3  1  0
 26  7  2  0
 22 10  1  0
 20 14  1  0
  1 27  1  0
  1 28  1  0
  1 29  1  0
  4 30  1  0
  5 31  1  0
  6 32  1  0
  9 33  1  0
 13 34  1  0
 13 35  1  0
 15 36  1  0
 15 37  1  0
 16 38  1  0
 16 39  1  0
 18 40  1  0
 18 41  1  0
 18 42  1  0
 19 43  1  0
 19 44  1  0
 20 45  1  0
 20 46  1  0
 21 47  1  0
 24 48  1  0
 24 49  1  0
 24 50  1  0
M  END
$$$$
[H]c1c([H])c(N([H])S(=O)(=O)c2c([H])c([H])c(N([H])C(=O)N([H])C([H])([H])C([H])([H])N(C([H])(C([H])([H])[H])C([H])([H])[H])C([H])(C([H])([H])[H])C([H])([H])[H])c([H])c2[H])c([H])c([H])c1F
     RDKit          3D

 59 60  0  0  0  0  0  0  0  0999 V2000
   -6.0515   -0.7109    2.3039 C   0  0  0  0  0  0  0  0  0  0  0  0
   -6.1426   -0.0409    0.9612 C   0  0  0  0  0  0  0  0  0  0  0  0
   -6.5952    1.4049    1.1533 C   0  0  0  0  0  0  0  0  0  0  0  0
   -4.9686   -0.1713    0.2215 N   0  0  0  0  0  0  0  0  0  0  0  0
   -3.7594    0.4081    0.5847 C   0  0  0  0  0  0  0  0  0  0  0  0
   -3.0360   -0.0761    1.8037 C   0  0  0  0  0  0  0  0  0  0  0  0
   -1.7763    0.6003    1.9963 N   0  0  0  0  0  0  0  0  0  0  0  0
   -0.7106    0.4603    1.0416 C   0  0  0  0  0  0  0  0  0  0  0  0
   -0.8334   -0.2587    0.0277 O   0  0  0  0  0  0  0  0  0  0  0  0
    0.5173    1.1474    1.2373 N   0  0  0  0  0  0  0  0  0  0  0  0
    1.6014    1.0368    0.3742 C   0  0  0  0  0  0  0  0  0  0  0  0
    1.9066   -0.0426   -0.3975 C   0  0  0  0  0  0  0  0  0  0  0  0
    3.0155   -0.0325   -1.2645 C   0  0  0  0  0  0  0  0  0  0  0  0
    3.8299    1.0673   -1.3630 C   0  0  0  0  0  0  0  0  0  0  0  0
    3.5026    2.1450   -0.5734 C   0  0  0  0  0  0  0  0  0  0  0  0
    2.4347    2.1614    0.2743 C   0  0  0  0  0  0  0  0  0  0  0  0
    5.2063    1.1730   -2.4057 S   0  0  0  0  0  0  0  0  0  0  0  0
    5.0894    0.0323   -3.3978 O   0  0  0  0  0  0  0  0  0  0  0  0
    5.1372    2.4793   -3.1632 O   0  0  0  0  0  0  0  0  0  0  0  0
    6.6877    1.0328   -1.5662 N   0  0  0  0  0  0  0  0  0  0  0  0
    7.1722   -0.0352   -0.8131 C   0  0  0  0  0  0  0  0  0  0  0  0
    8.4499   -0.5423   -1.0612 C   0  0  0  0  0  0  0  0  0  0  0  0
    8.9889   -1.5924   -0.3742 C   0  0  0  0  0  0  0  0  0  0  0  0
    8.2573   -2.2018    0.6193 C   0  0  0  0  0  0  0  0  0  0  0  0
    8.7804   -3.2425    1.3062 F   0  0  0  0  0  0  0  0  0  0  0  0
    6.9940   -1.7351    0.8979 C   0  0  0  0  0  0  0  0  0  0  0  0
    6.4656   -0.6573    0.1794 C   0  0  0  0  0  0  0  0  0  0  0  0
   -5.1376   -0.4948   -1.1663 C   0  0  0  0  0  0  0  0  0  0  0  0
   -5.7977   -1.8425   -1.2934 C   0  0  0  0  0  0  0  0  0  0  0  0
   -3.9012   -0.4497   -1.9820 C   0  0  0  0  0  0  0  0  0  0  0  0
   -5.9807    0.0065    3.1505 H   0  0  0  0  0  0  0  0  0  0  0  0
   -5.2944   -1.5138    2.3241 H   0  0  0  0  0  0  0  0  0  0  0  0
   -7.0295   -1.2579    2.4646 H   0  0  0  0  0  0  0  0  0  0  0  0
   -6.9812   -0.5131    0.3692 H   0  0  0  0  0  0  0  0  0  0  0  0
   -7.4767    1.3609    1.8367 H   0  0  0  0  0  0  0  0  0  0  0  0
   -5.8334    2.0140    1.6674 H   0  0  0  0  0  0  0  0  0  0  0  0
   -6.9005    1.8150    0.1883 H   0  0  0  0  0  0  0  0  0  0  0  0
   -3.0214    0.5290   -0.2372 H   0  0  0  0  0  0  0  0  0  0  0  0
   -3.9888    1.5119    0.8420 H   0  0  0  0  0  0  0  0  0  0  0  0
   -2.8184   -1.1632    1.7766 H   0  0  0  0  0  0  0  0  0  0  0  0
   -3.6537    0.1355    2.7335 H   0  0  0  0  0  0  0  0  0  0  0  0
   -1.5994    1.2155    2.8374 H   0  0  0  0  0  0  0  0  0  0  0  0
    0.6077    1.7790    2.0937 H   0  0  0  0  0  0  0  0  0  0  0  0
    1.3202   -0.9597   -0.3632 H   0  0  0  0  0  0  0  0  0  0  0  0
    3.2556   -0.8889   -1.8759 H   0  0  0  0  0  0  0  0  0  0  0  0
    4.1286    3.0335   -0.6272 H   0  0  0  0  0  0  0  0  0  0  0  0
    2.2186    3.0403    0.8779 H   0  0  0  0  0  0  0  0  0  0  0  0
    7.3646    1.8790   -1.6100 H   0  0  0  0  0  0  0  0  0  0  0  0
    9.0196   -0.0677   -1.8358 H   0  0  0  0  0  0  0  0  0  0  0  0
   10.0051   -1.9677   -0.5962 H   0  0  0  0  0  0  0  0  0  0  0  0
    6.3810   -2.1827    1.6711 H   0  0  0  0  0  0  0  0  0  0  0  0
    5.4981   -0.3467    0.4596 H   0  0  0  0  0  0  0  0  0  0  0  0
   -5.8572    0.2569   -1.5830 H   0  0  0  0  0  0  0  0  0  0  0  0
   -5.3768   -2.5615   -0.5434 H   0  0  0  0  0  0  0  0  0  0  0  0
   -6.8828   -1.8431   -1.1428 H   0  0  0  0  0  0  0  0  0  0  0  0
   -5.6193   -2.3056   -2.2890 H   0  0  0  0  0  0  0  0  0  0  0  0
   -3.1349   -1.1031   -1.5267 H   0  0  0  0  0  0  0  0  0  0  0  0
   -4.1326   -0.9416   -2.9709 H   0  0  0  0  0  0  0  0  0  0  0  0
   -3.5442    0.5596   -2.2523 H   0  0  0  0  0  0  0  0  0  0  0  0
  1  2  1  0
  2  3  1  0
  2  4  1  0
  4  5  1  0
  5  6  1  0
  6  7  1  0
  7  8  1  0
  8  9  2  0
  8 10  1  0
 10 11  1  0
 11 12  2  0
 12 13  1  0
 13 14  2  0
 14 15  1  0
 15 16  2  0
 14 17  1  0
 17 18  2  0
 17 19  2  0
 17 20  1  0
 20 21  1  0
 21 22  2  0
 22 23  1  0
 23 24  2  0
 24 25  1  0
 24 26  1  0
 26 27  2  0
  4 28  1  0
 28 29  1  0
 28 30  1  0
 16 11  1  0
 27 21  1  0
  1 31  1  0
  1 32  1  0
  1 33  1  0
  2 34  1  0
  3 35  1  0
  3 36  1  0
  3 37  1  0
  5 38  1  0
  5 39  1  0
  6 40  1  0
  6 41  1  0
  7 42  1  0
 10 43  1  0
 12 44  1  0
 13 45  1  0
 15 46  1  0
 16 47  1  0
 20 48  1  0
 22 49  1  0
 23 50  1  0
 26 51  1  0
 27 52  1  0
 28 53  1  0
 29 54  1  0
 29 55  1  0
 29 56  1  0
 30 57  1  0
 30 58  1  0
 30 59  1  0
M  END
$$$$
[H]c1nc2c(OC([H])([H])[H])nc(N([H])[H])nc2n1[H]
     RDKit          3D

 19 20  0  0  0  0  0  0  0  0999 V2000
    3.2244    0.0491    0.0759 C   0  0  0  0  0  0  0  0  0  0  0  0
    2.0231    0.8049    0.1574 O   0  0  0  0  0  0  0  0  0  0  0  0
    0.7732    0.2130    0.0486 C   0  0  0  0  0  0  0  0  0  0  0  0
    0.5784   -1.0953   -0.1392 N   0  0  0  0  0  0  0  0  0  0  0  0
   -0.6455   -1.6520   -0.2425 C   0  0  0  0  0  0  0  0  0  0  0  0
   -0.7962   -3.0679   -0.4445 N   0  0  0  0  0  0  0  0  0  0  0  0
   -1.7069   -0.8318   -0.1491 N   0  0  0  0  0  0  0  0  0  0  0  0
   -1.6020    0.4973    0.0397 C   0  0  0  0  0  0  0  0  0  0  0  0
   -2.4573    1.5281    0.1669 N   0  0  0  0  0  0  0  0  0  0  0  0
   -1.7948    2.6849    0.3429 C   0  0  0  0  0  0  0  0  0  0  0  0
   -0.4889    2.3633    0.3246 N   0  0  0  0  0  0  0  0  0  0  0  0
   -0.3276    1.0434    0.1426 C   0  0  0  0  0  0  0  0  0  0  0  0
    4.0388    0.5459    0.6525 H   0  0  0  0  0  0  0  0  0  0  0  0
    3.1028   -0.9788    0.4438 H   0  0  0  0  0  0  0  0  0  0  0  0
    3.4839   -0.0014   -1.0111 H   0  0  0  0  0  0  0  0  0  0  0  0
   -0.3915   -3.7384    0.2607 H   0  0  0  0  0  0  0  0  0  0  0  0
   -1.2974   -3.4628   -1.2734 H   0  0  0  0  0  0  0  0  0  0  0  0
   -3.5046    1.4088    0.1286 H   0  0  0  0  0  0  0  0  0  0  0  0
   -2.2119    3.6898    0.4755 H   0  0  0  0  0  0  0  0  0  0  0  0
  1  2  1  0
  2  3  1  0
  3  4  2  0
  4  5  1  0
  5  6  1  0
  5  7  2  0
  7  8  1  0
  8  9  1  0
  9 10  1  0
 10 11  2  0
 11 12  1  0
 12  3  1  0
 12  8  2  0
  1 13  1  0
  1 14  1  0
  1 15  1  0
  6 16  1  0
  6 17  1  0
  9 18  1  0
 10 19  1  0
M  END
$$$$
[H]Oc1c([H])c([H])c([H])c2sc(C3=NC([H])([H])C4([H])C([H])([H])c5c([H])c(OC([H])([H])[H])c(OC([H])([H])[H])c([H])c5OC([H])([H])C34[H])nc12
     RDKit          3D

 48 52  0  0  0  0  0  0  0  0999 V2000
    5.3287    0.4201    3.5105 C   0  0  0  0  0  0  0  0  0  0  0  0
    5.5517    0.2968    2.1213 O   0  0  0  0  0  0  0  0  0  0  0  0
    4.5034    0.2625    1.2111 C   0  0  0  0  0  0  0  0  0  0  0  0
    3.1866    0.3458    1.6013 C   0  0  0  0  0  0  0  0  0  0  0  0
    2.1922    0.3057    0.6472 C   0  0  0  0  0  0  0  0  0  0  0  0
    0.9112    0.3988    1.1721 O   0  0  0  0  0  0  0  0  0  0  0  0
   -0.3301   -0.1272    0.7807 C   0  0  0  0  0  0  0  0  0  0  0  0
   -0.5567   -0.2070   -0.6890 C   0  0  0  0  0  0  0  0  0  0  0  0
    0.2783    0.7272   -1.5057 C   0  0  0  0  0  0  0  0  0  0  0  0
   -0.5890    1.0501   -2.6727 C   0  0  0  0  0  0  0  0  0  0  0  0
   -1.9194    0.8446   -2.1850 N   0  0  0  0  0  0  0  0  0  0  0  0
   -1.9258    0.1583   -1.0992 C   0  0  0  0  0  0  0  0  0  0  0  0
   -3.1643   -0.1940   -0.3916 C   0  0  0  0  0  0  0  0  0  0  0  0
   -4.4091    0.1039   -0.7106 N   0  0  0  0  0  0  0  0  0  0  0  0
   -5.3908   -0.2977    0.0428 C   0  0  0  0  0  0  0  0  0  0  0  0
   -6.7596   -0.0478   -0.1853 C   0  0  0  0  0  0  0  0  0  0  0  0
   -7.1992    0.6823   -1.2847 O   0  0  0  0  0  0  0  0  0  0  0  0
   -7.6845   -0.5327    0.6929 C   0  0  0  0  0  0  0  0  0  0  0  0
   -7.3893   -1.2675    1.8174 C   0  0  0  0  0  0  0  0  0  0  0  0
   -6.0553   -1.5145    2.0452 C   0  0  0  0  0  0  0  0  0  0  0  0
   -5.0795   -1.0278    1.1581 C   0  0  0  0  0  0  0  0  0  0  0  0
   -3.3696   -1.0933    1.0535 S   0  0  0  0  0  0  0  0  0  0  0  0
    1.6047    0.1189   -1.9015 C   0  0  0  0  0  0  0  0  0  0  0  0
    2.4843    0.1828   -0.7054 C   0  0  0  0  0  0  0  0  0  0  0  0
    3.8103    0.0987   -1.1016 C   0  0  0  0  0  0  0  0  0  0  0  0
    4.8129    0.1388   -0.1422 C   0  0  0  0  0  0  0  0  0  0  0  0
    6.1491    0.0573   -0.5013 O   0  0  0  0  0  0  0  0  0  0  0  0
    6.4783   -0.0696   -1.8849 C   0  0  0  0  0  0  0  0  0  0  0  0
    4.5447    1.1607    3.7447 H   0  0  0  0  0  0  0  0  0  0  0  0
    5.0159   -0.5436    3.9671 H   0  0  0  0  0  0  0  0  0  0  0  0
    6.2461    0.7351    4.0296 H   0  0  0  0  0  0  0  0  0  0  0  0
    2.9707    0.4406    2.6489 H   0  0  0  0  0  0  0  0  0  0  0  0
   -1.1278    0.4197    1.3257 H   0  0  0  0  0  0  0  0  0  0  0  0
   -0.3810   -1.1786    1.1865 H   0  0  0  0  0  0  0  0  0  0  0  0
   -0.3924   -1.2598   -1.0660 H   0  0  0  0  0  0  0  0  0  0  0  0
    0.4659    1.6421   -0.8916 H   0  0  0  0  0  0  0  0  0  0  0  0
   -0.4122    0.3263   -3.4928 H   0  0  0  0  0  0  0  0  0  0  0  0
   -0.4425    2.1096   -3.0246 H   0  0  0  0  0  0  0  0  0  0  0  0
   -6.5325    1.0593   -1.9611 H   0  0  0  0  0  0  0  0  0  0  0  0
   -8.7560   -0.3281    0.5002 H   0  0  0  0  0  0  0  0  0  0  0  0
   -8.1314   -1.6295    2.4794 H   0  0  0  0  0  0  0  0  0  0  0  0
   -5.6828   -2.0733    2.8825 H   0  0  0  0  0  0  0  0  0  0  0  0
    1.4152   -0.9642   -2.0905 H   0  0  0  0  0  0  0  0  0  0  0  0
    2.0325    0.6013   -2.7846 H   0  0  0  0  0  0  0  0  0  0  0  0
    4.0613    0.0017   -2.1591 H   0  0  0  0  0  0  0  0  0  0  0  0
    7.5695   -0.0264   -2.0337 H   0  0  0  0  0  0  0  0  0  0  0  0
    5.9476    0.7317   -2.4434 H   0  0  0  0  0  0  0  0  0  0  0  0
    6.1197   -1.0383   -2.2980 H   0  0  0  0  0  0  0  0  0  0  0  0
  1  2  1  0
  2  3  1  0
  3  4  2  0
  4  5  1  0
  5  6  1  0
  6  7  1  0
  7  8  1  0
  8  9  1  0
  9 10  1  0
 10 11  1  0
 11 12  2  0
 12 13  1  0
 13 14  2  0
 14 15  1  0
 15 16  2  0
 16 17  1  0
 16 18  1  0
 18 19  2  0
 19 20  1  0
 20 21  2  0
 21 22  1  0
  9 23  1  0
 23 24  1  0
 24 25  1  0
 25 26  2  0
 26 27  1  0
 27 28  1  0
 26  3  1  0
 24  5  2  0
 12  8  1  0
 22 13  1  0
 21 15  1  0
  1 29  1  0
  1 30  1  0
  1 31  1  0
  4 32  1  0
  7 33  1  0
  7 34  1  0
  8 35  1  0
  9 36  1  0
 10 37  1  0
 10 38  1  0
 17 39  1  0
 18 40  1  0
 19 41  1  0
 20 42  1  0
 23 43  1  0
 23 44  1  0
 25 45  1  0
 28 46  1  0
 28 47  1  0
 28 48  1  0
M  END
$$$$
[H]c1nc(N([H])C([H])([H])c2c([H])c([H])c([H])c(Cl)c2[H])c2c([H])c([H])c([H])c(C(=O)N([H])[H])c2n1
     RDKit          3D

 35 37  0  0  0  0  0  0  0  0999 V2000
    5.5031    0.4542    0.6559 N   0  0  0  0  0  0  0  0  0  0  0  0
    5.1814   -0.5381   -0.2789 C   0  0  0  0  0  0  0  0  0  0  0  0
    6.0698   -1.2223   -0.8799 O   0  0  0  0  0  0  0  0  0  0  0  0
    3.7861   -0.8247   -0.5999 C   0  0  0  0  0  0  0  0  0  0  0  0
    3.4805   -1.8031   -1.5213 C   0  0  0  0  0  0  0  0  0  0  0  0
    2.1639   -2.0643   -1.8156 C   0  0  0  0  0  0  0  0  0  0  0  0
    1.1657   -1.3259   -1.1683 C   0  0  0  0  0  0  0  0  0  0  0  0
    1.4965   -0.3406   -0.2396 C   0  0  0  0  0  0  0  0  0  0  0  0
    0.5455    0.4016    0.4131 C   0  0  0  0  0  0  0  0  0  0  0  0
   -0.8299    0.2032    0.1748 N   0  0  0  0  0  0  0  0  0  0  0  0
   -1.7892    1.0161    0.8928 C   0  0  0  0  0  0  0  0  0  0  0  0
   -3.1533    0.6385    0.4881 C   0  0  0  0  0  0  0  0  0  0  0  0
   -3.7023    1.3206   -0.5937 C   0  0  0  0  0  0  0  0  0  0  0  0
   -4.9717    0.9879   -0.9909 C   0  0  0  0  0  0  0  0  0  0  0  0
   -5.7220    0.0055   -0.3600 C   0  0  0  0  0  0  0  0  0  0  0  0
   -5.1711   -0.6701    0.7158 C   0  0  0  0  0  0  0  0  0  0  0  0
   -6.1162   -1.9142    1.5178 Cl  0  0  0  0  0  0  0  0  0  0  0  0
   -3.8945   -0.3366    1.1164 C   0  0  0  0  0  0  0  0  0  0  0  0
    0.9339    1.3465    1.3065 N   0  0  0  0  0  0  0  0  0  0  0  0
    2.2215    1.5893    1.5826 C   0  0  0  0  0  0  0  0  0  0  0  0
    3.1604    0.8687    0.9496 N   0  0  0  0  0  0  0  0  0  0  0  0
    2.8118   -0.0880    0.0467 C   0  0  0  0  0  0  0  0  0  0  0  0
    5.6195    0.1941    1.6529 H   0  0  0  0  0  0  0  0  0  0  0  0
    5.6227    1.4341    0.3530 H   0  0  0  0  0  0  0  0  0  0  0  0
    4.2512   -2.3841   -2.0311 H   0  0  0  0  0  0  0  0  0  0  0  0
    1.8304   -2.8111   -2.5228 H   0  0  0  0  0  0  0  0  0  0  0  0
    0.1347   -1.5257   -1.3945 H   0  0  0  0  0  0  0  0  0  0  0  0
   -1.1778   -0.4912   -0.4843 H   0  0  0  0  0  0  0  0  0  0  0  0
   -1.5792    2.0949    0.7256 H   0  0  0  0  0  0  0  0  0  0  0  0
   -1.7013    0.8546    1.9924 H   0  0  0  0  0  0  0  0  0  0  0  0
   -3.1278    2.0980   -1.1044 H   0  0  0  0  0  0  0  0  0  0  0  0
   -5.3686    1.5501   -1.8490 H   0  0  0  0  0  0  0  0  0  0  0  0
   -6.7224   -0.2088   -0.7258 H   0  0  0  0  0  0  0  0  0  0  0  0
   -3.4565   -0.8681    1.9655 H   0  0  0  0  0  0  0  0  0  0  0  0
    2.5051    2.3593    2.3094 H   0  0  0  0  0  0  0  0  0  0  0  0
  1  2  1  0
  2  3  2  0
  2  4  1  0
  4  5  2  0
  5  6  1  0
  6  7  2  0
  7  8  1  0
  8  9  2  0
  9 10  1  0
 10 11  1  0
 11 12  1  0
 12 13  2  0
 13 14  1  0
 14 15  2  0
 15 16  1  0
 16 17  1  0
 16 18  2  0
  9 19  1  0
 19 20  2  0
 20 21  1  0
 21 22  2  0
 22  4  1  0
 22  8  1  0
 18 12  1  0
  1 23  1  0
  1 24  1  0
  5 25  1  0
  6 26  1  0
  7 27  1  0
 10 28  1  0
 11 29  1  0
 11 30  1  0
 13 31  1  0
 14 32  1  0
 15 33  1  0
 18 34  1  0
 20 35  1  0
M  END
$$$$
[H]c1nc(C#N)c(C(=O)N([H])C([H])([H])C2([H])C([H])([H])C([H])([H])N(C(=O)OC(C([H])([H])[H])(C([H])([H])[H])C([H])([H])[H])C([H])([H])C2([H])[H])c(-c2c([H])c([H])c3c(c([H])nn3[H])c2[H])c1[H]
     RDKit          3D

 62 65  0  0  0  0  0  0  0  0999 V2000
   -7.1863   -0.1464   -0.6278 C   0  0  0  0  0  0  0  0  0  0  0  0
   -6.5117    0.8061    0.3383 C   0  0  0  0  0  0  0  0  0  0  0  0
   -6.8871    2.2039   -0.0402 C   0  0  0  0  0  0  0  0  0  0  0  0
   -7.1275    0.5301    1.7086 C   0  0  0  0  0  0  0  0  0  0  0  0
   -5.1391    0.5918    0.4478 O   0  0  0  0  0  0  0  0  0  0  0  0
   -4.2323    0.6751   -0.5852 C   0  0  0  0  0  0  0  0  0  0  0  0
   -4.6851    0.9713   -1.7288 O   0  0  0  0  0  0  0  0  0  0  0  0
   -2.8413    0.4483   -0.4273 N   0  0  0  0  0  0  0  0  0  0  0  0
   -1.8782    0.5258   -1.4693 C   0  0  0  0  0  0  0  0  0  0  0  0
   -0.5112    0.0949   -1.1232 C   0  0  0  0  0  0  0  0  0  0  0  0
   -0.0300    0.4852    0.2404 C   0  0  0  0  0  0  0  0  0  0  0  0
    0.7077   -0.6014    0.9536 C   0  0  0  0  0  0  0  0  0  0  0  0
    1.8773   -1.0558    0.2762 N   0  0  0  0  0  0  0  0  0  0  0  0
    2.6635   -2.0787    0.8434 C   0  0  0  0  0  0  0  0  0  0  0  0
    2.3043   -2.6077    1.9697 O   0  0  0  0  0  0  0  0  0  0  0  0
    3.8793   -2.6462    0.2957 C   0  0  0  0  0  0  0  0  0  0  0  0
    4.1184   -4.0121    0.5027 C   0  0  0  0  0  0  0  0  0  0  0  0
    5.2205   -4.6293    0.0551 N   0  0  0  0  0  0  0  0  0  0  0  0
    6.1330   -3.9405   -0.6123 C   0  0  0  0  0  0  0  0  0  0  0  0
    5.9464   -2.5937   -0.8419 C   0  0  0  0  0  0  0  0  0  0  0  0
    4.8058   -1.9069   -0.3883 C   0  0  0  0  0  0  0  0  0  0  0  0
    4.7702   -0.4753   -0.6189 C   0  0  0  0  0  0  0  0  0  0  0  0
    4.8638    0.0451   -1.8922 C   0  0  0  0  0  0  0  0  0  0  0  0
    4.8826    1.4019   -2.1393 C   0  0  0  0  0  0  0  0  0  0  0  0
    4.8059    2.3005   -1.0866 C   0  0  0  0  0  0  0  0  0  0  0  0
    4.8006    3.6320   -1.0042 N   0  0  0  0  0  0  0  0  0  0  0  0
    4.7088    4.0077    0.2523 N   0  0  0  0  0  0  0  0  0  0  0  0
    4.6518    2.9247    1.0218 C   0  0  0  0  0  0  0  0  0  0  0  0
    4.7107    1.8204    0.2096 C   0  0  0  0  0  0  0  0  0  0  0  0
    4.6943    0.4541    0.4244 C   0  0  0  0  0  0  0  0  0  0  0  0
    3.1720   -4.8510    1.2122 C   0  0  0  0  0  0  0  0  0  0  0  0
    2.4231   -5.5458    1.7699 N   0  0  0  0  0  0  0  0  0  0  0  0
   -1.1436    0.9626    1.1452 C   0  0  0  0  0  0  0  0  0  0  0  0
   -2.3779    0.1113    0.9056 C   0  0  0  0  0  0  0  0  0  0  0  0
   -7.1269    0.2047   -1.6682 H   0  0  0  0  0  0  0  0  0  0  0  0
   -6.8045   -1.1919   -0.5105 H   0  0  0  0  0  0  0  0  0  0  0  0
   -8.2585   -0.1846   -0.3433 H   0  0  0  0  0  0  0  0  0  0  0  0
   -6.7461    2.8678    0.8475 H   0  0  0  0  0  0  0  0  0  0  0  0
   -6.3993    2.5781   -0.9426 H   0  0  0  0  0  0  0  0  0  0  0  0
   -7.9884    2.2110   -0.2345 H   0  0  0  0  0  0  0  0  0  0  0  0
   -6.6619    1.2013    2.4302 H   0  0  0  0  0  0  0  0  0  0  0  0
   -8.2170    0.7746    1.6749 H   0  0  0  0  0  0  0  0  0  0  0  0
   -6.9673   -0.5243    2.0240 H   0  0  0  0  0  0  0  0  0  0  0  0
   -1.8784    1.5706   -1.8981 H   0  0  0  0  0  0  0  0  0  0  0  0
   -2.2583   -0.1077   -2.3206 H   0  0  0  0  0  0  0  0  0  0  0  0
    0.1895    0.4831   -1.9189 H   0  0  0  0  0  0  0  0  0  0  0  0
   -0.4436   -1.0154   -1.2094 H   0  0  0  0  0  0  0  0  0  0  0  0
    0.6641    1.3431    0.1153 H   0  0  0  0  0  0  0  0  0  0  0  0
    1.0172   -0.2146    1.9467 H   0  0  0  0  0  0  0  0  0  0  0  0
    0.0041   -1.4532    1.1871 H   0  0  0  0  0  0  0  0  0  0  0  0
    2.1144   -0.6486   -0.6339 H   0  0  0  0  0  0  0  0  0  0  0  0
    7.0466   -4.3932   -0.9994 H   0  0  0  0  0  0  0  0  0  0  0  0
    6.6859   -2.0394   -1.3822 H   0  0  0  0  0  0  0  0  0  0  0  0
    4.9257   -0.6236   -2.7431 H   0  0  0  0  0  0  0  0  0  0  0  0
    4.9556    1.8286   -3.1326 H   0  0  0  0  0  0  0  0  0  0  0  0
    4.8588    4.3037   -1.7943 H   0  0  0  0  0  0  0  0  0  0  0  0
    4.5735    2.9164    2.0905 H   0  0  0  0  0  0  0  0  0  0  0  0
    4.6211    0.0962    1.4207 H   0  0  0  0  0  0  0  0  0  0  0  0
   -0.8273    0.7903    2.1913 H   0  0  0  0  0  0  0  0  0  0  0  0
   -1.4272    2.0153    0.9503 H   0  0  0  0  0  0  0  0  0  0  0  0
   -3.1415    0.2917    1.6790 H   0  0  0  0  0  0  0  0  0  0  0  0
   -2.0990   -0.9820    0.8547 H   0  0  0  0  0  0  0  0  0  0  0  0
  1  2  1  0
  2  3  1  0
  2  4  1  0
  2  5  1  0
  5  6  1  0
  6  7  2  0
  6  8  1  0
  8  9  1  0
  9 10  1  0
 10 11  1  0
 11 12  1  0
 12 13  1  0
 13 14  1  0
 14 15  2  0
 14 16  1  0
 16 17  2  0
 17 18  1  0
 18 19  2  0
 19 20  1  0
 20 21  2  0
 21 22  1  0
 22 23  2  0
 23 24  1  0
 24 25  2  0
 25 26  1  0
 26 27  1  0
 27 28  2  0
 28 29  1  0
 29 30  2  0
 17 31  1  0
 31 32  3  0
 11 33  1  0
 33 34  1  0
 34  8  1  0
 21 16  1  0
 30 22  1  0
 29 25  1  0
  1 35  1  0
  1 36  1  0
  1 37  1  0
  3 38  1  0
  3 39  1  0
  3 40  1  0
  4 41  1  0
  4 42  1  0
  4 43  1  0
  9 44  1  0
  9 45  1  0
 10 46  1  0
 10 47  1  0
 11 48  1  0
 12 49  1  0
 12 50  1  0
 13 51  1  0
 19 52  1  0
 20 53  1  0
 23 54  1  0
 24 55  1  0
 26 56  1  0
 28 57  1  0
 30 58  1  0
 33 59  1  0
 33 60  1  0
 34 61  1  0
 34 62  1  0
M  END
$$$$
[H]c1c([H])c([C@]([H])(N([H])C(=O)N([H])c2nc3c(OC([H])([H])[H])c([H])c([H])c([H])c3s2)C([H])([H])[H])c([H])c(F)c1OC([H])([H])[H]
     RDKit          3D

 44 46  0  0  0  0  0  0  0  0999 V2000
    7.3163   -1.1240   -1.5059 C   0  0  0  0  0  0  0  0  0  0  0  0
    6.0098   -0.9126   -1.0154 O   0  0  0  0  0  0  0  0  0  0  0  0
    5.7713    0.2045   -0.2291 C   0  0  0  0  0  0  0  0  0  0  0  0
    6.7777    1.0727    0.0592 C   0  0  0  0  0  0  0  0  0  0  0  0
    6.6564    2.2117    0.8279 C   0  0  0  0  0  0  0  0  0  0  0  0
    5.3844    2.4601    1.3329 C   0  0  0  0  0  0  0  0  0  0  0  0
    4.3342    1.5782    1.0476 C   0  0  0  0  0  0  0  0  0  0  0  0
    2.6620    1.4984    1.4489 S   0  0  0  0  0  0  0  0  0  0  0  0
    2.2740    0.0586    0.6238 C   0  0  0  0  0  0  0  0  0  0  0  0
    1.0350   -0.6563    0.4974 N   0  0  0  0  0  0  0  0  0  0  0  0
   -0.1219   -0.1236    1.1553 C   0  0  0  0  0  0  0  0  0  0  0  0
   -0.0466    0.9511    1.8299 O   0  0  0  0  0  0  0  0  0  0  0  0
   -1.3393   -0.8126    1.0394 N   0  0  0  0  0  0  0  0  0  0  0  0
   -2.5111   -0.2874    1.6966 C   0  0  2  0  0  0  0  0  0  0  0  0
   -3.0486   -1.3387    2.6689 C   0  0  0  0  0  0  0  0  0  0  0  0
   -3.5768   -0.0870    0.6784 C   0  0  0  0  0  0  0  0  0  0  0  0
   -3.8624   -1.0348   -0.2678 C   0  0  0  0  0  0  0  0  0  0  0  0
   -4.8597   -0.8581   -1.2288 C   0  0  0  0  0  0  0  0  0  0  0  0
   -5.5887    0.3060   -1.2354 C   0  0  0  0  0  0  0  0  0  0  0  0
   -6.5793    0.5038   -2.1749 O   0  0  0  0  0  0  0  0  0  0  0  0
   -6.8471   -0.4867   -3.1308 C   0  0  0  0  0  0  0  0  0  0  0  0
   -5.3173    1.2663   -0.2961 C   0  0  0  0  0  0  0  0  0  0  0  0
   -6.0104    2.4305   -0.2638 F   0  0  0  0  0  0  0  0  0  0  0  0
   -4.3191    1.0916    0.6672 C   0  0  0  0  0  0  0  0  0  0  0  0
    3.4216   -0.2867    0.0899 N   0  0  0  0  0  0  0  0  0  0  0  0
    4.4797    0.4546    0.2824 C   0  0  0  0  0  0  0  0  0  0  0  0
    7.3007   -1.9238   -2.3003 H   0  0  0  0  0  0  0  0  0  0  0  0
    8.0120   -1.5099   -0.7300 H   0  0  0  0  0  0  0  0  0  0  0  0
    7.7328   -0.2137   -2.0141 H   0  0  0  0  0  0  0  0  0  0  0  0
    7.8058    0.9174   -0.3194 H   0  0  0  0  0  0  0  0  0  0  0  0
    7.4583    2.8964    1.0529 H   0  0  0  0  0  0  0  0  0  0  0  0
    5.1571    3.3006    1.9374 H   0  0  0  0  0  0  0  0  0  0  0  0
    0.9519   -1.5261   -0.0424 H   0  0  0  0  0  0  0  0  0  0  0  0
   -1.4377   -1.6957    0.4955 H   0  0  0  0  0  0  0  0  0  0  0  0
   -2.2964    0.6523    2.2517 H   0  0  0  0  0  0  0  0  0  0  0  0
   -2.8653   -2.3436    2.2250 H   0  0  0  0  0  0  0  0  0  0  0  0
   -4.1402   -1.2366    2.7654 H   0  0  0  0  0  0  0  0  0  0  0  0
   -2.5623   -1.2779    3.6546 H   0  0  0  0  0  0  0  0  0  0  0  0
   -3.3026   -1.9504   -0.2765 H   0  0  0  0  0  0  0  0  0  0  0  0
   -5.0122   -1.6625   -1.9344 H   0  0  0  0  0  0  0  0  0  0  0  0
   -7.0737   -1.4492   -2.5873 H   0  0  0  0  0  0  0  0  0  0  0  0
   -7.7296   -0.1959   -3.7410 H   0  0  0  0  0  0  0  0  0  0  0  0
   -6.0014   -0.6893   -3.8065 H   0  0  0  0  0  0  0  0  0  0  0  0
   -4.0912    1.8278    1.4087 H   0  0  0  0  0  0  0  0  0  0  0  0
  1  2  1  0
  2  3  1  0
  3  4  2  0
  4  5  1  0
  5  6  2  0
  6  7  1  0
  7  8  1  0
  8  9  1  0
  9 10  1  0
 10 11  1  0
 11 12  2  0
 11 13  1  0
 13 14  1  0
 14 15  1  0
 14 16  1  0
 16 17  2  0
 17 18  1  0
 18 19  2  0
 19 20  1  0
 20 21  1  0
 19 22  1  0
 22 23  1  0
 22 24  2  0
  9 25  2  0
 25 26  1  0
 26  3  1  0
 26  7  2  0
 24 16  1  0
  1 27  1  0
  1 28  1  0
  1 29  1  0
  4 30  1  0
  5 31  1  0
  6 32  1  0
 10 33  1  0
 13 34  1  0
 14 35  1  1
 15 36  1  0
 15 37  1  0
 15 38  1  0
 17 39  1  0
 18 40  1  0
 21 41  1  0
 21 42  1  0
 21 43  1  0
 24 44  1  0
M  END
$$$$
[H]c1c([H])c(-c2nc3c(N([H])[H])nc(O[C@]([H])(c4c([H])c([H])c(C(C([H])([H])[H])(C([H])([H])[H])C([H])([H])[H])c([H])c4[H])C([H])([H])[H])nc3s2)c([H])c([H])c1C#N
     RDKit          3D

 54 57  0  0  0  0  0  0  0  0999 V2000
   -1.3125    2.8970    0.2840 C   0  0  0  0  0  0  0  0  0  0  0  0
   -1.3407    1.3619    0.2412 C   0  0  2  0  0  0  0  0  0  0  0  0
   -0.5072    0.9246   -0.7996 O   0  0  0  0  0  0  0  0  0  0  0  0
    0.7999    0.6307   -0.4787 C   0  0  0  0  0  0  0  0  0  0  0  0
    1.2330    0.7276    0.7763 N   0  0  0  0  0  0  0  0  0  0  0  0
    2.4668    0.4775    1.1870 C   0  0  0  0  0  0  0  0  0  0  0  0
    2.7792    0.6172    2.5625 N   0  0  0  0  0  0  0  0  0  0  0  0
    3.4326    0.0729    0.2456 C   0  0  0  0  0  0  0  0  0  0  0  0
    4.6844   -0.1849    0.4780 N   0  0  0  0  0  0  0  0  0  0  0  0
    5.4904   -0.5275   -0.4899 C   0  0  0  0  0  0  0  0  0  0  0  0
    4.4239   -0.4956   -1.8505 S   0  0  0  0  0  0  0  0  0  0  0  0
    2.9902   -0.0278   -1.0433 C   0  0  0  0  0  0  0  0  0  0  0  0
    1.6936    0.2450   -1.4039 N   0  0  0  0  0  0  0  0  0  0  0  0
    6.9290   -0.8339   -0.4874 C   0  0  0  0  0  0  0  0  0  0  0  0
    7.6203   -0.7839    0.6746 C   0  0  0  0  0  0  0  0  0  0  0  0
    8.9979   -1.0538    0.6837 C   0  0  0  0  0  0  0  0  0  0  0  0
    9.6723   -1.3727   -0.4728 C   0  0  0  0  0  0  0  0  0  0  0  0
    8.9527   -1.4206   -1.6458 C   0  0  0  0  0  0  0  0  0  0  0  0
    7.5850   -1.1517   -1.6553 C   0  0  0  0  0  0  0  0  0  0  0  0
   11.0824   -1.6494   -0.5144 C   0  0  0  0  0  0  0  0  0  0  0  0
   12.2260   -1.8778   -0.5371 N   0  0  0  0  0  0  0  0  0  0  0  0
   -2.6912    0.8541    0.0888 C   0  0  0  0  0  0  0  0  0  0  0  0
   -2.9193   -0.4756   -0.1829 C   0  0  0  0  0  0  0  0  0  0  0  0
   -4.2394   -0.8964   -0.3030 C   0  0  0  0  0  0  0  0  0  0  0  0
   -5.3037   -0.0268   -0.1590 C   0  0  0  0  0  0  0  0  0  0  0  0
   -5.0161    1.3157    0.1164 C   0  0  0  0  0  0  0  0  0  0  0  0
   -3.7416    1.7658    0.2414 C   0  0  0  0  0  0  0  0  0  0  0  0
   -6.7050   -0.4990   -0.2789 C   0  0  0  0  0  0  0  0  0  0  0  0
   -6.9055   -1.1202   -1.6274 C   0  0  0  0  0  0  0  0  0  0  0  0
   -7.0546   -1.4983    0.8135 C   0  0  0  0  0  0  0  0  0  0  0  0
   -7.6156    0.6980   -0.0970 C   0  0  0  0  0  0  0  0  0  0  0  0
   -1.7468    3.2482    1.2323 H   0  0  0  0  0  0  0  0  0  0  0  0
   -0.2441    3.2466    0.2793 H   0  0  0  0  0  0  0  0  0  0  0  0
   -1.8757    3.3102   -0.5442 H   0  0  0  0  0  0  0  0  0  0  0  0
   -0.9375    1.0757    1.2493 H   0  0  0  0  0  0  0  0  0  0  0  0
    2.0268    0.6820    3.2701 H   0  0  0  0  0  0  0  0  0  0  0  0
    3.7824    0.6527    2.8404 H   0  0  0  0  0  0  0  0  0  0  0  0
    7.1230   -0.5348    1.6021 H   0  0  0  0  0  0  0  0  0  0  0  0
    9.5564   -1.0122    1.6014 H   0  0  0  0  0  0  0  0  0  0  0  0
    9.4600   -1.6698   -2.5814 H   0  0  0  0  0  0  0  0  0  0  0  0
    7.0153   -1.1896   -2.5753 H   0  0  0  0  0  0  0  0  0  0  0  0
   -2.1463   -1.2119   -0.3097 H   0  0  0  0  0  0  0  0  0  0  0  0
   -4.4436   -1.9453   -0.5144 H   0  0  0  0  0  0  0  0  0  0  0  0
   -5.8248    2.0259    0.2360 H   0  0  0  0  0  0  0  0  0  0  0  0
   -3.5560    2.8055    0.4564 H   0  0  0  0  0  0  0  0  0  0  0  0
   -6.0809   -1.8097   -1.8772 H   0  0  0  0  0  0  0  0  0  0  0  0
   -7.8667   -1.7102   -1.6302 H   0  0  0  0  0  0  0  0  0  0  0  0
   -6.9469   -0.3600   -2.4307 H   0  0  0  0  0  0  0  0  0  0  0  0
   -7.9578   -1.1759    1.3897 H   0  0  0  0  0  0  0  0  0  0  0  0
   -7.2523   -2.5115    0.4112 H   0  0  0  0  0  0  0  0  0  0  0  0
   -6.2122   -1.5234    1.5289 H   0  0  0  0  0  0  0  0  0  0  0  0
   -7.4976    1.0869    0.9263 H   0  0  0  0  0  0  0  0  0  0  0  0
   -8.6861    0.4169   -0.1969 H   0  0  0  0  0  0  0  0  0  0  0  0
   -7.3957    1.4116   -0.9037 H   0  0  0  0  0  0  0  0  0  0  0  0
  1  2  1  0
  2  3  1  0
  3  4  1  0
  4  5  2  0
  5  6  1  0
  6  7  1  0
  6  8  2  0
  8  9  1  0
  9 10  2  0
 10 11  1  0
 11 12  1  0
 12 13  2  0
 10 14  1  0
 14 15  2  0
 15 16  1  0
 16 17  2  0
 17 18  1  0
 18 19  2  0
 17 20  1  0
 20 21  3  0
  2 22  1  0
 22 23  2  0
 23 24  1  0
 24 25  2  0
 25 26  1  0
 26 27  2  0
 25 28  1  0
 28 29  1  0
 28 30  1  0
 28 31  1  0
 13  4  1  0
 19 14  1  0
 27 22  1  0
 12  8  1  0
  1 32  1  0
  1 33  1  0
  1 34  1  0
  2 35  1  1
  7 36  1  0
  7 37  1  0
 15 38  1  0
 16 39  1  0
 18 40  1  0
 19 41  1  0
 23 42  1  0
 24 43  1  0
 26 44  1  0
 27 45  1  0
 29 46  1  0
 29 47  1  0
 29 48  1  0
 30 49  1  0
 30 50  1  0
 30 51  1  0
 31 52  1  0
 31 53  1  0
 31 54  1  0
M  END
$$$$
[H]Oc1c([H])c([H])c(C([H])([H])[C@@]([H])(C(=O)N([H])[C@]([H])(C(=O)N([H])[C@]([H])(C(=O)N([H])[C@]([H])(C(=O)N([H])[C@]([H])(C(=O)N([H])[C@]([H])(C(=O)N([H])[C@]([H])(C(=O)N([H])[C@]([H])(C(=O)N([H])[H])C([H])([H])c2c([H])n([H])c3c([H])c([H])c([H])c([H])c23)C([H])([H])O[H])C([H])([H])O[H])C([H])([H])C([H])(C([H])([H])[H])C([H])([H])[H])C([H])([H])S[H])C([H])([H])C([H])(C([H])([H])[H])C([H])([H])[H])C([H])([H])[H])N([H])[H])c([H])c1[H]
     RDKit          3D

130132  0  0  0  0  0  0  0  0999 V2000
    3.2839   -3.3135   -0.6154 C   0  0  0  0  0  0  0  0  0  0  0  0
    3.7693   -2.2006   -1.5087 C   0  0  0  0  0  0  0  0  0  0  0  0
    4.6984   -2.8358   -2.5517 C   0  0  0  0  0  0  0  0  0  0  0  0
    2.6647   -1.4530   -2.1708 C   0  0  0  0  0  0  0  0  0  0  0  0
    1.7308   -0.7942   -1.2126 C   0  0  2  0  0  0  0  0  0  0  0  0
    0.6584   -0.1195   -2.0397 N   0  0  0  0  0  0  0  0  0  0  0  0
   -0.6596   -0.0462   -1.5819 C   0  0  0  0  0  0  0  0  0  0  0  0
   -0.8675   -0.6070   -0.4361 O   0  0  0  0  0  0  0  0  0  0  0  0
   -1.8099    0.5707   -2.2099 C   0  0  2  0  0  0  0  0  0  0  0  0
   -1.6078    2.0901   -2.3700 C   0  0  0  0  0  0  0  0  0  0  0  0
   -0.2243    2.5153   -3.4180 S   0  0  0  0  0  0  0  0  0  0  0  0
   -3.0346    0.3967   -1.3918 N   0  0  0  0  0  0  0  0  0  0  0  0
   -4.3313    0.5362   -1.9903 C   0  0  0  0  0  0  0  0  0  0  0  0
   -4.3898    0.8160   -3.2243 O   0  0  0  0  0  0  0  0  0  0  0  0
   -5.5126    0.3555   -1.1374 C   0  0  2  0  0  0  0  0  0  0  0  0
   -5.6993   -1.0579   -0.7081 C   0  0  0  0  0  0  0  0  0  0  0  0
   -5.9424   -2.1169   -1.6855 C   0  0  0  0  0  0  0  0  0  0  0  0
   -4.9232   -2.4111   -2.7387 C   0  0  0  0  0  0  0  0  0  0  0  0
   -6.0727   -3.4358   -0.8764 C   0  0  0  0  0  0  0  0  0  0  0  0
   -6.7204    0.8419   -1.8096 N   0  0  0  0  0  0  0  0  0  0  0  0
   -7.6934    1.5073   -1.0440 C   0  0  0  0  0  0  0  0  0  0  0  0
   -7.5202    1.6561    0.2182 O   0  0  0  0  0  0  0  0  0  0  0  0
   -8.9448    2.0756   -1.5671 C   0  0  2  0  0  0  0  0  0  0  0  0
   -8.6861    3.5995   -1.6623 C   0  0  0  0  0  0  0  0  0  0  0  0
  -10.0138    1.8468   -0.5980 N   0  0  0  0  0  0  0  0  0  0  0  0
  -11.3108    1.4826   -1.0118 C   0  0  0  0  0  0  0  0  0  0  0  0
  -11.4592    1.3851   -2.2911 O   0  0  0  0  0  0  0  0  0  0  0  0
  -12.4833    1.2046   -0.1990 C   0  0  1  0  0  0  0  0  0  0  0  0
  -13.6534    1.0813   -1.0478 N   0  0  0  0  0  0  0  0  0  0  0  0
  -12.3477   -0.0281    0.6901 C   0  0  0  0  0  0  0  0  0  0  0  0
  -13.6623   -0.1789    1.4112 C   0  0  0  0  0  0  0  0  0  0  0  0
  -14.6898   -0.8858    0.7745 C   0  0  0  0  0  0  0  0  0  0  0  0
  -15.9176   -1.0948    1.3387 C   0  0  0  0  0  0  0  0  0  0  0  0
  -16.1559   -0.5701    2.6244 C   0  0  0  0  0  0  0  0  0  0  0  0
  -17.3902   -0.7621    3.2320 O   0  0  0  0  0  0  0  0  0  0  0  0
  -15.1550    0.1232    3.2548 C   0  0  0  0  0  0  0  0  0  0  0  0
  -13.9103    0.3228    2.6595 C   0  0  0  0  0  0  0  0  0  0  0  0
    2.3309    0.2739   -0.3701 C   0  0  0  0  0  0  0  0  0  0  0  0
    1.9800    1.4892   -0.6702 O   0  0  0  0  0  0  0  0  0  0  0  0
    3.2040    0.1598    0.6870 N   0  0  0  0  0  0  0  0  0  0  0  0
    3.7160    1.3293    1.4298 C   0  0  1  0  0  0  0  0  0  0  0  0
    3.5418    1.1689    2.8801 C   0  0  0  0  0  0  0  0  0  0  0  0
    3.9822    2.2813    3.5903 O   0  0  0  0  0  0  0  0  0  0  0  0
    5.0692    1.6659    1.0187 C   0  0  0  0  0  0  0  0  0  0  0  0
    5.2486    1.6456   -0.2730 O   0  0  0  0  0  0  0  0  0  0  0  0
    6.1983    2.0058    1.7526 N   0  0  0  0  0  0  0  0  0  0  0  0
    7.4442    2.3279    1.0922 C   0  0  1  0  0  0  0  0  0  0  0  0
    8.1008    3.5319    1.7381 C   0  0  0  0  0  0  0  0  0  0  0  0
    7.2772    4.6283    1.6470 O   0  0  0  0  0  0  0  0  0  0  0  0
    8.3810    1.1410    1.1977 C   0  0  0  0  0  0  0  0  0  0  0  0
    8.0154    0.1057    1.7546 O   0  0  0  0  0  0  0  0  0  0  0  0
    9.6523    1.3150    0.6293 N   0  0  0  0  0  0  0  0  0  0  0  0
   10.6521    0.2574    0.6694 C   0  0  1  0  0  0  0  0  0  0  0  0
   11.0047   -0.0277    2.0775 C   0  0  0  0  0  0  0  0  0  0  0  0
   12.0477   -1.0787    2.1979 C   0  0  0  0  0  0  0  0  0  0  0  0
   11.9273   -2.3922    2.6139 C   0  0  0  0  0  0  0  0  0  0  0  0
   13.1446   -2.9672    2.6030 N   0  0  0  0  0  0  0  0  0  0  0  0
   14.0595   -2.0756    2.1927 C   0  0  0  0  0  0  0  0  0  0  0  0
   15.4304   -2.2055    2.0294 C   0  0  0  0  0  0  0  0  0  0  0  0
   16.1080   -1.0705    1.5870 C   0  0  0  0  0  0  0  0  0  0  0  0
   15.4403    0.1070    1.3309 C   0  0  0  0  0  0  0  0  0  0  0  0
   14.0879    0.2216    1.4967 C   0  0  0  0  0  0  0  0  0  0  0  0
   13.4116   -0.9032    1.9366 C   0  0  0  0  0  0  0  0  0  0  0  0
   10.1865   -0.9117   -0.1288 C   0  0  0  0  0  0  0  0  0  0  0  0
   10.9430   -2.0922   -0.3263 N   0  0  0  0  0  0  0  0  0  0  0  0
    9.0514   -0.8765   -0.6814 O   0  0  0  0  0  0  0  0  0  0  0  0
    2.3268   -3.1104   -0.1175 H   0  0  0  0  0  0  0  0  0  0  0  0
    3.1385   -4.2597   -1.1991 H   0  0  0  0  0  0  0  0  0  0  0  0
    4.0284   -3.5708    0.1633 H   0  0  0  0  0  0  0  0  0  0  0  0
    4.3721   -1.4761   -0.9098 H   0  0  0  0  0  0  0  0  0  0  0  0
    4.0750   -3.1236   -3.4157 H   0  0  0  0  0  0  0  0  0  0  0  0
    5.4783   -2.0951   -2.7958 H   0  0  0  0  0  0  0  0  0  0  0  0
    5.1935   -3.7200   -2.0941 H   0  0  0  0  0  0  0  0  0  0  0  0
    3.1059   -0.7181   -2.8973 H   0  0  0  0  0  0  0  0  0  0  0  0
    2.0314   -2.1251   -2.8141 H   0  0  0  0  0  0  0  0  0  0  0  0
    1.1910   -1.5168   -0.6095 H   0  0  0  0  0  0  0  0  0  0  0  0
    0.9332    0.2689   -2.9502 H   0  0  0  0  0  0  0  0  0  0  0  0
   -2.0630    0.1504   -3.2023 H   0  0  0  0  0  0  0  0  0  0  0  0
   -1.3905    2.4947   -1.3413 H   0  0  0  0  0  0  0  0  0  0  0  0
   -2.5603    2.5666   -2.6830 H   0  0  0  0  0  0  0  0  0  0  0  0
   -0.5295    2.1328   -4.7481 H   0  0  0  0  0  0  0  0  0  0  0  0
   -2.9326    0.1792   -0.4021 H   0  0  0  0  0  0  0  0  0  0  0  0
   -5.3440    0.9346   -0.1776 H   0  0  0  0  0  0  0  0  0  0  0  0
   -6.5865   -1.0755    0.0182 H   0  0  0  0  0  0  0  0  0  0  0  0
   -4.8527   -1.3721   -0.0425 H   0  0  0  0  0  0  0  0  0  0  0  0
   -6.9792   -1.9996   -2.1717 H   0  0  0  0  0  0  0  0  0  0  0  0
   -4.9205   -3.5153   -3.0015 H   0  0  0  0  0  0  0  0  0  0  0  0
   -5.1713   -1.8194   -3.6315 H   0  0  0  0  0  0  0  0  0  0  0  0
   -3.9078   -2.2083   -2.3801 H   0  0  0  0  0  0  0  0  0  0  0  0
   -6.8228   -3.3648   -0.0950 H   0  0  0  0  0  0  0  0  0  0  0  0
   -6.1878   -4.2851   -1.5517 H   0  0  0  0  0  0  0  0  0  0  0  0
   -5.0863   -3.5447   -0.3630 H   0  0  0  0  0  0  0  0  0  0  0  0
   -6.8197    0.6892   -2.8137 H   0  0  0  0  0  0  0  0  0  0  0  0
   -9.2204    1.7837   -2.5814 H   0  0  0  0  0  0  0  0  0  0  0  0
   -8.1414    3.7369   -2.6207 H   0  0  0  0  0  0  0  0  0  0  0  0
   -9.6409    4.1572   -1.7515 H   0  0  0  0  0  0  0  0  0  0  0  0
   -8.0476    3.9425   -0.8396 H   0  0  0  0  0  0  0  0  0  0  0  0
   -9.7959    1.9554    0.4020 H   0  0  0  0  0  0  0  0  0  0  0  0
  -12.6747    2.0606    0.4959 H   0  0  0  0  0  0  0  0  0  0  0  0
  -13.3284    0.7963   -2.0000 H   0  0  0  0  0  0  0  0  0  0  0  0
  -14.0727    2.0338   -1.1427 H   0  0  0  0  0  0  0  0  0  0  0  0
  -11.5861    0.1468    1.4474 H   0  0  0  0  0  0  0  0  0  0  0  0
  -12.1740   -0.9537    0.1515 H   0  0  0  0  0  0  0  0  0  0  0  0
  -14.4718   -1.2790   -0.2215 H   0  0  0  0  0  0  0  0  0  0  0  0
  -16.7244   -1.6367    0.8668 H   0  0  0  0  0  0  0  0  0  0  0  0
  -18.1032   -0.0851    3.0931 H   0  0  0  0  0  0  0  0  0  0  0  0
  -15.3183    0.5429    4.2606 H   0  0  0  0  0  0  0  0  0  0  0  0
  -13.1171    0.8800    3.1718 H   0  0  0  0  0  0  0  0  0  0  0  0
    3.5344   -0.7573    1.0455 H   0  0  0  0  0  0  0  0  0  0  0  0
    3.0704    2.2206    1.0939 H   0  0  0  0  0  0  0  0  0  0  0  0
    4.1589    0.2963    3.2585 H   0  0  0  0  0  0  0  0  0  0  0  0
    2.4869    0.9528    3.1903 H   0  0  0  0  0  0  0  0  0  0  0  0
    3.4920    3.1121    3.2898 H   0  0  0  0  0  0  0  0  0  0  0  0
    6.1942    2.0311    2.7848 H   0  0  0  0  0  0  0  0  0  0  0  0
    7.2380    2.5281    0.0266 H   0  0  0  0  0  0  0  0  0  0  0  0
    9.1223    3.6811    1.3648 H   0  0  0  0  0  0  0  0  0  0  0  0
    8.1640    3.2758    2.8370 H   0  0  0  0  0  0  0  0  0  0  0  0
    7.2344    5.0910    2.5089 H   0  0  0  0  0  0  0  0  0  0  0  0
    9.9356    2.2154    0.1500 H   0  0  0  0  0  0  0  0  0  0  0  0
   11.5547    0.6450    0.0895 H   0  0  0  0  0  0  0  0  0  0  0  0
   10.1227   -0.3919    2.6457 H   0  0  0  0  0  0  0  0  0  0  0  0
   11.3705    0.9402    2.5299 H   0  0  0  0  0  0  0  0  0  0  0  0
   10.9781   -2.8510    2.8982 H   0  0  0  0  0  0  0  0  0  0  0  0
   13.3369   -3.9664    2.8793 H   0  0  0  0  0  0  0  0  0  0  0  0
   15.9691   -3.0933    2.2277 H   0  0  0  0  0  0  0  0  0  0  0  0
   17.1768   -1.0693    1.4285 H   0  0  0  0  0  0  0  0  0  0  0  0
   15.9721    0.9773    0.9869 H   0  0  0  0  0  0  0  0  0  0  0  0
   13.5444    1.1270    1.3022 H   0  0  0  0  0  0  0  0  0  0  0  0
   10.4439   -2.9943   -0.1772 H   0  0  0  0  0  0  0  0  0  0  0  0
   11.9442   -2.1182   -0.6021 H   0  0  0  0  0  0  0  0  0  0  0  0
  1  2  1  0
  2  3  1  0
  2  4  1  0
  4  5  1  0
  5  6  1  0
  6  7  1  0
  7  8  2  0
  7  9  1  0
  9 10  1  0
 10 11  1  0
  9 12  1  0
 12 13  1  0
 13 14  2  0
 13 15  1  0
 15 16  1  0
 16 17  1  0
 17 18  1  0
 17 19  1  0
 15 20  1  0
 20 21  1  0
 21 22  2  0
 21 23  1  0
 23 24  1  0
 23 25  1  0
 25 26  1  0
 26 27  2  0
 26 28  1  0
 28 29  1  0
 28 30  1  0
 30 31  1  0
 31 32  2  0
 32 33  1  0
 33 34  2  0
 34 35  1  0
 34 36  1  0
 36 37  2  0
  5 38  1  0
 38 39  2  0
 38 40  1  0
 40 41  1  0
 41 42  1  0
 42 43  1  0
 41 44  1  0
 44 45  2  0
 44 46  1  0
 46 47  1  0
 47 48  1  0
 48 49  1  0
 47 50  1  0
 50 51  2  0
 50 52  1  0
 52 53  1  0
 53 54  1  0
 54 55  1  0
 55 56  2  0
 56 57  1  0
 57 58  1  0
 58 59  2  0
 59 60  1  0
 60 61  2  0
 61 62  1  0
 62 63  2  0
 53 64  1  0
 64 65  1  0
 64 66  2  0
 37 31  1  0
 63 55  1  0
 63 58  1  0
  1 67  1  0
  1 68  1  0
  1 69  1  0
  2 70  1  0
  3 71  1  0
  3 72  1  0
  3 73  1  0
  4 74  1  0
  4 75  1  0
  5 76  1  1
  6 77  1  0
  9 78  1  6
 10 79  1  0
 10 80  1  0
 11 81  1  0
 12 82  1  0
 15 83  1  1
 16 84  1  0
 16 85  1  0
 17 86  1  0
 18 87  1  0
 18 88  1  0
 18 89  1  0
 19 90  1  0
 19 91  1  0
 19 92  1  0
 20 93  1  0
 23 94  1  6
 24 95  1  0
 24 96  1  0
 24 97  1  0
 25 98  1  0
 28 99  1  1
 29100  1  0
 29101  1  0
 30102  1  0
 30103  1  0
 32104  1  0
 33105  1  0
 35106  1  0
 36107  1  0
 37108  1  0
 40109  1  0
 41110  1  6
 42111  1  0
 42112  1  0
 43113  1  0
 46114  1  0
 47115  1  6
 48116  1  0
 48117  1  0
 49118  1  0
 52119  1  0
 53120  1  6
 54121  1  0
 54122  1  0
 56123  1  0
 57124  1  0
 59125  1  0
 60126  1  0
 61127  1  0
 62128  1  0
 65129  1  0
 65130  1  0
M  END
$$$$
[H]c1c(N2C([H])([H])C([H])([H])C([H])(N([H])C(=O)N([H])c3c([H])c(Cl)c([H])c([H])c3Oc3c([H])c([H])c(F)c([H])c3[H])C2([H])[H])nc(OC([H])([H])[H])c(OC([H])([H])[H])c1[H]
     RDKit          3D

 58 61  0  0  0  0  0  0  0  0999 V2000
    9.5971   -0.4582    0.1863 C   0  0  0  0  0  0  0  0  0  0  0  0
    8.4323   -0.3239    0.9467 O   0  0  0  0  0  0  0  0  0  0  0  0
    7.1560   -0.2835    0.4061 C   0  0  0  0  0  0  0  0  0  0  0  0
    6.9682   -0.3774   -0.9552 C   0  0  0  0  0  0  0  0  0  0  0  0
    5.6859   -0.3381   -1.5141 C   0  0  0  0  0  0  0  0  0  0  0  0
    4.6136   -0.2023   -0.6609 C   0  0  0  0  0  0  0  0  0  0  0  0
    4.7977   -0.1111    0.6636 N   0  0  0  0  0  0  0  0  0  0  0  0
    6.0476   -0.1493    1.2102 C   0  0  0  0  0  0  0  0  0  0  0  0
    6.2057   -0.0525    2.5843 O   0  0  0  0  0  0  0  0  0  0  0  0
    5.0961    0.0858    3.4399 C   0  0  0  0  0  0  0  0  0  0  0  0
    3.2955   -0.1628   -1.2603 N   0  0  0  0  0  0  0  0  0  0  0  0
    2.9624   -0.2522   -2.6395 C   0  0  0  0  0  0  0  0  0  0  0  0
    1.4861   -0.1400   -2.7375 C   0  0  0  0  0  0  0  0  0  0  0  0
    1.0576    0.4341   -1.4218 C   0  0  0  0  0  0  0  0  0  0  0  0
    2.1247   -0.0167   -0.4430 C   0  0  0  0  0  0  0  0  0  0  0  0
   -0.2694    0.0176   -1.0511 N   0  0  0  0  0  0  0  0  0  0  0  0
   -1.3315    0.9472   -0.7446 C   0  0  0  0  0  0  0  0  0  0  0  0
   -1.0208    2.1432   -0.8218 O   0  0  0  0  0  0  0  0  0  0  0  0
   -2.6020    0.5110   -0.3912 N   0  0  0  0  0  0  0  0  0  0  0  0
   -3.7273    1.2912   -0.0675 C   0  0  0  0  0  0  0  0  0  0  0  0
   -3.7587    2.6490   -0.0342 C   0  0  0  0  0  0  0  0  0  0  0  0
   -4.8942    3.4047    0.2939 C   0  0  0  0  0  0  0  0  0  0  0  0
   -4.8577    5.1545    0.3155 Cl  0  0  0  0  0  0  0  0  0  0  0  0
   -6.0444    2.7393    0.6004 C   0  0  0  0  0  0  0  0  0  0  0  0
   -6.0764    1.3621    0.5842 C   0  0  0  0  0  0  0  0  0  0  0  0
   -4.9475    0.6663    0.2590 C   0  0  0  0  0  0  0  0  0  0  0  0
   -5.0015   -0.7225    0.2486 O   0  0  0  0  0  0  0  0  0  0  0  0
   -6.1322   -1.4386    0.5478 C   0  0  0  0  0  0  0  0  0  0  0  0
   -6.4124   -1.8377    1.8387 C   0  0  0  0  0  0  0  0  0  0  0  0
   -7.5461   -2.5570    2.1459 C   0  0  0  0  0  0  0  0  0  0  0  0
   -8.4588   -2.9144    1.1768 C   0  0  0  0  0  0  0  0  0  0  0  0
   -9.5795   -3.6231    1.4687 F   0  0  0  0  0  0  0  0  0  0  0  0
   -8.1837   -2.5161   -0.1256 C   0  0  0  0  0  0  0  0  0  0  0  0
   -7.0522   -1.7972   -0.4378 C   0  0  0  0  0  0  0  0  0  0  0  0
    9.5894    0.2244   -0.7046 H   0  0  0  0  0  0  0  0  0  0  0  0
    9.6662   -1.4878   -0.2153 H   0  0  0  0  0  0  0  0  0  0  0  0
   10.4801   -0.1645    0.7887 H   0  0  0  0  0  0  0  0  0  0  0  0
    7.8326   -0.4831   -1.5951 H   0  0  0  0  0  0  0  0  0  0  0  0
    5.5210   -0.4101   -2.5754 H   0  0  0  0  0  0  0  0  0  0  0  0
    4.2145    0.4895    2.9011 H   0  0  0  0  0  0  0  0  0  0  0  0
    4.8034   -0.9385    3.7788 H   0  0  0  0  0  0  0  0  0  0  0  0
    5.2842    0.7626    4.2915 H   0  0  0  0  0  0  0  0  0  0  0  0
    3.4938    0.5535   -3.1947 H   0  0  0  0  0  0  0  0  0  0  0  0
    3.2856   -1.2523   -3.0214 H   0  0  0  0  0  0  0  0  0  0  0  0
    1.1927    0.5239   -3.5806 H   0  0  0  0  0  0  0  0  0  0  0  0
    0.9952   -1.1278   -2.9319 H   0  0  0  0  0  0  0  0  0  0  0  0
    1.1240    1.5588   -1.4364 H   0  0  0  0  0  0  0  0  0  0  0  0
    1.8176   -0.9840    0.0198 H   0  0  0  0  0  0  0  0  0  0  0  0
    2.3278    0.7427    0.3343 H   0  0  0  0  0  0  0  0  0  0  0  0
   -0.4663   -1.0031   -1.0037 H   0  0  0  0  0  0  0  0  0  0  0  0
   -2.7661   -0.5633   -0.3546 H   0  0  0  0  0  0  0  0  0  0  0  0
   -2.9039    3.2432   -0.2598 H   0  0  0  0  0  0  0  0  0  0  0  0
   -6.9634    3.2421    0.8641 H   0  0  0  0  0  0  0  0  0  0  0  0
   -7.0086    0.8428    0.8328 H   0  0  0  0  0  0  0  0  0  0  0  0
   -5.6899   -1.5572    2.6193 H   0  0  0  0  0  0  0  0  0  0  0  0
   -7.7331   -2.8549    3.1793 H   0  0  0  0  0  0  0  0  0  0  0  0
   -8.8969   -2.7942   -0.8884 H   0  0  0  0  0  0  0  0  0  0  0  0
   -6.8303   -1.4813   -1.4587 H   0  0  0  0  0  0  0  0  0  0  0  0
  1  2  1  0
  2  3  1  0
  3  4  2  0
  4  5  1  0
  5  6  2  0
  6  7  1  0
  7  8  2  0
  8  9  1  0
  9 10  1  0
  6 11  1  0
 11 12  1  0
 12 13  1  0
 13 14  1  0
 14 15  1  0
 14 16  1  0
 16 17  1  0
 17 18  2  0
 17 19  1  0
 19 20  1  0
 20 21  2  0
 21 22  1  0
 22 23  1  0
 22 24  2  0
 24 25  1  0
 25 26  2  0
 26 27  1  0
 27 28  1  0
 28 29  2  0
 29 30  1  0
 30 31  2  0
 31 32  1  0
 31 33  1  0
 33 34  2  0
  8  3  1  0
 15 11  1  0
 26 20  1  0
 34 28  1  0
  1 35  1  0
  1 36  1  0
  1 37  1  0
  4 38  1  0
  5 39  1  0
 10 40  1  0
 10 41  1  0
 10 42  1  0
 12 43  1  0
 12 44  1  0
 13 45  1  0
 13 46  1  0
 14 47  1  0
 15 48  1  0
 15 49  1  0
 16 50  1  0
 19 51  1  0
 21 52  1  0
 24 53  1  0
 25 54  1  0
 29 55  1  0
 30 56  1  0
 33 57  1  0
 34 58  1  0
M  END
$$$$
[H]c1c([H])c([H])c([C@]2([H])SC([H])([H])C([H])([H])N2c2nc(N([H])c3c([H])c(Cl)c4nc([H])n([H])c4c3[H])c3c(n2)C([H])([H])C([H])([H])C([H])([H])C3([H])[H])c([H])c1[H]
     RDKit          3D

 55 60  0  0  0  0  0  0  0  0999 V2000
    2.2642    2.8728    4.8878 Cl  0  0  0  0  0  0  0  0  0  0  0  0
    2.2814    2.0862    3.3077 C   0  0  0  0  0  0  0  0  0  0  0  0
    1.7065    0.8425    3.1120 C   0  0  0  0  0  0  0  0  0  0  0  0
    1.7172    0.2422    1.8684 C   0  0  0  0  0  0  0  0  0  0  0  0
    1.1604   -1.0211    1.6721 N   0  0  0  0  0  0  0  0  0  0  0  0
    0.3793   -1.3492    0.5033 C   0  0  0  0  0  0  0  0  0  0  0  0
    0.0656   -0.4240   -0.4061 N   0  0  0  0  0  0  0  0  0  0  0  0
   -0.6975   -0.6373   -1.5019 C   0  0  0  0  0  0  0  0  0  0  0  0
   -1.1567   -1.9180   -1.6384 N   0  0  0  0  0  0  0  0  0  0  0  0
   -0.8961   -2.9066   -0.7828 C   0  0  0  0  0  0  0  0  0  0  0  0
   -1.4099   -4.2938   -0.9616 C   0  0  0  0  0  0  0  0  0  0  0  0
   -0.2511   -5.2026   -0.5712 C   0  0  0  0  0  0  0  0  0  0  0  0
   -0.0785   -5.0485    0.9277 C   0  0  0  0  0  0  0  0  0  0  0  0
    0.2446   -3.6500    1.3302 C   0  0  0  0  0  0  0  0  0  0  0  0
   -0.0967   -2.6223    0.3382 C   0  0  0  0  0  0  0  0  0  0  0  0
   -1.0375    0.3632   -2.4373 N   0  0  0  0  0  0  0  0  0  0  0  0
   -1.2925    0.0948   -3.8346 C   0  0  0  0  0  0  0  0  0  0  0  0
   -2.7521    0.4741   -4.0693 C   0  0  0  0  0  0  0  0  0  0  0  0
   -2.7529    2.0573   -3.1448 S   0  0  0  0  0  0  0  0  0  0  0  0
   -1.1924    1.7526   -2.1942 C   0  0  1  0  0  0  0  0  0  0  0  0
   -1.3621    2.1900   -0.8106 C   0  0  0  0  0  0  0  0  0  0  0  0
   -0.6225    3.2410   -0.3290 C   0  0  0  0  0  0  0  0  0  0  0  0
   -0.7708    3.6926    0.9801 C   0  0  0  0  0  0  0  0  0  0  0  0
   -1.6669    3.0856    1.8135 C   0  0  0  0  0  0  0  0  0  0  0  0
   -2.4167    2.0382    1.3636 C   0  0  0  0  0  0  0  0  0  0  0  0
   -2.2619    1.5923    0.0474 C   0  0  0  0  0  0  0  0  0  0  0  0
    2.3178    0.9303    0.8620 C   0  0  0  0  0  0  0  0  0  0  0  0
    2.9009    2.1803    1.0398 C   0  0  0  0  0  0  0  0  0  0  0  0
    3.5352    3.0415    0.2290 N   0  0  0  0  0  0  0  0  0  0  0  0
    3.9137    4.1543    0.9343 C   0  0  0  0  0  0  0  0  0  0  0  0
    3.4948    3.9447    2.1816 N   0  0  0  0  0  0  0  0  0  0  0  0
    2.8775    2.7595    2.2858 C   0  0  0  0  0  0  0  0  0  0  0  0
    1.2582    0.3519    3.9353 H   0  0  0  0  0  0  0  0  0  0  0  0
    1.2844   -1.7888    2.3675 H   0  0  0  0  0  0  0  0  0  0  0  0
   -2.2900   -4.4768   -0.3256 H   0  0  0  0  0  0  0  0  0  0  0  0
   -1.6494   -4.4753   -2.0321 H   0  0  0  0  0  0  0  0  0  0  0  0
   -0.5332   -6.2349   -0.7786 H   0  0  0  0  0  0  0  0  0  0  0  0
    0.6530   -4.8816   -1.1073 H   0  0  0  0  0  0  0  0  0  0  0  0
   -0.9806   -5.4474    1.4261 H   0  0  0  0  0  0  0  0  0  0  0  0
    0.7443   -5.7707    1.1983 H   0  0  0  0  0  0  0  0  0  0  0  0
    1.3661   -3.6421    1.5257 H   0  0  0  0  0  0  0  0  0  0  0  0
   -0.1973   -3.4690    2.3303 H   0  0  0  0  0  0  0  0  0  0  0  0
   -1.0833   -0.9506   -4.0949 H   0  0  0  0  0  0  0  0  0  0  0  0
   -0.6783    0.8136   -4.4463 H   0  0  0  0  0  0  0  0  0  0  0  0
   -2.9288    0.7334   -5.1341 H   0  0  0  0  0  0  0  0  0  0  0  0
   -3.4572   -0.2527   -3.6893 H   0  0  0  0  0  0  0  0  0  0  0  0
   -0.4425    2.3777   -2.7442 H   0  0  0  0  0  0  0  0  0  0  0  0
    0.1130    3.7659   -0.9483 H   0  0  0  0  0  0  0  0  0  0  0  0
   -0.1730    4.5252    1.3172 H   0  0  0  0  0  0  0  0  0  0  0  0
   -1.7363    3.4758    2.8310 H   0  0  0  0  0  0  0  0  0  0  0  0
   -3.0997    1.5824    2.0364 H   0  0  0  0  0  0  0  0  0  0  0  0
   -2.8748    0.7583   -0.2697 H   0  0  0  0  0  0  0  0  0  0  0  0
    2.3803    0.5151   -0.1360 H   0  0  0  0  0  0  0  0  0  0  0  0
    3.7334    2.9115   -0.8008 H   0  0  0  0  0  0  0  0  0  0  0  0
    4.4474    5.0166    0.5365 H   0  0  0  0  0  0  0  0  0  0  0  0
  1  2  1  0
  2  3  2  0
  3  4  1  0
  4  5  1  0
  5  6  1  0
  6  7  2  0
  7  8  1  0
  8  9  2  0
  9 10  1  0
 10 11  1  0
 11 12  1  0
 12 13  1  0
 13 14  1  0
 14 15  1  0
  8 16  1  0
 16 17  1  0
 17 18  1  0
 18 19  1  0
 19 20  1  0
 20 21  1  0
 21 22  2  0
 22 23  1  0
 23 24  2  0
 24 25  1  0
 25 26  2  0
  4 27  2  0
 27 28  1  0
 28 29  1  0
 29 30  1  0
 30 31  2  0
 31 32  1  0
 32  2  1  0
 15  6  1  0
 20 16  1  0
 26 21  1  0
 32 28  2  0
 15 10  2  0
  3 33  1  0
  5 34  1  0
 11 35  1  0
 11 36  1  0
 12 37  1  0
 12 38  1  0
 13 39  1  0
 13 40  1  0
 14 41  1  0
 14 42  1  0
 17 43  1  0
 17 44  1  0
 18 45  1  0
 18 46  1  0
 20 47  1  6
 22 48  1  0
 23 49  1  0
 24 50  1  0
 25 51  1  0
 26 52  1  0
 27 53  1  0
 29 54  1  0
 30 55  1  0
M  END
$$$$
[H]c1c([H])c(OC([H])([H])C([H])([H])N2C([H])([H])C([H])([H])OC([H])([H])C2([H])[H])c([H])c(-c2sc(N([H])c3c([H])c(F)c(F)c([H])c3F)nc2N([H])[H])c1[H]
     RDKit          3D

 52 55  0  0  0  0  0  0  0  0999 V2000
    2.8936   -4.6074   -0.7028 N   0  0  0  0  0  0  0  0  0  0  0  0
    2.9999   -3.1512   -0.5263 C   0  0  0  0  0  0  0  0  0  0  0  0
    4.1659   -2.6210   -0.3730 N   0  0  0  0  0  0  0  0  0  0  0  0
    4.2937   -1.2950   -0.2123 C   0  0  0  0  0  0  0  0  0  0  0  0
    5.5132   -0.5969   -0.0406 N   0  0  0  0  0  0  0  0  0  0  0  0
    5.6361    0.7822    0.1341 C   0  0  0  0  0  0  0  0  0  0  0  0
    4.6339    1.7072    0.1985 C   0  0  0  0  0  0  0  0  0  0  0  0
    4.9430    3.0517    0.3827 C   0  0  0  0  0  0  0  0  0  0  0  0
    3.9439    3.9588    0.4443 F   0  0  0  0  0  0  0  0  0  0  0  0
    6.2347    3.4533    0.4991 C   0  0  0  0  0  0  0  0  0  0  0  0
    6.5387    4.7642    0.6793 F   0  0  0  0  0  0  0  0  0  0  0  0
    7.2732    2.5508    0.4397 C   0  0  0  0  0  0  0  0  0  0  0  0
    6.9667    1.2409    0.2600 C   0  0  0  0  0  0  0  0  0  0  0  0
    8.0020    0.3555    0.2014 F   0  0  0  0  0  0  0  0  0  0  0  0
    2.6804   -0.8109   -0.2864 S   0  0  0  0  0  0  0  0  0  0  0  0
    1.9060   -2.3480   -0.5226 C   0  0  0  0  0  0  0  0  0  0  0  0
    0.4652   -2.5739   -0.6684 C   0  0  0  0  0  0  0  0  0  0  0  0
   -0.0615   -3.7864   -0.8273 C   0  0  0  0  0  0  0  0  0  0  0  0
   -1.4547   -3.9208   -0.9685 C   0  0  0  0  0  0  0  0  0  0  0  0
   -2.3069   -2.8475   -0.9502 C   0  0  0  0  0  0  0  0  0  0  0  0
   -1.7395   -1.5973   -0.7842 C   0  0  0  0  0  0  0  0  0  0  0  0
   -2.5491   -0.4747   -0.7584 O   0  0  0  0  0  0  0  0  0  0  0  0
   -1.9840    0.7985   -0.5905 C   0  0  0  0  0  0  0  0  0  0  0  0
   -3.0512    1.8454   -0.6061 C   0  0  0  0  0  0  0  0  0  0  0  0
   -3.9787    1.6573    0.4525 N   0  0  0  0  0  0  0  0  0  0  0  0
   -4.9634    2.7476    0.5029 C   0  0  0  0  0  0  0  0  0  0  0  0
   -6.2917    2.3453   -0.0644 C   0  0  0  0  0  0  0  0  0  0  0  0
   -6.8444    1.2902    0.6563 O   0  0  0  0  0  0  0  0  0  0  0  0
   -5.8840    0.6045    1.3943 C   0  0  0  0  0  0  0  0  0  0  0  0
   -4.6143    0.3893    0.5626 C   0  0  0  0  0  0  0  0  0  0  0  0
   -0.3820   -1.4537   -0.6452 C   0  0  0  0  0  0  0  0  0  0  0  0
    2.9282   -4.9379   -1.6940 H   0  0  0  0  0  0  0  0  0  0  0  0
    2.7940   -5.2393    0.1036 H   0  0  0  0  0  0  0  0  0  0  0  0
    6.3808   -1.2136   -0.0526 H   0  0  0  0  0  0  0  0  0  0  0  0
    3.6120    1.4010    0.1089 H   0  0  0  0  0  0  0  0  0  0  0  0
    8.3132    2.8593    0.5314 H   0  0  0  0  0  0  0  0  0  0  0  0
    0.4901   -4.6865   -0.8561 H   0  0  0  0  0  0  0  0  0  0  0  0
   -1.9029   -4.9070   -1.0989 H   0  0  0  0  0  0  0  0  0  0  0  0
   -3.3770   -2.9158   -1.0567 H   0  0  0  0  0  0  0  0  0  0  0  0
   -1.5395    0.8328    0.4466 H   0  0  0  0  0  0  0  0  0  0  0  0
   -1.1791    1.0037   -1.3371 H   0  0  0  0  0  0  0  0  0  0  0  0
   -2.5822    2.8620   -0.5934 H   0  0  0  0  0  0  0  0  0  0  0  0
   -3.5935    1.8370   -1.6059 H   0  0  0  0  0  0  0  0  0  0  0  0
   -4.5377    3.5952   -0.0366 H   0  0  0  0  0  0  0  0  0  0  0  0
   -5.0941    2.9769    1.5811 H   0  0  0  0  0  0  0  0  0  0  0  0
   -6.1320    2.0190   -1.1034 H   0  0  0  0  0  0  0  0  0  0  0  0
   -6.9367    3.2243   -0.0768 H   0  0  0  0  0  0  0  0  0  0  0  0
   -5.5667    1.1342    2.3074 H   0  0  0  0  0  0  0  0  0  0  0  0
   -6.2886   -0.4071    1.5986 H   0  0  0  0  0  0  0  0  0  0  0  0
   -4.8735   -0.1120   -0.3862 H   0  0  0  0  0  0  0  0  0  0  0  0
   -3.9871   -0.2926    1.1569 H   0  0  0  0  0  0  0  0  0  0  0  0
    0.0877   -0.4914   -0.5126 H   0  0  0  0  0  0  0  0  0  0  0  0
  1  2  1  0
  2  3  1  0
  3  4  2  0
  4  5  1  0
  5  6  1  0
  6  7  2  0
  7  8  1  0
  8  9  1  0
  8 10  2  0
 10 11  1  0
 10 12  1  0
 12 13  2  0
 13 14  1  0
  4 15  1  0
 15 16  1  0
 16 17  1  0
 17 18  2  0
 18 19  1  0
 19 20  2  0
 20 21  1  0
 21 22  1  0
 22 23  1  0
 23 24  1  0
 24 25  1  0
 25 26  1  0
 26 27  1  0
 27 28  1  0
 28 29  1  0
 29 30  1  0
 21 31  2  0
 16  2  2  0
 31 17  1  0
 13  6  1  0
 30 25  1  0
  1 32  1  0
  1 33  1  0
  5 34  1  0
  7 35  1  0
 12 36  1  0
 18 37  1  0
 19 38  1  0
 20 39  1  0
 23 40  1  0
 23 41  1  0
 24 42  1  0
 24 43  1  0
 26 44  1  0
 26 45  1  0
 27 46  1  0
 27 47  1  0
 29 48  1  0
 29 49  1  0
 30 50  1  0
 30 51  1  0
 31 52  1  0
M  END
$$$$
[H]c1nc(N2C([H])([H])c3c(N([H])c4c([H])c(-c5c([H])c([H])c([H])c(OC([H])([H])[H])c5[H])c([H])c([H])c4C([H])([H])[H])nc(N4C([H])([H])C([H])([H])OC([H])([H])C4([H])[H])nc3C([H])([H])C2([H])[H])c(C(=O)N([H])[H])c([H])c1[H]
     RDKit          3D

 74 79  0  0  0  0  0  0  0  0999 V2000
    8.9920    1.7931    0.0009 C   0  0  0  0  0  0  0  0  0  0  0  0
    7.9252    1.1166    0.6355 O   0  0  0  0  0  0  0  0  0  0  0  0
    6.6334    1.6045    0.4936 C   0  0  0  0  0  0  0  0  0  0  0  0
    6.3766    2.7329   -0.2533 C   0  0  0  0  0  0  0  0  0  0  0  0
    5.0710    3.1600   -0.3518 C   0  0  0  0  0  0  0  0  0  0  0  0
    4.0202    2.4856    0.2783 C   0  0  0  0  0  0  0  0  0  0  0  0
    4.2700    1.3588    1.0250 C   0  0  0  0  0  0  0  0  0  0  0  0
    5.5782    0.9371    1.1193 C   0  0  0  0  0  0  0  0  0  0  0  0
    3.2517    0.5787    1.7188 C   0  0  0  0  0  0  0  0  0  0  0  0
    3.5184   -0.0942    2.8917 C   0  0  0  0  0  0  0  0  0  0  0  0
    2.5486   -0.8316    3.5307 C   0  0  0  0  0  0  0  0  0  0  0  0
    1.2716   -0.9399    3.0434 C   0  0  0  0  0  0  0  0  0  0  0  0
    0.2719   -1.7576    3.7894 C   0  0  0  0  0  0  0  0  0  0  0  0
    0.9590   -0.2701    1.8514 C   0  0  0  0  0  0  0  0  0  0  0  0
   -0.3414   -0.3982    1.3793 N   0  0  0  0  0  0  0  0  0  0  0  0
   -0.9968    0.1040    0.2490 C   0  0  0  0  0  0  0  0  0  0  0  0
   -0.4151    0.9021   -0.6449 N   0  0  0  0  0  0  0  0  0  0  0  0
   -0.9751    1.4298   -1.7355 C   0  0  0  0  0  0  0  0  0  0  0  0
   -2.2644    1.1173   -1.9464 N   0  0  0  0  0  0  0  0  0  0  0  0
   -2.9582    0.3218   -1.1155 C   0  0  0  0  0  0  0  0  0  0  0  0
   -4.3678    0.0876   -1.4707 C   0  0  0  0  0  0  0  0  0  0  0  0
   -4.8757   -1.2012   -0.9428 C   0  0  0  0  0  0  0  0  0  0  0  0
   -4.2718   -1.6622    0.2835 N   0  0  0  0  0  0  0  0  0  0  0  0
   -3.0922   -1.0832    0.9034 C   0  0  0  0  0  0  0  0  0  0  0  0
   -2.3439   -0.1931   -0.0171 C   0  0  0  0  0  0  0  0  0  0  0  0
   -4.8542   -2.7545    0.9686 C   0  0  0  0  0  0  0  0  0  0  0  0
   -5.6711   -2.4911    1.9983 N   0  0  0  0  0  0  0  0  0  0  0  0
   -6.3130   -3.4871    2.6704 C   0  0  0  0  0  0  0  0  0  0  0  0
   -6.1187   -4.7959    2.2836 C   0  0  0  0  0  0  0  0  0  0  0  0
   -5.2929   -5.1024    1.2398 C   0  0  0  0  0  0  0  0  0  0  0  0
   -4.6486   -4.0389    0.5739 C   0  0  0  0  0  0  0  0  0  0  0  0
   -3.7296   -4.4429   -0.4861 C   0  0  0  0  0  0  0  0  0  0  0  0
   -3.7229   -5.8043   -0.9537 N   0  0  0  0  0  0  0  0  0  0  0  0
   -2.9430   -3.6344   -1.0032 O   0  0  0  0  0  0  0  0  0  0  0  0
   -0.3417    2.2829   -2.6703 N   0  0  0  0  0  0  0  0  0  0  0  0
   -1.0236    2.6542   -3.9160 C   0  0  0  0  0  0  0  0  0  0  0  0
   -0.3794    3.9634   -4.3527 C   0  0  0  0  0  0  0  0  0  0  0  0
   -0.0347    4.7378   -3.2452 O   0  0  0  0  0  0  0  0  0  0  0  0
    1.1287    4.2561   -2.7043 C   0  0  0  0  0  0  0  0  0  0  0  0
    0.9841    2.7877   -2.3814 C   0  0  0  0  0  0  0  0  0  0  0  0
    1.9476    0.4612    1.2318 C   0  0  0  0  0  0  0  0  0  0  0  0
    8.7767    1.9551   -1.0725 H   0  0  0  0  0  0  0  0  0  0  0  0
    9.0716    2.7842    0.5083 H   0  0  0  0  0  0  0  0  0  0  0  0
    9.9315    1.2067    0.0847 H   0  0  0  0  0  0  0  0  0  0  0  0
    7.2002    3.2536   -0.7412 H   0  0  0  0  0  0  0  0  0  0  0  0
    4.8915    4.0475   -0.9422 H   0  0  0  0  0  0  0  0  0  0  0  0
    3.0222    2.8348    0.1913 H   0  0  0  0  0  0  0  0  0  0  0  0
    5.8136    0.0559    1.6967 H   0  0  0  0  0  0  0  0  0  0  0  0
    4.5114   -0.0230    3.2936 H   0  0  0  0  0  0  0  0  0  0  0  0
    2.7837   -1.3647    4.4698 H   0  0  0  0  0  0  0  0  0  0  0  0
    0.6917   -2.0456    4.7748 H   0  0  0  0  0  0  0  0  0  0  0  0
   -0.6594   -1.2079    4.0025 H   0  0  0  0  0  0  0  0  0  0  0  0
    0.1182   -2.7038    3.2304 H   0  0  0  0  0  0  0  0  0  0  0  0
   -0.9931   -0.9969    2.0069 H   0  0  0  0  0  0  0  0  0  0  0  0
   -4.9580    0.9737   -1.1414 H   0  0  0  0  0  0  0  0  0  0  0  0
   -4.4684    0.0553   -2.5951 H   0  0  0  0  0  0  0  0  0  0  0  0
   -4.9856   -1.9586   -1.7360 H   0  0  0  0  0  0  0  0  0  0  0  0
   -5.9817   -0.9786   -0.6813 H   0  0  0  0  0  0  0  0  0  0  0  0
   -2.4995   -1.9435    1.2636 H   0  0  0  0  0  0  0  0  0  0  0  0
   -3.4058   -0.4579    1.7696 H   0  0  0  0  0  0  0  0  0  0  0  0
   -6.9526   -3.2245    3.4846 H   0  0  0  0  0  0  0  0  0  0  0  0
   -6.6506   -5.5899    2.8437 H   0  0  0  0  0  0  0  0  0  0  0  0
   -5.1586   -6.1302    0.9573 H   0  0  0  0  0  0  0  0  0  0  0  0
   -3.0008   -6.4322   -0.5753 H   0  0  0  0  0  0  0  0  0  0  0  0
   -4.4146   -6.1439   -1.6429 H   0  0  0  0  0  0  0  0  0  0  0  0
   -2.0834    2.8749   -3.6992 H   0  0  0  0  0  0  0  0  0  0  0  0
   -0.8644    1.8901   -4.6994 H   0  0  0  0  0  0  0  0  0  0  0  0
   -1.0425    4.5453   -5.0078 H   0  0  0  0  0  0  0  0  0  0  0  0
    0.5635    3.7852   -4.9089 H   0  0  0  0  0  0  0  0  0  0  0  0
    1.9867    4.4274   -3.3798 H   0  0  0  0  0  0  0  0  0  0  0  0
    1.3128    4.8052   -1.7391 H   0  0  0  0  0  0  0  0  0  0  0  0
    1.7082    2.1894   -2.9837 H   0  0  0  0  0  0  0  0  0  0  0  0
    1.1883    2.6235   -1.3074 H   0  0  0  0  0  0  0  0  0  0  0  0
    1.7746    1.0028    0.3069 H   0  0  0  0  0  0  0  0  0  0  0  0
  1  2  1  0
  2  3  1  0
  3  4  2  0
  4  5  1  0
  5  6  2  0
  6  7  1  0
  7  8  2  0
  7  9  1  0
  9 10  2  0
 10 11  1  0
 11 12  2  0
 12 13  1  0
 12 14  1  0
 14 15  1  0
 15 16  1  0
 16 17  2  0
 17 18  1  0
 18 19  2  0
 19 20  1  0
 20 21  1  0
 21 22  1  0
 22 23  1  0
 23 24  1  0
 24 25  1  0
 23 26  1  0
 26 27  2  0
 27 28  1  0
 28 29  2  0
 29 30  1  0
 30 31  2  0
 31 32  1  0
 32 33  1  0
 32 34  2  0
 18 35  1  0
 35 36  1  0
 36 37  1  0
 37 38  1  0
 38 39  1  0
 39 40  1  0
 14 41  2  0
  8  3  1  0
 41  9  1  0
 25 16  1  0
 31 26  1  0
 40 35  1  0
 25 20  2  0
  1 42  1  0
  1 43  1  0
  1 44  1  0
  4 45  1  0
  5 46  1  0
  6 47  1  0
  8 48  1  0
 10 49  1  0
 11 50  1  0
 13 51  1  0
 13 52  1  0
 13 53  1  0
 15 54  1  0
 21 55  1  0
 21 56  1  0
 22 57  1  0
 22 58  1  0
 24 59  1  0
 24 60  1  0
 28 61  1  0
 29 62  1  0
 30 63  1  0
 33 64  1  0
 33 65  1  0
 36 66  1  0
 36 67  1  0
 37 68  1  0
 37 69  1  0
 39 70  1  0
 39 71  1  0
 40 72  1  0
 40 73  1  0
 41 74  1  0
M  END
$$$$
[H]c1c([H])c(C([H])([H])[H])c(C([H])([H])N([H])C([H])([H])[H])c([H])c1C(=O)N1c2c([H])c(N(C([H])([H])[H])C([H])([H])[H])c(OC([H])([H])[H])c([H])c2C([H])([H])C1([H])[H]
     RDKit          3D

 53 55  0  0  0  0  0  0  0  0999 V2000
   -6.6609    0.3539    1.8832 C   0  0  0  0  0  0  0  0  0  0  0  0
   -6.0064   -0.0722    0.7096 O   0  0  0  0  0  0  0  0  0  0  0  0
   -4.6151    0.0656    0.6227 C   0  0  0  0  0  0  0  0  0  0  0  0
   -3.8798    0.5982    1.6815 C   0  0  0  0  0  0  0  0  0  0  0  0
   -2.4857    0.6977    1.5123 C   0  0  0  0  0  0  0  0  0  0  0  0
   -1.5021    1.2669    2.4775 C   0  0  0  0  0  0  0  0  0  0  0  0
   -0.3659    1.5944    1.5126 C   0  0  0  0  0  0  0  0  0  0  0  0
   -0.4258    0.5134    0.5349 N   0  0  0  0  0  0  0  0  0  0  0  0
    0.6484   -0.2068    0.0310 C   0  0  0  0  0  0  0  0  0  0  0  0
    0.4870   -1.4607   -0.2656 O   0  0  0  0  0  0  0  0  0  0  0  0
    1.9968    0.2999   -0.2341 C   0  0  0  0  0  0  0  0  0  0  0  0
    2.2333    1.6442   -0.3279 C   0  0  0  0  0  0  0  0  0  0  0  0
    3.5109    2.1080   -0.6438 C   0  0  0  0  0  0  0  0  0  0  0  0
    4.5641    1.2696   -0.8665 C   0  0  0  0  0  0  0  0  0  0  0  0
    5.9185    1.8065   -1.1640 C   0  0  0  0  0  0  0  0  0  0  0  0
    4.3446   -0.1141   -0.7641 C   0  0  0  0  0  0  0  0  0  0  0  0
    5.3494   -1.0738   -1.1715 C   0  0  0  0  0  0  0  0  0  0  0  0
    6.1157   -1.5837    0.0148 N   0  0  0  0  0  0  0  0  0  0  0  0
    6.9355   -2.7277   -0.3533 C   0  0  0  0  0  0  0  0  0  0  0  0
    3.0388   -0.5595   -0.4452 C   0  0  0  0  0  0  0  0  0  0  0  0
   -1.8349    0.3004    0.3850 C   0  0  0  0  0  0  0  0  0  0  0  0
   -2.5931   -0.2113   -0.6218 C   0  0  0  0  0  0  0  0  0  0  0  0
   -3.9633   -0.3435   -0.5410 C   0  0  0  0  0  0  0  0  0  0  0  0
   -4.7171   -0.8248   -1.6090 N   0  0  0  0  0  0  0  0  0  0  0  0
   -5.4691   -2.0972   -1.6135 C   0  0  0  0  0  0  0  0  0  0  0  0
   -4.7769   -0.0512   -2.8661 C   0  0  0  0  0  0  0  0  0  0  0  0
   -6.3132    1.3015    2.3075 H   0  0  0  0  0  0  0  0  0  0  0  0
   -7.7277    0.5028    1.6409 H   0  0  0  0  0  0  0  0  0  0  0  0
   -6.5769   -0.4347    2.6984 H   0  0  0  0  0  0  0  0  0  0  0  0
   -4.3385    0.9439    2.6002 H   0  0  0  0  0  0  0  0  0  0  0  0
   -1.8689    2.1113    3.0198 H   0  0  0  0  0  0  0  0  0  0  0  0
   -1.1671    0.4451    3.1665 H   0  0  0  0  0  0  0  0  0  0  0  0
    0.5535    1.4613    2.0592 H   0  0  0  0  0  0  0  0  0  0  0  0
   -0.5738    2.5640    1.0587 H   0  0  0  0  0  0  0  0  0  0  0  0
    1.4237    2.3364   -0.1992 H   0  0  0  0  0  0  0  0  0  0  0  0
    3.6654    3.2009   -0.6781 H   0  0  0  0  0  0  0  0  0  0  0  0
    5.7934    2.8017   -1.7180 H   0  0  0  0  0  0  0  0  0  0  0  0
    6.4810    2.0058   -0.2472 H   0  0  0  0  0  0  0  0  0  0  0  0
    6.4744    1.1549   -1.8728 H   0  0  0  0  0  0  0  0  0  0  0  0
    5.9949   -0.8152   -1.9757 H   0  0  0  0  0  0  0  0  0  0  0  0
    4.7780   -2.0736   -1.4583 H   0  0  0  0  0  0  0  0  0  0  0  0
    6.8108   -0.7345    0.1453 H   0  0  0  0  0  0  0  0  0  0  0  0
    7.9484   -2.5845    0.0473 H   0  0  0  0  0  0  0  0  0  0  0  0
    6.9980   -2.6574   -1.5016 H   0  0  0  0  0  0  0  0  0  0  0  0
    6.4646   -3.6776   -0.0856 H   0  0  0  0  0  0  0  0  0  0  0  0
    2.8360   -1.6448   -0.3515 H   0  0  0  0  0  0  0  0  0  0  0  0
   -2.1021   -0.5518   -1.5546 H   0  0  0  0  0  0  0  0  0  0  0  0
   -5.7390   -2.3201   -2.6627 H   0  0  0  0  0  0  0  0  0  0  0  0
   -4.9400   -2.9171   -1.1648 H   0  0  0  0  0  0  0  0  0  0  0  0
   -6.4462   -1.9760   -1.0507 H   0  0  0  0  0  0  0  0  0  0  0  0
   -5.7468    0.3971   -3.0510 H   0  0  0  0  0  0  0  0  0  0  0  0
   -4.0138    0.7210   -2.8776 H   0  0  0  0  0  0  0  0  0  0  0  0
   -4.5148   -0.7525   -3.7020 H   0  0  0  0  0  0  0  0  0  0  0  0
  1  2  1  0
  2  3  1  0
  3  4  2  0
  4  5  1  0
  5  6  1  0
  6  7  1  0
  7  8  1  0
  8  9  1  0
  9 10  2  0
  9 11  1  0
 11 12  2  0
 12 13  1  0
 13 14  2  0
 14 15  1  0
 14 16  1  0
 16 17  1  0
 17 18  1  0
 18 19  1  0
 16 20  2  0
  8 21  1  0
 21 22  1  0
 22 23  2  0
 23 24  1  0
 24 25  1  0
 24 26  1  0
 23  3  1  0
 21  5  2  0
 20 11  1  0
  1 27  1  0
  1 28  1  0
  1 29  1  0
  4 30  1  0
  6 31  1  0
  6 32  1  0
  7 33  1  0
  7 34  1  0
 12 35  1  0
 13 36  1  0
 15 37  1  0
 15 38  1  0
 15 39  1  0
 17 40  1  0
 17 41  1  0
 18 42  1  0
 19 43  1  0
 19 44  1  0
 19 45  1  0
 20 46  1  0
 22 47  1  0
 25 48  1  0
 25 49  1  0
 25 50  1  0
 26 51  1  0
 26 52  1  0
 26 53  1  0
M  END
$$$$
[H]O[C@]([H])(C([H])([H])[H])[C@]([H])(c1nnc(N([H])[H])nc1-c1c([H])c([H])c(OC(F)(F)F)c([H])c1[H])N([H])C(=O)c1c([H])c([H])c([H])c(C(F)(F)F)c1[H]
     RDKit          3D

 52 54  0  0  0  0  0  0  0  0999 V2000
    1.5351   -3.1051    1.6637 C   0  0  0  0  0  0  0  0  0  0  0  0
    0.6650   -1.9789    2.1577 C   0  0  1  0  0  0  0  0  0  0  0  0
    1.4534   -1.0667    2.8766 O   0  0  0  0  0  0  0  0  0  0  0  0
   -0.0588   -1.2374    0.9973 C   0  0  1  0  0  0  0  0  0  0  0  0
    1.0105   -0.7299    0.1339 N   0  0  0  0  0  0  0  0  0  0  0  0
    1.5887    0.5477    0.3246 C   0  0  0  0  0  0  0  0  0  0  0  0
    1.1624    1.2902    1.2515 O   0  0  0  0  0  0  0  0  0  0  0  0
    2.6795    1.0466   -0.5215 C   0  0  0  0  0  0  0  0  0  0  0  0
    2.9218    0.5353   -1.7723 C   0  0  0  0  0  0  0  0  0  0  0  0
    3.9629    0.9865   -2.5258 C   0  0  0  0  0  0  0  0  0  0  0  0
    4.8405    1.9853   -2.0700 C   0  0  0  0  0  0  0  0  0  0  0  0
    4.6150    2.5107   -0.8099 C   0  0  0  0  0  0  0  0  0  0  0  0
    3.5527    2.0337   -0.0899 C   0  0  0  0  0  0  0  0  0  0  0  0
    5.5436    3.5462   -0.3064 C   0  0  0  0  0  0  0  0  0  0  0  0
    5.0489    4.0600    0.9135 F   0  0  0  0  0  0  0  0  0  0  0  0
    5.8138    4.5431   -1.1966 F   0  0  0  0  0  0  0  0  0  0  0  0
    6.7272    2.9185    0.0401 F   0  0  0  0  0  0  0  0  0  0  0  0
   -0.9676   -2.1928    0.3659 C   0  0  0  0  0  0  0  0  0  0  0  0
   -0.6955   -3.5270    0.4367 N   0  0  0  0  0  0  0  0  0  0  0  0
   -1.4084   -4.4756   -0.1071 N   0  0  0  0  0  0  0  0  0  0  0  0
   -2.5355   -4.1655   -0.8217 C   0  0  0  0  0  0  0  0  0  0  0  0
   -3.3159   -5.2134   -1.4246 N   0  0  0  0  0  0  0  0  0  0  0  0
   -2.8578   -2.9009   -0.9306 N   0  0  0  0  0  0  0  0  0  0  0  0
   -2.0861   -1.8840   -0.3435 C   0  0  0  0  0  0  0  0  0  0  0  0
   -2.6314   -0.5606   -0.4455 C   0  0  0  0  0  0  0  0  0  0  0  0
   -2.0687    0.5067   -1.0818 C   0  0  0  0  0  0  0  0  0  0  0  0
   -2.7173    1.7142   -1.1352 C   0  0  0  0  0  0  0  0  0  0  0  0
   -3.9467    1.9224   -0.5610 C   0  0  0  0  0  0  0  0  0  0  0  0
   -4.6345    3.1273   -0.5997 O   0  0  0  0  0  0  0  0  0  0  0  0
   -4.5573    4.1781    0.2952 C   0  0  0  0  0  0  0  0  0  0  0  0
   -4.8648    3.7433    1.5788 F   0  0  0  0  0  0  0  0  0  0  0  0
   -5.5313    5.1375   -0.0460 F   0  0  0  0  0  0  0  0  0  0  0  0
   -3.3697    4.8502    0.2992 F   0  0  0  0  0  0  0  0  0  0  0  0
   -4.5255    0.8255    0.0974 C   0  0  0  0  0  0  0  0  0  0  0  0
   -3.8911   -0.3821    0.1546 C   0  0  0  0  0  0  0  0  0  0  0  0
    2.5745   -3.0078    2.1268 H   0  0  0  0  0  0  0  0  0  0  0  0
    1.7701   -2.9831    0.5665 H   0  0  0  0  0  0  0  0  0  0  0  0
    1.2055   -4.1160    1.9129 H   0  0  0  0  0  0  0  0  0  0  0  0
   -0.1261   -2.3425    2.8015 H   0  0  0  0  0  0  0  0  0  0  0  0
    2.3169   -1.0705    2.3932 H   0  0  0  0  0  0  0  0  0  0  0  0
   -0.5304   -0.3786    1.4864 H   0  0  0  0  0  0  0  0  0  0  0  0
    1.3261   -1.3646   -0.6329 H   0  0  0  0  0  0  0  0  0  0  0  0
    2.2567   -0.2483   -2.1642 H   0  0  0  0  0  0  0  0  0  0  0  0
    4.1448    0.5753   -3.5437 H   0  0  0  0  0  0  0  0  0  0  0  0
    5.6723    2.3377   -2.6579 H   0  0  0  0  0  0  0  0  0  0  0  0
    3.3682    2.4685    0.8963 H   0  0  0  0  0  0  0  0  0  0  0  0
   -2.8918   -5.9672   -1.9812 H   0  0  0  0  0  0  0  0  0  0  0  0
   -4.3422   -5.1927   -1.2850 H   0  0  0  0  0  0  0  0  0  0  0  0
   -1.0850    0.3709   -1.5650 H   0  0  0  0  0  0  0  0  0  0  0  0
   -2.2434    2.5275   -1.6684 H   0  0  0  0  0  0  0  0  0  0  0  0
   -5.5040    1.0078    0.5581 H   0  0  0  0  0  0  0  0  0  0  0  0
   -4.3694   -1.2053    0.6639 H   0  0  0  0  0  0  0  0  0  0  0  0
  1  2  1  0
  2  3  1  0
  2  4  1  0
  4  5  1  0
  5  6  1  0
  6  7  2  0
  6  8  1  0
  8  9  2  0
  9 10  1  0
 10 11  2  0
 11 12  1  0
 12 13  2  0
 12 14  1  0
 14 15  1  0
 14 16  1  0
 14 17  1  0
  4 18  1  0
 18 19  2  0
 19 20  1  0
 20 21  2  0
 21 22  1  0
 21 23  1  0
 23 24  2  0
 24 25  1  0
 25 26  2  0
 26 27  1  0
 27 28  2  0
 28 29  1  0
 29 30  1  0
 30 31  1  0
 30 32  1  0
 30 33  1  0
 28 34  1  0
 34 35  2  0
 13  8  1  0
 24 18  1  0
 35 25  1  0
  1 36  1  0
  1 37  1  0
  1 38  1  0
  2 39  1  1
  3 40  1  0
  4 41  1  1
  5 42  1  0
  9 43  1  0
 10 44  1  0
 11 45  1  0
 13 46  1  0
 22 47  1  0
 22 48  1  0
 26 49  1  0
 27 50  1  0
 34 51  1  0
 35 52  1  0
M  END
$$$$
[H]OC(=O)c1c([H])c([H])c(N([H])c2nc(N3C([H])([H])C([H])([H])OC([H])([H])C3([H])[H])nc3c2C([H])([H])C([H])([H])N(c2nc([H])c([H])c([H])c2C(F)(F)F)C3([H])[H])c([H])c1[H]
     RDKit          3D

 59 63  0  0  0  0  0  0  0  0999 V2000
   -7.5554   -2.2798   -1.8381 O   0  0  0  0  0  0  0  0  0  0  0  0
   -6.8111   -3.1483   -1.0734 C   0  0  0  0  0  0  0  0  0  0  0  0
   -7.3063   -4.2290   -0.6964 O   0  0  0  0  0  0  0  0  0  0  0  0
   -5.4366   -2.8294   -0.6882 C   0  0  0  0  0  0  0  0  0  0  0  0
   -4.8437   -1.6551   -1.0748 C   0  0  0  0  0  0  0  0  0  0  0  0
   -3.5337   -1.3722   -0.6964 C   0  0  0  0  0  0  0  0  0  0  0  0
   -2.7793   -2.2211    0.0618 C   0  0  0  0  0  0  0  0  0  0  0  0
   -1.4642   -2.0261    0.5188 N   0  0  0  0  0  0  0  0  0  0  0  0
   -0.7352   -0.8285    0.6026 C   0  0  0  0  0  0  0  0  0  0  0  0
   -1.2664    0.3789    0.3336 N   0  0  0  0  0  0  0  0  0  0  0  0
   -0.6230    1.5491    0.4560 C   0  0  0  0  0  0  0  0  0  0  0  0
    0.6519    1.5196    0.8805 N   0  0  0  0  0  0  0  0  0  0  0  0
    1.2779    0.3776    1.1753 C   0  0  0  0  0  0  0  0  0  0  0  0
    2.6808    0.3514    1.6696 C   0  0  0  0  0  0  0  0  0  0  0  0
    3.3898   -0.7112    1.0565 N   0  0  0  0  0  0  0  0  0  0  0  0
    2.7699   -2.0137    0.8827 C   0  0  0  0  0  0  0  0  0  0  0  0
    1.3049   -2.0402    1.3322 C   0  0  0  0  0  0  0  0  0  0  0  0
    0.5733   -0.8130    1.0323 C   0  0  0  0  0  0  0  0  0  0  0  0
    4.7106   -0.5921    0.6107 C   0  0  0  0  0  0  0  0  0  0  0  0
    5.6985   -1.1232    1.4052 N   0  0  0  0  0  0  0  0  0  0  0  0
    6.9920   -1.0902    1.1020 C   0  0  0  0  0  0  0  0  0  0  0  0
    7.3937   -0.4958   -0.0697 C   0  0  0  0  0  0  0  0  0  0  0  0
    6.4554    0.0475   -0.8956 C   0  0  0  0  0  0  0  0  0  0  0  0
    5.0887   -0.0023   -0.5473 C   0  0  0  0  0  0  0  0  0  0  0  0
    4.1421    0.6107   -1.4709 C   0  0  0  0  0  0  0  0  0  0  0  0
    4.8525    1.0228   -2.6317 F   0  0  0  0  0  0  0  0  0  0  0  0
    3.6926    1.8657   -0.9958 F   0  0  0  0  0  0  0  0  0  0  0  0
    3.1412   -0.1704   -1.9377 F   0  0  0  0  0  0  0  0  0  0  0  0
   -1.2383    2.7984    0.1550 N   0  0  0  0  0  0  0  0  0  0  0  0
   -0.4962    4.0377    0.3124 C   0  0  0  0  0  0  0  0  0  0  0  0
   -1.0698    5.0035   -0.7256 C   0  0  0  0  0  0  0  0  0  0  0  0
   -2.4174    5.1791   -0.3651 O   0  0  0  0  0  0  0  0  0  0  0  0
   -3.1210    4.0788   -0.7809 C   0  0  0  0  0  0  0  0  0  0  0  0
   -2.6058    2.7707   -0.3046 C   0  0  0  0  0  0  0  0  0  0  0  0
   -3.4144   -3.4160    0.4419 C   0  0  0  0  0  0  0  0  0  0  0  0
   -4.7062   -3.7122    0.0776 C   0  0  0  0  0  0  0  0  0  0  0  0
   -7.8986   -2.6148   -2.7395 H   0  0  0  0  0  0  0  0  0  0  0  0
   -5.3976   -0.9352   -1.6825 H   0  0  0  0  0  0  0  0  0  0  0  0
   -3.0824   -0.4449   -1.0258 H   0  0  0  0  0  0  0  0  0  0  0  0
   -0.9398   -2.8987    0.8641 H   0  0  0  0  0  0  0  0  0  0  0  0
    3.1568    1.3296    1.7042 H   0  0  0  0  0  0  0  0  0  0  0  0
    2.5467    0.0089    2.7703 H   0  0  0  0  0  0  0  0  0  0  0  0
    2.8909   -2.4183   -0.1316 H   0  0  0  0  0  0  0  0  0  0  0  0
    3.2869   -2.7656    1.5507 H   0  0  0  0  0  0  0  0  0  0  0  0
    1.2366   -2.3643    2.3820 H   0  0  0  0  0  0  0  0  0  0  0  0
    0.8886   -2.8905    0.7127 H   0  0  0  0  0  0  0  0  0  0  0  0
    7.7383   -1.5260    1.7661 H   0  0  0  0  0  0  0  0  0  0  0  0
    8.4703   -0.4671   -0.3245 H   0  0  0  0  0  0  0  0  0  0  0  0
    6.7610    0.5165   -1.8170 H   0  0  0  0  0  0  0  0  0  0  0  0
   -0.7535    4.4630    1.2946 H   0  0  0  0  0  0  0  0  0  0  0  0
    0.5910    3.8877    0.1661 H   0  0  0  0  0  0  0  0  0  0  0  0
   -1.0213    4.4630   -1.6983 H   0  0  0  0  0  0  0  0  0  0  0  0
   -0.5107    5.9420   -0.7391 H   0  0  0  0  0  0  0  0  0  0  0  0
   -4.1693    4.1921   -0.3774 H   0  0  0  0  0  0  0  0  0  0  0  0
   -3.2489    4.1102   -1.8925 H   0  0  0  0  0  0  0  0  0  0  0  0
   -3.2289    2.2920    0.4734 H   0  0  0  0  0  0  0  0  0  0  0  0
   -2.6170    2.0630   -1.1853 H   0  0  0  0  0  0  0  0  0  0  0  0
   -2.8894   -4.1343    1.0378 H   0  0  0  0  0  0  0  0  0  0  0  0
   -5.2011   -4.6296    0.3666 H   0  0  0  0  0  0  0  0  0  0  0  0
  1  2  1  0
  2  3  2  0
  2  4  1  0
  4  5  2  0
  5  6  1  0
  6  7  2  0
  7  8  1  0
  8  9  1  0
  9 10  2  0
 10 11  1  0
 11 12  2  0
 12 13  1  0
 13 14  1  0
 14 15  1  0
 15 16  1  0
 16 17  1  0
 17 18  1  0
 15 19  1  0
 19 20  2  0
 20 21  1  0
 21 22  2  0
 22 23  1  0
 23 24  2  0
 24 25  1  0
 25 26  1  0
 25 27  1  0
 25 28  1  0
 11 29  1  0
 29 30  1  0
 30 31  1  0
 31 32  1  0
 32 33  1  0
 33 34  1  0
  7 35  1  0
 35 36  2  0
 36  4  1  0
 18  9  1  0
 24 19  1  0
 34 29  1  0
 18 13  2  0
  1 37  1  0
  5 38  1  0
  6 39  1  0
  8 40  1  0
 14 41  1  0
 14 42  1  0
 16 43  1  0
 16 44  1  0
 17 45  1  0
 17 46  1  0
 21 47  1  0
 22 48  1  0
 23 49  1  0
 30 50  1  0
 30 51  1  0
 31 52  1  0
 31 53  1  0
 33 54  1  0
 33 55  1  0
 34 56  1  0
 34 57  1  0
 35 58  1  0
 36 59  1  0
M  END
$$$$
