[H]c1nnn(-c2c([H])c([H])c(F)c(C(=O)N([H])c3c([H])c([H])c([C@@]4([H])N([H])C([H])([H])C([H])([H])C4([H])[H])c([H])c3[H])c2[H])c1[H]
     RDKit          3D

 44 47  0  0  0  0  0  0  0  0999 V2000
    1.4817   -0.7069   -0.7510 O   0  0  0  0  0  0  0  0  0  0  0  0
    1.7039    0.2693    0.0734 C   0  0  0  0  0  0  0  0  0  0  0  0
    0.5599    0.8123    0.6724 N   0  0  0  0  0  0  0  0  0  0  0  0
   -0.7618    0.3565    0.4087 C   0  0  0  0  0  0  0  0  0  0  0  0
   -1.7236    0.4525    1.4339 C   0  0  0  0  0  0  0  0  0  0  0  0
   -3.0260    0.0613    1.2520 C   0  0  0  0  0  0  0  0  0  0  0  0
   -3.4762   -0.4507    0.0536 C   0  0  0  0  0  0  0  0  0  0  0  0
   -2.5551   -0.5527   -0.9607 C   0  0  0  0  0  0  0  0  0  0  0  0
   -1.2208   -0.1514   -0.7743 C   0  0  0  0  0  0  0  0  0  0  0  0
   -4.8965   -0.8677   -0.1124 C   0  0  2  0  0  0  0  0  0  0  0  0
   -5.7420    0.3627   -0.1958 C   0  0  0  0  0  0  0  0  0  0  0  0
   -7.0287   -0.0909    0.4788 C   0  0  0  0  0  0  0  0  0  0  0  0
   -6.4554   -0.9433    1.6162 C   0  0  0  0  0  0  0  0  0  0  0  0
   -5.3579   -1.6419    1.0238 N   0  0  0  0  0  0  0  0  0  0  0  0
    3.0793    0.6605    0.2592 C   0  0  0  0  0  0  0  0  0  0  0  0
    4.0339    0.1243   -0.6148 C   0  0  0  0  0  0  0  0  0  0  0  0
    5.3653    0.4634   -0.5092 C   0  0  0  0  0  0  0  0  0  0  0  0
    5.7817    1.3382    0.4608 C   0  0  0  0  0  0  0  0  0  0  0  0
    4.8705    1.8779    1.3295 C   0  0  0  0  0  0  0  0  0  0  0  0
    3.5184    1.5276    1.2153 C   0  0  0  0  0  0  0  0  0  0  0  0
    2.7014    2.1009    2.1234 F   0  0  0  0  0  0  0  0  0  0  0  0
    6.3099   -0.1021   -1.4166 N   0  0  0  0  0  0  0  0  0  0  0  0
    7.3384   -0.8705   -1.0792 C   0  0  0  0  0  0  0  0  0  0  0  0
    7.9911   -1.2015   -2.2254 C   0  0  0  0  0  0  0  0  0  0  0  0
    7.3398   -0.6233   -3.2342 N   0  0  0  0  0  0  0  0  0  0  0  0
    6.3256    0.0373   -2.7240 N   0  0  0  0  0  0  0  0  0  0  0  0
    0.5943    1.6158    1.3645 H   0  0  0  0  0  0  0  0  0  0  0  0
   -1.3800    0.8552    2.3844 H   0  0  0  0  0  0  0  0  0  0  0  0
   -3.7710    0.1386    2.0551 H   0  0  0  0  0  0  0  0  0  0  0  0
   -2.8773   -0.9489   -1.9085 H   0  0  0  0  0  0  0  0  0  0  0  0
   -0.5502   -0.2367   -1.6218 H   0  0  0  0  0  0  0  0  0  0  0  0
   -5.0618   -1.4688   -1.0056 H   0  0  0  0  0  0  0  0  0  0  0  0
   -5.3126    1.2546    0.2621 H   0  0  0  0  0  0  0  0  0  0  0  0
   -6.0017    0.5806   -1.2639 H   0  0  0  0  0  0  0  0  0  0  0  0
   -7.6381    0.7330    0.8461 H   0  0  0  0  0  0  0  0  0  0  0  0
   -7.5324   -0.7795   -0.2142 H   0  0  0  0  0  0  0  0  0  0  0  0
   -7.2047   -1.6746    1.9808 H   0  0  0  0  0  0  0  0  0  0  0  0
   -6.1042   -0.2793    2.4310 H   0  0  0  0  0  0  0  0  0  0  0  0
   -5.6075   -2.6246    0.7496 H   0  0  0  0  0  0  0  0  0  0  0  0
    3.7553   -0.5691   -1.3960 H   0  0  0  0  0  0  0  0  0  0  0  0
    6.8401    1.5976    0.5321 H   0  0  0  0  0  0  0  0  0  0  0  0
    5.2065    2.5577    2.0803 H   0  0  0  0  0  0  0  0  0  0  0  0
    7.6145   -1.1815   -0.0803 H   0  0  0  0  0  0  0  0  0  0  0  0
    8.8739   -1.8120   -2.3623 H   0  0  0  0  0  0  0  0  0  0  0  0
  1  2  2  0
  2  3  1  0
  3  4  1  0
  4  5  2  0
  5  6  1  0
  6  7  2  0
  7  8  1  0
  8  9  2  0
  7 10  1  0
 10 11  1  0
 11 12  1  0
 12 13  1  0
 13 14  1  0
  2 15  1  0
 15 16  2  0
 16 17  1  0
 17 18  2  0
 18 19  1  0
 19 20  2  0
 20 21  1  0
 17 22  1  0
 22 23  1  0
 23 24  2  0
 24 25  1  0
 25 26  2  0
  9  4  1  0
 14 10  1  0
 20 15  1  0
 26 22  1  0
  3 27  1  0
  5 28  1  0
  6 29  1  0
  8 30  1  0
  9 31  1  0
 10 32  1  6
 11 33  1  0
 11 34  1  0
 12 35  1  0
 12 36  1  0
 13 37  1  0
 13 38  1  0
 14 39  1  0
 16 40  1  0
 18 41  1  0
 19 42  1  0
 23 43  1  0
 24 44  1  0
M  END
$$$$
[H]C#CC([H])(c1sc2nc(N([H])[H])n([H])c2c1C([H])([H])c1c([H])c([H])c(-c2nnc(-c3c([H])c([H])c([H])c([H])c3[H])o2)c([H])c1[H])C([H])([H])OC([H])([H])C([H])([H])[H]
     RDKit          3D

 57 61  0  0  0  0  0  0  0  0999 V2000
   -8.1239    1.7218    0.4705 C   0  0  0  0  0  0  0  0  0  0  0  0
   -7.2940    1.9852    1.6874 C   0  0  0  0  0  0  0  0  0  0  0  0
   -6.0081    1.4932    1.5555 O   0  0  0  0  0  0  0  0  0  0  0  0
   -6.0508    0.1393    1.3389 C   0  0  0  0  0  0  0  0  0  0  0  0
   -4.6392   -0.4580    1.2946 C   0  0  0  0  0  0  0  0  0  0  0  0
   -4.8362   -1.9029    1.0556 C   0  0  0  0  0  0  0  0  0  0  0  0
   -5.0206   -3.0844    0.8555 C   0  0  0  0  0  0  0  0  0  0  0  0
   -3.9383    0.1967    0.1339 C   0  0  0  0  0  0  0  0  0  0  0  0
   -4.5597    1.1620   -1.1044 S   0  0  0  0  0  0  0  0  0  0  0  0
   -3.1415    1.4651   -1.9821 C   0  0  0  0  0  0  0  0  0  0  0  0
   -2.5796    2.0840   -3.0662 N   0  0  0  0  0  0  0  0  0  0  0  0
   -1.2737    1.8108   -3.0574 C   0  0  0  0  0  0  0  0  0  0  0  0
   -0.2815    2.2542   -4.0111 N   0  0  0  0  0  0  0  0  0  0  0  0
   -1.0205    1.0329   -1.9848 N   0  0  0  0  0  0  0  0  0  0  0  0
   -2.1820    0.7937   -1.2804 C   0  0  0  0  0  0  0  0  0  0  0  0
   -2.5705    0.1204   -0.1670 C   0  0  0  0  0  0  0  0  0  0  0  0
   -1.7328   -0.6865    0.7926 C   0  0  0  0  0  0  0  0  0  0  0  0
   -0.3260   -0.8224    0.5328 C   0  0  0  0  0  0  0  0  0  0  0  0
    0.6007    0.0567    1.0716 C   0  0  0  0  0  0  0  0  0  0  0  0
    1.9544   -0.0856    0.8657 C   0  0  0  0  0  0  0  0  0  0  0  0
    2.4273   -1.1324    0.0996 C   0  0  0  0  0  0  0  0  0  0  0  0
    1.4954   -1.9984   -0.4302 C   0  0  0  0  0  0  0  0  0  0  0  0
    0.1568   -1.8583   -0.2271 C   0  0  0  0  0  0  0  0  0  0  0  0
    3.8583   -1.3232   -0.1356 C   0  0  0  0  0  0  0  0  0  0  0  0
    4.3690   -2.3270   -0.8817 N   0  0  0  0  0  0  0  0  0  0  0  0
    5.6844   -2.2353   -0.9079 N   0  0  0  0  0  0  0  0  0  0  0  0
    5.9786   -1.1363   -0.1503 C   0  0  0  0  0  0  0  0  0  0  0  0
    4.8651   -0.6140    0.2967 O   0  0  0  0  0  0  0  0  0  0  0  0
    7.3102   -0.6318    0.1148 C   0  0  0  0  0  0  0  0  0  0  0  0
    8.4008   -1.3061   -0.4365 C   0  0  0  0  0  0  0  0  0  0  0  0
    9.6567   -0.8181   -0.1754 C   0  0  0  0  0  0  0  0  0  0  0  0
    9.8192    0.3003    0.6060 C   0  0  0  0  0  0  0  0  0  0  0  0
    8.7180    0.9567    1.1453 C   0  0  0  0  0  0  0  0  0  0  0  0
    7.4651    0.4855    0.8958 C   0  0  0  0  0  0  0  0  0  0  0  0
   -8.4474    0.6526    0.4652 H   0  0  0  0  0  0  0  0  0  0  0  0
   -7.5446    1.9196   -0.4477 H   0  0  0  0  0  0  0  0  0  0  0  0
   -9.0059    2.4046    0.4102 H   0  0  0  0  0  0  0  0  0  0  0  0
   -7.2800    3.0617    1.9740 H   0  0  0  0  0  0  0  0  0  0  0  0
   -7.7333    1.4556    2.5669 H   0  0  0  0  0  0  0  0  0  0  0  0
   -6.6715   -0.4159    2.0612 H   0  0  0  0  0  0  0  0  0  0  0  0
   -6.5516   -0.0114    0.3462 H   0  0  0  0  0  0  0  0  0  0  0  0
   -4.1336   -0.3269    2.2433 H   0  0  0  0  0  0  0  0  0  0  0  0
   -5.1793   -4.1274    0.6982 H   0  0  0  0  0  0  0  0  0  0  0  0
   -0.4591    2.0265   -5.0115 H   0  0  0  0  0  0  0  0  0  0  0  0
    0.5689    2.7693   -3.7635 H   0  0  0  0  0  0  0  0  0  0  0  0
   -0.0525    0.7105   -1.8015 H   0  0  0  0  0  0  0  0  0  0  0  0
   -1.8278   -0.2288    1.8298 H   0  0  0  0  0  0  0  0  0  0  0  0
   -2.2164   -1.6969    0.9340 H   0  0  0  0  0  0  0  0  0  0  0  0
    0.2590    0.9043    1.6889 H   0  0  0  0  0  0  0  0  0  0  0  0
    2.6852    0.6166    1.2975 H   0  0  0  0  0  0  0  0  0  0  0  0
    1.8913   -2.8160   -1.0297 H   0  0  0  0  0  0  0  0  0  0  0  0
   -0.5194   -2.5646   -0.6661 H   0  0  0  0  0  0  0  0  0  0  0  0
    8.2384   -2.1884   -1.0523 H   0  0  0  0  0  0  0  0  0  0  0  0
   10.5243   -1.3010   -0.5756 H   0  0  0  0  0  0  0  0  0  0  0  0
   10.7916    0.6770    0.8066 H   0  0  0  0  0  0  0  0  0  0  0  0
    8.8712    1.8236    1.7480 H   0  0  0  0  0  0  0  0  0  0  0  0
    6.6114    1.0176    1.3301 H   0  0  0  0  0  0  0  0  0  0  0  0
  1  2  1  0
  2  3  1  0
  3  4  1  0
  4  5  1  0
  5  6  1  0
  6  7  3  0
  5  8  1  0
  8  9  1  0
  9 10  1  0
 10 11  1  0
 11 12  2  0
 12 13  1  0
 12 14  1  0
 14 15  1  0
 15 16  1  0
 16 17  1  0
 17 18  1  0
 18 19  2  0
 19 20  1  0
 20 21  2  0
 21 22  1  0
 22 23  2  0
 21 24  1  0
 24 25  2  0
 25 26  1  0
 26 27  2  0
 27 28  1  0
 27 29  1  0
 29 30  2  0
 30 31  1  0
 31 32  2  0
 32 33  1  0
 33 34  2  0
 16  8  2  0
 23 18  1  0
 28 24  1  0
 34 29  1  0
 15 10  2  0
  1 35  1  0
  1 36  1  0
  1 37  1  0
  2 38  1  0
  2 39  1  0
  4 40  1  0
  4 41  1  0
  5 42  1  0
  7 43  1  0
 13 44  1  0
 13 45  1  0
 14 46  1  0
 17 47  1  0
 17 48  1  0
 19 49  1  0
 20 50  1  0
 22 51  1  0
 23 52  1  0
 30 53  1  0
 31 54  1  0
 32 55  1  0
 33 56  1  0
 34 57  1  0
M  END
$$$$
[H]c1c([H])c([H])c(N2C([H])([H])[C@@]([H])(N(C([H])([H])[H])C([H])([H])[H])[C@]2([H])C([H])([H])[H])c(N([H])C(=O)C2([H])C([H])([H])C([H])([H])C2([H])[H])c1[H]
     RDKit          3D

 46 48  0  0  0  0  0  0  0  0999 V2000
   -4.4515    0.5538   -2.0430 C   0  0  0  0  0  0  0  0  0  0  0  0
   -3.1721    1.0174   -1.6271 N   0  0  0  0  0  0  0  0  0  0  0  0
   -3.1879    2.4520   -1.4255 C   0  0  0  0  0  0  0  0  0  0  0  0
   -2.6050    0.4166   -0.4742 C   0  0  1  0  0  0  0  0  0  0  0  0
   -2.2943   -1.0709   -0.5290 C   0  0  2  0  0  0  0  0  0  0  0  0
   -3.3927   -1.8191    0.1522 C   0  0  0  0  0  0  0  0  0  0  0  0
   -1.0683   -0.7875    0.1735 N   0  0  0  0  0  0  0  0  0  0  0  0
   -1.0947    0.4942   -0.5380 C   0  0  0  0  0  0  0  0  0  0  0  0
   -0.2604   -1.4429    1.1375 C   0  0  0  0  0  0  0  0  0  0  0  0
   -0.7399   -2.4537    1.9422 C   0  0  0  0  0  0  0  0  0  0  0  0
    0.0190   -3.0437    2.9470 C   0  0  0  0  0  0  0  0  0  0  0  0
    1.2958   -2.6306    3.1740 C   0  0  0  0  0  0  0  0  0  0  0  0
    1.8162   -1.6269    2.3943 C   0  0  0  0  0  0  0  0  0  0  0  0
    1.0547   -1.0270    1.3768 C   0  0  0  0  0  0  0  0  0  0  0  0
    1.6328   -0.0944    0.5156 N   0  0  0  0  0  0  0  0  0  0  0  0
    2.7598    0.6835    0.8059 C   0  0  0  0  0  0  0  0  0  0  0  0
    3.3862    0.6464    1.8874 O   0  0  0  0  0  0  0  0  0  0  0  0
    3.3143    1.6572   -0.2110 C   0  0  0  0  0  0  0  0  0  0  0  0
    3.7159    0.9761   -1.5028 C   0  0  0  0  0  0  0  0  0  0  0  0
    5.1853    1.0349   -1.1258 C   0  0  0  0  0  0  0  0  0  0  0  0
    4.7780    1.9374    0.0307 C   0  0  0  0  0  0  0  0  0  0  0  0
   -4.8553    1.3290   -2.7612 H   0  0  0  0  0  0  0  0  0  0  0  0
   -4.4335   -0.3781   -2.6283 H   0  0  0  0  0  0  0  0  0  0  0  0
   -5.2099    0.5192   -1.2342 H   0  0  0  0  0  0  0  0  0  0  0  0
   -4.1621    2.9019   -1.6349 H   0  0  0  0  0  0  0  0  0  0  0  0
   -2.9453    2.7254   -0.3613 H   0  0  0  0  0  0  0  0  0  0  0  0
   -2.3609    2.9347   -2.0228 H   0  0  0  0  0  0  0  0  0  0  0  0
   -3.0361    0.6581    0.5103 H   0  0  0  0  0  0  0  0  0  0  0  0
   -2.1495   -1.4563   -1.5645 H   0  0  0  0  0  0  0  0  0  0  0  0
   -4.3402   -1.5605   -0.4227 H   0  0  0  0  0  0  0  0  0  0  0  0
   -3.6178   -1.4818    1.1760 H   0  0  0  0  0  0  0  0  0  0  0  0
   -3.3340   -2.9249    0.0321 H   0  0  0  0  0  0  0  0  0  0  0  0
   -0.7382    1.3658   -0.0042 H   0  0  0  0  0  0  0  0  0  0  0  0
   -0.7425    0.4513   -1.5901 H   0  0  0  0  0  0  0  0  0  0  0  0
   -1.7657   -2.8163    1.7868 H   0  0  0  0  0  0  0  0  0  0  0  0
   -0.3862   -3.8249    3.5516 H   0  0  0  0  0  0  0  0  0  0  0  0
    1.9350   -3.0568    3.9482 H   0  0  0  0  0  0  0  0  0  0  0  0
    2.8394   -1.3406    2.5917 H   0  0  0  0  0  0  0  0  0  0  0  0
    1.2474    0.0257   -0.4421 H   0  0  0  0  0  0  0  0  0  0  0  0
    2.7438    2.5900   -0.3161 H   0  0  0  0  0  0  0  0  0  0  0  0
    3.3906   -0.1064   -1.5208 H   0  0  0  0  0  0  0  0  0  0  0  0
    3.5453    1.5357   -2.4266 H   0  0  0  0  0  0  0  0  0  0  0  0
    5.6229    0.0538   -0.8080 H   0  0  0  0  0  0  0  0  0  0  0  0
    5.8401    1.5183   -1.8489 H   0  0  0  0  0  0  0  0  0  0  0  0
    5.1385    1.4740    0.9959 H   0  0  0  0  0  0  0  0  0  0  0  0
    5.0830    2.9906   -0.0667 H   0  0  0  0  0  0  0  0  0  0  0  0
  1  2  1  0
  2  3  1  0
  2  4  1  0
  4  5  1  0
  5  6  1  0
  5  7  1  0
  7  8  1  0
  7  9  1  0
  9 10  2  0
 10 11  1  0
 11 12  2  0
 12 13  1  0
 13 14  2  0
 14 15  1  0
 15 16  1  0
 16 17  2  0
 16 18  1  0
 18 19  1  0
 19 20  1  0
 20 21  1  0
  8  4  1  0
 14  9  1  0
 21 18  1  0
  1 22  1  0
  1 23  1  0
  1 24  1  0
  3 25  1  0
  3 26  1  0
  3 27  1  0
  4 28  1  1
  5 29  1  6
  6 30  1  0
  6 31  1  0
  6 32  1  0
  8 33  1  0
  8 34  1  0
 10 35  1  0
 11 36  1  0
 12 37  1  0
 13 38  1  0
 15 39  1  0
 18 40  1  0
 19 41  1  0
 19 42  1  0
 20 43  1  0
 20 44  1  0
 21 45  1  0
 21 46  1  0
M  END
$$$$
[H]c1nc([H])c([H])c(-c2nn(-c3nn([H])c4nc(-c5c([H])c([H])c([H])c([H])c5[H])sc34)c([H])c2C(=O)N([H])[H])c1[H]
     RDKit          3D

 41 45  0  0  0  0  0  0  0  0999 V2000
   -4.1913   -3.3709   -0.6735 N   0  0  0  0  0  0  0  0  0  0  0  0
   -4.3311   -1.9559   -0.6459 C   0  0  0  0  0  0  0  0  0  0  0  0
   -5.3790   -1.4918   -1.1308 O   0  0  0  0  0  0  0  0  0  0  0  0
   -3.2883   -1.1234   -0.0754 C   0  0  0  0  0  0  0  0  0  0  0  0
   -2.1462   -1.6332    0.5666 C   0  0  0  0  0  0  0  0  0  0  0  0
   -1.3756   -0.6235    1.0038 N   0  0  0  0  0  0  0  0  0  0  0  0
   -1.9785    0.4914    0.6667 N   0  0  0  0  0  0  0  0  0  0  0  0
   -3.1476    0.2421    0.0060 C   0  0  0  0  0  0  0  0  0  0  0  0
   -4.0595    1.2633   -0.4870 C   0  0  0  0  0  0  0  0  0  0  0  0
   -4.4737    2.2437    0.4205 C   0  0  0  0  0  0  0  0  0  0  0  0
   -5.3125    3.2600    0.0099 C   0  0  0  0  0  0  0  0  0  0  0  0
   -5.7493    3.3331   -1.2626 N   0  0  0  0  0  0  0  0  0  0  0  0
   -5.3754    2.4179   -2.1534 C   0  0  0  0  0  0  0  0  0  0  0  0
   -4.5267    1.3801   -1.7617 C   0  0  0  0  0  0  0  0  0  0  0  0
   -0.1431   -0.7011    1.6988 C   0  0  0  0  0  0  0  0  0  0  0  0
    0.1353   -0.9582    2.9848 N   0  0  0  0  0  0  0  0  0  0  0  0
    1.4353   -0.9319    3.2077 N   0  0  0  0  0  0  0  0  0  0  0  0
    2.1093   -0.6473    2.0462 C   0  0  0  0  0  0  0  0  0  0  0  0
    3.3349   -0.4962    1.6613 N   0  0  0  0  0  0  0  0  0  0  0  0
    3.6008   -0.2132    0.3987 C   0  0  0  0  0  0  0  0  0  0  0  0
    2.0359   -0.1564   -0.2866 S   0  0  0  0  0  0  0  0  0  0  0  0
    1.1178   -0.5053    1.1128 C   0  0  0  0  0  0  0  0  0  0  0  0
    4.9174   -0.0024   -0.2428 C   0  0  0  0  0  0  0  0  0  0  0  0
    5.0019    0.2832   -1.5662 C   0  0  0  0  0  0  0  0  0  0  0  0
    6.2121    0.4890   -2.2131 C   0  0  0  0  0  0  0  0  0  0  0  0
    7.3711    0.3946   -1.4586 C   0  0  0  0  0  0  0  0  0  0  0  0
    7.2884    0.1001   -0.0928 C   0  0  0  0  0  0  0  0  0  0  0  0
    6.0548   -0.0957    0.5005 C   0  0  0  0  0  0  0  0  0  0  0  0
   -4.0352   -3.9167   -1.5557 H   0  0  0  0  0  0  0  0  0  0  0  0
   -4.2454   -3.9161    0.2361 H   0  0  0  0  0  0  0  0  0  0  0  0
   -1.9348   -2.6689    0.6827 H   0  0  0  0  0  0  0  0  0  0  0  0
   -4.1257    2.1854    1.4343 H   0  0  0  0  0  0  0  0  0  0  0  0
   -5.5996    3.9923    0.7613 H   0  0  0  0  0  0  0  0  0  0  0  0
   -5.7133    2.4510   -3.1923 H   0  0  0  0  0  0  0  0  0  0  0  0
   -4.2340    0.6720   -2.5085 H   0  0  0  0  0  0  0  0  0  0  0  0
    1.8320   -1.1107    4.1560 H   0  0  0  0  0  0  0  0  0  0  0  0
    4.1057    0.3575   -2.1561 H   0  0  0  0  0  0  0  0  0  0  0  0
    6.2379    0.7131   -3.2621 H   0  0  0  0  0  0  0  0  0  0  0  0
    8.3508    0.5433   -1.8979 H   0  0  0  0  0  0  0  0  0  0  0  0
    8.2033    0.0271    0.4952 H   0  0  0  0  0  0  0  0  0  0  0  0
    6.0211   -0.3214    1.5549 H   0  0  0  0  0  0  0  0  0  0  0  0
  1  2  1  0
  2  3  2  0
  2  4  1  0
  4  5  2  0
  5  6  1  0
  6  7  1  0
  7  8  2  0
  8  9  1  0
  9 10  2  0
 10 11  1  0
 11 12  2  0
 12 13  1  0
 13 14  2  0
  6 15  1  0
 15 16  2  0
 16 17  1  0
 17 18  1  0
 18 19  1  0
 19 20  2  0
 20 21  1  0
 21 22  1  0
 20 23  1  0
 23 24  2  0
 24 25  1  0
 25 26  2  0
 26 27  1  0
 27 28  2  0
  8  4  1  0
 14  9  1  0
 22 15  1  0
 28 23  1  0
 22 18  2  0
  1 29  1  0
  1 30  1  0
  5 31  1  0
 10 32  1  0
 11 33  1  0
 13 34  1  0
 14 35  1  0
 17 36  1  0
 24 37  1  0
 25 38  1  0
 26 39  1  0
 27 40  1  0
 28 41  1  0
M  END
$$$$
[H]c1c([H])c([H])c(C([H])([H])C([H])([H])N([H])C([H])([H])[H])c(-c2nnnn2[H])c1[H]
     RDKit          3D

 28 29  0  0  0  0  0  0  0  0999 V2000
    3.1647   -0.9365    0.2417 C   0  0  0  0  0  0  0  0  0  0  0  0
    2.9902    0.4259    0.2142 N   0  0  0  0  0  0  0  0  0  0  0  0
    2.0869    1.1555   -0.5643 C   0  0  0  0  0  0  0  0  0  0  0  0
    0.6392    1.1344   -0.3202 C   0  0  0  0  0  0  0  0  0  0  0  0
   -0.2006   -0.0065   -0.4893 C   0  0  0  0  0  0  0  0  0  0  0  0
    0.1161   -1.1250   -1.2413 C   0  0  0  0  0  0  0  0  0  0  0  0
   -0.6863   -2.2193   -1.3912 C   0  0  0  0  0  0  0  0  0  0  0  0
   -1.9001   -2.2615   -0.7750 C   0  0  0  0  0  0  0  0  0  0  0  0
   -2.2628   -1.1494   -0.0068 C   0  0  0  0  0  0  0  0  0  0  0  0
   -1.4487   -0.0428    0.1432 C   0  0  0  0  0  0  0  0  0  0  0  0
   -2.0082    1.0955    0.9046 C   0  0  0  0  0  0  0  0  0  0  0  0
   -1.5299    2.3299    1.0785 N   0  0  0  0  0  0  0  0  0  0  0  0
   -2.3895    3.0033    1.8063 N   0  0  0  0  0  0  0  0  0  0  0  0
   -3.4040    2.2274    2.1015 N   0  0  0  0  0  0  0  0  0  0  0  0
   -3.2027    1.0386    1.5596 N   0  0  0  0  0  0  0  0  0  0  0  0
    4.1687   -1.2411    0.6753 H   0  0  0  0  0  0  0  0  0  0  0  0
    2.3902   -1.4415    0.8789 H   0  0  0  0  0  0  0  0  0  0  0  0
    3.1909   -1.4315   -0.7706 H   0  0  0  0  0  0  0  0  0  0  0  0
    3.8787    0.9309    0.5046 H   0  0  0  0  0  0  0  0  0  0  0  0
    2.3901    2.2589   -0.3991 H   0  0  0  0  0  0  0  0  0  0  0  0
    2.3475    1.0685   -1.6675 H   0  0  0  0  0  0  0  0  0  0  0  0
    0.5609    1.3982    0.8075 H   0  0  0  0  0  0  0  0  0  0  0  0
    0.1378    2.0128   -0.8133 H   0  0  0  0  0  0  0  0  0  0  0  0
    1.0468   -1.1122   -1.7632 H   0  0  0  0  0  0  0  0  0  0  0  0
   -0.4026   -3.0688   -1.9789 H   0  0  0  0  0  0  0  0  0  0  0  0
   -2.5677   -3.1065   -0.8608 H   0  0  0  0  0  0  0  0  0  0  0  0
   -3.2334   -1.1807    0.4805 H   0  0  0  0  0  0  0  0  0  0  0  0
   -3.8723    0.2434    1.6454 H   0  0  0  0  0  0  0  0  0  0  0  0
  1  2  1  0
  2  3  1  0
  3  4  1  0
  4  5  1  0
  5  6  2  0
  6  7  1  0
  7  8  2  0
  8  9  1  0
  9 10  2  0
 10 11  1  0
 11 12  2  0
 12 13  1  0
 13 14  2  0
 14 15  1  0
 10  5  1  0
 15 11  1  0
  1 16  1  0
  1 17  1  0
  1 18  1  0
  2 19  1  0
  3 20  1  0
  3 21  1  0
  4 22  1  0
  4 23  1  0
  6 24  1  0
  7 25  1  0
  8 26  1  0
  9 27  1  0
 15 28  1  0
M  END
$$$$
[H]c1c([H])c(N([H])C(=O)N([H])c2c([H])c([H])c(C(F)(F)F)c([H])c2[H])c([H])c([H])c1C(=O)N([H])C(C([H])([H])[H])(C([H])([H])[H])C([H])([H])[H]
     RDKit          3D

 47 48  0  0  0  0  0  0  0  0999 V2000
   -6.9259    1.0201   -0.8251 C   0  0  0  0  0  0  0  0  0  0  0  0
   -6.3472    0.0017    0.1449 C   0  0  0  0  0  0  0  0  0  0  0  0
   -7.0115   -1.3508   -0.0228 C   0  0  0  0  0  0  0  0  0  0  0  0
   -6.6205    0.4547    1.5655 C   0  0  0  0  0  0  0  0  0  0  0  0
   -4.9308   -0.1485   -0.0187 N   0  0  0  0  0  0  0  0  0  0  0  0
   -3.9494    0.8406    0.2009 C   0  0  0  0  0  0  0  0  0  0  0  0
   -4.2657    1.9731    0.5999 O   0  0  0  0  0  0  0  0  0  0  0  0
   -2.5550    0.5355   -0.0393 C   0  0  0  0  0  0  0  0  0  0  0  0
   -2.1690   -0.1589   -1.1886 C   0  0  0  0  0  0  0  0  0  0  0  0
   -0.8784   -0.4606   -1.4655 C   0  0  0  0  0  0  0  0  0  0  0  0
    0.1737   -0.0809   -0.5807 C   0  0  0  0  0  0  0  0  0  0  0  0
    1.4775   -0.4070   -0.9399 N   0  0  0  0  0  0  0  0  0  0  0  0
    2.6583   -0.0806   -0.2250 C   0  0  0  0  0  0  0  0  0  0  0  0
    2.7302    0.5497    0.8426 O   0  0  0  0  0  0  0  0  0  0  0  0
    3.8606   -0.5444   -0.8363 N   0  0  0  0  0  0  0  0  0  0  0  0
    5.1642   -0.3747   -0.3655 C   0  0  0  0  0  0  0  0  0  0  0  0
    5.4724   -0.0875    0.9241 C   0  0  0  0  0  0  0  0  0  0  0  0
    6.8154    0.0801    1.2891 C   0  0  0  0  0  0  0  0  0  0  0  0
    7.8284   -0.0373    0.3945 C   0  0  0  0  0  0  0  0  0  0  0  0
    7.4926   -0.3314   -0.9032 C   0  0  0  0  0  0  0  0  0  0  0  0
    6.2065   -0.4999   -1.3019 C   0  0  0  0  0  0  0  0  0  0  0  0
    9.2707    0.1070    0.6984 C   0  0  0  0  0  0  0  0  0  0  0  0
    9.5383    0.1477    2.0303 F   0  0  0  0  0  0  0  0  0  0  0  0
    9.9503   -0.9135    0.0328 F   0  0  0  0  0  0  0  0  0  0  0  0
    9.6904    1.3152    0.1078 F   0  0  0  0  0  0  0  0  0  0  0  0
   -0.1813    0.5960    0.5482 C   0  0  0  0  0  0  0  0  0  0  0  0
   -1.5393    0.8948    0.8017 C   0  0  0  0  0  0  0  0  0  0  0  0
   -7.5551    0.4312   -1.5672 H   0  0  0  0  0  0  0  0  0  0  0  0
   -6.1742    1.5258   -1.4383 H   0  0  0  0  0  0  0  0  0  0  0  0
   -7.5931    1.6723   -0.2520 H   0  0  0  0  0  0  0  0  0  0  0  0
   -6.5432   -2.0465    0.7194 H   0  0  0  0  0  0  0  0  0  0  0  0
   -6.8239   -1.8085   -1.0284 H   0  0  0  0  0  0  0  0  0  0  0  0
   -8.0957   -1.3295    0.1946 H   0  0  0  0  0  0  0  0  0  0  0  0
   -7.6862    0.2614    1.8050 H   0  0  0  0  0  0  0  0  0  0  0  0
   -6.0215   -0.1652    2.2340 H   0  0  0  0  0  0  0  0  0  0  0  0
   -6.3850    1.5207    1.6873 H   0  0  0  0  0  0  0  0  0  0  0  0
   -4.6075   -1.1319   -0.3486 H   0  0  0  0  0  0  0  0  0  0  0  0
   -3.0104   -0.4354   -1.8469 H   0  0  0  0  0  0  0  0  0  0  0  0
   -0.6131   -0.9897   -2.3570 H   0  0  0  0  0  0  0  0  0  0  0  0
    1.6137   -0.9812   -1.8523 H   0  0  0  0  0  0  0  0  0  0  0  0
    3.7745   -1.1040   -1.7665 H   0  0  0  0  0  0  0  0  0  0  0  0
    4.7480    0.0095    1.6972 H   0  0  0  0  0  0  0  0  0  0  0  0
    7.0672    0.3132    2.3206 H   0  0  0  0  0  0  0  0  0  0  0  0
    8.2667   -0.4274   -1.6603 H   0  0  0  0  0  0  0  0  0  0  0  0
    5.9245   -0.7211   -2.3093 H   0  0  0  0  0  0  0  0  0  0  0  0
    0.5482    0.9258    1.2950 H   0  0  0  0  0  0  0  0  0  0  0  0
   -1.7896    1.4406    1.7311 H   0  0  0  0  0  0  0  0  0  0  0  0
  1  2  1  0
  2  3  1  0
  2  4  1  0
  2  5  1  0
  5  6  1  0
  6  7  2  0
  6  8  1  0
  8  9  2  0
  9 10  1  0
 10 11  2  0
 11 12  1  0
 12 13  1  0
 13 14  2  0
 13 15  1  0
 15 16  1  0
 16 17  2  0
 17 18  1  0
 18 19  2  0
 19 20  1  0
 20 21  2  0
 19 22  1  0
 22 23  1  0
 22 24  1  0
 22 25  1  0
 11 26  1  0
 26 27  2  0
 27  8  1  0
 21 16  1  0
  1 28  1  0
  1 29  1  0
  1 30  1  0
  3 31  1  0
  3 32  1  0
  3 33  1  0
  4 34  1  0
  4 35  1  0
  4 36  1  0
  5 37  1  0
  9 38  1  0
 10 39  1  0
 12 40  1  0
 15 41  1  0
 17 42  1  0
 18 43  1  0
 20 44  1  0
 21 45  1  0
 26 46  1  0
 27 47  1  0
M  END
$$$$
[H]Oc1c([H])c([H])c([H])c([C@]([H])(c2c([H])c([H])c([H])c([H])c2[H])N([H])C(=O)[C@@]([H])(c2c([H])c([H])c([H])c([H])c2[H])N([H])C(=O)c2c([H])c([H])c([H])c(C([H])(O[H])C(=O)N([H])C([H])([H])C([H])([H])OC([H])([H])[H])c2[H])c1[H]
     RDKit          3D

 75 78  0  0  0  0  0  0  0  0999 V2000
   10.7340   -0.6722   -1.1961 C   0  0  0  0  0  0  0  0  0  0  0  0
   10.3413   -1.5051   -2.2219 O   0  0  0  0  0  0  0  0  0  0  0  0
    9.0306   -1.9414   -2.1540 C   0  0  0  0  0  0  0  0  0  0  0  0
    8.0448   -0.7928   -2.1786 C   0  0  0  0  0  0  0  0  0  0  0  0
    6.6822   -1.2608   -2.1110 N   0  0  0  0  0  0  0  0  0  0  0  0
    5.6010   -0.3439   -2.0993 C   0  0  0  0  0  0  0  0  0  0  0  0
    5.7687    0.9074   -2.1466 O   0  0  0  0  0  0  0  0  0  0  0  0
    4.1929   -0.8249   -2.0258 C   0  0  0  0  0  0  0  0  0  0  0  0
    4.2295   -2.2430   -2.1124 O   0  0  0  0  0  0  0  0  0  0  0  0
    3.6429   -0.5746   -0.6583 C   0  0  0  0  0  0  0  0  0  0  0  0
    4.2048   -1.2590    0.4147 C   0  0  0  0  0  0  0  0  0  0  0  0
    3.7221   -1.0888    1.6984 C   0  0  0  0  0  0  0  0  0  0  0  0
    2.6780   -0.2389    1.9264 C   0  0  0  0  0  0  0  0  0  0  0  0
    2.1109    0.4432    0.8878 C   0  0  0  0  0  0  0  0  0  0  0  0
    2.5959    0.2718   -0.3913 C   0  0  0  0  0  0  0  0  0  0  0  0
    0.9325    1.3323    1.1421 C   0  0  0  0  0  0  0  0  0  0  0  0
    1.0826    2.5240    0.7983 O   0  0  0  0  0  0  0  0  0  0  0  0
   -0.2231    0.7880    1.7274 N   0  0  0  0  0  0  0  0  0  0  0  0
   -1.3939    1.5442    2.0180 C   0  0  1  0  0  0  0  0  0  0  0  0
   -2.2732    1.4859    0.8155 C   0  0  0  0  0  0  0  0  0  0  0  0
   -1.6670    1.7394   -0.2756 O   0  0  0  0  0  0  0  0  0  0  0  0
   -3.6252    1.1897    0.7806 N   0  0  0  0  0  0  0  0  0  0  0  0
   -4.4271    1.1840   -0.4486 C   0  0  1  0  0  0  0  0  0  0  0  0
   -3.8753    0.1382   -1.3899 C   0  0  0  0  0  0  0  0  0  0  0  0
   -3.7568    0.5137   -2.7239 C   0  0  0  0  0  0  0  0  0  0  0  0
   -3.2635   -0.3492   -3.6683 C   0  0  0  0  0  0  0  0  0  0  0  0
   -2.8847   -1.6088   -3.2534 C   0  0  0  0  0  0  0  0  0  0  0  0
   -2.9937   -2.0006   -1.9334 C   0  0  0  0  0  0  0  0  0  0  0  0
   -3.4964   -1.1052   -1.0123 C   0  0  0  0  0  0  0  0  0  0  0  0
   -5.8347    0.9827   -0.2079 C   0  0  0  0  0  0  0  0  0  0  0  0
   -6.2364    0.0365    0.7183 C   0  0  0  0  0  0  0  0  0  0  0  0
   -7.5743   -0.1951    0.9477 C   0  0  0  0  0  0  0  0  0  0  0  0
   -8.5661    0.4890    0.2782 C   0  0  0  0  0  0  0  0  0  0  0  0
   -8.1545    1.4278   -0.6402 C   0  0  0  0  0  0  0  0  0  0  0  0
   -9.1258    2.1351   -1.3303 O   0  0  0  0  0  0  0  0  0  0  0  0
   -6.8006    1.6754   -0.8836 C   0  0  0  0  0  0  0  0  0  0  0  0
   -1.9818    1.1639    3.2798 C   0  0  0  0  0  0  0  0  0  0  0  0
   -2.3787    2.1597    4.1487 C   0  0  0  0  0  0  0  0  0  0  0  0
   -2.9285    1.8407    5.3630 C   0  0  0  0  0  0  0  0  0  0  0  0
   -3.1006    0.5312    5.7496 C   0  0  0  0  0  0  0  0  0  0  0  0
   -2.6996   -0.4530    4.8718 C   0  0  0  0  0  0  0  0  0  0  0  0
   -2.1463   -0.1502    3.6504 C   0  0  0  0  0  0  0  0  0  0  0  0
   10.6395   -1.1356   -0.1905 H   0  0  0  0  0  0  0  0  0  0  0  0
   11.8292   -0.4634   -1.3166 H   0  0  0  0  0  0  0  0  0  0  0  0
   10.1755    0.2810   -1.2426 H   0  0  0  0  0  0  0  0  0  0  0  0
    8.8919   -2.4840   -1.1724 H   0  0  0  0  0  0  0  0  0  0  0  0
    8.8199   -2.6447   -2.9816 H   0  0  0  0  0  0  0  0  0  0  0  0
    8.2134   -0.0613   -1.3781 H   0  0  0  0  0  0  0  0  0  0  0  0
    8.1771   -0.2526   -3.1563 H   0  0  0  0  0  0  0  0  0  0  0  0
    6.4758   -2.2779   -2.0699 H   0  0  0  0  0  0  0  0  0  0  0  0
    3.5639   -0.4185   -2.8122 H   0  0  0  0  0  0  0  0  0  0  0  0
    3.8131   -2.5314   -2.9849 H   0  0  0  0  0  0  0  0  0  0  0  0
    5.0442   -1.9330    0.1783 H   0  0  0  0  0  0  0  0  0  0  0  0
    4.1849   -1.6349    2.5106 H   0  0  0  0  0  0  0  0  0  0  0  0
    2.3108   -0.1159    2.9270 H   0  0  0  0  0  0  0  0  0  0  0  0
    2.1446    0.8197   -1.2096 H   0  0  0  0  0  0  0  0  0  0  0  0
   -0.2178   -0.2507    1.9692 H   0  0  0  0  0  0  0  0  0  0  0  0
   -1.0241    2.6436    2.0679 H   0  0  0  0  0  0  0  0  0  0  0  0
   -4.1424    0.9503    1.6490 H   0  0  0  0  0  0  0  0  0  0  0  0
   -4.1956    2.1315   -0.9423 H   0  0  0  0  0  0  0  0  0  0  0  0
   -4.0560    1.5037   -3.0396 H   0  0  0  0  0  0  0  0  0  0  0  0
   -3.1774   -0.0430   -4.7156 H   0  0  0  0  0  0  0  0  0  0  0  0
   -2.4810   -2.3353   -3.9701 H   0  0  0  0  0  0  0  0  0  0  0  0
   -2.7047   -2.9782   -1.5811 H   0  0  0  0  0  0  0  0  0  0  0  0
   -3.5968   -1.3825    0.0528 H   0  0  0  0  0  0  0  0  0  0  0  0
   -5.5394   -0.5594    1.3010 H   0  0  0  0  0  0  0  0  0  0  0  0
   -7.8857   -0.9444    1.6813 H   0  0  0  0  0  0  0  0  0  0  0  0
   -9.6266    0.2980    0.4653 H   0  0  0  0  0  0  0  0  0  0  0  0
   -9.5190    1.8337   -2.2050 H   0  0  0  0  0  0  0  0  0  0  0  0
   -6.5839    2.4455   -1.6413 H   0  0  0  0  0  0  0  0  0  0  0  0
   -2.2707    3.2140    3.9001 H   0  0  0  0  0  0  0  0  0  0  0  0
   -3.2496    2.6298    6.0669 H   0  0  0  0  0  0  0  0  0  0  0  0
   -3.5462    0.2896    6.7292 H   0  0  0  0  0  0  0  0  0  0  0  0
   -2.8159   -1.5157    5.1361 H   0  0  0  0  0  0  0  0  0  0  0  0
   -1.8380   -0.9744    2.9742 H   0  0  0  0  0  0  0  0  0  0  0  0
  1  2  1  0
  2  3  1  0
  3  4  1  0
  4  5  1  0
  5  6  1  0
  6  7  2  0
  6  8  1  0
  8  9  1  0
  8 10  1  0
 10 11  2  0
 11 12  1  0
 12 13  2  0
 13 14  1  0
 14 15  2  0
 14 16  1  0
 16 17  2  0
 16 18  1  0
 18 19  1  0
 19 20  1  0
 20 21  2  0
 20 22  1  0
 22 23  1  0
 23 24  1  0
 24 25  2  0
 25 26  1  0
 26 27  2  0
 27 28  1  0
 28 29  2  0
 23 30  1  0
 30 31  2  0
 31 32  1  0
 32 33  2  0
 33 34  1  0
 34 35  1  0
 34 36  2  0
 19 37  1  0
 37 38  2  0
 38 39  1  0
 39 40  2  0
 40 41  1  0
 41 42  2  0
 15 10  1  0
 29 24  1  0
 36 30  1  0
 42 37  1  0
  1 43  1  0
  1 44  1  0
  1 45  1  0
  3 46  1  0
  3 47  1  0
  4 48  1  0
  4 49  1  0
  5 50  1  0
  8 51  1  0
  9 52  1  0
 11 53  1  0
 12 54  1  0
 13 55  1  0
 15 56  1  0
 18 57  1  0
 19 58  1  1
 22 59  1  0
 23 60  1  6
 25 61  1  0
 26 62  1  0
 27 63  1  0
 28 64  1  0
 29 65  1  0
 31 66  1  0
 32 67  1  0
 33 68  1  0
 35 69  1  0
 36 70  1  0
 38 71  1  0
 39 72  1  0
 40 73  1  0
 41 74  1  0
 42 75  1  0
M  END
$$$$
[H]OC(=O)[C@@]([H])(N([H])[H])C([H])([H])c1c([H])c([H])c(-c2c([H])c([H])c([H])c3oc(C#N)nc23)c([H])c1[H]
     RDKit          3D

 36 38  0  0  0  0  0  0  0  0999 V2000
   -3.8669    0.2214   -1.3819 N   0  0  0  0  0  0  0  0  0  0  0  0
   -4.0104   -0.6628   -0.2453 C   0  0  1  0  0  0  0  0  0  0  0  0
   -3.1337   -0.2322    0.9119 C   0  0  0  0  0  0  0  0  0  0  0  0
   -1.7058   -0.2136    0.5840 C   0  0  0  0  0  0  0  0  0  0  0  0
   -1.0973    0.8992    0.0825 C   0  0  0  0  0  0  0  0  0  0  0  0
    0.2492    0.8904   -0.2182 C   0  0  0  0  0  0  0  0  0  0  0  0
    1.0176   -0.2504   -0.0178 C   0  0  0  0  0  0  0  0  0  0  0  0
    0.4092   -1.3845    0.4908 C   0  0  0  0  0  0  0  0  0  0  0  0
   -0.9560   -1.3527    0.7880 C   0  0  0  0  0  0  0  0  0  0  0  0
    2.4224   -0.3148   -0.3133 C   0  0  0  0  0  0  0  0  0  0  0  0
    2.9445   -1.3826   -0.9697 C   0  0  0  0  0  0  0  0  0  0  0  0
    4.2933   -1.4372   -1.2496 C   0  0  0  0  0  0  0  0  0  0  0  0
    5.1074   -0.4063   -0.8616 C   0  0  0  0  0  0  0  0  0  0  0  0
    4.6144    0.6825   -0.1997 C   0  0  0  0  0  0  0  0  0  0  0  0
    5.1305    1.7801    0.2787 O   0  0  0  0  0  0  0  0  0  0  0  0
    4.2232    2.5305    0.8406 C   0  0  0  0  0  0  0  0  0  0  0  0
    3.0532    1.8817    0.7190 N   0  0  0  0  0  0  0  0  0  0  0  0
    3.2484    0.7145    0.0716 C   0  0  0  0  0  0  0  0  0  0  0  0
    4.4650    3.8100    1.4654 C   0  0  0  0  0  0  0  0  0  0  0  0
    4.6776    4.8390    1.9601 N   0  0  0  0  0  0  0  0  0  0  0  0
   -5.4083   -0.6067    0.2177 C   0  0  0  0  0  0  0  0  0  0  0  0
   -5.8370   -1.3547    1.2962 O   0  0  0  0  0  0  0  0  0  0  0  0
   -6.2278    0.1279   -0.3696 O   0  0  0  0  0  0  0  0  0  0  0  0
   -3.8611    1.2057   -1.0697 H   0  0  0  0  0  0  0  0  0  0  0  0
   -4.6603    0.0817   -2.0354 H   0  0  0  0  0  0  0  0  0  0  0  0
   -3.7830   -1.7041   -0.5559 H   0  0  0  0  0  0  0  0  0  0  0  0
   -3.3571   -0.9368    1.7502 H   0  0  0  0  0  0  0  0  0  0  0  0
   -3.5241    0.7619    1.2557 H   0  0  0  0  0  0  0  0  0  0  0  0
   -1.6256    1.8368   -0.1055 H   0  0  0  0  0  0  0  0  0  0  0  0
    0.7479    1.7661   -0.6173 H   0  0  0  0  0  0  0  0  0  0  0  0
    0.9874   -2.2866    0.6558 H   0  0  0  0  0  0  0  0  0  0  0  0
   -1.3643   -2.2735    1.1816 H   0  0  0  0  0  0  0  0  0  0  0  0
    2.3085   -2.2169   -1.2879 H   0  0  0  0  0  0  0  0  0  0  0  0
    4.6681   -2.2975   -1.7698 H   0  0  0  0  0  0  0  0  0  0  0  0
    6.1498   -0.4562   -1.0820 H   0  0  0  0  0  0  0  0  0  0  0  0
   -6.2987   -2.2594    1.2001 H   0  0  0  0  0  0  0  0  0  0  0  0
  1  2  1  0
  2  3  1  0
  3  4  1  0
  4  5  2  0
  5  6  1  0
  6  7  2  0
  7  8  1  0
  8  9  2  0
  7 10  1  0
 10 11  2  0
 11 12  1  0
 12 13  2  0
 13 14  1  0
 14 15  1  0
 15 16  1  0
 16 17  2  0
 17 18  1  0
 16 19  1  0
 19 20  3  0
  2 21  1  0
 21 22  1  0
 21 23  2  0
  9  4  1  0
 18 10  1  0
 18 14  2  0
  1 24  1  0
  1 25  1  0
  2 26  1  6
  3 27  1  0
  3 28  1  0
  5 29  1  0
  6 30  1  0
  8 31  1  0
  9 32  1  0
 11 33  1  0
 12 34  1  0
 13 35  1  0
 22 36  1  0
M  END
$$$$
[H]c1nn([H])c([H])c1C(=O)N([H])c1c([H])nc(C([H])([H])[H])nc1[H]
     RDKit          3D

 24 25  0  0  0  0  0  0  0  0999 V2000
    5.1001    0.5352   -0.1429 C   0  0  0  0  0  0  0  0  0  0  0  0
    3.6017    0.4134   -0.1253 C   0  0  0  0  0  0  0  0  0  0  0  0
    2.9931   -0.3558    0.7813 N   0  0  0  0  0  0  0  0  0  0  0  0
    1.6256   -0.4708    0.8016 C   0  0  0  0  0  0  0  0  0  0  0  0
    0.8242    0.1836   -0.0891 C   0  0  0  0  0  0  0  0  0  0  0  0
   -0.5766    0.1239   -0.1554 N   0  0  0  0  0  0  0  0  0  0  0  0
   -1.4514   -0.6798    0.5761 C   0  0  0  0  0  0  0  0  0  0  0  0
   -1.0437   -1.4921    1.4290 O   0  0  0  0  0  0  0  0  0  0  0  0
   -2.9143   -0.6156    0.3831 C   0  0  0  0  0  0  0  0  0  0  0  0
   -3.9008   -1.3252    1.0100 C   0  0  0  0  0  0  0  0  0  0  0  0
   -5.0663   -0.9063    0.4864 N   0  0  0  0  0  0  0  0  0  0  0  0
   -4.8798    0.0230   -0.4317 N   0  0  0  0  0  0  0  0  0  0  0  0
   -3.5551    0.2138   -0.5073 C   0  0  0  0  0  0  0  0  0  0  0  0
    1.5013    0.9861   -1.0308 C   0  0  0  0  0  0  0  0  0  0  0  0
    2.8336    1.0644   -1.0083 N   0  0  0  0  0  0  0  0  0  0  0  0
    5.5623   -0.3513   -0.6301 H   0  0  0  0  0  0  0  0  0  0  0  0
    5.4412    0.6417    0.9107 H   0  0  0  0  0  0  0  0  0  0  0  0
    5.3609    1.4126   -0.7666 H   0  0  0  0  0  0  0  0  0  0  0  0
    1.1774   -1.0987    1.5543 H   0  0  0  0  0  0  0  0  0  0  0  0
   -1.0758    0.7758   -0.8552 H   0  0  0  0  0  0  0  0  0  0  0  0
   -3.7198   -2.0722    1.7771 H   0  0  0  0  0  0  0  0  0  0  0  0
   -5.6354    0.5173   -0.9951 H   0  0  0  0  0  0  0  0  0  0  0  0
   -3.1213    0.9383   -1.1977 H   0  0  0  0  0  0  0  0  0  0  0  0
    0.9188    1.5387   -1.7743 H   0  0  0  0  0  0  0  0  0  0  0  0
  1  2  1  0
  2  3  2  0
  3  4  1  0
  4  5  2  0
  5  6  1  0
  6  7  1  0
  7  8  2  0
  7  9  1  0
  9 10  1  0
 10 11  2  0
 11 12  1  0
 12 13  1  0
  5 14  1  0
 14 15  2  0
 15  2  1  0
 13  9  2  0
  1 16  1  0
  1 17  1  0
  1 18  1  0
  4 19  1  0
  6 20  1  0
 10 21  1  0
 12 22  1  0
 13 23  1  0
 14 24  1  0
M  END
$$$$
[H]c1nc([H])c(N([H])C(=O)c2c([H])c([H])c(C([H])([H])N3C([H])([H])C([H])([H])C([H])([H])[C@]3([H])C([H])(C([H])([H])[H])C([H])([H])[H])c([H])c2[H])c([H])c1[H]
     RDKit          3D

 49 51  0  0  0  0  0  0  0  0999 V2000
   -5.3685   -0.9121    0.0463 C   0  0  0  0  0  0  0  0  0  0  0  0
   -3.9986   -1.0337   -0.5737 C   0  0  0  0  0  0  0  0  0  0  0  0
   -4.1130   -1.4606   -2.0141 C   0  0  0  0  0  0  0  0  0  0  0  0
   -3.1989    0.2430   -0.4277 C   0  0  1  0  0  0  0  0  0  0  0  0
   -3.8913    1.4108   -1.0972 C   0  0  0  0  0  0  0  0  0  0  0  0
   -3.5550    2.5883   -0.1916 C   0  0  0  0  0  0  0  0  0  0  0  0
   -2.6847    2.0078    0.9246 C   0  0  0  0  0  0  0  0  0  0  0  0
   -2.9863    0.6169    0.9285 N   0  0  0  0  0  0  0  0  0  0  0  0
   -2.1100   -0.2307    1.6507 C   0  0  0  0  0  0  0  0  0  0  0  0
   -0.7387   -0.3474    1.1357 C   0  0  0  0  0  0  0  0  0  0  0  0
    0.1876    0.5847    1.5396 C   0  0  0  0  0  0  0  0  0  0  0  0
    1.4848    0.4612    1.0513 C   0  0  0  0  0  0  0  0  0  0  0  0
    1.8917   -0.5324    0.1941 C   0  0  0  0  0  0  0  0  0  0  0  0
    0.9171   -1.4608   -0.1923 C   0  0  0  0  0  0  0  0  0  0  0  0
   -0.3739   -1.3740    0.2669 C   0  0  0  0  0  0  0  0  0  0  0  0
    3.2638   -0.6567   -0.3078 C   0  0  0  0  0  0  0  0  0  0  0  0
    3.4249   -1.4095   -1.2784 O   0  0  0  0  0  0  0  0  0  0  0  0
    4.3228    0.0406    0.2854 N   0  0  0  0  0  0  0  0  0  0  0  0
    5.6853    0.0221   -0.0770 C   0  0  0  0  0  0  0  0  0  0  0  0
    6.2253   -0.9166   -0.9123 C   0  0  0  0  0  0  0  0  0  0  0  0
    7.5824   -0.8881   -1.2622 C   0  0  0  0  0  0  0  0  0  0  0  0
    8.3918    0.0971   -0.7607 C   0  0  0  0  0  0  0  0  0  0  0  0
    7.8515    1.0002    0.0492 N   0  0  0  0  0  0  0  0  0  0  0  0
    6.5645    1.0095    0.4073 C   0  0  0  0  0  0  0  0  0  0  0  0
   -6.1286   -0.5882   -0.7042 H   0  0  0  0  0  0  0  0  0  0  0  0
   -5.6895   -1.9244    0.3904 H   0  0  0  0  0  0  0  0  0  0  0  0
   -5.3526   -0.2739    0.9425 H   0  0  0  0  0  0  0  0  0  0  0  0
   -3.4712   -1.8384   -0.0252 H   0  0  0  0  0  0  0  0  0  0  0  0
   -5.1578   -1.3228   -2.3584 H   0  0  0  0  0  0  0  0  0  0  0  0
   -3.7277   -2.4781   -2.1953 H   0  0  0  0  0  0  0  0  0  0  0  0
   -3.4927   -0.7529   -2.6156 H   0  0  0  0  0  0  0  0  0  0  0  0
   -2.2277    0.0966   -0.9367 H   0  0  0  0  0  0  0  0  0  0  0  0
   -3.4784    1.5600   -2.1118 H   0  0  0  0  0  0  0  0  0  0  0  0
   -4.9835    1.2844   -1.1520 H   0  0  0  0  0  0  0  0  0  0  0  0
   -4.4870    3.0436    0.2212 H   0  0  0  0  0  0  0  0  0  0  0  0
   -3.0320    3.3697   -0.7593 H   0  0  0  0  0  0  0  0  0  0  0  0
   -1.6636    2.2932    0.6835 H   0  0  0  0  0  0  0  0  0  0  0  0
   -2.9844    2.4717    1.9078 H   0  0  0  0  0  0  0  0  0  0  0  0
   -2.5136   -1.2860    1.6881 H   0  0  0  0  0  0  0  0  0  0  0  0
   -2.0781    0.0586    2.7434 H   0  0  0  0  0  0  0  0  0  0  0  0
   -0.0438    1.4013    2.2128 H   0  0  0  0  0  0  0  0  0  0  0  0
    2.2375    1.2072    1.3649 H   0  0  0  0  0  0  0  0  0  0  0  0
    1.2232   -2.2587   -0.8745 H   0  0  0  0  0  0  0  0  0  0  0  0
   -1.0873   -2.1147   -0.0608 H   0  0  0  0  0  0  0  0  0  0  0  0
    4.1206    0.6795    1.1373 H   0  0  0  0  0  0  0  0  0  0  0  0
    5.6754   -1.7316   -1.3459 H   0  0  0  0  0  0  0  0  0  0  0  0
    7.9785   -1.6601   -1.9366 H   0  0  0  0  0  0  0  0  0  0  0  0
    9.4337    0.1316   -1.0200 H   0  0  0  0  0  0  0  0  0  0  0  0
    6.1561    1.7727    1.0777 H   0  0  0  0  0  0  0  0  0  0  0  0
  1  2  1  0
  2  3  1  0
  2  4  1  0
  4  5  1  0
  5  6  1  0
  6  7  1  0
  7  8  1  0
  8  9  1  0
  9 10  1  0
 10 11  2  0
 11 12  1  0
 12 13  2  0
 13 14  1  0
 14 15  2  0
 13 16  1  0
 16 17  2  0
 16 18  1  0
 18 19  1  0
 19 20  2  0
 20 21  1  0
 21 22  2  0
 22 23  1  0
 23 24  2  0
  8  4  1  0
 15 10  1  0
 24 19  1  0
  1 25  1  0
  1 26  1  0
  1 27  1  0
  2 28  1  0
  3 29  1  0
  3 30  1  0
  3 31  1  0
  4 32  1  6
  5 33  1  0
  5 34  1  0
  6 35  1  0
  6 36  1  0
  7 37  1  0
  7 38  1  0
  9 39  1  0
  9 40  1  0
 11 41  1  0
 12 42  1  0
 14 43  1  0
 15 44  1  0
 18 45  1  0
 20 46  1  0
 21 47  1  0
 22 48  1  0
 24 49  1  0
M  END
$$$$
[H]c1nn(C2([H])C([H])([H])C([H])([H])N(C([H])([H])[H])C([H])([H])C2([H])[H])c([H])c1-c1c([H])nc2c([H])c([H])c([H])c([H])n12
     RDKit          3D

 40 43  0  0  0  0  0  0  0  0999 V2000
    5.5403    1.6011    0.1508 C   0  0  0  0  0  0  0  0  0  0  0  0
    4.2866    1.1446    0.7711 N   0  0  0  0  0  0  0  0  0  0  0  0
    3.2217    1.6537   -0.0741 C   0  0  0  0  0  0  0  0  0  0  0  0
    1.8640    1.1903    0.3355 C   0  0  0  0  0  0  0  0  0  0  0  0
    1.9040   -0.2092    0.8652 C   0  0  0  0  0  0  0  0  0  0  0  0
    3.0839   -0.9154    0.2042 C   0  0  0  0  0  0  0  0  0  0  0  0
    4.3354   -0.2872    0.7973 C   0  0  0  0  0  0  0  0  0  0  0  0
    0.6737   -0.9213    0.5817 N   0  0  0  0  0  0  0  0  0  0  0  0
   -0.5823   -0.3856    0.4360 C   0  0  0  0  0  0  0  0  0  0  0  0
   -1.4526   -1.4055    0.1767 C   0  0  0  0  0  0  0  0  0  0  0  0
   -0.6767   -2.5702    0.1719 C   0  0  0  0  0  0  0  0  0  0  0  0
    0.5762   -2.2145    0.4185 N   0  0  0  0  0  0  0  0  0  0  0  0
   -2.8751   -1.3873   -0.0554 C   0  0  0  0  0  0  0  0  0  0  0  0
   -3.6337   -2.5351   -0.3108 C   0  0  0  0  0  0  0  0  0  0  0  0
   -4.9151   -2.2450   -0.4887 N   0  0  0  0  0  0  0  0  0  0  0  0
   -5.0189   -0.9105   -0.3540 C   0  0  0  0  0  0  0  0  0  0  0  0
   -6.1554   -0.1496   -0.4545 C   0  0  0  0  0  0  0  0  0  0  0  0
   -6.0138    1.2072   -0.2768 C   0  0  0  0  0  0  0  0  0  0  0  0
   -4.7817    1.7476   -0.0125 C   0  0  0  0  0  0  0  0  0  0  0  0
   -3.6634    0.9101    0.0763 C   0  0  0  0  0  0  0  0  0  0  0  0
   -3.7818   -0.4034   -0.0927 N   0  0  0  0  0  0  0  0  0  0  0  0
    5.4924    2.6882    0.0968 H   0  0  0  0  0  0  0  0  0  0  0  0
    5.5117    1.1619   -0.8857 H   0  0  0  0  0  0  0  0  0  0  0  0
    6.4195    1.1822    0.6373 H   0  0  0  0  0  0  0  0  0  0  0  0
    3.2485    2.7578    0.0054 H   0  0  0  0  0  0  0  0  0  0  0  0
    3.4654    1.4014   -1.1369 H   0  0  0  0  0  0  0  0  0  0  0  0
    1.2075    1.1722   -0.5785 H   0  0  0  0  0  0  0  0  0  0  0  0
    1.3722    1.8975    1.0608 H   0  0  0  0  0  0  0  0  0  0  0  0
    2.1056   -0.1930    1.9674 H   0  0  0  0  0  0  0  0  0  0  0  0
    2.9957   -0.7063   -0.8816 H   0  0  0  0  0  0  0  0  0  0  0  0
    3.0386   -1.9809    0.4283 H   0  0  0  0  0  0  0  0  0  0  0  0
    5.1983   -0.7109    0.2165 H   0  0  0  0  0  0  0  0  0  0  0  0
    4.4032   -0.6594    1.8466 H   0  0  0  0  0  0  0  0  0  0  0  0
   -0.7221    0.6593    0.5319 H   0  0  0  0  0  0  0  0  0  0  0  0
   -1.0812   -3.5773   -0.0093 H   0  0  0  0  0  0  0  0  0  0  0  0
   -3.2298   -3.5280   -0.3573 H   0  0  0  0  0  0  0  0  0  0  0  0
   -7.1359   -0.5377   -0.6600 H   0  0  0  0  0  0  0  0  0  0  0  0
   -6.8630    1.8893   -0.3390 H   0  0  0  0  0  0  0  0  0  0  0  0
   -4.6535    2.8110    0.1295 H   0  0  0  0  0  0  0  0  0  0  0  0
   -2.7086    1.3583    0.2844 H   0  0  0  0  0  0  0  0  0  0  0  0
  1  2  1  0
  2  3  1  0
  3  4  1  0
  4  5  1  0
  5  6  1  0
  6  7  1  0
  5  8  1  0
  8  9  1  0
  9 10  2  0
 10 11  1  0
 11 12  2  0
 10 13  1  0
 13 14  2  0
 14 15  1  0
 15 16  2  0
 16 17  1  0
 17 18  2  0
 18 19  1  0
 19 20  2  0
 20 21  1  0
  7  2  1  0
 12  8  1  0
 21 13  1  0
 21 16  1  0
  1 22  1  0
  1 23  1  0
  1 24  1  0
  3 25  1  0
  3 26  1  0
  4 27  1  0
  4 28  1  0
  5 29  1  0
  6 30  1  0
  6 31  1  0
  7 32  1  0
  7 33  1  0
  9 34  1  0
 11 35  1  0
 14 36  1  0
 17 37  1  0
 18 38  1  0
 19 39  1  0
 20 40  1  0
M  END
$$$$
[H]OC([H])([H])[C@@]1([H])C([H])([H])C([H])([H])OC([H])([H])[C@@]1([H])C([H])([H])N([H])c1nc([H])nc2c([H])c(Cl)c(-c3onc(C([H])([H])[H])c3[H])c([H])c12
     RDKit          3D

 48 51  0  0  0  0  0  0  0  0999 V2000
    5.9389    3.0084    1.4725 C   0  0  0  0  0  0  0  0  0  0  0  0
    5.6271    1.8407    0.5963 C   0  0  0  0  0  0  0  0  0  0  0  0
    6.4685    1.1837   -0.2159 N   0  0  0  0  0  0  0  0  0  0  0  0
    5.8434    0.2378   -0.8088 O   0  0  0  0  0  0  0  0  0  0  0  0
    4.5940    0.2047   -0.4443 C   0  0  0  0  0  0  0  0  0  0  0  0
    4.4029    1.2211    0.4635 C   0  0  0  0  0  0  0  0  0  0  0  0
    3.5657   -0.7319   -0.9029 C   0  0  0  0  0  0  0  0  0  0  0  0
    2.2629   -0.6543   -0.4294 C   0  0  0  0  0  0  0  0  0  0  0  0
    1.2993   -1.5501   -0.8742 C   0  0  0  0  0  0  0  0  0  0  0  0
    0.0074   -1.4747   -0.4065 C   0  0  0  0  0  0  0  0  0  0  0  0
   -0.4133   -0.5192    0.5473 N   0  0  0  0  0  0  0  0  0  0  0  0
   -1.7885   -0.4494    1.0076 C   0  0  0  0  0  0  0  0  0  0  0  0
   -2.7202    0.0069   -0.0819 C   0  0  2  0  0  0  0  0  0  0  0  0
   -2.2368    1.3928   -0.5052 C   0  0  0  0  0  0  0  0  0  0  0  0
   -3.2671    2.1612   -1.0022 O   0  0  0  0  0  0  0  0  0  0  0  0
   -4.1792    2.5492   -0.0375 C   0  0  0  0  0  0  0  0  0  0  0  0
   -4.1969    1.5368    1.1148 C   0  0  0  0  0  0  0  0  0  0  0  0
   -4.1272    0.1728    0.4641 C   0  0  2  0  0  0  0  0  0  0  0  0
   -4.4979   -0.9394    1.4112 C   0  0  0  0  0  0  0  0  0  0  0  0
   -4.4193   -2.1340    0.7111 O   0  0  0  0  0  0  0  0  0  0  0  0
   -0.8876   -2.3778   -0.8797 N   0  0  0  0  0  0  0  0  0  0  0  0
   -0.5715   -3.3242   -1.7684 C   0  0  0  0  0  0  0  0  0  0  0  0
    0.6833   -3.3756   -2.2044 N   0  0  0  0  0  0  0  0  0  0  0  0
    1.6324   -2.5125   -1.7816 C   0  0  0  0  0  0  0  0  0  0  0  0
    2.9354   -2.5940   -2.2584 C   0  0  0  0  0  0  0  0  0  0  0  0
    3.8740   -1.7126   -1.8177 C   0  0  0  0  0  0  0  0  0  0  0  0
    5.5249   -1.8165   -2.4223 Cl  0  0  0  0  0  0  0  0  0  0  0  0
    7.0357    3.0758    1.5464 H   0  0  0  0  0  0  0  0  0  0  0  0
    5.5552    3.9414    1.0443 H   0  0  0  0  0  0  0  0  0  0  0  0
    5.4563    2.8045    2.4526 H   0  0  0  0  0  0  0  0  0  0  0  0
    3.4898    1.4894    0.9739 H   0  0  0  0  0  0  0  0  0  0  0  0
    2.0583    0.1282    0.2866 H   0  0  0  0  0  0  0  0  0  0  0  0
    0.2813    0.1644    0.9419 H   0  0  0  0  0  0  0  0  0  0  0  0
   -2.0984   -1.4820    1.2822 H   0  0  0  0  0  0  0  0  0  0  0  0
   -1.8730    0.2498    1.8565 H   0  0  0  0  0  0  0  0  0  0  0  0
   -2.7379   -0.6863   -0.9134 H   0  0  0  0  0  0  0  0  0  0  0  0
   -1.5126    1.2237   -1.3293 H   0  0  0  0  0  0  0  0  0  0  0  0
   -1.6753    1.8858    0.3210 H   0  0  0  0  0  0  0  0  0  0  0  0
   -4.0592    3.5766    0.3169 H   0  0  0  0  0  0  0  0  0  0  0  0
   -5.2006    2.4780   -0.4963 H   0  0  0  0  0  0  0  0  0  0  0  0
   -3.2901    1.7535    1.7195 H   0  0  0  0  0  0  0  0  0  0  0  0
   -5.1262    1.6903    1.6791 H   0  0  0  0  0  0  0  0  0  0  0  0
   -4.8353    0.1700   -0.3794 H   0  0  0  0  0  0  0  0  0  0  0  0
   -3.9036   -0.9299    2.3371 H   0  0  0  0  0  0  0  0  0  0  0  0
   -5.5535   -0.7931    1.6953 H   0  0  0  0  0  0  0  0  0  0  0  0
   -5.2228   -2.6973    0.8161 H   0  0  0  0  0  0  0  0  0  0  0  0
   -1.3135   -4.0228   -2.1190 H   0  0  0  0  0  0  0  0  0  0  0  0
    3.1709   -3.3696   -2.9792 H   0  0  0  0  0  0  0  0  0  0  0  0
  1  2  1  0
  2  3  2  0
  3  4  1  0
  4  5  1  0
  5  6  2  0
  5  7  1  0
  7  8  2  0
  8  9  1  0
  9 10  2  0
 10 11  1  0
 11 12  1  0
 12 13  1  0
 13 14  1  0
 14 15  1  0
 15 16  1  0
 16 17  1  0
 17 18  1  0
 18 19  1  0
 19 20  1  0
 10 21  1  0
 21 22  2  0
 22 23  1  0
 23 24  2  0
 24 25  1  0
 25 26  2  0
 26 27  1  0
  6  2  1  0
 26  7  1  0
 24  9  1  0
 18 13  1  0
  1 28  1  0
  1 29  1  0
  1 30  1  0
  6 31  1  0
  8 32  1  0
 11 33  1  0
 12 34  1  0
 12 35  1  0
 13 36  1  6
 14 37  1  0
 14 38  1  0
 16 39  1  0
 16 40  1  0
 17 41  1  0
 17 42  1  0
 18 43  1  6
 19 44  1  0
 19 45  1  0
 20 46  1  0
 22 47  1  0
 25 48  1  0
M  END
$$$$
[H]c1nc(N(C([H])([H])[H])C([H])([H])[H])c2nc(C([H])([H])[H])n(C([H])([H])C(=O)c3c([H])c(OC([H])([H])[H])c([H])c(-c4c([H])c(Cl)c([H])c(C(=O)N([H])[C@@]5([H])C([H])([H])N(C([H])([H])[H])C([H])([H])C5([H])[H])c4[H])c3[H])c2n1
     RDKit          3D

 72 76  0  0  0  0  0  0  0  0999 V2000
    1.0827   -5.9622   -0.2108 C   0  0  0  0  0  0  0  0  0  0  0  0
   -0.0389   -5.1050   -0.2864 O   0  0  0  0  0  0  0  0  0  0  0  0
    0.2261   -3.7245   -0.3836 C   0  0  0  0  0  0  0  0  0  0  0  0
    1.5117   -3.2336   -0.4037 C   0  0  0  0  0  0  0  0  0  0  0  0
    1.7758   -1.8837   -0.4986 C   0  0  0  0  0  0  0  0  0  0  0  0
    0.7146   -1.0128   -0.5749 C   0  0  0  0  0  0  0  0  0  0  0  0
   -0.5831   -1.4649   -0.5577 C   0  0  0  0  0  0  0  0  0  0  0  0
   -0.8102   -2.8129   -0.4623 C   0  0  0  0  0  0  0  0  0  0  0  0
   -1.6820   -0.4940   -0.6469 C   0  0  0  0  0  0  0  0  0  0  0  0
   -1.4933    0.6575   -1.3748 C   0  0  0  0  0  0  0  0  0  0  0  0
   -2.5018    1.6159   -1.4888 C   0  0  0  0  0  0  0  0  0  0  0  0
   -2.1641    3.0656   -2.4472 Cl  0  0  0  0  0  0  0  0  0  0  0  0
   -3.7159    1.4301   -0.8719 C   0  0  0  0  0  0  0  0  0  0  0  0
   -3.9232    0.2867   -0.1407 C   0  0  0  0  0  0  0  0  0  0  0  0
   -2.8964   -0.6657   -0.0378 C   0  0  0  0  0  0  0  0  0  0  0  0
   -5.1841   -0.0077    0.5530 C   0  0  0  0  0  0  0  0  0  0  0  0
   -5.1757   -0.9191    1.4258 O   0  0  0  0  0  0  0  0  0  0  0  0
   -6.3327    0.7250    0.2232 N   0  0  0  0  0  0  0  0  0  0  0  0
   -7.6259    0.5133    0.8545 C   0  0  2  0  0  0  0  0  0  0  0  0
   -8.5780   -0.0169   -0.1963 C   0  0  0  0  0  0  0  0  0  0  0  0
   -9.4908    1.1287   -0.5408 C   0  0  0  0  0  0  0  0  0  0  0  0
   -9.2144    2.2066    0.3469 N   0  0  0  0  0  0  0  0  0  0  0  0
  -10.3687    2.8576    0.8935 C   0  0  0  0  0  0  0  0  0  0  0  0
   -8.2685    1.7614    1.3405 C   0  0  0  0  0  0  0  0  0  0  0  0
    3.1342   -1.3606   -0.5168 C   0  0  0  0  0  0  0  0  0  0  0  0
    4.0914   -2.1433   -0.4475 O   0  0  0  0  0  0  0  0  0  0  0  0
    3.3462    0.0878   -0.6165 C   0  0  0  0  0  0  0  0  0  0  0  0
    4.7562    0.3648   -0.5931 N   0  0  0  0  0  0  0  0  0  0  0  0
    5.6391    0.4507   -1.5930 C   0  0  0  0  0  0  0  0  0  0  0  0
    5.2957    0.2518   -3.0220 C   0  0  0  0  0  0  0  0  0  0  0  0
    6.8598    0.7396   -1.0997 N   0  0  0  0  0  0  0  0  0  0  0  0
    6.7663    0.8425    0.2439 C   0  0  0  0  0  0  0  0  0  0  0  0
    7.6970    1.1185    1.2324 C   0  0  0  0  0  0  0  0  0  0  0  0
    7.2349    1.1419    2.5084 N   0  0  0  0  0  0  0  0  0  0  0  0
    5.9391    0.9105    2.8179 C   0  0  0  0  0  0  0  0  0  0  0  0
    5.0592    0.6444    1.8268 N   0  0  0  0  0  0  0  0  0  0  0  0
    5.4465    0.6055    0.5431 C   0  0  0  0  0  0  0  0  0  0  0  0
    9.0521    1.3625    0.9201 N   0  0  0  0  0  0  0  0  0  0  0  0
    9.8171    0.3425    0.2513 C   0  0  0  0  0  0  0  0  0  0  0  0
    9.6834    2.6115    1.2575 C   0  0  0  0  0  0  0  0  0  0  0  0
    0.7976   -7.0176   -0.0671 H   0  0  0  0  0  0  0  0  0  0  0  0
    1.6531   -5.8913   -1.1813 H   0  0  0  0  0  0  0  0  0  0  0  0
    1.7890   -5.6654    0.5822 H   0  0  0  0  0  0  0  0  0  0  0  0
    2.3623   -3.9179   -0.3439 H   0  0  0  0  0  0  0  0  0  0  0  0
    0.8836    0.0763   -0.6513 H   0  0  0  0  0  0  0  0  0  0  0  0
   -1.8283   -3.1508   -0.4499 H   0  0  0  0  0  0  0  0  0  0  0  0
   -0.5577    0.8358   -1.8707 H   0  0  0  0  0  0  0  0  0  0  0  0
   -4.4934    2.1628   -0.9528 H   0  0  0  0  0  0  0  0  0  0  0  0
   -3.0418   -1.5768    0.5364 H   0  0  0  0  0  0  0  0  0  0  0  0
   -6.3016    1.4576   -0.4996 H   0  0  0  0  0  0  0  0  0  0  0  0
   -7.4941   -0.2525    1.6365 H   0  0  0  0  0  0  0  0  0  0  0  0
   -8.0212   -0.4186   -1.0521 H   0  0  0  0  0  0  0  0  0  0  0  0
   -9.1788   -0.8402    0.2585 H   0  0  0  0  0  0  0  0  0  0  0  0
   -9.2248    1.4504   -1.5776 H   0  0  0  0  0  0  0  0  0  0  0  0
  -10.5540    0.8340   -0.5548 H   0  0  0  0  0  0  0  0  0  0  0  0
  -10.2438    3.2356    1.9169 H   0  0  0  0  0  0  0  0  0  0  0  0
  -11.2684    2.1927    0.8046 H   0  0  0  0  0  0  0  0  0  0  0  0
  -10.5966    3.7580    0.2502 H   0  0  0  0  0  0  0  0  0  0  0  0
   -8.7344    1.6410    2.3414 H   0  0  0  0  0  0  0  0  0  0  0  0
   -7.5160    2.5701    1.4440 H   0  0  0  0  0  0  0  0  0  0  0  0
    2.8655    0.5815    0.2633 H   0  0  0  0  0  0  0  0  0  0  0  0
    2.8819    0.5120   -1.5479 H   0  0  0  0  0  0  0  0  0  0  0  0
    4.5552   -0.5947   -3.1244 H   0  0  0  0  0  0  0  0  0  0  0  0
    6.2084   -0.0426   -3.5981 H   0  0  0  0  0  0  0  0  0  0  0  0
    4.9062    1.1908   -3.4409 H   0  0  0  0  0  0  0  0  0  0  0  0
    5.5656    0.9275    3.8277 H   0  0  0  0  0  0  0  0  0  0  0  0
   10.9202    0.4699    0.4068 H   0  0  0  0  0  0  0  0  0  0  0  0
    9.5243   -0.6681    0.6401 H   0  0  0  0  0  0  0  0  0  0  0  0
    9.6111    0.4039   -0.8468 H   0  0  0  0  0  0  0  0  0  0  0  0
    9.2259    3.4128    0.6411 H   0  0  0  0  0  0  0  0  0  0  0  0
   10.7595    2.5699    1.0803 H   0  0  0  0  0  0  0  0  0  0  0  0
    9.4646    2.8378    2.3405 H   0  0  0  0  0  0  0  0  0  0  0  0
  1  2  1  0
  2  3  1  0
  3  4  2  0
  4  5  1  0
  5  6  2  0
  6  7  1  0
  7  8  2  0
  7  9  1  0
  9 10  2  0
 10 11  1  0
 11 12  1  0
 11 13  2  0
 13 14  1  0
 14 15  2  0
 14 16  1  0
 16 17  2  0
 16 18  1  0
 18 19  1  0
 19 20  1  0
 20 21  1  0
 21 22  1  0
 22 23  1  0
 22 24  1  0
  5 25  1  0
 25 26  2  0
 25 27  1  0
 27 28  1  0
 28 29  1  0
 29 30  1  0
 29 31  2  0
 31 32  1  0
 32 33  2  0
 33 34  1  0
 34 35  2  0
 35 36  1  0
 36 37  2  0
 33 38  1  0
 38 39  1  0
 38 40  1  0
  8  3  1  0
 15  9  1  0
 24 19  1  0
 37 28  1  0
 37 32  1  0
  1 41  1  0
  1 42  1  0
  1 43  1  0
  4 44  1  0
  6 45  1  0
  8 46  1  0
 10 47  1  0
 13 48  1  0
 15 49  1  0
 18 50  1  0
 19 51  1  1
 20 52  1  0
 20 53  1  0
 21 54  1  0
 21 55  1  0
 23 56  1  0
 23 57  1  0
 23 58  1  0
 24 59  1  0
 24 60  1  0
 27 61  1  0
 27 62  1  0
 30 63  1  0
 30 64  1  0
 30 65  1  0
 35 66  1  0
 39 67  1  0
 39 68  1  0
 39 69  1  0
 40 70  1  0
 40 71  1  0
 40 72  1  0
M  END
$$$$
[H]Oc1c([H])c([H])c([H])c([C@@]([H])(N(C(=O)N2C([H])([H])c3c([H])c([H])c([H])c([H])c3C([H])([H])C2([H])C(=O)N([H])C([H])([H])c2c([H])c([H])c([H])c([H])c2[H])C([H])([H])[H])C([H])([H])N2C([H])([H])C([H])([H])[C@]([H])(C([H])([H])N=C([H])[H])C2([H])[H])c1[H]
     RDKit          3D

 80 84  0  0  0  0  0  0  0  0999 V2000
   -1.3111    0.2022    1.5381 C   0  0  0  0  0  0  0  0  0  0  0  0
   -0.7720    0.5940    0.2745 N   0  0  0  0  0  0  0  0  0  0  0  0
   -1.4358    1.5851   -0.5743 C   0  0  1  0  0  0  0  0  0  0  0  0
   -2.5832    1.1746   -1.3727 C   0  0  0  0  0  0  0  0  0  0  0  0
   -3.7852    0.6529   -0.8868 N   0  0  0  0  0  0  0  0  0  0  0  0
   -4.7278    0.7030   -2.0485 C   0  0  0  0  0  0  0  0  0  0  0  0
   -5.8609   -0.1900   -1.5845 C   0  0  0  0  0  0  0  0  0  0  0  0
   -5.0377   -1.3839   -1.1008 C   0  0  2  0  0  0  0  0  0  0  0  0
   -5.8548   -2.1268   -0.0935 C   0  0  0  0  0  0  0  0  0  0  0  0
   -7.0772   -2.5803   -0.6928 N   0  0  0  0  0  0  0  0  0  0  0  0
   -7.4035   -3.8146   -0.6865 C   0  0  0  0  0  0  0  0  0  0  0  0
   -3.8047   -0.7391   -0.4990 C   0  0  0  0  0  0  0  0  0  0  0  0
   -1.5457    2.9032    0.0844 C   0  0  0  0  0  0  0  0  0  0  0  0
   -2.7119    3.6590   -0.0169 C   0  0  0  0  0  0  0  0  0  0  0  0
   -2.8188    4.8830    0.5993 C   0  0  0  0  0  0  0  0  0  0  0  0
   -1.7514    5.3853    1.3388 C   0  0  0  0  0  0  0  0  0  0  0  0
   -0.5913    4.6545    1.4511 C   0  0  0  0  0  0  0  0  0  0  0  0
    0.4463    5.1735    2.1883 O   0  0  0  0  0  0  0  0  0  0  0  0
   -0.5051    3.4302    0.8254 C   0  0  0  0  0  0  0  0  0  0  0  0
    0.4707    0.0402   -0.1242 C   0  0  0  0  0  0  0  0  0  0  0  0
    0.8863    0.5114   -1.2927 O   0  0  0  0  0  0  0  0  0  0  0  0
    1.3293   -0.8748    0.4350 N   0  0  0  0  0  0  0  0  0  0  0  0
    1.2264   -1.5918    1.6529 C   0  0  0  0  0  0  0  0  0  0  0  0
    0.8989   -3.0143    1.2326 C   0  0  0  0  0  0  0  0  0  0  0  0
   -0.1147   -3.7253    1.7842 C   0  0  0  0  0  0  0  0  0  0  0  0
   -0.3341   -5.0183    1.3152 C   0  0  0  0  0  0  0  0  0  0  0  0
    0.4685   -5.5370    0.3198 C   0  0  0  0  0  0  0  0  0  0  0  0
    1.4951   -4.8031   -0.2309 C   0  0  0  0  0  0  0  0  0  0  0  0
    1.6986   -3.5156    0.2497 C   0  0  0  0  0  0  0  0  0  0  0  0
    2.7930   -2.7207   -0.3214 C   0  0  0  0  0  0  0  0  0  0  0  0
    2.5686   -1.2303   -0.3294 C   0  0  0  0  0  0  0  0  0  0  0  0
    3.7522   -0.5870    0.2826 C   0  0  0  0  0  0  0  0  0  0  0  0
    3.6050    0.1815    1.2610 O   0  0  0  0  0  0  0  0  0  0  0  0
    5.0515   -0.8212   -0.2110 N   0  0  0  0  0  0  0  0  0  0  0  0
    6.2511   -0.2565    0.3137 C   0  0  0  0  0  0  0  0  0  0  0  0
    6.4978    1.1562   -0.0212 C   0  0  0  0  0  0  0  0  0  0  0  0
    6.2322    2.1332    0.9041 C   0  0  0  0  0  0  0  0  0  0  0  0
    6.4467    3.4635    0.6510 C   0  0  0  0  0  0  0  0  0  0  0  0
    6.9474    3.8520   -0.5719 C   0  0  0  0  0  0  0  0  0  0  0  0
    7.2249    2.8936   -1.5232 C   0  0  0  0  0  0  0  0  0  0  0  0
    6.9980    1.5598   -1.2402 C   0  0  0  0  0  0  0  0  0  0  0  0
   -1.4818   -0.8765    1.5828 H   0  0  0  0  0  0  0  0  0  0  0  0
   -2.2982    0.6725    1.7633 H   0  0  0  0  0  0  0  0  0  0  0  0
   -0.6267    0.6168    2.3209 H   0  0  0  0  0  0  0  0  0  0  0  0
   -0.6451    1.7686   -1.4033 H   0  0  0  0  0  0  0  0  0  0  0  0
   -2.8181    2.0287   -2.0851 H   0  0  0  0  0  0  0  0  0  0  0  0
   -2.1908    0.3918   -2.1199 H   0  0  0  0  0  0  0  0  0  0  0  0
   -5.0199    1.7176   -2.2882 H   0  0  0  0  0  0  0  0  0  0  0  0
   -4.2044    0.1696   -2.8652 H   0  0  0  0  0  0  0  0  0  0  0  0
   -6.5119   -0.5112   -2.4140 H   0  0  0  0  0  0  0  0  0  0  0  0
   -6.3681    0.3225   -0.7680 H   0  0  0  0  0  0  0  0  0  0  0  0
   -4.7542   -1.9787   -1.9721 H   0  0  0  0  0  0  0  0  0  0  0  0
   -5.2999   -2.9876    0.3585 H   0  0  0  0  0  0  0  0  0  0  0  0
   -6.1472   -1.4990    0.7711 H   0  0  0  0  0  0  0  0  0  0  0  0
   -8.3295   -4.1175   -1.1464 H   0  0  0  0  0  0  0  0  0  0  0  0
   -6.7395   -4.5283   -0.2177 H   0  0  0  0  0  0  0  0  0  0  0  0
   -2.8935   -1.2887   -0.6918 H   0  0  0  0  0  0  0  0  0  0  0  0
   -4.0149   -0.7580    0.6126 H   0  0  0  0  0  0  0  0  0  0  0  0
   -3.5065    3.2229   -0.6027 H   0  0  0  0  0  0  0  0  0  0  0  0
   -3.7443    5.4256    0.4856 H   0  0  0  0  0  0  0  0  0  0  0  0
   -1.9054    6.3548    1.7982 H   0  0  0  0  0  0  0  0  0  0  0  0
    0.5473    4.9976    3.1820 H   0  0  0  0  0  0  0  0  0  0  0  0
    0.4394    2.8829    0.9436 H   0  0  0  0  0  0  0  0  0  0  0  0
    0.6158   -1.2575    2.4581 H   0  0  0  0  0  0  0  0  0  0  0  0
    2.2904   -1.6558    2.0952 H   0  0  0  0  0  0  0  0  0  0  0  0
   -0.7526   -3.3054    2.5804 H   0  0  0  0  0  0  0  0  0  0  0  0
   -1.1372   -5.6085    1.7407 H   0  0  0  0  0  0  0  0  0  0  0  0
    0.3121   -6.5497   -0.0602 H   0  0  0  0  0  0  0  0  0  0  0  0
    2.1226   -5.2200   -1.0182 H   0  0  0  0  0  0  0  0  0  0  0  0
    3.0217   -3.1040   -1.3533 H   0  0  0  0  0  0  0  0  0  0  0  0
    3.7123   -3.0033    0.2744 H   0  0  0  0  0  0  0  0  0  0  0  0
    2.4581   -0.9056   -1.3840 H   0  0  0  0  0  0  0  0  0  0  0  0
    5.1560   -1.4701   -1.0421 H   0  0  0  0  0  0  0  0  0  0  0  0
    7.1561   -0.8204   -0.0407 H   0  0  0  0  0  0  0  0  0  0  0  0
    6.2777   -0.3981    1.4277 H   0  0  0  0  0  0  0  0  0  0  0  0
    5.8440    1.8766    1.8711 H   0  0  0  0  0  0  0  0  0  0  0  0
    6.2284    4.2103    1.4016 H   0  0  0  0  0  0  0  0  0  0  0  0
    7.1200    4.8881   -0.7763 H   0  0  0  0  0  0  0  0  0  0  0  0
    7.6146    3.2411   -2.4606 H   0  0  0  0  0  0  0  0  0  0  0  0
    7.2116    0.7943   -1.9819 H   0  0  0  0  0  0  0  0  0  0  0  0
  1  2  1  0
  2  3  1  0
  3  4  1  0
  4  5  1  0
  5  6  1  0
  6  7  1  0
  7  8  1  0
  8  9  1  0
  9 10  1  0
 10 11  2  3
  8 12  1  0
  3 13  1  0
 13 14  2  0
 14 15  1  0
 15 16  2  0
 16 17  1  0
 17 18  1  0
 17 19  2  0
  2 20  1  0
 20 21  2  0
 20 22  1  0
 22 23  1  0
 23 24  1  0
 24 25  2  0
 25 26  1  0
 26 27  2  0
 27 28  1  0
 28 29  2  0
 29 30  1  0
 30 31  1  0
 31 32  1  0
 32 33  2  0
 32 34  1  0
 34 35  1  0
 35 36  1  0
 36 37  2  0
 37 38  1  0
 38 39  2  0
 39 40  1  0
 40 41  2  0
 12  5  1  0
 19 13  1  0
 31 22  1  0
 41 36  1  0
 29 24  1  0
  1 42  1  0
  1 43  1  0
  1 44  1  0
  3 45  1  6
  4 46  1  0
  4 47  1  0
  6 48  1  0
  6 49  1  0
  7 50  1  0
  7 51  1  0
  8 52  1  6
  9 53  1  0
  9 54  1  0
 11 55  1  0
 11 56  1  0
 12 57  1  0
 12 58  1  0
 14 59  1  0
 15 60  1  0
 16 61  1  0
 18 62  1  0
 19 63  1  0
 23 64  1  0
 23 65  1  0
 25 66  1  0
 26 67  1  0
 27 68  1  0
 28 69  1  0
 30 70  1  0
 30 71  1  0
 31 72  1  0
 34 73  1  0
 35 74  1  0
 35 75  1  0
 37 76  1  0
 38 77  1  0
 39 78  1  0
 40 79  1  0
 41 80  1  0
M  END
$$$$
[H]c1c([H])c(C([H])([H])n2c([H])nc3c(N(C([H])([H])[H])C([H])([H])[H])nc(N([H])[H])nc32)c([H])c([H])c1OC(F)(F)F
     RDKit          3D

 40 42  0  0  0  0  0  0  0  0999 V2000
   -4.7572    1.5930   -1.3911 C   0  0  0  0  0  0  0  0  0  0  0  0
   -3.9120    1.6957   -0.2256 N   0  0  0  0  0  0  0  0  0  0  0  0
   -3.9543    2.9022    0.5707 C   0  0  0  0  0  0  0  0  0  0  0  0
   -3.0242    0.6493    0.1844 C   0  0  0  0  0  0  0  0  0  0  0  0
   -3.1330    0.0580    1.3832 N   0  0  0  0  0  0  0  0  0  0  0  0
   -2.3314   -0.9294    1.8271 C   0  0  0  0  0  0  0  0  0  0  0  0
   -2.5303   -1.4904    3.1162 N   0  0  0  0  0  0  0  0  0  0  0  0
   -1.3556   -1.3459    1.0040 N   0  0  0  0  0  0  0  0  0  0  0  0
   -1.1932   -0.7948   -0.2101 C   0  0  0  0  0  0  0  0  0  0  0  0
   -0.2901   -1.0550   -1.1915 N   0  0  0  0  0  0  0  0  0  0  0  0
    0.7386   -2.0544   -1.0830 C   0  0  0  0  0  0  0  0  0  0  0  0
    2.0021   -1.5703   -0.5250 C   0  0  0  0  0  0  0  0  0  0  0  0
    2.2492   -1.6426    0.8216 C   0  0  0  0  0  0  0  0  0  0  0  0
    3.4621   -1.1752    1.3528 C   0  0  0  0  0  0  0  0  0  0  0  0
    4.4055   -0.6415    0.5087 C   0  0  0  0  0  0  0  0  0  0  0  0
    5.5897   -0.1871    1.0421 O   0  0  0  0  0  0  0  0  0  0  0  0
    5.7230    1.1735    1.4775 C   0  0  0  0  0  0  0  0  0  0  0  0
    6.9897    1.3921    1.9714 F   0  0  0  0  0  0  0  0  0  0  0  0
    5.5234    1.9396    0.3261 F   0  0  0  0  0  0  0  0  0  0  0  0
    4.8254    1.4598    2.4596 F   0  0  0  0  0  0  0  0  0  0  0  0
    4.1743   -0.5617   -0.8411 C   0  0  0  0  0  0  0  0  0  0  0  0
    2.9653   -1.0314   -1.3432 C   0  0  0  0  0  0  0  0  0  0  0  0
   -0.5755   -0.2210   -2.1885 C   0  0  0  0  0  0  0  0  0  0  0  0
   -1.6323    0.5586   -1.8660 N   0  0  0  0  0  0  0  0  0  0  0  0
   -2.0099    0.1998   -0.6426 C   0  0  0  0  0  0  0  0  0  0  0  0
   -5.7871    1.9595   -1.2074 H   0  0  0  0  0  0  0  0  0  0  0  0
   -4.3728    2.2004   -2.2473 H   0  0  0  0  0  0  0  0  0  0  0  0
   -4.8285    0.5271   -1.6855 H   0  0  0  0  0  0  0  0  0  0  0  0
   -2.9561    3.1230    1.0351 H   0  0  0  0  0  0  0  0  0  0  0  0
   -4.2064    3.7666   -0.0968 H   0  0  0  0  0  0  0  0  0  0  0  0
   -4.7581    2.8509    1.3202 H   0  0  0  0  0  0  0  0  0  0  0  0
   -1.7396   -1.5193    3.7781 H   0  0  0  0  0  0  0  0  0  0  0  0
   -3.4460   -1.8684    3.4034 H   0  0  0  0  0  0  0  0  0  0  0  0
    0.3143   -2.9030   -0.4669 H   0  0  0  0  0  0  0  0  0  0  0  0
    0.8716   -2.5154   -2.1024 H   0  0  0  0  0  0  0  0  0  0  0  0
    1.5496   -2.0522    1.5374 H   0  0  0  0  0  0  0  0  0  0  0  0
    3.6651   -1.2282    2.4123 H   0  0  0  0  0  0  0  0  0  0  0  0
    4.9465   -0.1345   -1.4612 H   0  0  0  0  0  0  0  0  0  0  0  0
    2.8300   -0.9468   -2.4132 H   0  0  0  0  0  0  0  0  0  0  0  0
   -0.0319   -0.1809   -3.1213 H   0  0  0  0  0  0  0  0  0  0  0  0
  1  2  1  0
  2  3  1  0
  2  4  1  0
  4  5  2  0
  5  6  1  0
  6  7  1  0
  6  8  2  0
  8  9  1  0
  9 10  1  0
 10 11  1  0
 11 12  1  0
 12 13  2  0
 13 14  1  0
 14 15  2  0
 15 16  1  0
 16 17  1  0
 17 18  1  0
 17 19  1  0
 17 20  1  0
 15 21  1  0
 21 22  2  0
 10 23  1  0
 23 24  2  0
 24 25  1  0
 25  4  1  0
 25  9  2  0
 22 12  1  0
  1 26  1  0
  1 27  1  0
  1 28  1  0
  3 29  1  0
  3 30  1  0
  3 31  1  0
  7 32  1  0
  7 33  1  0
 11 34  1  0
 11 35  1  0
 13 36  1  0
 14 37  1  0
 21 38  1  0
 22 39  1  0
 23 40  1  0
M  END
$$$$
[H]c1nc2c(nc(-c3c([H])c([H])c(-c4nc(N(C([H])([H])[H])C5([H])C([H])([H])C([H])([H])OC([H])([H])C5([H])[H])c(OC([H])([H])C([H])([H])N5C([H])([H])C([H])([H])OC([H])([H])C5([H])[H])c([H])c4[H])c([H])c3[H])n2[H])c(C([H])([H])[H])c1[H]
     RDKit          3D

 75 80  0  0  0  0  0  0  0  0999 V2000
   -2.6915   -2.4757    1.3427 C   0  0  0  0  0  0  0  0  0  0  0  0
   -1.8728   -2.0943    0.2166 N   0  0  0  0  0  0  0  0  0  0  0  0
   -1.6050   -2.9777   -0.8906 C   0  0  0  0  0  0  0  0  0  0  0  0
   -2.8612   -3.4278   -1.6100 C   0  0  0  0  0  0  0  0  0  0  0  0
   -2.4643   -4.6051   -2.4784 C   0  0  0  0  0  0  0  0  0  0  0  0
   -2.1767   -5.7406   -1.7232 O   0  0  0  0  0  0  0  0  0  0  0  0
   -1.7451   -5.4292   -0.4379 C   0  0  0  0  0  0  0  0  0  0  0  0
   -0.8422   -4.2161   -0.4832 C   0  0  0  0  0  0  0  0  0  0  0  0
   -1.3118   -0.7787    0.2212 C   0  0  0  0  0  0  0  0  0  0  0  0
    0.0166   -0.5878    0.2026 N   0  0  0  0  0  0  0  0  0  0  0  0
    0.5932    0.6442    0.2080 C   0  0  0  0  0  0  0  0  0  0  0  0
   -0.2792    1.7018    0.2340 C   0  0  0  0  0  0  0  0  0  0  0  0
   -1.6723    1.5489    0.2540 C   0  0  0  0  0  0  0  0  0  0  0  0
   -2.1938    0.2748    0.2474 C   0  0  0  0  0  0  0  0  0  0  0  0
   -3.5691    0.0797    0.2669 O   0  0  0  0  0  0  0  0  0  0  0  0
   -4.4625    1.1819    0.2935 C   0  0  0  0  0  0  0  0  0  0  0  0
   -5.8993    0.7315    0.3165 C   0  0  0  0  0  0  0  0  0  0  0  0
   -6.7905    1.8408    0.3422 N   0  0  0  0  0  0  0  0  0  0  0  0
   -6.7857    2.6180    1.5335 C   0  0  0  0  0  0  0  0  0  0  0  0
   -6.3642    4.0573    1.2334 C   0  0  0  0  0  0  0  0  0  0  0  0
   -7.2811    4.6772    0.3902 O   0  0  0  0  0  0  0  0  0  0  0  0
   -7.8309    3.7894   -0.5310 C   0  0  0  0  0  0  0  0  0  0  0  0
   -6.8138    2.6727   -0.8115 C   0  0  0  0  0  0  0  0  0  0  0  0
    2.0301    0.8072    0.1895 C   0  0  0  0  0  0  0  0  0  0  0  0
    2.8316   -0.3373    0.1588 C   0  0  0  0  0  0  0  0  0  0  0  0
    4.2101   -0.2432    0.1441 C   0  0  0  0  0  0  0  0  0  0  0  0
    4.8301    0.9870    0.1597 C   0  0  0  0  0  0  0  0  0  0  0  0
    4.0587    2.1163    0.1895 C   0  0  0  0  0  0  0  0  0  0  0  0
    2.6600    2.0182    0.2042 C   0  0  0  0  0  0  0  0  0  0  0  0
    6.2897    1.0597    0.1462 C   0  0  0  0  0  0  0  0  0  0  0  0
    7.1479    0.0141    0.1084 N   0  0  0  0  0  0  0  0  0  0  0  0
    8.4200    0.4449    0.1064 C   0  0  0  0  0  0  0  0  0  0  0  0
    9.6477   -0.1811    0.0768 C   0  0  0  0  0  0  0  0  0  0  0  0
    9.6357   -1.6758    0.0328 C   0  0  0  0  0  0  0  0  0  0  0  0
   10.8387    0.5284    0.0844 C   0  0  0  0  0  0  0  0  0  0  0  0
   10.7426    1.9229    0.1238 C   0  0  0  0  0  0  0  0  0  0  0  0
    9.5361    2.5148    0.1520 N   0  0  0  0  0  0  0  0  0  0  0  0
    8.3740    1.8340    0.1448 C   0  0  0  0  0  0  0  0  0  0  0  0
    7.0739    2.1499    0.1674 N   0  0  0  0  0  0  0  0  0  0  0  0
   -2.9287   -1.5937    1.9668 H   0  0  0  0  0  0  0  0  0  0  0  0
   -2.2228   -3.2533    1.9788 H   0  0  0  0  0  0  0  0  0  0  0  0
   -3.6279   -2.9147    0.9398 H   0  0  0  0  0  0  0  0  0  0  0  0
   -0.9854   -2.4545   -1.6488 H   0  0  0  0  0  0  0  0  0  0  0  0
   -3.6835   -3.6936   -0.9419 H   0  0  0  0  0  0  0  0  0  0  0  0
   -3.1922   -2.6266   -2.2985 H   0  0  0  0  0  0  0  0  0  0  0  0
   -1.5736   -4.3560   -3.0652 H   0  0  0  0  0  0  0  0  0  0  0  0
   -3.2804   -4.8950   -3.1877 H   0  0  0  0  0  0  0  0  0  0  0  0
   -1.1806   -6.2692   -0.0321 H   0  0  0  0  0  0  0  0  0  0  0  0
   -2.6415   -5.2661    0.1820 H   0  0  0  0  0  0  0  0  0  0  0  0
   -0.0141   -4.4482   -1.1745 H   0  0  0  0  0  0  0  0  0  0  0  0
   -0.4149   -4.0420    0.5069 H   0  0  0  0  0  0  0  0  0  0  0  0
    0.0943    2.7152    0.2395 H   0  0  0  0  0  0  0  0  0  0  0  0
   -2.3305    2.4181    0.2742 H   0  0  0  0  0  0  0  0  0  0  0  0
   -4.3143    1.8641   -0.5636 H   0  0  0  0  0  0  0  0  0  0  0  0
   -4.2850    1.7034    1.2701 H   0  0  0  0  0  0  0  0  0  0  0  0
   -6.0452    0.1822    1.2914 H   0  0  0  0  0  0  0  0  0  0  0  0
   -6.1013    0.0134   -0.4805 H   0  0  0  0  0  0  0  0  0  0  0  0
   -6.0738    2.1920    2.2576 H   0  0  0  0  0  0  0  0  0  0  0  0
   -7.7981    2.6417    1.9705 H   0  0  0  0  0  0  0  0  0  0  0  0
   -6.4097    4.5948    2.2039 H   0  0  0  0  0  0  0  0  0  0  0  0
   -5.3275    4.1156    0.8785 H   0  0  0  0  0  0  0  0  0  0  0  0
   -8.6995    3.3041   -0.0359 H   0  0  0  0  0  0  0  0  0  0  0  0
   -8.1194    4.2653   -1.4709 H   0  0  0  0  0  0  0  0  0  0  0  0
   -5.8772    3.1853   -1.0584 H   0  0  0  0  0  0  0  0  0  0  0  0
   -7.2119    2.0707   -1.6542 H   0  0  0  0  0  0  0  0  0  0  0  0
    2.3384   -1.2934    0.1471 H   0  0  0  0  0  0  0  0  0  0  0  0
    4.8367   -1.1422    0.1207 H   0  0  0  0  0  0  0  0  0  0  0  0
    4.5328    3.0806    0.2014 H   0  0  0  0  0  0  0  0  0  0  0  0
    2.0701    2.9221    0.2279 H   0  0  0  0  0  0  0  0  0  0  0  0
    8.9069   -2.1073    0.7501 H   0  0  0  0  0  0  0  0  0  0  0  0
    9.3157   -1.9402   -1.0012 H   0  0  0  0  0  0  0  0  0  0  0  0
   10.6505   -2.0599    0.2039 H   0  0  0  0  0  0  0  0  0  0  0  0
   11.7788    0.0305    0.0608 H   0  0  0  0  0  0  0  0  0  0  0  0
   11.6818    2.4842    0.1308 H   0  0  0  0  0  0  0  0  0  0  0  0
    6.7094    3.1278    0.1981 H   0  0  0  0  0  0  0  0  0  0  0  0
  1  2  1  0
  2  3  1  0
  3  4  1  0
  4  5  1  0
  5  6  1  0
  6  7  1  0
  7  8  1  0
  2  9  1  0
  9 10  2  0
 10 11  1  0
 11 12  2  0
 12 13  1  0
 13 14  2  0
 14 15  1  0
 15 16  1  0
 16 17  1  0
 17 18  1  0
 18 19  1  0
 19 20  1  0
 20 21  1  0
 21 22  1  0
 22 23  1  0
 11 24  1  0
 24 25  2  0
 25 26  1  0
 26 27  2  0
 27 28  1  0
 28 29  2  0
 27 30  1  0
 30 31  2  0
 31 32  1  0
 32 33  2  0
 33 34  1  0
 33 35  1  0
 35 36  2  0
 36 37  1  0
 37 38  2  0
 38 39  1  0
  8  3  1  0
 14  9  1  0
 23 18  1  0
 29 24  1  0
 39 30  1  0
 38 32  1  0
  1 40  1  0
  1 41  1  0
  1 42  1  0
  3 43  1  0
  4 44  1  0
  4 45  1  0
  5 46  1  0
  5 47  1  0
  7 48  1  0
  7 49  1  0
  8 50  1  0
  8 51  1  0
 12 52  1  0
 13 53  1  0
 16 54  1  0
 16 55  1  0
 17 56  1  0
 17 57  1  0
 19 58  1  0
 19 59  1  0
 20 60  1  0
 20 61  1  0
 22 62  1  0
 22 63  1  0
 23 64  1  0
 23 65  1  0
 25 66  1  0
 26 67  1  0
 28 68  1  0
 29 69  1  0
 34 70  1  0
 34 71  1  0
 34 72  1  0
 35 73  1  0
 36 74  1  0
 39 75  1  0
M  END
$$$$
[H]c1nc([H])n(-c2nc(-c3c([H])c([H])c([H])c(C(F)(F)F)c3[H])n3nc(N([H])C([H])(N4C([H])([H])C([H])([H])C([H])([H])C4([H])[H])C([H])([H])[H])nc3c2[H])c1[H]
     RDKit          3D

 53 57  0  0  0  0  0  0  0  0999 V2000
    3.6931    1.7236    2.5821 C   0  0  0  0  0  0  0  0  0  0  0  0
    3.1968    0.6492    1.5735 C   0  0  0  0  0  0  0  0  0  0  0  0
    1.9365    1.1898    1.1073 N   0  0  0  0  0  0  0  0  0  0  0  0
    0.8416    0.3701    0.7471 C   0  0  0  0  0  0  0  0  0  0  0  0
    0.7351   -0.9573    0.7821 N   0  0  0  0  0  0  0  0  0  0  0  0
   -0.4972   -1.3147    0.3269 C   0  0  0  0  0  0  0  0  0  0  0  0
   -1.1193   -2.5120    0.1465 C   0  0  0  0  0  0  0  0  0  0  0  0
   -2.3871   -2.5609   -0.3503 C   0  0  0  0  0  0  0  0  0  0  0  0
   -2.9904   -1.4228   -0.6479 N   0  0  0  0  0  0  0  0  0  0  0  0
   -2.4034   -0.2107   -0.4810 C   0  0  0  0  0  0  0  0  0  0  0  0
   -1.1720   -0.1713    0.0007 N   0  0  0  0  0  0  0  0  0  0  0  0
   -0.3365    0.7992    0.2681 N   0  0  0  0  0  0  0  0  0  0  0  0
   -3.1658    0.9711   -0.8537 C   0  0  0  0  0  0  0  0  0  0  0  0
   -4.4327    0.7738   -1.4046 C   0  0  0  0  0  0  0  0  0  0  0  0
   -5.2542    1.7976   -1.7922 C   0  0  0  0  0  0  0  0  0  0  0  0
   -4.8020    3.0996   -1.6270 C   0  0  0  0  0  0  0  0  0  0  0  0
   -3.5633    3.3358   -1.0892 C   0  0  0  0  0  0  0  0  0  0  0  0
   -2.7561    2.2583   -0.7069 C   0  0  0  0  0  0  0  0  0  0  0  0
   -3.0843    4.7338   -0.9168 C   0  0  0  0  0  0  0  0  0  0  0  0
   -2.8755    4.9377    0.4158 F   0  0  0  0  0  0  0  0  0  0  0  0
   -1.8588    4.9003   -1.5640 F   0  0  0  0  0  0  0  0  0  0  0  0
   -4.0040    5.6345   -1.3877 F   0  0  0  0  0  0  0  0  0  0  0  0
   -3.0485   -3.8140   -0.5536 N   0  0  0  0  0  0  0  0  0  0  0  0
   -2.4811   -5.0199   -0.4163 C   0  0  0  0  0  0  0  0  0  0  0  0
   -3.4124   -6.0037   -0.6946 C   0  0  0  0  0  0  0  0  0  0  0  0
   -4.5428   -5.3427   -0.9998 N   0  0  0  0  0  0  0  0  0  0  0  0
   -4.3254   -4.0092   -0.9150 C   0  0  0  0  0  0  0  0  0  0  0  0
    4.1178    0.5953    0.4883 N   0  0  0  0  0  0  0  0  0  0  0  0
    5.4792    0.2291    0.8690 C   0  0  0  0  0  0  0  0  0  0  0  0
    6.1591    0.2343   -0.5047 C   0  0  0  0  0  0  0  0  0  0  0  0
    5.1295   -0.4007   -1.3935 C   0  0  0  0  0  0  0  0  0  0  0  0
    3.8084   -0.1785   -0.6524 C   0  0  0  0  0  0  0  0  0  0  0  0
    3.7596    2.7043    2.1038 H   0  0  0  0  0  0  0  0  0  0  0  0
    2.8970    1.7687    3.3519 H   0  0  0  0  0  0  0  0  0  0  0  0
    4.6104    1.3759    3.0924 H   0  0  0  0  0  0  0  0  0  0  0  0
    3.0874   -0.2789    2.1482 H   0  0  0  0  0  0  0  0  0  0  0  0
    1.8292    2.2510    1.0276 H   0  0  0  0  0  0  0  0  0  0  0  0
   -0.6136   -3.4173    0.3934 H   0  0  0  0  0  0  0  0  0  0  0  0
   -4.8050   -0.2581   -1.5401 H   0  0  0  0  0  0  0  0  0  0  0  0
   -6.2333    1.6180   -2.2210 H   0  0  0  0  0  0  0  0  0  0  0  0
   -5.4470    3.9329   -1.9293 H   0  0  0  0  0  0  0  0  0  0  0  0
   -1.8108    2.5072   -0.2951 H   0  0  0  0  0  0  0  0  0  0  0  0
   -1.4535   -5.1907   -0.1304 H   0  0  0  0  0  0  0  0  0  0  0  0
   -3.2278   -7.0803   -0.6633 H   0  0  0  0  0  0  0  0  0  0  0  0
   -5.0135   -3.1971   -1.0941 H   0  0  0  0  0  0  0  0  0  0  0  0
    5.5603   -0.7397    1.3631 H   0  0  0  0  0  0  0  0  0  0  0  0
    5.9022    1.0882    1.4223 H   0  0  0  0  0  0  0  0  0  0  0  0
    6.3934    1.2686   -0.8222 H   0  0  0  0  0  0  0  0  0  0  0  0
    7.0276   -0.4146   -0.4159 H   0  0  0  0  0  0  0  0  0  0  0  0
    5.3580   -1.5083   -1.4551 H   0  0  0  0  0  0  0  0  0  0  0  0
    5.1094    0.0061   -2.4190 H   0  0  0  0  0  0  0  0  0  0  0  0
    3.3209   -1.1580   -0.4738 H   0  0  0  0  0  0  0  0  0  0  0  0
    3.1649    0.4076   -1.3293 H   0  0  0  0  0  0  0  0  0  0  0  0
  1  2  1  0
  2  3  1  0
  3  4  1  0
  4  5  1  0
  5  6  2  0
  6  7  1  0
  7  8  2  0
  8  9  1  0
  9 10  2  0
 10 11  1  0
 11 12  1  0
 10 13  1  0
 13 14  2  0
 14 15  1  0
 15 16  2  0
 16 17  1  0
 17 18  2  0
 17 19  1  0
 19 20  1  0
 19 21  1  0
 19 22  1  0
  8 23  1  0
 23 24  1  0
 24 25  2  0
 25 26  1  0
 26 27  2  0
  2 28  1  0
 28 29  1  0
 29 30  1  0
 30 31  1  0
 31 32  1  0
 12  4  2  0
 18 13  1  0
 27 23  1  0
 32 28  1  0
 11  6  1  0
  1 33  1  0
  1 34  1  0
  1 35  1  0
  2 36  1  0
  3 37  1  0
  7 38  1  0
 14 39  1  0
 15 40  1  0
 16 41  1  0
 18 42  1  0
 24 43  1  0
 25 44  1  0
 27 45  1  0
 29 46  1  0
 29 47  1  0
 30 48  1  0
 30 49  1  0
 31 50  1  0
 31 51  1  0
 32 52  1  0
 32 53  1  0
M  END
$$$$
[H]c1nc([H])c([H])c(-c2c([H])sc3nc(-c4c([H])c([H])c([H])c([H])c4[H])nc(-c4c([H])nc(N([H])[H])c([H])c4[H])c23)c1[H]
     RDKit          3D

 43 47  0  0  0  0  0  0  0  0999 V2000
   -2.4886    4.5149    0.8037 N   0  0  0  0  0  0  0  0  0  0  0  0
   -1.8697    3.2752    0.4888 C   0  0  0  0  0  0  0  0  0  0  0  0
   -2.1185    2.5849   -0.6703 C   0  0  0  0  0  0  0  0  0  0  0  0
   -1.4860    1.3970   -0.9067 C   0  0  0  0  0  0  0  0  0  0  0  0
   -0.6076    0.8837   -0.0052 C   0  0  0  0  0  0  0  0  0  0  0  0
   -0.3785    1.6168    1.1677 C   0  0  0  0  0  0  0  0  0  0  0  0
   -0.9981    2.7714    1.3893 N   0  0  0  0  0  0  0  0  0  0  0  0
    0.1649   -0.3347   -0.1197 C   0  0  0  0  0  0  0  0  0  0  0  0
    1.5054   -0.0695   -0.1132 N   0  0  0  0  0  0  0  0  0  0  0  0
    2.4732   -0.9600   -0.2484 C   0  0  0  0  0  0  0  0  0  0  0  0
    2.0550   -2.2283   -0.4039 N   0  0  0  0  0  0  0  0  0  0  0  0
    0.7442   -2.5492   -0.4155 C   0  0  0  0  0  0  0  0  0  0  0  0
   -0.0620   -4.0391   -0.5865 S   0  0  0  0  0  0  0  0  0  0  0  0
   -1.6549   -3.5148   -0.4731 C   0  0  0  0  0  0  0  0  0  0  0  0
   -1.5294   -2.1210   -0.2950 C   0  0  0  0  0  0  0  0  0  0  0  0
   -2.8457   -1.4839   -0.0328 C   0  0  0  0  0  0  0  0  0  0  0  0
   -3.1101   -0.9954    1.2078 C   0  0  0  0  0  0  0  0  0  0  0  0
   -4.3305   -0.4496    1.5381 C   0  0  0  0  0  0  0  0  0  0  0  0
   -5.2671   -0.4163    0.5743 N   0  0  0  0  0  0  0  0  0  0  0  0
   -5.0481   -0.8890   -0.6684 C   0  0  0  0  0  0  0  0  0  0  0  0
   -3.8080   -1.4439   -1.0050 C   0  0  0  0  0  0  0  0  0  0  0  0
   -0.2879   -1.6271   -0.2718 C   0  0  0  0  0  0  0  0  0  0  0  0
    3.8876   -0.6023   -0.2311 C   0  0  0  0  0  0  0  0  0  0  0  0
    4.1999    0.7318   -0.0647 C   0  0  0  0  0  0  0  0  0  0  0  0
    5.5081    1.1919   -0.0319 C   0  0  0  0  0  0  0  0  0  0  0  0
    6.5028    0.2465   -0.1746 C   0  0  0  0  0  0  0  0  0  0  0  0
    6.1872   -1.0886   -0.3411 C   0  0  0  0  0  0  0  0  0  0  0  0
    4.8872   -1.5352   -0.3723 C   0  0  0  0  0  0  0  0  0  0  0  0
   -3.1141    4.5787    1.6419 H   0  0  0  0  0  0  0  0  0  0  0  0
   -2.3257    5.3553    0.2107 H   0  0  0  0  0  0  0  0  0  0  0  0
   -2.8330    3.0165   -1.3885 H   0  0  0  0  0  0  0  0  0  0  0  0
   -1.6755    0.8482   -1.8147 H   0  0  0  0  0  0  0  0  0  0  0  0
    0.3226    1.2474    1.9307 H   0  0  0  0  0  0  0  0  0  0  0  0
   -2.6043   -4.0874   -0.5223 H   0  0  0  0  0  0  0  0  0  0  0  0
   -2.3307   -1.0322    1.9812 H   0  0  0  0  0  0  0  0  0  0  0  0
   -4.4771   -0.0785    2.5425 H   0  0  0  0  0  0  0  0  0  0  0  0
   -5.8569   -0.8226   -1.3817 H   0  0  0  0  0  0  0  0  0  0  0  0
   -3.6258   -1.8193   -1.9822 H   0  0  0  0  0  0  0  0  0  0  0  0
    3.4113    1.4905    0.0497 H   0  0  0  0  0  0  0  0  0  0  0  0
    5.7683    2.2298    0.0972 H   0  0  0  0  0  0  0  0  0  0  0  0
    7.5385    0.5759   -0.1532 H   0  0  0  0  0  0  0  0  0  0  0  0
    6.9854   -1.8100   -0.4508 H   0  0  0  0  0  0  0  0  0  0  0  0
    4.5921   -2.5586   -0.4988 H   0  0  0  0  0  0  0  0  0  0  0  0
  1  2  1  0
  2  3  2  0
  3  4  1  0
  4  5  2  0
  5  6  1  0
  6  7  2  0
  5  8  1  0
  8  9  2  0
  9 10  1  0
 10 11  2  0
 11 12  1  0
 12 13  1  0
 13 14  1  0
 14 15  2  0
 15 16  1  0
 16 17  2  0
 17 18  1  0
 18 19  2  0
 19 20  1  0
 20 21  2  0
 15 22  1  0
 10 23  1  0
 23 24  2  0
 24 25  1  0
 25 26  2  0
 26 27  1  0
 27 28  2  0
  7  2  1  0
 22  8  1  0
 28 23  1  0
 22 12  2  0
 21 16  1  0
  1 29  1  0
  1 30  1  0
  3 31  1  0
  4 32  1  0
  6 33  1  0
 14 34  1  0
 17 35  1  0
 18 36  1  0
 20 37  1  0
 21 38  1  0
 24 39  1  0
 25 40  1  0
 26 41  1  0
 27 42  1  0
 28 43  1  0
M  END
$$$$
[H]C#CC([H])([H])C([H])([H])C([H])([H])Oc1c([H])c(-n2nc([H])c3c([H])c(N([H])C(=O)N([H])c4c([H])nc([H])nc4[H])nc([H])c32)c([H])c([H])c1OC([H])([H])[H]
     RDKit          3D

 54 57  0  0  0  0  0  0  0  0999 V2000
    6.4768   -2.2346   -0.8939 C   0  0  0  0  0  0  0  0  0  0  0  0
    5.6503   -1.1146   -0.6155 O   0  0  0  0  0  0  0  0  0  0  0  0
    4.4346   -1.3610    0.0343 C   0  0  0  0  0  0  0  0  0  0  0  0
    4.0409   -2.6314    0.3956 C   0  0  0  0  0  0  0  0  0  0  0  0
    2.8265   -2.8363    1.0395 C   0  0  0  0  0  0  0  0  0  0  0  0
    1.9758   -1.7922    1.3400 C   0  0  0  0  0  0  0  0  0  0  0  0
    2.3852   -0.5282    0.9715 C   0  0  0  0  0  0  0  0  0  0  0  0
    3.5920   -0.3019    0.3288 C   0  0  0  0  0  0  0  0  0  0  0  0
    3.9664    0.9895   -0.0256 O   0  0  0  0  0  0  0  0  0  0  0  0
    3.1057    2.0727    0.2733 C   0  0  0  0  0  0  0  0  0  0  0  0
    3.6949    3.3885   -0.1949 C   0  0  0  0  0  0  0  0  0  0  0  0
    5.0313    3.6518    0.4851 C   0  0  0  0  0  0  0  0  0  0  0  0
    5.5651    4.9235    0.0100 C   0  0  0  0  0  0  0  0  0  0  0  0
    6.0258    5.9747   -0.3741 C   0  0  0  0  0  0  0  0  0  0  0  0
    0.7303   -2.0415    2.0044 N   0  0  0  0  0  0  0  0  0  0  0  0
    0.5434   -2.6140    3.1865 N   0  0  0  0  0  0  0  0  0  0  0  0
   -0.7392   -2.6943    3.5095 C   0  0  0  0  0  0  0  0  0  0  0  0
   -1.4411   -2.1316    2.4585 C   0  0  0  0  0  0  0  0  0  0  0  0
   -2.7780   -1.9138    2.1836 C   0  0  0  0  0  0  0  0  0  0  0  0
   -3.2023   -1.3116    1.0174 C   0  0  0  0  0  0  0  0  0  0  0  0
   -4.5803   -1.1040    0.7594 N   0  0  0  0  0  0  0  0  0  0  0  0
   -5.0366   -0.4709   -0.4521 C   0  0  0  0  0  0  0  0  0  0  0  0
   -4.1259   -0.1257   -1.2351 O   0  0  0  0  0  0  0  0  0  0  0  0
   -6.3988   -0.2954   -0.6581 N   0  0  0  0  0  0  0  0  0  0  0  0
   -6.9877    0.3013   -1.7686 C   0  0  0  0  0  0  0  0  0  0  0  0
   -8.3681    0.1272   -2.0035 C   0  0  0  0  0  0  0  0  0  0  0  0
   -8.9938    0.6921   -3.0461 N   0  0  0  0  0  0  0  0  0  0  0  0
   -8.3318    1.4572   -3.9245 C   0  0  0  0  0  0  0  0  0  0  0  0
   -7.0233    1.6451   -3.7345 N   0  0  0  0  0  0  0  0  0  0  0  0
   -6.3480    1.0876   -2.6846 C   0  0  0  0  0  0  0  0  0  0  0  0
   -2.2330   -0.9463    0.1576 N   0  0  0  0  0  0  0  0  0  0  0  0
   -0.9207   -1.1376    0.3815 C   0  0  0  0  0  0  0  0  0  0  0  0
   -0.4920   -1.7389    1.5453 C   0  0  0  0  0  0  0  0  0  0  0  0
    7.4157   -1.8880   -1.3674 H   0  0  0  0  0  0  0  0  0  0  0  0
    6.7808   -2.7460    0.0570 H   0  0  0  0  0  0  0  0  0  0  0  0
    5.9570   -2.9744   -1.5271 H   0  0  0  0  0  0  0  0  0  0  0  0
    4.6819   -3.4790    0.1766 H   0  0  0  0  0  0  0  0  0  0  0  0
    2.5118   -3.8284    1.3254 H   0  0  0  0  0  0  0  0  0  0  0  0
    1.7582    0.3264    1.1822 H   0  0  0  0  0  0  0  0  0  0  0  0
    2.1625    1.9093   -0.3000 H   0  0  0  0  0  0  0  0  0  0  0  0
    2.9161    2.1261    1.3626 H   0  0  0  0  0  0  0  0  0  0  0  0
    3.8507    3.3943   -1.2822 H   0  0  0  0  0  0  0  0  0  0  0  0
    3.0339    4.2347    0.0665 H   0  0  0  0  0  0  0  0  0  0  0  0
    4.9522    3.6933    1.5763 H   0  0  0  0  0  0  0  0  0  0  0  0
    5.7661    2.8362    0.2423 H   0  0  0  0  0  0  0  0  0  0  0  0
    6.4329    6.9136   -0.6976 H   0  0  0  0  0  0  0  0  0  0  0  0
   -1.2342   -3.0941    4.3810 H   0  0  0  0  0  0  0  0  0  0  0  0
   -3.4994   -2.2316    2.9166 H   0  0  0  0  0  0  0  0  0  0  0  0
   -5.2907   -1.4090    1.4424 H   0  0  0  0  0  0  0  0  0  0  0  0
   -7.0597   -0.6463    0.1070 H   0  0  0  0  0  0  0  0  0  0  0  0
   -8.8846   -0.4929   -1.2864 H   0  0  0  0  0  0  0  0  0  0  0  0
   -8.8660    1.9111   -4.7736 H   0  0  0  0  0  0  0  0  0  0  0  0
   -5.2782    1.2945   -2.5852 H   0  0  0  0  0  0  0  0  0  0  0  0
   -0.1511   -0.8353   -0.3256 H   0  0  0  0  0  0  0  0  0  0  0  0
  1  2  1  0
  2  3  1  0
  3  4  2  0
  4  5  1  0
  5  6  2  0
  6  7  1  0
  7  8  2  0
  8  9  1  0
  9 10  1  0
 10 11  1  0
 11 12  1  0
 12 13  1  0
 13 14  3  0
  6 15  1  0
 15 16  1  0
 16 17  2  0
 17 18  1  0
 18 19  2  0
 19 20  1  0
 20 21  1  0
 21 22  1  0
 22 23  2  0
 22 24  1  0
 24 25  1  0
 25 26  2  0
 26 27  1  0
 27 28  2  0
 28 29  1  0
 29 30  2  0
 20 31  2  0
 31 32  1  0
 32 33  2  0
  8  3  1  0
 33 15  1  0
 33 18  1  0
 30 25  1  0
  1 34  1  0
  1 35  1  0
  1 36  1  0
  4 37  1  0
  5 38  1  0
  7 39  1  0
 10 40  1  0
 10 41  1  0
 11 42  1  0
 11 43  1  0
 12 44  1  0
 12 45  1  0
 14 46  1  0
 17 47  1  0
 19 48  1  0
 21 49  1  0
 24 50  1  0
 26 51  1  0
 28 52  1  0
 30 53  1  0
 32 54  1  0
M  END
$$$$
[H]/C(=C(/[H])c1c([H])c(Cl)c(Cl)c([H])c1C(=O)N([H])c1nc([H])c([H])c([H])c1N([H])C(=O)C([H])([H])[H])c1c([H])c([H])c(Cl)c(Cl)c1[H]
     RDKit          3D

 46 48  0  0  0  0  0  0  0  0999 V2000
   -1.4045    1.1401    3.8059 C   0  0  0  0  0  0  0  0  0  0  0  0
   -2.5421    1.9882    3.2653 C   0  0  0  0  0  0  0  0  0  0  0  0
   -3.0062    2.7508    4.2254 O   0  0  0  0  0  0  0  0  0  0  0  0
   -3.0008    1.9568    2.0311 N   0  0  0  0  0  0  0  0  0  0  0  0
   -3.5047    1.9369    0.7175 C   0  0  0  0  0  0  0  0  0  0  0  0
   -4.8333    2.0089    0.3899 C   0  0  0  0  0  0  0  0  0  0  0  0
   -5.2280    1.7691   -0.9168 C   0  0  0  0  0  0  0  0  0  0  0  0
   -4.2963    1.4685   -1.8487 C   0  0  0  0  0  0  0  0  0  0  0  0
   -2.9956    1.4041   -1.5143 N   0  0  0  0  0  0  0  0  0  0  0  0
   -2.5523    1.6243   -0.2828 C   0  0  0  0  0  0  0  0  0  0  0  0
   -1.1716    1.6621    0.0075 N   0  0  0  0  0  0  0  0  0  0  0  0
   -0.1674    1.3989   -0.9563 C   0  0  0  0  0  0  0  0  0  0  0  0
   -0.3889    1.0171   -2.1293 O   0  0  0  0  0  0  0  0  0  0  0  0
    1.2431    1.6027   -0.5643 C   0  0  0  0  0  0  0  0  0  0  0  0
    1.5421    2.9497   -0.2529 C   0  0  0  0  0  0  0  0  0  0  0  0
    2.8073    3.2619    0.1970 C   0  0  0  0  0  0  0  0  0  0  0  0
    3.2160    4.9350    0.6017 Cl  0  0  0  0  0  0  0  0  0  0  0  0
    3.7221    2.2571    0.3259 C   0  0  0  0  0  0  0  0  0  0  0  0
    5.3219    2.7026    0.9047 Cl  0  0  0  0  0  0  0  0  0  0  0  0
    3.4137    0.9333    0.0132 C   0  0  0  0  0  0  0  0  0  0  0  0
    2.1294    0.5917   -0.4493 C   0  0  0  0  0  0  0  0  0  0  0  0
    1.7845   -0.7722   -0.8601 C   0  0  0  0  0  0  0  0  0  0  0  0
    2.5982   -1.7921   -0.6767 C   0  0  0  0  0  0  0  0  0  0  0  0
    2.3096   -3.1758   -1.0734 C   0  0  0  0  0  0  0  0  0  0  0  0
    1.1922   -3.5603   -1.7935 C   0  0  0  0  0  0  0  0  0  0  0  0
    0.9373   -4.8427   -2.1508 C   0  0  0  0  0  0  0  0  0  0  0  0
    1.8013   -5.8611   -1.8063 C   0  0  0  0  0  0  0  0  0  0  0  0
    1.4897   -7.5246   -2.2633 Cl  0  0  0  0  0  0  0  0  0  0  0  0
    2.9335   -5.4983   -1.0800 C   0  0  0  0  0  0  0  0  0  0  0  0
    4.0399   -6.7762   -0.6231 Cl  0  0  0  0  0  0  0  0  0  0  0  0
    3.2033   -4.1950   -0.7105 C   0  0  0  0  0  0  0  0  0  0  0  0
   -0.5858    1.0174    3.0934 H   0  0  0  0  0  0  0  0  0  0  0  0
   -1.8019    0.1115    4.0719 H   0  0  0  0  0  0  0  0  0  0  0  0
   -1.0447    1.5918    4.7317 H   0  0  0  0  0  0  0  0  0  0  0  0
   -3.8035    3.0594    2.2417 H   0  0  0  0  0  0  0  0  0  0  0  0
   -5.6117    2.2527    1.1184 H   0  0  0  0  0  0  0  0  0  0  0  0
   -6.2794    1.8347   -1.1608 H   0  0  0  0  0  0  0  0  0  0  0  0
   -4.5636    1.2735   -2.8561 H   0  0  0  0  0  0  0  0  0  0  0  0
   -0.8852    1.9636    0.9548 H   0  0  0  0  0  0  0  0  0  0  0  0
    0.7994    3.7125   -0.3565 H   0  0  0  0  0  0  0  0  0  0  0  0
    4.1648    0.1684    0.1203 H   0  0  0  0  0  0  0  0  0  0  0  0
    0.8384   -0.9879   -1.3381 H   0  0  0  0  0  0  0  0  0  0  0  0
    3.5798   -1.6121   -0.1940 H   0  0  0  0  0  0  0  0  0  0  0  0
    0.4747   -2.7905   -2.0901 H   0  0  0  0  0  0  0  0  0  0  0  0
    0.0375   -5.0559   -2.7227 H   0  0  0  0  0  0  0  0  0  0  0  0
    4.0877   -3.9006   -0.1466 H   0  0  0  0  0  0  0  0  0  0  0  0
  1  2  1  0
  2  3  2  0
  2  4  1  0
  4  5  1  0
  5  6  2  0
  6  7  1  0
  7  8  2  0
  8  9  1  0
  9 10  2  0
 10 11  1  0
 11 12  1  0
 12 13  2  0
 12 14  1  0
 14 15  2  0
 15 16  1  0
 16 17  1  0
 16 18  2  0
 18 19  1  0
 18 20  1  0
 20 21  2  0
 21 22  1  0
 22 23  2  0
 23 24  1  0
 24 25  2  0
 25 26  1  0
 26 27  2  0
 27 28  1  0
 27 29  1  0
 29 30  1  0
 29 31  2  0
 10  5  1  0
 21 14  1  0
 31 24  1  0
  1 32  1  0
  1 33  1  0
  1 34  1  0
  4 35  1  0
  6 36  1  0
  7 37  1  0
  8 38  1  0
 11 39  1  0
 15 40  1  0
 20 41  1  0
 22 42  1  0
 23 43  1  0
 25 44  1  0
 26 45  1  0
 31 46  1  0
M  END
$$$$
[H]c1nc([H])c(C(=O)N([H])c2c([H])c([H])c(Br)c([H])c2C(=O)N([H])c2c([H])c([H])c([H])c([H])c2[H])c([H])c1[H]
     RDKit          3D

 39 41  0  0  0  0  0  0  0  0999 V2000
   -3.7832   -1.1415    0.9650 O   0  0  0  0  0  0  0  0  0  0  0  0
   -3.0921   -0.2975    0.3610 C   0  0  0  0  0  0  0  0  0  0  0  0
   -1.8046   -0.5775   -0.1044 N   0  0  0  0  0  0  0  0  0  0  0  0
   -1.1537   -1.8125    0.0320 C   0  0  0  0  0  0  0  0  0  0  0  0
   -1.9345   -2.9771    0.0843 C   0  0  0  0  0  0  0  0  0  0  0  0
   -1.3148   -4.2058    0.0861 C   0  0  0  0  0  0  0  0  0  0  0  0
    0.0420   -4.3306    0.0373 C   0  0  0  0  0  0  0  0  0  0  0  0
    0.8262   -6.0600    0.0414 Br  0  0  0  0  0  0  0  0  0  0  0  0
    0.7905   -3.1598   -0.0134 C   0  0  0  0  0  0  0  0  0  0  0  0
    0.2272   -1.8988   -0.0158 C   0  0  0  0  0  0  0  0  0  0  0  0
    1.0496   -0.6978    0.0267 C   0  0  0  0  0  0  0  0  0  0  0  0
    0.6012    0.4498    0.1648 O   0  0  0  0  0  0  0  0  0  0  0  0
    2.4837   -0.8420   -0.1005 N   0  0  0  0  0  0  0  0  0  0  0  0
    3.3795    0.2581   -0.0829 C   0  0  0  0  0  0  0  0  0  0  0  0
    3.0805    1.5287   -0.4810 C   0  0  0  0  0  0  0  0  0  0  0  0
    4.0547    2.5213   -0.3721 C   0  0  0  0  0  0  0  0  0  0  0  0
    5.3085    2.2550    0.1244 C   0  0  0  0  0  0  0  0  0  0  0  0
    5.5991    0.9675    0.5224 C   0  0  0  0  0  0  0  0  0  0  0  0
    4.6586   -0.0187    0.4242 C   0  0  0  0  0  0  0  0  0  0  0  0
   -3.6636    1.0491    0.1308 C   0  0  0  0  0  0  0  0  0  0  0  0
   -2.8678    2.1279   -0.1292 C   0  0  0  0  0  0  0  0  0  0  0  0
   -3.4624    3.3757   -0.3472 C   0  0  0  0  0  0  0  0  0  0  0  0
   -4.8280    3.5177   -0.3010 C   0  0  0  0  0  0  0  0  0  0  0  0
   -5.5582    2.4283   -0.0422 N   0  0  0  0  0  0  0  0  0  0  0  0
   -5.0316    1.2170    0.1721 C   0  0  0  0  0  0  0  0  0  0  0  0
   -1.3428    0.2111   -0.6404 H   0  0  0  0  0  0  0  0  0  0  0  0
   -3.0262   -2.9564    0.0987 H   0  0  0  0  0  0  0  0  0  0  0  0
   -1.9349   -5.0897    0.1278 H   0  0  0  0  0  0  0  0  0  0  0  0
    1.8409   -3.2703   -0.0493 H   0  0  0  0  0  0  0  0  0  0  0  0
    2.9281   -1.7764   -0.2232 H   0  0  0  0  0  0  0  0  0  0  0  0
    2.1282    1.7648   -0.8866 H   0  0  0  0  0  0  0  0  0  0  0  0
    3.7794    3.5247   -0.6992 H   0  0  0  0  0  0  0  0  0  0  0  0
    6.0698    3.0141    0.2134 H   0  0  0  0  0  0  0  0  0  0  0  0
    6.6099    0.7829    0.9154 H   0  0  0  0  0  0  0  0  0  0  0  0
    4.9236   -1.0364    0.7512 H   0  0  0  0  0  0  0  0  0  0  0  0
   -1.7673    2.0687   -0.1710 H   0  0  0  0  0  0  0  0  0  0  0  0
   -2.8129    4.2173   -0.5518 H   0  0  0  0  0  0  0  0  0  0  0  0
   -5.3133    4.4935   -0.4704 H   0  0  0  0  0  0  0  0  0  0  0  0
   -5.6895    0.3758    0.3771 H   0  0  0  0  0  0  0  0  0  0  0  0
  1  2  2  0
  2  3  1  0
  3  4  1  0
  4  5  2  0
  5  6  1  0
  6  7  2  0
  7  8  1  0
  7  9  1  0
  9 10  2  0
 10 11  1  0
 11 12  2  0
 11 13  1  0
 13 14  1  0
 14 15  2  0
 15 16  1  0
 16 17  2  0
 17 18  1  0
 18 19  2  0
  2 20  1  0
 20 21  2  0
 21 22  1  0
 22 23  2  0
 23 24  1  0
 24 25  2  0
 10  4  1  0
 19 14  1  0
 25 20  1  0
  3 26  1  0
  5 27  1  0
  6 28  1  0
  9 29  1  0
 13 30  1  0
 15 31  1  0
 16 32  1  0
 17 33  1  0
 18 34  1  0
 19 35  1  0
 21 36  1  0
 22 37  1  0
 23 38  1  0
 25 39  1  0
M  END
$$$$
[H]c1nc(C([H])([H])n2c([H])nc(N3C([H])([H])[C@@]([H])(C([H])([H])[H])C([H])([H])[C@]3([H])C(=O)N3C([H])([H])C([H])([H])C([H])([H])[C@@]([H])(N4C([H])([H])C([H])([H])C([H])([H])[C@@]([H])(C([H])([H])[H])C4([H])[H])C3([H])[H])c2[H])nc([H])c1[H]
     RDKit          3D

 70 74  0  0  0  0  0  0  0  0999 V2000
    0.4662   -5.4825    0.6638 C   0  0  0  0  0  0  0  0  0  0  0  0
    0.4210   -3.9778    0.5054 C   0  0  1  0  0  0  0  0  0  0  0  0
    0.7207   -3.3439    1.8189 C   0  0  0  0  0  0  0  0  0  0  0  0
    1.4462   -2.0356    1.3762 C   0  0  1  0  0  0  0  0  0  0  0  0
    2.2093   -2.4254    0.2684 N   0  0  0  0  0  0  0  0  0  0  0  0
    1.5445   -3.5298   -0.3887 C   0  0  0  0  0  0  0  0  0  0  0  0
    3.4440   -1.9015   -0.1630 C   0  0  0  0  0  0  0  0  0  0  0  0
    4.1549   -0.8690    0.4467 C   0  0  0  0  0  0  0  0  0  0  0  0
    5.2903   -0.6278   -0.2321 N   0  0  0  0  0  0  0  0  0  0  0  0
    6.2692    0.3925    0.1371 C   0  0  0  0  0  0  0  0  0  0  0  0
    5.9459    1.6548   -0.5132 C   0  0  0  0  0  0  0  0  0  0  0  0
    5.1442    2.5406    0.0865 N   0  0  0  0  0  0  0  0  0  0  0  0
    4.8685    3.6956   -0.5453 C   0  0  0  0  0  0  0  0  0  0  0  0
    5.3856    4.0064   -1.8018 C   0  0  0  0  0  0  0  0  0  0  0  0
    6.2063    3.0747   -2.3912 C   0  0  0  0  0  0  0  0  0  0  0  0
    6.4471    1.9432   -1.7183 N   0  0  0  0  0  0  0  0  0  0  0  0
    5.3193   -1.4881   -1.2663 C   0  0  0  0  0  0  0  0  0  0  0  0
    4.2100   -2.2517   -1.2228 N   0  0  0  0  0  0  0  0  0  0  0  0
    0.4163   -1.0310    1.3161 C   0  0  0  0  0  0  0  0  0  0  0  0
   -0.0548   -0.8018    2.5456 O   0  0  0  0  0  0  0  0  0  0  0  0
   -0.1838   -0.2752    0.3458 N   0  0  0  0  0  0  0  0  0  0  0  0
    0.0665   -0.2938   -1.0497 C   0  0  0  0  0  0  0  0  0  0  0  0
   -1.1039   -1.0094   -1.7068 C   0  0  0  0  0  0  0  0  0  0  0  0
   -2.3773   -0.4737   -1.1620 C   0  0  0  0  0  0  0  0  0  0  0  0
   -2.2382    0.8244   -0.4106 C   0  0  2  0  0  0  0  0  0  0  0  0
   -1.2226    0.7056    0.7273 C   0  0  0  0  0  0  0  0  0  0  0  0
   -3.4876    1.1941    0.1780 N   0  0  0  0  0  0  0  0  0  0  0  0
   -3.4425    2.4244    0.8645 C   0  0  0  0  0  0  0  0  0  0  0  0
   -4.7185    3.2004    0.9281 C   0  0  0  0  0  0  0  0  0  0  0  0
   -5.8429    2.2137    1.1551 C   0  0  0  0  0  0  0  0  0  0  0  0
   -5.9262    1.4084   -0.1270 C   0  0  1  0  0  0  0  0  0  0  0  0
   -6.5971    2.2443   -1.1935 C   0  0  0  0  0  0  0  0  0  0  0  0
   -4.6287    0.8945   -0.5995 C   0  0  0  0  0  0  0  0  0  0  0  0
    1.2912   -5.7333    1.3481 H   0  0  0  0  0  0  0  0  0  0  0  0
    0.7221   -5.8925   -0.3425 H   0  0  0  0  0  0  0  0  0  0  0  0
   -0.5096   -5.8687    1.0362 H   0  0  0  0  0  0  0  0  0  0  0  0
   -0.5852   -3.7173    0.1210 H   0  0  0  0  0  0  0  0  0  0  0  0
    1.3584   -3.9397    2.4730 H   0  0  0  0  0  0  0  0  0  0  0  0
   -0.2280   -3.0978    2.3310 H   0  0  0  0  0  0  0  0  0  0  0  0
    2.0918   -1.8266    2.2961 H   0  0  0  0  0  0  0  0  0  0  0  0
    2.2256   -4.3791   -0.5682 H   0  0  0  0  0  0  0  0  0  0  0  0
    1.1650   -3.2378   -1.4001 H   0  0  0  0  0  0  0  0  0  0  0  0
    3.8312   -0.3498    1.3301 H   0  0  0  0  0  0  0  0  0  0  0  0
    6.2212    0.5251    1.2375 H   0  0  0  0  0  0  0  0  0  0  0  0
    7.2979    0.0686   -0.1110 H   0  0  0  0  0  0  0  0  0  0  0  0
    4.2161    4.3996   -0.0406 H   0  0  0  0  0  0  0  0  0  0  0  0
    5.1604    4.9344   -2.3029 H   0  0  0  0  0  0  0  0  0  0  0  0
    6.6528    3.2322   -3.3668 H   0  0  0  0  0  0  0  0  0  0  0  0
    6.1219   -1.5326   -1.9984 H   0  0  0  0  0  0  0  0  0  0  0  0
    1.0250   -0.6339   -1.4083 H   0  0  0  0  0  0  0  0  0  0  0  0
   -0.0157    0.7670   -1.4961 H   0  0  0  0  0  0  0  0  0  0  0  0
   -0.9610   -2.0850   -1.5920 H   0  0  0  0  0  0  0  0  0  0  0  0
   -0.9779   -0.8038   -2.8092 H   0  0  0  0  0  0  0  0  0  0  0  0
   -3.0569   -0.2725   -2.0169 H   0  0  0  0  0  0  0  0  0  0  0  0
   -2.9270   -1.2289   -0.5270 H   0  0  0  0  0  0  0  0  0  0  0  0
   -1.9133    1.6071   -1.1192 H   0  0  0  0  0  0  0  0  0  0  0  0
   -1.7393    0.4238    1.6424 H   0  0  0  0  0  0  0  0  0  0  0  0
   -0.6838    1.6769    0.7902 H   0  0  0  0  0  0  0  0  0  0  0  0
   -2.6871    3.0876    0.3679 H   0  0  0  0  0  0  0  0  0  0  0  0
   -3.0769    2.2647    1.8996 H   0  0  0  0  0  0  0  0  0  0  0  0
   -4.6917    3.9052    1.7835 H   0  0  0  0  0  0  0  0  0  0  0  0
   -4.9195    3.7922    0.0199 H   0  0  0  0  0  0  0  0  0  0  0  0
   -6.7833    2.7718    1.3029 H   0  0  0  0  0  0  0  0  0  0  0  0
   -5.6016    1.5587    2.0084 H   0  0  0  0  0  0  0  0  0  0  0  0
   -6.6537    0.5758    0.1000 H   0  0  0  0  0  0  0  0  0  0  0  0
   -6.9433    3.2285   -0.8078 H   0  0  0  0  0  0  0  0  0  0  0  0
   -5.9128    2.4376   -2.0436 H   0  0  0  0  0  0  0  0  0  0  0  0
   -7.4964    1.7539   -1.6253 H   0  0  0  0  0  0  0  0  0  0  0  0
   -4.7004   -0.2323   -0.6700 H   0  0  0  0  0  0  0  0  0  0  0  0
   -4.4680    1.2210   -1.6480 H   0  0  0  0  0  0  0  0  0  0  0  0
  1  2  1  0
  2  3  1  0
  3  4  1  0
  4  5  1  0
  5  6  1  0
  5  7  1  0
  7  8  2  0
  8  9  1  0
  9 10  1  0
 10 11  1  0
 11 12  2  0
 12 13  1  0
 13 14  2  0
 14 15  1  0
 15 16  2  0
  9 17  1  0
 17 18  2  0
  4 19  1  0
 19 20  2  0
 19 21  1  0
 21 22  1  0
 22 23  1  0
 23 24  1  0
 24 25  1  0
 25 26  1  0
 25 27  1  0
 27 28  1  0
 28 29  1  0
 29 30  1  0
 30 31  1  0
 31 32  1  0
 31 33  1  0
  6  2  1  0
 18  7  1  0
 26 21  1  0
 33 27  1  0
 16 11  1  0
  1 34  1  0
  1 35  1  0
  1 36  1  0
  2 37  1  6
  3 38  1  0
  3 39  1  0
  4 40  1  1
  6 41  1  0
  6 42  1  0
  8 43  1  0
 10 44  1  0
 10 45  1  0
 13 46  1  0
 14 47  1  0
 15 48  1  0
 17 49  1  0
 22 50  1  0
 22 51  1  0
 23 52  1  0
 23 53  1  0
 24 54  1  0
 24 55  1  0
 25 56  1  6
 26 57  1  0
 26 58  1  0
 28 59  1  0
 28 60  1  0
 29 61  1  0
 29 62  1  0
 30 63  1  0
 30 64  1  0
 31 65  1  1
 32 66  1  0
 32 67  1  0
 32 68  1  0
 33 69  1  0
 33 70  1  0
M  END
$$$$
[H]c1nc([H])c(-c2c([H])c([H])c([H])c(C(=O)N([H])c3c([H])c([H])c(Cl)c(OC([H])([H])[H])c3[H])c2[H])o1
     RDKit          3D

 36 38  0  0  0  0  0  0  0  0999 V2000
    5.0760   -1.0264   -0.7942 C   0  0  0  0  0  0  0  0  0  0  0  0
    5.1978    0.3004   -1.2020 O   0  0  0  0  0  0  0  0  0  0  0  0
    4.1864    1.2083   -1.3040 C   0  0  0  0  0  0  0  0  0  0  0  0
    2.8856    0.8423   -0.9867 C   0  0  0  0  0  0  0  0  0  0  0  0
    1.8331    1.7091   -1.0699 C   0  0  0  0  0  0  0  0  0  0  0  0
    0.4834    1.3946   -0.7562 N   0  0  0  0  0  0  0  0  0  0  0  0
   -0.0535    0.2041   -0.2696 C   0  0  0  0  0  0  0  0  0  0  0  0
    0.6367   -0.8039   -0.0294 O   0  0  0  0  0  0  0  0  0  0  0  0
   -1.4839    0.0852   -0.0136 C   0  0  0  0  0  0  0  0  0  0  0  0
   -2.4435    0.9331   -0.5167 C   0  0  0  0  0  0  0  0  0  0  0  0
   -3.8065    0.7909   -0.2414 C   0  0  0  0  0  0  0  0  0  0  0  0
   -4.2235   -0.2327    0.5632 C   0  0  0  0  0  0  0  0  0  0  0  0
   -3.2864   -1.1006    1.0835 C   0  0  0  0  0  0  0  0  0  0  0  0
   -3.7671   -2.1936    1.9469 C   0  0  0  0  0  0  0  0  0  0  0  0
   -2.9580   -3.1382    2.5396 C   0  0  0  0  0  0  0  0  0  0  0  0
   -3.7803   -3.9595    3.2462 N   0  0  0  0  0  0  0  0  0  0  0  0
   -5.0373   -3.5149    3.0770 C   0  0  0  0  0  0  0  0  0  0  0  0
   -4.9823   -2.4590    2.2942 O   0  0  0  0  0  0  0  0  0  0  0  0
   -1.9515   -0.9446    0.8017 C   0  0  0  0  0  0  0  0  0  0  0  0
    2.1121    3.0141   -1.4968 C   0  0  0  0  0  0  0  0  0  0  0  0
    3.3671    3.4040   -1.8138 C   0  0  0  0  0  0  0  0  0  0  0  0
    4.4141    2.4883   -1.7152 C   0  0  0  0  0  0  0  0  0  0  0  0
    6.0124    3.0600   -2.1408 Cl  0  0  0  0  0  0  0  0  0  0  0  0
    6.1014   -1.3820   -0.4926 H   0  0  0  0  0  0  0  0  0  0  0  0
    4.3676   -1.1901    0.0265 H   0  0  0  0  0  0  0  0  0  0  0  0
    4.7788   -1.6491   -1.6742 H   0  0  0  0  0  0  0  0  0  0  0  0
    2.7146   -0.1726   -0.6644 H   0  0  0  0  0  0  0  0  0  0  0  0
   -0.2567    2.1772   -0.9035 H   0  0  0  0  0  0  0  0  0  0  0  0
   -2.1610    1.7437   -1.1540 H   0  0  0  0  0  0  0  0  0  0  0  0
   -4.5433    1.4660   -0.6451 H   0  0  0  0  0  0  0  0  0  0  0  0
   -5.2770   -0.3943    0.8140 H   0  0  0  0  0  0  0  0  0  0  0  0
   -1.8832   -3.2316    2.4736 H   0  0  0  0  0  0  0  0  0  0  0  0
   -5.8987   -3.9839    3.5296 H   0  0  0  0  0  0  0  0  0  0  0  0
   -1.2255   -1.6300    1.2143 H   0  0  0  0  0  0  0  0  0  0  0  0
    1.3057    3.7582   -1.5840 H   0  0  0  0  0  0  0  0  0  0  0  0
    3.5463    4.4275   -2.1422 H   0  0  0  0  0  0  0  0  0  0  0  0
  1  2  1  0
  2  3  1  0
  3  4  2  0
  4  5  1  0
  5  6  1  0
  6  7  1  0
  7  8  2  0
  7  9  1  0
  9 10  2  0
 10 11  1  0
 11 12  2  0
 12 13  1  0
 13 14  1  0
 14 15  2  0
 15 16  1  0
 16 17  2  0
 17 18  1  0
 13 19  2  0
  5 20  2  0
 20 21  1  0
 21 22  2  0
 22 23  1  0
 22  3  1  0
 19  9  1  0
 18 14  1  0
  1 24  1  0
  1 25  1  0
  1 26  1  0
  4 27  1  0
  6 28  1  0
 10 29  1  0
 11 30  1  0
 12 31  1  0
 15 32  1  0
 17 33  1  0
 19 34  1  0
 20 35  1  0
 21 36  1  0
M  END
$$$$
[H]c1nc(C([H])([H])N2C([H])([H])C([H])([H])C([H])(N([H])C(=O)C([H])([H])N([H])C(c3nc(N([H])[H])sc3[H])(C([H])([H])[H])C([H])([H])[H])C([H])([H])C2([H])[H])c([H])c([H])c1[H]
     RDKit          3D

 55 57  0  0  0  0  0  0  0  0999 V2000
   -7.6627    3.5658   -1.4722 N   0  0  0  0  0  0  0  0  0  0  0  0
   -7.3363    2.4062   -0.6831 C   0  0  0  0  0  0  0  0  0  0  0  0
   -6.3163    1.5715   -0.8322 N   0  0  0  0  0  0  0  0  0  0  0  0
   -6.1700    0.5702   -0.0369 C   0  0  0  0  0  0  0  0  0  0  0  0
   -7.1080    0.4121    0.9570 C   0  0  0  0  0  0  0  0  0  0  0  0
   -8.1439    1.7428    0.6625 S   0  0  0  0  0  0  0  0  0  0  0  0
   -5.0144   -0.3996   -0.1893 C   0  0  0  0  0  0  0  0  0  0  0  0
   -5.2725   -1.6113    0.6510 C   0  0  0  0  0  0  0  0  0  0  0  0
   -4.8700   -0.8383   -1.6330 C   0  0  0  0  0  0  0  0  0  0  0  0
   -3.7887    0.2884    0.1771 N   0  0  0  0  0  0  0  0  0  0  0  0
   -2.6396   -0.5829   -0.0239 C   0  0  0  0  0  0  0  0  0  0  0  0
   -1.3554    0.0703    0.2583 C   0  0  0  0  0  0  0  0  0  0  0  0
   -1.3197    1.2663    0.6236 O   0  0  0  0  0  0  0  0  0  0  0  0
   -0.1710   -0.6623    0.1104 N   0  0  0  0  0  0  0  0  0  0  0  0
    1.1609   -0.1132    0.3578 C   0  0  0  0  0  0  0  0  0  0  0  0
    1.7087   -0.6942    1.6491 C   0  0  0  0  0  0  0  0  0  0  0  0
    3.0748   -0.1755    1.9334 C   0  0  0  0  0  0  0  0  0  0  0  0
    3.8824   -0.0190    0.6918 N   0  0  0  0  0  0  0  0  0  0  0  0
    5.2374   -0.0464    1.0995 C   0  0  0  0  0  0  0  0  0  0  0  0
    6.2568    0.1509    0.0621 C   0  0  0  0  0  0  0  0  0  0  0  0
    7.4660    0.7716    0.4355 C   0  0  0  0  0  0  0  0  0  0  0  0
    8.4692    0.9726   -0.4956 C   0  0  0  0  0  0  0  0  0  0  0  0
    8.3291    0.5810   -1.8067 C   0  0  0  0  0  0  0  0  0  0  0  0
    7.1274   -0.0251   -2.1438 C   0  0  0  0  0  0  0  0  0  0  0  0
    6.1700   -0.2091   -1.2221 N   0  0  0  0  0  0  0  0  0  0  0  0
    3.4144   -1.0610   -0.1612 C   0  0  0  0  0  0  0  0  0  0  0  0
    2.0959   -0.5603   -0.7699 C   0  0  0  0  0  0  0  0  0  0  0  0
   -8.4141    3.4814   -2.1579 H   0  0  0  0  0  0  0  0  0  0  0  0
   -7.1515    4.4312   -1.3439 H   0  0  0  0  0  0  0  0  0  0  0  0
   -7.1423   -0.3821    1.7229 H   0  0  0  0  0  0  0  0  0  0  0  0
   -4.7516   -2.5111    0.2720 H   0  0  0  0  0  0  0  0  0  0  0  0
   -6.3599   -1.9030    0.5853 H   0  0  0  0  0  0  0  0  0  0  0  0
   -5.0072   -1.3956    1.6910 H   0  0  0  0  0  0  0  0  0  0  0  0
   -4.4719   -1.8434   -1.7288 H   0  0  0  0  0  0  0  0  0  0  0  0
   -4.2456   -0.0795   -2.1524 H   0  0  0  0  0  0  0  0  0  0  0  0
   -5.8940   -0.7316   -2.0770 H   0  0  0  0  0  0  0  0  0  0  0  0
   -3.8013    0.5221    1.2099 H   0  0  0  0  0  0  0  0  0  0  0  0
   -2.7712   -1.5178    0.5502 H   0  0  0  0  0  0  0  0  0  0  0  0
   -2.6122   -0.8410   -1.1244 H   0  0  0  0  0  0  0  0  0  0  0  0
   -0.1648   -1.6765   -0.1995 H   0  0  0  0  0  0  0  0  0  0  0  0
    1.1118    0.9663    0.4903 H   0  0  0  0  0  0  0  0  0  0  0  0
    1.0425   -0.3632    2.5171 H   0  0  0  0  0  0  0  0  0  0  0  0
    1.6104   -1.7796    1.6006 H   0  0  0  0  0  0  0  0  0  0  0  0
    3.0695    0.7940    2.4885 H   0  0  0  0  0  0  0  0  0  0  0  0
    3.6277   -0.8866    2.5736 H   0  0  0  0  0  0  0  0  0  0  0  0
    5.3653    0.8158    1.8304 H   0  0  0  0  0  0  0  0  0  0  0  0
    5.4671   -0.9520    1.7362 H   0  0  0  0  0  0  0  0  0  0  0  0
    7.5858    1.0806    1.4679 H   0  0  0  0  0  0  0  0  0  0  0  0
    9.4104    1.4689   -0.2046 H   0  0  0  0  0  0  0  0  0  0  0  0
    9.0624    0.7124   -2.5723 H   0  0  0  0  0  0  0  0  0  0  0  0
    6.9990   -0.3552   -3.1879 H   0  0  0  0  0  0  0  0  0  0  0  0
    4.0279   -1.3633   -0.9884 H   0  0  0  0  0  0  0  0  0  0  0  0
    3.2238   -2.0000    0.4281 H   0  0  0  0  0  0  0  0  0  0  0  0
    1.6346   -1.3905   -1.3038 H   0  0  0  0  0  0  0  0  0  0  0  0
    2.3249    0.3279   -1.3712 H   0  0  0  0  0  0  0  0  0  0  0  0
  1  2  1  0
  2  3  2  0
  3  4  1  0
  4  5  2  0
  5  6  1  0
  4  7  1  0
  7  8  1  0
  7  9  1  0
  7 10  1  0
 10 11  1  0
 11 12  1  0
 12 13  2  0
 12 14  1  0
 14 15  1  0
 15 16  1  0
 16 17  1  0
 17 18  1  0
 18 19  1  0
 19 20  1  0
 20 21  2  0
 21 22  1  0
 22 23  2  0
 23 24  1  0
 24 25  2  0
 18 26  1  0
 26 27  1  0
  6  2  1  0
 27 15  1  0
 25 20  1  0
  1 28  1  0
  1 29  1  0
  5 30  1  0
  8 31  1  0
  8 32  1  0
  8 33  1  0
  9 34  1  0
  9 35  1  0
  9 36  1  0
 10 37  1  0
 11 38  1  0
 11 39  1  0
 14 40  1  0
 15 41  1  0
 16 42  1  0
 16 43  1  0
 17 44  1  0
 17 45  1  0
 19 46  1  0
 19 47  1  0
 21 48  1  0
 22 49  1  0
 23 50  1  0
 24 51  1  0
 26 52  1  0
 26 53  1  0
 27 54  1  0
 27 55  1  0
M  END
$$$$
[H]c1c(C([H])([H])[H])c(-c2c(N3C([H])([H])C([H])([H])N(C([H])([H])[H])C([H])([H])C3([H])[H])c3c([H])c([H])c(OC([H])([H])C4([H])C([H])([H])C([H])([H])C([H])(C#N)C([H])([H])C4([H])[H])c([H])c3n2[H])c([H])c(C([H])([H])C([H])([H])OC#N)c1C([H])([H])[H]
     RDKit          3D

 78 82  0  0  0  0  0  0  0  0999 V2000
   -3.4936   -5.5685   -1.6578 C   0  0  0  0  0  0  0  0  0  0  0  0
   -3.7628   -4.1603   -1.7270 N   0  0  0  0  0  0  0  0  0  0  0  0
   -3.6864   -3.6150   -0.3803 C   0  0  0  0  0  0  0  0  0  0  0  0
   -3.3644   -2.1058   -0.4616 C   0  0  0  0  0  0  0  0  0  0  0  0
   -1.9347   -2.0453   -0.7970 N   0  0  0  0  0  0  0  0  0  0  0  0
   -1.5847   -3.0478   -1.8076 C   0  0  0  0  0  0  0  0  0  0  0  0
   -2.8419   -3.4547   -2.6079 C   0  0  0  0  0  0  0  0  0  0  0  0
   -1.0410   -1.1072   -0.2558 C   0  0  0  0  0  0  0  0  0  0  0  0
   -1.2662    0.0412    0.4441 C   0  0  0  0  0  0  0  0  0  0  0  0
   -0.0753    0.5093    0.9430 N   0  0  0  0  0  0  0  0  0  0  0  0
    0.8969   -0.3162    0.5674 C   0  0  0  0  0  0  0  0  0  0  0  0
    2.2627   -0.2780    0.8129 C   0  0  0  0  0  0  0  0  0  0  0  0
    3.1076   -1.2286    0.3342 C   0  0  0  0  0  0  0  0  0  0  0  0
    4.4480   -1.2563    0.5275 O   0  0  0  0  0  0  0  0  0  0  0  0
    5.3622   -0.4574    1.1570 C   0  0  0  0  0  0  0  0  0  0  0  0
    5.4550    0.8989    0.5193 C   0  0  0  0  0  0  0  0  0  0  0  0
    5.8694    0.7251   -0.9277 C   0  0  0  0  0  0  0  0  0  0  0  0
    7.2444    1.2382   -1.2252 C   0  0  0  0  0  0  0  0  0  0  0  0
    8.2614    0.8075   -0.1927 C   0  0  0  0  0  0  0  0  0  0  0  0
    7.7885    1.0897    1.2149 C   0  0  0  0  0  0  0  0  0  0  0  0
    6.4599    1.7689    1.2589 C   0  0  0  0  0  0  0  0  0  0  0  0
    9.5152    1.4935   -0.5095 C   0  0  0  0  0  0  0  0  0  0  0  0
   10.5110    2.0215   -0.7734 N   0  0  0  0  0  0  0  0  0  0  0  0
    2.5732   -2.2767   -0.4288 C   0  0  0  0  0  0  0  0  0  0  0  0
    1.2003   -2.2716   -0.6471 C   0  0  0  0  0  0  0  0  0  0  0  0
    0.3406   -1.3279   -0.1769 C   0  0  0  0  0  0  0  0  0  0  0  0
   -2.4728    0.7784    0.7220 C   0  0  0  0  0  0  0  0  0  0  0  0
   -3.3789    1.1081   -0.2399 C   0  0  0  0  0  0  0  0  0  0  0  0
   -4.5856    1.7851   -0.0082 C   0  0  0  0  0  0  0  0  0  0  0  0
   -5.4226    2.0971   -1.1689 C   0  0  0  0  0  0  0  0  0  0  0  0
   -5.2286    3.4663   -1.7399 C   0  0  0  0  0  0  0  0  0  0  0  0
   -5.4913    4.5027   -0.8558 O   0  0  0  0  0  0  0  0  0  0  0  0
   -5.3576    5.7944   -1.2314 C   0  0  0  0  0  0  0  0  0  0  0  0
   -5.2426    6.8972   -1.5306 N   0  0  0  0  0  0  0  0  0  0  0  0
   -4.8853    2.1454    1.2760 C   0  0  0  0  0  0  0  0  0  0  0  0
   -6.1599    2.8347    1.6359 C   0  0  0  0  0  0  0  0  0  0  0  0
   -3.9785    1.8229    2.2772 C   0  0  0  0  0  0  0  0  0  0  0  0
   -2.8028    1.1582    2.0199 C   0  0  0  0  0  0  0  0  0  0  0  0
   -1.9046    0.8356    3.1761 C   0  0  0  0  0  0  0  0  0  0  0  0
   -4.3010   -6.0185   -1.0284 H   0  0  0  0  0  0  0  0  0  0  0  0
   -3.5454   -5.9631   -2.7031 H   0  0  0  0  0  0  0  0  0  0  0  0
   -2.5206   -5.7917   -1.1711 H   0  0  0  0  0  0  0  0  0  0  0  0
   -4.6927   -3.6811    0.0645 H   0  0  0  0  0  0  0  0  0  0  0  0
   -2.8834   -4.0714    0.2197 H   0  0  0  0  0  0  0  0  0  0  0  0
   -3.4781   -1.7574    0.5614 H   0  0  0  0  0  0  0  0  0  0  0  0
   -4.0138   -1.6324   -1.1826 H   0  0  0  0  0  0  0  0  0  0  0  0
   -1.2465   -3.9768   -1.3522 H   0  0  0  0  0  0  0  0  0  0  0  0
   -0.9394   -2.5606   -2.5397 H   0  0  0  0  0  0  0  0  0  0  0  0
   -2.4689   -4.0991   -3.4251 H   0  0  0  0  0  0  0  0  0  0  0  0
   -3.2841   -2.5440   -3.0374 H   0  0  0  0  0  0  0  0  0  0  0  0
    0.0781    1.3613    1.5124 H   0  0  0  0  0  0  0  0  0  0  0  0
    2.6322    0.5260    1.4154 H   0  0  0  0  0  0  0  0  0  0  0  0
    5.0457   -0.3456    2.2305 H   0  0  0  0  0  0  0  0  0  0  0  0
    6.3535   -0.9800    1.1211 H   0  0  0  0  0  0  0  0  0  0  0  0
    4.5078    1.4382    0.5575 H   0  0  0  0  0  0  0  0  0  0  0  0
    5.1609    1.3052   -1.5873 H   0  0  0  0  0  0  0  0  0  0  0  0
    5.7457   -0.3325   -1.2388 H   0  0  0  0  0  0  0  0  0  0  0  0
    7.5646    0.8023   -2.1960 H   0  0  0  0  0  0  0  0  0  0  0  0
    7.2688    2.3456   -1.3578 H   0  0  0  0  0  0  0  0  0  0  0  0
    8.4195   -0.2779   -0.3032 H   0  0  0  0  0  0  0  0  0  0  0  0
    8.5354    1.8167    1.6516 H   0  0  0  0  0  0  0  0  0  0  0  0
    7.8470    0.1968    1.8531 H   0  0  0  0  0  0  0  0  0  0  0  0
    6.1398    1.8306    2.3132 H   0  0  0  0  0  0  0  0  0  0  0  0
    6.4942    2.7315    0.7461 H   0  0  0  0  0  0  0  0  0  0  0  0
    3.2240   -3.0325   -0.8118 H   0  0  0  0  0  0  0  0  0  0  0  0
    0.8649   -3.1118   -1.2345 H   0  0  0  0  0  0  0  0  0  0  0  0
   -3.1301    0.8324   -1.2818 H   0  0  0  0  0  0  0  0  0  0  0  0
   -6.5033    1.9161   -0.9350 H   0  0  0  0  0  0  0  0  0  0  0  0
   -5.1594    1.3553   -1.9902 H   0  0  0  0  0  0  0  0  0  0  0  0
   -4.1945    3.5476   -2.1945 H   0  0  0  0  0  0  0  0  0  0  0  0
   -5.8954    3.6311   -2.6402 H   0  0  0  0  0  0  0  0  0  0  0  0
   -6.8903    2.7048    0.8508 H   0  0  0  0  0  0  0  0  0  0  0  0
   -6.0146    3.8990    1.8697 H   0  0  0  0  0  0  0  0  0  0  0  0
   -6.5458    2.2777    2.5404 H   0  0  0  0  0  0  0  0  0  0  0  0
   -4.2512    2.1284    3.2983 H   0  0  0  0  0  0  0  0  0  0  0  0
   -2.6150    0.6443    4.0403 H   0  0  0  0  0  0  0  0  0  0  0  0
   -1.3791   -0.1170    3.0393 H   0  0  0  0  0  0  0  0  0  0  0  0
   -1.2636    1.7002    3.4279 H   0  0  0  0  0  0  0  0  0  0  0  0
  1  2  1  0
  2  3  1  0
  3  4  1  0
  4  5  1  0
  5  6  1  0
  6  7  1  0
  5  8  1  0
  8  9  2  0
  9 10  1  0
 10 11  1  0
 11 12  2  0
 12 13  1  0
 13 14  1  0
 14 15  1  0
 15 16  1  0
 16 17  1  0
 17 18  1  0
 18 19  1  0
 19 20  1  0
 20 21  1  0
 19 22  1  0
 22 23  3  0
 13 24  2  0
 24 25  1  0
 25 26  2  0
  9 27  1  0
 27 28  2  0
 28 29  1  0
 29 30  1  0
 30 31  1  0
 31 32  1  0
 32 33  1  0
 33 34  3  0
 29 35  2  0
 35 36  1  0
 35 37  1  0
 37 38  2  0
 38 39  1  0
  7  2  1  0
 26  8  1  0
 38 27  1  0
 26 11  1  0
 21 16  1  0
  1 40  1  0
  1 41  1  0
  1 42  1  0
  3 43  1  0
  3 44  1  0
  4 45  1  0
  4 46  1  0
  6 47  1  0
  6 48  1  0
  7 49  1  0
  7 50  1  0
 10 51  1  0
 12 52  1  0
 15 53  1  0
 15 54  1  0
 16 55  1  0
 17 56  1  0
 17 57  1  0
 18 58  1  0
 18 59  1  0
 19 60  1  0
 20 61  1  0
 20 62  1  0
 21 63  1  0
 21 64  1  0
 24 65  1  0
 25 66  1  0
 28 67  1  0
 30 68  1  0
 30 69  1  0
 31 70  1  0
 31 71  1  0
 36 72  1  0
 36 73  1  0
 36 74  1  0
 37 75  1  0
 39 76  1  0
 39 77  1  0
 39 78  1  0
M  END
$$$$
[H]c1nc(N([H])c2c([H])c([H])c(C#N)c([H])c2[H])nc(Cl)c1C([H])([H])C([H])([H])[H]
     RDKit          3D

 29 30  0  0  0  0  0  0  0  0999 V2000
   -4.8135   -1.1946    0.9331 C   0  0  0  0  0  0  0  0  0  0  0  0
   -4.2192    0.1859    1.1060 C   0  0  0  0  0  0  0  0  0  0  0  0
   -2.9165    0.3532    0.4986 C   0  0  0  0  0  0  0  0  0  0  0  0
   -2.7514    1.0338   -0.6794 C   0  0  0  0  0  0  0  0  0  0  0  0
   -1.5320    1.1771   -1.2278 N   0  0  0  0  0  0  0  0  0  0  0  0
   -0.4135    0.6661   -0.6583 C   0  0  0  0  0  0  0  0  0  0  0  0
    0.8283    0.8342   -1.2896 N   0  0  0  0  0  0  0  0  0  0  0  0
    2.0887    0.4040   -0.8726 C   0  0  0  0  0  0  0  0  0  0  0  0
    2.3905    0.0208    0.3892 C   0  0  0  0  0  0  0  0  0  0  0  0
    3.6661   -0.4158    0.7218 C   0  0  0  0  0  0  0  0  0  0  0  0
    4.6559   -0.4707   -0.2180 C   0  0  0  0  0  0  0  0  0  0  0  0
    4.3769   -0.0849   -1.5147 C   0  0  0  0  0  0  0  0  0  0  0  0
    3.1078    0.3466   -1.8343 C   0  0  0  0  0  0  0  0  0  0  0  0
    5.9945   -0.9248    0.1134 C   0  0  0  0  0  0  0  0  0  0  0  0
    7.0621   -1.2831    0.3638 N   0  0  0  0  0  0  0  0  0  0  0  0
   -0.5640    0.0102    0.4753 N   0  0  0  0  0  0  0  0  0  0  0  0
   -1.7775   -0.1597    1.0665 C   0  0  0  0  0  0  0  0  0  0  0  0
   -1.8661   -1.0380    2.5546 Cl  0  0  0  0  0  0  0  0  0  0  0  0
   -4.4693   -1.8475    1.7842 H   0  0  0  0  0  0  0  0  0  0  0  0
   -4.5988   -1.6423   -0.0514 H   0  0  0  0  0  0  0  0  0  0  0  0
   -5.9228   -1.1645    1.0306 H   0  0  0  0  0  0  0  0  0  0  0  0
   -4.2363    0.4095    2.2067 H   0  0  0  0  0  0  0  0  0  0  0  0
   -4.9670    0.8978    0.6500 H   0  0  0  0  0  0  0  0  0  0  0  0
   -3.6190    1.4749   -1.1956 H   0  0  0  0  0  0  0  0  0  0  0  0
    0.7717    1.3753   -2.2192 H   0  0  0  0  0  0  0  0  0  0  0  0
    1.7028    0.0325    1.2194 H   0  0  0  0  0  0  0  0  0  0  0  0
    3.9108   -0.7244    1.7332 H   0  0  0  0  0  0  0  0  0  0  0  0
    5.1886   -0.1423   -2.2330 H   0  0  0  0  0  0  0  0  0  0  0  0
    2.9222    0.6401   -2.8525 H   0  0  0  0  0  0  0  0  0  0  0  0
  1  2  1  0
  2  3  1  0
  3  4  2  0
  4  5  1  0
  5  6  2  0
  6  7  1  0
  7  8  1  0
  8  9  2  0
  9 10  1  0
 10 11  2  0
 11 12  1  0
 12 13  2  0
 11 14  1  0
 14 15  3  0
  6 16  1  0
 16 17  2  0
 17 18  1  0
 17  3  1  0
 13  8  1  0
  1 19  1  0
  1 20  1  0
  1 21  1  0
  2 22  1  0
  2 23  1  0
  4 24  1  0
  7 25  1  0
  9 26  1  0
 10 27  1  0
 12 28  1  0
 13 29  1  0
M  END
$$$$
[H]c1nc(N([H])c2c([H])c([H])nc3c([H])c(C(F)(F)F)c(C([H])([H])[H])c([H])c23)c([H])c(C(=O)N2C([H])([H])C([H])([H])C([H])(c3c([H])c([H])c([H])c([H])c3[H])C([H])([H])C2([H])[H])c1[H]
     RDKit          3D

 61 65  0  0  0  0  0  0  0  0999 V2000
   -6.7844   -1.0089   -2.1328 C   0  0  0  0  0  0  0  0  0  0  0  0
   -6.6475   -0.7991   -0.6777 C   0  0  0  0  0  0  0  0  0  0  0  0
   -5.3520   -0.5033   -0.2113 C   0  0  0  0  0  0  0  0  0  0  0  0
   -5.0870   -0.2861    1.1246 C   0  0  0  0  0  0  0  0  0  0  0  0
   -3.7846    0.0180    1.5838 C   0  0  0  0  0  0  0  0  0  0  0  0
   -2.7477    0.0256    0.6368 N   0  0  0  0  0  0  0  0  0  0  0  0
   -1.4450    0.5561    0.8477 C   0  0  0  0  0  0  0  0  0  0  0  0
   -0.4893    0.4390   -0.1695 C   0  0  0  0  0  0  0  0  0  0  0  0
    0.7909    0.9657   -0.0296 C   0  0  0  0  0  0  0  0  0  0  0  0
    1.0573    1.6022    1.1618 C   0  0  0  0  0  0  0  0  0  0  0  0
    0.1097    1.7242    2.1810 C   0  0  0  0  0  0  0  0  0  0  0  0
   -1.0768    1.1871    1.9417 N   0  0  0  0  0  0  0  0  0  0  0  0
    1.7328    0.7514   -1.1010 C   0  0  0  0  0  0  0  0  0  0  0  0
    1.3619   -0.1466   -1.9856 O   0  0  0  0  0  0  0  0  0  0  0  0
    2.9636    1.3217   -1.3725 N   0  0  0  0  0  0  0  0  0  0  0  0
    3.7482    0.8080   -2.5515 C   0  0  0  0  0  0  0  0  0  0  0  0
    5.1914    1.1150   -2.3693 C   0  0  0  0  0  0  0  0  0  0  0  0
    5.7440    1.1330   -0.9912 C   0  0  0  0  0  0  0  0  0  0  0  0
    4.8332    1.7969    0.0150 C   0  0  0  0  0  0  0  0  0  0  0  0
    3.6560    2.4070   -0.7327 C   0  0  0  0  0  0  0  0  0  0  0  0
    6.2276   -0.1784   -0.4946 C   0  0  0  0  0  0  0  0  0  0  0  0
    7.5770   -0.2811   -0.1526 C   0  0  0  0  0  0  0  0  0  0  0  0
    8.0966   -1.4646    0.3145 C   0  0  0  0  0  0  0  0  0  0  0  0
    7.2991   -2.5749    0.4558 C   0  0  0  0  0  0  0  0  0  0  0  0
    5.9704   -2.4713    0.1184 C   0  0  0  0  0  0  0  0  0  0  0  0
    5.4246   -1.2953   -0.3526 C   0  0  0  0  0  0  0  0  0  0  0  0
   -3.6675    0.2192    2.9301 C   0  0  0  0  0  0  0  0  0  0  0  0
   -4.7490    0.1357    3.8167 C   0  0  0  0  0  0  0  0  0  0  0  0
   -5.9519   -0.1525    3.3432 N   0  0  0  0  0  0  0  0  0  0  0  0
   -6.1460   -0.3654    2.0196 C   0  0  0  0  0  0  0  0  0  0  0  0
   -7.4133   -0.6571    1.5436 C   0  0  0  0  0  0  0  0  0  0  0  0
   -7.6699   -0.8733    0.2102 C   0  0  0  0  0  0  0  0  0  0  0  0
   -9.0268   -1.1866   -0.3060 C   0  0  0  0  0  0  0  0  0  0  0  0
   -9.0754   -2.4031   -0.9427 F   0  0  0  0  0  0  0  0  0  0  0  0
   -9.8603   -1.3014    0.8107 F   0  0  0  0  0  0  0  0  0  0  0  0
   -9.5555   -0.1588   -1.0623 F   0  0  0  0  0  0  0  0  0  0  0  0
   -6.9505   -2.1114   -2.2800 H   0  0  0  0  0  0  0  0  0  0  0  0
   -5.8761   -0.7606   -2.6937 H   0  0  0  0  0  0  0  0  0  0  0  0
   -7.6231   -0.4952   -2.5940 H   0  0  0  0  0  0  0  0  0  0  0  0
   -4.5701   -0.4415   -0.9453 H   0  0  0  0  0  0  0  0  0  0  0  0
   -2.9223   -0.4223   -0.3275 H   0  0  0  0  0  0  0  0  0  0  0  0
   -0.7801   -0.0738   -1.0689 H   0  0  0  0  0  0  0  0  0  0  0  0
    2.0282    2.0062    1.3768 H   0  0  0  0  0  0  0  0  0  0  0  0
    0.4116    2.2414    3.0773 H   0  0  0  0  0  0  0  0  0  0  0  0
    3.3309    1.4004   -3.3926 H   0  0  0  0  0  0  0  0  0  0  0  0
    3.4907   -0.2499   -2.6235 H   0  0  0  0  0  0  0  0  0  0  0  0
    5.3708    2.1473   -2.8109 H   0  0  0  0  0  0  0  0  0  0  0  0
    5.8151    0.4685   -3.0562 H   0  0  0  0  0  0  0  0  0  0  0  0
    6.6682    1.8184   -0.9921 H   0  0  0  0  0  0  0  0  0  0  0  0
    5.3096    2.5930    0.5898 H   0  0  0  0  0  0  0  0  0  0  0  0
    4.4218    1.0708    0.7468 H   0  0  0  0  0  0  0  0  0  0  0  0
    3.0976    3.0511   -0.0695 H   0  0  0  0  0  0  0  0  0  0  0  0
    4.1235    3.0674   -1.5609 H   0  0  0  0  0  0  0  0  0  0  0  0
    8.2729    0.5521   -0.2361 H   0  0  0  0  0  0  0  0  0  0  0  0
    9.1513   -1.5194    0.5743 H   0  0  0  0  0  0  0  0  0  0  0  0
    7.7130   -3.5209    0.8289 H   0  0  0  0  0  0  0  0  0  0  0  0
    5.3210   -3.3204    0.2173 H   0  0  0  0  0  0  0  0  0  0  0  0
    4.3863   -1.2021   -0.6201 H   0  0  0  0  0  0  0  0  0  0  0  0
   -2.6868    0.4366    3.3431 H   0  0  0  0  0  0  0  0  0  0  0  0
   -4.5200    0.3176    4.8551 H   0  0  0  0  0  0  0  0  0  0  0  0
   -8.2379   -0.7190    2.2420 H   0  0  0  0  0  0  0  0  0  0  0  0
  1  2  1  0
  2  3  2  0
  3  4  1  0
  4  5  2  0
  5  6  1  0
  6  7  1  0
  7  8  2  0
  8  9  1  0
  9 10  2  0
 10 11  1  0
 11 12  2  0
  9 13  1  0
 13 14  2  0
 13 15  1  0
 15 16  1  0
 16 17  1  0
 17 18  1  0
 18 19  1  0
 19 20  1  0
 18 21  1  0
 21 22  2  0
 22 23  1  0
 23 24  2  0
 24 25  1  0
 25 26  2  0
  5 27  1  0
 27 28  2  0
 28 29  1  0
 29 30  2  0
 30 31  1  0
 31 32  2  0
 32 33  1  0
 33 34  1  0
 33 35  1  0
 33 36  1  0
 32  2  1  0
 30  4  1  0
 12  7  1  0
 20 15  1  0
 26 21  1  0
  1 37  1  0
  1 38  1  0
  1 39  1  0
  3 40  1  0
  6 41  1  0
  8 42  1  0
 10 43  1  0
 11 44  1  0
 16 45  1  0
 16 46  1  0
 17 47  1  0
 17 48  1  0
 18 49  1  0
 19 50  1  0
 19 51  1  0
 20 52  1  0
 20 53  1  0
 22 54  1  0
 23 55  1  0
 24 56  1  0
 25 57  1  0
 26 58  1  0
 27 59  1  0
 28 60  1  0
 31 61  1  0
M  END
$$$$
[H]OC1([H])C([H])([H])C([H])([H])N(c2c([H])c(C([H])([H])[H])c3c4nnc(c(C(F)(F)F)nn([H])c3c2[H])N([H])c2c([H])c([H])c(Cl)c([H])c2-4)C([H])([H])C1([H])[H]
     RDKit          3D

 53 57  0  0  0  0  0  0  0  0999 V2000
   -0.7197   -2.3325   -1.9592 C   0  0  0  0  0  0  0  0  0  0  0  0
   -0.1383   -1.0961   -1.3843 C   0  0  0  0  0  0  0  0  0  0  0  0
    1.2609   -0.8344   -1.2632 C   0  0  0  0  0  0  0  0  0  0  0  0
    1.6989    0.4382   -0.9436 C   0  0  0  0  0  0  0  0  0  0  0  0
    0.8256    1.5045   -0.7278 C   0  0  0  0  0  0  0  0  0  0  0  0
   -0.5582    1.3440   -0.8216 C   0  0  0  0  0  0  0  0  0  0  0  0
   -1.4610    2.3219   -0.6758 N   0  0  0  0  0  0  0  0  0  0  0  0
   -2.6407    2.6323   -0.3104 N   0  0  0  0  0  0  0  0  0  0  0  0
   -3.8528    2.0760   -0.0775 C   0  0  0  0  0  0  0  0  0  0  0  0
   -4.3158    0.9768   -0.8001 C   0  0  0  0  0  0  0  0  0  0  0  0
   -4.0949    0.9277   -2.1118 N   0  0  0  0  0  0  0  0  0  0  0  0
   -2.9125    0.2490   -2.3376 N   0  0  0  0  0  0  0  0  0  0  0  0
   -2.1825   -0.3365   -1.2615 C   0  0  0  0  0  0  0  0  0  0  0  0
   -2.4814   -1.2435   -0.1670 C   0  0  0  0  0  0  0  0  0  0  0  0
   -1.5299   -1.9263    0.5010 C   0  0  0  0  0  0  0  0  0  0  0  0
   -1.9607   -2.7389    1.5350 C   0  0  0  0  0  0  0  0  0  0  0  0
   -0.7215   -3.6327    2.3932 Cl  0  0  0  0  0  0  0  0  0  0  0  0
   -3.2920   -2.8460    1.8797 C   0  0  0  0  0  0  0  0  0  0  0  0
   -4.2910   -2.1187    1.1945 C   0  0  0  0  0  0  0  0  0  0  0  0
   -3.8551   -1.3429    0.2056 C   0  0  0  0  0  0  0  0  0  0  0  0
   -4.7850   -0.1374   -0.0095 N   0  0  0  0  0  0  0  0  0  0  0  0
   -0.8687    0.0168   -1.1461 C   0  0  0  0  0  0  0  0  0  0  0  0
   -4.8212    2.3540    0.9843 C   0  0  0  0  0  0  0  0  0  0  0  0
   -6.0881    2.6664    0.5966 F   0  0  0  0  0  0  0  0  0  0  0  0
   -4.7205    1.5518    2.0941 F   0  0  0  0  0  0  0  0  0  0  0  0
   -4.4044    3.5511    1.5282 F   0  0  0  0  0  0  0  0  0  0  0  0
    3.0691    0.7265   -0.8297 N   0  0  0  0  0  0  0  0  0  0  0  0
    3.5795    1.9574   -0.2605 C   0  0  0  0  0  0  0  0  0  0  0  0
    4.9176    1.6011    0.3722 C   0  0  0  0  0  0  0  0  0  0  0  0
    4.8876    0.2023    0.9832 C   0  0  0  0  0  0  0  0  0  0  0  0
    6.1591   -0.0009    1.5309 O   0  0  0  0  0  0  0  0  0  0  0  0
    4.6610   -0.8688   -0.0673 C   0  0  0  0  0  0  0  0  0  0  0  0
    4.0549   -0.2085   -1.2929 C   0  0  0  0  0  0  0  0  0  0  0  0
   -1.7360   -2.3609   -2.3222 H   0  0  0  0  0  0  0  0  0  0  0  0
   -0.3212   -2.1993   -3.0453 H   0  0  0  0  0  0  0  0  0  0  0  0
   -0.1862   -3.2574   -1.7757 H   0  0  0  0  0  0  0  0  0  0  0  0
    1.9192   -1.6705   -1.4273 H   0  0  0  0  0  0  0  0  0  0  0  0
    1.1645    2.4951   -0.4810 H   0  0  0  0  0  0  0  0  0  0  0  0
   -0.9612    3.2453   -1.0232 H   0  0  0  0  0  0  0  0  0  0  0  0
   -0.4817   -1.8255    0.4570 H   0  0  0  0  0  0  0  0  0  0  0  0
   -3.5897   -3.4916    2.6737 H   0  0  0  0  0  0  0  0  0  0  0  0
   -5.3358   -2.1153    1.4402 H   0  0  0  0  0  0  0  0  0  0  0  0
   -5.6151    0.0241    0.4310 H   0  0  0  0  0  0  0  0  0  0  0  0
    3.7867    2.7351   -1.0203 H   0  0  0  0  0  0  0  0  0  0  0  0
    2.9239    2.3765    0.5289 H   0  0  0  0  0  0  0  0  0  0  0  0
    5.7455    1.6035   -0.3516 H   0  0  0  0  0  0  0  0  0  0  0  0
    5.1288    2.3004    1.1786 H   0  0  0  0  0  0  0  0  0  0  0  0
    4.1311    0.1145    1.7788 H   0  0  0  0  0  0  0  0  0  0  0  0
    6.8709    0.2868    0.9134 H   0  0  0  0  0  0  0  0  0  0  0  0
    5.6062   -1.3436   -0.3999 H   0  0  0  0  0  0  0  0  0  0  0  0
    3.9852   -1.6581    0.3071 H   0  0  0  0  0  0  0  0  0  0  0  0
    4.8572    0.3093   -1.8910 H   0  0  0  0  0  0  0  0  0  0  0  0
    3.6897   -1.0017   -1.9614 H   0  0  0  0  0  0  0  0  0  0  0  0
  1  2  1  0
  2  3  2  0
  3  4  1  0
  4  5  2  0
  5  6  1  0
  6  7  1  0
  7  8  1  0
  8  9  2  0
  9 10  1  0
 10 11  2  0
 11 12  1  0
 12 13  2  0
 13 14  1  0
 14 15  2  0
 15 16  1  0
 16 17  1  0
 16 18  2  0
 18 19  1  0
 19 20  2  0
 20 21  1  0
 13 22  1  0
  9 23  1  0
 23 24  1  0
 23 25  1  0
 23 26  1  0
  4 27  1  0
 27 28  1  0
 28 29  1  0
 29 30  1  0
 30 31  1  0
 30 32  1  0
 32 33  1  0
 22  2  1  0
 33 27  1  0
 22  6  2  0
 21 10  1  0
 20 14  1  0
  1 34  1  0
  1 35  1  0
  1 36  1  0
  3 37  1  0
  5 38  1  0
  7 39  1  0
 15 40  1  0
 18 41  1  0
 19 42  1  0
 21 43  1  0
 28 44  1  0
 28 45  1  0
 29 46  1  0
 29 47  1  0
 30 48  1  0
 31 49  1  0
 32 50  1  0
 32 51  1  0
 33 52  1  0
 33 53  1  0
M  END
$$$$
[H]c1c([H])c([H])c(N2C([H])([H])C([H])([H])N(C([H])([H])c3c([H])c([H])c4c(c3[H])OC([H])([H])C([H])([H])O4)C([H])([H])C2([H])[H])c(OC([H])([H])[H])c1[H]
     RDKit          3D

 49 52  0  0  0  0  0  0  0  0999 V2000
   -4.7883   -3.0192   -0.7636 C   0  0  0  0  0  0  0  0  0  0  0  0
   -3.9350   -1.9027   -0.6206 O   0  0  0  0  0  0  0  0  0  0  0  0
   -4.3641   -0.7324   -0.0197 C   0  0  0  0  0  0  0  0  0  0  0  0
   -5.6581   -0.6436    0.4559 C   0  0  0  0  0  0  0  0  0  0  0  0
   -6.1016    0.5248    1.0610 C   0  0  0  0  0  0  0  0  0  0  0  0
   -5.2165    1.5660    1.1639 C   0  0  0  0  0  0  0  0  0  0  0  0
   -3.9316    1.4715    0.6893 C   0  0  0  0  0  0  0  0  0  0  0  0
   -3.4648    0.3067    0.0776 C   0  0  0  0  0  0  0  0  0  0  0  0
   -2.1518    0.1590   -0.4272 N   0  0  0  0  0  0  0  0  0  0  0  0
   -1.8022   -0.1245   -1.7959 C   0  0  0  0  0  0  0  0  0  0  0  0
   -0.6853    0.8155   -2.1778 C   0  0  0  0  0  0  0  0  0  0  0  0
    0.4764    0.5305   -1.3777 N   0  0  0  0  0  0  0  0  0  0  0  0
    1.3420    1.6498   -1.2101 C   0  0  0  0  0  0  0  0  0  0  0  0
    2.5074    1.2585   -0.3861 C   0  0  0  0  0  0  0  0  0  0  0  0
    2.8072    1.8728    0.8107 C   0  0  0  0  0  0  0  0  0  0  0  0
    3.9145    1.4363    1.5046 C   0  0  0  0  0  0  0  0  0  0  0  0
    4.7311    0.4248    1.0665 C   0  0  0  0  0  0  0  0  0  0  0  0
    5.8474   -0.0112    1.7715 O   0  0  0  0  0  0  0  0  0  0  0  0
    6.8358   -0.7185    1.0314 C   0  0  0  0  0  0  0  0  0  0  0  0
    6.1064   -1.8173    0.2664 C   0  0  0  0  0  0  0  0  0  0  0  0
    5.1983   -1.1919   -0.6138 O   0  0  0  0  0  0  0  0  0  0  0  0
    4.3934   -0.1631   -0.1382 C   0  0  0  0  0  0  0  0  0  0  0  0
    3.2965    0.2379   -0.8689 C   0  0  0  0  0  0  0  0  0  0  0  0
    0.2240   -0.1772   -0.1709 C   0  0  0  0  0  0  0  0  0  0  0  0
   -1.0460    0.3025    0.5030 C   0  0  0  0  0  0  0  0  0  0  0  0
   -5.3448   -3.2274    0.1783 H   0  0  0  0  0  0  0  0  0  0  0  0
   -4.1093   -3.9047   -0.9245 H   0  0  0  0  0  0  0  0  0  0  0  0
   -5.4853   -2.9015   -1.6173 H   0  0  0  0  0  0  0  0  0  0  0  0
   -6.3671   -1.4590    0.3807 H   0  0  0  0  0  0  0  0  0  0  0  0
   -7.1205    0.6037    1.4389 H   0  0  0  0  0  0  0  0  0  0  0  0
   -5.5338    2.4785    1.6266 H   0  0  0  0  0  0  0  0  0  0  0  0
   -3.2256    2.2940    0.7683 H   0  0  0  0  0  0  0  0  0  0  0  0
   -1.4082   -1.1712   -1.8310 H   0  0  0  0  0  0  0  0  0  0  0  0
   -2.6708   -0.0392   -2.4818 H   0  0  0  0  0  0  0  0  0  0  0  0
   -1.0206    1.8650   -2.0517 H   0  0  0  0  0  0  0  0  0  0  0  0
   -0.3952    0.6900   -3.2492 H   0  0  0  0  0  0  0  0  0  0  0  0
    1.7586    2.0309   -2.1732 H   0  0  0  0  0  0  0  0  0  0  0  0
    0.8478    2.5253   -0.7385 H   0  0  0  0  0  0  0  0  0  0  0  0
    2.1725    2.6874    1.1904 H   0  0  0  0  0  0  0  0  0  0  0  0
    4.1760    1.9057    2.4569 H   0  0  0  0  0  0  0  0  0  0  0  0
    7.6382   -1.1204    1.6544 H   0  0  0  0  0  0  0  0  0  0  0  0
    7.2015   -0.0080    0.2463 H   0  0  0  0  0  0  0  0  0  0  0  0
    6.8782   -2.3977   -0.3052 H   0  0  0  0  0  0  0  0  0  0  0  0
    5.5272   -2.4628    0.9586 H   0  0  0  0  0  0  0  0  0  0  0  0
    3.0649   -0.2578   -1.8225 H   0  0  0  0  0  0  0  0  0  0  0  0
    1.0377   -0.0730    0.5553 H   0  0  0  0  0  0  0  0  0  0  0  0
    0.0703   -1.2470   -0.4369 H   0  0  0  0  0  0  0  0  0  0  0  0
   -1.2560   -0.2520    1.4175 H   0  0  0  0  0  0  0  0  0  0  0  0
   -0.9707    1.3861    0.7301 H   0  0  0  0  0  0  0  0  0  0  0  0
  1  2  1  0
  2  3  1  0
  3  4  2  0
  4  5  1  0
  5  6  2  0
  6  7  1  0
  7  8  2  0
  8  9  1  0
  9 10  1  0
 10 11  1  0
 11 12  1  0
 12 13  1  0
 13 14  1  0
 14 15  2  0
 15 16  1  0
 16 17  2  0
 17 18  1  0
 18 19  1  0
 19 20  1  0
 20 21  1  0
 21 22  1  0
 22 23  2  0
 12 24  1  0
 24 25  1  0
  8  3  1  0
 25  9  1  0
 23 14  1  0
 22 17  1  0
  1 26  1  0
  1 27  1  0
  1 28  1  0
  4 29  1  0
  5 30  1  0
  6 31  1  0
  7 32  1  0
 10 33  1  0
 10 34  1  0
 11 35  1  0
 11 36  1  0
 13 37  1  0
 13 38  1  0
 15 39  1  0
 16 40  1  0
 19 41  1  0
 19 42  1  0
 20 43  1  0
 20 44  1  0
 23 45  1  0
 24 46  1  0
 24 47  1  0
 25 48  1  0
 25 49  1  0
M  END
$$$$
[H]c1nc(-c2c([H])c([H])c3c([H])c2C([H])([H])C([H])([H])N(C2([H])C([H])([H])C([H])([H])N(C(=O)N([H])c4c([H])c([H])c(C(=O)N([H])C([H])([H])[H])c([H])c4[H])C([H])([H])C2([H])[H])C3([H])[H])c([H])c([H])c1[H]
     RDKit          2D

 66 70  0  0  0  0  0  0  0  0999 V2000
   12.6571   12.5852    0.0000 C   0  0  0  0  0  0  0  0  0  0  0  0
   12.0402   11.2179    0.0000 N   0  0  0  0  0  0  0  0  0  0  0  0
   10.5477   11.0686    0.0000 C   0  0  0  0  0  0  0  0  0  0  0  0
    9.6720   12.2865    0.0000 O   0  0  0  0  0  0  0  0  0  0  0  0
    9.9307    9.7013    0.0000 C   0  0  0  0  0  0  0  0  0  0  0  0
   10.8063    8.4834    0.0000 C   0  0  0  0  0  0  0  0  0  0  0  0
   10.1894    7.1161    0.0000 C   0  0  0  0  0  0  0  0  0  0  0  0
    8.6969    6.9668    0.0000 C   0  0  0  0  0  0  0  0  0  0  0  0
    8.0799    5.5995    0.0000 N   0  0  0  0  0  0  0  0  0  0  0  0
    6.5874    5.4502    0.0000 C   0  0  0  0  0  0  0  0  0  0  0  0
    5.7118    6.6681    0.0000 O   0  0  0  0  0  0  0  0  0  0  0  0
    5.9705    4.0829    0.0000 N   0  0  0  0  0  0  0  0  0  0  0  0
    6.8461    2.8650    0.0000 C   0  0  0  0  0  0  0  0  0  0  0  0
    6.2291    1.4978    0.0000 C   0  0  0  0  0  0  0  0  0  0  0  0
    4.7366    1.3484    0.0000 C   0  0  0  0  0  0  0  0  0  0  0  0
    3.8610    2.5663    0.0000 C   0  0  0  0  0  0  0  0  0  0  0  0
    4.4779    3.9336    0.0000 C   0  0  0  0  0  0  0  0  0  0  0  0
    3.3851    0.6976    0.0000 N   0  0  0  0  0  0  0  0  0  0  0  0
    3.3851   -0.8024    0.0000 C   0  0  0  0  0  0  0  0  0  0  0  0
    2.2124   -1.7376    0.0000 C   0  0  0  0  0  0  0  0  0  0  0  0
    0.7500   -1.2990    0.0000 C   0  0  0  0  0  0  0  0  0  0  0  0
    1.5000    0.0000    0.0000 C   0  0  0  0  0  0  0  0  0  0  0  0
    0.7500    1.2990    0.0000 C   0  0  0  0  0  0  0  0  0  0  0  0
   -0.7500    1.2990    0.0000 C   0  0  0  0  0  0  0  0  0  0  0  0
   -1.5000    0.0000    0.0000 C   0  0  0  0  0  0  0  0  0  0  0  0
   -0.7500   -1.2990    0.0000 C   0  0  0  0  0  0  0  0  0  0  0  0
   -1.5000   -2.5981    0.0000 C   0  0  0  0  0  0  0  0  0  0  0  0
   -3.0000   -2.5981    0.0000 C   0  0  0  0  0  0  0  0  0  0  0  0
   -3.7500   -3.8971    0.0000 C   0  0  0  0  0  0  0  0  0  0  0  0
   -3.0000   -5.1962    0.0000 C   0  0  0  0  0  0  0  0  0  0  0  0
   -1.5000   -5.1962    0.0000 C   0  0  0  0  0  0  0  0  0  0  0  0
   -0.7500   -3.8971    0.0000 N   0  0  0  0  0  0  0  0  0  0  0  0
    2.2124    1.6328    0.0000 C   0  0  0  0  0  0  0  0  0  0  0  0
    7.8212    8.1847    0.0000 C   0  0  0  0  0  0  0  0  0  0  0  0
    8.4382    9.5520    0.0000 C   0  0  0  0  0  0  0  0  0  0  0  0
   13.2741   13.9524    0.0000 H   0  0  0  0  0  0  0  0  0  0  0  0
   14.0244   11.9683    0.0000 H   0  0  0  0  0  0  0  0  0  0  0  0
   11.2899   13.2021    0.0000 H   0  0  0  0  0  0  0  0  0  0  0  0
   12.9158   10.0000    0.0000 H   0  0  0  0  0  0  0  0  0  0  0  0
   12.2989    8.6328    0.0000 H   0  0  0  0  0  0  0  0  0  0  0  0
   11.0650    5.8982    0.0000 H   0  0  0  0  0  0  0  0  0  0  0  0
    8.9555    4.3816    0.0000 H   0  0  0  0  0  0  0  0  0  0  0  0
    8.0854    2.0200    0.0000 H   0  0  0  0  0  0  0  0  0  0  0  0
    7.8934    3.9388    0.0000 H   0  0  0  0  0  0  0  0  0  0  0  0
    6.1383    0.2862    0.0000 H   0  0  0  0  0  0  0  0  0  0  0  0
    7.6828    1.1276    0.0000 H   0  0  0  0  0  0  0  0  0  0  0  0
    5.2058    0.2277    0.0000 H   0  0  0  0  0  0  0  0  0  0  0  0
    3.1291    3.0653    0.0000 H   0  0  0  0  0  0  0  0  0  0  0  0
    2.9307    1.9915    0.0000 H   0  0  0  0  0  0  0  0  0  0  0  0
    4.5900    5.4294    0.0000 H   0  0  0  0  0  0  0  0  0  0  0  0
    3.0243    4.3037    0.0000 H   0  0  0  0  0  0  0  0  0  0  0  0
    4.8773   -0.6494    0.0000 H   0  0  0  0  0  0  0  0  0  0  0  0
    4.1958   -2.0645    0.0000 H   0  0  0  0  0  0  0  0  0  0  0  0
    3.2624   -2.8089    0.0000 H   0  0  0  0  0  0  0  0  0  0  0  0
    1.5616   -3.0891    0.0000 H   0  0  0  0  0  0  0  0  0  0  0  0
    2.6789   -0.2940    0.0000 H   0  0  0  0  0  0  0  0  0  0  0  0
   -1.5000    2.5981    0.0000 H   0  0  0  0  0  0  0  0  0  0  0  0
   -3.0000    0.0000    0.0000 H   0  0  0  0  0  0  0  0  0  0  0  0
   -3.7500   -1.2990    0.0000 H   0  0  0  0  0  0  0  0  0  0  0  0
   -5.2500   -3.8971    0.0000 H   0  0  0  0  0  0  0  0  0  0  0  0
   -3.7500   -6.4952    0.0000 H   0  0  0  0  0  0  0  0  0  0  0  0
   -0.7500   -6.4952    0.0000 H   0  0  0  0  0  0  0  0  0  0  0  0
    1.5616    2.9843    0.0000 H   0  0  0  0  0  0  0  0  0  0  0  0
    2.6969    2.2659    0.0000 H   0  0  0  0  0  0  0  0  0  0  0  0
    6.3287    8.0354    0.0000 H   0  0  0  0  0  0  0  0  0  0  0  0
    7.5626   10.7699    0.0000 H   0  0  0  0  0  0  0  0  0  0  0  0
  1  2  1  0
  2  3  1  0
  3  4  2  0
  3  5  1  0
  5  6  2  0
  6  7  1  0
  7  8  2  0
  8  9  1  0
  9 10  1  0
 10 11  2  0
 10 12  1  0
 12 13  1  0
 13 14  1  0
 14 15  1  0
 15 16  1  0
 16 17  1  0
 15 18  1  0
 18 19  1  0
 19 20  1  0
 20 21  1  0
 21 22  1  0
 22 23  2  0
 23 24  1  0
 24 25  2  0
 25 26  1  0
 26 27  1  0
 27 28  2  0
 28 29  1  0
 29 30  2  0
 30 31  1  0
 31 32  2  0
 23 33  1  0
  8 34  1  0
 34 35  2  0
 35  5  1  0
 17 12  1  0
 33 18  1  0
 26 21  2  0
 32 27  1  0
  1 36  1  0
  1 37  1  0
  1 38  1  0
  2 39  1  0
  6 40  1  0
  7 41  1  0
  9 42  1  0
 13 43  1  0
 13 44  1  0
 14 45  1  0
 14 46  1  0
 15 47  1  0
 16 48  1  0
 16 49  1  0
 17 50  1  0
 17 51  1  0
 19 52  1  0
 19 53  1  0
 20 54  1  0
 20 55  1  0
 22 56  1  0
 24 57  1  0
 25 58  1  0
 28 59  1  0
 29 60  1  0
 30 61  1  0
 31 62  1  0
 33 63  1  0
 33 64  1  0
 34 65  1  0
 35 66  1  0
M  END
$$$$
[H]Oc1c([H])c([H])c(C([H])([H])[C@@]2([H])C(=O)[C@@]2(C([H])([H])[H])C([H])([H])C([H])([H])N2C(=O)C([H])([H])S(=O)(=O)c3c([H])c([H])c(OC([H])([H])[H])c(c3[H])C2([H])[H])c([H])c1[H]
     RDKit          2D

 56 59  0  0  0  0  0  0  0  0999 V2000
   -6.6962    1.5000    0.0000 C   0  0  0  0  0  0  0  0  0  0  0  0
   -5.3971    2.2500    0.0000 O   0  0  0  0  0  0  0  0  0  0  0  0
   -4.0981    1.5000    0.0000 C   0  0  0  0  0  0  0  0  0  0  0  0
   -4.0981   -0.0000    0.0000 C   0  0  0  0  0  0  0  0  0  0  0  0
   -2.7990   -0.7500    0.0000 C   0  0  0  0  0  0  0  0  0  0  0  0
   -1.5000   -0.0000    0.0000 C   0  0  0  0  0  0  0  0  0  0  0  0
   -1.5000    1.5000    0.0000 C   0  0  0  0  0  0  0  0  0  0  0  0
   -2.7990    2.2500    0.0000 C   0  0  0  0  0  0  0  0  0  0  0  0
   -1.9727    3.5903    0.0000 C   0  0  0  0  0  0  0  0  0  0  0  0
   -0.4855    3.7861    0.0000 N   0  0  0  0  0  0  0  0  0  0  0  0
   -0.0973    5.2350    0.0000 C   0  0  0  0  0  0  0  0  0  0  0  0
    0.2909    6.6839    0.0000 C   0  0  0  0  0  0  0  0  0  0  0  0
    0.6792    8.1328    0.0000 C   0  0  0  0  0  0  0  0  0  0  0  0
    2.1735    8.0021    0.0000 C   0  0  0  0  0  0  0  0  0  0  0  0
    0.5484    9.6271    0.0000 C   0  0  0  0  0  0  0  0  0  0  0  0
    1.9973   10.0153    0.0000 C   0  0  0  0  0  0  0  0  0  0  0  0
    3.4462   10.4035    0.0000 C   0  0  0  0  0  0  0  0  0  0  0  0
    4.5069    9.3429    0.0000 C   0  0  0  0  0  0  0  0  0  0  0  0
    5.9558    9.7311    0.0000 C   0  0  0  0  0  0  0  0  0  0  0  0
    6.3440   11.1800    0.0000 C   0  0  0  0  0  0  0  0  0  0  0  0
    7.7929   11.5682    0.0000 O   0  0  0  0  0  0  0  0  0  0  0  0
    5.2833   12.2407    0.0000 C   0  0  0  0  0  0  0  0  0  0  0  0
    3.8344   11.8524    0.0000 C   0  0  0  0  0  0  0  0  0  0  0  0
   -0.6803    8.7667    0.0000 C   0  0  0  0  0  0  0  0  0  0  0  0
   -2.1746    8.6360    0.0000 O   0  0  0  0  0  0  0  0  0  0  0  0
   -0.0128    0.1958    0.0000 S   0  0  0  0  0  0  0  0  0  0  0  0
   -0.2086   -1.2914    0.0000 O   0  0  0  0  0  0  0  0  0  0  0  0
    1.2927   -0.5429    0.0000 O   0  0  0  0  0  0  0  0  0  0  0  0
    0.9003    1.3858    0.0000 C   0  0  0  0  0  0  0  0  0  0  0  0
    0.7045    2.8730    0.0000 C   0  0  0  0  0  0  0  0  0  0  0  0
    2.0036    3.6230    0.0000 O   0  0  0  0  0  0  0  0  0  0  0  0
   -7.9952    0.7500    0.0000 H   0  0  0  0  0  0  0  0  0  0  0  0
   -7.4462    2.7990    0.0000 H   0  0  0  0  0  0  0  0  0  0  0  0
   -5.9462    0.2010    0.0000 H   0  0  0  0  0  0  0  0  0  0  0  0
   -5.3971   -0.7500    0.0000 H   0  0  0  0  0  0  0  0  0  0  0  0
   -2.7990   -2.2500    0.0000 H   0  0  0  0  0  0  0  0  0  0  0  0
   -0.2010    2.2500    0.0000 H   0  0  0  0  0  0  0  0  0  0  0  0
   -1.9609    4.9403    0.0000 H   0  0  0  0  0  0  0  0  0  0  0  0
   -3.3585    4.1644    0.0000 H   0  0  0  0  0  0  0  0  0  0  0  0
    1.3516    4.8468    0.0000 H   0  0  0  0  0  0  0  0  0  0  0  0
   -1.3490    5.7408    0.0000 H   0  0  0  0  0  0  0  0  0  0  0  0
    1.4175    6.2287    0.0000 H   0  0  0  0  0  0  0  0  0  0  0  0
   -1.1579    7.0721    0.0000 H   0  0  0  0  0  0  0  0  0  0  0  0
    3.6407    7.6902    0.0000 H   0  0  0  0  0  0  0  0  0  0  0  0
    2.4330    8.7558    0.0000 H   0  0  0  0  0  0  0  0  0  0  0  0
    2.2159    6.7878    0.0000 H   0  0  0  0  0  0  0  0  0  0  0  0
   -0.0855   10.9865    0.0000 H   0  0  0  0  0  0  0  0  0  0  0  0
    2.3838    9.3181    0.0000 H   0  0  0  0  0  0  0  0  0  0  0  0
    1.6091   11.4642    0.0000 H   0  0  0  0  0  0  0  0  0  0  0  0
    4.2982    7.8575    0.0000 H   0  0  0  0  0  0  0  0  0  0  0  0
    7.0164    8.6705    0.0000 H   0  0  0  0  0  0  0  0  0  0  0  0
    8.1811   13.0171    0.0000 H   0  0  0  0  0  0  0  0  0  0  0  0
    5.6716   13.6896    0.0000 H   0  0  0  0  0  0  0  0  0  0  0  0
    2.7738   12.9131    0.0000 H   0  0  0  0  0  0  0  0  0  0  0  0
    1.9517    0.3160    0.0000 H   0  0  0  0  0  0  0  0  0  0  0  0
    2.2861    1.9598    0.0000 H   0  0  0  0  0  0  0  0  0  0  0  0
  1  2  1  0
  2  3  1  0
  3  4  2  0
  4  5  1  0
  5  6  2  0
  6  7  1  0
  7  8  2  0
  8  9  1  0
  9 10  1  0
 10 11  1  0
 11 12  1  0
 13 12  1  6
 13 14  1  0
 13 15  1  0
 15 16  1  0
 16 17  1  0
 17 18  2  0
 18 19  1  0
 19 20  2  0
 20 21  1  0
 20 22  1  0
 22 23  2  0
 15 24  1  0
 24 25  2  0
  6 26  1  0
 26 27  2  0
 26 28  2  0
 26 29  1  0
 29 30  1  0
 30 31  2  0
  8  3  1  0
 30 10  1  0
 24 13  1  0
 23 17  1  0
  1 32  1  0
  1 33  1  0
  1 34  1  0
  4 35  1  0
  5 36  1  0
  7 37  1  0
  9 38  1  0
  9 39  1  0
 11 40  1  0
 11 41  1  0
 12 42  1  0
 12 43  1  0
 14 44  1  0
 14 45  1  0
 14 46  1  0
 15 47  1  1
 16 48  1  0
 16 49  1  0
 18 50  1  0
 19 51  1  0
 21 52  1  0
 22 53  1  0
 23 54  1  0
 29 55  1  0
 29 56  1  0
M  END
$$$$
[H]c1nc([H])n(C([H])([H])C(=O)N2C([H])([H])C([H])([H])C([H])(N([H])S(=O)(=O)c3c([H])c([H])c(OC([H])([H])[H])c([H])c3[H])C([H])([H])C2([H])[H])n1
     RDKit          3D

 47 49  0  0  0  0  0  0  0  0999 V2000
    6.5985    2.1594   -1.0569 C   0  0  0  0  0  0  0  0  0  0  0  0
    5.9985    0.9482   -1.4777 O   0  0  0  0  0  0  0  0  0  0  0  0
    5.0676    0.3389   -0.6474 C   0  0  0  0  0  0  0  0  0  0  0  0
    4.7205    0.8893    0.5701 C   0  0  0  0  0  0  0  0  0  0  0  0
    3.7909    0.2792    1.3975 C   0  0  0  0  0  0  0  0  0  0  0  0
    3.1673   -0.9099    1.0422 C   0  0  0  0  0  0  0  0  0  0  0  0
    3.5205   -1.4516   -0.1752 C   0  0  0  0  0  0  0  0  0  0  0  0
    4.4488   -0.8405   -0.9994 C   0  0  0  0  0  0  0  0  0  0  0  0
    1.9955   -1.6617    2.1119 S   0  0  0  0  0  0  0  0  0  0  0  0
    1.9622   -3.1530    1.9075 O   0  0  0  0  0  0  0  0  0  0  0  0
    2.3740   -1.3139    3.5212 O   0  0  0  0  0  0  0  0  0  0  0  0
    0.4501   -1.0346    1.7639 N   0  0  0  0  0  0  0  0  0  0  0  0
   -0.0006   -1.3029    0.4133 C   0  0  0  0  0  0  0  0  0  0  0  0
   -0.1666    0.0624   -0.2645 C   0  0  0  0  0  0  0  0  0  0  0  0
   -1.1331   -0.0400   -1.4222 C   0  0  0  0  0  0  0  0  0  0  0  0
   -2.4406   -0.3480   -0.8634 N   0  0  0  0  0  0  0  0  0  0  0  0
   -2.4679   -0.9604    0.4283 C   0  0  0  0  0  0  0  0  0  0  0  0
   -1.3496   -2.0081    0.4972 C   0  0  0  0  0  0  0  0  0  0  0  0
   -3.5804   -0.0199   -1.6339 C   0  0  0  0  0  0  0  0  0  0  0  0
   -3.4555    0.5231   -2.7675 O   0  0  0  0  0  0  0  0  0  0  0  0
   -4.9353   -0.2999   -1.1393 C   0  0  0  0  0  0  0  0  0  0  0  0
   -5.4333    0.8299   -0.3766 N   0  0  0  0  0  0  0  0  0  0  0  0
   -6.1157    1.8595   -0.8669 C   0  0  0  0  0  0  0  0  0  0  0  0
   -6.3909    2.6839    0.1481 N   0  0  0  0  0  0  0  0  0  0  0  0
   -5.8712    2.1489    1.2593 C   0  0  0  0  0  0  0  0  0  0  0  0
   -5.2869    1.0121    0.9226 N   0  0  0  0  0  0  0  0  0  0  0  0
    7.4012    2.4690   -1.7582 H   0  0  0  0  0  0  0  0  0  0  0  0
    5.7734    2.9191   -1.0165 H   0  0  0  0  0  0  0  0  0  0  0  0
    6.9986    2.0887   -0.0241 H   0  0  0  0  0  0  0  0  0  0  0  0
    5.1907    1.8211    0.8792 H   0  0  0  0  0  0  0  0  0  0  0  0
    3.5118    0.7107    2.3628 H   0  0  0  0  0  0  0  0  0  0  0  0
    3.0498   -2.3793   -0.4752 H   0  0  0  0  0  0  0  0  0  0  0  0
    4.7260   -1.2721   -1.9628 H   0  0  0  0  0  0  0  0  0  0  0  0
    0.2904   -0.0717    2.0746 H   0  0  0  0  0  0  0  0  0  0  0  0
    0.7365   -1.8706   -0.1570 H   0  0  0  0  0  0  0  0  0  0  0  0
    0.8443    0.3549   -0.6148 H   0  0  0  0  0  0  0  0  0  0  0  0
   -0.5096    0.7923    0.4862 H   0  0  0  0  0  0  0  0  0  0  0  0
   -1.1750    0.9358   -1.9150 H   0  0  0  0  0  0  0  0  0  0  0  0
   -0.7877   -0.8078   -2.1179 H   0  0  0  0  0  0  0  0  0  0  0  0
   -2.2626   -0.2008    1.2298 H   0  0  0  0  0  0  0  0  0  0  0  0
   -3.4173   -1.4501    0.6279 H   0  0  0  0  0  0  0  0  0  0  0  0
   -1.4406   -2.6197    1.4066 H   0  0  0  0  0  0  0  0  0  0  0  0
   -1.4608   -2.6989   -0.3768 H   0  0  0  0  0  0  0  0  0  0  0  0
   -5.0477   -1.2104   -0.5484 H   0  0  0  0  0  0  0  0  0  0  0  0
   -5.6017   -0.4269   -2.0413 H   0  0  0  0  0  0  0  0  0  0  0  0
   -6.3966    2.0015   -1.9041 H   0  0  0  0  0  0  0  0  0  0  0  0
   -5.8898    2.5250    2.2783 H   0  0  0  0  0  0  0  0  0  0  0  0
  1  2  1  0
  2  3  1  0
  3  4  2  0
  4  5  1  0
  5  6  2  0
  6  7  1  0
  7  8  2  0
  6  9  1  0
  9 10  2  0
  9 11  2  0
  9 12  1  0
 12 13  1  0
 13 14  1  0
 14 15  1  0
 15 16  1  0
 16 17  1  0
 17 18  1  0
 16 19  1  0
 19 20  2  0
 19 21  1  0
 21 22  1  0
 22 23  1  0
 23 24  2  0
 24 25  1  0
 25 26  2  0
  8  3  1  0
 18 13  1  0
 26 22  1  0
  1 27  1  0
  1 28  1  0
  1 29  1  0
  4 30  1  0
  5 31  1  0
  7 32  1  0
  8 33  1  0
 12 34  1  0
 13 35  1  0
 14 36  1  0
 14 37  1  0
 15 38  1  0
 15 39  1  0
 17 40  1  0
 17 41  1  0
 18 42  1  0
 18 43  1  0
 21 44  1  0
 21 45  1  0
 23 46  1  0
 25 47  1  0
M  END
$$$$
[H]c1nc([H])c(-c2c([H])c([H])c([H])c([H])c2N([H])[C@]2([H])C([H])([H])C([H])([H])[C@]([H])(C(=O)C([H])([H])C([H])([H])C([H])([H])N([H])C([H])([H])[H])C([H])([H])C2([H])[H])c([H])c1[H]
     RDKit          3D

 55 57  0  0  0  0  0  0  0  0999 V2000
   -7.6001    1.0395    1.0775 C   0  0  0  0  0  0  0  0  0  0  0  0
   -6.2765    0.3994    0.8934 N   0  0  0  0  0  0  0  0  0  0  0  0
   -6.4701   -0.5958   -0.1209 C   0  0  0  0  0  0  0  0  0  0  0  0
   -5.3885   -1.5457   -0.3962 C   0  0  0  0  0  0  0  0  0  0  0  0
   -4.0491   -1.1254   -0.8085 C   0  0  0  0  0  0  0  0  0  0  0  0
   -3.1805   -0.4199    0.1282 C   0  0  0  0  0  0  0  0  0  0  0  0
   -3.4821   -0.2632    1.2883 O   0  0  0  0  0  0  0  0  0  0  0  0
   -1.8464    0.1427   -0.3413 C   0  0  1  0  0  0  0  0  0  0  0  0
   -1.2076    0.7994    0.8458 C   0  0  0  0  0  0  0  0  0  0  0  0
    0.1857    1.2721    0.6515 C   0  0  0  0  0  0  0  0  0  0  0  0
    0.9143    0.3691   -0.3583 C   0  0  2  0  0  0  0  0  0  0  0  0
    0.3490   -1.0078   -0.0852 C   0  0  0  0  0  0  0  0  0  0  0  0
   -1.0040   -1.0379   -0.8005 C   0  0  0  0  0  0  0  0  0  0  0  0
    2.3473    0.4583   -0.1043 N   0  0  0  0  0  0  0  0  0  0  0  0
    3.2682   -0.1271   -1.0290 C   0  0  0  0  0  0  0  0  0  0  0  0
    2.7808   -0.7930   -2.1622 C   0  0  0  0  0  0  0  0  0  0  0  0
    3.6895   -1.3800   -3.0217 C   0  0  0  0  0  0  0  0  0  0  0  0
    5.0426   -1.3127   -2.7737 C   0  0  0  0  0  0  0  0  0  0  0  0
    5.5423   -0.6746   -1.6903 C   0  0  0  0  0  0  0  0  0  0  0  0
    4.6246   -0.0693   -0.8031 C   0  0  0  0  0  0  0  0  0  0  0  0
    5.1661    0.6737    0.3384 C   0  0  0  0  0  0  0  0  0  0  0  0
    6.0031    0.0512    1.2457 C   0  0  0  0  0  0  0  0  0  0  0  0
    6.5691    0.7318    2.3082 C   0  0  0  0  0  0  0  0  0  0  0  0
    6.3177    2.0694    2.5040 C   0  0  0  0  0  0  0  0  0  0  0  0
    5.4931    2.6611    1.6010 N   0  0  0  0  0  0  0  0  0  0  0  0
    4.9369    2.0144    0.5667 C   0  0  0  0  0  0  0  0  0  0  0  0
   -7.4713    2.0539    1.4885 H   0  0  0  0  0  0  0  0  0  0  0  0
   -8.1459    0.4269    1.8445 H   0  0  0  0  0  0  0  0  0  0  0  0
   -8.1854    0.9864    0.1430 H   0  0  0  0  0  0  0  0  0  0  0  0
   -5.6804    1.1605    0.4270 H   0  0  0  0  0  0  0  0  0  0  0  0
   -6.7364   -0.0057   -1.0582 H   0  0  0  0  0  0  0  0  0  0  0  0
   -7.4603   -1.1341    0.0751 H   0  0  0  0  0  0  0  0  0  0  0  0
   -5.8173   -2.3157   -1.1280 H   0  0  0  0  0  0  0  0  0  0  0  0
   -5.2590   -2.1748    0.5557 H   0  0  0  0  0  0  0  0  0  0  0  0
   -4.1860   -0.4139   -1.6929 H   0  0  0  0  0  0  0  0  0  0  0  0
   -3.5043   -1.9857   -1.3110 H   0  0  0  0  0  0  0  0  0  0  0  0
   -2.0742    0.8462   -1.1688 H   0  0  0  0  0  0  0  0  0  0  0  0
   -1.3072    0.0812    1.7140 H   0  0  0  0  0  0  0  0  0  0  0  0
   -1.8770    1.6658    1.1321 H   0  0  0  0  0  0  0  0  0  0  0  0
    0.2916    2.3316    0.3646 H   0  0  0  0  0  0  0  0  0  0  0  0
    0.7487    1.0938    1.6149 H   0  0  0  0  0  0  0  0  0  0  0  0
    0.7278    0.7029   -1.3736 H   0  0  0  0  0  0  0  0  0  0  0  0
    0.9405   -1.8467   -0.3992 H   0  0  0  0  0  0  0  0  0  0  0  0
    0.1801   -1.1189    1.0160 H   0  0  0  0  0  0  0  0  0  0  0  0
   -1.5192   -1.9602   -0.5048 H   0  0  0  0  0  0  0  0  0  0  0  0
   -0.8833   -1.0151   -1.8829 H   0  0  0  0  0  0  0  0  0  0  0  0
    2.6594    0.9340    0.7518 H   0  0  0  0  0  0  0  0  0  0  0  0
    1.7226   -0.8142   -2.3352 H   0  0  0  0  0  0  0  0  0  0  0  0
    3.3104   -1.8970   -3.8989 H   0  0  0  0  0  0  0  0  0  0  0  0
    5.7553   -1.7826   -3.4606 H   0  0  0  0  0  0  0  0  0  0  0  0
    6.6022   -0.5874   -1.4407 H   0  0  0  0  0  0  0  0  0  0  0  0
    6.1922   -1.0136    1.0777 H   0  0  0  0  0  0  0  0  0  0  0  0
    7.2218    0.2396    3.0141 H   0  0  0  0  0  0  0  0  0  0  0  0
    6.7359    2.6626    3.3225 H   0  0  0  0  0  0  0  0  0  0  0  0
    4.2931    2.5507   -0.1076 H   0  0  0  0  0  0  0  0  0  0  0  0
  1  2  1  0
  2  3  1  0
  3  4  1  0
  4  5  1  0
  5  6  1  0
  6  7  2  0
  6  8  1  0
  8  9  1  0
  9 10  1  0
 10 11  1  0
 11 12  1  0
 12 13  1  0
 11 14  1  0
 14 15  1  0
 15 16  2  0
 16 17  1  0
 17 18  2  0
 18 19  1  0
 19 20  2  0
 20 21  1  0
 21 22  2  0
 22 23  1  0
 23 24  2  0
 24 25  1  0
 25 26  2  0
 13  8  1  0
 20 15  1  0
 26 21  1  0
  1 27  1  0
  1 28  1  0
  1 29  1  0
  2 30  1  0
  3 31  1  0
  3 32  1  0
  4 33  1  0
  4 34  1  0
  5 35  1  0
  5 36  1  0
  8 37  1  6
  9 38  1  0
  9 39  1  0
 10 40  1  0
 10 41  1  0
 11 42  1  6
 12 43  1  0
 12 44  1  0
 13 45  1  0
 13 46  1  0
 14 47  1  0
 16 48  1  0
 17 49  1  0
 18 50  1  0
 19 51  1  0
 22 52  1  0
 23 53  1  0
 24 54  1  0
 26 55  1  0
M  END
$$$$
[H]c1nc2c(N([H])C3([H])C([H])([H])C([H])([H])N(C(=O)C4([H])C([H])([H])C([H])([H])OC([H])([H])C4([H])[H])C([H])([H])C3([H])[H])nc(Oc3c([H])c([H])c([H])c([H])c3C([H])([H])[H])nc2c([H])c1[H]
     RDKit          3D

 62 66  0  0  0  0  0  0  0  0999 V2000
   -2.8946   -3.4432    0.0401 C   0  0  0  0  0  0  0  0  0  0  0  0
   -4.2840   -2.9529    0.1772 C   0  0  0  0  0  0  0  0  0  0  0  0
   -5.3363   -3.8243    0.2241 C   0  0  0  0  0  0  0  0  0  0  0  0
   -6.6222   -3.3301    0.3529 C   0  0  0  0  0  0  0  0  0  0  0  0
   -6.8373   -1.9770    0.4326 C   0  0  0  0  0  0  0  0  0  0  0  0
   -5.7409   -1.1246    0.3810 C   0  0  0  0  0  0  0  0  0  0  0  0
   -4.4397   -1.5491    0.2543 C   0  0  0  0  0  0  0  0  0  0  0  0
   -3.3537   -0.7744    0.1999 O   0  0  0  0  0  0  0  0  0  0  0  0
   -3.1229    0.5528    0.2411 C   0  0  0  0  0  0  0  0  0  0  0  0
   -1.8236    1.0231    0.1542 N   0  0  0  0  0  0  0  0  0  0  0  0
   -1.4993    2.3147    0.1859 C   0  0  0  0  0  0  0  0  0  0  0  0
   -0.1938    2.8054    0.1043 N   0  0  0  0  0  0  0  0  0  0  0  0
    1.0098    2.0397   -0.0371 C   0  0  0  0  0  0  0  0  0  0  0  0
    1.1006    1.2500   -1.3075 C   0  0  0  0  0  0  0  0  0  0  0  0
    2.1867    0.2106   -1.3123 C   0  0  0  0  0  0  0  0  0  0  0  0
    2.6266   -0.1419   -0.0003 N   0  0  0  0  0  0  0  0  0  0  0  0
    1.5911   -0.1803    1.0053 C   0  0  0  0  0  0  0  0  0  0  0  0
    1.2055    1.2618    1.2293 C   0  0  0  0  0  0  0  0  0  0  0  0
    3.9535   -0.4428    0.3699 C   0  0  0  0  0  0  0  0  0  0  0  0
    4.2610   -0.7442    1.5692 O   0  0  0  0  0  0  0  0  0  0  0  0
    5.0780   -0.4245   -0.6313 C   0  0  0  0  0  0  0  0  0  0  0  0
    4.8726   -1.4642   -1.6874 C   0  0  0  0  0  0  0  0  0  0  0  0
    5.8214   -2.6447   -1.5803 C   0  0  0  0  0  0  0  0  0  0  0  0
    7.1167   -2.2431   -1.2787 O   0  0  0  0  0  0  0  0  0  0  0  0
    7.0736   -1.8104    0.0584 C   0  0  0  0  0  0  0  0  0  0  0  0
    6.3984   -0.4582    0.0553 C   0  0  0  0  0  0  0  0  0  0  0  0
   -2.5581    3.1928    0.3142 C   0  0  0  0  0  0  0  0  0  0  0  0
   -2.3377    4.4962    0.3551 N   0  0  0  0  0  0  0  0  0  0  0  0
   -3.2823    5.4437    0.4770 C   0  0  0  0  0  0  0  0  0  0  0  0
   -4.5954    5.0334    0.5680 C   0  0  0  0  0  0  0  0  0  0  0  0
   -4.8984    3.6888    0.5321 C   0  0  0  0  0  0  0  0  0  0  0  0
   -3.8645    2.7523    0.4033 C   0  0  0  0  0  0  0  0  0  0  0  0
   -4.1043    1.4443    0.3637 N   0  0  0  0  0  0  0  0  0  0  0  0
   -2.7654   -4.4552    0.5258 H   0  0  0  0  0  0  0  0  0  0  0  0
   -2.1398   -2.7576    0.4775 H   0  0  0  0  0  0  0  0  0  0  0  0
   -2.7113   -3.5863   -1.0470 H   0  0  0  0  0  0  0  0  0  0  0  0
   -5.2294   -4.8999    0.1656 H   0  0  0  0  0  0  0  0  0  0  0  0
   -7.4829   -3.9756    0.3944 H   0  0  0  0  0  0  0  0  0  0  0  0
   -7.8117   -1.5321    0.5336 H   0  0  0  0  0  0  0  0  0  0  0  0
   -5.9665   -0.0616    0.4482 H   0  0  0  0  0  0  0  0  0  0  0  0
   -0.0600    3.8648    0.1507 H   0  0  0  0  0  0  0  0  0  0  0  0
    1.9146    2.7251   -0.0867 H   0  0  0  0  0  0  0  0  0  0  0  0
    0.1376    0.7374   -1.4624 H   0  0  0  0  0  0  0  0  0  0  0  0
    1.2659    1.8958   -2.1917 H   0  0  0  0  0  0  0  0  0  0  0  0
    3.0748    0.5282   -1.8996 H   0  0  0  0  0  0  0  0  0  0  0  0
    1.8084   -0.7137   -1.8070 H   0  0  0  0  0  0  0  0  0  0  0  0
    0.6780   -0.7038    0.6531 H   0  0  0  0  0  0  0  0  0  0  0  0
    1.9594   -0.5857    1.9703 H   0  0  0  0  0  0  0  0  0  0  0  0
    0.2356    1.2002    1.7909 H   0  0  0  0  0  0  0  0  0  0  0  0
    1.9296    1.7622    1.9374 H   0  0  0  0  0  0  0  0  0  0  0  0
    5.0317    0.5794   -1.1544 H   0  0  0  0  0  0  0  0  0  0  0  0
    3.8454   -1.9278   -1.5944 H   0  0  0  0  0  0  0  0  0  0  0  0
    5.0253   -1.0439   -2.6903 H   0  0  0  0  0  0  0  0  0  0  0  0
    5.8484   -3.1400   -2.5677 H   0  0  0  0  0  0  0  0  0  0  0  0
    5.4104   -3.3418   -0.8127 H   0  0  0  0  0  0  0  0  0  0  0  0
    8.0934   -1.6621    0.4691 H   0  0  0  0  0  0  0  0  0  0  0  0
    6.4998   -2.5567    0.6165 H   0  0  0  0  0  0  0  0  0  0  0  0
    7.1134    0.3179   -0.2878 H   0  0  0  0  0  0  0  0  0  0  0  0
    6.2149   -0.2187    1.1436 H   0  0  0  0  0  0  0  0  0  0  0  0
   -3.0773    6.5061    0.5085 H   0  0  0  0  0  0  0  0  0  0  0  0
   -5.4191    5.7397    0.6687 H   0  0  0  0  0  0  0  0  0  0  0  0
   -5.9301    3.3263    0.6022 H   0  0  0  0  0  0  0  0  0  0  0  0
  1  2  1  0
  2  3  2  0
  3  4  1  0
  4  5  2  0
  5  6  1  0
  6  7  2  0
  7  8  1  0
  8  9  1  0
  9 10  2  0
 10 11  1  0
 11 12  1  0
 12 13  1  0
 13 14  1  0
 14 15  1  0
 15 16  1  0
 16 17  1  0
 17 18  1  0
 16 19  1  0
 19 20  2  0
 19 21  1  0
 21 22  1  0
 22 23  1  0
 23 24  1  0
 24 25  1  0
 25 26  1  0
 11 27  2  0
 27 28  1  0
 28 29  2  0
 29 30  1  0
 30 31  2  0
 31 32  1  0
 32 33  2  0
  7  2  1  0
 33  9  1  0
 18 13  1  0
 26 21  1  0
 32 27  1  0
  1 34  1  0
  1 35  1  0
  1 36  1  0
  3 37  1  0
  4 38  1  0
  5 39  1  0
  6 40  1  0
 12 41  1  0
 13 42  1  0
 14 43  1  0
 14 44  1  0
 15 45  1  0
 15 46  1  0
 17 47  1  0
 17 48  1  0
 18 49  1  0
 18 50  1  0
 21 51  1  0
 22 52  1  0
 22 53  1  0
 23 54  1  0
 23 55  1  0
 25 56  1  0
 25 57  1  0
 26 58  1  0
 26 59  1  0
 29 60  1  0
 30 61  1  0
 31 62  1  0
M  END
$$$$
[H]c1nc(N([H])C(=O)c2c([H])c([H])c(N3C([H])([H])C([H])([H])OC([H])([H])C3([H])[H])c([H])c2[H])nc(N([H])c2c([H])c([H])c([H])c([H])c2C(=O)N([H])C([H])([H])[H])c1Br
     RDKit          3D

 56 59  0  0  0  0  0  0  0  0999 V2000
   -9.4455   -0.3076    1.9894 C   0  0  0  0  0  0  0  0  0  0  0  0
   -8.4144   -0.9216    1.1314 N   0  0  0  0  0  0  0  0  0  0  0  0
   -7.1508   -0.2821    0.9053 C   0  0  0  0  0  0  0  0  0  0  0  0
   -7.0080    0.8364    1.4973 O   0  0  0  0  0  0  0  0  0  0  0  0
   -6.1634   -0.9088    0.0618 C   0  0  0  0  0  0  0  0  0  0  0  0
   -6.4270   -2.2097   -0.3701 C   0  0  0  0  0  0  0  0  0  0  0  0
   -5.4846   -2.9199   -1.1140 C   0  0  0  0  0  0  0  0  0  0  0  0
   -4.2923   -2.3293   -1.4201 C   0  0  0  0  0  0  0  0  0  0  0  0
   -4.0402   -1.0358   -0.9883 C   0  0  0  0  0  0  0  0  0  0  0  0
   -4.9470   -0.2943   -0.2486 C   0  0  0  0  0  0  0  0  0  0  0  0
   -4.6979    1.0553    0.0767 N   0  0  0  0  0  0  0  0  0  0  0  0
   -3.4509    1.7188    0.1641 C   0  0  0  0  0  0  0  0  0  0  0  0
   -2.2483    1.1169    0.0049 N   0  0  0  0  0  0  0  0  0  0  0  0
   -1.0782    1.7546    0.1197 C   0  0  0  0  0  0  0  0  0  0  0  0
    0.1694    1.1148   -0.0511 N   0  0  0  0  0  0  0  0  0  0  0  0
    1.3779    1.8146    0.0739 C   0  0  0  0  0  0  0  0  0  0  0  0
    1.3617    3.0646    0.3509 O   0  0  0  0  0  0  0  0  0  0  0  0
    2.6771    1.1845   -0.0986 C   0  0  0  0  0  0  0  0  0  0  0  0
    3.8200    1.9650   -0.1119 C   0  0  0  0  0  0  0  0  0  0  0  0
    5.0720    1.4268   -0.2721 C   0  0  0  0  0  0  0  0  0  0  0  0
    5.2549    0.0608   -0.4301 C   0  0  0  0  0  0  0  0  0  0  0  0
    4.1258   -0.7157   -0.4174 C   0  0  0  0  0  0  0  0  0  0  0  0
    2.8511   -0.1641   -0.2538 C   0  0  0  0  0  0  0  0  0  0  0  0
    6.5409   -0.5110   -0.6024 N   0  0  0  0  0  0  0  0  0  0  0  0
    6.7460   -1.9410   -0.6751 C   0  0  0  0  0  0  0  0  0  0  0  0
    8.1058   -2.2338   -0.0799 C   0  0  0  0  0  0  0  0  0  0  0  0
    9.1380   -1.5858   -0.6938 O   0  0  0  0  0  0  0  0  0  0  0  0
    8.7482   -0.5102   -1.4763 C   0  0  0  0  0  0  0  0  0  0  0  0
    7.7163    0.3242   -0.7191 C   0  0  0  0  0  0  0  0  0  0  0  0
   -1.0907    3.0746    0.4111 N   0  0  0  0  0  0  0  0  0  0  0  0
   -2.2629    3.7319    0.5817 C   0  0  0  0  0  0  0  0  0  0  0  0
   -3.4759    3.0919    0.4673 C   0  0  0  0  0  0  0  0  0  0  0  0
   -5.1258    4.0076    0.6988 Br  0  0  0  0  0  0  0  0  0  0  0  0
  -10.0362    0.3393    1.3191 H   0  0  0  0  0  0  0  0  0  0  0  0
   -8.9439    0.3294    2.7332 H   0  0  0  0  0  0  0  0  0  0  0  0
  -10.0327   -1.0871    2.4972 H   0  0  0  0  0  0  0  0  0  0  0  0
   -8.6831   -1.8153    0.7236 H   0  0  0  0  0  0  0  0  0  0  0  0
   -7.3519   -2.7212   -0.1528 H   0  0  0  0  0  0  0  0  0  0  0  0
   -5.7117   -3.9355   -1.4408 H   0  0  0  0  0  0  0  0  0  0  0  0
   -3.5386   -2.8741   -2.0038 H   0  0  0  0  0  0  0  0  0  0  0  0
   -3.0953   -0.6247   -1.2786 H   0  0  0  0  0  0  0  0  0  0  0  0
   -5.5363    1.6515    0.2300 H   0  0  0  0  0  0  0  0  0  0  0  0
    0.1628    0.1004   -0.2755 H   0  0  0  0  0  0  0  0  0  0  0  0
    3.7573    3.0454    0.0067 H   0  0  0  0  0  0  0  0  0  0  0  0
    5.9299    2.0757   -0.2735 H   0  0  0  0  0  0  0  0  0  0  0  0
    4.1630   -1.7867   -0.5335 H   0  0  0  0  0  0  0  0  0  0  0  0
    1.9701   -0.7948   -0.2442 H   0  0  0  0  0  0  0  0  0  0  0  0
    6.6013   -2.3608   -1.6762 H   0  0  0  0  0  0  0  0  0  0  0  0
    6.0130   -2.4076    0.0255 H   0  0  0  0  0  0  0  0  0  0  0  0
    8.2614   -3.3372   -0.2065 H   0  0  0  0  0  0  0  0  0  0  0  0
    8.0566   -2.0796    1.0260 H   0  0  0  0  0  0  0  0  0  0  0  0
    9.5799    0.0840   -1.8484 H   0  0  0  0  0  0  0  0  0  0  0  0
    8.2050   -0.9359   -2.3600 H   0  0  0  0  0  0  0  0  0  0  0  0
    8.0899    0.5882    0.2918 H   0  0  0  0  0  0  0  0  0  0  0  0
    7.5139    1.2722   -1.2546 H   0  0  0  0  0  0  0  0  0  0  0  0
   -2.2754    4.8021    0.8181 H   0  0  0  0  0  0  0  0  0  0  0  0
  1  2  1  0
  2  3  1  0
  3  4  2  0
  3  5  1  0
  5  6  2  0
  6  7  1  0
  7  8  2  0
  8  9  1  0
  9 10  2  0
 10 11  1  0
 11 12  1  0
 12 13  2  0
 13 14  1  0
 14 15  1  0
 15 16  1  0
 16 17  2  0
 16 18  1  0
 18 19  2  0
 19 20  1  0
 20 21  2  0
 21 22  1  0
 22 23  2  0
 21 24  1  0
 24 25  1  0
 25 26  1  0
 26 27  1  0
 27 28  1  0
 28 29  1  0
 14 30  2  0
 30 31  1  0
 31 32  2  0
 32 33  1  0
 10  5  1  0
 32 12  1  0
 23 18  1  0
 29 24  1  0
  1 34  1  0
  1 35  1  0
  1 36  1  0
  2 37  1  0
  6 38  1  0
  7 39  1  0
  8 40  1  0
  9 41  1  0
 11 42  1  0
 15 43  1  0
 19 44  1  0
 20 45  1  0
 22 46  1  0
 23 47  1  0
 25 48  1  0
 25 49  1  0
 26 50  1  0
 26 51  1  0
 28 52  1  0
 28 53  1  0
 29 54  1  0
 29 55  1  0
 31 56  1  0
M  END
$$$$
[H]O[C@]([H])(C([H])([H])[C@]1([H])N([H])C(=O)C1([H])[H])[C@]1([H])OC(=O)N([H])c2c([H])c(-c3c([H])c([H])c(OC([H])([H])[H])c([H])c3[H])c([H])c([H])c2C([H])([H])[C@@]1([H])C([H])([H])[H]
     RDKit          3D

 56 59  0  0  0  0  0  0  0  0999 V2000
   -8.7623    1.3865    0.7221 C   0  0  0  0  0  0  0  0  0  0  0  0
   -8.2833    0.3184   -0.0473 O   0  0  0  0  0  0  0  0  0  0  0  0
   -6.9400    0.0407   -0.1523 C   0  0  0  0  0  0  0  0  0  0  0  0
   -6.0333    0.8342    0.5176 C   0  0  0  0  0  0  0  0  0  0  0  0
   -4.6769    0.5549    0.4122 C   0  0  0  0  0  0  0  0  0  0  0  0
   -4.2031   -0.4941   -0.3433 C   0  0  0  0  0  0  0  0  0  0  0  0
   -5.1236   -1.2735   -1.0037 C   0  0  0  0  0  0  0  0  0  0  0  0
   -6.4916   -1.0192   -0.9180 C   0  0  0  0  0  0  0  0  0  0  0  0
   -2.7650   -0.7420   -0.4190 C   0  0  0  0  0  0  0  0  0  0  0  0
   -2.3288   -2.0420   -0.5798 C   0  0  0  0  0  0  0  0  0  0  0  0
   -0.9714   -2.2687   -0.6509 C   0  0  0  0  0  0  0  0  0  0  0  0
   -0.0343   -1.2565   -0.5686 C   0  0  0  0  0  0  0  0  0  0  0  0
    1.2667   -1.9410   -0.6920 C   0  0  0  0  0  0  0  0  0  0  0  0
    2.3743   -1.1485   -1.2704 C   0  0  1  0  0  0  0  0  0  0  0  0
    1.9604   -0.3601   -2.4956 C   0  0  0  0  0  0  0  0  0  0  0  0
    3.1798   -0.2811   -0.3643 C   0  0  1  0  0  0  0  0  0  0  0  0
    2.6757    1.0324   -0.2371 O   0  0  0  0  0  0  0  0  0  0  0  0
    1.4960    1.7093   -0.0790 C   0  0  0  0  0  0  0  0  0  0  0  0
    1.6192    2.8952    0.3143 O   0  0  0  0  0  0  0  0  0  0  0  0
    0.1497    1.2990   -0.2843 N   0  0  0  0  0  0  0  0  0  0  0  0
   -0.4991    0.0213   -0.4092 C   0  0  0  0  0  0  0  0  0  0  0  0
   -1.8644    0.2966   -0.3324 C   0  0  0  0  0  0  0  0  0  0  0  0
    3.4965   -0.8369    0.9555 C   0  0  2  0  0  0  0  0  0  0  0  0
    2.2870   -0.8450    1.7394 O   0  0  0  0  0  0  0  0  0  0  0  0
    4.4846   -0.1586    1.8374 C   0  0  0  0  0  0  0  0  0  0  0  0
    5.8578   -0.0135    1.3506 C   0  0  1  0  0  0  0  0  0  0  0  0
    6.2044    0.7763    0.1396 C   0  0  0  0  0  0  0  0  0  0  0  0
    7.3793    1.3600    0.8932 C   0  0  0  0  0  0  0  0  0  0  0  0
    8.4569    1.9029    0.5807 O   0  0  0  0  0  0  0  0  0  0  0  0
    6.6466    0.9837    2.0789 N   0  0  0  0  0  0  0  0  0  0  0  0
   -8.5164    2.3722    0.2551 H   0  0  0  0  0  0  0  0  0  0  0  0
   -8.3271    1.3653    1.7381 H   0  0  0  0  0  0  0  0  0  0  0  0
   -9.8645    1.2595    0.8119 H   0  0  0  0  0  0  0  0  0  0  0  0
   -6.4090    1.6558    1.1089 H   0  0  0  0  0  0  0  0  0  0  0  0
   -3.9958    1.1957    0.9491 H   0  0  0  0  0  0  0  0  0  0  0  0
   -4.8159   -2.0983   -1.6028 H   0  0  0  0  0  0  0  0  0  0  0  0
   -7.2263   -1.6096   -1.4210 H   0  0  0  0  0  0  0  0  0  0  0  0
   -3.0647   -2.8591   -0.6470 H   0  0  0  0  0  0  0  0  0  0  0  0
   -0.6676   -3.3148   -0.7787 H   0  0  0  0  0  0  0  0  0  0  0  0
    1.0381   -2.8063   -1.4235 H   0  0  0  0  0  0  0  0  0  0  0  0
    1.4674   -2.4746    0.2423 H   0  0  0  0  0  0  0  0  0  0  0  0
    3.1055   -1.9234   -1.6793 H   0  0  0  0  0  0  0  0  0  0  0  0
    0.8490   -0.4407   -2.6823 H   0  0  0  0  0  0  0  0  0  0  0  0
    2.4138   -0.7375   -3.4395 H   0  0  0  0  0  0  0  0  0  0  0  0
    2.2909    0.6959   -2.4179 H   0  0  0  0  0  0  0  0  0  0  0  0
    4.1513   -0.1331   -0.9340 H   0  0  0  0  0  0  0  0  0  0  0  0
   -0.5191    2.0918   -0.3620 H   0  0  0  0  0  0  0  0  0  0  0  0
   -2.1852    1.3321   -0.2051 H   0  0  0  0  0  0  0  0  0  0  0  0
    3.8047   -1.9199    0.9279 H   0  0  0  0  0  0  0  0  0  0  0  0
    2.2420   -0.0153    2.2747 H   0  0  0  0  0  0  0  0  0  0  0  0
    4.5479   -0.7126    2.8327 H   0  0  0  0  0  0  0  0  0  0  0  0
    4.0826    0.8842    2.1103 H   0  0  0  0  0  0  0  0  0  0  0  0
    6.3765   -1.0268    1.3794 H   0  0  0  0  0  0  0  0  0  0  0  0
    5.4809    1.6052   -0.1043 H   0  0  0  0  0  0  0  0  0  0  0  0
    6.5375    0.1565   -0.6952 H   0  0  0  0  0  0  0  0  0  0  0  0
    6.6454    1.2742    3.0677 H   0  0  0  0  0  0  0  0  0  0  0  0
  1  2  1  0
  2  3  1  0
  3  4  2  0
  4  5  1  0
  5  6  2  0
  6  7  1  0
  7  8  2  0
  6  9  1  0
  9 10  2  0
 10 11  1  0
 11 12  2  0
 12 13  1  0
 13 14  1  0
 14 15  1  0
 14 16  1  0
 16 17  1  0
 17 18  1  0
 18 19  2  0
 18 20  1  0
 20 21  1  0
 21 22  2  0
 16 23  1  0
 23 24  1  0
 23 25  1  0
 25 26  1  0
 26 27  1  0
 27 28  1  0
 28 29  2  0
 28 30  1  0
  8  3  1  0
 22  9  1  0
 30 26  1  0
 21 12  1  0
  1 31  1  0
  1 32  1  0
  1 33  1  0
  4 34  1  0
  5 35  1  0
  7 36  1  0
  8 37  1  0
 10 38  1  0
 11 39  1  0
 13 40  1  0
 13 41  1  0
 14 42  1  6
 15 43  1  0
 15 44  1  0
 15 45  1  0
 16 46  1  6
 20 47  1  0
 22 48  1  0
 23 49  1  6
 24 50  1  0
 25 51  1  0
 25 52  1  0
 26 53  1  6
 27 54  1  0
 27 55  1  0
 30 56  1  0
M  END
$$$$
[H]c1c([H])c([H])c2c(C([H])([H])N3C([H])([H])C([H])([H])OC([H])([H])C3([H])[H])c([H])c(C([H])([H])C(=O)N3C([H])([H])N(C(=O)C4([H])C([H])([H])C([H])([H])S(=O)(=O)C([H])([H])C4([H])[H])C([H])([H])C3([H])[H])nc2c1[H]
     RDKit          3D

 67 71  0  0  0  0  0  0  0  0999 V2000
    0.3591   -0.6035   -2.6183 O   0  0  0  0  0  0  0  0  0  0  0  0
    0.5284   -0.6121   -1.3971 C   0  0  0  0  0  0  0  0  0  0  0  0
   -0.3971    0.1187   -0.4742 C   0  0  0  0  0  0  0  0  0  0  0  0
   -1.6311   -0.5786   -0.1451 C   0  0  0  0  0  0  0  0  0  0  0  0
   -2.6540    0.0797    0.3270 C   0  0  0  0  0  0  0  0  0  0  0  0
   -3.9206   -0.4526    0.6005 C   0  0  0  0  0  0  0  0  0  0  0  0
   -5.0360    0.2157    1.2123 C   0  0  0  0  0  0  0  0  0  0  0  0
   -5.4548    1.3556    0.3775 N   0  0  0  0  0  0  0  0  0  0  0  0
   -6.9300    1.3632    0.5375 C   0  0  0  0  0  0  0  0  0  0  0  0
   -7.5631    2.4505   -0.2817 C   0  0  0  0  0  0  0  0  0  0  0  0
   -6.7577    3.5669   -0.4155 O   0  0  0  0  0  0  0  0  0  0  0  0
   -5.9521    3.7019    0.7042 C   0  0  0  0  0  0  0  0  0  0  0  0
   -4.9073    2.6052    0.6443 C   0  0  0  0  0  0  0  0  0  0  0  0
   -3.9585   -1.7935    0.2627 C   0  0  0  0  0  0  0  0  0  0  0  0
   -5.2194   -2.4113    0.2870 C   0  0  0  0  0  0  0  0  0  0  0  0
   -5.4243   -3.6883   -0.0875 C   0  0  0  0  0  0  0  0  0  0  0  0
   -4.2920   -4.4197   -0.5365 C   0  0  0  0  0  0  0  0  0  0  0  0
   -3.0738   -3.8124   -0.5716 C   0  0  0  0  0  0  0  0  0  0  0  0
   -2.9246   -2.4502   -0.1779 C   0  0  0  0  0  0  0  0  0  0  0  0
   -1.6912   -1.9361   -0.4202 N   0  0  0  0  0  0  0  0  0  0  0  0
    1.5982   -1.2906   -0.7945 N   0  0  0  0  0  0  0  0  0  0  0  0
    1.7705   -1.6885    0.5840 C   0  0  0  0  0  0  0  0  0  0  0  0
    2.9469   -0.6649    0.7774 C   0  0  0  0  0  0  0  0  0  0  0  0
    3.6495   -0.7749   -0.4882 N   0  0  0  0  0  0  0  0  0  0  0  0
    2.8269   -1.6294   -1.4673 C   0  0  0  0  0  0  0  0  0  0  0  0
    4.9599   -0.3788   -0.8034 C   0  0  0  0  0  0  0  0  0  0  0  0
    5.3556   -0.1967   -1.9753 O   0  0  0  0  0  0  0  0  0  0  0  0
    5.9213   -0.1635    0.3259 C   0  0  0  0  0  0  0  0  0  0  0  0
    7.3244   -0.6116   -0.0637 C   0  0  0  0  0  0  0  0  0  0  0  0
    8.3930    0.1475    0.7095 C   0  0  0  0  0  0  0  0  0  0  0  0
    8.3112    1.8220    0.0815 S   0  0  0  0  0  0  0  0  0  0  0  0
    8.7933    1.7766   -1.3422 O   0  0  0  0  0  0  0  0  0  0  0  0
    9.0840    2.7737    0.9248 O   0  0  0  0  0  0  0  0  0  0  0  0
    6.5699    2.2303    0.0282 C   0  0  0  0  0  0  0  0  0  0  0  0
    5.8620    1.2046    0.8698 C   0  0  0  0  0  0  0  0  0  0  0  0
    0.0919    0.4078    0.4994 H   0  0  0  0  0  0  0  0  0  0  0  0
   -0.5463    1.1102   -1.0210 H   0  0  0  0  0  0  0  0  0  0  0  0
   -2.4420    1.0650    0.9235 H   0  0  0  0  0  0  0  0  0  0  0  0
   -4.4787    0.8389    2.0849 H   0  0  0  0  0  0  0  0  0  0  0  0
   -5.7438   -0.3394    1.7110 H   0  0  0  0  0  0  0  0  0  0  0  0
   -7.3167    0.3774    0.1429 H   0  0  0  0  0  0  0  0  0  0  0  0
   -7.1434    1.4583    1.6067 H   0  0  0  0  0  0  0  0  0  0  0  0
   -7.7195    2.0503   -1.3149 H   0  0  0  0  0  0  0  0  0  0  0  0
   -8.5634    2.6893    0.1620 H   0  0  0  0  0  0  0  0  0  0  0  0
   -5.4612    4.6875    0.6341 H   0  0  0  0  0  0  0  0  0  0  0  0
   -6.5172    3.5596    1.6467 H   0  0  0  0  0  0  0  0  0  0  0  0
   -4.1471    2.8473   -0.1491 H   0  0  0  0  0  0  0  0  0  0  0  0
   -4.3679    2.6099    1.6239 H   0  0  0  0  0  0  0  0  0  0  0  0
   -6.0936   -1.7271    0.3865 H   0  0  0  0  0  0  0  0  0  0  0  0
   -6.3701   -4.1508   -0.0476 H   0  0  0  0  0  0  0  0  0  0  0  0
   -4.4014   -5.3805   -1.0065 H   0  0  0  0  0  0  0  0  0  0  0  0
   -2.1481   -4.3795   -0.7498 H   0  0  0  0  0  0  0  0  0  0  0  0
    2.1815   -2.6342    0.8313 H   0  0  0  0  0  0  0  0  0  0  0  0
    0.8975   -1.3401    1.1851 H   0  0  0  0  0  0  0  0  0  0  0  0
    3.5400   -0.8679    1.6279 H   0  0  0  0  0  0  0  0  0  0  0  0
    2.5057    0.3837    0.7714 H   0  0  0  0  0  0  0  0  0  0  0  0
    3.1964   -2.6252   -1.4207 H   0  0  0  0  0  0  0  0  0  0  0  0
    2.9024   -1.1126   -2.4375 H   0  0  0  0  0  0  0  0  0  0  0  0
    5.6020   -0.8750    1.1378 H   0  0  0  0  0  0  0  0  0  0  0  0
    7.4629   -0.3200   -1.1305 H   0  0  0  0  0  0  0  0  0  0  0  0
    7.4693   -1.7070   -0.0147 H   0  0  0  0  0  0  0  0  0  0  0  0
    8.1048    0.1566    1.7719 H   0  0  0  0  0  0  0  0  0  0  0  0
    9.3636   -0.3260    0.5019 H   0  0  0  0  0  0  0  0  0  0  0  0
    6.4719    3.2028    0.5507 H   0  0  0  0  0  0  0  0  0  0  0  0
    6.1902    2.3075   -0.9987 H   0  0  0  0  0  0  0  0  0  0  0  0
    6.2309    1.2816    1.9017 H   0  0  0  0  0  0  0  0  0  0  0  0
    4.7828    1.4961    0.8896 H   0  0  0  0  0  0  0  0  0  0  0  0
  1  2  2  0
  2  3  1  0
  3  4  1  0
  4  5  2  0
  5  6  1  0
  6  7  1  0
  7  8  1  0
  8  9  1  0
  9 10  1  0
 10 11  1  0
 11 12  1  0
 12 13  1  0
  6 14  2  0
 14 15  1  0
 15 16  2  0
 16 17  1  0
 17 18  2  0
 18 19  1  0
 19 20  2  0
  2 21  1  0
 21 22  1  0
 22 23  1  0
 23 24  1  0
 24 25  1  0
 24 26  1  0
 26 27  2  0
 26 28  1  0
 28 29  1  0
 29 30  1  0
 30 31  1  0
 31 32  2  0
 31 33  2  0
 31 34  1  0
 34 35  1  0
 20  4  1  0
 25 21  1  0
 35 28  1  0
 13  8  1  0
 19 14  1  0
  3 36  1  0
  3 37  1  0
  5 38  1  0
  7 39  1  0
  7 40  1  0
  9 41  1  0
  9 42  1  0
 10 43  1  0
 10 44  1  0
 12 45  1  0
 12 46  1  0
 13 47  1  0
 13 48  1  0
 15 49  1  0
 16 50  1  0
 17 51  1  0
 18 52  1  0
 22 53  1  0
 22 54  1  0
 23 55  1  0
 23 56  1  0
 25 57  1  0
 25 58  1  0
 28 59  1  0
 29 60  1  0
 29 61  1  0
 30 62  1  0
 30 63  1  0
 34 64  1  0
 34 65  1  0
 35 66  1  0
 35 67  1  0
M  END
$$$$
[H]c1nc(N([H])C(=O)C([H])([H])[H])c([H])c(-c2sc(N([H])[C@@]([H])(c3c([H])c(C([H])([H])N([H])[H])c([H])c([H])c3OC([H])([H])[H])C([H])([H])[H])nc2C([H])([H])[H])c1[H]
     RDKit          3D

 54 56  0  0  0  0  0  0  0  0999 V2000
   -4.1078    0.1305   -3.2270 C   0  0  0  0  0  0  0  0  0  0  0  0
   -3.3201    0.2530   -2.0114 O   0  0  0  0  0  0  0  0  0  0  0  0
   -4.0893    0.2756   -0.8098 C   0  0  0  0  0  0  0  0  0  0  0  0
   -5.5013    0.1539   -0.9314 C   0  0  0  0  0  0  0  0  0  0  0  0
   -6.2629    0.1770    0.2070 C   0  0  0  0  0  0  0  0  0  0  0  0
   -5.7824    0.3105    1.4688 C   0  0  0  0  0  0  0  0  0  0  0  0
   -6.6557    0.3385    2.6591 C   0  0  0  0  0  0  0  0  0  0  0  0
   -7.3740    1.6069    2.7332 N   0  0  0  0  0  0  0  0  0  0  0  0
   -4.3714    0.4281    1.5672 C   0  0  0  0  0  0  0  0  0  0  0  0
   -3.5654    0.4100    0.4232 C   0  0  0  0  0  0  0  0  0  0  0  0
   -2.1181    0.5766    0.6135 C   0  0  1  0  0  0  0  0  0  0  0  0
   -1.7008    1.0966    1.9729 C   0  0  0  0  0  0  0  0  0  0  0  0
   -1.3716   -0.6353    0.2530 N   0  0  0  0  0  0  0  0  0  0  0  0
    0.0567   -0.5677    0.1595 C   0  0  0  0  0  0  0  0  0  0  0  0
    0.8473   -1.5387   -0.2606 N   0  0  0  0  0  0  0  0  0  0  0  0
    2.1327   -1.3663   -0.3265 C   0  0  0  0  0  0  0  0  0  0  0  0
    3.0306   -2.4965   -0.8325 C   0  0  0  0  0  0  0  0  0  0  0  0
    2.6419   -0.1499    0.0505 C   0  0  0  0  0  0  0  0  0  0  0  0
    1.1599    0.6675    0.4814 S   0  0  0  0  0  0  0  0  0  0  0  0
    3.9712    0.4357    0.1047 C   0  0  0  0  0  0  0  0  0  0  0  0
    4.1412    1.7149    0.7395 C   0  0  0  0  0  0  0  0  0  0  0  0
    5.2655    2.4010    0.7639 C   0  0  0  0  0  0  0  0  0  0  0  0
    6.3997    1.8557    0.1235 N   0  0  0  0  0  0  0  0  0  0  0  0
    6.2391    0.7242   -0.4356 C   0  0  0  0  0  0  0  0  0  0  0  0
    7.4634    0.1705   -1.4481 N   0  0  0  0  0  0  0  0  0  0  0  0
    7.2684   -1.1670   -1.2729 C   0  0  0  0  0  0  0  0  0  0  0  0
    7.3217   -2.2758   -2.2348 C   0  0  0  0  0  0  0  0  0  0  0  0
    6.9680   -1.5344   -0.0316 O   0  0  0  0  0  0  0  0  0  0  0  0
    5.1103   -0.0034   -0.4814 C   0  0  0  0  0  0  0  0  0  0  0  0
   -4.6781   -0.8321   -3.1051 H   0  0  0  0  0  0  0  0  0  0  0  0
   -4.8718    0.9517   -3.2885 H   0  0  0  0  0  0  0  0  0  0  0  0
   -3.5088    0.0498   -4.1188 H   0  0  0  0  0  0  0  0  0  0  0  0
   -5.9208    0.0345   -1.8800 H   0  0  0  0  0  0  0  0  0  0  0  0
   -7.3510    0.0699    0.0712 H   0  0  0  0  0  0  0  0  0  0  0  0
   -7.4876   -0.4276    2.5831 H   0  0  0  0  0  0  0  0  0  0  0  0
   -6.0859    0.2034    3.5958 H   0  0  0  0  0  0  0  0  0  0  0  0
   -6.7801    2.3288    3.1693 H   0  0  0  0  0  0  0  0  0  0  0  0
   -7.8008    1.8727    1.8248 H   0  0  0  0  0  0  0  0  0  0  0  0
   -4.0183    0.5154    2.5682 H   0  0  0  0  0  0  0  0  0  0  0  0
   -1.7989    1.3775   -0.1185 H   0  0  0  0  0  0  0  0  0  0  0  0
   -0.8251    1.7925    1.8452 H   0  0  0  0  0  0  0  0  0  0  0  0
   -1.4028    0.3473    2.6740 H   0  0  0  0  0  0  0  0  0  0  0  0
   -2.4901    1.7553    2.4511 H   0  0  0  0  0  0  0  0  0  0  0  0
   -1.8363   -1.5316    0.0814 H   0  0  0  0  0  0  0  0  0  0  0  0
    2.3871   -3.3976   -0.9832 H   0  0  0  0  0  0  0  0  0  0  0  0
    3.8591   -2.6613   -0.1396 H   0  0  0  0  0  0  0  0  0  0  0  0
    3.4023   -2.2615   -1.8317 H   0  0  0  0  0  0  0  0  0  0  0  0
    3.2426    2.0700    1.2378 H   0  0  0  0  0  0  0  0  0  0  0  0
    5.4390    3.3678    1.2098 H   0  0  0  0  0  0  0  0  0  0  0  0
    7.6237    1.1085   -1.6629 H   0  0  0  0  0  0  0  0  0  0  0  0
    7.2222   -1.9137   -3.2459 H   0  0  0  0  0  0  0  0  0  0  0  0
    8.3107   -2.8361   -2.1174 H   0  0  0  0  0  0  0  0  0  0  0  0
    6.5186   -3.0423   -1.9700 H   0  0  0  0  0  0  0  0  0  0  0  0
    5.0545   -0.9332   -1.0414 H   0  0  0  0  0  0  0  0  0  0  0  0
  1  2  1  0
  2  3  1  0
  3  4  2  0
  4  5  1  0
  5  6  2  0
  6  7  1  0
  7  8  1  0
  6  9  1  0
  9 10  2  0
 10 11  1  0
 11 12  1  0
 11 13  1  0
 13 14  1  0
 14 15  2  0
 15 16  1  0
 16 17  1  0
 16 18  2  0
 18 19  1  0
 18 20  1  0
 20 21  2  0
 21 22  1  0
 22 23  2  0
 23 24  1  0
 24 25  1  0
 25 26  1  0
 26 27  1  0
 26 28  2  0
 24 29  2  0
 10  3  1  0
 19 14  1  0
 29 20  1  0
  1 30  1  0
  1 31  1  0
  1 32  1  0
  4 33  1  0
  5 34  1  0
  7 35  1  0
  7 36  1  0
  8 37  1  0
  8 38  1  0
  9 39  1  0
 11 40  1  6
 12 41  1  0
 12 42  1  0
 12 43  1  0
 13 44  1  0
 17 45  1  0
 17 46  1  0
 17 47  1  0
 21 48  1  0
 22 49  1  0
 25 50  1  0
 27 51  1  0
 27 52  1  0
 27 53  1  0
 29 54  1  0
M  END
$$$$
[H]c1c([H])c([H])c(C([H])(N([H])[H])N([H])S(=O)(=O)c2c([H])c([H])c(C([H])([H])C([H])([H])N3C([H])([H])C([H])([H])OC([H])([H])C3([H])[H])c([H])c2[H])c(Cl)c1[H]
     RDKit          3D

 51 53  0  0  0  0  0  0  0  0999 V2000
    5.3870    2.2157    1.6822 N   0  0  0  0  0  0  0  0  0  0  0  0
    4.2575    1.2950    1.4067 C   0  0  0  0  0  0  0  0  0  0  0  0
    3.9663    0.6059    2.6155 N   0  0  0  0  0  0  0  0  0  0  0  0
    2.4027    0.9562    3.2211 S   0  0  0  0  0  0  0  0  0  0  0  0
    2.1607    0.2808    4.5489 O   0  0  0  0  0  0  0  0  0  0  0  0
    2.2378    2.4474    3.4508 O   0  0  0  0  0  0  0  0  0  0  0  0
    1.1328    0.4825    2.1209 C   0  0  0  0  0  0  0  0  0  0  0  0
    0.6181   -0.8191    2.2059 C   0  0  0  0  0  0  0  0  0  0  0  0
   -0.3806   -1.2071    1.3550 C   0  0  0  0  0  0  0  0  0  0  0  0
   -0.9184   -0.3744    0.4018 C   0  0  0  0  0  0  0  0  0  0  0  0
   -2.0076   -0.7775   -0.5314 C   0  0  0  0  0  0  0  0  0  0  0  0
   -3.2965   -0.4520    0.1101 C   0  0  0  0  0  0  0  0  0  0  0  0
   -4.4760   -0.7529   -0.6172 N   0  0  0  0  0  0  0  0  0  0  0  0
   -4.6648    0.0598   -1.7953 C   0  0  0  0  0  0  0  0  0  0  0  0
   -5.8418   -0.4185   -2.5660 C   0  0  0  0  0  0  0  0  0  0  0  0
   -6.5768   -1.4210   -2.0065 O   0  0  0  0  0  0  0  0  0  0  0  0
   -6.8447   -1.2696   -0.6609 C   0  0  0  0  0  0  0  0  0  0  0  0
   -5.6932   -0.7570    0.1352 C   0  0  0  0  0  0  0  0  0  0  0  0
   -0.3945    0.9116    0.3336 C   0  0  0  0  0  0  0  0  0  0  0  0
    0.6104    1.3340    1.1744 C   0  0  0  0  0  0  0  0  0  0  0  0
    4.6379    0.4532    0.2579 C   0  0  0  0  0  0  0  0  0  0  0  0
    4.4461   -0.8962    0.1286 C   0  0  0  0  0  0  0  0  0  0  0  0
    4.8531   -1.5694   -1.0340 C   0  0  0  0  0  0  0  0  0  0  0  0
    5.4561   -0.9205   -2.0872 C   0  0  0  0  0  0  0  0  0  0  0  0
    5.6442    0.4368   -1.9470 C   0  0  0  0  0  0  0  0  0  0  0  0
    5.2482    1.1068   -0.8097 C   0  0  0  0  0  0  0  0  0  0  0  0
    5.5183    2.8389   -0.6996 Cl  0  0  0  0  0  0  0  0  0  0  0  0
    6.1680    1.6309    2.0357 H   0  0  0  0  0  0  0  0  0  0  0  0
    5.0692    2.8216    2.4707 H   0  0  0  0  0  0  0  0  0  0  0  0
    3.3610    1.9407    1.1487 H   0  0  0  0  0  0  0  0  0  0  0  0
    4.0975   -0.3986    2.5316 H   0  0  0  0  0  0  0  0  0  0  0  0
    1.0262   -1.4742    2.9405 H   0  0  0  0  0  0  0  0  0  0  0  0
   -0.7994   -2.2131    1.3981 H   0  0  0  0  0  0  0  0  0  0  0  0
   -1.8139   -0.2047   -1.4760 H   0  0  0  0  0  0  0  0  0  0  0  0
   -1.8438   -1.8355   -0.7682 H   0  0  0  0  0  0  0  0  0  0  0  0
   -3.3560   -0.9859    1.0896 H   0  0  0  0  0  0  0  0  0  0  0  0
   -3.3061    0.6264    0.3710 H   0  0  0  0  0  0  0  0  0  0  0  0
   -4.7770    1.1266   -1.4804 H   0  0  0  0  0  0  0  0  0  0  0  0
   -3.7287    0.0394   -2.4029 H   0  0  0  0  0  0  0  0  0  0  0  0
   -5.4631   -0.8087   -3.5570 H   0  0  0  0  0  0  0  0  0  0  0  0
   -6.4880    0.4462   -2.8463 H   0  0  0  0  0  0  0  0  0  0  0  0
   -7.1137   -2.2724   -0.2660 H   0  0  0  0  0  0  0  0  0  0  0  0
   -7.7582   -0.6399   -0.5707 H   0  0  0  0  0  0  0  0  0  0  0  0
   -5.5878   -1.2326    1.1398 H   0  0  0  0  0  0  0  0  0  0  0  0
   -5.9196    0.3240    0.3700 H   0  0  0  0  0  0  0  0  0  0  0  0
   -0.8006    1.5929   -0.4110 H   0  0  0  0  0  0  0  0  0  0  0  0
    1.0094    2.3330    1.1165 H   0  0  0  0  0  0  0  0  0  0  0  0
    3.9754   -1.4420    0.9185 H   0  0  0  0  0  0  0  0  0  0  0  0
    4.6878   -2.6410   -1.1079 H   0  0  0  0  0  0  0  0  0  0  0  0
    5.7564   -1.4717   -2.9673 H   0  0  0  0  0  0  0  0  0  0  0  0
    6.1227    0.9494   -2.7860 H   0  0  0  0  0  0  0  0  0  0  0  0
  1  2  1  0
  2  3  1  0
  3  4  1  0
  4  5  2  0
  4  6  2  0
  4  7  1  0
  7  8  2  0
  8  9  1  0
  9 10  2  0
 10 11  1  0
 11 12  1  0
 12 13  1  0
 13 14  1  0
 14 15  1  0
 15 16  1  0
 16 17  1  0
 17 18  1  0
 10 19  1  0
 19 20  2  0
  2 21  1  0
 21 22  2  0
 22 23  1  0
 23 24  2  0
 24 25  1  0
 25 26  2  0
 26 27  1  0
 20  7  1  0
 26 21  1  0
 18 13  1  0
  1 28  1  0
  1 29  1  0
  2 30  1  0
  3 31  1  0
  8 32  1  0
  9 33  1  0
 11 34  1  0
 11 35  1  0
 12 36  1  0
 12 37  1  0
 14 38  1  0
 14 39  1  0
 15 40  1  0
 15 41  1  0
 17 42  1  0
 17 43  1  0
 18 44  1  0
 18 45  1  0
 19 46  1  0
 20 47  1  0
 22 48  1  0
 23 49  1  0
 24 50  1  0
 25 51  1  0
M  END
$$$$
[H]c1c([H])c(F)c(N2C([H])([H])C([H])([H])OC([H])([H])[C@@]2([H])C([H])([H])[H])c(-n2c([H])nc(C(F)(F)F)c2[H])c1[H]
     RDKit          3D

 38 40  0  0  0  0  0  0  0  0999 V2000
   -2.2130    0.3994    2.1088 C   0  0  0  0  0  0  0  0  0  0  0  0
   -2.3794   -0.3128    0.8002 C   0  0  2  0  0  0  0  0  0  0  0  0
   -2.4490   -1.8156    0.9816 C   0  0  0  0  0  0  0  0  0  0  0  0
   -2.9720   -2.3327   -0.2274 O   0  0  0  0  0  0  0  0  0  0  0  0
   -2.0489   -2.1971   -1.2348 C   0  0  0  0  0  0  0  0  0  0  0  0
   -1.5115   -0.8521   -1.4353 C   0  0  0  0  0  0  0  0  0  0  0  0
   -1.5094    0.0294   -0.2585 N   0  0  0  0  0  0  0  0  0  0  0  0
   -0.6362    1.1327   -0.4320 C   0  0  0  0  0  0  0  0  0  0  0  0
   -1.3027    2.2744   -0.9526 C   0  0  0  0  0  0  0  0  0  0  0  0
   -2.6504    2.3306   -1.0539 F   0  0  0  0  0  0  0  0  0  0  0  0
   -0.6147    3.4007   -1.3527 C   0  0  0  0  0  0  0  0  0  0  0  0
    0.7688    3.4222   -1.2481 C   0  0  0  0  0  0  0  0  0  0  0  0
    1.4168    2.3421   -0.7471 C   0  0  0  0  0  0  0  0  0  0  0  0
    0.7105    1.1738   -0.3286 C   0  0  0  0  0  0  0  0  0  0  0  0
    1.5144    0.1371    0.2165 N   0  0  0  0  0  0  0  0  0  0  0  0
    1.2983   -0.7962    1.1338 C   0  0  0  0  0  0  0  0  0  0  0  0
    2.4456   -1.5305    1.3520 N   0  0  0  0  0  0  0  0  0  0  0  0
    3.3992   -1.0606    0.5537 C   0  0  0  0  0  0  0  0  0  0  0  0
    2.8322   -0.0352   -0.1479 C   0  0  0  0  0  0  0  0  0  0  0  0
    4.8286   -1.5457    0.5045 C   0  0  0  0  0  0  0  0  0  0  0  0
    5.4965   -1.0423    1.6523 F   0  0  0  0  0  0  0  0  0  0  0  0
    4.8058   -2.9215    0.5812 F   0  0  0  0  0  0  0  0  0  0  0  0
    5.4696   -1.1211   -0.6103 F   0  0  0  0  0  0  0  0  0  0  0  0
   -2.0246   -0.3680    2.9298 H   0  0  0  0  0  0  0  0  0  0  0  0
   -1.4186    1.1419    2.1402 H   0  0  0  0  0  0  0  0  0  0  0  0
   -3.1686    0.8683    2.3801 H   0  0  0  0  0  0  0  0  0  0  0  0
   -3.4491   -0.0675    0.4063 H   0  0  0  0  0  0  0  0  0  0  0  0
   -3.2290   -2.0946    1.7395 H   0  0  0  0  0  0  0  0  0  0  0  0
   -1.4863   -2.3032    1.1406 H   0  0  0  0  0  0  0  0  0  0  0  0
   -2.5724   -2.5127   -2.1841 H   0  0  0  0  0  0  0  0  0  0  0  0
   -1.2244   -2.9790   -1.1585 H   0  0  0  0  0  0  0  0  0  0  0  0
   -2.2030   -0.2944   -2.1505 H   0  0  0  0  0  0  0  0  0  0  0  0
   -0.5094   -0.9048   -1.9135 H   0  0  0  0  0  0  0  0  0  0  0  0
   -1.1103    4.2905   -1.7284 H   0  0  0  0  0  0  0  0  0  0  0  0
    1.3655    4.3102   -1.5832 H   0  0  0  0  0  0  0  0  0  0  0  0
    2.4966    2.3486   -0.6759 H   0  0  0  0  0  0  0  0  0  0  0  0
    0.4241   -1.0438    1.6851 H   0  0  0  0  0  0  0  0  0  0  0  0
    3.4103    0.5295   -0.8830 H   0  0  0  0  0  0  0  0  0  0  0  0
  1  2  1  0
  2  3  1  0
  3  4  1  0
  4  5  1  0
  5  6  1  0
  6  7  1  0
  7  8  1  0
  8  9  2  0
  9 10  1  0
  9 11  1  0
 11 12  2  0
 12 13  1  0
 13 14  2  0
 14 15  1  0
 15 16  1  0
 16 17  2  0
 17 18  1  0
 18 19  2  0
 18 20  1  0
 20 21  1  0
 20 22  1  0
 20 23  1  0
  7  2  1  0
 14  8  1  0
 19 15  1  0
  1 24  1  0
  1 25  1  0
  1 26  1  0
  2 27  1  6
  3 28  1  0
  3 29  1  0
  5 30  1  0
  5 31  1  0
  6 32  1  0
  6 33  1  0
 11 34  1  0
 12 35  1  0
 13 36  1  0
 16 37  1  0
 19 38  1  0
M  END
$$$$
[H]c1nc(N([H])[H])c([H])c(-c2c([H])c3c(N([H])[H])nc(N([H])C(=O)N4C([H])([H])C([H])([H])OC([H])(C([H])([H])[H])C4([H])[H])c([H])c3n2[H])c1[H]
     RDKit          3D

 48 51  0  0  0  0  0  0  0  0999 V2000
    7.2917    1.4425    1.5863 C   0  0  0  0  0  0  0  0  0  0  0  0
    6.1942    1.5119    0.5175 C   0  0  0  0  0  0  0  0  0  0  0  0
    4.8611    1.1094    1.0699 C   0  0  0  0  0  0  0  0  0  0  0  0
    4.1297    0.2107    0.2282 N   0  0  0  0  0  0  0  0  0  0  0  0
    4.7854   -0.7339   -0.6510 C   0  0  0  0  0  0  0  0  0  0  0  0
    6.2680   -0.5706   -0.4756 C   0  0  0  0  0  0  0  0  0  0  0  0
    6.5684    0.7807   -0.6031 O   0  0  0  0  0  0  0  0  0  0  0  0
    2.6973    0.2203    0.2317 C   0  0  0  0  0  0  0  0  0  0  0  0
    2.1618    1.0486    1.0029 O   0  0  0  0  0  0  0  0  0  0  0  0
    1.9713   -0.6564   -0.5894 N   0  0  0  0  0  0  0  0  0  0  0  0
    0.5681   -0.7815   -0.7116 C   0  0  0  0  0  0  0  0  0  0  0  0
   -0.3622   -0.0576   -0.0393 C   0  0  0  0  0  0  0  0  0  0  0  0
   -1.7257   -0.2615   -0.2349 C   0  0  0  0  0  0  0  0  0  0  0  0
   -2.8388    0.2860    0.2719 N   0  0  0  0  0  0  0  0  0  0  0  0
   -3.9446   -0.2592   -0.2412 C   0  0  0  0  0  0  0  0  0  0  0  0
   -3.5029   -1.2153   -1.1320 C   0  0  0  0  0  0  0  0  0  0  0  0
   -2.1420   -1.2180   -1.1293 C   0  0  0  0  0  0  0  0  0  0  0  0
   -1.1870   -1.9590   -1.8173 C   0  0  0  0  0  0  0  0  0  0  0  0
   -1.6516   -2.9384   -2.7333 N   0  0  0  0  0  0  0  0  0  0  0  0
    0.1043   -1.7225   -1.5916 N   0  0  0  0  0  0  0  0  0  0  0  0
   -5.3460    0.0381    0.0311 C   0  0  0  0  0  0  0  0  0  0  0  0
   -6.3509   -0.6491   -0.6142 C   0  0  0  0  0  0  0  0  0  0  0  0
   -7.6962   -0.3872   -0.3749 C   0  0  0  0  0  0  0  0  0  0  0  0
   -8.0290    0.5643    0.5121 N   0  0  0  0  0  0  0  0  0  0  0  0
   -7.0902    1.2665    1.1710 C   0  0  0  0  0  0  0  0  0  0  0  0
   -7.5095    2.2503    2.0877 N   0  0  0  0  0  0  0  0  0  0  0  0
   -5.7382    1.0061    0.9331 C   0  0  0  0  0  0  0  0  0  0  0  0
    7.2082    2.3124    2.2418 H   0  0  0  0  0  0  0  0  0  0  0  0
    7.2526    0.4729    2.1275 H   0  0  0  0  0  0  0  0  0  0  0  0
    8.2787    1.4863    1.0865 H   0  0  0  0  0  0  0  0  0  0  0  0
    6.1416    2.5763    0.2076 H   0  0  0  0  0  0  0  0  0  0  0  0
    5.0551    0.6674    2.0893 H   0  0  0  0  0  0  0  0  0  0  0  0
    4.2440    2.0278    1.2946 H   0  0  0  0  0  0  0  0  0  0  0  0
    4.5467   -0.4486   -1.7065 H   0  0  0  0  0  0  0  0  0  0  0  0
    4.4341   -1.7570   -0.4115 H   0  0  0  0  0  0  0  0  0  0  0  0
    6.6307   -1.0159    0.4631 H   0  0  0  0  0  0  0  0  0  0  0  0
    6.7570   -1.0807   -1.3467 H   0  0  0  0  0  0  0  0  0  0  0  0
    2.6004   -1.3017   -1.1894 H   0  0  0  0  0  0  0  0  0  0  0  0
   -0.0885    0.7010    0.6698 H   0  0  0  0  0  0  0  0  0  0  0  0
   -2.8390    1.0463    0.9817 H   0  0  0  0  0  0  0  0  0  0  0  0
   -4.1333   -1.8604   -1.7365 H   0  0  0  0  0  0  0  0  0  0  0  0
   -1.8777   -3.8937   -2.4069 H   0  0  0  0  0  0  0  0  0  0  0  0
   -1.7638   -2.6927   -3.7329 H   0  0  0  0  0  0  0  0  0  0  0  0
   -6.1252   -1.4149   -1.3281 H   0  0  0  0  0  0  0  0  0  0  0  0
   -8.4906   -0.9266   -0.8813 H   0  0  0  0  0  0  0  0  0  0  0  0
   -8.0119    3.0833    1.7459 H   0  0  0  0  0  0  0  0  0  0  0  0
   -7.3160    2.1388    3.0919 H   0  0  0  0  0  0  0  0  0  0  0  0
   -4.9899    1.5545    1.4478 H   0  0  0  0  0  0  0  0  0  0  0  0
  1  2  1  0
  2  3  1  0
  3  4  1  0
  4  5  1  0
  5  6  1  0
  6  7  1  0
  4  8  1  0
  8  9  2  0
  8 10  1  0
 10 11  1  0
 11 12  2  0
 12 13  1  0
 13 14  1  0
 14 15  1  0
 15 16  2  0
 16 17  1  0
 17 18  1  0
 18 19  1  0
 18 20  2  0
 15 21  1  0
 21 22  2  0
 22 23  1  0
 23 24  2  0
 24 25  1  0
 25 26  1  0
 25 27  2  0
  7  2  1  0
 20 11  1  0
 27 21  1  0
 17 13  2  0
  1 28  1  0
  1 29  1  0
  1 30  1  0
  2 31  1  0
  3 32  1  0
  3 33  1  0
  5 34  1  0
  5 35  1  0
  6 36  1  0
  6 37  1  0
 10 38  1  0
 12 39  1  0
 14 40  1  0
 16 41  1  0
 19 42  1  0
 19 43  1  0
 22 44  1  0
 23 45  1  0
 26 46  1  0
 26 47  1  0
 27 48  1  0
M  END
$$$$
[H]c1c(OC([H])([H])[H])c(C([H])([H])C([H])([H])C([H])([H])S(=O)(=O)C([H])([H])[H])c([H])c2sc(C(=O)N([H])C3([H])C([H])([H])C([H])([H])C([H])([H])C3([H])[H])nc12
     RDKit          3D

 50 52  0  0  0  0  0  0  0  0999 V2000
    6.7282   -1.4414    1.3183 C   0  0  0  0  0  0  0  0  0  0  0  0
    6.3936    0.1270    0.5399 S   0  0  0  0  0  0  0  0  0  0  0  0
    6.4006   -0.0409   -0.9164 O   0  0  0  0  0  0  0  0  0  0  0  0
    7.5913    1.0248    0.8605 O   0  0  0  0  0  0  0  0  0  0  0  0
    4.9695    0.8335    1.2824 C   0  0  0  0  0  0  0  0  0  0  0  0
    4.6155    2.1244    0.6582 C   0  0  0  0  0  0  0  0  0  0  0  0
    4.0671    2.0746   -0.7156 C   0  0  0  0  0  0  0  0  0  0  0  0
    2.7186    1.4794   -0.7380 C   0  0  0  0  0  0  0  0  0  0  0  0
    1.6482    2.3954   -0.5322 C   0  0  0  0  0  0  0  0  0  0  0  0
    0.3368    1.9862   -0.4672 C   0  0  0  0  0  0  0  0  0  0  0  0
   -1.1946    2.7391   -0.2396 S   0  0  0  0  0  0  0  0  0  0  0  0
   -2.1839    1.3361   -0.3240 C   0  0  0  0  0  0  0  0  0  0  0  0
   -1.2979    0.3926   -0.5178 N   0  0  0  0  0  0  0  0  0  0  0  0
   -0.0257    0.6755   -0.5955 C   0  0  0  0  0  0  0  0  0  0  0  0
    1.0114   -0.2272   -0.7980 C   0  0  0  0  0  0  0  0  0  0  0  0
    2.3282    0.1901   -0.8635 C   0  0  0  0  0  0  0  0  0  0  0  0
    3.2984   -0.7955   -1.0809 O   0  0  0  0  0  0  0  0  0  0  0  0
    2.9284   -2.1272   -1.2138 C   0  0  0  0  0  0  0  0  0  0  0  0
   -3.6547    1.2314   -0.2054 C   0  0  0  0  0  0  0  0  0  0  0  0
   -4.2949    2.2680   -0.0203 O   0  0  0  0  0  0  0  0  0  0  0  0
   -4.2442   -0.0440   -0.3096 N   0  0  0  0  0  0  0  0  0  0  0  0
   -5.6867   -0.1461   -0.1919 C   0  0  0  0  0  0  0  0  0  0  0  0
   -6.2567   -0.9726   -1.3156 C   0  0  0  0  0  0  0  0  0  0  0  0
   -7.5743   -1.4394   -0.7376 C   0  0  0  0  0  0  0  0  0  0  0  0
   -7.2604   -1.6820    0.7089 C   0  0  0  0  0  0  0  0  0  0  0  0
   -5.9266   -1.0770    0.9975 C   0  0  0  0  0  0  0  0  0  0  0  0
    6.1688   -2.2366    0.8135 H   0  0  0  0  0  0  0  0  0  0  0  0
    7.8202   -1.6358    1.1626 H   0  0  0  0  0  0  0  0  0  0  0  0
    6.5515   -1.4122    2.4028 H   0  0  0  0  0  0  0  0  0  0  0  0
    4.1071    0.1371    1.3809 H   0  0  0  0  0  0  0  0  0  0  0  0
    5.1915    1.0348    2.4050 H   0  0  0  0  0  0  0  0  0  0  0  0
    5.4829    2.8660    0.7282 H   0  0  0  0  0  0  0  0  0  0  0  0
    3.8332    2.6083    1.3443 H   0  0  0  0  0  0  0  0  0  0  0  0
    4.0572    3.1056   -1.1767 H   0  0  0  0  0  0  0  0  0  0  0  0
    4.6790    1.4777   -1.4464 H   0  0  0  0  0  0  0  0  0  0  0  0
    1.8642    3.4459   -0.4218 H   0  0  0  0  0  0  0  0  0  0  0  0
    0.7936   -1.3035   -0.9107 H   0  0  0  0  0  0  0  0  0  0  0  0
    2.3826   -2.4670   -0.2885 H   0  0  0  0  0  0  0  0  0  0  0  0
    3.8452   -2.7436   -1.3645 H   0  0  0  0  0  0  0  0  0  0  0  0
    2.2106   -2.2788   -2.0602 H   0  0  0  0  0  0  0  0  0  0  0  0
   -3.7134   -0.9230   -0.4668 H   0  0  0  0  0  0  0  0  0  0  0  0
   -6.1917    0.8073   -0.0435 H   0  0  0  0  0  0  0  0  0  0  0  0
   -5.5992   -1.8099   -1.6016 H   0  0  0  0  0  0  0  0  0  0  0  0
   -6.4385   -0.3051   -2.1930 H   0  0  0  0  0  0  0  0  0  0  0  0
   -8.3647   -0.6685   -0.8949 H   0  0  0  0  0  0  0  0  0  0  0  0
   -7.8355   -2.3883   -1.2585 H   0  0  0  0  0  0  0  0  0  0  0  0
   -8.0356   -1.1565    1.3032 H   0  0  0  0  0  0  0  0  0  0  0  0
   -7.2185   -2.7652    0.9222 H   0  0  0  0  0  0  0  0  0  0  0  0
   -5.1109   -1.8355    1.0444 H   0  0  0  0  0  0  0  0  0  0  0  0
   -5.9148   -0.4381    1.9008 H   0  0  0  0  0  0  0  0  0  0  0  0
  1  2  1  0
  2  3  2  0
  2  4  2  0
  2  5  1  0
  5  6  1  0
  6  7  1  0
  7  8  1  0
  8  9  2  0
  9 10  1  0
 10 11  1  0
 11 12  1  0
 12 13  2  0
 13 14  1  0
 14 15  1  0
 15 16  2  0
 16 17  1  0
 17 18  1  0
 12 19  1  0
 19 20  2  0
 19 21  1  0
 21 22  1  0
 22 23  1  0
 23 24  1  0
 24 25  1  0
 25 26  1  0
 16  8  1  0
 26 22  1  0
 14 10  2  0
  1 27  1  0
  1 28  1  0
  1 29  1  0
  5 30  1  0
  5 31  1  0
  6 32  1  0
  6 33  1  0
  7 34  1  0
  7 35  1  0
  9 36  1  0
 15 37  1  0
 18 38  1  0
 18 39  1  0
 18 40  1  0
 21 41  1  0
 22 42  1  0
 23 43  1  0
 23 44  1  0
 24 45  1  0
 24 46  1  0
 25 47  1  0
 25 48  1  0
 26 49  1  0
 26 50  1  0
M  END
$$$$
[H]O[C@]([H])(c1nc(C(=O)N([H])[H])c([H])s1)C([H])([H])C(=O)N1C([H])([H])C([H])([H])N(c2c([H])c([H])c(-c3c([H])c([H])c(C([H])([H])N4C([H])([H])C([H])([H])C([H])([H])C4([H])[H])c([H])c3[H])c(OC([H])([H])[H])c2[H])C([H])([H])C1([H])[H]
     RDKit          3D

 74 78  0  0  0  0  0  0  0  0999 V2000
   -1.7288   -3.1404   -2.3834 C   0  0  0  0  0  0  0  0  0  0  0  0
   -2.4283   -2.2301   -1.5258 O   0  0  0  0  0  0  0  0  0  0  0  0
   -1.6946   -1.2411   -0.8655 C   0  0  0  0  0  0  0  0  0  0  0  0
   -0.3343   -1.1202   -1.0146 C   0  0  0  0  0  0  0  0  0  0  0  0
    0.4191   -0.1625   -0.3828 C   0  0  0  0  0  0  0  0  0  0  0  0
   -0.2344    0.7214    0.4442 C   0  0  0  0  0  0  0  0  0  0  0  0
   -1.6135    0.6045    0.6000 C   0  0  0  0  0  0  0  0  0  0  0  0
   -2.3468   -0.3575   -0.0387 C   0  0  0  0  0  0  0  0  0  0  0  0
   -3.8121   -0.4451    0.1559 C   0  0  0  0  0  0  0  0  0  0  0  0
   -4.6776   -0.5969   -0.9041 C   0  0  0  0  0  0  0  0  0  0  0  0
   -6.0580   -0.6835   -0.7085 C   0  0  0  0  0  0  0  0  0  0  0  0
   -6.6069   -0.6200    0.5550 C   0  0  0  0  0  0  0  0  0  0  0  0
   -8.0587   -0.7124    0.8038 C   0  0  0  0  0  0  0  0  0  0  0  0
   -8.7841    0.4962    0.7772 N   0  0  0  0  0  0  0  0  0  0  0  0
   -8.4244    1.5094    1.7066 C   0  0  0  0  0  0  0  0  0  0  0  0
   -9.0394    2.8038    1.2129 C   0  0  0  0  0  0  0  0  0  0  0  0
   -9.3733    2.5428   -0.2418 C   0  0  0  0  0  0  0  0  0  0  0  0
   -9.0545    1.0870   -0.4842 C   0  0  0  0  0  0  0  0  0  0  0  0
   -5.7250   -0.4673    1.6079 C   0  0  0  0  0  0  0  0  0  0  0  0
   -4.3612   -0.3814    1.4194 C   0  0  0  0  0  0  0  0  0  0  0  0
    1.8199   -0.1206   -0.5934 N   0  0  0  0  0  0  0  0  0  0  0  0
    2.6886    0.8912   -0.0859 C   0  0  0  0  0  0  0  0  0  0  0  0
    3.6516    0.1774    0.8723 C   0  0  0  0  0  0  0  0  0  0  0  0
    4.4289   -0.7235    0.0387 N   0  0  0  0  0  0  0  0  0  0  0  0
    3.9448   -1.2074   -1.2357 C   0  0  0  0  0  0  0  0  0  0  0  0
    2.4527   -1.1822   -1.3763 C   0  0  0  0  0  0  0  0  0  0  0  0
    5.7077   -1.1486    0.4754 C   0  0  0  0  0  0  0  0  0  0  0  0
    6.1255   -0.7127    1.6022 O   0  0  0  0  0  0  0  0  0  0  0  0
    6.6152   -2.0476   -0.2383 C   0  0  0  0  0  0  0  0  0  0  0  0
    7.6952   -1.2991   -0.9934 C   0  0  2  0  0  0  0  0  0  0  0  0
    8.4951   -2.2183   -1.6273 O   0  0  0  0  0  0  0  0  0  0  0  0
    8.5333   -0.4749   -0.0467 C   0  0  0  0  0  0  0  0  0  0  0  0
    8.5163    0.8328    0.1173 N   0  0  0  0  0  0  0  0  0  0  0  0
    9.3091    1.3944    0.9835 C   0  0  0  0  0  0  0  0  0  0  0  0
   10.1405    0.5597    1.6954 C   0  0  0  0  0  0  0  0  0  0  0  0
    9.7215   -0.9718    1.0668 S   0  0  0  0  0  0  0  0  0  0  0  0
    9.3105    2.8671    1.1873 C   0  0  0  0  0  0  0  0  0  0  0  0
    8.4645    3.7210    0.4581 N   0  0  0  0  0  0  0  0  0  0  0  0
   10.0888    3.3510    2.0318 O   0  0  0  0  0  0  0  0  0  0  0  0
   -0.9216   -3.6491   -1.8050 H   0  0  0  0  0  0  0  0  0  0  0  0
   -1.3031   -2.5685   -3.2418 H   0  0  0  0  0  0  0  0  0  0  0  0
   -2.4365   -3.8852   -2.7994 H   0  0  0  0  0  0  0  0  0  0  0  0
    0.1828   -1.8172   -1.6680 H   0  0  0  0  0  0  0  0  0  0  0  0
    0.3362    1.4767    0.9474 H   0  0  0  0  0  0  0  0  0  0  0  0
   -2.1043    1.3209    1.2632 H   0  0  0  0  0  0  0  0  0  0  0  0
   -4.2653   -0.6467   -1.9024 H   0  0  0  0  0  0  0  0  0  0  0  0
   -6.6846   -0.8015   -1.5726 H   0  0  0  0  0  0  0  0  0  0  0  0
   -8.5569   -1.4114    0.0678 H   0  0  0  0  0  0  0  0  0  0  0  0
   -8.2726   -1.2114    1.7964 H   0  0  0  0  0  0  0  0  0  0  0  0
   -7.3620    1.6087    1.9400 H   0  0  0  0  0  0  0  0  0  0  0  0
   -8.9326    1.2851    2.6844 H   0  0  0  0  0  0  0  0  0  0  0  0
   -9.9935    3.0438    1.7501 H   0  0  0  0  0  0  0  0  0  0  0  0
   -8.3471    3.6468    1.2986 H   0  0  0  0  0  0  0  0  0  0  0  0
  -10.4288    2.7988   -0.4663 H   0  0  0  0  0  0  0  0  0  0  0  0
   -8.7197    3.1418   -0.9112 H   0  0  0  0  0  0  0  0  0  0  0  0
  -10.0088    0.6222   -0.8725 H   0  0  0  0  0  0  0  0  0  0  0  0
   -8.3089    0.9322   -1.2641 H   0  0  0  0  0  0  0  0  0  0  0  0
   -6.1167   -0.4138    2.6110 H   0  0  0  0  0  0  0  0  0  0  0  0
   -3.6860   -0.2625    2.2494 H   0  0  0  0  0  0  0  0  0  0  0  0
    3.3208    1.2503   -0.9478 H   0  0  0  0  0  0  0  0  0  0  0  0
    2.2313    1.7761    0.3378 H   0  0  0  0  0  0  0  0  0  0  0  0
    3.0004   -0.3946    1.5715 H   0  0  0  0  0  0  0  0  0  0  0  0
    4.2623    0.9245    1.3965 H   0  0  0  0  0  0  0  0  0  0  0  0
    4.3588   -0.4929   -2.0033 H   0  0  0  0  0  0  0  0  0  0  0  0
    4.2723   -2.2314   -1.4848 H   0  0  0  0  0  0  0  0  0  0  0  0
    2.1773   -0.9935   -2.4299 H   0  0  0  0  0  0  0  0  0  0  0  0
    2.0743   -2.1747   -1.0127 H   0  0  0  0  0  0  0  0  0  0  0  0
    6.1389   -2.7446   -0.9229 H   0  0  0  0  0  0  0  0  0  0  0  0
    7.1769   -2.6762    0.5159 H   0  0  0  0  0  0  0  0  0  0  0  0
    7.2166   -0.6693   -1.7443 H   0  0  0  0  0  0  0  0  0  0  0  0
    8.7502   -2.9884   -1.0475 H   0  0  0  0  0  0  0  0  0  0  0  0
   10.8798    0.8391    2.4696 H   0  0  0  0  0  0  0  0  0  0  0  0
    7.4475    3.5410    0.4329 H   0  0  0  0  0  0  0  0  0  0  0  0
    8.8499    4.5302   -0.0551 H   0  0  0  0  0  0  0  0  0  0  0  0
  1  2  1  0
  2  3  1  0
  3  4  2  0
  4  5  1  0
  5  6  2  0
  6  7  1  0
  7  8  2  0
  8  9  1  0
  9 10  2  0
 10 11  1  0
 11 12  2  0
 12 13  1  0
 13 14  1  0
 14 15  1  0
 15 16  1  0
 16 17  1  0
 17 18  1  0
 12 19  1  0
 19 20  2  0
  5 21  1  0
 21 22  1  0
 22 23  1  0
 23 24  1  0
 24 25  1  0
 25 26  1  0
 24 27  1  0
 27 28  2  0
 27 29  1  0
 29 30  1  0
 30 31  1  0
 30 32  1  0
 32 33  2  0
 33 34  1  0
 34 35  2  0
 35 36  1  0
 34 37  1  0
 37 38  1  0
 37 39  2  0
  8  3  1  0
 20  9  1  0
 26 21  1  0
 36 32  1  0
 18 14  1  0
  1 40  1  0
  1 41  1  0
  1 42  1  0
  4 43  1  0
  6 44  1  0
  7 45  1  0
 10 46  1  0
 11 47  1  0
 13 48  1  0
 13 49  1  0
 15 50  1  0
 15 51  1  0
 16 52  1  0
 16 53  1  0
 17 54  1  0
 17 55  1  0
 18 56  1  0
 18 57  1  0
 19 58  1  0
 20 59  1  0
 22 60  1  0
 22 61  1  0
 23 62  1  0
 23 63  1  0
 25 64  1  0
 25 65  1  0
 26 66  1  0
 26 67  1  0
 29 68  1  0
 29 69  1  0
 30 70  1  6
 31 71  1  0
 35 72  1  0
 38 73  1  0
 38 74  1  0
M  END
$$$$
[H]c1nc([H])c(N([H])C([H])([H])[H])c([H])c1-c1c([H])c([H])c(C([H])([H])[C@@]([H])(N([H])c2c([H])c([H])c([H])c([H])c2[H])C(F)(F)F)c([H])c1[H]
     RDKit          3D

 47 49  0  0  0  0  0  0  0  0999 V2000
    7.8296   -1.8278   -0.5812 C   0  0  0  0  0  0  0  0  0  0  0  0
    6.4210   -1.7952   -0.2737 N   0  0  0  0  0  0  0  0  0  0  0  0
    5.6734   -0.5997   -0.4360 C   0  0  0  0  0  0  0  0  0  0  0  0
    6.2825    0.5541   -0.8822 C   0  0  0  0  0  0  0  0  0  0  0  0
    5.5773    1.6885   -1.0373 N   0  0  0  0  0  0  0  0  0  0  0  0
    4.2688    1.7561   -0.7710 C   0  0  0  0  0  0  0  0  0  0  0  0
    3.5838    0.6362   -0.3175 C   0  0  0  0  0  0  0  0  0  0  0  0
    4.3250   -0.5200   -0.1643 C   0  0  0  0  0  0  0  0  0  0  0  0
    2.1505    0.6777   -0.0171 C   0  0  0  0  0  0  0  0  0  0  0  0
    1.5099    1.7966    0.4609 C   0  0  0  0  0  0  0  0  0  0  0  0
    0.1645    1.8471    0.7459 C   0  0  0  0  0  0  0  0  0  0  0  0
   -0.6022    0.7251    0.5483 C   0  0  0  0  0  0  0  0  0  0  0  0
   -2.0408    0.6992    0.8249 C   0  0  0  0  0  0  0  0  0  0  0  0
   -2.8856    1.0032   -0.3670 C   0  0  1  0  0  0  0  0  0  0  0  0
   -4.3020    0.9627   -0.0644 N   0  0  0  0  0  0  0  0  0  0  0  0
   -5.0240   -0.2124    0.2682 C   0  0  0  0  0  0  0  0  0  0  0  0
   -6.3158   -0.0987    0.7613 C   0  0  0  0  0  0  0  0  0  0  0  0
   -7.0938   -1.1866    1.0963 C   0  0  0  0  0  0  0  0  0  0  0  0
   -6.6055   -2.4682    0.9507 C   0  0  0  0  0  0  0  0  0  0  0  0
   -5.3263   -2.5928    0.4625 C   0  0  0  0  0  0  0  0  0  0  0  0
   -4.5481   -1.4982    0.1269 C   0  0  0  0  0  0  0  0  0  0  0  0
   -2.5845    2.2780   -1.0828 C   0  0  0  0  0  0  0  0  0  0  0  0
   -2.7154    3.4016   -0.2931 F   0  0  0  0  0  0  0  0  0  0  0  0
   -3.6181    2.4180   -2.0428 F   0  0  0  0  0  0  0  0  0  0  0  0
   -1.4351    2.2690   -1.8340 F   0  0  0  0  0  0  0  0  0  0  0  0
    0.0213   -0.4105    0.0686 C   0  0  0  0  0  0  0  0  0  0  0  0
    1.3698   -0.4485   -0.2130 C   0  0  0  0  0  0  0  0  0  0  0  0
    8.2817   -0.9350   -0.0700 H   0  0  0  0  0  0  0  0  0  0  0  0
    8.3275   -2.7099   -0.1303 H   0  0  0  0  0  0  0  0  0  0  0  0
    8.0469   -1.8504   -1.6599 H   0  0  0  0  0  0  0  0  0  0  0  0
    5.9424   -2.6516    0.0708 H   0  0  0  0  0  0  0  0  0  0  0  0
    7.3332    0.5945   -1.1220 H   0  0  0  0  0  0  0  0  0  0  0  0
    3.6753    2.6623   -0.8886 H   0  0  0  0  0  0  0  0  0  0  0  0
    3.8106   -1.4020    0.1872 H   0  0  0  0  0  0  0  0  0  0  0  0
    2.1342    2.6958    0.6168 H   0  0  0  0  0  0  0  0  0  0  0  0
   -0.2548    2.7776    1.1238 H   0  0  0  0  0  0  0  0  0  0  0  0
   -2.2427    1.4178    1.6645 H   0  0  0  0  0  0  0  0  0  0  0  0
   -2.3374   -0.2902    1.2383 H   0  0  0  0  0  0  0  0  0  0  0  0
   -2.7334    0.1697   -1.1099 H   0  0  0  0  0  0  0  0  0  0  0  0
   -4.8292    1.8669   -0.0932 H   0  0  0  0  0  0  0  0  0  0  0  0
   -6.7293    0.8975    0.8877 H   0  0  0  0  0  0  0  0  0  0  0  0
   -8.1059   -1.0849    1.4823 H   0  0  0  0  0  0  0  0  0  0  0  0
   -7.2277   -3.3105    1.2179 H   0  0  0  0  0  0  0  0  0  0  0  0
   -4.9259   -3.5833    0.3415 H   0  0  0  0  0  0  0  0  0  0  0  0
   -3.5402   -1.6194   -0.2675 H   0  0  0  0  0  0  0  0  0  0  0  0
   -0.5437   -1.3331   -0.1071 H   0  0  0  0  0  0  0  0  0  0  0  0
    1.8385   -1.3660   -0.5937 H   0  0  0  0  0  0  0  0  0  0  0  0
  1  2  1  0
  2  3  1  0
  3  4  2  0
  4  5  1  0
  5  6  2  0
  6  7  1  0
  7  8  2  0
  7  9  1  0
  9 10  2  0
 10 11  1  0
 11 12  2  0
 12 13  1  0
 13 14  1  0
 14 15  1  0
 15 16  1  0
 16 17  2  0
 17 18  1  0
 18 19  2  0
 19 20  1  0
 20 21  2  0
 14 22  1  0
 22 23  1  0
 22 24  1  0
 22 25  1  0
 12 26  1  0
 26 27  2  0
  8  3  1  0
 27  9  1  0
 21 16  1  0
  1 28  1  0
  1 29  1  0
  1 30  1  0
  2 31  1  0
  4 32  1  0
  6 33  1  0
  8 34  1  0
 10 35  1  0
 11 36  1  0
 13 37  1  0
 13 38  1  0
 14 39  1  6
 15 40  1  0
 17 41  1  0
 18 42  1  0
 19 43  1  0
 20 44  1  0
 21 45  1  0
 26 46  1  0
 27 47  1  0
M  END
$$$$
[H]c1nc(N([H])C([H])([H])c2c([H])c([H])c([H])c([H])c2F)c([H])c([H])c1C(=O)OC([H])([H])[H]
     RDKit          3D

 32 33  0  0  0  0  0  0  0  0999 V2000
    6.6255   -1.0731    0.4838 C   0  0  0  0  0  0  0  0  0  0  0  0
    5.2334   -0.9007    0.4073 O   0  0  0  0  0  0  0  0  0  0  0  0
    4.6625    0.1727   -0.2457 C   0  0  0  0  0  0  0  0  0  0  0  0
    5.4099    1.0156   -0.7847 O   0  0  0  0  0  0  0  0  0  0  0  0
    3.2146    0.3068   -0.2973 C   0  0  0  0  0  0  0  0  0  0  0  0
    2.6056    1.3564   -0.9347 C   0  0  0  0  0  0  0  0  0  0  0  0
    1.2318    1.4456   -0.9601 C   0  0  0  0  0  0  0  0  0  0  0  0
    0.4293    0.5025   -0.3579 C   0  0  0  0  0  0  0  0  0  0  0  0
   -1.0135    0.5899   -0.3805 N   0  0  0  0  0  0  0  0  0  0  0  0
   -1.7777   -0.4144    0.2587 C   0  0  0  0  0  0  0  0  0  0  0  0
   -3.2321   -0.2209    0.1704 C   0  0  0  0  0  0  0  0  0  0  0  0
   -3.7983    0.8400   -0.4751 C   0  0  0  0  0  0  0  0  0  0  0  0
   -5.1984    0.9698   -0.5250 C   0  0  0  0  0  0  0  0  0  0  0  0
   -6.0405    0.0530    0.0617 C   0  0  0  0  0  0  0  0  0  0  0  0
   -5.4457   -1.0107    0.7082 C   0  0  0  0  0  0  0  0  0  0  0  0
   -4.0865   -1.1625    0.7727 C   0  0  0  0  0  0  0  0  0  0  0  0
   -3.5148   -2.2231    1.4178 F   0  0  0  0  0  0  0  0  0  0  0  0
    1.0458   -0.5194    0.2622 N   0  0  0  0  0  0  0  0  0  0  0  0
    2.3834   -0.6331    0.3035 C   0  0  0  0  0  0  0  0  0  0  0  0
    6.8644   -1.9531    1.1014 H   0  0  0  0  0  0  0  0  0  0  0  0
    7.1581   -0.1813    0.8443 H   0  0  0  0  0  0  0  0  0  0  0  0
    6.9797   -1.2975   -0.5546 H   0  0  0  0  0  0  0  0  0  0  0  0
    3.1693    2.1343   -1.4293 H   0  0  0  0  0  0  0  0  0  0  0  0
    0.7238    2.2796   -1.4660 H   0  0  0  0  0  0  0  0  0  0  0  0
   -1.3993    1.3910   -0.8688 H   0  0  0  0  0  0  0  0  0  0  0  0
   -1.5273   -0.4211    1.3725 H   0  0  0  0  0  0  0  0  0  0  0  0
   -1.5014   -1.4437   -0.1282 H   0  0  0  0  0  0  0  0  0  0  0  0
   -3.2422    1.6304   -0.9772 H   0  0  0  0  0  0  0  0  0  0  0  0
   -5.6078    1.8207   -1.0436 H   0  0  0  0  0  0  0  0  0  0  0  0
   -7.1181    0.1408    0.0307 H   0  0  0  0  0  0  0  0  0  0  0  0
   -6.1248   -1.7390    1.1746 H   0  0  0  0  0  0  0  0  0  0  0  0
    2.8913   -1.4558    0.8025 H   0  0  0  0  0  0  0  0  0  0  0  0
  1  2  1  0
  2  3  1  0
  3  4  2  0
  3  5  1  0
  5  6  2  0
  6  7  1  0
  7  8  2  0
  8  9  1  0
  9 10  1  0
 10 11  1  0
 11 12  2  0
 12 13  1  0
 13 14  2  0
 14 15  1  0
 15 16  2  0
 16 17  1  0
  8 18  1  0
 18 19  2  0
 19  5  1  0
 16 11  1  0
  1 20  1  0
  1 21  1  0
  1 22  1  0
  6 23  1  0
  7 24  1  0
  9 25  1  0
 10 26  1  0
 10 27  1  0
 12 28  1  0
 13 29  1  0
 14 30  1  0
 15 31  1  0
 19 32  1  0
M  END
$$$$
[H]c1c([H])c(C([H])([H])[H])c([H])c(S(=O)(=O)C2(c3c([H])c([H])c4c(c3[H])c(C([H])([H])[H])c([H])n4C([H])([H])[H])C([H])([H])C([H])([H])N([H])C([H])([H])C2([H])[H])c1Cl
     RDKit          3D

 53 56  0  0  0  0  0  0  0  0999 V2000
   -5.2517    1.6587    1.5499 C   0  0  0  0  0  0  0  0  0  0  0  0
   -4.0798    1.7342    0.6298 C   0  0  0  0  0  0  0  0  0  0  0  0
   -3.5626    2.9555    0.3107 C   0  0  0  0  0  0  0  0  0  0  0  0
   -2.4829    3.0087   -0.5400 C   0  0  0  0  0  0  0  0  0  0  0  0
   -1.9449    1.8247   -1.0556 C   0  0  0  0  0  0  0  0  0  0  0  0
   -0.6458    2.0814   -2.2132 Cl  0  0  0  0  0  0  0  0  0  0  0  0
   -2.4293    0.6011   -0.7600 C   0  0  0  0  0  0  0  0  0  0  0  0
   -3.5406    0.5822    0.1172 C   0  0  0  0  0  0  0  0  0  0  0  0
   -1.7753   -0.8962   -1.2758 S   0  0  0  0  0  0  0  0  0  0  0  0
   -2.9385   -1.8875   -1.3331 O   0  0  0  0  0  0  0  0  0  0  0  0
   -1.3631   -0.8170   -2.7674 O   0  0  0  0  0  0  0  0  0  0  0  0
   -0.3968   -1.5508   -0.4574 C   0  0  0  0  0  0  0  0  0  0  0  0
   -0.6159   -1.7606    1.0279 C   0  0  0  0  0  0  0  0  0  0  0  0
   -1.4501   -2.9238    1.4050 C   0  0  0  0  0  0  0  0  0  0  0  0
   -1.6430   -3.9121    0.3962 N   0  0  0  0  0  0  0  0  0  0  0  0
   -0.4361   -4.0854   -0.3401 C   0  0  0  0  0  0  0  0  0  0  0  0
   -0.0663   -2.8869   -1.1335 C   0  0  0  0  0  0  0  0  0  0  0  0
    0.8213   -0.7462   -0.5980 C   0  0  0  0  0  0  0  0  0  0  0  0
    1.6090   -0.7737   -1.7525 C   0  0  0  0  0  0  0  0  0  0  0  0
    2.7833   -0.0289   -1.8580 C   0  0  0  0  0  0  0  0  0  0  0  0
    3.2034    0.7631   -0.8150 C   0  0  0  0  0  0  0  0  0  0  0  0
    4.2812    1.5530   -0.7005 N   0  0  0  0  0  0  0  0  0  0  0  0
    5.3172    1.7725   -1.7115 C   0  0  0  0  0  0  0  0  0  0  0  0
    4.2556    2.1269    0.5155 C   0  0  0  0  0  0  0  0  0  0  0  0
    3.1303    1.6791    1.1712 C   0  0  0  0  0  0  0  0  0  0  0  0
    2.7467    2.0714    2.5368 C   0  0  0  0  0  0  0  0  0  0  0  0
    2.4598    0.8145    0.3303 C   0  0  0  0  0  0  0  0  0  0  0  0
    1.2991    0.0740    0.4255 C   0  0  0  0  0  0  0  0  0  0  0  0
   -4.8789    1.1298    2.4683 H   0  0  0  0  0  0  0  0  0  0  0  0
   -6.0811    1.0779    1.1385 H   0  0  0  0  0  0  0  0  0  0  0  0
   -5.5369    2.6732    1.9139 H   0  0  0  0  0  0  0  0  0  0  0  0
   -3.9830    3.8941    0.7155 H   0  0  0  0  0  0  0  0  0  0  0  0
   -2.0671    3.9729   -0.7961 H   0  0  0  0  0  0  0  0  0  0  0  0
   -3.9660   -0.3842    0.3817 H   0  0  0  0  0  0  0  0  0  0  0  0
    0.3900   -1.8710    1.4805 H   0  0  0  0  0  0  0  0  0  0  0  0
   -1.0339   -0.8042    1.4183 H   0  0  0  0  0  0  0  0  0  0  0  0
   -1.0537   -3.4687    2.3114 H   0  0  0  0  0  0  0  0  0  0  0  0
   -2.4764   -2.5749    1.7115 H   0  0  0  0  0  0  0  0  0  0  0  0
   -2.0145   -4.7838    0.8209 H   0  0  0  0  0  0  0  0  0  0  0  0
    0.4222   -4.3838    0.3161 H   0  0  0  0  0  0  0  0  0  0  0  0
   -0.5611   -4.9757   -1.0291 H   0  0  0  0  0  0  0  0  0  0  0  0
    1.0447   -2.9717   -1.3373 H   0  0  0  0  0  0  0  0  0  0  0  0
   -0.5537   -2.9472   -2.1252 H   0  0  0  0  0  0  0  0  0  0  0  0
    1.2590   -1.3967   -2.5564 H   0  0  0  0  0  0  0  0  0  0  0  0
    3.3099   -0.1196   -2.7862 H   0  0  0  0  0  0  0  0  0  0  0  0
    5.0811    2.6769   -2.3028 H   0  0  0  0  0  0  0  0  0  0  0  0
    5.3039    0.9281   -2.4390 H   0  0  0  0  0  0  0  0  0  0  0  0
    6.3027    1.8957   -1.2705 H   0  0  0  0  0  0  0  0  0  0  0  0
    5.0154    2.8123    0.8517 H   0  0  0  0  0  0  0  0  0  0  0  0
    2.5369    3.1506    2.5803 H   0  0  0  0  0  0  0  0  0  0  0  0
    3.6369    1.8257    3.1854 H   0  0  0  0  0  0  0  0  0  0  0  0
    1.8754    1.4792    2.9153 H   0  0  0  0  0  0  0  0  0  0  0  0
    0.7439    0.1328    1.3288 H   0  0  0  0  0  0  0  0  0  0  0  0
  1  2  1  0
  2  3  2  0
  3  4  1  0
  4  5  2  0
  5  6  1  0
  5  7  1  0
  7  8  2  0
  7  9  1  0
  9 10  2  0
  9 11  2  0
  9 12  1  0
 12 13  1  0
 13 14  1  0
 14 15  1  0
 15 16  1  0
 16 17  1  0
 12 18  1  0
 18 19  2  0
 19 20  1  0
 20 21  2  0
 21 22  1  0
 22 23  1  0
 22 24  1  0
 24 25  2  0
 25 26  1  0
 25 27  1  0
 27 28  2  0
  8  2  1  0
 17 12  1  0
 28 18  1  0
 27 21  1  0
  1 29  1  0
  1 30  1  0
  1 31  1  0
  3 32  1  0
  4 33  1  0
  8 34  1  0
 13 35  1  0
 13 36  1  0
 14 37  1  0
 14 38  1  0
 15 39  1  0
 16 40  1  0
 16 41  1  0
 17 42  1  0
 17 43  1  0
 19 44  1  0
 20 45  1  0
 23 46  1  0
 23 47  1  0
 23 48  1  0
 24 49  1  0
 26 50  1  0
 26 51  1  0
 26 52  1  0
 28 53  1  0
M  END
$$$$
[H]c1nc(N2C([H])([H])C([H])([H])N(C(=O)c3c([H])c([H])c([H])c(C(F)(F)F)c3[H])[C@@]([H])(C([H])([H])[H])C2([H])[H])sc1C(F)(F)F
     RDKit          3D

 43 45  0  0  0  0  0  0  0  0999 V2000
    0.3773   -2.2673    1.6021 C   0  0  0  0  0  0  0  0  0  0  0  0
    0.6129   -1.0587    0.7932 C   0  0  1  0  0  0  0  0  0  0  0  0
    1.5963   -1.2140   -0.3689 C   0  0  0  0  0  0  0  0  0  0  0  0
    2.1592    0.1529   -0.4398 N   0  0  0  0  0  0  0  0  0  0  0  0
    1.2866    1.2198   -0.6581 C   0  0  0  0  0  0  0  0  0  0  0  0
   -0.1287    1.0512   -0.1552 C   0  0  0  0  0  0  0  0  0  0  0  0
   -0.4810   -0.2471    0.3277 N   0  0  0  0  0  0  0  0  0  0  0  0
   -1.7878   -0.7293    0.2551 C   0  0  0  0  0  0  0  0  0  0  0  0
   -1.9294   -1.9988    0.4532 O   0  0  0  0  0  0  0  0  0  0  0  0
   -3.0288   -0.0328   -0.0003 C   0  0  0  0  0  0  0  0  0  0  0  0
   -3.2429    1.3082   -0.0296 C   0  0  0  0  0  0  0  0  0  0  0  0
   -4.5059    1.8815   -0.2857 C   0  0  0  0  0  0  0  0  0  0  0  0
   -5.5906    1.0706   -0.5201 C   0  0  0  0  0  0  0  0  0  0  0  0
   -5.4243   -0.2931   -0.5043 C   0  0  0  0  0  0  0  0  0  0  0  0
   -4.1756   -0.8189   -0.2511 C   0  0  0  0  0  0  0  0  0  0  0  0
   -6.5983   -1.1834   -0.7274 C   0  0  0  0  0  0  0  0  0  0  0  0
   -7.7204   -0.3504   -0.9103 F   0  0  0  0  0  0  0  0  0  0  0  0
   -6.4490   -1.8730   -1.8763 F   0  0  0  0  0  0  0  0  0  0  0  0
   -6.8338   -1.9813    0.3855 F   0  0  0  0  0  0  0  0  0  0  0  0
    3.5460    0.2985   -0.2060 C   0  0  0  0  0  0  0  0  0  0  0  0
    4.4002   -0.5891    0.2937 N   0  0  0  0  0  0  0  0  0  0  0  0
    5.6444   -0.3209    0.4525 C   0  0  0  0  0  0  0  0  0  0  0  0
    6.0638    0.9501    0.0765 C   0  0  0  0  0  0  0  0  0  0  0  0
    4.5979    1.6210   -0.4693 S   0  0  0  0  0  0  0  0  0  0  0  0
    7.4750    1.4825    0.1622 C   0  0  0  0  0  0  0  0  0  0  0  0
    8.0737    1.1191    1.3275 F   0  0  0  0  0  0  0  0  0  0  0  0
    8.2145    1.1445   -0.9746 F   0  0  0  0  0  0  0  0  0  0  0  0
    7.3567    2.8669    0.1695 F   0  0  0  0  0  0  0  0  0  0  0  0
    0.1260   -1.9562    2.6557 H   0  0  0  0  0  0  0  0  0  0  0  0
   -0.1907   -3.0842    1.2191 H   0  0  0  0  0  0  0  0  0  0  0  0
    1.4465   -2.7084    1.7549 H   0  0  0  0  0  0  0  0  0  0  0  0
    1.1777   -0.3006    1.5078 H   0  0  0  0  0  0  0  0  0  0  0  0
    1.0267   -1.4263   -1.3034 H   0  0  0  0  0  0  0  0  0  0  0  0
    2.3743   -1.9549   -0.1598 H   0  0  0  0  0  0  0  0  0  0  0  0
    1.1880    1.3500   -1.7826 H   0  0  0  0  0  0  0  0  0  0  0  0
    1.7109    2.2048   -0.2870 H   0  0  0  0  0  0  0  0  0  0  0  0
   -0.2237    1.7610    0.6860 H   0  0  0  0  0  0  0  0  0  0  0  0
   -0.8128    1.3786   -0.9664 H   0  0  0  0  0  0  0  0  0  0  0  0
   -2.4765    2.0096    0.1610 H   0  0  0  0  0  0  0  0  0  0  0  0
   -4.6437    2.9519   -0.3005 H   0  0  0  0  0  0  0  0  0  0  0  0
   -6.5578    1.5082   -0.6974 H   0  0  0  0  0  0  0  0  0  0  0  0
   -4.0361   -1.9022   -0.2498 H   0  0  0  0  0  0  0  0  0  0  0  0
    6.3834   -1.0403    0.8861 H   0  0  0  0  0  0  0  0  0  0  0  0
  1  2  1  0
  2  3  1  0
  3  4  1  0
  4  5  1  0
  5  6  1  0
  6  7  1  0
  7  8  1  0
  8  9  2  0
  8 10  1  0
 10 11  2  0
 11 12  1  0
 12 13  2  0
 13 14  1  0
 14 15  2  0
 14 16  1  0
 16 17  1  0
 16 18  1  0
 16 19  1  0
  4 20  1  0
 20 21  2  0
 21 22  1  0
 22 23  2  0
 23 24  1  0
 23 25  1  0
 25 26  1  0
 25 27  1  0
 25 28  1  0
  7  2  1  0
 15 10  1  0
 24 20  1  0
  1 29  1  0
  1 30  1  0
  1 31  1  0
  2 32  1  1
  3 33  1  0
  3 34  1  0
  5 35  1  0
  5 36  1  0
  6 37  1  0
  6 38  1  0
 11 39  1  0
 12 40  1  0
 13 41  1  0
 15 42  1  0
 22 43  1  0
M  END
$$$$
[H]c1c([H])c(-c2c([H])c([H])c(C([H])([H])n3c(C([H])([H])[H])nc4c([H])c(I)c([H])c([H])c43)c([H])c2[H])c([H])c(C(=O)C([H])([H])[H])c1C#N
     RDKit          3D

 47 50  0  0  0  0  0  0  0  0999 V2000
   -4.1896   -2.3681   -1.1377 C   0  0  0  0  0  0  0  0  0  0  0  0
   -4.1723   -0.9485   -0.6761 C   0  0  0  0  0  0  0  0  0  0  0  0
   -4.8394    0.0080   -1.3437 N   0  0  0  0  0  0  0  0  0  0  0  0
   -4.6704    1.1783   -0.7259 C   0  0  0  0  0  0  0  0  0  0  0  0
   -5.1535    2.4382   -1.0239 C   0  0  0  0  0  0  0  0  0  0  0  0
   -4.8435    3.5035   -0.2284 C   0  0  0  0  0  0  0  0  0  0  0  0
   -5.6027    5.3914   -0.7267 I   0  0  0  0  0  0  0  0  0  0  0  0
   -4.0404    3.2936    0.8750 C   0  0  0  0  0  0  0  0  0  0  0  0
   -3.5704    2.0258    1.1514 C   0  0  0  0  0  0  0  0  0  0  0  0
   -3.8589    0.9252    0.3754 C   0  0  0  0  0  0  0  0  0  0  0  0
   -3.5681   -0.3919    0.3798 N   0  0  0  0  0  0  0  0  0  0  0  0
   -2.7561   -1.0512    1.3573 C   0  0  0  0  0  0  0  0  0  0  0  0
   -1.3178   -1.0899    1.0164 C   0  0  0  0  0  0  0  0  0  0  0  0
   -0.7650   -2.1655    0.3107 C   0  0  0  0  0  0  0  0  0  0  0  0
    0.5765   -2.2039   -0.0082 C   0  0  0  0  0  0  0  0  0  0  0  0
    1.4334   -1.1917    0.3504 C   0  0  0  0  0  0  0  0  0  0  0  0
    0.8900   -0.1332    1.0451 C   0  0  0  0  0  0  0  0  0  0  0  0
   -0.4498   -0.0579    1.3835 C   0  0  0  0  0  0  0  0  0  0  0  0
    2.8377   -1.1758    0.0467 C   0  0  0  0  0  0  0  0  0  0  0  0
    3.5724   -2.3403   -0.0284 C   0  0  0  0  0  0  0  0  0  0  0  0
    4.9172   -2.2783   -0.3238 C   0  0  0  0  0  0  0  0  0  0  0  0
    5.5806   -1.0684   -0.5544 C   0  0  0  0  0  0  0  0  0  0  0  0
    6.9868   -1.0549   -0.8596 C   0  0  0  0  0  0  0  0  0  0  0  0
    8.1162   -1.0654   -1.1032 N   0  0  0  0  0  0  0  0  0  0  0  0
    4.8464    0.0976   -0.4795 C   0  0  0  0  0  0  0  0  0  0  0  0
    3.4931    0.0155   -0.1809 C   0  0  0  0  0  0  0  0  0  0  0  0
    5.4630    1.3817   -0.7060 C   0  0  0  0  0  0  0  0  0  0  0  0
    4.6229    2.6276   -0.6125 C   0  0  0  0  0  0  0  0  0  0  0  0
    6.6564    1.5509   -0.9779 O   0  0  0  0  0  0  0  0  0  0  0  0
   -5.2520   -2.7036   -1.3229 H   0  0  0  0  0  0  0  0  0  0  0  0
   -3.7271   -3.0587   -0.4296 H   0  0  0  0  0  0  0  0  0  0  0  0
   -3.6905   -2.4686   -2.1244 H   0  0  0  0  0  0  0  0  0  0  0  0
   -5.7855    2.5437   -1.9115 H   0  0  0  0  0  0  0  0  0  0  0  0
   -3.8045    4.1473    1.4947 H   0  0  0  0  0  0  0  0  0  0  0  0
   -2.9488    1.8771    2.0120 H   0  0  0  0  0  0  0  0  0  0  0  0
   -2.8635   -0.5743    2.3579 H   0  0  0  0  0  0  0  0  0  0  0  0
   -3.1143   -2.1061    1.4995 H   0  0  0  0  0  0  0  0  0  0  0  0
   -1.3721   -2.9979    0.0009 H   0  0  0  0  0  0  0  0  0  0  0  0
    0.9430   -3.0458   -0.5462 H   0  0  0  0  0  0  0  0  0  0  0  0
    1.5570    0.6903    1.3438 H   0  0  0  0  0  0  0  0  0  0  0  0
   -0.8139    0.8043    1.9374 H   0  0  0  0  0  0  0  0  0  0  0  0
    3.1176   -3.3238    0.1409 H   0  0  0  0  0  0  0  0  0  0  0  0
    5.4938   -3.1970   -0.3822 H   0  0  0  0  0  0  0  0  0  0  0  0
    2.9573    0.9529   -0.1324 H   0  0  0  0  0  0  0  0  0  0  0  0
    5.1807    3.5364   -0.8241 H   0  0  0  0  0  0  0  0  0  0  0  0
    3.8013    2.4668   -1.3627 H   0  0  0  0  0  0  0  0  0  0  0  0
    4.1268    2.6047    0.3797 H   0  0  0  0  0  0  0  0  0  0  0  0
  1  2  1  0
  2  3  2  0
  3  4  1  0
  4  5  2  0
  5  6  1  0
  6  7  1  0
  6  8  2  0
  8  9  1  0
  9 10  2  0
 10 11  1  0
 11 12  1  0
 12 13  1  0
 13 14  2  0
 14 15  1  0
 15 16  2  0
 16 17  1  0
 17 18  2  0
 16 19  1  0
 19 20  2  0
 20 21  1  0
 21 22  2  0
 22 23  1  0
 23 24  3  0
 22 25  1  0
 25 26  2  0
 25 27  1  0
 27 28  1  0
 27 29  2  0
 11  2  1  0
 18 13  1  0
 26 19  1  0
 10  4  1  0
  1 30  1  0
  1 31  1  0
  1 32  1  0
  5 33  1  0
  8 34  1  0
  9 35  1  0
 12 36  1  0
 12 37  1  0
 14 38  1  0
 15 39  1  0
 17 40  1  0
 18 41  1  0
 20 42  1  0
 21 43  1  0
 26 44  1  0
 28 45  1  0
 28 46  1  0
 28 47  1  0
M  END
$$$$
[H]c1c(C([H])([H])[H])nc(N([H])[H])nc1C([H])([H])c1c([H])c([H])c(C([H])([H])[H])c([H])c1C([H])([H])[H]
     RDKit          3D

 34 35  0  0  0  0  0  0  0  0999 V2000
   -4.5337    0.3283    1.5953 C   0  0  0  0  0  0  0  0  0  0  0  0
   -3.3396    0.2933    0.6978 C   0  0  0  0  0  0  0  0  0  0  0  0
   -2.6986    1.4688    0.3700 C   0  0  0  0  0  0  0  0  0  0  0  0
   -1.5915    1.5284   -0.4308 C   0  0  0  0  0  0  0  0  0  0  0  0
   -1.0756    0.3213   -0.9494 C   0  0  0  0  0  0  0  0  0  0  0  0
    0.1834    0.4304   -1.7250 C   0  0  0  0  0  0  0  0  0  0  0  0
    1.3870    0.3879   -0.8710 C   0  0  0  0  0  0  0  0  0  0  0  0
    2.1193   -0.6956   -0.5520 C   0  0  0  0  0  0  0  0  0  0  0  0
    3.2311   -0.6899    0.2726 C   0  0  0  0  0  0  0  0  0  0  0  0
    4.0127   -1.9085    0.6149 C   0  0  0  0  0  0  0  0  0  0  0  0
    3.5961    0.5164    0.7898 N   0  0  0  0  0  0  0  0  0  0  0  0
    2.8868    1.6271    0.4929 C   0  0  0  0  0  0  0  0  0  0  0  0
    3.3044    2.8605    1.0526 N   0  0  0  0  0  0  0  0  0  0  0  0
    1.8187    1.5688   -0.3095 N   0  0  0  0  0  0  0  0  0  0  0  0
   -1.7051   -0.8575   -0.6308 C   0  0  0  0  0  0  0  0  0  0  0  0
   -1.2203   -2.1359   -1.2135 C   0  0  0  0  0  0  0  0  0  0  0  0
   -2.8427   -0.8887    0.1947 C   0  0  0  0  0  0  0  0  0  0  0  0
   -4.2423    0.5507    2.6437 H   0  0  0  0  0  0  0  0  0  0  0  0
   -5.1604    1.2116    1.2720 H   0  0  0  0  0  0  0  0  0  0  0  0
   -5.0517   -0.6229    1.4724 H   0  0  0  0  0  0  0  0  0  0  0  0
   -3.1004    2.4028    0.7739 H   0  0  0  0  0  0  0  0  0  0  0  0
   -1.0898    2.4546   -0.6893 H   0  0  0  0  0  0  0  0  0  0  0  0
    0.1845   -0.4277   -2.4556 H   0  0  0  0  0  0  0  0  0  0  0  0
    0.1681    1.3740   -2.3523 H   0  0  0  0  0  0  0  0  0  0  0  0
    1.8397   -1.6637   -0.9691 H   0  0  0  0  0  0  0  0  0  0  0  0
    3.8229   -2.7339   -0.1109 H   0  0  0  0  0  0  0  0  0  0  0  0
    3.7144   -2.3014    1.6136 H   0  0  0  0  0  0  0  0  0  0  0  0
    5.0984   -1.6804    0.5401 H   0  0  0  0  0  0  0  0  0  0  0  0
    3.3082    3.7033    0.4397 H   0  0  0  0  0  0  0  0  0  0  0  0
    3.5980    2.9459    2.0440 H   0  0  0  0  0  0  0  0  0  0  0  0
   -0.3370   -2.5254   -0.6844 H   0  0  0  0  0  0  0  0  0  0  0  0
   -2.0089   -2.9394   -1.0646 H   0  0  0  0  0  0  0  0  0  0  0  0
   -0.9726   -2.0573   -2.2893 H   0  0  0  0  0  0  0  0  0  0  0  0
   -3.3036   -1.8460    0.4177 H   0  0  0  0  0  0  0  0  0  0  0  0
  1  2  1  0
  2  3  2  0
  3  4  1  0
  4  5  2  0
  5  6  1  0
  6  7  1  0
  7  8  2  0
  8  9  1  0
  9 10  1  0
  9 11  2  0
 11 12  1  0
 12 13  1  0
 12 14  2  0
  5 15  1  0
 15 16  1  0
 15 17  2  0
 17  2  1  0
 14  7  1  0
  1 18  1  0
  1 19  1  0
  1 20  1  0
  3 21  1  0
  4 22  1  0
  6 23  1  0
  6 24  1  0
  8 25  1  0
 10 26  1  0
 10 27  1  0
 10 28  1  0
 13 29  1  0
 13 30  1  0
 16 31  1  0
 16 32  1  0
 16 33  1  0
 17 34  1  0
M  END
$$$$
[H]c1nc(C([H])([H])[H])c([H])c([H])c1C(=O)N1C([H])([H])c2c([H])nn(-c3c([H])c([H])c(OC([H])([H])[H])c([H])c3[H])c2C([H])([H])C1([H])[H]
     RDKit          3D

 46 49  0  0  0  0  0  0  0  0999 V2000
    7.9118    0.7630    1.1568 C   0  0  0  0  0  0  0  0  0  0  0  0
    7.4562   -0.1843    0.2424 O   0  0  0  0  0  0  0  0  0  0  0  0
    6.1438   -0.2531   -0.2144 C   0  0  0  0  0  0  0  0  0  0  0  0
    5.7340   -1.2076   -1.1206 C   0  0  0  0  0  0  0  0  0  0  0  0
    4.4291   -1.2692   -1.5692 C   0  0  0  0  0  0  0  0  0  0  0  0
    3.4788   -0.3738   -1.1263 C   0  0  0  0  0  0  0  0  0  0  0  0
    3.8878    0.5808   -0.2202 C   0  0  0  0  0  0  0  0  0  0  0  0
    5.1994    0.6467    0.2339 C   0  0  0  0  0  0  0  0  0  0  0  0
    2.1119   -0.4327   -1.5917 N   0  0  0  0  0  0  0  0  0  0  0  0
    1.7053   -0.6389   -2.8314 N   0  0  0  0  0  0  0  0  0  0  0  0
    0.3651   -0.6315   -2.9082 C   0  0  0  0  0  0  0  0  0  0  0  0
   -0.0979   -0.4087   -1.6510 C   0  0  0  0  0  0  0  0  0  0  0  0
   -1.4852   -0.2799   -1.1098 C   0  0  0  0  0  0  0  0  0  0  0  0
   -1.6041   -0.5865    0.2784 N   0  0  0  0  0  0  0  0  0  0  0  0
   -2.7119   -0.5014    1.1126 C   0  0  0  0  0  0  0  0  0  0  0  0
   -2.4887   -0.8439    2.3640 O   0  0  0  0  0  0  0  0  0  0  0  0
   -4.0770   -0.1065    0.8770 C   0  0  0  0  0  0  0  0  0  0  0  0
   -4.9965   -0.0538    1.9431 C   0  0  0  0  0  0  0  0  0  0  0  0
   -6.2986    0.2980    1.7830 C   0  0  0  0  0  0  0  0  0  0  0  0
   -6.7435    0.6169    0.5311 C   0  0  0  0  0  0  0  0  0  0  0  0
   -8.1639    1.0158    0.2671 C   0  0  0  0  0  0  0  0  0  0  0  0
   -5.9086    0.5815   -0.5135 N   0  0  0  0  0  0  0  0  0  0  0  0
   -4.6080    0.2281   -0.3428 C   0  0  0  0  0  0  0  0  0  0  0  0
   -0.3593   -1.0854    0.9257 C   0  0  0  0  0  0  0  0  0  0  0  0
    0.7199   -0.0481    0.6005 C   0  0  0  0  0  0  0  0  0  0  0  0
    1.0134   -0.2894   -0.8526 C   0  0  0  0  0  0  0  0  0  0  0  0
    7.2014    1.0021    1.9653 H   0  0  0  0  0  0  0  0  0  0  0  0
    8.2163    1.6830    0.5777 H   0  0  0  0  0  0  0  0  0  0  0  0
    8.8436    0.3427    1.6345 H   0  0  0  0  0  0  0  0  0  0  0  0
    6.4980   -1.9113   -1.4634 H   0  0  0  0  0  0  0  0  0  0  0  0
    4.1420   -2.0370   -2.2853 H   0  0  0  0  0  0  0  0  0  0  0  0
    3.1348    1.2908    0.1311 H   0  0  0  0  0  0  0  0  0  0  0  0
    5.4818    1.4070    0.9424 H   0  0  0  0  0  0  0  0  0  0  0  0
   -0.2694   -0.7727   -3.7881 H   0  0  0  0  0  0  0  0  0  0  0  0
   -1.8413    0.7763   -1.3023 H   0  0  0  0  0  0  0  0  0  0  0  0
   -2.1061   -0.9348   -1.7499 H   0  0  0  0  0  0  0  0  0  0  0  0
   -4.6586   -0.3009    2.9278 H   0  0  0  0  0  0  0  0  0  0  0  0
   -7.0207    0.3447    2.5887 H   0  0  0  0  0  0  0  0  0  0  0  0
   -8.8141    0.4821    0.9621 H   0  0  0  0  0  0  0  0  0  0  0  0
   -8.2654    2.1298    0.3479 H   0  0  0  0  0  0  0  0  0  0  0  0
   -8.4264    0.7713   -0.7854 H   0  0  0  0  0  0  0  0  0  0  0  0
   -4.0276    0.2224   -1.2391 H   0  0  0  0  0  0  0  0  0  0  0  0
   -0.0890   -2.0136    0.3843 H   0  0  0  0  0  0  0  0  0  0  0  0
   -0.4773   -1.2215    1.9983 H   0  0  0  0  0  0  0  0  0  0  0  0
    1.5961   -0.1828    1.2358 H   0  0  0  0  0  0  0  0  0  0  0  0
    0.2687    0.9652    0.6539 H   0  0  0  0  0  0  0  0  0  0  0  0
  1  2  1  0
  2  3  1  0
  3  4  2  0
  4  5  1  0
  5  6  2  0
  6  7  1  0
  7  8  2  0
  6  9  1  0
  9 10  1  0
 10 11  2  0
 11 12  1  0
 12 13  1  0
 13 14  1  0
 14 15  1  0
 15 16  2  0
 15 17  1  0
 17 18  2  0
 18 19  1  0
 19 20  2  0
 20 21  1  0
 20 22  1  0
 22 23  2  0
 14 24  1  0
 24 25  1  0
 25 26  1  0
  8  3  1  0
 26  9  1  0
 26 12  2  0
 23 17  1  0
  1 27  1  0
  1 28  1  0
  1 29  1  0
  4 30  1  0
  5 31  1  0
  7 32  1  0
  8 33  1  0
 11 34  1  0
 13 35  1  0
 13 36  1  0
 18 37  1  0
 19 38  1  0
 21 39  1  0
 21 40  1  0
 21 41  1  0
 23 42  1  0
 24 43  1  0
 24 44  1  0
 25 45  1  0
 25 46  1  0
M  END
$$$$
[H]c1nc(C(F)(F)F)c([H])c(OC([H])([H])C([H])([H])C2([H])C([H])([H])c3c([H])c([H])c(C(=O)N([H])C([H])(C([H])([H])C([H])([H])N(C([H])([H])[H])C([H])([H])[H])S(=O)(=O)c4c([H])c([H])c([H])c([H])c4[H])c([H])c3C2([H])[H])c1[H]
     RDKit          3D

 72 75  0  0  0  0  0  0  0  0999 V2000
   -6.2167    2.8609   -0.3880 C   0  0  0  0  0  0  0  0  0  0  0  0
   -6.1116    1.6176    0.3673 N   0  0  0  0  0  0  0  0  0  0  0  0
   -5.9502    1.8911    1.7971 C   0  0  0  0  0  0  0  0  0  0  0  0
   -5.0308    0.8196   -0.1579 C   0  0  0  0  0  0  0  0  0  0  0  0
   -4.9540   -0.4868    0.6281 C   0  0  0  0  0  0  0  0  0  0  0  0
   -3.8272   -1.3459    0.0825 C   0  0  0  0  0  0  0  0  0  0  0  0
   -2.5960   -0.6591    0.2073 N   0  0  0  0  0  0  0  0  0  0  0  0
   -1.3275   -0.8629   -0.2943 C   0  0  0  0  0  0  0  0  0  0  0  0
   -1.0101   -1.7980   -1.0586 O   0  0  0  0  0  0  0  0  0  0  0  0
   -0.2219    0.0503    0.0671 C   0  0  0  0  0  0  0  0  0  0  0  0
   -0.2839    1.4102   -0.0540 C   0  0  0  0  0  0  0  0  0  0  0  0
    0.7803    2.2281    0.3421 C   0  0  0  0  0  0  0  0  0  0  0  0
    1.9447    1.6886    0.8748 C   0  0  0  0  0  0  0  0  0  0  0  0
    3.2381    2.2870    1.3639 C   0  0  0  0  0  0  0  0  0  0  0  0
    4.1658    1.0763    1.1156 C   0  0  0  0  0  0  0  0  0  0  0  0
    4.3995    0.9542   -0.3675 C   0  0  0  0  0  0  0  0  0  0  0  0
    5.2012   -0.2261   -0.7414 C   0  0  0  0  0  0  0  0  0  0  0  0
    6.4429   -0.3776   -0.2911 O   0  0  0  0  0  0  0  0  0  0  0  0
    7.6055    0.2452   -0.4032 C   0  0  0  0  0  0  0  0  0  0  0  0
    7.7997    1.3863   -1.1450 C   0  0  0  0  0  0  0  0  0  0  0  0
    9.0320    2.0199   -1.2611 C   0  0  0  0  0  0  0  0  0  0  0  0
   10.0865    1.4644   -0.5977 N   0  0  0  0  0  0  0  0  0  0  0  0
    9.9296    0.3565    0.1318 C   0  0  0  0  0  0  0  0  0  0  0  0
    8.7277   -0.2811    0.2609 C   0  0  0  0  0  0  0  0  0  0  0  0
   11.1154   -0.2444    0.8219 C   0  0  0  0  0  0  0  0  0  0  0  0
   11.3478   -1.4541    0.2086 F   0  0  0  0  0  0  0  0  0  0  0  0
   10.8760   -0.4289    2.1502 F   0  0  0  0  0  0  0  0  0  0  0  0
   12.2571    0.5166    0.6704 F   0  0  0  0  0  0  0  0  0  0  0  0
    3.3126   -0.0396    1.6023 C   0  0  0  0  0  0  0  0  0  0  0  0
    1.9854    0.3154    0.9861 C   0  0  0  0  0  0  0  0  0  0  0  0
    0.9483   -0.4940    0.5996 C   0  0  0  0  0  0  0  0  0  0  0  0
   -4.2491   -1.9783   -1.5175 S   0  0  0  0  0  0  0  0  0  0  0  0
   -4.2083   -1.0366   -2.6222 O   0  0  0  0  0  0  0  0  0  0  0  0
   -3.3262   -3.1505   -1.8020 O   0  0  0  0  0  0  0  0  0  0  0  0
   -5.8734   -2.6699   -1.3815 C   0  0  0  0  0  0  0  0  0  0  0  0
   -6.0357   -3.9714   -0.9193 C   0  0  0  0  0  0  0  0  0  0  0  0
   -7.2993   -4.5410   -0.8169 C   0  0  0  0  0  0  0  0  0  0  0  0
   -8.4155   -3.8190   -1.1743 C   0  0  0  0  0  0  0  0  0  0  0  0
   -8.2730   -2.5351   -1.6309 C   0  0  0  0  0  0  0  0  0  0  0  0
   -7.0181   -1.9865   -1.7259 C   0  0  0  0  0  0  0  0  0  0  0  0
   -5.2727    3.0101   -0.9362 H   0  0  0  0  0  0  0  0  0  0  0  0
   -7.0311    2.7465   -1.1213 H   0  0  0  0  0  0  0  0  0  0  0  0
   -6.4199    3.7254    0.2857 H   0  0  0  0  0  0  0  0  0  0  0  0
   -6.3379    1.0113    2.3359 H   0  0  0  0  0  0  0  0  0  0  0  0
   -6.5385    2.8187    1.9848 H   0  0  0  0  0  0  0  0  0  0  0  0
   -4.8782    2.0971    2.0440 H   0  0  0  0  0  0  0  0  0  0  0  0
   -5.2484    0.6532   -1.2398 H   0  0  0  0  0  0  0  0  0  0  0  0
   -4.0577    1.3403   -0.1366 H   0  0  0  0  0  0  0  0  0  0  0  0
   -4.7007   -0.2133    1.6681 H   0  0  0  0  0  0  0  0  0  0  0  0
   -5.9316   -0.9900    0.6200 H   0  0  0  0  0  0  0  0  0  0  0  0
   -3.7680   -2.2688    0.7159 H   0  0  0  0  0  0  0  0  0  0  0  0
   -2.6897    0.2197    0.8948 H   0  0  0  0  0  0  0  0  0  0  0  0
   -1.1744    1.8982   -0.4642 H   0  0  0  0  0  0  0  0  0  0  0  0
    0.6995    3.3053    0.2315 H   0  0  0  0  0  0  0  0  0  0  0  0
    3.5092    3.1568    0.7524 H   0  0  0  0  0  0  0  0  0  0  0  0
    3.2444    2.4933    2.4262 H   0  0  0  0  0  0  0  0  0  0  0  0
    5.1170    1.2022    1.6623 H   0  0  0  0  0  0  0  0  0  0  0  0
    4.8759    1.9351   -0.6813 H   0  0  0  0  0  0  0  0  0  0  0  0
    3.4483    0.9363   -0.9401 H   0  0  0  0  0  0  0  0  0  0  0  0
    5.1523   -0.2479   -1.9080 H   0  0  0  0  0  0  0  0  0  0  0  0
    4.5450   -1.1560   -0.5121 H   0  0  0  0  0  0  0  0  0  0  0  0
    6.9867    1.8398   -1.6829 H   0  0  0  0  0  0  0  0  0  0  0  0
    9.1536    2.9083   -1.8431 H   0  0  0  0  0  0  0  0  0  0  0  0
    8.5829   -1.1808    0.8499 H   0  0  0  0  0  0  0  0  0  0  0  0
    3.2151   -0.0296    2.7234 H   0  0  0  0  0  0  0  0  0  0  0  0
    3.6153   -1.0447    1.2619 H   0  0  0  0  0  0  0  0  0  0  0  0
    0.9992   -1.5723    0.6984 H   0  0  0  0  0  0  0  0  0  0  0  0
   -5.1589   -4.5255   -0.6445 H   0  0  0  0  0  0  0  0  0  0  0  0
   -7.3790   -5.5563   -0.4437 H   0  0  0  0  0  0  0  0  0  0  0  0
   -9.3961   -4.3146   -1.0721 H   0  0  0  0  0  0  0  0  0  0  0  0
   -9.1997   -2.0243   -1.8946 H   0  0  0  0  0  0  0  0  0  0  0  0
   -6.9291   -0.9751   -2.0845 H   0  0  0  0  0  0  0  0  0  0  0  0
  1  2  1  0
  2  3  1  0
  2  4  1  0
  4  5  1  0
  5  6  1  0
  6  7  1  0
  7  8  1  0
  8  9  2  0
  8 10  1  0
 10 11  2  0
 11 12  1  0
 12 13  2  0
 13 14  1  0
 14 15  1  0
 15 16  1  0
 16 17  1  0
 17 18  1  0
 18 19  1  0
 19 20  2  0
 20 21  1  0
 21 22  2  0
 22 23  1  0
 23 24  2  0
 23 25  1  0
 25 26  1  0
 25 27  1  0
 25 28  1  0
 15 29  1  0
 29 30  1  0
 30 31  2  0
  6 32  1  0
 32 33  2  0
 32 34  2  0
 32 35  1  0
 35 36  2  0
 36 37  1  0
 37 38  2  0
 38 39  1  0
 39 40  2  0
 31 10  1  0
 40 35  1  0
 30 13  1  0
 24 19  1  0
  1 41  1  0
  1 42  1  0
  1 43  1  0
  3 44  1  0
  3 45  1  0
  3 46  1  0
  4 47  1  0
  4 48  1  0
  5 49  1  0
  5 50  1  0
  6 51  1  0
  7 52  1  0
 11 53  1  0
 12 54  1  0
 14 55  1  0
 14 56  1  0
 15 57  1  0
 16 58  1  0
 16 59  1  0
 17 60  1  0
 17 61  1  0
 20 62  1  0
 21 63  1  0
 24 64  1  0
 29 65  1  0
 29 66  1  0
 31 67  1  0
 36 68  1  0
 37 69  1  0
 38 70  1  0
 39 71  1  0
 40 72  1  0
M  END
$$$$
[H]c1nc(N([H])C(=O)N2C([H])([H])C([H])([H])C3(C([H])([H])C2([H])[H])C([H])([H])C([H])([H])N(S(=O)(=O)C([H])([H])[H])C([H])([H])C3([H])[H])nc(C2([H])C([H])([H])C2([H])[H])c1[H]
     RDKit          3D

 54 57  0  0  0  0  0  0  0  0999 V2000
    7.5113   -0.7183    0.6239 C   0  0  0  0  0  0  0  0  0  0  0  0
    6.4952   -1.7977   -0.3463 S   0  0  0  0  0  0  0  0  0  0  0  0
    7.0326   -1.8416   -1.7501 O   0  0  0  0  0  0  0  0  0  0  0  0
    6.4847   -3.1924    0.1889 O   0  0  0  0  0  0  0  0  0  0  0  0
    4.8752   -1.2203   -0.4382 N   0  0  0  0  0  0  0  0  0  0  0  0
    4.2394   -1.1462    0.8628 C   0  0  0  0  0  0  0  0  0  0  0  0
    2.7776   -0.9673    0.6581 C   0  0  0  0  0  0  0  0  0  0  0  0
    2.3766    0.0398   -0.3467 C   0  0  0  0  0  0  0  0  0  0  0  0
    1.8872    1.2798    0.4151 C   0  0  0  0  0  0  0  0  0  0  0  0
    0.6921    1.8944   -0.2752 C   0  0  0  0  0  0  0  0  0  0  0  0
   -0.4216    0.9412   -0.1588 N   0  0  0  0  0  0  0  0  0  0  0  0
   -0.0471   -0.4566   -0.2210 C   0  0  0  0  0  0  0  0  0  0  0  0
    1.1881   -0.5123   -1.1275 C   0  0  0  0  0  0  0  0  0  0  0  0
   -1.7517    1.4073    0.0014 C   0  0  0  0  0  0  0  0  0  0  0  0
   -1.9664    2.6282    0.0409 O   0  0  0  0  0  0  0  0  0  0  0  0
   -2.8152    0.4858    0.1139 N   0  0  0  0  0  0  0  0  0  0  0  0
   -4.1358    0.9751    0.2718 C   0  0  0  0  0  0  0  0  0  0  0  0
   -4.4064    2.2944    0.3177 N   0  0  0  0  0  0  0  0  0  0  0  0
   -5.6493    2.7754    0.4655 C   0  0  0  0  0  0  0  0  0  0  0  0
   -6.6923    1.8729    0.5748 C   0  0  0  0  0  0  0  0  0  0  0  0
   -6.4185    0.5212    0.5282 C   0  0  0  0  0  0  0  0  0  0  0  0
   -5.1455    0.1181    0.3778 N   0  0  0  0  0  0  0  0  0  0  0  0
   -7.5368   -0.4568    0.6446 C   0  0  0  0  0  0  0  0  0  0  0  0
   -7.4070   -1.8012   -0.0124 C   0  0  0  0  0  0  0  0  0  0  0  0
   -7.2180   -1.6481    1.5121 C   0  0  0  0  0  0  0  0  0  0  0  0
    3.3961    0.4856   -1.3100 C   0  0  0  0  0  0  0  0  0  0  0  0
    4.8108    0.1250   -0.9778 C   0  0  0  0  0  0  0  0  0  0  0  0
    8.5060   -1.2193    0.7286 H   0  0  0  0  0  0  0  0  0  0  0  0
    7.1122   -0.5631    1.6263 H   0  0  0  0  0  0  0  0  0  0  0  0
    7.7039    0.2103    0.0500 H   0  0  0  0  0  0  0  0  0  0  0  0
    4.3970   -2.0880    1.4478 H   0  0  0  0  0  0  0  0  0  0  0  0
    4.6244   -0.3261    1.4896 H   0  0  0  0  0  0  0  0  0  0  0  0
    2.3563   -1.9845    0.3981 H   0  0  0  0  0  0  0  0  0  0  0  0
    2.3240   -0.7536    1.6711 H   0  0  0  0  0  0  0  0  0  0  0  0
    1.6311    1.0249    1.4457 H   0  0  0  0  0  0  0  0  0  0  0  0
    2.6897    2.0484    0.4400 H   0  0  0  0  0  0  0  0  0  0  0  0
    0.3953    2.7748    0.3060 H   0  0  0  0  0  0  0  0  0  0  0  0
    0.9016    2.1690   -1.3078 H   0  0  0  0  0  0  0  0  0  0  0  0
    0.2200   -0.7636    0.8205 H   0  0  0  0  0  0  0  0  0  0  0  0
   -0.8410   -1.1139   -0.5975 H   0  0  0  0  0  0  0  0  0  0  0  0
    1.3668   -1.5518   -1.4668 H   0  0  0  0  0  0  0  0  0  0  0  0
    1.0109    0.1725   -1.9633 H   0  0  0  0  0  0  0  0  0  0  0  0
   -2.6676   -0.5479    0.0845 H   0  0  0  0  0  0  0  0  0  0  0  0
   -5.8780    3.8197    0.5034 H   0  0  0  0  0  0  0  0  0  0  0  0
   -7.7137    2.2047    0.6955 H   0  0  0  0  0  0  0  0  0  0  0  0
   -8.5443   -0.0507    0.7530 H   0  0  0  0  0  0  0  0  0  0  0  0
   -6.4685   -1.9588   -0.6018 H   0  0  0  0  0  0  0  0  0  0  0  0
   -8.2992   -2.3475   -0.3186 H   0  0  0  0  0  0  0  0  0  0  0  0
   -6.2010   -1.7937    1.8823 H   0  0  0  0  0  0  0  0  0  0  0  0
   -8.0160   -2.0794    2.1356 H   0  0  0  0  0  0  0  0  0  0  0  0
    3.3795    1.6034   -1.4644 H   0  0  0  0  0  0  0  0  0  0  0  0
    3.1965    0.0737   -2.3432 H   0  0  0  0  0  0  0  0  0  0  0  0
    5.4807    0.1402   -1.8575 H   0  0  0  0  0  0  0  0  0  0  0  0
    5.1780    0.8150   -0.1755 H   0  0  0  0  0  0  0  0  0  0  0  0
  1  2  1  0
  2  3  2  0
  2  4  2  0
  2  5  1  0
  5  6  1  0
  6  7  1  0
  7  8  1  0
  8  9  1  0
  9 10  1  0
 10 11  1  0
 11 12  1  0
 12 13  1  0
 11 14  1  0
 14 15  2  0
 14 16  1  0
 16 17  1  0
 17 18  2  0
 18 19  1  0
 19 20  2  0
 20 21  1  0
 21 22  2  0
 21 23  1  0
 23 24  1  0
 24 25  1  0
  8 26  1  0
 26 27  1  0
 27  5  1  0
 13  8  1  0
 22 17  1  0
 25 23  1  0
  1 28  1  0
  1 29  1  0
  1 30  1  0
  6 31  1  0
  6 32  1  0
  7 33  1  0
  7 34  1  0
  9 35  1  0
  9 36  1  0
 10 37  1  0
 10 38  1  0
 12 39  1  0
 12 40  1  0
 13 41  1  0
 13 42  1  0
 16 43  1  0
 19 44  1  0
 20 45  1  0
 23 46  1  0
 24 47  1  0
 24 48  1  0
 25 49  1  0
 25 50  1  0
 26 51  1  0
 26 52  1  0
 27 53  1  0
 27 54  1  0
M  END
$$$$
[H]C([H])=C([H])C(=O)N([H])c1c([H])c([H])c([H])c(-n2c([H])c(-c3c([H])c([H])c([H])c(N([H])C(=O)C4([H])C([H])([H])C4([H])[H])c3[H])c3c(N([H])[H])nc([H])nc32)c1[H]
     RDKit          3D

 55 59  0  0  0  0  0  0  0  0999 V2000
   -2.2744   -1.3667    2.3102 N   0  0  0  0  0  0  0  0  0  0  0  0
   -1.0312   -0.7557    2.5982 C   0  0  0  0  0  0  0  0  0  0  0  0
   -0.6108   -0.5888    3.8545 N   0  0  0  0  0  0  0  0  0  0  0  0
    0.5674   -0.0361    4.1275 C   0  0  0  0  0  0  0  0  0  0  0  0
    1.3828    0.3767    3.1459 N   0  0  0  0  0  0  0  0  0  0  0  0
    0.9874    0.2226    1.8675 C   0  0  0  0  0  0  0  0  0  0  0  0
    1.5838    0.5252    0.6855 N   0  0  0  0  0  0  0  0  0  0  0  0
    0.7997    0.1743   -0.3422 C   0  0  0  0  0  0  0  0  0  0  0  0
   -0.3750   -0.3880    0.1693 C   0  0  0  0  0  0  0  0  0  0  0  0
   -1.4849   -0.8507   -0.6317 C   0  0  0  0  0  0  0  0  0  0  0  0
   -1.2878   -1.9017   -1.5436 C   0  0  0  0  0  0  0  0  0  0  0  0
   -2.3090   -2.3437   -2.3507 C   0  0  0  0  0  0  0  0  0  0  0  0
   -3.5728   -1.7414   -2.2696 C   0  0  0  0  0  0  0  0  0  0  0  0
   -3.8119   -0.7163   -1.3984 C   0  0  0  0  0  0  0  0  0  0  0  0
   -5.0746   -0.0927   -1.2988 N   0  0  0  0  0  0  0  0  0  0  0  0
   -6.2477   -0.3238   -1.9931 C   0  0  0  0  0  0  0  0  0  0  0  0
   -6.3636   -1.1843   -2.8759 O   0  0  0  0  0  0  0  0  0  0  0  0
   -7.4658    0.4849   -1.6948 C   0  0  0  0  0  0  0  0  0  0  0  0
   -7.6021    0.9943   -0.2605 C   0  0  0  0  0  0  0  0  0  0  0  0
   -7.1878    1.9477   -1.3332 C   0  0  0  0  0  0  0  0  0  0  0  0
   -2.7399   -0.3100   -0.6057 C   0  0  0  0  0  0  0  0  0  0  0  0
   -0.2419   -0.3516    1.5291 C   0  0  0  0  0  0  0  0  0  0  0  0
    2.8823    1.1380    0.6322 C   0  0  0  0  0  0  0  0  0  0  0  0
    3.1027    2.4284    1.0119 C   0  0  0  0  0  0  0  0  0  0  0  0
    4.3570    2.9913    0.9508 C   0  0  0  0  0  0  0  0  0  0  0  0
    5.4309    2.2732    0.5056 C   0  0  0  0  0  0  0  0  0  0  0  0
    5.2443    0.9424    0.1065 C   0  0  0  0  0  0  0  0  0  0  0  0
    6.3983    0.2845   -0.3599 N   0  0  0  0  0  0  0  0  0  0  0  0
    6.5596   -1.1111   -0.4298 C   0  0  0  0  0  0  0  0  0  0  0  0
    5.6417   -1.9106   -0.0547 O   0  0  0  0  0  0  0  0  0  0  0  0
    7.7793   -1.7261   -0.9327 C   0  0  0  0  0  0  0  0  0  0  0  0
    8.8031   -1.0233   -1.3517 C   0  0  0  0  0  0  0  0  0  0  0  0
    3.9918    0.4001    0.1733 C   0  0  0  0  0  0  0  0  0  0  0  0
   -2.3502   -2.3066    1.9122 H   0  0  0  0  0  0  0  0  0  0  0  0
   -3.1402   -0.8327    2.5141 H   0  0  0  0  0  0  0  0  0  0  0  0
    0.8712    0.0810    5.1749 H   0  0  0  0  0  0  0  0  0  0  0  0
    1.0572    0.3141   -1.3820 H   0  0  0  0  0  0  0  0  0  0  0  0
   -0.3037   -2.3665   -1.6030 H   0  0  0  0  0  0  0  0  0  0  0  0
   -2.1636   -3.1437   -3.0468 H   0  0  0  0  0  0  0  0  0  0  0  0
   -4.2971   -2.1584   -2.9379 H   0  0  0  0  0  0  0  0  0  0  0  0
   -5.1357    0.6933   -0.5603 H   0  0  0  0  0  0  0  0  0  0  0  0
   -8.3823    0.2842   -2.2632 H   0  0  0  0  0  0  0  0  0  0  0  0
   -6.8852    0.5846    0.4718 H   0  0  0  0  0  0  0  0  0  0  0  0
   -8.6277    1.1260    0.1420 H   0  0  0  0  0  0  0  0  0  0  0  0
   -6.1547    2.3012   -1.2888 H   0  0  0  0  0  0  0  0  0  0  0  0
   -7.9333    2.7074   -1.6589 H   0  0  0  0  0  0  0  0  0  0  0  0
   -2.9210    0.5107    0.0779 H   0  0  0  0  0  0  0  0  0  0  0  0
    2.2843    3.0485    1.3752 H   0  0  0  0  0  0  0  0  0  0  0  0
    4.4800    4.0352    1.2684 H   0  0  0  0  0  0  0  0  0  0  0  0
    6.3924    2.7265    0.4660 H   0  0  0  0  0  0  0  0  0  0  0  0
    7.2311    0.8730   -0.6974 H   0  0  0  0  0  0  0  0  0  0  0  0
    7.8401   -2.8286   -0.9605 H   0  0  0  0  0  0  0  0  0  0  0  0
    9.6988   -1.5370   -1.7211 H   0  0  0  0  0  0  0  0  0  0  0  0
    8.8183    0.0387   -1.3553 H   0  0  0  0  0  0  0  0  0  0  0  0
    3.7905   -0.6119   -0.1359 H   0  0  0  0  0  0  0  0  0  0  0  0
  1  2  1  0
  2  3  2  0
  3  4  1  0
  4  5  2  0
  5  6  1  0
  6  7  1  0
  7  8  1  0
  8  9  2  0
  9 10  1  0
 10 11  2  0
 11 12  1  0
 12 13  2  0
 13 14  1  0
 14 15  1  0
 15 16  1  0
 16 17  2  0
 16 18  1  0
 18 19  1  0
 19 20  1  0
 14 21  2  0
  9 22  1  0
  7 23  1  0
 23 24  2  0
 24 25  1  0
 25 26  2  0
 26 27  1  0
 27 28  1  0
 28 29  1  0
 29 30  2  0
 29 31  1  0
 31 32  2  3
 27 33  2  0
 22  2  1  0
 33 23  1  0
 22  6  2  0
 21 10  1  0
 20 18  1  0
  1 34  1  0
  1 35  1  0
  4 36  1  0
  8 37  1  0
 11 38  1  0
 12 39  1  0
 13 40  1  0
 15 41  1  0
 18 42  1  0
 19 43  1  0
 19 44  1  0
 20 45  1  0
 20 46  1  0
 21 47  1  0
 24 48  1  0
 25 49  1  0
 26 50  1  0
 28 51  1  0
 31 52  1  0
 32 53  1  0
 32 54  1  0
 33 55  1  0
M  END
$$$$
[H]c1nn(-c2c([H])c([H])c(C([H])([H])Oc3nc([H])c(-c4c([H])c([H])c(C([H])([H])N(C(=O)OC([H])([H])[H])C([H])([H])C([H])([H])C([H])([H])C([H])([H])[H])c([H])c4[H])c([H])c3[H])c([H])c2[H])nc1[H]
     RDKit          3D

 64 67  0  0  0  0  0  0  0  0999 V2000
   -7.7818   -3.0448   -1.7400 C   0  0  0  0  0  0  0  0  0  0  0  0
   -7.3497   -1.8095   -1.1954 O   0  0  0  0  0  0  0  0  0  0  0  0
   -6.5717   -1.7413   -0.0276 C   0  0  0  0  0  0  0  0  0  0  0  0
   -6.2864   -2.8416    0.4981 O   0  0  0  0  0  0  0  0  0  0  0  0
   -6.1513   -0.4761    0.4969 N   0  0  0  0  0  0  0  0  0  0  0  0
   -5.3460   -0.4536    1.6965 C   0  0  0  0  0  0  0  0  0  0  0  0
   -3.8988   -0.4736    1.4689 C   0  0  0  0  0  0  0  0  0  0  0  0
   -3.2414    0.7368    1.3607 C   0  0  0  0  0  0  0  0  0  0  0  0
   -1.8780    0.7837    1.1464 C   0  0  0  0  0  0  0  0  0  0  0  0
   -1.1046   -0.3494    1.0298 C   0  0  0  0  0  0  0  0  0  0  0  0
   -1.7480   -1.5605    1.1361 C   0  0  0  0  0  0  0  0  0  0  0  0
   -3.1235   -1.6043    1.3522 C   0  0  0  0  0  0  0  0  0  0  0  0
    0.3314   -0.2399    0.8036 C   0  0  0  0  0  0  0  0  0  0  0  0
    1.0759    0.8127    1.3090 C   0  0  0  0  0  0  0  0  0  0  0  0
    2.4376    0.8792    1.0712 C   0  0  0  0  0  0  0  0  0  0  0  0
    3.0996   -0.0824    0.3341 C   0  0  0  0  0  0  0  0  0  0  0  0
    4.4771    0.0144    0.1120 O   0  0  0  0  0  0  0  0  0  0  0  0
    5.1517   -0.9538   -0.6316 C   0  0  0  0  0  0  0  0  0  0  0  0
    6.6018   -0.5774   -0.6929 C   0  0  0  0  0  0  0  0  0  0  0  0
    7.1012    0.2166   -1.6933 C   0  0  0  0  0  0  0  0  0  0  0  0
    8.4521    0.5705   -1.7556 C   0  0  0  0  0  0  0  0  0  0  0  0
    9.3036    0.1028   -0.7768 C   0  0  0  0  0  0  0  0  0  0  0  0
    8.8202   -0.6977    0.2385 C   0  0  0  0  0  0  0  0  0  0  0  0
    7.4673   -1.0357    0.2767 C   0  0  0  0  0  0  0  0  0  0  0  0
   10.6963    0.4466   -0.8096 N   0  0  0  0  0  0  0  0  0  0  0  0
   11.6876   -0.4014   -0.9259 N   0  0  0  0  0  0  0  0  0  0  0  0
   12.8370    0.2809   -0.9190 C   0  0  0  0  0  0  0  0  0  0  0  0
   12.5186    1.6202   -0.7910 C   0  0  0  0  0  0  0  0  0  0  0  0
   11.1745    1.6655   -0.7273 N   0  0  0  0  0  0  0  0  0  0  0  0
    2.3601   -1.0986   -0.1496 N   0  0  0  0  0  0  0  0  0  0  0  0
    1.0212   -1.1852    0.0709 C   0  0  0  0  0  0  0  0  0  0  0  0
   -6.5037    0.7685   -0.1206 C   0  0  0  0  0  0  0  0  0  0  0  0
   -7.7951    1.3451    0.3972 C   0  0  0  0  0  0  0  0  0  0  0  0
   -8.0474    2.6485   -0.3318 C   0  0  0  0  0  0  0  0  0  0  0  0
   -8.1612    2.4672   -1.8132 C   0  0  0  0  0  0  0  0  0  0  0  0
   -7.1868   -3.8960   -1.3819 H   0  0  0  0  0  0  0  0  0  0  0  0
   -8.8303   -3.1843   -1.3991 H   0  0  0  0  0  0  0  0  0  0  0  0
   -7.8117   -2.9818   -2.8552 H   0  0  0  0  0  0  0  0  0  0  0  0
   -5.6381    0.4702    2.2598 H   0  0  0  0  0  0  0  0  0  0  0  0
   -5.5827   -1.3095    2.3719 H   0  0  0  0  0  0  0  0  0  0  0  0
   -3.7790    1.6835    1.4450 H   0  0  0  0  0  0  0  0  0  0  0  0
   -1.3623    1.7515    1.0612 H   0  0  0  0  0  0  0  0  0  0  0  0
   -1.2059   -2.4840    1.0550 H   0  0  0  0  0  0  0  0  0  0  0  0
   -3.5887   -2.5666    1.4326 H   0  0  0  0  0  0  0  0  0  0  0  0
    0.5499    1.5663    1.8882 H   0  0  0  0  0  0  0  0  0  0  0  0
    3.0164    1.7037    1.4679 H   0  0  0  0  0  0  0  0  0  0  0  0
    5.1007   -1.9334   -0.0925 H   0  0  0  0  0  0  0  0  0  0  0  0
    4.7375   -1.1203   -1.6431 H   0  0  0  0  0  0  0  0  0  0  0  0
    6.4044    0.5701   -2.4510 H   0  0  0  0  0  0  0  0  0  0  0  0
    8.8310    1.2002   -2.5547 H   0  0  0  0  0  0  0  0  0  0  0  0
    9.5272   -1.0374    0.9795 H   0  0  0  0  0  0  0  0  0  0  0  0
    7.1295   -1.6673    1.0924 H   0  0  0  0  0  0  0  0  0  0  0  0
   13.8346   -0.1526   -1.0004 H   0  0  0  0  0  0  0  0  0  0  0  0
   13.2279    2.4516   -0.7520 H   0  0  0  0  0  0  0  0  0  0  0  0
    0.4482   -2.0109   -0.3279 H   0  0  0  0  0  0  0  0  0  0  0  0
   -5.7076    1.5058    0.0727 H   0  0  0  0  0  0  0  0  0  0  0  0
   -6.6528    0.5703   -1.2019 H   0  0  0  0  0  0  0  0  0  0  0  0
   -8.6234    0.6487    0.1640 H   0  0  0  0  0  0  0  0  0  0  0  0
   -7.7390    1.6015    1.4821 H   0  0  0  0  0  0  0  0  0  0  0  0
   -7.1915    3.3065   -0.1081 H   0  0  0  0  0  0  0  0  0  0  0  0
   -8.9580    3.0999    0.1173 H   0  0  0  0  0  0  0  0  0  0  0  0
   -8.6004    3.4192   -2.2251 H   0  0  0  0  0  0  0  0  0  0  0  0
   -8.8287    1.6568   -2.1203 H   0  0  0  0  0  0  0  0  0  0  0  0
   -7.1462    2.4058   -2.2543 H   0  0  0  0  0  0  0  0  0  0  0  0
  1  2  1  0
  2  3  1  0
  3  4  2  0
  3  5  1  0
  5  6  1  0
  6  7  1  0
  7  8  2  0
  8  9  1  0
  9 10  2  0
 10 11  1  0
 11 12  2  0
 10 13  1  0
 13 14  2  0
 14 15  1  0
 15 16  2  0
 16 17  1  0
 17 18  1  0
 18 19  1  0
 19 20  2  0
 20 21  1  0
 21 22  2  0
 22 23  1  0
 23 24  2  0
 22 25  1  0
 25 26  1  0
 26 27  2  0
 27 28  1  0
 28 29  2  0
 16 30  1  0
 30 31  2  0
  5 32  1  0
 32 33  1  0
 33 34  1  0
 34 35  1  0
 12  7  1  0
 31 13  1  0
 24 19  1  0
 29 25  1  0
  1 36  1  0
  1 37  1  0
  1 38  1  0
  6 39  1  0
  6 40  1  0
  8 41  1  0
  9 42  1  0
 11 43  1  0
 12 44  1  0
 14 45  1  0
 15 46  1  0
 18 47  1  0
 18 48  1  0
 20 49  1  0
 21 50  1  0
 23 51  1  0
 24 52  1  0
 27 53  1  0
 28 54  1  0
 31 55  1  0
 32 56  1  0
 32 57  1  0
 33 58  1  0
 33 59  1  0
 34 60  1  0
 34 61  1  0
 35 62  1  0
 35 63  1  0
 35 64  1  0
M  END
$$$$
[H]c1c([H])c([H])c(C([H])([H])N([H])C(=O)[C@@]([H])(N([H])C(=O)[C@]([H])(N([H])C(=O)C([H])(C#N)C([H])([H])C([H])([H])[H])C([H])([H])c2c([H])c([H])c([H])c([H])c2[H])C([H])([H])c2c([H])n([H])c3c([H])c([H])c([H])c([H])c23)c([H])c1[H]
     RDKit          3D

 73 76  0  0  0  0  0  0  0  0999 V2000
   -3.9937   -2.4299   -4.1969 C   0  0  0  0  0  0  0  0  0  0  0  0
   -4.8409   -1.1872   -4.1430 C   0  0  0  0  0  0  0  0  0  0  0  0
   -4.0265   -0.0393   -3.5872 C   0  0  0  0  0  0  0  0  0  0  0  0
   -2.8552    0.2112   -4.4490 C   0  0  0  0  0  0  0  0  0  0  0  0
   -1.9252    0.4231   -5.1174 N   0  0  0  0  0  0  0  0  0  0  0  0
   -3.5762   -0.3111   -2.2095 C   0  0  0  0  0  0  0  0  0  0  0  0
   -3.8828   -1.3950   -1.6693 O   0  0  0  0  0  0  0  0  0  0  0  0
   -2.8138    0.6301   -1.5096 N   0  0  0  0  0  0  0  0  0  0  0  0
   -2.3469    0.3765   -0.1131 C   0  0  2  0  0  0  0  0  0  0  0  0
   -3.1268    1.3075    0.7194 C   0  0  0  0  0  0  0  0  0  0  0  0
   -2.9184    1.3050    2.1685 C   0  0  0  0  0  0  0  0  0  0  0  0
   -3.5219    0.3425    2.9669 C   0  0  0  0  0  0  0  0  0  0  0  0
   -3.3437    0.4081    4.3293 C   0  0  0  0  0  0  0  0  0  0  0  0
   -2.5860    1.3982    4.9227 C   0  0  0  0  0  0  0  0  0  0  0  0
   -1.9962    2.3400    4.1365 C   0  0  0  0  0  0  0  0  0  0  0  0
   -2.1695    2.2823    2.7704 C   0  0  0  0  0  0  0  0  0  0  0  0
   -0.9102    0.3589   -0.1173 C   0  0  0  0  0  0  0  0  0  0  0  0
   -0.3250    0.5740   -1.2527 O   0  0  0  0  0  0  0  0  0  0  0  0
   -0.0214    0.1302    0.9392 N   0  0  0  0  0  0  0  0  0  0  0  0
    1.4166    0.0946    0.8026 C   0  0  1  0  0  0  0  0  0  0  0  0
    2.1908    1.1510    1.4880 C   0  0  0  0  0  0  0  0  0  0  0  0
    1.9714    2.5311    1.1107 C   0  0  0  0  0  0  0  0  0  0  0  0
    1.3440    3.5061    1.8301 C   0  0  0  0  0  0  0  0  0  0  0  0
    1.3722    4.6496    1.1532 N   0  0  0  0  0  0  0  0  0  0  0  0
    2.0170    4.4486   -0.0207 C   0  0  0  0  0  0  0  0  0  0  0  0
    2.3126    5.2889   -1.0644 C   0  0  0  0  0  0  0  0  0  0  0  0
    2.9920    4.8502   -2.1772 C   0  0  0  0  0  0  0  0  0  0  0  0
    3.3837    3.5389   -2.2446 C   0  0  0  0  0  0  0  0  0  0  0  0
    3.0859    2.7019   -1.1986 C   0  0  0  0  0  0  0  0  0  0  0  0
    2.4064    3.1282   -0.0788 C   0  0  0  0  0  0  0  0  0  0  0  0
    1.8972   -1.2201    1.3004 C   0  0  0  0  0  0  0  0  0  0  0  0
    1.0565   -2.0381    1.7296 O   0  0  0  0  0  0  0  0  0  0  0  0
    3.2620   -1.6029    1.3170 N   0  0  0  0  0  0  0  0  0  0  0  0
    3.7572   -2.8509    1.7852 C   0  0  0  0  0  0  0  0  0  0  0  0
    3.5346   -3.9718    0.8213 C   0  0  0  0  0  0  0  0  0  0  0  0
    3.9339   -5.2477    1.1635 C   0  0  0  0  0  0  0  0  0  0  0  0
    3.7646   -6.3191    0.3363 C   0  0  0  0  0  0  0  0  0  0  0  0
    3.1748   -6.1551   -0.8969 C   0  0  0  0  0  0  0  0  0  0  0  0
    2.7648   -4.8677   -1.2576 C   0  0  0  0  0  0  0  0  0  0  0  0
    2.9421   -3.7908   -0.4104 C   0  0  0  0  0  0  0  0  0  0  0  0
   -2.9479   -2.1591   -4.0150 H   0  0  0  0  0  0  0  0  0  0  0  0
   -4.3673   -3.1711   -3.4585 H   0  0  0  0  0  0  0  0  0  0  0  0
   -4.0268   -2.8613   -5.2329 H   0  0  0  0  0  0  0  0  0  0  0  0
   -5.6846   -1.3430   -3.4392 H   0  0  0  0  0  0  0  0  0  0  0  0
   -5.2126   -0.9043   -5.1494 H   0  0  0  0  0  0  0  0  0  0  0  0
   -4.6723    0.8745   -3.5598 H   0  0  0  0  0  0  0  0  0  0  0  0
   -2.5588    1.5294   -1.9566 H   0  0  0  0  0  0  0  0  0  0  0  0
   -2.7516   -0.6598    0.1102 H   0  0  0  0  0  0  0  0  0  0  0  0
   -2.9503    2.3537    0.3223 H   0  0  0  0  0  0  0  0  0  0  0  0
   -4.2165    1.1393    0.4832 H   0  0  0  0  0  0  0  0  0  0  0  0
   -4.1299   -0.4599    2.5495 H   0  0  0  0  0  0  0  0  0  0  0  0
   -3.7932   -0.3160    4.9750 H   0  0  0  0  0  0  0  0  0  0  0  0
   -2.4584    1.4290    6.0145 H   0  0  0  0  0  0  0  0  0  0  0  0
   -1.3939    3.1308    4.5834 H   0  0  0  0  0  0  0  0  0  0  0  0
   -1.6900    3.0566    2.1883 H   0  0  0  0  0  0  0  0  0  0  0  0
   -0.3832   -0.0461    1.9154 H   0  0  0  0  0  0  0  0  0  0  0  0
    1.5759    0.1385   -0.3251 H   0  0  0  0  0  0  0  0  0  0  0  0
    1.9412    1.0524    2.5932 H   0  0  0  0  0  0  0  0  0  0  0  0
    3.2928    0.9734    1.4662 H   0  0  0  0  0  0  0  0  0  0  0  0
    0.8680    3.4277    2.8198 H   0  0  0  0  0  0  0  0  0  0  0  0
    0.9780    5.5740    1.4352 H   0  0  0  0  0  0  0  0  0  0  0  0
    2.0038    6.3501   -1.0259 H   0  0  0  0  0  0  0  0  0  0  0  0
    3.2243    5.5353   -3.0108 H   0  0  0  0  0  0  0  0  0  0  0  0
    3.9200    3.1654   -3.1083 H   0  0  0  0  0  0  0  0  0  0  0  0
    3.3997    1.6662   -1.2613 H   0  0  0  0  0  0  0  0  0  0  0  0
    3.9372   -0.8862    0.9462 H   0  0  0  0  0  0  0  0  0  0  0  0
    4.8558   -2.7761    1.9244 H   0  0  0  0  0  0  0  0  0  0  0  0
    3.3606   -3.1421    2.7818 H   0  0  0  0  0  0  0  0  0  0  0  0
    4.4047   -5.3659    2.1531 H   0  0  0  0  0  0  0  0  0  0  0  0
    4.1129   -7.2803    0.6994 H   0  0  0  0  0  0  0  0  0  0  0  0
    3.0434   -7.0060   -1.5467 H   0  0  0  0  0  0  0  0  0  0  0  0
    2.3020   -4.7542   -2.2318 H   0  0  0  0  0  0  0  0  0  0  0  0
    2.6172   -2.8151   -0.7167 H   0  0  0  0  0  0  0  0  0  0  0  0
  1  2  1  0
  2  3  1  0
  3  4  1  0
  4  5  3  0
  3  6  1  0
  6  7  2  0
  6  8  1  0
  8  9  1  0
  9 10  1  0
 10 11  1  0
 11 12  2  0
 12 13  1  0
 13 14  2  0
 14 15  1  0
 15 16  2  0
  9 17  1  0
 17 18  2  0
 17 19  1  0
 19 20  1  0
 20 21  1  0
 21 22  1  0
 22 23  2  0
 23 24  1  0
 24 25  1  0
 25 26  2  0
 26 27  1  0
 27 28  2  0
 28 29  1  0
 29 30  2  0
 20 31  1  0
 31 32  2  0
 31 33  1  0
 33 34  1  0
 34 35  1  0
 35 36  2  0
 36 37  1  0
 37 38  2  0
 38 39  1  0
 39 40  2  0
 16 11  1  0
 30 22  1  0
 40 35  1  0
 30 25  1  0
  1 41  1  0
  1 42  1  0
  1 43  1  0
  2 44  1  0
  2 45  1  0
  3 46  1  0
  8 47  1  0
  9 48  1  1
 10 49  1  0
 10 50  1  0
 12 51  1  0
 13 52  1  0
 14 53  1  0
 15 54  1  0
 16 55  1  0
 19 56  1  0
 20 57  1  6
 21 58  1  0
 21 59  1  0
 23 60  1  0
 24 61  1  0
 26 62  1  0
 27 63  1  0
 28 64  1  0
 29 65  1  0
 33 66  1  0
 34 67  1  0
 34 68  1  0
 36 69  1  0
 37 70  1  0
 38 71  1  0
 39 72  1  0
 40 73  1  0
M  END
$$$$
[H]OC(=O)C([H])([H])C([H])([H])C([H])([H])C([H])([H])C([H])([H])C([H])(C(=O)O[H])N([H])C(=O)c1c([H])c([H])c(Oc2c([H])c([H])c([H])c3c([H])c(C([H])([H])C(=O)C(C([H])([H])[H])(C([H])([H])[H])C([H])([H])[H])c(C([H])([H])[H])c([H])c23)c(F)c1[H]
     RDKit          3D

 77 79  0  0  0  0  0  0  0  0999 V2000
   -6.2315    0.9266    2.1892 C   0  0  0  0  0  0  0  0  0  0  0  0
   -5.6783    0.0207    1.1718 C   0  0  0  0  0  0  0  0  0  0  0  0
   -4.2988   -0.1170    1.1030 C   0  0  0  0  0  0  0  0  0  0  0  0
   -3.7376   -0.9459    0.1753 C   0  0  0  0  0  0  0  0  0  0  0  0
   -2.3389   -1.1030    0.0847 C   0  0  0  0  0  0  0  0  0  0  0  0
   -1.5791   -0.3790    0.9816 O   0  0  0  0  0  0  0  0  0  0  0  0
   -0.2058   -0.5392    1.0191 C   0  0  0  0  0  0  0  0  0  0  0  0
    0.6441    0.5100    0.6675 C   0  0  0  0  0  0  0  0  0  0  0  0
    2.0007    0.3637    0.7023 C   0  0  0  0  0  0  0  0  0  0  0  0
    2.6181   -0.8148    1.0820 C   0  0  0  0  0  0  0  0  0  0  0  0
    1.7650   -1.8620    1.4343 C   0  0  0  0  0  0  0  0  0  0  0  0
    0.3976   -1.7096    1.3981 C   0  0  0  0  0  0  0  0  0  0  0  0
   -0.3979   -2.7532    1.7809 F   0  0  0  0  0  0  0  0  0  0  0  0
    4.0578   -0.9986    1.1097 C   0  0  0  0  0  0  0  0  0  0  0  0
    4.5090   -2.0417    1.6466 O   0  0  0  0  0  0  0  0  0  0  0  0
    4.9722   -0.0756    0.5683 N   0  0  0  0  0  0  0  0  0  0  0  0
    6.4596   -0.3399    0.6321 C   0  0  0  0  0  0  0  0  0  0  0  0
    6.9258   -0.3765   -0.7734 C   0  0  0  0  0  0  0  0  0  0  0  0
    8.2980   -0.6472   -1.1536 C   0  0  0  0  0  0  0  0  0  0  0  0
    9.4098    0.2332   -0.7190 C   0  0  0  0  0  0  0  0  0  0  0  0
   10.7411   -0.2461   -1.3268 C   0  0  0  0  0  0  0  0  0  0  0  0
   11.8294    0.6660   -0.8732 C   0  0  0  0  0  0  0  0  0  0  0  0
   11.7210    2.0587   -1.3317 C   0  0  0  0  0  0  0  0  0  0  0  0
   12.6052    3.0485   -0.8341 O   0  0  0  0  0  0  0  0  0  0  0  0
   10.8808    2.4536   -2.1552 O   0  0  0  0  0  0  0  0  0  0  0  0
    6.9911    0.8532    1.3405 C   0  0  0  0  0  0  0  0  0  0  0  0
    7.9393    0.8589    2.3256 O   0  0  0  0  0  0  0  0  0  0  0  0
    6.4908    1.9702    0.9777 O   0  0  0  0  0  0  0  0  0  0  0  0
   -1.8034   -1.9449   -0.8607 C   0  0  0  0  0  0  0  0  0  0  0  0
   -2.6153   -2.6411   -1.7241 C   0  0  0  0  0  0  0  0  0  0  0  0
   -3.9845   -2.4957   -1.6450 C   0  0  0  0  0  0  0  0  0  0  0  0
   -4.5338   -1.6390   -0.6841 C   0  0  0  0  0  0  0  0  0  0  0  0
   -5.8861   -1.5061   -0.6190 C   0  0  0  0  0  0  0  0  0  0  0  0
   -6.4781   -0.6790    0.3043 C   0  0  0  0  0  0  0  0  0  0  0  0
   -7.9494   -0.5595    0.3451 C   0  0  0  0  0  0  0  0  0  0  0  0
   -8.4239    0.7162   -0.2532 C   0  0  0  0  0  0  0  0  0  0  0  0
   -7.5902    1.4877   -0.6833 O   0  0  0  0  0  0  0  0  0  0  0  0
   -9.8538    1.0828   -0.3470 C   0  0  0  0  0  0  0  0  0  0  0  0
  -10.5183    1.1469    1.0135 C   0  0  0  0  0  0  0  0  0  0  0  0
   -9.9690    2.4515   -0.9731 C   0  0  0  0  0  0  0  0  0  0  0  0
  -10.6334    0.1208   -1.2184 C   0  0  0  0  0  0  0  0  0  0  0  0
   -7.2388    0.6483    2.5295 H   0  0  0  0  0  0  0  0  0  0  0  0
   -6.1516    1.9674    1.8441 H   0  0  0  0  0  0  0  0  0  0  0  0
   -5.5832    0.8721    3.1100 H   0  0  0  0  0  0  0  0  0  0  0  0
   -3.6496    0.4285    1.7807 H   0  0  0  0  0  0  0  0  0  0  0  0
    0.2102    1.4486    0.3645 H   0  0  0  0  0  0  0  0  0  0  0  0
    2.6827    1.1866    0.4278 H   0  0  0  0  0  0  0  0  0  0  0  0
    2.1672   -2.8231    1.7453 H   0  0  0  0  0  0  0  0  0  0  0  0
    4.6269    0.7902    0.1219 H   0  0  0  0  0  0  0  0  0  0  0  0
    6.5471   -1.2788    1.1804 H   0  0  0  0  0  0  0  0  0  0  0  0
    6.2482   -1.1370   -1.3004 H   0  0  0  0  0  0  0  0  0  0  0  0
    6.5869    0.5835   -1.3137 H   0  0  0  0  0  0  0  0  0  0  0  0
    8.5696   -1.7067   -0.8672 H   0  0  0  0  0  0  0  0  0  0  0  0
    8.3849   -0.6953   -2.2969 H   0  0  0  0  0  0  0  0  0  0  0  0
    9.2955    1.2854   -0.9544 H   0  0  0  0  0  0  0  0  0  0  0  0
    9.5947    0.0568    0.3808 H   0  0  0  0  0  0  0  0  0  0  0  0
   10.9637   -1.2730   -1.0018 H   0  0  0  0  0  0  0  0  0  0  0  0
   10.6558   -0.1678   -2.4421 H   0  0  0  0  0  0  0  0  0  0  0  0
   12.8467    0.2431   -1.0639 H   0  0  0  0  0  0  0  0  0  0  0  0
   11.7354    0.7095    0.2599 H   0  0  0  0  0  0  0  0  0  0  0  0
   12.2602    3.9256   -0.5036 H   0  0  0  0  0  0  0  0  0  0  0  0
    7.8944    1.3360    3.2090 H   0  0  0  0  0  0  0  0  0  0  0  0
   -0.7442   -2.0705   -0.9622 H   0  0  0  0  0  0  0  0  0  0  0  0
   -2.1536   -3.3024   -2.4632 H   0  0  0  0  0  0  0  0  0  0  0  0
   -4.6229   -3.0263   -2.3047 H   0  0  0  0  0  0  0  0  0  0  0  0
   -6.4866   -2.0881   -1.3360 H   0  0  0  0  0  0  0  0  0  0  0  0
   -8.4510   -1.3764   -0.2266 H   0  0  0  0  0  0  0  0  0  0  0  0
   -8.2892   -0.6835    1.3976 H   0  0  0  0  0  0  0  0  0  0  0  0
   -9.7474    1.4161    1.7509 H   0  0  0  0  0  0  0  0  0  0  0  0
  -10.9708    0.1425    1.1866 H   0  0  0  0  0  0  0  0  0  0  0  0
  -11.3327    1.8893    1.0113 H   0  0  0  0  0  0  0  0  0  0  0  0
   -9.7348    3.2521   -0.2171 H   0  0  0  0  0  0  0  0  0  0  0  0
  -10.9242    2.6461   -1.4615 H   0  0  0  0  0  0  0  0  0  0  0  0
   -9.1852    2.5280   -1.7529 H   0  0  0  0  0  0  0  0  0  0  0  0
  -11.5730    0.6481   -1.5115 H   0  0  0  0  0  0  0  0  0  0  0  0
  -10.0515   -0.1359   -2.1414 H   0  0  0  0  0  0  0  0  0  0  0  0
  -10.9293   -0.7931   -0.6980 H   0  0  0  0  0  0  0  0  0  0  0  0
  1  2  1  0
  2  3  2  0
  3  4  1  0
  4  5  2  0
  5  6  1  0
  6  7  1  0
  7  8  2  0
  8  9  1  0
  9 10  2  0
 10 11  1  0
 11 12  2  0
 12 13  1  0
 10 14  1  0
 14 15  2  0
 14 16  1  0
 16 17  1  0
 17 18  1  0
 18 19  1  0
 19 20  1  0
 20 21  1  0
 21 22  1  0
 22 23  1  0
 23 24  1  0
 23 25  2  0
 17 26  1  0
 26 27  1  0
 26 28  2  0
  5 29  1  0
 29 30  2  0
 30 31  1  0
 31 32  2  0
 32 33  1  0
 33 34  2  0
 34 35  1  0
 35 36  1  0
 36 37  2  0
 36 38  1  0
 38 39  1  0
 38 40  1  0
 38 41  1  0
 34  2  1  0
 32  4  1  0
 12  7  1  0
  1 42  1  0
  1 43  1  0
  1 44  1  0
  3 45  1  0
  8 46  1  0
  9 47  1  0
 11 48  1  0
 16 49  1  0
 17 50  1  0
 18 51  1  0
 18 52  1  0
 19 53  1  0
 19 54  1  0
 20 55  1  0
 20 56  1  0
 21 57  1  0
 21 58  1  0
 22 59  1  0
 22 60  1  0
 24 61  1  0
 27 62  1  0
 29 63  1  0
 30 64  1  0
 31 65  1  0
 33 66  1  0
 35 67  1  0
 35 68  1  0
 39 69  1  0
 39 70  1  0
 39 71  1  0
 40 72  1  0
 40 73  1  0
 40 74  1  0
 41 75  1  0
 41 76  1  0
 41 77  1  0
M  END
$$$$
[H]c1c([H])c(N2C([H])([H])C([H])([H])C([H])(C#N)C([H])([H])C2([H])[H])c([H])c([H])c1Oc1c([H])c([H])c(C([H])([H])C(=O)N([H])c2c([H])c(N3C([H])([H])C([H])([H])OC([H])([H])C3([H])[H])c([H])c(C([H])([H])[H])c2F)c([H])c1[H]
     RDKit          3D

 72 76  0  0  0  0  0  0  0  0999 V2000
   -6.0452   -3.0045    1.4734 C   0  0  0  0  0  0  0  0  0  0  0  0
   -6.0684   -1.6819    0.7784 C   0  0  0  0  0  0  0  0  0  0  0  0
   -7.2726   -1.2306    0.2816 C   0  0  0  0  0  0  0  0  0  0  0  0
   -7.3944   -0.0500   -0.3885 C   0  0  0  0  0  0  0  0  0  0  0  0
   -6.2214    0.6756   -0.5464 C   0  0  0  0  0  0  0  0  0  0  0  0
   -4.9820    0.2725   -0.0701 C   0  0  0  0  0  0  0  0  0  0  0  0
   -3.7940    0.9642   -0.0942 N   0  0  0  0  0  0  0  0  0  0  0  0
   -2.6403    1.6385   -0.1206 C   0  0  0  0  0  0  0  0  0  0  0  0
   -2.2846    2.5414   -0.9384 O   0  0  0  0  0  0  0  0  0  0  0  0
   -1.5115    1.4001    0.8905 C   0  0  0  0  0  0  0  0  0  0  0  0
   -0.2613    1.0500    0.1998 C   0  0  0  0  0  0  0  0  0  0  0  0
    0.6442    1.9662   -0.3169 C   0  0  0  0  0  0  0  0  0  0  0  0
    1.7939    1.5437   -0.9421 C   0  0  0  0  0  0  0  0  0  0  0  0
    2.0790    0.1883   -1.0716 C   0  0  0  0  0  0  0  0  0  0  0  0
    3.2299   -0.2067   -1.6985 O   0  0  0  0  0  0  0  0  0  0  0  0
    4.4550   -0.4523   -1.1450 C   0  0  0  0  0  0  0  0  0  0  0  0
    5.5257   -0.8327   -1.9229 C   0  0  0  0  0  0  0  0  0  0  0  0
    6.7613   -1.0736   -1.3375 C   0  0  0  0  0  0  0  0  0  0  0  0
    6.9811   -0.9492    0.0176 C   0  0  0  0  0  0  0  0  0  0  0  0
    5.9185   -0.5731    0.7899 C   0  0  0  0  0  0  0  0  0  0  0  0
    4.6747   -0.3312    0.1997 C   0  0  0  0  0  0  0  0  0  0  0  0
    8.2516   -1.2021    0.5637 N   0  0  0  0  0  0  0  0  0  0  0  0
    9.3366   -1.7772   -0.2196 C   0  0  0  0  0  0  0  0  0  0  0  0
   10.3402   -0.6550   -0.4086 C   0  0  0  0  0  0  0  0  0  0  0  0
   10.0298    0.5551    0.4464 C   0  0  0  0  0  0  0  0  0  0  0  0
    9.6589    0.1884    1.8728 C   0  0  0  0  0  0  0  0  0  0  0  0
    8.6245   -0.9162    1.9369 C   0  0  0  0  0  0  0  0  0  0  0  0
   11.2618    1.3466    0.5205 C   0  0  0  0  0  0  0  0  0  0  0  0
   12.2430    1.9986    0.5617 N   0  0  0  0  0  0  0  0  0  0  0  0
    1.2028   -0.7308   -0.5694 C   0  0  0  0  0  0  0  0  0  0  0  0
    0.0338   -0.3102    0.0656 C   0  0  0  0  0  0  0  0  0  0  0  0
   -4.9262   -0.9757    0.6267 C   0  0  0  0  0  0  0  0  0  0  0  0
   -3.7369   -1.4270    1.1132 F   0  0  0  0  0  0  0  0  0  0  0  0
   -8.6359    0.4117   -0.8811 N   0  0  0  0  0  0  0  0  0  0  0  0
   -8.8929    1.8042   -1.2303 C   0  0  0  0  0  0  0  0  0  0  0  0
   -9.9909    2.3615   -0.3356 C   0  0  0  0  0  0  0  0  0  0  0  0
  -10.9286    1.3783   -0.0592 O   0  0  0  0  0  0  0  0  0  0  0  0
  -10.9973    0.4159   -1.0774 C   0  0  0  0  0  0  0  0  0  0  0  0
   -9.7458   -0.4862   -1.0668 C   0  0  0  0  0  0  0  0  0  0  0  0
   -5.0376   -3.1260    1.9191 H   0  0  0  0  0  0  0  0  0  0  0  0
   -6.7805   -3.0109    2.2925 H   0  0  0  0  0  0  0  0  0  0  0  0
   -6.1956   -3.8307    0.7614 H   0  0  0  0  0  0  0  0  0  0  0  0
   -8.1827   -1.8189    0.4095 H   0  0  0  0  0  0  0  0  0  0  0  0
   -6.2990    1.6260   -1.0800 H   0  0  0  0  0  0  0  0  0  0  0  0
   -4.1356    1.4445   -1.3377 H   0  0  0  0  0  0  0  0  0  0  0  0
   -1.3874    2.3809    1.3819 H   0  0  0  0  0  0  0  0  0  0  0  0
   -1.8064    0.6653    1.6347 H   0  0  0  0  0  0  0  0  0  0  0  0
    0.4492    3.0214   -0.2291 H   0  0  0  0  0  0  0  0  0  0  0  0
    2.5088    2.2356   -1.3536 H   0  0  0  0  0  0  0  0  0  0  0  0
    5.3985   -0.9489   -2.9769 H   0  0  0  0  0  0  0  0  0  0  0  0
    7.5526   -1.3611   -2.0027 H   0  0  0  0  0  0  0  0  0  0  0  0
    6.0179   -0.4642    1.8376 H   0  0  0  0  0  0  0  0  0  0  0  0
    3.8323   -0.0349    0.8256 H   0  0  0  0  0  0  0  0  0  0  0  0
    9.0417   -2.2652   -1.1392 H   0  0  0  0  0  0  0  0  0  0  0  0
    9.8552   -2.5434    0.4230 H   0  0  0  0  0  0  0  0  0  0  0  0
   11.3823   -1.0010   -0.3386 H   0  0  0  0  0  0  0  0  0  0  0  0
   10.2052   -0.3233   -1.4757 H   0  0  0  0  0  0  0  0  0  0  0  0
    9.2509    1.2078   -0.0092 H   0  0  0  0  0  0  0  0  0  0  0  0
   10.5734   -0.0449    2.4247 H   0  0  0  0  0  0  0  0  0  0  0  0
    9.1992    1.0965    2.3203 H   0  0  0  0  0  0  0  0  0  0  0  0
    7.8174   -0.7546    2.6292 H   0  0  0  0  0  0  0  0  0  0  0  0
    9.1636   -1.8394    2.3075 H   0  0  0  0  0  0  0  0  0  0  0  0
    1.3824   -1.7830   -0.6508 H   0  0  0  0  0  0  0  0  0  0  0  0
   -0.6648   -1.0310    0.4626 H   0  0  0  0  0  0  0  0  0  0  0  0
   -8.0410    2.4678   -1.1253 H   0  0  0  0  0  0  0  0  0  0  0  0
   -9.2267    1.8116   -2.2915 H   0  0  0  0  0  0  0  0  0  0  0  0
  -10.4234    3.2423   -0.8131 H   0  0  0  0  0  0  0  0  0  0  0  0
   -9.5259    2.6689    0.6290 H   0  0  0  0  0  0  0  0  0  0  0  0
  -11.8708   -0.2312   -0.8704 H   0  0  0  0  0  0  0  0  0  0  0  0
  -11.1076    0.8628   -2.0810 H   0  0  0  0  0  0  0  0  0  0  0  0
   -9.9228   -1.1905   -0.2450 H   0  0  0  0  0  0  0  0  0  0  0  0
   -9.7389   -0.9628   -2.0777 H   0  0  0  0  0  0  0  0  0  0  0  0
  1  2  1  0
  2  3  2  0
  3  4  1  0
  4  5  2  0
  5  6  1  0
  6  7  1  0
  7  8  1  0
  8  9  2  0
  8 10  1  0
 10 11  1  0
 11 12  2  0
 12 13  1  0
 13 14  2  0
 14 15  1  0
 15 16  1  0
 16 17  2  0
 17 18  1  0
 18 19  2  0
 19 20  1  0
 20 21  2  0
 19 22  1  0
 22 23  1  0
 23 24  1  0
 24 25  1  0
 25 26  1  0
 26 27  1  0
 25 28  1  0
 28 29  3  0
 14 30  1  0
 30 31  2  0
  6 32  2  0
 32 33  1  0
  4 34  1  0
 34 35  1  0
 35 36  1  0
 36 37  1  0
 37 38  1  0
 38 39  1  0
 32  2  1  0
 39 34  1  0
 31 11  1  0
 21 16  1  0
 27 22  1  0
  1 40  1  0
  1 41  1  0
  1 42  1  0
  3 43  1  0
  5 44  1  0
  7 45  1  0
 10 46  1  0
 10 47  1  0
 12 48  1  0
 13 49  1  0
 17 50  1  0
 18 51  1  0
 20 52  1  0
 21 53  1  0
 23 54  1  0
 23 55  1  0
 24 56  1  0
 24 57  1  0
 25 58  1  0
 26 59  1  0
 26 60  1  0
 27 61  1  0
 27 62  1  0
 30 63  1  0
 31 64  1  0
 35 65  1  0
 35 66  1  0
 36 67  1  0
 36 68  1  0
 38 69  1  0
 38 70  1  0
 39 71  1  0
 39 72  1  0
M  END
$$$$
[H]OC(=O)c1c([H])c(C(=O)N([H])[C@@]2([H])C([H])([H])N(C(=O)/C([H])=C(\[H])c3c([H])c([H])c(C([H])([H])n4nc([H])nc4[H])c([H])c3OC([H])([H])C([H])([H])[H])C([H])([H])C([H])([H])C2([H])[H])c([H])c(C([H])([H])[H])c1[H]
     RDKit          3D

 69 72  0  0  0  0  0  0  0  0999 V2000
   -6.4412    2.3885    1.9598 C   0  0  0  0  0  0  0  0  0  0  0  0
   -5.7064    1.1999    2.5102 C   0  0  0  0  0  0  0  0  0  0  0  0
   -4.4671    0.9406    1.9504 O   0  0  0  0  0  0  0  0  0  0  0  0
   -4.1415    0.6251    0.6511 C   0  0  0  0  0  0  0  0  0  0  0  0
   -5.1900    0.5278   -0.2854 C   0  0  0  0  0  0  0  0  0  0  0  0
   -5.0121    0.2215   -1.6056 C   0  0  0  0  0  0  0  0  0  0  0  0
   -6.1046    0.1209   -2.5775 C   0  0  0  0  0  0  0  0  0  0  0  0
   -6.6776   -1.1820   -2.7017 N   0  0  0  0  0  0  0  0  0  0  0  0
   -7.6982   -1.6912   -2.0149 C   0  0  0  0  0  0  0  0  0  0  0  0
   -7.9157   -2.9322   -2.4367 N   0  0  0  0  0  0  0  0  0  0  0  0
   -7.0288   -3.2179   -3.3989 C   0  0  0  0  0  0  0  0  0  0  0  0
   -6.2728   -2.1154   -3.5439 N   0  0  0  0  0  0  0  0  0  0  0  0
   -3.7204   -0.0019   -2.0229 C   0  0  0  0  0  0  0  0  0  0  0  0
   -2.6735    0.0847   -1.1338 C   0  0  0  0  0  0  0  0  0  0  0  0
   -2.8706    0.4026    0.2290 C   0  0  0  0  0  0  0  0  0  0  0  0
   -1.6987    0.4633    1.0599 C   0  0  0  0  0  0  0  0  0  0  0  0
   -1.6372    0.7343    2.3303 C   0  0  0  0  0  0  0  0  0  0  0  0
   -0.5195    0.8119    3.2162 C   0  0  0  0  0  0  0  0  0  0  0  0
   -0.8493    1.1238    4.4555 O   0  0  0  0  0  0  0  0  0  0  0  0
    0.8375    0.6162    2.9922 N   0  0  0  0  0  0  0  0  0  0  0  0
    1.7463    0.7949    4.1636 C   0  0  0  0  0  0  0  0  0  0  0  0
    2.5350   -0.4653    4.4084 C   0  0  0  0  0  0  0  0  0  0  0  0
    3.0896   -1.0304    3.1241 C   0  0  0  0  0  0  0  0  0  0  0  0
    3.0068    0.0647    2.0900 C   0  0  2  0  0  0  0  0  0  0  0  0
    1.5101    0.2584    1.7825 C   0  0  0  0  0  0  0  0  0  0  0  0
    3.7056   -0.3190    0.8634 N   0  0  0  0  0  0  0  0  0  0  0  0
    4.7427    0.4939    0.3734 C   0  0  0  0  0  0  0  0  0  0  0  0
    5.0786    1.5591    0.9873 O   0  0  0  0  0  0  0  0  0  0  0  0
    5.4570    0.1499   -0.8347 C   0  0  0  0  0  0  0  0  0  0  0  0
    6.5317    0.9224   -1.2788 C   0  0  0  0  0  0  0  0  0  0  0  0
    7.2530    0.6654   -2.4052 C   0  0  0  0  0  0  0  0  0  0  0  0
    8.3695    1.5529   -2.7765 C   0  0  0  0  0  0  0  0  0  0  0  0
    6.8999   -0.4463   -3.1756 C   0  0  0  0  0  0  0  0  0  0  0  0
    5.8452   -1.2376   -2.7748 C   0  0  0  0  0  0  0  0  0  0  0  0
    5.1387   -0.9336   -1.6157 C   0  0  0  0  0  0  0  0  0  0  0  0
    5.4796   -2.3966   -3.5784 C   0  0  0  0  0  0  0  0  0  0  0  0
    4.4234   -3.2304   -3.2236 O   0  0  0  0  0  0  0  0  0  0  0  0
    6.0983   -2.7006   -4.6300 O   0  0  0  0  0  0  0  0  0  0  0  0
   -6.7144    3.1082    2.7866 H   0  0  0  0  0  0  0  0  0  0  0  0
   -7.4358    2.1143    1.5142 H   0  0  0  0  0  0  0  0  0  0  0  0
   -5.8413    2.9928    1.2494 H   0  0  0  0  0  0  0  0  0  0  0  0
   -5.5231    1.3817    3.6129 H   0  0  0  0  0  0  0  0  0  0  0  0
   -6.3706    0.2900    2.4745 H   0  0  0  0  0  0  0  0  0  0  0  0
   -6.2132    0.6906    0.0243 H   0  0  0  0  0  0  0  0  0  0  0  0
   -5.8133    0.5574   -3.5732 H   0  0  0  0  0  0  0  0  0  0  0  0
   -6.9250    0.8053   -2.2164 H   0  0  0  0  0  0  0  0  0  0  0  0
   -8.2499   -1.1815   -1.2494 H   0  0  0  0  0  0  0  0  0  0  0  0
   -6.9232   -4.1558   -3.9670 H   0  0  0  0  0  0  0  0  0  0  0  0
   -3.5028   -0.2521   -3.0674 H   0  0  0  0  0  0  0  0  0  0  0  0
   -1.6671   -0.0957   -1.4852 H   0  0  0  0  0  0  0  0  0  0  0  0
   -0.7092    0.2605    0.5754 H   0  0  0  0  0  0  0  0  0  0  0  0
   -2.6124    0.9473    2.8421 H   0  0  0  0  0  0  0  0  0  0  0  0
    1.0895    0.9987    5.0629 H   0  0  0  0  0  0  0  0  0  0  0  0
    2.3710    1.6924    4.0118 H   0  0  0  0  0  0  0  0  0  0  0  0
    1.8537   -1.1988    4.8910 H   0  0  0  0  0  0  0  0  0  0  0  0
    3.4278   -0.2578    5.0520 H   0  0  0  0  0  0  0  0  0  0  0  0
    4.1447   -1.3649    3.2137 H   0  0  0  0  0  0  0  0  0  0  0  0
    2.4295   -1.8865    2.8292 H   0  0  0  0  0  0  0  0  0  0  0  0
    3.4181    1.0104    2.4737 H   0  0  0  0  0  0  0  0  0  0  0  0
    1.1522   -0.7481    1.4102 H   0  0  0  0  0  0  0  0  0  0  0  0
    1.4021    1.0620    1.0200 H   0  0  0  0  0  0  0  0  0  0  0  0
    3.4418   -1.1820    0.3574 H   0  0  0  0  0  0  0  0  0  0  0  0
    6.7926    1.7810   -0.6693 H   0  0  0  0  0  0  0  0  0  0  0  0
    7.9349    2.4096   -3.3582 H   0  0  0  0  0  0  0  0  0  0  0  0
    8.7958    1.9947   -1.8504 H   0  0  0  0  0  0  0  0  0  0  0  0
    9.1192    1.0914   -3.4246 H   0  0  0  0  0  0  0  0  0  0  0  0
    7.4778   -0.6450   -4.0706 H   0  0  0  0  0  0  0  0  0  0  0  0
    4.3286   -1.5964   -1.3679 H   0  0  0  0  0  0  0  0  0  0  0  0
    4.1987   -3.4460   -2.2542 H   0  0  0  0  0  0  0  0  0  0  0  0
  1  2  1  0
  2  3  1  0
  3  4  1  0
  4  5  2  0
  5  6  1  0
  6  7  1  0
  7  8  1  0
  8  9  1  0
  9 10  2  0
 10 11  1  0
 11 12  2  0
  6 13  2  0
 13 14  1  0
 14 15  2  0
 15 16  1  0
 16 17  2  0
 17 18  1  0
 18 19  2  0
 18 20  1  0
 20 21  1  0
 21 22  1  0
 22 23  1  0
 23 24  1  0
 24 25  1  0
 24 26  1  0
 26 27  1  0
 27 28  2  0
 27 29  1  0
 29 30  2  0
 30 31  1  0
 31 32  1  0
 31 33  2  0
 33 34  1  0
 34 35  2  0
 34 36  1  0
 36 37  1  0
 36 38  2  0
 15  4  1  0
 25 20  1  0
 35 29  1  0
 12  8  1  0
  1 39  1  0
  1 40  1  0
  1 41  1  0
  2 42  1  0
  2 43  1  0
  5 44  1  0
  7 45  1  0
  7 46  1  0
  9 47  1  0
 11 48  1  0
 13 49  1  0
 14 50  1  0
 16 51  1  0
 17 52  1  0
 21 53  1  0
 21 54  1  0
 22 55  1  0
 22 56  1  0
 23 57  1  0
 23 58  1  0
 24 59  1  1
 25 60  1  0
 25 61  1  0
 26 62  1  0
 30 63  1  0
 32 64  1  0
 32 65  1  0
 32 66  1  0
 33 67  1  0
 35 68  1  0
 37 69  1  0
M  END
$$$$
[H]c1c([H])c([H])c(-c2c([H])c([H])c(N([H])C(=O)C([H])([H])C([H])([H])C([H])([H])[H])c3c([H])c([H])c([H])c([H])c23)c(OC([H])([H])[H])c1[H]
     RDKit          3D

 45 47  0  0  0  0  0  0  0  0999 V2000
    5.8681    1.9708    0.0785 C   0  0  0  0  0  0  0  0  0  0  0  0
    5.9684    0.7554    0.9507 C   0  0  0  0  0  0  0  0  0  0  0  0
    5.0345   -0.3012    0.4121 C   0  0  0  0  0  0  0  0  0  0  0  0
    3.6159    0.1830    0.4079 C   0  0  0  0  0  0  0  0  0  0  0  0
    3.4365    1.3284    0.8235 O   0  0  0  0  0  0  0  0  0  0  0  0
    2.5864   -0.6432   -0.0471 N   0  0  0  0  0  0  0  0  0  0  0  0
    1.2210   -0.4218   -0.1472 C   0  0  0  0  0  0  0  0  0  0  0  0
    0.6458    0.7777    0.1659 C   0  0  0  0  0  0  0  0  0  0  0  0
   -0.7330    1.0023    0.0500 C   0  0  0  0  0  0  0  0  0  0  0  0
   -1.5649    0.0018   -0.3916 C   0  0  0  0  0  0  0  0  0  0  0  0
   -2.9645    0.3435   -0.5342 C   0  0  0  0  0  0  0  0  0  0  0  0
   -3.7042    0.2235   -1.6908 C   0  0  0  0  0  0  0  0  0  0  0  0
   -5.0341    0.6174   -1.7688 C   0  0  0  0  0  0  0  0  0  0  0  0
   -5.6570    1.1525   -0.6543 C   0  0  0  0  0  0  0  0  0  0  0  0
   -4.9262    1.2783    0.5114 C   0  0  0  0  0  0  0  0  0  0  0  0
   -3.6074    0.8872    0.5871 C   0  0  0  0  0  0  0  0  0  0  0  0
   -2.8733    1.0123    1.7536 O   0  0  0  0  0  0  0  0  0  0  0  0
   -3.5205    1.5634    2.8931 C   0  0  0  0  0  0  0  0  0  0  0  0
   -1.0102   -1.2100   -0.7095 C   0  0  0  0  0  0  0  0  0  0  0  0
   -1.8419   -2.2532   -1.1418 C   0  0  0  0  0  0  0  0  0  0  0  0
   -1.3460   -3.5001   -1.4618 C   0  0  0  0  0  0  0  0  0  0  0  0
    0.0005   -3.7339   -1.3555 C   0  0  0  0  0  0  0  0  0  0  0  0
    0.8136   -2.6997   -0.9268 C   0  0  0  0  0  0  0  0  0  0  0  0
    0.3685   -1.4363   -0.5945 C   0  0  0  0  0  0  0  0  0  0  0  0
    5.5119    2.8671    0.6263 H   0  0  0  0  0  0  0  0  0  0  0  0
    6.8631    2.2628   -0.3549 H   0  0  0  0  0  0  0  0  0  0  0  0
    5.2078    1.8323   -0.8093 H   0  0  0  0  0  0  0  0  0  0  0  0
    5.7279    0.9487    2.0093 H   0  0  0  0  0  0  0  0  0  0  0  0
    7.0231    0.4188    0.9283 H   0  0  0  0  0  0  0  0  0  0  0  0
    5.2905   -0.6024   -0.6219 H   0  0  0  0  0  0  0  0  0  0  0  0
    5.1668   -1.2041    1.0397 H   0  0  0  0  0  0  0  0  0  0  0  0
    2.9306   -1.6115   -0.3777 H   0  0  0  0  0  0  0  0  0  0  0  0
    1.2392    1.6016    0.5145 H   0  0  0  0  0  0  0  0  0  0  0  0
   -1.1115    1.9925    0.3220 H   0  0  0  0  0  0  0  0  0  0  0  0
   -3.2115   -0.1928   -2.5715 H   0  0  0  0  0  0  0  0  0  0  0  0
   -5.5818    0.5047   -2.7042 H   0  0  0  0  0  0  0  0  0  0  0  0
   -6.7002    1.4558   -0.7342 H   0  0  0  0  0  0  0  0  0  0  0  0
   -5.4155    1.7002    1.3926 H   0  0  0  0  0  0  0  0  0  0  0  0
   -3.7810    2.6238    2.6696 H   0  0  0  0  0  0  0  0  0  0  0  0
   -4.4636    1.0362    3.1261 H   0  0  0  0  0  0  0  0  0  0  0  0
   -2.8945    1.5169    3.8016 H   0  0  0  0  0  0  0  0  0  0  0  0
   -2.8956   -2.1084   -1.2165 H   0  0  0  0  0  0  0  0  0  0  0  0
   -1.9771   -4.3120   -1.7967 H   0  0  0  0  0  0  0  0  0  0  0  0
    0.4434   -4.6901   -1.5929 H   0  0  0  0  0  0  0  0  0  0  0  0
    1.8519   -2.9384   -0.8601 H   0  0  0  0  0  0  0  0  0  0  0  0
  1  2  1  0
  2  3  1  0
  3  4  1  0
  4  5  2  0
  4  6  1  0
  6  7  1  0
  7  8  2  0
  8  9  1  0
  9 10  2  0
 10 11  1  0
 11 12  2  0
 12 13  1  0
 13 14  2  0
 14 15  1  0
 15 16  2  0
 16 17  1  0
 17 18  1  0
 10 19  1  0
 19 20  2  0
 20 21  1  0
 21 22  2  0
 22 23  1  0
 23 24  2  0
 24  7  1  0
 16 11  1  0
 24 19  1  0
  1 25  1  0
  1 26  1  0
  1 27  1  0
  2 28  1  0
  2 29  1  0
  3 30  1  0
  3 31  1  0
  6 32  1  0
  8 33  1  0
  9 34  1  0
 12 35  1  0
 13 36  1  0
 14 37  1  0
 15 38  1  0
 18 39  1  0
 18 40  1  0
 18 41  1  0
 20 42  1  0
 21 43  1  0
 22 44  1  0
 23 45  1  0
M  END
$$$$
[H]C([H])=C([H])N([H])C([H])([H])c1c([H])c([H])c([H])c(N([H])c2c([H])c([H])c([H])c3c(OC([H])([H])[H])c(C(=O)N([H])c4c([H])c(F)c(N([H])[H])c([H])c4OC([H])([H])[H])oc23)c1[H]
     RDKit          3D

 60 63  0  0  0  0  0  0  0  0999 V2000
   -4.3507    2.7629    2.6864 C   0  0  0  0  0  0  0  0  0  0  0  0
   -4.1472    2.0448    1.4751 O   0  0  0  0  0  0  0  0  0  0  0  0
   -5.2319    1.7699    0.6273 C   0  0  0  0  0  0  0  0  0  0  0  0
   -6.4971    2.1899    0.9582 C   0  0  0  0  0  0  0  0  0  0  0  0
   -7.5660    1.9249    0.1334 C   0  0  0  0  0  0  0  0  0  0  0  0
   -8.8780    2.3547    0.4665 N   0  0  0  0  0  0  0  0  0  0  0  0
   -7.3086    1.2293   -1.0205 C   0  0  0  0  0  0  0  0  0  0  0  0
   -8.3480    0.9454   -1.8646 F   0  0  0  0  0  0  0  0  0  0  0  0
   -6.0308    0.8012   -1.3626 C   0  0  0  0  0  0  0  0  0  0  0  0
   -4.9559    1.0604   -0.5467 C   0  0  0  0  0  0  0  0  0  0  0  0
   -3.6390    0.6607   -0.8092 N   0  0  0  0  0  0  0  0  0  0  0  0
   -3.0975    0.0008   -1.9157 C   0  0  0  0  0  0  0  0  0  0  0  0
   -3.8309   -0.3242   -2.8817 O   0  0  0  0  0  0  0  0  0  0  0  0
   -1.6497   -0.3237   -1.9651 C   0  0  0  0  0  0  0  0  0  0  0  0
   -0.7349   -0.1259   -1.0601 O   0  0  0  0  0  0  0  0  0  0  0  0
    0.4555   -0.5586   -1.4874 C   0  0  0  0  0  0  0  0  0  0  0  0
    1.7136   -0.5722   -0.9055 C   0  0  0  0  0  0  0  0  0  0  0  0
    1.8508   -0.0105    0.3876 N   0  0  0  0  0  0  0  0  0  0  0  0
    2.9215   -0.0762    1.2723 C   0  0  0  0  0  0  0  0  0  0  0  0
    3.2107    1.0348    2.0794 C   0  0  0  0  0  0  0  0  0  0  0  0
    4.2263    1.0294    3.0091 C   0  0  0  0  0  0  0  0  0  0  0  0
    4.9773   -0.1193    3.1385 C   0  0  0  0  0  0  0  0  0  0  0  0
    4.7339   -1.2471    2.3656 C   0  0  0  0  0  0  0  0  0  0  0  0
    5.5178   -2.5026    2.4758 C   0  0  0  0  0  0  0  0  0  0  0  0
    6.7528   -2.4681    1.7721 N   0  0  0  0  0  0  0  0  0  0  0  0
    7.7481   -1.5204    2.1171 C   0  0  0  0  0  0  0  0  0  0  0  0
    8.6549   -1.7635    3.0576 C   0  0  0  0  0  0  0  0  0  0  0  0
    3.6947   -1.1855    1.4426 C   0  0  0  0  0  0  0  0  0  0  0  0
    2.7993   -1.0863   -1.5766 C   0  0  0  0  0  0  0  0  0  0  0  0
    2.6194   -1.5941   -2.8450 C   0  0  0  0  0  0  0  0  0  0  0  0
    1.3797   -1.5946   -3.4474 C   0  0  0  0  0  0  0  0  0  0  0  0
    0.3070   -1.0719   -2.7533 C   0  0  0  0  0  0  0  0  0  0  0  0
   -1.0469   -0.9151   -3.0467 C   0  0  0  0  0  0  0  0  0  0  0  0
   -1.5864   -1.3210   -4.2528 O   0  0  0  0  0  0  0  0  0  0  0  0
   -1.5948   -0.3771   -5.3071 C   0  0  0  0  0  0  0  0  0  0  0  0
   -3.3829    2.7919    3.2191 H   0  0  0  0  0  0  0  0  0  0  0  0
   -4.6380    3.8212    2.4844 H   0  0  0  0  0  0  0  0  0  0  0  0
   -5.1433    2.2301    3.2458 H   0  0  0  0  0  0  0  0  0  0  0  0
   -6.6540    2.7461    1.8960 H   0  0  0  0  0  0  0  0  0  0  0  0
   -9.1035    2.7345    1.3971 H   0  0  0  0  0  0  0  0  0  0  0  0
   -9.6432    2.2912   -0.2378 H   0  0  0  0  0  0  0  0  0  0  0  0
   -5.9162    0.2533   -2.2936 H   0  0  0  0  0  0  0  0  0  0  0  0
   -2.9203    0.8907   -0.0458 H   0  0  0  0  0  0  0  0  0  0  0  0
    0.9974    0.5545    0.7311 H   0  0  0  0  0  0  0  0  0  0  0  0
    2.6191    1.9300    1.9729 H   0  0  0  0  0  0  0  0  0  0  0  0
    4.4227    1.9113    3.6203 H   0  0  0  0  0  0  0  0  0  0  0  0
    5.7804   -0.1737    3.8477 H   0  0  0  0  0  0  0  0  0  0  0  0
    5.6459   -2.7015    3.5804 H   0  0  0  0  0  0  0  0  0  0  0  0
    4.8503   -3.3462    2.1351 H   0  0  0  0  0  0  0  0  0  0  0  0
    6.9398   -3.1324    1.0013 H   0  0  0  0  0  0  0  0  0  0  0  0
    7.8081   -0.5480    1.6213 H   0  0  0  0  0  0  0  0  0  0  0  0
    8.6053   -2.7243    3.5566 H   0  0  0  0  0  0  0  0  0  0  0  0
    9.4039   -1.0320    3.3080 H   0  0  0  0  0  0  0  0  0  0  0  0
    3.4966   -2.0669    0.8653 H   0  0  0  0  0  0  0  0  0  0  0  0
    3.8129   -1.0958   -1.1683 H   0  0  0  0  0  0  0  0  0  0  0  0
    3.4552   -2.0091   -3.4039 H   0  0  0  0  0  0  0  0  0  0  0  0
    1.1918   -1.9788   -4.4303 H   0  0  0  0  0  0  0  0  0  0  0  0
   -0.7378    0.3223   -5.2131 H   0  0  0  0  0  0  0  0  0  0  0  0
   -2.5163    0.1924   -5.4084 H   0  0  0  0  0  0  0  0  0  0  0  0
   -1.4427   -0.9122   -6.2828 H   0  0  0  0  0  0  0  0  0  0  0  0
  1  2  1  0
  2  3  1  0
  3  4  2  0
  4  5  1  0
  5  6  1  0
  5  7  2  0
  7  8  1  0
  7  9  1  0
  9 10  2  0
 10 11  1  0
 11 12  1  0
 12 13  2  0
 12 14  1  0
 14 15  1  0
 15 16  1  0
 16 17  2  0
 17 18  1  0
 18 19  1  0
 19 20  2  0
 20 21  1  0
 21 22  2  0
 22 23  1  0
 23 24  1  0
 24 25  1  0
 25 26  1  0
 26 27  2  3
 23 28  2  0
 17 29  1  0
 29 30  2  0
 30 31  1  0
 31 32  2  0
 32 33  1  0
 33 34  1  0
 34 35  1  0
 10  3  1  0
 33 14  2  0
 32 16  1  0
 28 19  1  0
  1 36  1  0
  1 37  1  0
  1 38  1  0
  4 39  1  0
  6 40  1  0
  6 41  1  0
  9 42  1  0
 11 43  1  0
 18 44  1  0
 20 45  1  0
 21 46  1  0
 22 47  1  0
 24 48  1  0
 24 49  1  0
 25 50  1  0
 26 51  1  0
 27 52  1  0
 27 53  1  0
 28 54  1  0
 29 55  1  0
 30 56  1  0
 31 57  1  0
 35 58  1  0
 35 59  1  0
 35 60  1  0
M  END
$$$$
[H]c1nn2c(nc([H])n2C(=O)C([H])([H])[H])c1C#CC([H])([H])N(C([H])([H])C1([H])C([H])([H])C([H])([H])C([H])([H])C([H])([H])C1([H])[H])C1([H])C([H])([H])N([H])C([H])([H])C([H])([H])C1([H])[H]
     RDKit          3D

 58 61  0  0  0  0  0  0  0  0999 V2000
    8.5371    0.2699    1.2900 C   0  0  0  0  0  0  0  0  0  0  0  0
    8.0753    0.5228   -0.1117 C   0  0  0  0  0  0  0  0  0  0  0  0
    8.9035    0.5610   -1.0280 O   0  0  0  0  0  0  0  0  0  0  0  0
    6.6784    0.7067   -0.2933 N   0  0  0  0  0  0  0  0  0  0  0  0
    6.0921    0.9419   -1.4853 C   0  0  0  0  0  0  0  0  0  0  0  0
    4.7641    1.0654   -1.3366 N   0  0  0  0  0  0  0  0  0  0  0  0
    4.5156    0.9042   -0.0240 C   0  0  0  0  0  0  0  0  0  0  0  0
    3.5060    0.8790    0.9111 C   0  0  0  0  0  0  0  0  0  0  0  0
    4.1376    0.6386    2.1106 C   0  0  0  0  0  0  0  0  0  0  0  0
    5.4815    0.5260    1.8814 N   0  0  0  0  0  0  0  0  0  0  0  0
    5.7099    0.6857    0.5936 N   0  0  0  0  0  0  0  0  0  0  0  0
    2.1048    1.0529    0.6801 C   0  0  0  0  0  0  0  0  0  0  0  0
    0.9007    1.1756    0.4674 C   0  0  0  0  0  0  0  0  0  0  0  0
   -0.5369    1.3516    0.1919 C   0  0  0  0  0  0  0  0  0  0  0  0
   -1.0054    0.3144   -0.6111 N   0  0  0  0  0  0  0  0  0  0  0  0
   -2.2910    0.3344   -1.1532 C   0  0  0  0  0  0  0  0  0  0  0  0
   -3.4912    0.1894   -0.2840 C   0  0  0  0  0  0  0  0  0  0  0  0
   -4.7018    0.2334   -1.2445 C   0  0  0  0  0  0  0  0  0  0  0  0
   -5.0969    1.6798   -1.4244 C   0  0  0  0  0  0  0  0  0  0  0  0
   -5.6905    2.2390   -0.1432 C   0  0  0  0  0  0  0  0  0  0  0  0
   -5.1481    1.4558    1.0366 C   0  0  0  0  0  0  0  0  0  0  0  0
   -3.6503    1.2052    0.7981 C   0  0  0  0  0  0  0  0  0  0  0  0
   -0.3876   -0.9658   -0.4594 C   0  0  0  0  0  0  0  0  0  0  0  0
   -0.6391   -1.4718    0.9236 C   0  0  0  0  0  0  0  0  0  0  0  0
   -0.8524   -2.9609    1.0273 C   0  0  0  0  0  0  0  0  0  0  0  0
   -1.7157   -3.5555   -0.0252 C   0  0  0  0  0  0  0  0  0  0  0  0
   -1.7924   -2.8401   -1.2561 N   0  0  0  0  0  0  0  0  0  0  0  0
   -0.6890   -1.9725   -1.5282 C   0  0  0  0  0  0  0  0  0  0  0  0
    8.0349    1.0030    1.9440 H   0  0  0  0  0  0  0  0  0  0  0  0
    9.6298    0.4524    1.3878 H   0  0  0  0  0  0  0  0  0  0  0  0
    8.2878   -0.7549    1.5698 H   0  0  0  0  0  0  0  0  0  0  0  0
    6.6294    1.0165   -2.4117 H   0  0  0  0  0  0  0  0  0  0  0  0
    3.6943    0.5473    3.0774 H   0  0  0  0  0  0  0  0  0  0  0  0
   -1.0904    1.4527    1.1611 H   0  0  0  0  0  0  0  0  0  0  0  0
   -0.6652    2.3294   -0.3580 H   0  0  0  0  0  0  0  0  0  0  0  0
   -2.3931    1.2842   -1.7950 H   0  0  0  0  0  0  0  0  0  0  0  0
   -2.3965   -0.4596   -1.9509 H   0  0  0  0  0  0  0  0  0  0  0  0
   -3.5370   -0.8215    0.2034 H   0  0  0  0  0  0  0  0  0  0  0  0
   -4.3671   -0.2064   -2.1910 H   0  0  0  0  0  0  0  0  0  0  0  0
   -5.4934   -0.3683   -0.7790 H   0  0  0  0  0  0  0  0  0  0  0  0
   -5.8412    1.7347   -2.2281 H   0  0  0  0  0  0  0  0  0  0  0  0
   -4.1631    2.2492   -1.6915 H   0  0  0  0  0  0  0  0  0  0  0  0
   -5.3224    3.2606   -0.0536 H   0  0  0  0  0  0  0  0  0  0  0  0
   -6.7862    2.2094   -0.2107 H   0  0  0  0  0  0  0  0  0  0  0  0
   -5.3092    1.9838    1.9927 H   0  0  0  0  0  0  0  0  0  0  0  0
   -5.6556    0.4786    1.0675 H   0  0  0  0  0  0  0  0  0  0  0  0
   -3.2547    2.2122    0.5456 H   0  0  0  0  0  0  0  0  0  0  0  0
   -3.2864    0.7871    1.7457 H   0  0  0  0  0  0  0  0  0  0  0  0
    0.7231   -0.7799   -0.5403 H   0  0  0  0  0  0  0  0  0  0  0  0
    0.2481   -1.2621    1.5839 H   0  0  0  0  0  0  0  0  0  0  0  0
   -1.4694   -0.9226    1.4043 H   0  0  0  0  0  0  0  0  0  0  0  0
    0.1294   -3.4824    1.1651 H   0  0  0  0  0  0  0  0  0  0  0  0
   -1.3942   -3.1088    2.0105 H   0  0  0  0  0  0  0  0  0  0  0  0
   -2.7830   -3.7045    0.3182 H   0  0  0  0  0  0  0  0  0  0  0  0
   -1.3638   -4.6154   -0.2036 H   0  0  0  0  0  0  0  0  0  0  0  0
   -1.9031   -3.4770   -2.0586 H   0  0  0  0  0  0  0  0  0  0  0  0
    0.2029   -2.6699   -1.6723 H   0  0  0  0  0  0  0  0  0  0  0  0
   -0.8227   -1.5339   -2.5365 H   0  0  0  0  0  0  0  0  0  0  0  0
  1  2  1  0
  2  3  2  0
  2  4  1  0
  4  5  1  0
  5  6  2  0
  6  7  1  0
  7  8  2  0
  8  9  1  0
  9 10  2  0
 10 11  1  0
  8 12  1  0
 12 13  3  0
 13 14  1  0
 14 15  1  0
 15 16  1  0
 16 17  1  0
 17 18  1  0
 18 19  1  0
 19 20  1  0
 20 21  1  0
 21 22  1  0
 15 23  1  0
 23 24  1  0
 24 25  1  0
 25 26  1  0
 26 27  1  0
 27 28  1  0
 11  4  1  0
 22 17  1  0
 28 23  1  0
 11  7  1  0
  1 29  1  0
  1 30  1  0
  1 31  1  0
  5 32  1  0
  9 33  1  0
 14 34  1  0
 14 35  1  0
 16 36  1  0
 16 37  1  0
 17 38  1  0
 18 39  1  0
 18 40  1  0
 19 41  1  0
 19 42  1  0
 20 43  1  0
 20 44  1  0
 21 45  1  0
 21 46  1  0
 22 47  1  0
 22 48  1  0
 23 49  1  0
 24 50  1  0
 24 51  1  0
 25 52  1  0
 25 53  1  0
 26 54  1  0
 26 55  1  0
 27 56  1  0
 28 57  1  0
 28 58  1  0
M  END
$$$$
[H]c1nc(N2C([H])([H])C([H])([H])C([H])(Oc3nc([H])c4c([H])c([H])c(-c5c(C([H])([H])C([H])([H])[H])nn(C([H])([H])C(=O)N([H])[H])c5[H])c([H])c4n3)C([H])([H])C2([H])[H])c([H])c([H])c1C([H])([H])[H]
     RDKit          3D

 64 68  0  0  0  0  0  0  0  0999 V2000
   -5.0262   -2.7484   -1.5811 C   0  0  0  0  0  0  0  0  0  0  0  0
   -4.9234   -2.6466   -0.0689 C   0  0  0  0  0  0  0  0  0  0  0  0
   -5.7060   -1.5277    0.4546 C   0  0  0  0  0  0  0  0  0  0  0  0
   -6.9078   -1.6658    1.0709 N   0  0  0  0  0  0  0  0  0  0  0  0
   -7.3804   -0.4848    1.4220 N   0  0  0  0  0  0  0  0  0  0  0  0
   -8.6339   -0.2311    2.0998 C   0  0  0  0  0  0  0  0  0  0  0  0
   -9.6906   -0.0386    1.0981 C   0  0  0  0  0  0  0  0  0  0  0  0
  -11.0364    0.2310    1.4028 N   0  0  0  0  0  0  0  0  0  0  0  0
   -9.3889   -0.1169   -0.1272 O   0  0  0  0  0  0  0  0  0  0  0  0
   -6.4944    0.4495    1.0412 C   0  0  0  0  0  0  0  0  0  0  0  0
   -5.4251   -0.1905    0.4260 C   0  0  0  0  0  0  0  0  0  0  0  0
   -4.2311    0.4525   -0.1279 C   0  0  0  0  0  0  0  0  0  0  0  0
   -4.3780    1.5105   -1.0308 C   0  0  0  0  0  0  0  0  0  0  0  0
   -3.3100    2.1774   -1.5864 C   0  0  0  0  0  0  0  0  0  0  0  0
   -2.0284    1.8139   -1.2619 C   0  0  0  0  0  0  0  0  0  0  0  0
   -0.9260    2.4522   -1.7932 C   0  0  0  0  0  0  0  0  0  0  0  0
    0.2895    2.0267   -1.4166 N   0  0  0  0  0  0  0  0  0  0  0  0
    0.4961    1.0174   -0.5541 C   0  0  0  0  0  0  0  0  0  0  0  0
    1.7913    0.6180   -0.1987 O   0  0  0  0  0  0  0  0  0  0  0  0
    2.9316    1.2565   -0.7347 C   0  0  0  0  0  0  0  0  0  0  0  0
    3.7152    0.3205   -1.6371 C   0  0  0  0  0  0  0  0  0  0  0  0
    4.5553   -0.5698   -0.7430 C   0  0  0  0  0  0  0  0  0  0  0  0
    5.5419    0.3202   -0.1352 N   0  0  0  0  0  0  0  0  0  0  0  0
    5.2328    1.6655    0.2341 C   0  0  0  0  0  0  0  0  0  0  0  0
    3.7553    1.9482    0.2916 C   0  0  0  0  0  0  0  0  0  0  0  0
    6.8550   -0.1932    0.0905 C   0  0  0  0  0  0  0  0  0  0  0  0
    7.8789    0.5665    0.6112 C   0  0  0  0  0  0  0  0  0  0  0  0
    9.1537    0.0446    0.8263 C   0  0  0  0  0  0  0  0  0  0  0  0
    9.4190   -1.2718    0.5144 C   0  0  0  0  0  0  0  0  0  0  0  0
   10.7697   -1.8832    0.7246 C   0  0  0  0  0  0  0  0  0  0  0  0
    8.3738   -2.0056   -0.0049 C   0  0  0  0  0  0  0  0  0  0  0  0
    7.1519   -1.4882   -0.2059 N   0  0  0  0  0  0  0  0  0  0  0  0
   -0.5906    0.4140   -0.0523 N   0  0  0  0  0  0  0  0  0  0  0  0
   -1.8612    0.7746   -0.3743 C   0  0  0  0  0  0  0  0  0  0  0  0
   -2.9442    0.0932    0.1937 C   0  0  0  0  0  0  0  0  0  0  0  0
   -6.0400   -3.0676   -1.9038 H   0  0  0  0  0  0  0  0  0  0  0  0
   -4.2784   -3.4968   -1.8988 H   0  0  0  0  0  0  0  0  0  0  0  0
   -4.7262   -1.7824   -2.0388 H   0  0  0  0  0  0  0  0  0  0  0  0
   -5.3132   -3.6010    0.3644 H   0  0  0  0  0  0  0  0  0  0  0  0
   -3.8564   -2.6334    0.1723 H   0  0  0  0  0  0  0  0  0  0  0  0
   -8.5498    0.7023    2.7173 H   0  0  0  0  0  0  0  0  0  0  0  0
   -8.8251   -1.1150    2.7587 H   0  0  0  0  0  0  0  0  0  0  0  0
  -11.2963    1.1590    1.7880 H   0  0  0  0  0  0  0  0  0  0  0  0
  -11.7837   -0.4704    1.2548 H   0  0  0  0  0  0  0  0  0  0  0  0
   -6.5531    1.5169    1.1657 H   0  0  0  0  0  0  0  0  0  0  0  0
   -5.3933    1.7872   -1.2783 H   0  0  0  0  0  0  0  0  0  0  0  0
   -3.4286    2.9947   -2.2836 H   0  0  0  0  0  0  0  0  0  0  0  0
   -1.0864    3.2663   -2.4888 H   0  0  0  0  0  0  0  0  0  0  0  0
    2.5443    2.0541   -1.4367 H   0  0  0  0  0  0  0  0  0  0  0  0
    2.9926   -0.2356   -2.2378 H   0  0  0  0  0  0  0  0  0  0  0  0
    4.3589    0.9601   -2.2688 H   0  0  0  0  0  0  0  0  0  0  0  0
    5.0510   -1.2979   -1.3974 H   0  0  0  0  0  0  0  0  0  0  0  0
    3.9290   -1.0845   -0.0140 H   0  0  0  0  0  0  0  0  0  0  0  0
    5.6799    2.3661   -0.5007 H   0  0  0  0  0  0  0  0  0  0  0  0
    5.7118    1.8899    1.2165 H   0  0  0  0  0  0  0  0  0  0  0  0
    3.4149    1.5788    1.3037 H   0  0  0  0  0  0  0  0  0  0  0  0
    3.5699    3.0389    0.2944 H   0  0  0  0  0  0  0  0  0  0  0  0
    7.6846    1.6022    0.8598 H   0  0  0  0  0  0  0  0  0  0  0  0
    9.9411    0.6688    1.2389 H   0  0  0  0  0  0  0  0  0  0  0  0
   11.5344   -1.1185    0.8981 H   0  0  0  0  0  0  0  0  0  0  0  0
   11.0919   -2.4431   -0.1932 H   0  0  0  0  0  0  0  0  0  0  0  0
   10.7447   -2.5848    1.5718 H   0  0  0  0  0  0  0  0  0  0  0  0
    8.6074   -3.0509   -0.2459 H   0  0  0  0  0  0  0  0  0  0  0  0
   -2.7545   -0.6942    0.8787 H   0  0  0  0  0  0  0  0  0  0  0  0
  1  2  1  0
  2  3  1  0
  3  4  2  0
  4  5  1  0
  5  6  1  0
  6  7  1  0
  7  8  1  0
  7  9  2  0
  5 10  1  0
 10 11  2  0
 11 12  1  0
 12 13  2  0
 13 14  1  0
 14 15  2  0
 15 16  1  0
 16 17  2  0
 17 18  1  0
 18 19  1  0
 19 20  1  0
 20 21  1  0
 21 22  1  0
 22 23  1  0
 23 24  1  0
 24 25  1  0
 23 26  1  0
 26 27  2  0
 27 28  1  0
 28 29  2  0
 29 30  1  0
 29 31  1  0
 31 32  2  0
 18 33  2  0
 33 34  1  0
 34 35  2  0
 11  3  1  0
 35 12  1  0
 34 15  1  0
 25 20  1  0
 32 26  1  0
  1 36  1  0
  1 37  1  0
  1 38  1  0
  2 39  1  0
  2 40  1  0
  6 41  1  0
  6 42  1  0
  8 43  1  0
  8 44  1  0
 10 45  1  0
 13 46  1  0
 14 47  1  0
 16 48  1  0
 20 49  1  0
 21 50  1  0
 21 51  1  0
 22 52  1  0
 22 53  1  0
 24 54  1  0
 24 55  1  0
 25 56  1  0
 25 57  1  0
 27 58  1  0
 28 59  1  0
 30 60  1  0
 30 61  1  0
 30 62  1  0
 31 63  1  0
 35 64  1  0
M  END
$$$$
[H]c1nc2c([H])c([H])c([H])c([H])c2c(-c2c([H])c([H])c(N3C([H])([H])C([H])([H])N([H])C([H])([H])C3([H])[H])c(-c3c([H])c([H])c(C([H])([H])[H])c([H])c3[H])c2[H])c1[H]
     RDKit          3D

 54 58  0  0  0  0  0  0  0  0999 V2000
   -3.5036    5.0634    0.2040 C   0  0  0  0  0  0  0  0  0  0  0  0
   -2.6728    3.8168    0.2145 C   0  0  0  0  0  0  0  0  0  0  0  0
   -1.8196    3.5177    1.2329 C   0  0  0  0  0  0  0  0  0  0  0  0
   -1.0694    2.3606    1.2104 C   0  0  0  0  0  0  0  0  0  0  0  0
   -1.1492    1.4476    0.1492 C   0  0  0  0  0  0  0  0  0  0  0  0
   -2.0203    1.7912   -0.8523 C   0  0  0  0  0  0  0  0  0  0  0  0
   -2.7794    2.9542   -0.8372 C   0  0  0  0  0  0  0  0  0  0  0  0
   -0.3095    0.2829    0.2021 C   0  0  0  0  0  0  0  0  0  0  0  0
    1.0642    0.4373    0.4255 C   0  0  0  0  0  0  0  0  0  0  0  0
    1.9342   -0.6306    0.4666 C   0  0  0  0  0  0  0  0  0  0  0  0
    1.4329   -1.8974    0.2809 C   0  0  0  0  0  0  0  0  0  0  0  0
    0.0943   -2.0885    0.0600 C   0  0  0  0  0  0  0  0  0  0  0  0
   -0.7764   -0.9816    0.0226 C   0  0  0  0  0  0  0  0  0  0  0  0
   -2.1182   -1.2831   -0.1827 N   0  0  0  0  0  0  0  0  0  0  0  0
   -3.0964   -1.0267    0.8510 C   0  0  0  0  0  0  0  0  0  0  0  0
   -4.4808   -1.0042    0.2333 C   0  0  0  0  0  0  0  0  0  0  0  0
   -4.8102   -2.3026   -0.2923 N   0  0  0  0  0  0  0  0  0  0  0  0
   -3.7269   -2.9079   -1.0315 C   0  0  0  0  0  0  0  0  0  0  0  0
   -2.6612   -1.8861   -1.4072 C   0  0  0  0  0  0  0  0  0  0  0  0
    3.3367   -0.3789    0.7488 C   0  0  0  0  0  0  0  0  0  0  0  0
    3.6688    0.2699    1.9383 C   0  0  0  0  0  0  0  0  0  0  0  0
    4.9687    0.5039    2.2832 C   0  0  0  0  0  0  0  0  0  0  0  0
    5.9216    0.0919    1.4443 N   0  0  0  0  0  0  0  0  0  0  0  0
    5.6597   -0.5403    0.2791 C   0  0  0  0  0  0  0  0  0  0  0  0
    6.7081   -0.9244   -0.5354 C   0  0  0  0  0  0  0  0  0  0  0  0
    6.4505   -1.5541   -1.7193 C   0  0  0  0  0  0  0  0  0  0  0  0
    5.1594   -1.8018   -2.0944 C   0  0  0  0  0  0  0  0  0  0  0  0
    4.0774   -1.4246   -1.2899 C   0  0  0  0  0  0  0  0  0  0  0  0
    4.3387   -0.7920   -0.0982 C   0  0  0  0  0  0  0  0  0  0  0  0
   -3.2612    5.6777   -0.6876 H   0  0  0  0  0  0  0  0  0  0  0  0
   -4.5832    4.7823    0.0808 H   0  0  0  0  0  0  0  0  0  0  0  0
   -3.3533    5.6708    1.0992 H   0  0  0  0  0  0  0  0  0  0  0  0
   -1.7552    4.2278    2.0621 H   0  0  0  0  0  0  0  0  0  0  0  0
   -0.4015    2.1449    2.0268 H   0  0  0  0  0  0  0  0  0  0  0  0
   -2.1242    1.1417   -1.6990 H   0  0  0  0  0  0  0  0  0  0  0  0
   -3.4622    3.2001   -1.6455 H   0  0  0  0  0  0  0  0  0  0  0  0
    1.4215    1.4402    0.5666 H   0  0  0  0  0  0  0  0  0  0  0  0
    2.1167   -2.7374    0.3128 H   0  0  0  0  0  0  0  0  0  0  0  0
   -0.2870   -3.0845   -0.0841 H   0  0  0  0  0  0  0  0  0  0  0  0
   -3.1034   -1.9563    1.4976 H   0  0  0  0  0  0  0  0  0  0  0  0
   -2.9179   -0.1315    1.4359 H   0  0  0  0  0  0  0  0  0  0  0  0
   -5.1874   -0.8003    1.0822 H   0  0  0  0  0  0  0  0  0  0  0  0
   -4.5957   -0.2589   -0.5564 H   0  0  0  0  0  0  0  0  0  0  0  0
   -5.0515   -2.9763    0.4926 H   0  0  0  0  0  0  0  0  0  0  0  0
   -3.2395   -3.7035   -0.4611 H   0  0  0  0  0  0  0  0  0  0  0  0
   -4.1441   -3.3095   -1.9628 H   0  0  0  0  0  0  0  0  0  0  0  0
   -1.8952   -2.4249   -1.9774 H   0  0  0  0  0  0  0  0  0  0  0  0
   -3.0891   -1.1015   -2.0347 H   0  0  0  0  0  0  0  0  0  0  0  0
    2.8848    0.5871    2.5874 H   0  0  0  0  0  0  0  0  0  0  0  0
    5.2099    1.0137    3.2196 H   0  0  0  0  0  0  0  0  0  0  0  0
    7.7372   -0.7256   -0.2345 H   0  0  0  0  0  0  0  0  0  0  0  0
    7.2510   -1.8710   -2.3858 H   0  0  0  0  0  0  0  0  0  0  0  0
    4.9370   -2.3028   -3.0359 H   0  0  0  0  0  0  0  0  0  0  0  0
    3.0723   -1.6145   -1.6047 H   0  0  0  0  0  0  0  0  0  0  0  0
  1  2  1  0
  2  3  2  0
  3  4  1  0
  4  5  2  0
  5  6  1  0
  6  7  2  0
  5  8  1  0
  8  9  2  0
  9 10  1  0
 10 11  2  0
 11 12  1  0
 12 13  2  0
 13 14  1  0
 14 15  1  0
 15 16  1  0
 16 17  1  0
 17 18  1  0
 18 19  1  0
 10 20  1  0
 20 21  2  0
 21 22  1  0
 22 23  2  0
 23 24  1  0
 24 25  2  0
 25 26  1  0
 26 27  2  0
 27 28  1  0
 28 29  2  0
  7  2  1  0
 13  8  1  0
 19 14  1  0
 29 20  1  0
 29 24  1  0
  1 30  1  0
  1 31  1  0
  1 32  1  0
  3 33  1  0
  4 34  1  0
  6 35  1  0
  7 36  1  0
  9 37  1  0
 11 38  1  0
 12 39  1  0
 15 40  1  0
 15 41  1  0
 16 42  1  0
 16 43  1  0
 17 44  1  0
 18 45  1  0
 18 46  1  0
 19 47  1  0
 19 48  1  0
 21 49  1  0
 22 50  1  0
 25 51  1  0
 26 52  1  0
 27 53  1  0
 28 54  1  0
M  END
$$$$
[H]N=C(N([H])[H])N([H])C([H])([H])C([H])([H])C([H])([H])[C@@]([H])(C(=O)N([H])[C@]([H])(C(=O)N([H])[C@]([H])(C(=O)N([H])[C@@]([H])(C([H])([H])C([H])([H])C([H])([H])C([H])([H])[H])C(C([H])([H])[H])(C([H])([H])[H])C([H])([H])[H])C([H])([H])[H])C([H])([H])c1c([H])c([H])c([H])c([H])c1[H])N([H])C(=O)[C@@]([H])(N([H])C(=O)OC(=O)C([H])([H])[H])C([H])([H])c1c([H])c([H])c([H])c([H])c1[H]
     RDKit          3D

112113  0  0  0  0  0  0  0  0999 V2000
    9.1428   -3.0825   -1.4151 C   0  0  0  0  0  0  0  0  0  0  0  0
    7.8175   -2.4913   -1.8392 C   0  0  0  0  0  0  0  0  0  0  0  0
    7.3128   -1.5357   -0.7720 C   0  0  0  0  0  0  0  0  0  0  0  0
    8.3180   -0.3939   -0.5655 C   0  0  0  0  0  0  0  0  0  0  0  0
    7.7938    0.5439    0.5270 C   0  0  2  0  0  0  0  0  0  0  0  0
    6.5342    1.1373    0.2167 N   0  0  0  0  0  0  0  0  0  0  0  0
    5.2853    0.6698    0.6996 C   0  0  0  0  0  0  0  0  0  0  0  0
    5.2783   -0.3333    1.4382 O   0  0  0  0  0  0  0  0  0  0  0  0
    3.9969    1.3046    0.3749 C   0  0  2  0  0  0  0  0  0  0  0  0
    3.6933    2.2292    1.5875 C   0  0  0  0  0  0  0  0  0  0  0  0
    2.8825    0.3556    0.4095 N   0  0  0  0  0  0  0  0  0  0  0  0
    1.7513    0.4917   -0.4239 C   0  0  0  0  0  0  0  0  0  0  0  0
    1.7060    1.4659   -1.2067 O   0  0  0  0  0  0  0  0  0  0  0  0
    0.6660   -0.4891   -0.3599 C   0  0  2  0  0  0  0  0  0  0  0  0
    0.8200   -1.5891   -1.3898 C   0  0  0  0  0  0  0  0  0  0  0  0
    0.8272   -1.1283   -2.7795 C   0  0  0  0  0  0  0  0  0  0  0  0
   -0.3250   -1.0430   -3.5537 C   0  0  0  0  0  0  0  0  0  0  0  0
   -0.2567   -0.6059   -4.8423 C   0  0  0  0  0  0  0  0  0  0  0  0
    0.9568   -0.2469   -5.3774 C   0  0  0  0  0  0  0  0  0  0  0  0
    2.1396   -0.3133   -4.6460 C   0  0  0  0  0  0  0  0  0  0  0  0
    2.0163   -0.7609   -3.3525 C   0  0  0  0  0  0  0  0  0  0  0  0
   -0.6391    0.1616   -0.4877 N   0  0  0  0  0  0  0  0  0  0  0  0
   -1.6624   -0.0694    0.4417 C   0  0  0  0  0  0  0  0  0  0  0  0
   -1.4735   -0.8756    1.4155 O   0  0  0  0  0  0  0  0  0  0  0  0
   -2.9989    0.5495    0.4126 C   0  0  2  0  0  0  0  0  0  0  0  0
   -3.0355    1.8217    1.2568 C   0  0  0  0  0  0  0  0  0  0  0  0
   -2.0996    2.8842    0.7844 C   0  0  0  0  0  0  0  0  0  0  0  0
   -2.4251    3.3752   -0.6036 C   0  0  0  0  0  0  0  0  0  0  0  0
   -3.7748    3.9483   -0.6443 N   0  0  0  0  0  0  0  0  0  0  0  0
   -4.0660    5.1336    0.0376 C   0  0  0  0  0  0  0  0  0  0  0  0
   -3.1123    6.2055    0.1352 N   0  0  0  0  0  0  0  0  0  0  0  0
   -5.1978    5.3081    0.6105 N   0  0  0  0  0  0  0  0  0  0  0  0
   -4.0013   -0.3912    0.9082 N   0  0  0  0  0  0  0  0  0  0  0  0
   -5.2493   -0.5633    0.2755 C   0  0  0  0  0  0  0  0  0  0  0  0
   -5.4782    0.1620   -0.7522 O   0  0  0  0  0  0  0  0  0  0  0  0
   -6.2815   -1.5327    0.7487 C   0  0  2  0  0  0  0  0  0  0  0  0
   -6.1631   -2.8341   -0.0249 C   0  0  0  0  0  0  0  0  0  0  0  0
   -7.1336   -3.8554    0.3483 C   0  0  0  0  0  0  0  0  0  0  0  0
   -6.8853   -4.7696    1.3458 C   0  0  0  0  0  0  0  0  0  0  0  0
   -7.8175   -5.7422    1.6695 C   0  0  0  0  0  0  0  0  0  0  0  0
   -9.0409   -5.8261    0.9931 C   0  0  0  0  0  0  0  0  0  0  0  0
   -9.2891   -4.9126   -0.0046 C   0  0  0  0  0  0  0  0  0  0  0  0
   -8.3548   -3.9518   -0.3151 C   0  0  0  0  0  0  0  0  0  0  0  0
   -7.5941   -0.9332    0.5896 N   0  0  0  0  0  0  0  0  0  0  0  0
   -8.4163   -0.7113    1.7411 C   0  0  0  0  0  0  0  0  0  0  0  0
   -7.9778   -1.0548    2.8943 O   0  0  0  0  0  0  0  0  0  0  0  0
   -9.6719   -0.1457    1.7270 O   0  0  0  0  0  0  0  0  0  0  0  0
  -10.3988    0.0303    2.9064 C   0  0  0  0  0  0  0  0  0  0  0  0
  -11.7570    0.6598    2.8585 C   0  0  0  0  0  0  0  0  0  0  0  0
   -9.8926   -0.3422    3.9745 O   0  0  0  0  0  0  0  0  0  0  0  0
    8.8859    1.4401    0.9563 C   0  0  0  0  0  0  0  0  0  0  0  0
    9.4288    2.2885   -0.2049 C   0  0  0  0  0  0  0  0  0  0  0  0
   10.0459    0.6063    1.4527 C   0  0  0  0  0  0  0  0  0  0  0  0
    8.4970    2.3806    2.0782 C   0  0  0  0  0  0  0  0  0  0  0  0
    9.2016   -4.1071   -1.8140 H   0  0  0  0  0  0  0  0  0  0  0  0
    9.9633   -2.4322   -1.7578 H   0  0  0  0  0  0  0  0  0  0  0  0
    9.1533   -3.0856   -0.3091 H   0  0  0  0  0  0  0  0  0  0  0  0
    7.0639   -3.2456   -2.1088 H   0  0  0  0  0  0  0  0  0  0  0  0
    8.0009   -1.8843   -2.7731 H   0  0  0  0  0  0  0  0  0  0  0  0
    7.1769   -2.0764    0.2004 H   0  0  0  0  0  0  0  0  0  0  0  0
    6.3619   -1.1316   -1.1301 H   0  0  0  0  0  0  0  0  0  0  0  0
    9.2794   -0.8374   -0.2324 H   0  0  0  0  0  0  0  0  0  0  0  0
    8.4790    0.0952   -1.5234 H   0  0  0  0  0  0  0  0  0  0  0  0
    7.5795   -0.1799    1.3787 H   0  0  0  0  0  0  0  0  0  0  0  0
    6.5200    1.9749   -0.4084 H   0  0  0  0  0  0  0  0  0  0  0  0
    3.9293    1.8702   -0.5433 H   0  0  0  0  0  0  0  0  0  0  0  0
    4.5854    2.8139    1.8588 H   0  0  0  0  0  0  0  0  0  0  0  0
    2.8755    2.9031    1.3059 H   0  0  0  0  0  0  0  0  0  0  0  0
    3.3858    1.5476    2.3979 H   0  0  0  0  0  0  0  0  0  0  0  0
    2.9308   -0.4400    1.0676 H   0  0  0  0  0  0  0  0  0  0  0  0
    0.6736   -0.9946    0.6159 H   0  0  0  0  0  0  0  0  0  0  0  0
    1.8093   -2.0498   -1.1749 H   0  0  0  0  0  0  0  0  0  0  0  0
    0.0533   -2.3502   -1.1714 H   0  0  0  0  0  0  0  0  0  0  0  0
   -1.2552   -1.3373   -3.0753 H   0  0  0  0  0  0  0  0  0  0  0  0
   -1.1826   -0.5550   -5.4230 H   0  0  0  0  0  0  0  0  0  0  0  0
    0.9885    0.0968   -6.3984 H   0  0  0  0  0  0  0  0  0  0  0  0
    3.1046   -0.0298   -5.0612 H   0  0  0  0  0  0  0  0  0  0  0  0
    2.9688   -0.8012   -2.7965 H   0  0  0  0  0  0  0  0  0  0  0  0
   -0.7862    0.7913   -1.2861 H   0  0  0  0  0  0  0  0  0  0  0  0
   -3.2956    0.8733   -0.5997 H   0  0  0  0  0  0  0  0  0  0  0  0
   -2.8342    1.5408    2.3105 H   0  0  0  0  0  0  0  0  0  0  0  0
   -4.0721    2.2089    1.1908 H   0  0  0  0  0  0  0  0  0  0  0  0
   -1.0385    2.5290    0.7417 H   0  0  0  0  0  0  0  0  0  0  0  0
   -2.1793    3.7255    1.5218 H   0  0  0  0  0  0  0  0  0  0  0  0
   -2.3575    2.5298   -1.2997 H   0  0  0  0  0  0  0  0  0  0  0  0
   -1.7532    4.1984   -0.9229 H   0  0  0  0  0  0  0  0  0  0  0  0
   -4.4924    3.4529   -1.1858 H   0  0  0  0  0  0  0  0  0  0  0  0
   -3.0866    6.8628    0.9296 H   0  0  0  0  0  0  0  0  0  0  0  0
   -2.4265    6.3097   -0.6349 H   0  0  0  0  0  0  0  0  0  0  0  0
   -5.9493    4.6016    0.6036 H   0  0  0  0  0  0  0  0  0  0  0  0
   -3.7684   -0.9356    1.7516 H   0  0  0  0  0  0  0  0  0  0  0  0
   -6.1118   -1.7150    1.8146 H   0  0  0  0  0  0  0  0  0  0  0  0
   -6.2359   -2.5528   -1.1168 H   0  0  0  0  0  0  0  0  0  0  0  0
   -5.1246   -3.2305    0.1419 H   0  0  0  0  0  0  0  0  0  0  0  0
   -5.9557   -4.7787    1.9253 H   0  0  0  0  0  0  0  0  0  0  0  0
   -7.6001   -6.4521    2.4585 H   0  0  0  0  0  0  0  0  0  0  0  0
   -9.7840   -6.5596    1.2115 H   0  0  0  0  0  0  0  0  0  0  0  0
  -10.2440   -4.9693   -0.5432 H   0  0  0  0  0  0  0  0  0  0  0  0
   -8.6297   -3.2596   -1.1226 H   0  0  0  0  0  0  0  0  0  0  0  0
   -7.9647   -0.6601   -0.3332 H   0  0  0  0  0  0  0  0  0  0  0  0
  -12.4897   -0.1337    3.0731 H   0  0  0  0  0  0  0  0  0  0  0  0
  -11.7942    1.3636    3.7267 H   0  0  0  0  0  0  0  0  0  0  0  0
  -11.9338    1.2216    1.9328 H   0  0  0  0  0  0  0  0  0  0  0  0
    9.6513    3.3213    0.1518 H   0  0  0  0  0  0  0  0  0  0  0  0
   10.3633    1.8804   -0.6219 H   0  0  0  0  0  0  0  0  0  0  0  0
    8.6847    2.2760   -1.0325 H   0  0  0  0  0  0  0  0  0  0  0  0
   10.6136    1.1493    2.2603 H   0  0  0  0  0  0  0  0  0  0  0  0
    9.6380   -0.3109    1.9495 H   0  0  0  0  0  0  0  0  0  0  0  0
   10.7340    0.2901    0.6476 H   0  0  0  0  0  0  0  0  0  0  0  0
    7.4824    2.8038    1.8673 H   0  0  0  0  0  0  0  0  0  0  0  0
    8.5914    1.9601    3.0796 H   0  0  0  0  0  0  0  0  0  0  0  0
    9.1759    3.2751    2.0306 H   0  0  0  0  0  0  0  0  0  0  0  0
  1  2  1  0
  2  3  1  0
  3  4  1  0
  4  5  1  0
  5  6  1  0
  6  7  1  0
  7  8  2  0
  7  9  1  0
  9 10  1  0
  9 11  1  0
 11 12  1  0
 12 13  2  0
 12 14  1  0
 14 15  1  0
 15 16  1  0
 16 17  2  0
 17 18  1  0
 18 19  2  0
 19 20  1  0
 20 21  2  0
 14 22  1  0
 22 23  1  0
 23 24  2  0
 23 25  1  0
 25 26  1  0
 26 27  1  0
 27 28  1  0
 28 29  1  0
 29 30  1  0
 30 31  1  0
 30 32  2  3
 25 33  1  0
 33 34  1  0
 34 35  2  0
 34 36  1  0
 36 37  1  0
 37 38  1  0
 38 39  2  0
 39 40  1  0
 40 41  2  0
 41 42  1  0
 42 43  2  0
 36 44  1  0
 44 45  1  0
 45 46  2  0
 45 47  1  0
 47 48  1  0
 48 49  1  0
 48 50  2  0
  5 51  1  0
 51 52  1  0
 51 53  1  0
 51 54  1  0
 21 16  1  0
 43 38  1  0
  1 55  1  0
  1 56  1  0
  1 57  1  0
  2 58  1  0
  2 59  1  0
  3 60  1  0
  3 61  1  0
  4 62  1  0
  4 63  1  0
  5 64  1  1
  6 65  1  0
  9 66  1  6
 10 67  1  0
 10 68  1  0
 10 69  1  0
 11 70  1  0
 14 71  1  1
 15 72  1  0
 15 73  1  0
 17 74  1  0
 18 75  1  0
 19 76  1  0
 20 77  1  0
 21 78  1  0
 22 79  1  0
 25 80  1  6
 26 81  1  0
 26 82  1  0
 27 83  1  0
 27 84  1  0
 28 85  1  0
 28 86  1  0
 29 87  1  0
 31 88  1  0
 31 89  1  0
 32 90  1  0
 33 91  1  0
 36 92  1  1
 37 93  1  0
 37 94  1  0
 39 95  1  0
 40 96  1  0
 41 97  1  0
 42 98  1  0
 43 99  1  0
 44100  1  0
 49101  1  0
 49102  1  0
 49103  1  0
 52104  1  0
 52105  1  0
 52106  1  0
 53107  1  0
 53108  1  0
 53109  1  0
 54110  1  0
 54111  1  0
 54112  1  0
M  END
$$$$
