[H]O[C@]([H])(C([H])([H])[H])[C@]([H])(C(=O)N([H])[C@]([H])(C(=O)N1C([H])([H])C([H])([H])C([H])([H])[C@@]1([H])C(=O)N([H])[C@]([H])(C(=O)c1nc2c([H])c([H])c([H])c([H])c2s1)C([H])([H])C([H])([H])C([H])([H])N=C(N([H])[H])N([H])[H])C([H])([H])c1c([H])c([H])c([H])c([H])c1[H])N([H])[H]
     RDKit          3D

 85 88  0  0  0  0  0  0  0  0999 V2000
    5.1240    3.1323   -3.9680 C   0  0  0  0  0  0  0  0  0  0  0  0
    4.4021    2.0956   -3.1480 C   0  0  1  0  0  0  0  0  0  0  0  0
    4.5932    0.8597   -3.7579 O   0  0  0  0  0  0  0  0  0  0  0  0
    4.9055    2.0992   -1.7009 C   0  0  1  0  0  0  0  0  0  0  0  0
    4.6405    3.4346   -1.2188 N   0  0  0  0  0  0  0  0  0  0  0  0
    4.1589    1.0604   -0.9143 C   0  0  0  0  0  0  0  0  0  0  0  0
    3.3550    1.5286   -0.0674 O   0  0  0  0  0  0  0  0  0  0  0  0
    4.3489   -0.3120   -1.1123 N   0  0  0  0  0  0  0  0  0  0  0  0
    3.6735   -1.3902   -0.4171 C   0  0  1  0  0  0  0  0  0  0  0  0
    4.0311   -1.3737    1.0371 C   0  0  0  0  0  0  0  0  0  0  0  0
    5.4829   -1.5766    1.3042 C   0  0  0  0  0  0  0  0  0  0  0  0
    6.3785   -0.5446    1.4619 C   0  0  0  0  0  0  0  0  0  0  0  0
    7.7229   -0.7857    1.7027 C   0  0  0  0  0  0  0  0  0  0  0  0
    8.2051   -2.0676    1.7922 C   0  0  0  0  0  0  0  0  0  0  0  0
    7.3379   -3.1199    1.6402 C   0  0  0  0  0  0  0  0  0  0  0  0
    6.0145   -2.8593    1.4019 C   0  0  0  0  0  0  0  0  0  0  0  0
    2.2110   -1.4083   -0.6917 C   0  0  0  0  0  0  0  0  0  0  0  0
    1.8010   -0.3870   -1.3386 O   0  0  0  0  0  0  0  0  0  0  0  0
    1.3280   -2.4446   -0.2890 N   0  0  0  0  0  0  0  0  0  0  0  0
    1.7862   -3.7078    0.3293 C   0  0  0  0  0  0  0  0  0  0  0  0
    0.9014   -3.7830    1.5421 C   0  0  0  0  0  0  0  0  0  0  0  0
   -0.4485   -3.4856    0.8843 C   0  0  0  0  0  0  0  0  0  0  0  0
   -0.0914   -2.6053   -0.3346 C   0  0  1  0  0  0  0  0  0  0  0  0
   -0.9266   -1.4167   -0.1913 C   0  0  0  0  0  0  0  0  0  0  0  0
   -0.4431   -0.2987    0.0890 O   0  0  0  0  0  0  0  0  0  0  0  0
   -2.3221   -1.5726   -0.3836 N   0  0  0  0  0  0  0  0  0  0  0  0
   -3.2788   -0.4453   -0.2919 C   0  0  1  0  0  0  0  0  0  0  0  0
   -4.1095   -0.4364   -1.5064 C   0  0  0  0  0  0  0  0  0  0  0  0
   -5.1909    0.5381   -1.6908 C   0  0  0  0  0  0  0  0  0  0  0  0
   -6.4150    0.4178   -0.8325 C   0  0  0  0  0  0  0  0  0  0  0  0
   -7.0400   -0.8924   -1.0244 N   0  0  0  0  0  0  0  0  0  0  0  0
   -8.2003   -1.0676   -1.5182 C   0  0  0  0  0  0  0  0  0  0  0  0
   -8.6825   -2.3963   -1.6474 N   0  0  0  0  0  0  0  0  0  0  0  0
   -9.0544   -0.0169   -1.9515 N   0  0  0  0  0  0  0  0  0  0  0  0
   -3.9200   -0.3877    0.9933 C   0  0  0  0  0  0  0  0  0  0  0  0
   -4.4083   -1.3753    1.5503 O   0  0  0  0  0  0  0  0  0  0  0  0
   -3.9990    0.9087    1.7151 C   0  0  0  0  0  0  0  0  0  0  0  0
   -3.5506    2.0828    1.3104 N   0  0  0  0  0  0  0  0  0  0  0  0
   -3.7021    3.1357    2.0596 C   0  0  0  0  0  0  0  0  0  0  0  0
   -3.2743    4.4420    1.7402 C   0  0  0  0  0  0  0  0  0  0  0  0
   -3.5026    5.4489    2.6115 C   0  0  0  0  0  0  0  0  0  0  0  0
   -4.1387    5.3211    3.8316 C   0  0  0  0  0  0  0  0  0  0  0  0
   -4.5569    4.0440    4.1472 C   0  0  0  0  0  0  0  0  0  0  0  0
   -4.3355    2.9739    3.2634 C   0  0  0  0  0  0  0  0  0  0  0  0
   -4.6748    1.2927    3.2370 S   0  0  0  0  0  0  0  0  0  0  0  0
    5.6066    3.9104   -3.3535 H   0  0  0  0  0  0  0  0  0  0  0  0
    4.3834    3.6275   -4.6323 H   0  0  0  0  0  0  0  0  0  0  0  0
    5.8894    2.7100   -4.6553 H   0  0  0  0  0  0  0  0  0  0  0  0
    3.3166    2.3761   -3.1271 H   0  0  0  0  0  0  0  0  0  0  0  0
    5.3034    0.9170   -4.4205 H   0  0  0  0  0  0  0  0  0  0  0  0
    5.9885    1.9181   -1.7152 H   0  0  0  0  0  0  0  0  0  0  0  0
    3.8555    3.4373   -0.5471 H   0  0  0  0  0  0  0  0  0  0  0  0
    5.4883    3.8828   -0.7901 H   0  0  0  0  0  0  0  0  0  0  0  0
    5.0690   -0.5690   -1.8478 H   0  0  0  0  0  0  0  0  0  0  0  0
    4.0435   -2.3461   -0.9022 H   0  0  0  0  0  0  0  0  0  0  0  0
    3.3946   -1.9396    1.7173 H   0  0  0  0  0  0  0  0  0  0  0  0
    3.8618   -0.2934    1.3901 H   0  0  0  0  0  0  0  0  0  0  0  0
    6.0868    0.4743    1.4189 H   0  0  0  0  0  0  0  0  0  0  0  0
    8.4303    0.0245    1.8235 H   0  0  0  0  0  0  0  0  0  0  0  0
    9.2465   -2.2930    1.9798 H   0  0  0  0  0  0  0  0  0  0  0  0
    7.7001   -4.1401    1.7107 H   0  0  0  0  0  0  0  0  0  0  0  0
    5.3422   -3.6809    1.2858 H   0  0  0  0  0  0  0  0  0  0  0  0
    2.8378   -3.7601    0.5333 H   0  0  0  0  0  0  0  0  0  0  0  0
    1.4347   -4.5625   -0.3303 H   0  0  0  0  0  0  0  0  0  0  0  0
    1.1896   -2.9744    2.2424 H   0  0  0  0  0  0  0  0  0  0  0  0
    0.8944   -4.7914    2.0072 H   0  0  0  0  0  0  0  0  0  0  0  0
   -1.0294   -2.9219    1.6364 H   0  0  0  0  0  0  0  0  0  0  0  0
   -1.0017   -4.3806    0.6112 H   0  0  0  0  0  0  0  0  0  0  0  0
   -0.4019   -3.2278   -1.2131 H   0  0  0  0  0  0  0  0  0  0  0  0
   -2.7199   -2.4871   -0.5942 H   0  0  0  0  0  0  0  0  0  0  0  0
   -2.5649    0.4560   -0.3908 H   0  0  0  0  0  0  0  0  0  0  0  0
   -3.4502   -0.4927   -2.4459 H   0  0  0  0  0  0  0  0  0  0  0  0
   -4.6497   -1.4718   -1.5191 H   0  0  0  0  0  0  0  0  0  0  0  0
   -5.5728    0.5581   -2.7562 H   0  0  0  0  0  0  0  0  0  0  0  0
   -4.8130    1.6011   -1.4774 H   0  0  0  0  0  0  0  0  0  0  0  0
   -7.1956    1.1618   -1.1902 H   0  0  0  0  0  0  0  0  0  0  0  0
   -6.3334    0.5792    0.2177 H   0  0  0  0  0  0  0  0  0  0  0  0
   -8.1304   -3.0654   -2.2047 H   0  0  0  0  0  0  0  0  0  0  0  0
   -9.5665   -2.6979   -1.1987 H   0  0  0  0  0  0  0  0  0  0  0  0
   -9.9835    0.1461   -1.5192 H   0  0  0  0  0  0  0  0  0  0  0  0
   -8.7584    0.6172   -2.7197 H   0  0  0  0  0  0  0  0  0  0  0  0
   -2.7636    4.6543    0.8089 H   0  0  0  0  0  0  0  0  0  0  0  0
   -3.1774    6.4749    2.3856 H   0  0  0  0  0  0  0  0  0  0  0  0
   -4.3233    6.1130    4.5154 H   0  0  0  0  0  0  0  0  0  0  0  0
   -5.0638    3.7969    5.0573 H   0  0  0  0  0  0  0  0  0  0  0  0
  1  2  1  0
  2  3  1  0
  2  4  1  0
  4  5  1  0
  4  6  1  0
  6  7  2  0
  6  8  1  0
  8  9  1  0
  9 10  1  0
 10 11  1  0
 11 12  2  0
 12 13  1  0
 13 14  2  0
 14 15  1  0
 15 16  2  0
  9 17  1  0
 17 18  2  0
 17 19  1  0
 19 20  1  0
 20 21  1  0
 21 22  1  0
 22 23  1  0
 23 24  1  0
 24 25  2  0
 24 26  1  0
 26 27  1  0
 27 28  1  0
 28 29  1  0
 29 30  1  0
 30 31  1  0
 31 32  2  3
 32 33  1  0
 32 34  1  0
 27 35  1  0
 35 36  2  0
 35 37  1  0
 37 38  2  0
 38 39  1  0
 39 40  2  0
 40 41  1  0
 41 42  2  0
 42 43  1  0
 43 44  2  0
 44 45  1  0
 16 11  1  0
 23 19  1  0
 45 37  1  0
 44 39  1  0
  1 46  1  0
  1 47  1  0
  1 48  1  0
  2 49  1  1
  3 50  1  0
  4 51  1  6
  5 52  1  0
  5 53  1  0
  8 54  1  0
  9 55  1  6
 10 56  1  0
 10 57  1  0
 12 58  1  0
 13 59  1  0
 14 60  1  0
 15 61  1  0
 16 62  1  0
 20 63  1  0
 20 64  1  0
 21 65  1  0
 21 66  1  0
 22 67  1  0
 22 68  1  0
 23 69  1  6
 26 70  1  0
 27 71  1  6
 28 72  1  0
 28 73  1  0
 29 74  1  0
 29 75  1  0
 30 76  1  0
 30 77  1  0
 33 78  1  0
 33 79  1  0
 34 80  1  0
 34 81  1  0
 40 82  1  0
 41 83  1  0
 42 84  1  0
 43 85  1  0
M  END
$$$$
[H]OC(=O)[C@@]([H])(N([H])C(=O)[C@@]([H])(S[H])[C@@]([H])(C([H])([H])[H])C([H])([H])C([H])([H])[H])C([H])([H])c1c([H])c([H])c(-c2c([H])c([H])c([H])c([H])c2[H])c([H])c1[H]
     RDKit          3D

 51 52  0  0  0  0  0  0  0  0999 V2000
    7.3160    1.2679   -0.1304 C   0  0  0  0  0  0  0  0  0  0  0  0
    6.5102    0.0156   -0.3554 C   0  0  0  0  0  0  0  0  0  0  0  0
    5.1274    0.1072    0.2335 C   0  0  2  0  0  0  0  0  0  0  0  0
    5.1056    0.3314    1.7077 C   0  0  0  0  0  0  0  0  0  0  0  0
    4.4184   -1.2076   -0.0717 C   0  0  2  0  0  0  0  0  0  0  0  0
    4.3085   -1.4880   -1.8573 S   0  0  0  0  0  0  0  0  0  0  0  0
    3.0025   -1.1548    0.4389 C   0  0  0  0  0  0  0  0  0  0  0  0
    2.6573   -2.0065    1.2641 O   0  0  0  0  0  0  0  0  0  0  0  0
    2.1845   -0.1470   -0.0583 N   0  0  0  0  0  0  0  0  0  0  0  0
    0.7868    0.0575    0.3473 C   0  0  1  0  0  0  0  0  0  0  0  0
   -0.0596   -0.4064   -0.7343 C   0  0  0  0  0  0  0  0  0  0  0  0
   -1.5167   -0.2837   -0.5523 C   0  0  0  0  0  0  0  0  0  0  0  0
   -2.3546   -1.3170   -0.2209 C   0  0  0  0  0  0  0  0  0  0  0  0
   -3.7085   -1.1412   -0.0468 C   0  0  0  0  0  0  0  0  0  0  0  0
   -4.2865    0.0914   -0.1994 C   0  0  0  0  0  0  0  0  0  0  0  0
   -3.4524    1.1420   -0.5343 C   0  0  0  0  0  0  0  0  0  0  0  0
   -2.1213    0.9759   -0.7067 C   0  0  0  0  0  0  0  0  0  0  0  0
   -5.7105    0.2878   -0.0188 C   0  0  0  0  0  0  0  0  0  0  0  0
   -6.4037    1.2560   -0.7326 C   0  0  0  0  0  0  0  0  0  0  0  0
   -7.7580    1.4507   -0.5686 C   0  0  0  0  0  0  0  0  0  0  0  0
   -8.4771    0.6921    0.3100 C   0  0  0  0  0  0  0  0  0  0  0  0
   -7.8062   -0.2823    1.0351 C   0  0  0  0  0  0  0  0  0  0  0  0
   -6.4410   -0.4720    0.8639 C   0  0  0  0  0  0  0  0  0  0  0  0
    0.5135   -0.3991    1.6930 C   0  0  0  0  0  0  0  0  0  0  0  0
   -0.5927   -1.0935    2.0763 O   0  0  0  0  0  0  0  0  0  0  0  0
    1.3634   -0.1485    2.6399 O   0  0  0  0  0  0  0  0  0  0  0  0
    8.3762    1.0745   -0.3978 H   0  0  0  0  0  0  0  0  0  0  0  0
    7.2889    1.6257    0.9111 H   0  0  0  0  0  0  0  0  0  0  0  0
    6.9569    2.0829   -0.7936 H   0  0  0  0  0  0  0  0  0  0  0  0
    7.0627   -0.8389    0.0621 H   0  0  0  0  0  0  0  0  0  0  0  0
    6.3937   -0.1248   -1.4498 H   0  0  0  0  0  0  0  0  0  0  0  0
    4.5502    0.9291   -0.2402 H   0  0  0  0  0  0  0  0  0  0  0  0
    4.2757   -0.2609    2.1441 H   0  0  0  0  0  0  0  0  0  0  0  0
    6.0756    0.0511    2.1681 H   0  0  0  0  0  0  0  0  0  0  0  0
    4.8448    1.4031    1.9434 H   0  0  0  0  0  0  0  0  0  0  0  0
    4.9242   -2.0594    0.4033 H   0  0  0  0  0  0  0  0  0  0  0  0
    3.1366   -0.8654   -2.3227 H   0  0  0  0  0  0  0  0  0  0  0  0
    2.5494    0.5396   -0.7829 H   0  0  0  0  0  0  0  0  0  0  0  0
    0.7424    1.2250    0.4136 H   0  0  0  0  0  0  0  0  0  0  0  0
    0.1818    0.1930   -1.6851 H   0  0  0  0  0  0  0  0  0  0  0  0
    0.1380   -1.4804   -1.0217 H   0  0  0  0  0  0  0  0  0  0  0  0
   -1.9230   -2.3107   -0.1062 H   0  0  0  0  0  0  0  0  0  0  0  0
   -4.2990   -2.0024    0.2128 H   0  0  0  0  0  0  0  0  0  0  0  0
   -3.9282    2.1320   -0.6555 H   0  0  0  0  0  0  0  0  0  0  0  0
   -1.4784    1.8094   -0.9694 H   0  0  0  0  0  0  0  0  0  0  0  0
   -5.8362    1.8589   -1.4300 H   0  0  0  0  0  0  0  0  0  0  0  0
   -8.2751    2.2111   -1.1355 H   0  0  0  0  0  0  0  0  0  0  0  0
   -9.5389    0.7871    0.4908 H   0  0  0  0  0  0  0  0  0  0  0  0
   -8.3607   -0.8944    1.7382 H   0  0  0  0  0  0  0  0  0  0  0  0
   -5.9156   -1.2255    1.4228 H   0  0  0  0  0  0  0  0  0  0  0  0
   -0.5476   -1.9876    2.5432 H   0  0  0  0  0  0  0  0  0  0  0  0
  1  2  1  0
  2  3  1  0
  3  4  1  0
  3  5  1  0
  5  6  1  0
  5  7  1  0
  7  8  2  0
  7  9  1  0
  9 10  1  0
 10 11  1  0
 11 12  1  0
 12 13  2  0
 13 14  1  0
 14 15  2  0
 15 16  1  0
 16 17  2  0
 15 18  1  0
 18 19  2  0
 19 20  1  0
 20 21  2  0
 21 22  1  0
 22 23  2  0
 10 24  1  0
 24 25  1  0
 24 26  2  0
 17 12  1  0
 23 18  1  0
  1 27  1  0
  1 28  1  0
  1 29  1  0
  2 30  1  0
  2 31  1  0
  3 32  1  6
  4 33  1  0
  4 34  1  0
  4 35  1  0
  5 36  1  1
  6 37  1  0
  9 38  1  0
 10 39  1  1
 11 40  1  0
 11 41  1  0
 13 42  1  0
 14 43  1  0
 16 44  1  0
 17 45  1  0
 19 46  1  0
 20 47  1  0
 21 48  1  0
 22 49  1  0
 23 50  1  0
 25 51  1  0
M  END
$$$$
[H]c1c([H])c([H])c(S(=O)(=O)[C@@]2([H])C([H])([H])N(C(=O)C3(C#N)C([H])([H])C3([H])[H])[C@]([H])(C(=O)N([H])[C@]([H])(C(=O)C(=O)N([H])C3([H])C([H])([H])C3([H])[H])C([H])([H])C([H])([H])[H])C2([H])[H])c(Cl)c1[H]
     RDKit          3D

 63 66  0  0  0  0  0  0  0  0999 V2000
    2.2207    1.5175   -2.2688 C   0  0  0  0  0  0  0  0  0  0  0  0
    2.3387    0.0251   -2.2941 C   0  0  0  0  0  0  0  0  0  0  0  0
    2.2543   -0.5918   -0.9138 C   0  0  2  0  0  0  0  0  0  0  0  0
    0.9455   -0.2451   -0.3158 N   0  0  0  0  0  0  0  0  0  0  0  0
    0.0383   -1.2487    0.0583 C   0  0  0  0  0  0  0  0  0  0  0  0
    0.3699   -2.4579   -0.1293 O   0  0  0  0  0  0  0  0  0  0  0  0
   -1.2744   -1.0277    0.6538 C   0  0  2  0  0  0  0  0  0  0  0  0
   -2.3100   -1.5949   -0.3801 C   0  0  0  0  0  0  0  0  0  0  0  0
   -2.3691   -0.4293   -1.2937 C   0  0  2  0  0  0  0  0  0  0  0  0
   -2.5250    0.6999   -0.2711 C   0  0  0  0  0  0  0  0  0  0  0  0
   -1.6757    0.3152    0.8341 N   0  0  0  0  0  0  0  0  0  0  0  0
   -1.3877    1.2475    1.8762 C   0  0  0  0  0  0  0  0  0  0  0  0
   -1.9050    2.4164    1.7179 O   0  0  0  0  0  0  0  0  0  0  0  0
   -0.5956    1.0522    3.0810 C   0  0  0  0  0  0  0  0  0  0  0  0
    0.1255    2.2994    3.6235 C   0  0  0  0  0  0  0  0  0  0  0  0
   -1.1098    1.8826    4.2846 C   0  0  0  0  0  0  0  0  0  0  0  0
    0.0404   -0.2074    3.4266 C   0  0  0  0  0  0  0  0  0  0  0  0
    0.5593   -1.2056    3.7356 N   0  0  0  0  0  0  0  0  0  0  0  0
   -3.6148   -0.3725   -2.5008 S   0  0  0  0  0  0  0  0  0  0  0  0
   -3.2751   -1.3476   -3.6177 O   0  0  0  0  0  0  0  0  0  0  0  0
   -3.6215    0.9885   -3.1874 O   0  0  0  0  0  0  0  0  0  0  0  0
   -5.2177   -0.7559   -1.9756 C   0  0  0  0  0  0  0  0  0  0  0  0
   -6.0976    0.3107   -1.7730 C   0  0  0  0  0  0  0  0  0  0  0  0
   -7.3634    0.1180   -1.3003 C   0  0  0  0  0  0  0  0  0  0  0  0
   -7.7916   -1.1573   -1.0135 C   0  0  0  0  0  0  0  0  0  0  0  0
   -6.9458   -2.2092   -1.2070 C   0  0  0  0  0  0  0  0  0  0  0  0
   -5.6620   -2.0225   -1.6868 C   0  0  0  0  0  0  0  0  0  0  0  0
   -4.6255   -3.4105   -2.0020 Cl  0  0  0  0  0  0  0  0  0  0  0  0
    3.3371   -0.1322   -0.0252 C   0  0  0  0  0  0  0  0  0  0  0  0
    3.0430    0.4981    1.0178 O   0  0  0  0  0  0  0  0  0  0  0  0
    4.7216   -0.3998   -0.3408 C   0  0  0  0  0  0  0  0  0  0  0  0
    5.1036   -1.0351   -1.3625 O   0  0  0  0  0  0  0  0  0  0  0  0
    5.7665    0.0615    0.5260 N   0  0  0  0  0  0  0  0  0  0  0  0
    7.1631   -0.1772    0.2584 C   0  0  0  0  0  0  0  0  0  0  0  0
    8.0078   -0.4560    1.4913 C   0  0  0  0  0  0  0  0  0  0  0  0
    8.1078    0.8628    0.7644 C   0  0  0  0  0  0  0  0  0  0  0  0
    2.5282    1.8914   -3.2656 H   0  0  0  0  0  0  0  0  0  0  0  0
    2.9208    1.8878   -1.4778 H   0  0  0  0  0  0  0  0  0  0  0  0
    1.1702    1.8270   -2.0792 H   0  0  0  0  0  0  0  0  0  0  0  0
    1.5249   -0.4476   -2.8906 H   0  0  0  0  0  0  0  0  0  0  0  0
    3.2985   -0.2584   -2.7385 H   0  0  0  0  0  0  0  0  0  0  0  0
    2.3363   -1.6830   -1.0116 H   0  0  0  0  0  0  0  0  0  0  0  0
    0.8090    0.7819   -0.2209 H   0  0  0  0  0  0  0  0  0  0  0  0
   -1.4507   -1.6178    1.5558 H   0  0  0  0  0  0  0  0  0  0  0  0
   -3.2458   -1.7665    0.1450 H   0  0  0  0  0  0  0  0  0  0  0  0
   -1.8948   -2.4795   -0.8390 H   0  0  0  0  0  0  0  0  0  0  0  0
   -1.3562   -0.2276   -1.7405 H   0  0  0  0  0  0  0  0  0  0  0  0
   -3.5713    0.6671    0.0914 H   0  0  0  0  0  0  0  0  0  0  0  0
   -2.2522    1.6745   -0.7152 H   0  0  0  0  0  0  0  0  0  0  0  0
    1.1183    2.1109    4.0782 H   0  0  0  0  0  0  0  0  0  0  0  0
    0.1630    3.1488    2.9025 H   0  0  0  0  0  0  0  0  0  0  0  0
   -0.9984    1.3817    5.2831 H   0  0  0  0  0  0  0  0  0  0  0  0
   -2.0015    2.5137    4.1360 H   0  0  0  0  0  0  0  0  0  0  0  0
   -5.7675    1.3348   -1.9983 H   0  0  0  0  0  0  0  0  0  0  0  0
   -8.0390    0.9651   -1.1469 H   0  0  0  0  0  0  0  0  0  0  0  0
   -8.8059   -1.2915   -0.6353 H   0  0  0  0  0  0  0  0  0  0  0  0
   -7.2460   -3.2395   -0.9911 H   0  0  0  0  0  0  0  0  0  0  0  0
    5.4822    0.5849    1.3707 H   0  0  0  0  0  0  0  0  0  0  0  0
    7.4120   -0.7199   -0.6705 H   0  0  0  0  0  0  0  0  0  0  0  0
    8.8512   -1.1695    1.3404 H   0  0  0  0  0  0  0  0  0  0  0  0
    7.4986   -0.5007    2.4611 H   0  0  0  0  0  0  0  0  0  0  0  0
    9.0305    1.1041    0.2042 H   0  0  0  0  0  0  0  0  0  0  0  0
    7.7104    1.7167    1.3621 H   0  0  0  0  0  0  0  0  0  0  0  0
  1  2  1  0
  2  3  1  0
  3  4  1  0
  4  5  1  0
  5  6  2  0
  5  7  1  0
  7  8  1  0
  8  9  1  0
  9 10  1  0
 10 11  1  0
 11 12  1  0
 12 13  2  0
 12 14  1  0
 14 15  1  0
 15 16  1  0
 14 17  1  0
 17 18  3  0
  9 19  1  0
 19 20  2  0
 19 21  2  0
 19 22  1  0
 22 23  2  0
 23 24  1  0
 24 25  2  0
 25 26  1  0
 26 27  2  0
 27 28  1  0
  3 29  1  0
 29 30  2  0
 29 31  1  0
 31 32  2  0
 31 33  1  0
 33 34  1  0
 34 35  1  0
 35 36  1  0
 11  7  1  0
 16 14  1  0
 27 22  1  0
 36 34  1  0
  1 37  1  0
  1 38  1  0
  1 39  1  0
  2 40  1  0
  2 41  1  0
  3 42  1  6
  4 43  1  0
  7 44  1  1
  8 45  1  0
  8 46  1  0
  9 47  1  6
 10 48  1  0
 10 49  1  0
 15 50  1  0
 15 51  1  0
 16 52  1  0
 16 53  1  0
 23 54  1  0
 24 55  1  0
 25 56  1  0
 26 57  1  0
 33 58  1  0
 34 59  1  0
 35 60  1  0
 35 61  1  0
 36 62  1  0
 36 63  1  0
M  END
$$$$
[H]c1c(C#N)c([H])c2c(c1[H])c(C1=C(c3c([H])n(C([H])([H])[H])c4c([H])c([H])c(Cl)c([H])c34)C(=O)N([H])C1=O)c([H])n2C([H])([H])[H]
     RDKit          3D

 45 49  0  0  0  0  0  0  0  0999 V2000
   -2.7421   -2.0226   -1.8543 C   0  0  0  0  0  0  0  0  0  0  0  0
   -2.4050   -0.8697   -1.0155 N   0  0  0  0  0  0  0  0  0  0  0  0
   -1.5398    0.0957   -1.3183 C   0  0  0  0  0  0  0  0  0  0  0  0
   -1.4843    1.0150   -0.2821 C   0  0  0  0  0  0  0  0  0  0  0  0
   -0.6491    2.1949   -0.2269 C   0  0  0  0  0  0  0  0  0  0  0  0
    0.6596    2.2021   -0.4558 C   0  0  0  0  0  0  0  0  0  0  0  0
    1.0868    3.6199   -0.2980 C   0  0  0  0  0  0  0  0  0  0  0  0
    2.2551    4.0575   -0.4295 O   0  0  0  0  0  0  0  0  0  0  0  0
   -0.0277    4.4311    0.0284 N   0  0  0  0  0  0  0  0  0  0  0  0
   -1.1329    3.5370    0.0747 C   0  0  0  0  0  0  0  0  0  0  0  0
   -2.3105    3.8819    0.3321 O   0  0  0  0  0  0  0  0  0  0  0  0
    1.5590    1.1089   -0.7533 C   0  0  0  0  0  0  0  0  0  0  0  0
    2.4021    0.9849   -1.8414 C   0  0  0  0  0  0  0  0  0  0  0  0
    3.1101   -0.1387   -1.7578 N   0  0  0  0  0  0  0  0  0  0  0  0
    4.1022   -0.5821   -2.7493 C   0  0  0  0  0  0  0  0  0  0  0  0
    2.7606   -0.7765   -0.6304 C   0  0  0  0  0  0  0  0  0  0  0  0
    3.2419   -1.9623   -0.1363 C   0  0  0  0  0  0  0  0  0  0  0  0
    2.7371   -2.4338    1.0799 C   0  0  0  0  0  0  0  0  0  0  0  0
    1.7831   -1.7018    1.7382 C   0  0  0  0  0  0  0  0  0  0  0  0
    1.3310   -0.5163    1.2011 C   0  0  0  0  0  0  0  0  0  0  0  0
    1.7918   -0.0065    0.0073 C   0  0  0  0  0  0  0  0  0  0  0  0
    3.2234   -3.6658    1.6125 C   0  0  0  0  0  0  0  0  0  0  0  0
    3.6205   -4.6690    2.0318 N   0  0  0  0  0  0  0  0  0  0  0  0
   -2.3669    0.5450    0.6641 C   0  0  0  0  0  0  0  0  0  0  0  0
   -2.7306    1.0349    1.9243 C   0  0  0  0  0  0  0  0  0  0  0  0
   -3.6550    0.3098    2.6462 C   0  0  0  0  0  0  0  0  0  0  0  0
   -4.0977    0.9506    4.2353 Cl  0  0  0  0  0  0  0  0  0  0  0  0
   -4.2261   -0.8545    2.1913 C   0  0  0  0  0  0  0  0  0  0  0  0
   -3.8600   -1.3242    0.9556 C   0  0  0  0  0  0  0  0  0  0  0  0
   -2.9470   -0.6319    0.2134 C   0  0  0  0  0  0  0  0  0  0  0  0
   -3.8046   -2.2459   -1.7801 H   0  0  0  0  0  0  0  0  0  0  0  0
   -2.1942   -2.9261   -1.4945 H   0  0  0  0  0  0  0  0  0  0  0  0
   -2.4232   -1.8245   -2.8958 H   0  0  0  0  0  0  0  0  0  0  0  0
   -0.9573    0.1792   -2.2194 H   0  0  0  0  0  0  0  0  0  0  0  0
   -0.0308    5.4530    0.1960 H   0  0  0  0  0  0  0  0  0  0  0  0
    2.4490    1.7233   -2.6309 H   0  0  0  0  0  0  0  0  0  0  0  0
    4.9109   -1.1621   -2.2949 H   0  0  0  0  0  0  0  0  0  0  0  0
    3.5753   -1.1232   -3.5802 H   0  0  0  0  0  0  0  0  0  0  0  0
    4.5605    0.3420   -3.1619 H   0  0  0  0  0  0  0  0  0  0  0  0
    3.9936   -2.5536   -0.6403 H   0  0  0  0  0  0  0  0  0  0  0  0
    1.3808   -2.0551    2.6866 H   0  0  0  0  0  0  0  0  0  0  0  0
    0.5851    0.0646    1.7388 H   0  0  0  0  0  0  0  0  0  0  0  0
   -2.3017    1.9384    2.3359 H   0  0  0  0  0  0  0  0  0  0  0  0
   -4.9583   -1.3887    2.8119 H   0  0  0  0  0  0  0  0  0  0  0  0
   -4.2747   -2.2351    0.5442 H   0  0  0  0  0  0  0  0  0  0  0  0
  1  2  1  0
  2  3  1  0
  3  4  2  0
  4  5  1  0
  5  6  2  0
  6  7  1  0
  7  8  2  0
  7  9  1  0
  9 10  1  0
 10 11  2  0
  6 12  1  0
 12 13  2  0
 13 14  1  0
 14 15  1  0
 14 16  1  0
 16 17  2  0
 17 18  1  0
 18 19  2  0
 19 20  1  0
 20 21  2  0
 18 22  1  0
 22 23  3  0
  4 24  1  0
 24 25  2  0
 25 26  1  0
 26 27  1  0
 26 28  2  0
 28 29  1  0
 29 30  2  0
 30  2  1  0
 10  5  1  0
 21 12  1  0
 30 24  1  0
 21 16  1  0
  1 31  1  0
  1 32  1  0
  1 33  1  0
  3 34  1  0
  9 35  1  0
 13 36  1  0
 15 37  1  0
 15 38  1  0
 15 39  1  0
 17 40  1  0
 19 41  1  0
 20 42  1  0
 25 43  1  0
 28 44  1  0
 29 45  1  0
M  END
$$$$
[H]c1c([H])c([H])c(N([H])S(=O)(=O)c2c([H])c([H])c(OC([H])([H])[H])c([H])c2[H])c(-c2c([H])c([H])c([H])c([H])c2C([H])([H])[H])c1[H]
     RDKit          3D

 44 46  0  0  0  0  0  0  0  0999 V2000
    6.9748    0.4392    1.6053 C   0  0  0  0  0  0  0  0  0  0  0  0
    5.9821    1.2084    1.0085 O   0  0  0  0  0  0  0  0  0  0  0  0
    4.8271    0.8329    0.4172 C   0  0  0  0  0  0  0  0  0  0  0  0
    4.4257   -0.4803    0.3196 C   0  0  0  0  0  0  0  0  0  0  0  0
    3.2300   -0.7967   -0.3016 C   0  0  0  0  0  0  0  0  0  0  0  0
    2.4012    0.1510   -0.8396 C   0  0  0  0  0  0  0  0  0  0  0  0
    2.7911    1.4830   -0.7501 C   0  0  0  0  0  0  0  0  0  0  0  0
    3.9842    1.8092   -0.1290 C   0  0  0  0  0  0  0  0  0  0  0  0
    0.8996   -0.2904   -1.6145 S   0  0  0  0  0  0  0  0  0  0  0  0
    0.6553    0.7284   -2.7466 O   0  0  0  0  0  0  0  0  0  0  0  0
    1.0697   -1.6299   -2.2492 O   0  0  0  0  0  0  0  0  0  0  0  0
   -0.4168   -0.2517   -0.5263 N   0  0  0  0  0  0  0  0  0  0  0  0
   -1.2025   -1.3235   -0.1091 C   0  0  0  0  0  0  0  0  0  0  0  0
   -0.8153   -2.6389   -0.1564 C   0  0  0  0  0  0  0  0  0  0  0  0
   -1.7142   -3.6198    0.2500 C   0  0  0  0  0  0  0  0  0  0  0  0
   -2.9871   -3.3633    0.7067 C   0  0  0  0  0  0  0  0  0  0  0  0
   -3.3561   -2.0224    0.7472 C   0  0  0  0  0  0  0  0  0  0  0  0
   -2.5005   -1.0161    0.3542 C   0  0  0  0  0  0  0  0  0  0  0  0
   -2.8841    0.3897    0.4729 C   0  0  0  0  0  0  0  0  0  0  0  0
   -2.4853    1.1840    1.5167 C   0  0  0  0  0  0  0  0  0  0  0  0
   -2.9158    2.4986    1.6693 C   0  0  0  0  0  0  0  0  0  0  0  0
   -3.7793    3.0310    0.7333 C   0  0  0  0  0  0  0  0  0  0  0  0
   -4.1851    2.2387   -0.3166 C   0  0  0  0  0  0  0  0  0  0  0  0
   -3.7607    0.9260   -0.4768 C   0  0  0  0  0  0  0  0  0  0  0  0
   -4.2158    0.1334   -1.6385 C   0  0  0  0  0  0  0  0  0  0  0  0
    6.6551   -0.5783    1.9278 H   0  0  0  0  0  0  0  0  0  0  0  0
    7.7904    0.2630    0.8791 H   0  0  0  0  0  0  0  0  0  0  0  0
    7.4428    0.9960    2.4737 H   0  0  0  0  0  0  0  0  0  0  0  0
    5.0583   -1.2667    0.7452 H   0  0  0  0  0  0  0  0  0  0  0  0
    2.9453   -1.8578   -0.3518 H   0  0  0  0  0  0  0  0  0  0  0  0
    2.1309    2.2109   -1.1790 H   0  0  0  0  0  0  0  0  0  0  0  0
    4.3003    2.8301   -0.0570 H   0  0  0  0  0  0  0  0  0  0  0  0
   -0.6302    0.7232   -0.1330 H   0  0  0  0  0  0  0  0  0  0  0  0
    0.1862   -2.8936   -0.4990 H   0  0  0  0  0  0  0  0  0  0  0  0
   -1.3673   -4.6466    0.1839 H   0  0  0  0  0  0  0  0  0  0  0  0
   -3.6754   -4.1368    1.0087 H   0  0  0  0  0  0  0  0  0  0  0  0
   -4.3574   -1.8045    1.1078 H   0  0  0  0  0  0  0  0  0  0  0  0
   -1.8056    0.7809    2.2610 H   0  0  0  0  0  0  0  0  0  0  0  0
   -2.6108    3.1422    2.4921 H   0  0  0  0  0  0  0  0  0  0  0  0
   -4.1295    4.0714    0.8387 H   0  0  0  0  0  0  0  0  0  0  0  0
   -4.8711    2.7091   -1.0291 H   0  0  0  0  0  0  0  0  0  0  0  0
   -4.4506   -0.8755   -1.3101 H   0  0  0  0  0  0  0  0  0  0  0  0
   -3.4791    0.1642   -2.4755 H   0  0  0  0  0  0  0  0  0  0  0  0
   -5.1547    0.5485   -2.0604 H   0  0  0  0  0  0  0  0  0  0  0  0
  1  2  1  0
  2  3  1  0
  3  4  2  0
  4  5  1  0
  5  6  2  0
  6  7  1  0
  7  8  2  0
  6  9  1  0
  9 10  2  0
  9 11  2  0
  9 12  1  0
 12 13  1  0
 13 14  2  0
 14 15  1  0
 15 16  2  0
 16 17  1  0
 17 18  2  0
 18 19  1  0
 19 20  2  0
 20 21  1  0
 21 22  2  0
 22 23  1  0
 23 24  2  0
 24 25  1  0
  8  3  1  0
 18 13  1  0
 24 19  1  0
  1 26  1  0
  1 27  1  0
  1 28  1  0
  4 29  1  0
  5 30  1  0
  7 31  1  0
  8 32  1  0
 12 33  1  0
 14 34  1  0
 15 35  1  0
 16 36  1  0
 17 37  1  0
 20 38  1  0
 21 39  1  0
 22 40  1  0
 23 41  1  0
 25 42  1  0
 25 43  1  0
 25 44  1  0
M  END
$$$$
[H]c1nc([H])c(C(=O)N(C([H])([H])[H])[C@]2([H])C([H])([H])[C@@]3([H])O[C@](C([H])([H])[H])(n4c5c([H])c([H])c([H])c([H])c5c5c6c(c7c8c([H])c([H])c([H])c([H])c8n3c7c54)C(=O)N([H])C6([H])[H])[C@]2([H])OC([H])([H])[H])c([H])c1[H]
     RDKit          3D

 72 80  0  0  0  0  0  0  0  0999 V2000
    1.2672   -1.8639    1.3837 C   0  0  0  0  0  0  0  0  0  0  0  0
    0.8209   -0.8283    0.5511 O   0  0  0  0  0  0  0  0  0  0  0  0
    1.1728   -0.9666   -0.7567 C   0  0  2  0  0  0  0  0  0  0  0  0
    1.8999    0.2758   -1.2736 C   0  0  1  0  0  0  0  0  0  0  0  0
    1.1131    1.4550   -0.8269 C   0  0  0  0  0  0  0  0  0  0  0  0
   -0.2050    1.3504   -1.5939 C   0  0  1  0  0  0  0  0  0  0  0  0
   -0.3467    0.1983   -2.2696 O   0  0  0  0  0  0  0  0  0  0  0  0
   -0.1154   -1.0048   -1.6085 C   0  0  1  0  0  0  0  0  0  0  0  0
    0.1842   -1.9551   -2.7562 C   0  0  0  0  0  0  0  0  0  0  0  0
   -1.2816   -1.3702   -0.8389 N   0  0  0  0  0  0  0  0  0  0  0  0
   -1.7159   -2.6287   -0.5502 C   0  0  0  0  0  0  0  0  0  0  0  0
   -1.2270   -3.8824   -0.8534 C   0  0  0  0  0  0  0  0  0  0  0  0
   -1.8842   -5.0232   -0.4163 C   0  0  0  0  0  0  0  0  0  0  0  0
   -3.0382   -4.9579    0.3312 C   0  0  0  0  0  0  0  0  0  0  0  0
   -3.5522   -3.6955    0.6524 C   0  0  0  0  0  0  0  0  0  0  0  0
   -2.8822   -2.5800    0.2067 C   0  0  0  0  0  0  0  0  0  0  0  0
   -3.1745   -1.2663    0.3931 C   0  0  0  0  0  0  0  0  0  0  0  0
   -4.1717   -0.5691    1.0570 C   0  0  0  0  0  0  0  0  0  0  0  0
   -5.3074   -1.1690    1.8069 C   0  0  0  0  0  0  0  0  0  0  0  0
   -6.0226   -0.0177    2.2752 N   0  0  0  0  0  0  0  0  0  0  0  0
   -5.3671    1.2022    1.8560 C   0  0  0  0  0  0  0  0  0  0  0  0
   -5.8009    2.3369    2.1503 O   0  0  0  0  0  0  0  0  0  0  0  0
   -4.2121    0.8106    1.0951 C   0  0  0  0  0  0  0  0  0  0  0  0
   -3.2113    1.5244    0.4402 C   0  0  0  0  0  0  0  0  0  0  0  0
   -2.9532    2.8460    0.2778 C   0  0  0  0  0  0  0  0  0  0  0  0
   -3.5588    4.0097    0.6878 C   0  0  0  0  0  0  0  0  0  0  0  0
   -2.9710    5.2135    0.3059 C   0  0  0  0  0  0  0  0  0  0  0  0
   -1.8294    5.2796   -0.4514 C   0  0  0  0  0  0  0  0  0  0  0  0
   -1.2296    4.1221   -0.8574 C   0  0  0  0  0  0  0  0  0  0  0  0
   -1.7989    2.9086   -0.4879 C   0  0  0  0  0  0  0  0  0  0  0  0
   -1.3561    1.6990   -0.7900 N   0  0  0  0  0  0  0  0  0  0  0  0
   -2.2039    0.8253   -0.2312 C   0  0  0  0  0  0  0  0  0  0  0  0
   -2.2095   -0.5509   -0.2379 C   0  0  0  0  0  0  0  0  0  0  0  0
    3.3127    0.3023   -1.0870 N   0  0  0  0  0  0  0  0  0  0  0  0
    4.1135    0.0469   -2.2647 C   0  0  0  0  0  0  0  0  0  0  0  0
    3.8841    0.6107    0.1511 C   0  0  0  0  0  0  0  0  0  0  0  0
    3.0528    0.9808    1.1034 O   0  0  0  0  0  0  0  0  0  0  0  0
    5.2680    0.5980    0.5869 C   0  0  0  0  0  0  0  0  0  0  0  0
    5.5356    1.1931    1.8175 C   0  0  0  0  0  0  0  0  0  0  0  0
    6.7902    1.2080    2.3513 C   0  0  0  0  0  0  0  0  0  0  0  0
    7.7997    0.6080    1.6266 C   0  0  0  0  0  0  0  0  0  0  0  0
    7.5793    0.0344    0.4572 N   0  0  0  0  0  0  0  0  0  0  0  0
    6.3251    0.0258   -0.0634 C   0  0  0  0  0  0  0  0  0  0  0  0
    0.9363   -1.7094    2.4275 H   0  0  0  0  0  0  0  0  0  0  0  0
    0.9367   -2.8196    1.0280 H   0  0  0  0  0  0  0  0  0  0  0  0
    2.3919   -1.8238    1.4442 H   0  0  0  0  0  0  0  0  0  0  0  0
    1.7848   -1.8612   -0.9620 H   0  0  0  0  0  0  0  0  0  0  0  0
    1.7407    0.1819   -2.4343 H   0  0  0  0  0  0  0  0  0  0  0  0
    1.6075    2.4192   -0.9584 H   0  0  0  0  0  0  0  0  0  0  0  0
    0.8354    1.3518    0.2450 H   0  0  0  0  0  0  0  0  0  0  0  0
   -0.1282    2.1686   -2.3714 H   0  0  0  0  0  0  0  0  0  0  0  0
    0.5247   -1.3728   -3.6852 H   0  0  0  0  0  0  0  0  0  0  0  0
    1.0817   -2.5938   -2.5660 H   0  0  0  0  0  0  0  0  0  0  0  0
   -0.6995   -2.4970   -3.1269 H   0  0  0  0  0  0  0  0  0  0  0  0
   -0.3197   -3.9892   -1.4084 H   0  0  0  0  0  0  0  0  0  0  0  0
   -1.4621   -5.9859   -0.6806 H   0  0  0  0  0  0  0  0  0  0  0  0
   -3.5587   -5.8389    0.6769 H   0  0  0  0  0  0  0  0  0  0  0  0
   -4.4491   -3.6156    1.2328 H   0  0  0  0  0  0  0  0  0  0  0  0
   -5.9648   -1.7557    1.1261 H   0  0  0  0  0  0  0  0  0  0  0  0
   -4.9409   -1.7677    2.6689 H   0  0  0  0  0  0  0  0  0  0  0  0
   -6.9071   -0.0361    2.8481 H   0  0  0  0  0  0  0  0  0  0  0  0
   -4.4397    4.0645    1.2735 H   0  0  0  0  0  0  0  0  0  0  0  0
   -3.4457    6.1315    0.6273 H   0  0  0  0  0  0  0  0  0  0  0  0
   -1.3819    6.2215   -0.7419 H   0  0  0  0  0  0  0  0  0  0  0  0
   -0.3304    4.1646   -1.4539 H   0  0  0  0  0  0  0  0  0  0  0  0
    3.4899    0.3109   -3.1982 H   0  0  0  0  0  0  0  0  0  0  0  0
    4.4791   -0.9750   -2.3574 H   0  0  0  0  0  0  0  0  0  0  0  0
    4.9108    0.8102   -2.3045 H   0  0  0  0  0  0  0  0  0  0  0  0
    4.7701    1.6761    2.4126 H   0  0  0  0  0  0  0  0  0  0  0  0
    7.0242    1.6683    3.3140 H   0  0  0  0  0  0  0  0  0  0  0  0
    8.8045    0.6225    2.0580 H   0  0  0  0  0  0  0  0  0  0  0  0
    6.2170   -0.4861   -1.0058 H   0  0  0  0  0  0  0  0  0  0  0  0
  1  2  1  0
  2  3  1  0
  3  4  1  0
  4  5  1  0
  5  6  1  0
  6  7  1  0
  7  8  1  0
  8  9  1  6
  8 10  1  0
 10 11  1  0
 11 12  2  0
 12 13  1  0
 13 14  2  0
 14 15  1  0
 15 16  2  0
 16 17  1  0
 17 18  2  0
 18 19  1  0
 19 20  1  0
 20 21  1  0
 21 22  2  0
 21 23  1  0
 23 24  2  0
 24 25  1  0
 25 26  2  0
 26 27  1  0
 27 28  2  0
 28 29  1  0
 29 30  2  0
 30 31  1  0
 31 32  1  0
 32 33  2  0
  4 34  1  0
 34 35  1  0
 34 36  1  0
 36 37  2  0
 36 38  1  0
 38 39  2  0
 39 40  1  0
 40 41  2  0
 41 42  1  0
 42 43  2  0
  8  3  1  0
 33 10  1  0
 43 38  1  0
 31  6  1  0
 16 11  1  0
 33 17  1  0
 23 18  1  0
 32 24  1  0
 30 25  1  0
  1 44  1  0
  1 45  1  0
  1 46  1  0
  3 47  1  1
  4 48  1  6
  5 49  1  0
  5 50  1  0
  6 51  1  6
  9 52  1  0
  9 53  1  0
  9 54  1  0
 12 55  1  0
 13 56  1  0
 14 57  1  0
 15 58  1  0
 19 59  1  0
 19 60  1  0
 20 61  1  0
 26 62  1  0
 27 63  1  0
 28 64  1  0
 29 65  1  0
 35 66  1  0
 35 67  1  0
 35 68  1  0
 39 69  1  0
 40 70  1  0
 41 71  1  0
 43 72  1  0
M  END
$$$$
[H]c1c([H])c([H])c(C2([H])C(C(=O)OC([H])([H])[H])=C(C([H])([H])[H])N([H])C(C([H])([H])[H])=C2C(=O)OC([H])([H])C([H])([H])[H])c([H])c1[H]
     RDKit          3D

 44 45  0  0  0  0  0  0  0  0999 V2000
    5.1551   -1.3450    1.4145 C   0  0  0  0  0  0  0  0  0  0  0  0
    3.7921   -1.5774    1.1968 O   0  0  0  0  0  0  0  0  0  0  0  0
    2.8350   -0.6312    1.0221 C   0  0  0  0  0  0  0  0  0  0  0  0
    3.2704    0.5811    1.0693 O   0  0  0  0  0  0  0  0  0  0  0  0
    1.3852   -0.8747    0.7906 C   0  0  0  0  0  0  0  0  0  0  0  0
    0.9952   -2.1094    0.7601 C   0  0  0  0  0  0  0  0  0  0  0  0
    1.9277   -3.2882    0.9419 C   0  0  0  0  0  0  0  0  0  0  0  0
   -0.3969   -2.4531    0.5748 N   0  0  0  0  0  0  0  0  0  0  0  0
   -1.2957   -1.3694    0.4261 C   0  0  0  0  0  0  0  0  0  0  0  0
   -2.7699   -1.6602    0.2382 C   0  0  0  0  0  0  0  0  0  0  0  0
   -0.9248   -0.1181    0.4392 C   0  0  0  0  0  0  0  0  0  0  0  0
    0.4856    0.2509    0.6017 C   0  0  0  0  0  0  0  0  0  0  0  0
    0.8731    1.1215   -0.5428 C   0  0  0  0  0  0  0  0  0  0  0  0
    1.3541    2.3860   -0.3286 C   0  0  0  0  0  0  0  0  0  0  0  0
    1.7188    3.2064   -1.3787 C   0  0  0  0  0  0  0  0  0  0  0  0
    1.6003    2.7514   -2.6896 C   0  0  0  0  0  0  0  0  0  0  0  0
    1.1117    1.4683   -2.8969 C   0  0  0  0  0  0  0  0  0  0  0  0
    0.7452    0.6454   -1.8284 C   0  0  0  0  0  0  0  0  0  0  0  0
   -1.9396    0.9761    0.3073 C   0  0  0  0  0  0  0  0  0  0  0  0
   -1.5218    2.1552    0.3359 O   0  0  0  0  0  0  0  0  0  0  0  0
   -3.2605    0.7576    0.1618 O   0  0  0  0  0  0  0  0  0  0  0  0
   -4.2106    1.7957    0.0382 C   0  0  0  0  0  0  0  0  0  0  0  0
   -5.5900    1.1982   -0.1080 C   0  0  0  0  0  0  0  0  0  0  0  0
    5.5668   -2.2711    1.9081 H   0  0  0  0  0  0  0  0  0  0  0  0
    5.7300   -1.2447    0.4707 H   0  0  0  0  0  0  0  0  0  0  0  0
    5.3648   -0.5239    2.1273 H   0  0  0  0  0  0  0  0  0  0  0  0
    2.6438   -3.2605    0.1082 H   0  0  0  0  0  0  0  0  0  0  0  0
    2.4364   -3.3061    1.8906 H   0  0  0  0  0  0  0  0  0  0  0  0
    1.3421   -4.2374    0.7703 H   0  0  0  0  0  0  0  0  0  0  0  0
   -0.7220   -3.4434    0.5518 H   0  0  0  0  0  0  0  0  0  0  0  0
   -2.8279   -2.8059    0.2352 H   0  0  0  0  0  0  0  0  0  0  0  0
   -3.3445   -1.3752    1.1106 H   0  0  0  0  0  0  0  0  0  0  0  0
   -3.1280   -1.3857   -0.7519 H   0  0  0  0  0  0  0  0  0  0  0  0
    0.6112    0.8970    1.5294 H   0  0  0  0  0  0  0  0  0  0  0  0
    1.4775    2.8202    0.6714 H   0  0  0  0  0  0  0  0  0  0  0  0
    2.1019    4.2081   -1.2550 H   0  0  0  0  0  0  0  0  0  0  0  0
    1.8812    3.3808   -3.5194 H   0  0  0  0  0  0  0  0  0  0  0  0
    1.0191    1.1135   -3.9144 H   0  0  0  0  0  0  0  0  0  0  0  0
    0.3714   -0.3452   -2.0656 H   0  0  0  0  0  0  0  0  0  0  0  0
   -4.1426    2.5183    0.8738 H   0  0  0  0  0  0  0  0  0  0  0  0
   -3.9883    2.3607   -0.8915 H   0  0  0  0  0  0  0  0  0  0  0  0
   -5.7548    0.9681   -1.1719 H   0  0  0  0  0  0  0  0  0  0  0  0
   -6.3875    1.8286    0.3178 H   0  0  0  0  0  0  0  0  0  0  0  0
   -5.5901    0.2370    0.4590 H   0  0  0  0  0  0  0  0  0  0  0  0
  1  2  1  0
  2  3  1  0
  3  4  2  0
  3  5  1  0
  5  6  2  0
  6  7  1  0
  6  8  1  0
  8  9  1  0
  9 10  1  0
  9 11  2  0
 11 12  1  0
 12 13  1  0
 13 14  2  0
 14 15  1  0
 15 16  2  0
 16 17  1  0
 17 18  2  0
 11 19  1  0
 19 20  2  0
 19 21  1  0
 21 22  1  0
 22 23  1  0
 12  5  1  0
 18 13  1  0
  1 24  1  0
  1 25  1  0
  1 26  1  0
  7 27  1  0
  7 28  1  0
  7 29  1  0
  8 30  1  0
 10 31  1  0
 10 32  1  0
 10 33  1  0
 12 34  1  0
 14 35  1  0
 15 36  1  0
 16 37  1  0
 17 38  1  0
 18 39  1  0
 22 40  1  0
 22 41  1  0
 23 42  1  0
 23 43  1  0
 23 44  1  0
M  END
$$$$
[H]OC(=O)c1nc(C(=O)c2c([H])c([H])c(Br)c([H])c2[H])c2c([H])c(O[H])c(O[H])c([H])c2c1[H]
     RDKit          3D

 34 36  0  0  0  0  0  0  0  0999 V2000
   -2.7430    3.8402   -1.8466 O   0  0  0  0  0  0  0  0  0  0  0  0
   -1.5702    3.3911   -1.3111 C   0  0  0  0  0  0  0  0  0  0  0  0
   -0.5643    4.1574   -1.3874 O   0  0  0  0  0  0  0  0  0  0  0  0
   -1.3854    2.1064   -0.6619 C   0  0  0  0  0  0  0  0  0  0  0  0
   -2.4703    1.2656   -0.5730 C   0  0  0  0  0  0  0  0  0  0  0  0
   -2.3521    0.0305    0.0335 C   0  0  0  0  0  0  0  0  0  0  0  0
   -3.4613   -0.7931    0.0955 C   0  0  0  0  0  0  0  0  0  0  0  0
   -3.3935   -2.0247    0.6731 C   0  0  0  0  0  0  0  0  0  0  0  0
   -4.4926   -2.8695    0.7479 O   0  0  0  0  0  0  0  0  0  0  0  0
   -2.1905   -2.4194    1.1896 C   0  0  0  0  0  0  0  0  0  0  0  0
   -2.1014   -3.6734    1.7827 O   0  0  0  0  0  0  0  0  0  0  0  0
   -1.0531   -1.6138    1.1440 C   0  0  0  0  0  0  0  0  0  0  0  0
   -1.1133   -0.3636    0.5617 C   0  0  0  0  0  0  0  0  0  0  0  0
   -0.0490    0.5028    0.4568 C   0  0  0  0  0  0  0  0  0  0  0  0
   -0.2409    1.6943   -0.1512 N   0  0  0  0  0  0  0  0  0  0  0  0
    1.2231    0.1366    1.0468 C   0  0  0  0  0  0  0  0  0  0  0  0
    1.1870   -0.2151    2.2803 O   0  0  0  0  0  0  0  0  0  0  0  0
    2.5054    0.1413    0.3458 C   0  0  0  0  0  0  0  0  0  0  0  0
    2.7388    0.7884   -0.8390 C   0  0  0  0  0  0  0  0  0  0  0  0
    4.0099    0.7220   -1.4182 C   0  0  0  0  0  0  0  0  0  0  0  0
    5.0507    0.0278   -0.8460 C   0  0  0  0  0  0  0  0  0  0  0  0
    6.7818   -0.0360   -1.6787 Br  0  0  0  0  0  0  0  0  0  0  0  0
    4.8115   -0.6173    0.3383 C   0  0  0  0  0  0  0  0  0  0  0  0
    3.5535   -0.5569    0.9203 C   0  0  0  0  0  0  0  0  0  0  0  0
   -3.1685    3.5638   -2.6979 H   0  0  0  0  0  0  0  0  0  0  0  0
   -3.4499    1.5387   -0.9724 H   0  0  0  0  0  0  0  0  0  0  0  0
   -4.4251   -0.4783   -0.3179 H   0  0  0  0  0  0  0  0  0  0  0  0
   -5.3968   -2.6465    0.3931 H   0  0  0  0  0  0  0  0  0  0  0  0
   -1.2310   -3.9892    2.1699 H   0  0  0  0  0  0  0  0  0  0  0  0
   -0.1208   -1.9609    1.5466 H   0  0  0  0  0  0  0  0  0  0  0  0
    1.9606    1.3461   -1.3323 H   0  0  0  0  0  0  0  0  0  0  0  0
    4.1921    1.2423   -2.3676 H   0  0  0  0  0  0  0  0  0  0  0  0
    5.6035   -1.1751    0.8219 H   0  0  0  0  0  0  0  0  0  0  0  0
    3.3550   -1.0625    1.8532 H   0  0  0  0  0  0  0  0  0  0  0  0
  1  2  1  0
  2  3  2  0
  2  4  1  0
  4  5  2  0
  5  6  1  0
  6  7  2  0
  7  8  1  0
  8  9  1  0
  8 10  2  0
 10 11  1  0
 10 12  1  0
 12 13  2  0
 13 14  1  0
 14 15  2  0
 14 16  1  0
 16 17  2  0
 16 18  1  0
 18 19  2  0
 19 20  1  0
 20 21  2  0
 21 22  1  0
 21 23  1  0
 23 24  2  0
 15  4  1  0
 24 18  1  0
 13  6  1  0
  1 25  1  0
  5 26  1  0
  7 27  1  0
  9 28  1  0
 11 29  1  0
 12 30  1  0
 19 31  1  0
 20 32  1  0
 23 33  1  0
 24 34  1  0
M  END
$$$$
[H]O[C@@]([H])(C([H])([H])N([H])C(=O)c1c(C([H])([H])[H])c(/C([H])=C2\C(=O)N([H])c3c([H])c([H])c(F)c([H])c32)n([H])c1C([H])([H])[H])C([H])([H])N1C([H])([H])C([H])([H])C([H])([H])C1([H])[H]
     RDKit          3D

 58 61  0  0  0  0  0  0  0  0999 V2000
   -0.8227   -0.5506    3.2377 C   0  0  0  0  0  0  0  0  0  0  0  0
   -1.4020   -0.2058    1.9009 C   0  0  0  0  0  0  0  0  0  0  0  0
   -2.6919    0.2064    1.7116 N   0  0  0  0  0  0  0  0  0  0  0  0
   -2.9448    0.4538    0.4229 C   0  0  0  0  0  0  0  0  0  0  0  0
   -4.1585    0.8891   -0.2560 C   0  0  0  0  0  0  0  0  0  0  0  0
   -5.3276    0.2826   -0.1986 C   0  0  0  0  0  0  0  0  0  0  0  0
   -5.6490   -0.9198    0.5258 C   0  0  0  0  0  0  0  0  0  0  0  0
   -4.8752   -1.6292    1.2116 O   0  0  0  0  0  0  0  0  0  0  0  0
   -7.0545   -1.1580    0.3051 N   0  0  0  0  0  0  0  0  0  0  0  0
   -7.5713   -0.1357   -0.5267 C   0  0  0  0  0  0  0  0  0  0  0  0
   -8.8581    0.0937   -1.0312 C   0  0  0  0  0  0  0  0  0  0  0  0
   -9.1559    1.1693   -1.8391 C   0  0  0  0  0  0  0  0  0  0  0  0
   -8.1353    2.0475   -2.1552 C   0  0  0  0  0  0  0  0  0  0  0  0
   -8.4288    3.1077   -2.9517 F   0  0  0  0  0  0  0  0  0  0  0  0
   -6.8638    1.8250   -1.6590 C   0  0  0  0  0  0  0  0  0  0  0  0
   -6.5770    0.7488   -0.8543 C   0  0  0  0  0  0  0  0  0  0  0  0
   -1.7522    0.1827   -0.2220 C   0  0  0  0  0  0  0  0  0  0  0  0
   -1.5683    0.3270   -1.6923 C   0  0  0  0  0  0  0  0  0  0  0  0
   -0.7791   -0.2303    0.6849 C   0  0  0  0  0  0  0  0  0  0  0  0
    0.5685   -0.5943    0.2968 C   0  0  0  0  0  0  0  0  0  0  0  0
    0.8953   -0.4262   -0.9427 O   0  0  0  0  0  0  0  0  0  0  0  0
    1.5731   -1.1115    1.1047 N   0  0  0  0  0  0  0  0  0  0  0  0
    2.9150   -1.4725    0.7889 C   0  0  0  0  0  0  0  0  0  0  0  0
    3.8509   -0.4221    0.3316 C   0  0  2  0  0  0  0  0  0  0  0  0
    3.5467    0.2205   -0.8405 O   0  0  0  0  0  0  0  0  0  0  0  0
    5.2480   -1.0404    0.1761 C   0  0  0  0  0  0  0  0  0  0  0  0
    6.2658   -0.1096   -0.0710 N   0  0  0  0  0  0  0  0  0  0  0  0
    6.3138    0.5653   -1.3124 C   0  0  0  0  0  0  0  0  0  0  0  0
    7.7718    0.8655   -1.6173 C   0  0  0  0  0  0  0  0  0  0  0  0
    8.4976    0.5654   -0.3271 C   0  0  0  0  0  0  0  0  0  0  0  0
    7.5889   -0.4821    0.3043 C   0  0  0  0  0  0  0  0  0  0  0  0
    0.0211    0.1378    3.4417 H   0  0  0  0  0  0  0  0  0  0  0  0
   -0.6285   -1.6112    3.3816 H   0  0  0  0  0  0  0  0  0  0  0  0
   -1.5836   -0.2599    4.0227 H   0  0  0  0  0  0  0  0  0  0  0  0
   -3.3614    0.3198    2.4959 H   0  0  0  0  0  0  0  0  0  0  0  0
   -4.1471    1.8025   -0.8860 H   0  0  0  0  0  0  0  0  0  0  0  0
   -7.5651   -1.9607    0.7087 H   0  0  0  0  0  0  0  0  0  0  0  0
   -9.6182   -0.6074   -0.7636 H   0  0  0  0  0  0  0  0  0  0  0  0
  -10.1798    1.3181   -2.2168 H   0  0  0  0  0  0  0  0  0  0  0  0
   -6.0790    2.5148   -1.9111 H   0  0  0  0  0  0  0  0  0  0  0  0
   -0.7834    1.0705   -1.9372 H   0  0  0  0  0  0  0  0  0  0  0  0
   -1.2705   -0.6567   -2.1355 H   0  0  0  0  0  0  0  0  0  0  0  0
   -2.4861    0.6361   -2.1894 H   0  0  0  0  0  0  0  0  0  0  0  0
    1.3145   -1.2788    2.1275 H   0  0  0  0  0  0  0  0  0  0  0  0
    2.8408   -2.2224   -0.0604 H   0  0  0  0  0  0  0  0  0  0  0  0
    3.4153   -2.0238    1.6471 H   0  0  0  0  0  0  0  0  0  0  0  0
    3.9490    0.4068    1.1059 H   0  0  0  0  0  0  0  0  0  0  0  0
    3.6787   -0.4392   -1.5931 H   0  0  0  0  0  0  0  0  0  0  0  0
    5.4592   -1.6410    1.1018 H   0  0  0  0  0  0  0  0  0  0  0  0
    5.1642   -1.7287   -0.7079 H   0  0  0  0  0  0  0  0  0  0  0  0
    5.9594   -0.1267   -2.1187 H   0  0  0  0  0  0  0  0  0  0  0  0
    5.6817    1.4755   -1.3972 H   0  0  0  0  0  0  0  0  0  0  0  0
    8.1561    0.2297   -2.4462 H   0  0  0  0  0  0  0  0  0  0  0  0
    7.9274    1.9342   -1.8492 H   0  0  0  0  0  0  0  0  0  0  0  0
    8.5995    1.4712    0.3104 H   0  0  0  0  0  0  0  0  0  0  0  0
    9.4763    0.1044   -0.5707 H   0  0  0  0  0  0  0  0  0  0  0  0
    7.8587   -1.4653   -0.1102 H   0  0  0  0  0  0  0  0  0  0  0  0
    7.7816   -0.4617    1.4033 H   0  0  0  0  0  0  0  0  0  0  0  0
  1  2  1  0
  2  3  1  0
  3  4  1  0
  4  5  1  0
  5  6  2  0
  6  7  1  0
  7  8  2  0
  7  9  1  0
  9 10  1  0
 10 11  2  0
 11 12  1  0
 12 13  2  0
 13 14  1  0
 13 15  1  0
 15 16  2  0
  4 17  2  0
 17 18  1  0
 17 19  1  0
 19 20  1  0
 20 21  2  0
 20 22  1  0
 22 23  1  0
 23 24  1  0
 24 25  1  0
 24 26  1  0
 26 27  1  0
 27 28  1  0
 28 29  1  0
 29 30  1  0
 30 31  1  0
 19  2  2  0
 31 27  1  0
 16  6  1  0
 16 10  1  0
  1 32  1  0
  1 33  1  0
  1 34  1  0
  3 35  1  0
  5 36  1  0
  9 37  1  0
 11 38  1  0
 12 39  1  0
 15 40  1  0
 18 41  1  0
 18 42  1  0
 18 43  1  0
 22 44  1  0
 23 45  1  0
 23 46  1  0
 24 47  1  1
 25 48  1  0
 26 49  1  0
 26 50  1  0
 28 51  1  0
 28 52  1  0
 29 53  1  0
 29 54  1  0
 30 55  1  0
 30 56  1  0
 31 57  1  0
 31 58  1  0
M  END
$$$$
[H]C1=C2C([H])([H])C([H])([H])C3([H])C4([H])C([H])([H])C([H])([H])C(=O)[C@@]4(C([H])([H])[H])C([H])([H])C([H])([H])C3([H])[C@@]2(C([H])([H])[H])C([H])([H])C([H])([H])C1=O
     RDKit          3D

 47 50  0  0  0  0  0  0  0  0999 V2000
    3.4710    1.1870    1.2410 C   0  0  0  0  0  0  0  0  0  0  0  0
    2.5045    0.8327    0.1005 C   0  0  2  0  0  0  0  0  0  0  0  0
    1.4611    1.9009    0.0807 C   0  0  0  0  0  0  0  0  0  0  0  0
    0.2294    1.5707   -0.6713 C   0  0  0  0  0  0  0  0  0  0  0  0
   -0.3157    0.2019   -0.4445 C   0  0  0  0  0  0  0  0  0  0  0  0
    0.5176   -0.6760    0.4163 C   0  0  0  0  0  0  0  0  0  0  0  0
    0.1462   -2.1231    0.0520 C   0  0  0  0  0  0  0  0  0  0  0  0
   -1.2567   -2.3334    0.5102 C   0  0  0  0  0  0  0  0  0  0  0  0
   -2.1704   -1.1962    0.2424 C   0  0  0  0  0  0  0  0  0  0  0  0
   -3.4721   -1.5250    0.1453 C   0  0  0  0  0  0  0  0  0  0  0  0
   -4.4897   -0.5302   -0.1132 C   0  0  0  0  0  0  0  0  0  0  0  0
   -5.7062   -0.8098   -0.1425 O   0  0  0  0  0  0  0  0  0  0  0  0
   -4.0707    0.8680   -0.3510 C   0  0  0  0  0  0  0  0  0  0  0  0
   -2.6720    0.8566   -0.9147 C   0  0  0  0  0  0  0  0  0  0  0  0
   -1.7345    0.2154    0.0861 C   0  0  2  0  0  0  0  0  0  0  0  0
   -1.7677    0.9431    1.4137 C   0  0  0  0  0  0  0  0  0  0  0  0
    1.9827   -0.5499    0.2462 C   0  0  0  0  0  0  0  0  0  0  0  0
    2.4414   -1.3470   -0.9589 C   0  0  0  0  0  0  0  0  0  0  0  0
    3.7422   -0.6231   -1.3004 C   0  0  0  0  0  0  0  0  0  0  0  0
    3.3240    0.7896   -1.1330 C   0  0  0  0  0  0  0  0  0  0  0  0
    3.6201    1.6906   -1.8831 O   0  0  0  0  0  0  0  0  0  0  0  0
    2.8388    1.4843    2.0992 H   0  0  0  0  0  0  0  0  0  0  0  0
    4.0280    2.0921    0.9130 H   0  0  0  0  0  0  0  0  0  0  0  0
    4.1425    0.3598    1.4665 H   0  0  0  0  0  0  0  0  0  0  0  0
    1.9297    2.8018   -0.4142 H   0  0  0  0  0  0  0  0  0  0  0  0
    1.2664    2.2187    1.1217 H   0  0  0  0  0  0  0  0  0  0  0  0
   -0.5646    2.3060   -0.3548 H   0  0  0  0  0  0  0  0  0  0  0  0
    0.4035    1.7960   -1.7597 H   0  0  0  0  0  0  0  0  0  0  0  0
   -0.3831   -0.2945   -1.4578 H   0  0  0  0  0  0  0  0  0  0  0  0
    0.2779   -0.5936    1.5073 H   0  0  0  0  0  0  0  0  0  0  0  0
    0.8135   -2.8008    0.5959 H   0  0  0  0  0  0  0  0  0  0  0  0
    0.1819   -2.2610   -1.0511 H   0  0  0  0  0  0  0  0  0  0  0  0
   -1.3103   -2.5271    1.6062 H   0  0  0  0  0  0  0  0  0  0  0  0
   -1.6465   -3.2536   -0.0138 H   0  0  0  0  0  0  0  0  0  0  0  0
   -3.8062   -2.5537    0.2581 H   0  0  0  0  0  0  0  0  0  0  0  0
   -4.1432    1.3978    0.6180 H   0  0  0  0  0  0  0  0  0  0  0  0
   -4.7601    1.3882   -1.0488 H   0  0  0  0  0  0  0  0  0  0  0  0
   -2.6681    0.2403   -1.8153 H   0  0  0  0  0  0  0  0  0  0  0  0
   -2.3991    1.8831   -1.1645 H   0  0  0  0  0  0  0  0  0  0  0  0
   -0.7568    1.1354    1.8232 H   0  0  0  0  0  0  0  0  0  0  0  0
   -2.3849    0.3129    2.1107 H   0  0  0  0  0  0  0  0  0  0  0  0
   -2.2703    1.9279    1.3370 H   0  0  0  0  0  0  0  0  0  0  0  0
    2.4827   -1.0188    1.1305 H   0  0  0  0  0  0  0  0  0  0  0  0
    2.6105   -2.4029   -0.7222 H   0  0  0  0  0  0  0  0  0  0  0  0
    1.7626   -1.1778   -1.8189 H   0  0  0  0  0  0  0  0  0  0  0  0
    4.4872   -0.9448   -0.5336 H   0  0  0  0  0  0  0  0  0  0  0  0
    4.0836   -0.8584   -2.3287 H   0  0  0  0  0  0  0  0  0  0  0  0
  2  1  1  1
  2  3  1  0
  3  4  1  0
  4  5  1  0
  5  6  1  0
  6  7  1  0
  7  8  1  0
  8  9  1  0
  9 10  2  0
 10 11  1  0
 11 12  2  0
 11 13  1  0
 13 14  1  0
 14 15  1  0
 15 16  1  1
  6 17  1  0
 17 18  1  0
 18 19  1  0
 19 20  1  0
 20 21  2  0
 17  2  1  0
 20  2  1  0
 15  5  1  0
 15  9  1  0
  1 22  1  0
  1 23  1  0
  1 24  1  0
  3 25  1  0
  3 26  1  0
  4 27  1  0
  4 28  1  0
  5 29  1  0
  6 30  1  0
  7 31  1  0
  7 32  1  0
  8 33  1  0
  8 34  1  0
 10 35  1  0
 13 36  1  0
 13 37  1  0
 14 38  1  0
 14 39  1  0
 16 40  1  0
 16 41  1  0
 16 42  1  0
 17 43  1  0
 18 44  1  0
 18 45  1  0
 19 46  1  0
 19 47  1  0
M  END
$$$$
[H]c1c([H])c([H])c2c(c1[H])c(C([H])([H])[C@@]([H])(C(=O)N1C([H])([H])C([H])([H])C([H])([H])[C@@]1([H])C(=O)N([H])[C@]([H])(C(=O)N([H])[C@]([H])(C(=O)N([H])[H])C([H])([H])C([H])(C([H])([H])[H])C([H])([H])[H])C([H])([H])c1c([H])n([H])c3c([H])c([H])c([H])c([H])c13)N([H])[H])c([H])n2[H]
     RDKit          3D

 85 89  0  0  0  0  0  0  0  0999 V2000
   -5.5081   -4.7965   -0.7837 C   0  0  0  0  0  0  0  0  0  0  0  0
   -5.2895   -4.6755    0.7131 C   0  0  0  0  0  0  0  0  0  0  0  0
   -6.5749   -4.7546    1.4389 C   0  0  0  0  0  0  0  0  0  0  0  0
   -4.3421   -3.6034    1.0896 C   0  0  0  0  0  0  0  0  0  0  0  0
   -4.6440   -2.2068    0.6679 C   0  0  2  0  0  0  0  0  0  0  0  0
   -3.5336   -1.3801    1.1953 N   0  0  0  0  0  0  0  0  0  0  0  0
   -2.5120   -0.8742    0.3766 C   0  0  0  0  0  0  0  0  0  0  0  0
   -2.5244   -1.1353   -0.8536 O   0  0  0  0  0  0  0  0  0  0  0  0
   -1.3896   -0.0280    0.8950 C   0  0  2  0  0  0  0  0  0  0  0  0
   -1.9908    1.2304    1.5148 C   0  0  0  0  0  0  0  0  0  0  0  0
   -2.7504    2.0705    0.6081 C   0  0  0  0  0  0  0  0  0  0  0  0
   -4.1320    2.0292    0.3807 C   0  0  0  0  0  0  0  0  0  0  0  0
   -4.4570    2.9270   -0.5596 N   0  0  0  0  0  0  0  0  0  0  0  0
   -3.3607    3.5657   -0.9693 C   0  0  0  0  0  0  0  0  0  0  0  0
   -3.2191    4.5727   -1.9036 C   0  0  0  0  0  0  0  0  0  0  0  0
   -1.9622    5.0813   -2.1294 C   0  0  0  0  0  0  0  0  0  0  0  0
   -0.8730    4.6006   -1.4428 C   0  0  0  0  0  0  0  0  0  0  0  0
   -1.0416    3.5940   -0.5159 C   0  0  0  0  0  0  0  0  0  0  0  0
   -2.2862    3.0403   -0.2470 C   0  0  0  0  0  0  0  0  0  0  0  0
   -0.4605    0.2918   -0.1570 N   0  0  0  0  0  0  0  0  0  0  0  0
    0.9691    0.2847    0.0030 C   0  0  0  0  0  0  0  0  0  0  0  0
    1.3698   -0.0197    1.1381 O   0  0  0  0  0  0  0  0  0  0  0  0
    1.8032    0.6238   -1.1323 C   0  0  2  0  0  0  0  0  0  0  0  0
    2.3505   -0.6669   -1.7802 C   0  0  0  0  0  0  0  0  0  0  0  0
    3.5355   -0.1894   -2.5391 C   0  0  0  0  0  0  0  0  0  0  0  0
    3.7192    1.2712   -2.2104 C   0  0  0  0  0  0  0  0  0  0  0  0
    2.9818    1.3876   -0.9520 N   0  0  0  0  0  0  0  0  0  0  0  0
    3.4461    2.2018    0.1037 C   0  0  0  0  0  0  0  0  0  0  0  0
    2.6693    2.3324    1.1146 O   0  0  0  0  0  0  0  0  0  0  0  0
    4.7272    2.9068    0.1311 C   0  0  1  0  0  0  0  0  0  0  0  0
    4.4570    4.1218    0.9769 N   0  0  0  0  0  0  0  0  0  0  0  0
    5.8787    2.2689    0.8042 C   0  0  0  0  0  0  0  0  0  0  0  0
    6.3667    0.9813    0.3491 C   0  0  0  0  0  0  0  0  0  0  0  0
    7.3978    0.7595   -0.5587 C   0  0  0  0  0  0  0  0  0  0  0  0
    7.5216   -0.5573   -0.7416 N   0  0  0  0  0  0  0  0  0  0  0  0
    6.6228   -1.2261    0.0013 C   0  0  0  0  0  0  0  0  0  0  0  0
    6.3416   -2.5613    0.1856 C   0  0  0  0  0  0  0  0  0  0  0  0
    5.3394   -2.9761    1.0505 C   0  0  0  0  0  0  0  0  0  0  0  0
    4.6138   -2.0417    1.7359 C   0  0  0  0  0  0  0  0  0  0  0  0
    4.8999   -0.7080    1.5464 C   0  0  0  0  0  0  0  0  0  0  0  0
    5.8967   -0.2732    0.6863 C   0  0  0  0  0  0  0  0  0  0  0  0
   -5.8666   -1.6061    1.2044 C   0  0  0  0  0  0  0  0  0  0  0  0
   -7.1434   -1.7178    0.5949 N   0  0  0  0  0  0  0  0  0  0  0  0
   -5.8104   -0.9341    2.2784 O   0  0  0  0  0  0  0  0  0  0  0  0
   -4.6318   -5.1926   -1.3266 H   0  0  0  0  0  0  0  0  0  0  0  0
   -6.3406   -5.5469   -0.9071 H   0  0  0  0  0  0  0  0  0  0  0  0
   -5.9006   -3.8611   -1.2145 H   0  0  0  0  0  0  0  0  0  0  0  0
   -4.7339   -5.6575    0.9672 H   0  0  0  0  0  0  0  0  0  0  0  0
   -6.6507   -4.0949    2.3358 H   0  0  0  0  0  0  0  0  0  0  0  0
   -7.4755   -4.6893    0.7799 H   0  0  0  0  0  0  0  0  0  0  0  0
   -6.6714   -5.7942    1.8884 H   0  0  0  0  0  0  0  0  0  0  0  0
   -3.3410   -3.8651    0.6387 H   0  0  0  0  0  0  0  0  0  0  0  0
   -4.1491   -3.6162    2.1932 H   0  0  0  0  0  0  0  0  0  0  0  0
   -4.5760   -2.1541   -0.4593 H   0  0  0  0  0  0  0  0  0  0  0  0
   -3.5078   -1.1636    2.2161 H   0  0  0  0  0  0  0  0  0  0  0  0
   -0.8928   -0.5431    1.7323 H   0  0  0  0  0  0  0  0  0  0  0  0
   -2.6763    0.8480    2.3238 H   0  0  0  0  0  0  0  0  0  0  0  0
   -1.1503    1.7412    2.0357 H   0  0  0  0  0  0  0  0  0  0  0  0
   -4.8131    1.3668    0.8966 H   0  0  0  0  0  0  0  0  0  0  0  0
   -5.4340    3.0665   -0.8860 H   0  0  0  0  0  0  0  0  0  0  0  0
   -4.0467    4.9705   -2.4552 H   0  0  0  0  0  0  0  0  0  0  0  0
   -1.8082    5.8791   -2.8583 H   0  0  0  0  0  0  0  0  0  0  0  0
    0.1390    4.9696   -1.5848 H   0  0  0  0  0  0  0  0  0  0  0  0
   -0.1967    3.2076    0.0550 H   0  0  0  0  0  0  0  0  0  0  0  0
   -0.8568    0.5356   -1.0867 H   0  0  0  0  0  0  0  0  0  0  0  0
    1.1699    1.1135   -1.9180 H   0  0  0  0  0  0  0  0  0  0  0  0
    1.5688   -1.1296   -2.4196 H   0  0  0  0  0  0  0  0  0  0  0  0
    2.6556   -1.3191   -0.9330 H   0  0  0  0  0  0  0  0  0  0  0  0
    3.3831   -0.2819   -3.6392 H   0  0  0  0  0  0  0  0  0  0  0  0
    4.4787   -0.7188   -2.2366 H   0  0  0  0  0  0  0  0  0  0  0  0
    3.1797    1.9105   -2.9882 H   0  0  0  0  0  0  0  0  0  0  0  0
    4.7496    1.6073   -2.1715 H   0  0  0  0  0  0  0  0  0  0  0  0
    4.9808    3.3341   -0.8463 H   0  0  0  0  0  0  0  0  0  0  0  0
    3.5058    4.4710    0.7609 H   0  0  0  0  0  0  0  0  0  0  0  0
    5.2234    4.8081    0.8524 H   0  0  0  0  0  0  0  0  0  0  0  0
    6.7429    3.0051    0.7169 H   0  0  0  0  0  0  0  0  0  0  0  0
    5.6821    2.2364    1.9070 H   0  0  0  0  0  0  0  0  0  0  0  0
    7.9917    1.5541   -1.0301 H   0  0  0  0  0  0  0  0  0  0  0  0
    8.2055   -1.0696   -1.3660 H   0  0  0  0  0  0  0  0  0  0  0  0
    6.9287   -3.3050   -0.3693 H   0  0  0  0  0  0  0  0  0  0  0  0
    5.1110   -4.0120    1.2036 H   0  0  0  0  0  0  0  0  0  0  0  0
    3.8251   -2.3110    2.4199 H   0  0  0  0  0  0  0  0  0  0  0  0
    4.3092    0.0077    2.1129 H   0  0  0  0  0  0  0  0  0  0  0  0
   -7.2080   -1.7917   -0.4323 H   0  0  0  0  0  0  0  0  0  0  0  0
   -8.0049   -1.7264    1.1617 H   0  0  0  0  0  0  0  0  0  0  0  0
  1  2  1  0
  2  3  1  0
  2  4  1  0
  4  5  1  0
  5  6  1  0
  6  7  1  0
  7  8  2  0
  7  9  1  0
  9 10  1  0
 10 11  1  0
 11 12  2  0
 12 13  1  0
 13 14  1  0
 14 15  2  0
 15 16  1  0
 16 17  2  0
 17 18  1  0
 18 19  2  0
  9 20  1  0
 20 21  1  0
 21 22  2  0
 21 23  1  0
 23 24  1  0
 24 25  1  0
 25 26  1  0
 26 27  1  0
 27 28  1  0
 28 29  2  0
 28 30  1  0
 30 31  1  0
 30 32  1  0
 32 33  1  0
 33 34  2  0
 34 35  1  0
 35 36  1  0
 36 37  2  0
 37 38  1  0
 38 39  2  0
 39 40  1  0
 40 41  2  0
  5 42  1  0
 42 43  1  0
 42 44  2  0
 19 11  1  0
 27 23  1  0
 41 33  1  0
 19 14  1  0
 41 36  1  0
  1 45  1  0
  1 46  1  0
  1 47  1  0
  2 48  1  0
  3 49  1  0
  3 50  1  0
  3 51  1  0
  4 52  1  0
  4 53  1  0
  5 54  1  6
  6 55  1  0
  9 56  1  1
 10 57  1  0
 10 58  1  0
 12 59  1  0
 13 60  1  0
 15 61  1  0
 16 62  1  0
 17 63  1  0
 18 64  1  0
 20 65  1  0
 23 66  1  6
 24 67  1  0
 24 68  1  0
 25 69  1  0
 25 70  1  0
 26 71  1  0
 26 72  1  0
 30 73  1  6
 31 74  1  0
 31 75  1  0
 32 76  1  0
 32 77  1  0
 34 78  1  0
 35 79  1  0
 37 80  1  0
 38 81  1  0
 39 82  1  0
 40 83  1  0
 43 84  1  0
 43 85  1  0
M  END
$$$$
[H]c1nc2c([H])c([H])c([H])c(-c3c([H])nn4c([H])c(-c5c([H])c(OC([H])([H])[H])c(OC([H])([H])[H])c(OC([H])([H])[H])c5[H])c([H])nc34)c2c([H])c1[H]
     RDKit          3D

 51 55  0  0  0  0  0  0  0  0999 V2000
   -4.6401   -3.5073   -0.5947 C   0  0  0  0  0  0  0  0  0  0  0  0
   -5.1119   -2.2504   -0.2282 O   0  0  0  0  0  0  0  0  0  0  0  0
   -4.3580   -1.1159   -0.0286 C   0  0  0  0  0  0  0  0  0  0  0  0
   -3.0003   -1.1319   -0.1808 C   0  0  0  0  0  0  0  0  0  0  0  0
   -2.2585    0.0009    0.0174 C   0  0  0  0  0  0  0  0  0  0  0  0
   -2.8983    1.1680    0.3752 C   0  0  0  0  0  0  0  0  0  0  0  0
   -4.2589    1.1870    0.5292 C   0  0  0  0  0  0  0  0  0  0  0  0
   -4.8977    2.3339    0.8827 O   0  0  0  0  0  0  0  0  0  0  0  0
   -4.3143    3.5887    1.1317 C   0  0  0  0  0  0  0  0  0  0  0  0
   -5.0678    0.0499    0.3371 C   0  0  0  0  0  0  0  0  0  0  0  0
   -6.3600    0.0363    0.4751 O   0  0  0  0  0  0  0  0  0  0  0  0
   -7.6387    0.0330    0.5707 C   0  0  0  0  0  0  0  0  0  0  0  0
   -0.8086    0.0331   -0.1080 C   0  0  0  0  0  0  0  0  0  0  0  0
   -0.0046   -1.0314    0.2124 C   0  0  0  0  0  0  0  0  0  0  0  0
    1.3416   -0.9856    0.0881 N   0  0  0  0  0  0  0  0  0  0  0  0
    1.8613    0.1617   -0.3693 C   0  0  0  0  0  0  0  0  0  0  0  0
    3.2002    0.5332   -0.6021 C   0  0  0  0  0  0  0  0  0  0  0  0
    3.1634    1.8250   -1.0643 C   0  0  0  0  0  0  0  0  0  0  0  0
    1.8778    2.2180   -1.1100 N   0  0  0  0  0  0  0  0  0  0  0  0
    1.1273    1.2136   -0.6921 N   0  0  0  0  0  0  0  0  0  0  0  0
   -0.2318    1.1938   -0.5751 C   0  0  0  0  0  0  0  0  0  0  0  0
    4.3367   -0.3505   -0.3946 C   0  0  0  0  0  0  0  0  0  0  0  0
    4.2810   -1.6029   -1.0022 C   0  0  0  0  0  0  0  0  0  0  0  0
    5.3263   -2.5147   -0.8824 C   0  0  0  0  0  0  0  0  0  0  0  0
    6.4475   -2.1830   -0.1489 C   0  0  0  0  0  0  0  0  0  0  0  0
    6.5125   -0.9485    0.4555 C   0  0  0  0  0  0  0  0  0  0  0  0
    7.6088   -0.6620    1.1691 N   0  0  0  0  0  0  0  0  0  0  0  0
    7.7128    0.5252    1.7869 C   0  0  0  0  0  0  0  0  0  0  0  0
    6.6951    1.4409    1.6845 C   0  0  0  0  0  0  0  0  0  0  0  0
    5.5453    1.1814    0.9554 C   0  0  0  0  0  0  0  0  0  0  0  0
    5.4538   -0.0392    0.3277 C   0  0  0  0  0  0  0  0  0  0  0  0
   -5.4674   -3.9929   -1.1899 H   0  0  0  0  0  0  0  0  0  0  0  0
   -4.4719   -4.1863    0.2887 H   0  0  0  0  0  0  0  0  0  0  0  0
   -3.7427   -3.4498   -1.2379 H   0  0  0  0  0  0  0  0  0  0  0  0
   -2.4605   -2.0281   -0.4594 H   0  0  0  0  0  0  0  0  0  0  0  0
   -2.2957    2.0694    0.5331 H   0  0  0  0  0  0  0  0  0  0  0  0
   -3.5770    3.8785    0.3743 H   0  0  0  0  0  0  0  0  0  0  0  0
   -3.8785    3.6427    2.1681 H   0  0  0  0  0  0  0  0  0  0  0  0
   -5.1803    4.3138    1.1529 H   0  0  0  0  0  0  0  0  0  0  0  0
   -8.1947    1.0282    0.4511 H   0  0  0  0  0  0  0  0  0  0  0  0
   -8.1751   -0.6261   -0.2067 H   0  0  0  0  0  0  0  0  0  0  0  0
   -8.0921   -0.3977    1.5332 H   0  0  0  0  0  0  0  0  0  0  0  0
   -0.4397   -1.9583    0.5820 H   0  0  0  0  0  0  0  0  0  0  0  0
    4.0484    2.4099   -1.3406 H   0  0  0  0  0  0  0  0  0  0  0  0
   -0.8139    2.0691   -0.8465 H   0  0  0  0  0  0  0  0  0  0  0  0
    3.4087   -1.8806   -1.5856 H   0  0  0  0  0  0  0  0  0  0  0  0
    5.2857   -3.4859   -1.3527 H   0  0  0  0  0  0  0  0  0  0  0  0
    7.2500   -2.9079   -0.0673 H   0  0  0  0  0  0  0  0  0  0  0  0
    8.6038    0.7889    2.3821 H   0  0  0  0  0  0  0  0  0  0  0  0
    6.8050    2.3915    2.1919 H   0  0  0  0  0  0  0  0  0  0  0  0
    4.7460    1.9212    0.8968 H   0  0  0  0  0  0  0  0  0  0  0  0
  1  2  1  0
  2  3  1  0
  3  4  2  0
  4  5  1  0
  5  6  2  0
  6  7  1  0
  7  8  1  0
  8  9  1  0
  7 10  2  0
 10 11  1  0
 11 12  1  0
  5 13  1  0
 13 14  1  0
 14 15  2  0
 15 16  1  0
 16 17  2  0
 17 18  1  0
 18 19  2  0
 19 20  1  0
 20 21  1  0
 17 22  1  0
 22 23  2  0
 23 24  1  0
 24 25  2  0
 25 26  1  0
 26 27  2  0
 27 28  1  0
 28 29  2  0
 29 30  1  0
 30 31  2  0
 10  3  1  0
 21 13  2  0
 31 22  1  0
 20 16  1  0
 31 26  1  0
  1 32  1  0
  1 33  1  0
  1 34  1  0
  4 35  1  0
  6 36  1  0
  9 37  1  0
  9 38  1  0
  9 39  1  0
 12 40  1  0
 12 41  1  0
 12 42  1  0
 14 43  1  0
 18 44  1  0
 21 45  1  0
 23 46  1  0
 24 47  1  0
 25 48  1  0
 28 49  1  0
 29 50  1  0
 30 51  1  0
M  END
$$$$
[H]O[C@@]1([H])C([H])([H])[C@@]([H])(O[H])[C@@]([H])(N([H])C(=O)C([H])([H])[H])[C@@]([H])(O[H])[C@]1([H])O[H]
     RDKit          3D

 29 29  0  0  0  0  0  0  0  0999 V2000
    4.1818   -0.0776   -0.2933 C   0  0  0  0  0  0  0  0  0  0  0  0
    2.8394   -0.0308    0.3310 C   0  0  0  0  0  0  0  0  0  0  0  0
    2.7957    0.0614    1.6005 O   0  0  0  0  0  0  0  0  0  0  0  0
    1.6610   -0.0848   -0.4310 N   0  0  0  0  0  0  0  0  0  0  0  0
    0.3594   -0.0400    0.1667 C   0  0  2  0  0  0  0  0  0  0  0  0
   -0.4153   -1.2894   -0.1626 C   0  0  2  0  0  0  0  0  0  0  0  0
   -0.5846   -1.3769   -1.5357 O   0  0  0  0  0  0  0  0  0  0  0  0
   -1.7466   -1.3022    0.5470 C   0  0  0  0  0  0  0  0  0  0  0  0
   -2.5123   -0.0283    0.3663 C   0  0  2  0  0  0  0  0  0  0  0  0
   -3.0188    0.0082   -0.9303 O   0  0  0  0  0  0  0  0  0  0  0  0
   -1.6889    1.2092    0.5745 C   0  0  1  0  0  0  0  0  0  0  0  0
   -1.2589    1.3112    1.8844 O   0  0  0  0  0  0  0  0  0  0  0  0
   -0.4515    1.1389   -0.3195 C   0  0  2  0  0  0  0  0  0  0  0  0
   -0.9059    0.9802   -1.6197 O   0  0  0  0  0  0  0  0  0  0  0  0
    4.0990   -0.6709   -1.2498 H   0  0  0  0  0  0  0  0  0  0  0  0
    4.5034    0.9617   -0.5695 H   0  0  0  0  0  0  0  0  0  0  0  0
    4.8707   -0.5763    0.3900 H   0  0  0  0  0  0  0  0  0  0  0  0
    1.7364   -0.1600   -1.4668 H   0  0  0  0  0  0  0  0  0  0  0  0
    0.4065    0.0401    1.2715 H   0  0  0  0  0  0  0  0  0  0  0  0
    0.1731   -2.1576    0.1664 H   0  0  0  0  0  0  0  0  0  0  0  0
    0.1820   -1.8139   -1.9482 H   0  0  0  0  0  0  0  0  0  0  0  0
   -1.5610   -1.5753    1.5941 H   0  0  0  0  0  0  0  0  0  0  0  0
   -2.3384   -2.1314    0.0980 H   0  0  0  0  0  0  0  0  0  0  0  0
   -3.3374   -0.0375    1.1333 H   0  0  0  0  0  0  0  0  0  0  0  0
   -3.5212    0.8691   -1.0086 H   0  0  0  0  0  0  0  0  0  0  0  0
   -2.2776    2.0696    0.2332 H   0  0  0  0  0  0  0  0  0  0  0  0
   -2.0462    1.3652    2.4560 H   0  0  0  0  0  0  0  0  0  0  0  0
    0.1040    2.0980   -0.2024 H   0  0  0  0  0  0  0  0  0  0  0  0
   -0.2479    1.2401   -2.3061 H   0  0  0  0  0  0  0  0  0  0  0  0
  1  2  1  0
  2  3  2  0
  2  4  1  0
  4  5  1  0
  5  6  1  0
  6  7  1  0
  6  8  1  0
  8  9  1  0
  9 10  1  0
  9 11  1  0
 11 12  1  0
 11 13  1  0
 13 14  1  0
 13  5  1  0
  1 15  1  0
  1 16  1  0
  1 17  1  0
  4 18  1  0
  5 19  1  1
  6 20  1  1
  7 21  1  0
  8 22  1  0
  8 23  1  0
  9 24  1  1
 10 25  1  0
 11 26  1  6
 12 27  1  0
 13 28  1  6
 14 29  1  0
M  END
$$$$
[H]c1nc([H])c(Cl)c(N([H])C(=O)N([H])c2c([H])c(-c3c([H])c([H])c([H])c(-c4c([H])c([H])c([H])c(-c5nnn([H])n5)c4[H])c3[H])nn(C([H])([H])C([H])([H])[H])c2=O)c1Cl
     RDKit          3D

 57 61  0  0  0  0  0  0  0  0999 V2000
   -2.3943   -5.9715    1.2710 C   0  0  0  0  0  0  0  0  0  0  0  0
   -2.1101   -5.6682   -0.1948 C   0  0  0  0  0  0  0  0  0  0  0  0
   -1.7228   -4.2537   -0.2340 N   0  0  0  0  0  0  0  0  0  0  0  0
   -0.4692   -3.9361   -0.1010 N   0  0  0  0  0  0  0  0  0  0  0  0
   -0.0012   -2.6756   -0.1209 C   0  0  0  0  0  0  0  0  0  0  0  0
   -0.9274   -1.6433   -0.2964 C   0  0  0  0  0  0  0  0  0  0  0  0
   -2.2566   -1.9536   -0.4391 C   0  0  0  0  0  0  0  0  0  0  0  0
   -3.2674   -0.9961   -0.6201 N   0  0  0  0  0  0  0  0  0  0  0  0
   -3.1780    0.3960   -0.6939 C   0  0  0  0  0  0  0  0  0  0  0  0
   -2.0982    1.0094   -0.6003 O   0  0  0  0  0  0  0  0  0  0  0  0
   -4.3343    1.2295   -0.8849 N   0  0  0  0  0  0  0  0  0  0  0  0
   -4.2764    2.6328   -0.9632 C   0  0  0  0  0  0  0  0  0  0  0  0
   -4.3923    3.3866    0.1948 C   0  0  0  0  0  0  0  0  0  0  0  0
   -4.6085    2.5625    1.7307 Cl  0  0  0  0  0  0  0  0  0  0  0  0
   -4.3409    4.7685    0.1594 C   0  0  0  0  0  0  0  0  0  0  0  0
   -4.1752    5.3745   -1.0272 N   0  0  0  0  0  0  0  0  0  0  0  0
   -4.0562    4.6910   -2.1917 C   0  0  0  0  0  0  0  0  0  0  0  0
   -4.1093    3.3155   -2.1403 C   0  0  0  0  0  0  0  0  0  0  0  0
   -3.9545    2.4351   -3.6495 Cl  0  0  0  0  0  0  0  0  0  0  0  0
   -2.6375   -3.2990   -0.4034 C   0  0  0  0  0  0  0  0  0  0  0  0
   -3.8343   -3.6426   -0.5280 O   0  0  0  0  0  0  0  0  0  0  0  0
    1.4349   -2.4120    0.0378 C   0  0  0  0  0  0  0  0  0  0  0  0
    2.2804   -3.4868    0.2078 C   0  0  0  0  0  0  0  0  0  0  0  0
    3.6426   -3.3604    0.3659 C   0  0  0  0  0  0  0  0  0  0  0  0
    4.1721   -2.0834    0.3508 C   0  0  0  0  0  0  0  0  0  0  0  0
    3.3731   -0.9727    0.1842 C   0  0  0  0  0  0  0  0  0  0  0  0
    1.9971   -1.1703    0.0288 C   0  0  0  0  0  0  0  0  0  0  0  0
    3.9607    0.3613    0.1718 C   0  0  0  0  0  0  0  0  0  0  0  0
    5.2375    0.5435   -0.3238 C   0  0  0  0  0  0  0  0  0  0  0  0
    5.8273    1.7993   -0.3514 C   0  0  0  0  0  0  0  0  0  0  0  0
    5.1551    2.9093    0.1169 C   0  0  0  0  0  0  0  0  0  0  0  0
    3.8719    2.7389    0.6171 C   0  0  0  0  0  0  0  0  0  0  0  0
    3.3007    1.4804    0.6365 C   0  0  0  0  0  0  0  0  0  0  0  0
    3.1442    3.8986    1.1163 C   0  0  0  0  0  0  0  0  0  0  0  0
    1.9059    3.9132    1.6306 N   0  0  0  0  0  0  0  0  0  0  0  0
    1.6309    5.1523    1.9560 N   0  0  0  0  0  0  0  0  0  0  0  0
    2.6475    5.9409    1.6704 N   0  0  0  0  0  0  0  0  0  0  0  0
    3.5824    5.1664    1.1517 N   0  0  0  0  0  0  0  0  0  0  0  0
   -2.9089   -5.0849    1.7408 H   0  0  0  0  0  0  0  0  0  0  0  0
   -1.4200   -6.1388    1.7611 H   0  0  0  0  0  0  0  0  0  0  0  0
   -2.9869   -6.8839    1.3997 H   0  0  0  0  0  0  0  0  0  0  0  0
   -1.2633   -6.3248   -0.4814 H   0  0  0  0  0  0  0  0  0  0  0  0
   -3.0039   -5.8595   -0.7908 H   0  0  0  0  0  0  0  0  0  0  0  0
   -0.5603   -0.6485   -0.3125 H   0  0  0  0  0  0  0  0  0  0  0  0
   -4.2707   -1.3796   -0.7185 H   0  0  0  0  0  0  0  0  0  0  0  0
   -5.2685    0.7761   -0.9707 H   0  0  0  0  0  0  0  0  0  0  0  0
   -4.4339    5.3264    1.0777 H   0  0  0  0  0  0  0  0  0  0  0  0
   -3.9229    5.1728   -3.1480 H   0  0  0  0  0  0  0  0  0  0  0  0
    1.8826   -4.5117    0.2232 H   0  0  0  0  0  0  0  0  0  0  0  0
    4.2667   -4.2332    0.4964 H   0  0  0  0  0  0  0  0  0  0  0  0
    5.2537   -1.9196    0.4725 H   0  0  0  0  0  0  0  0  0  0  0  0
    1.4002   -0.3042   -0.0980 H   0  0  0  0  0  0  0  0  0  0  0  0
    5.7701   -0.3263   -0.6932 H   0  0  0  0  0  0  0  0  0  0  0  0
    6.8285    1.9561   -0.7378 H   0  0  0  0  0  0  0  0  0  0  0  0
    5.6348    3.8828    0.0862 H   0  0  0  0  0  0  0  0  0  0  0  0
    2.2984    1.3442    1.0267 H   0  0  0  0  0  0  0  0  0  0  0  0
    2.6846    6.9764    1.8322 H   0  0  0  0  0  0  0  0  0  0  0  0
  1  2  1  0
  2  3  1  0
  3  4  1  0
  4  5  2  0
  5  6  1  0
  6  7  2  0
  7  8  1  0
  8  9  1  0
  9 10  2  0
  9 11  1  0
 11 12  1  0
 12 13  2  0
 13 14  1  0
 13 15  1  0
 15 16  2  0
 16 17  1  0
 17 18  2  0
 18 19  1  0
  7 20  1  0
 20 21  2  0
  5 22  1  0
 22 23  2  0
 23 24  1  0
 24 25  2  0
 25 26  1  0
 26 27  2  0
 26 28  1  0
 28 29  2  0
 29 30  1  0
 30 31  2  0
 31 32  1  0
 32 33  2  0
 32 34  1  0
 34 35  1  0
 35 36  2  0
 36 37  1  0
 37 38  1  0
 20  3  1  0
 27 22  1  0
 33 28  1  0
 38 34  2  0
 18 12  1  0
  1 39  1  0
  1 40  1  0
  1 41  1  0
  2 42  1  0
  2 43  1  0
  6 44  1  0
  8 45  1  0
 11 46  1  0
 15 47  1  0
 17 48  1  0
 23 49  1  0
 24 50  1  0
 25 51  1  0
 27 52  1  0
 29 53  1  0
 30 54  1  0
 31 55  1  0
 33 56  1  0
 37 57  1  0
M  END
$$$$
[H]c1c([H])c2c(c([H])c1Cl)OC([H])([H])C(=O)N2C1([H])C([H])([H])C([H])([H])N(C(=O)c2c([H])c(OC([H])([H])[H])c(OC([H])([H])[H])c(OC([H])([H])[H])c2[H])C([H])([H])C1([H])[H]
     RDKit          3D

 57 60  0  0  0  0  0  0  0  0999 V2000
   -3.3829   -1.0419    2.9467 C   0  0  0  0  0  0  0  0  0  0  0  0
   -4.3882   -0.4396    2.1820 O   0  0  0  0  0  0  0  0  0  0  0  0
   -4.1673    0.2400    0.9941 C   0  0  0  0  0  0  0  0  0  0  0  0
   -2.8504    0.3311    0.5281 C   0  0  0  0  0  0  0  0  0  0  0  0
   -2.5637    0.9839   -0.6337 C   0  0  0  0  0  0  0  0  0  0  0  0
   -3.6516    1.5633   -1.3415 C   0  0  0  0  0  0  0  0  0  0  0  0
   -4.9144    1.4453   -0.8422 C   0  0  0  0  0  0  0  0  0  0  0  0
   -5.9857    2.0180   -1.5423 O   0  0  0  0  0  0  0  0  0  0  0  0
   -5.7662    2.7137   -2.7561 C   0  0  0  0  0  0  0  0  0  0  0  0
   -5.2235    0.7918    0.3239 C   0  0  0  0  0  0  0  0  0  0  0  0
   -6.5353    0.7132    0.7675 O   0  0  0  0  0  0  0  0  0  0  0  0
   -7.3253   -0.3734    0.3599 C   0  0  0  0  0  0  0  0  0  0  0  0
   -1.2819    1.1132   -1.2553 C   0  0  0  0  0  0  0  0  0  0  0  0
   -1.2057    1.9517   -2.2497 O   0  0  0  0  0  0  0  0  0  0  0  0
   -0.0881    0.4768   -0.9651 N   0  0  0  0  0  0  0  0  0  0  0  0
    0.1389   -0.5253    0.0286 C   0  0  0  0  0  0  0  0  0  0  0  0
    1.4356   -1.2592   -0.3898 C   0  0  0  0  0  0  0  0  0  0  0  0
    2.5417   -0.2569   -0.0526 C   0  0  0  0  0  0  0  0  0  0  0  0
    2.3576    0.9592   -0.9503 C   0  0  0  0  0  0  0  0  0  0  0  0
    1.0883    0.8812   -1.7384 C   0  0  0  0  0  0  0  0  0  0  0  0
    3.8616   -0.7418   -0.1989 N   0  0  0  0  0  0  0  0  0  0  0  0
    4.3414   -1.1691   -1.4923 C   0  0  0  0  0  0  0  0  0  0  0  0
    3.4850   -1.5166   -2.3119 O   0  0  0  0  0  0  0  0  0  0  0  0
    5.8122   -1.1793   -1.7939 C   0  0  0  0  0  0  0  0  0  0  0  0
    6.4254   -1.7069   -0.6302 O   0  0  0  0  0  0  0  0  0  0  0  0
    6.0255   -1.3109    0.6485 C   0  0  0  0  0  0  0  0  0  0  0  0
    6.9545   -1.4265    1.6483 C   0  0  0  0  0  0  0  0  0  0  0  0
    6.5888   -1.0422    2.9275 C   0  0  0  0  0  0  0  0  0  0  0  0
    7.7848   -1.1902    4.2189 Cl  0  0  0  0  0  0  0  0  0  0  0  0
    5.3387   -0.5573    3.2081 C   0  0  0  0  0  0  0  0  0  0  0  0
    4.4129   -0.4488    2.1789 C   0  0  0  0  0  0  0  0  0  0  0  0
    4.7437   -0.8191    0.9094 C   0  0  0  0  0  0  0  0  0  0  0  0
   -3.8751   -1.7665    3.6575 H   0  0  0  0  0  0  0  0  0  0  0  0
   -2.7476   -1.6694    2.2603 H   0  0  0  0  0  0  0  0  0  0  0  0
   -2.7597   -0.3327    3.5213 H   0  0  0  0  0  0  0  0  0  0  0  0
   -2.0660   -0.0992    1.1226 H   0  0  0  0  0  0  0  0  0  0  0  0
   -3.4701    2.1004   -2.2858 H   0  0  0  0  0  0  0  0  0  0  0  0
   -5.5307    1.9909   -3.5564 H   0  0  0  0  0  0  0  0  0  0  0  0
   -4.9433    3.4596   -2.6706 H   0  0  0  0  0  0  0  0  0  0  0  0
   -6.6943    3.2830   -3.0095 H   0  0  0  0  0  0  0  0  0  0  0  0
   -7.8053   -0.0968   -0.6032 H   0  0  0  0  0  0  0  0  0  0  0  0
   -6.7383   -1.3148    0.2642 H   0  0  0  0  0  0  0  0  0  0  0  0
   -8.1267   -0.6072    1.1064 H   0  0  0  0  0  0  0  0  0  0  0  0
   -0.6476   -1.3106   -0.0988 H   0  0  0  0  0  0  0  0  0  0  0  0
    0.2472   -0.1546    1.0618 H   0  0  0  0  0  0  0  0  0  0  0  0
    1.2877   -1.4562   -1.4386 H   0  0  0  0  0  0  0  0  0  0  0  0
    1.4845   -2.1121    0.2847 H   0  0  0  0  0  0  0  0  0  0  0  0
    2.2537    0.0729    0.9570 H   0  0  0  0  0  0  0  0  0  0  0  0
    3.2099    1.0437   -1.6411 H   0  0  0  0  0  0  0  0  0  0  0  0
    2.3148    1.8853   -0.3574 H   0  0  0  0  0  0  0  0  0  0  0  0
    0.8322    1.8629   -2.1862 H   0  0  0  0  0  0  0  0  0  0  0  0
    1.1633    0.1810   -2.5856 H   0  0  0  0  0  0  0  0  0  0  0  0
    6.0241   -1.8667   -2.6216 H   0  0  0  0  0  0  0  0  0  0  0  0
    6.1699   -0.1427   -1.9542 H   0  0  0  0  0  0  0  0  0  0  0  0
    7.9685   -1.8067    1.4864 H   0  0  0  0  0  0  0  0  0  0  0  0
    5.0266   -0.2528    4.1815 H   0  0  0  0  0  0  0  0  0  0  0  0
    3.4158   -0.0679    2.3790 H   0  0  0  0  0  0  0  0  0  0  0  0
  1  2  1  0
  2  3  1  0
  3  4  2  0
  4  5  1  0
  5  6  2  0
  6  7  1  0
  7  8  1  0
  8  9  1  0
  7 10  2  0
 10 11  1  0
 11 12  1  0
  5 13  1  0
 13 14  2  0
 13 15  1  0
 15 16  1  0
 16 17  1  0
 17 18  1  0
 18 19  1  0
 19 20  1  0
 18 21  1  0
 21 22  1  0
 22 23  2  0
 22 24  1  0
 24 25  1  0
 25 26  1  0
 26 27  2  0
 27 28  1  0
 28 29  1  0
 28 30  2  0
 30 31  1  0
 31 32  2  0
 10  3  1  0
 20 15  1  0
 32 21  1  0
 32 26  1  0
  1 33  1  0
  1 34  1  0
  1 35  1  0
  4 36  1  0
  6 37  1  0
  9 38  1  0
  9 39  1  0
  9 40  1  0
 12 41  1  0
 12 42  1  0
 12 43  1  0
 16 44  1  0
 16 45  1  0
 17 46  1  0
 17 47  1  0
 18 48  1  0
 19 49  1  0
 19 50  1  0
 20 51  1  0
 20 52  1  0
 24 53  1  0
 24 54  1  0
 27 55  1  0
 30 56  1  0
 31 57  1  0
M  END
$$$$
[H]c1sc(N2C([H])([H])C([H])([H])[C@@]([H])(N([H])C(=O)c3c([H])c([H])c(F)c([H])c3[H])C2([H])[H])nc1-c1c([H])c([H])c([H])c([H])c1[H]
     RDKit          3D

 44 47  0  0  0  0  0  0  0  0999 V2000
   -8.7293   -1.3412    1.3776 F   0  0  0  0  0  0  0  0  0  0  0  0
   -7.4298   -0.9862    1.2006 C   0  0  0  0  0  0  0  0  0  0  0  0
   -6.8209   -1.0529   -0.0315 C   0  0  0  0  0  0  0  0  0  0  0  0
   -5.4890   -0.6810   -0.1720 C   0  0  0  0  0  0  0  0  0  0  0  0
   -4.7535   -0.2433    0.8971 C   0  0  0  0  0  0  0  0  0  0  0  0
   -5.3749   -0.1780    2.1416 C   0  0  0  0  0  0  0  0  0  0  0  0
   -6.6750   -0.5427    2.2701 C   0  0  0  0  0  0  0  0  0  0  0  0
   -3.3448    0.1575    0.7705 C   0  0  0  0  0  0  0  0  0  0  0  0
   -2.7303    0.4920    1.8366 O   0  0  0  0  0  0  0  0  0  0  0  0
   -2.7254    0.1631   -0.4855 N   0  0  0  0  0  0  0  0  0  0  0  0
   -1.3393    0.5631   -0.5765 C   0  0  2  0  0  0  0  0  0  0  0  0
   -1.0777    1.6450   -1.5774 C   0  0  0  0  0  0  0  0  0  0  0  0
   -0.0110    1.0955   -2.4942 C   0  0  0  0  0  0  0  0  0  0  0  0
    0.5370    0.0038   -1.7330 N   0  0  0  0  0  0  0  0  0  0  0  0
   -0.5688   -0.6599   -1.0938 C   0  0  0  0  0  0  0  0  0  0  0  0
    1.9096   -0.4212   -1.5825 C   0  0  0  0  0  0  0  0  0  0  0  0
    2.7911   -0.0061   -0.7020 N   0  0  0  0  0  0  0  0  0  0  0  0
    4.0055   -0.5002   -0.6996 C   0  0  0  0  0  0  0  0  0  0  0  0
    4.2792   -1.4537   -1.6553 C   0  0  0  0  0  0  0  0  0  0  0  0
    2.7948   -1.5722   -2.4787 S   0  0  0  0  0  0  0  0  0  0  0  0
    5.0290   -0.0453    0.2859 C   0  0  0  0  0  0  0  0  0  0  0  0
    4.7625    0.9167    1.2317 C   0  0  0  0  0  0  0  0  0  0  0  0
    5.7144    1.3347    2.1448 C   0  0  0  0  0  0  0  0  0  0  0  0
    6.9752    0.7748    2.1146 C   0  0  0  0  0  0  0  0  0  0  0  0
    7.2622   -0.1831    1.1832 C   0  0  0  0  0  0  0  0  0  0  0  0
    6.2883   -0.5910    0.2708 C   0  0  0  0  0  0  0  0  0  0  0  0
   -7.3945   -1.4021   -0.9042 H   0  0  0  0  0  0  0  0  0  0  0  0
   -5.0466   -0.7517   -1.1705 H   0  0  0  0  0  0  0  0  0  0  0  0
   -4.7871    0.1692    2.9824 H   0  0  0  0  0  0  0  0  0  0  0  0
   -7.1717   -0.4929    3.2528 H   0  0  0  0  0  0  0  0  0  0  0  0
   -3.2200   -0.1044   -1.3376 H   0  0  0  0  0  0  0  0  0  0  0  0
   -0.9211    0.8395    0.4325 H   0  0  0  0  0  0  0  0  0  0  0  0
   -1.9983    1.7532   -2.2262 H   0  0  0  0  0  0  0  0  0  0  0  0
   -0.8040    2.6224   -1.1300 H   0  0  0  0  0  0  0  0  0  0  0  0
    0.8304    1.8326   -2.6192 H   0  0  0  0  0  0  0  0  0  0  0  0
   -0.4031    0.7758   -3.4822 H   0  0  0  0  0  0  0  0  0  0  0  0
   -0.1895   -1.2818   -0.2774 H   0  0  0  0  0  0  0  0  0  0  0  0
   -1.1942   -1.2282   -1.8112 H   0  0  0  0  0  0  0  0  0  0  0  0
    5.2388   -1.9835   -1.8114 H   0  0  0  0  0  0  0  0  0  0  0  0
    3.7867    1.3749    1.2829 H   0  0  0  0  0  0  0  0  0  0  0  0
    5.4384    2.0876    2.8525 H   0  0  0  0  0  0  0  0  0  0  0  0
    7.7439    1.0790    2.8149 H   0  0  0  0  0  0  0  0  0  0  0  0
    8.2263   -0.6257    1.1444 H   0  0  0  0  0  0  0  0  0  0  0  0
    6.5868   -1.3520   -0.4358 H   0  0  0  0  0  0  0  0  0  0  0  0
  1  2  1  0
  2  3  2  0
  3  4  1  0
  4  5  2  0
  5  6  1  0
  6  7  2  0
  5  8  1  0
  8  9  2  0
  8 10  1  0
 10 11  1  0
 11 12  1  0
 12 13  1  0
 13 14  1  0
 14 15  1  0
 14 16  1  0
 16 17  2  0
 17 18  1  0
 18 19  2  0
 19 20  1  0
 18 21  1  0
 21 22  2  0
 22 23  1  0
 23 24  2  0
 24 25  1  0
 25 26  2  0
  7  2  1  0
 15 11  1  0
 20 16  1  0
 26 21  1  0
  3 27  1  0
  4 28  1  0
  6 29  1  0
  7 30  1  0
 10 31  1  0
 11 32  1  1
 12 33  1  0
 12 34  1  0
 13 35  1  0
 13 36  1  0
 15 37  1  0
 15 38  1  0
 19 39  1  0
 22 40  1  0
 23 41  1  0
 24 42  1  0
 25 43  1  0
 26 44  1  0
M  END
$$$$
[H]O[C@]1([H])C([H])([H])C([H])([H])[C@@]([H])(n2c([H])c(-c3c([H])c([H])c(S(=O)(=O)N4C([H])([H])C([H])([H])N(C([H])([H])[H])C([H])([H])C4([H])[H])c([H])c3[H])c3c([H])nc(N([H])C([H])([H])C([H])([H])C([H])([H])C([H])([H])[H])nc32)C([H])([H])C1([H])[H]
     RDKit          3D

 75 79  0  0  0  0  0  0  0  0999 V2000
   -7.7329   -3.8274   -0.9882 C   0  0  0  0  0  0  0  0  0  0  0  0
   -6.2343   -3.8685   -0.9811 C   0  0  0  0  0  0  0  0  0  0  0  0
   -5.6736   -3.9257    0.4243 C   0  0  0  0  0  0  0  0  0  0  0  0
   -6.0684   -2.7450    1.2476 C   0  0  0  0  0  0  0  0  0  0  0  0
   -5.6483   -1.4733    0.7375 N   0  0  0  0  0  0  0  0  0  0  0  0
   -4.2778   -1.1131    0.5765 C   0  0  0  0  0  0  0  0  0  0  0  0
   -3.2877   -1.9660    0.9052 N   0  0  0  0  0  0  0  0  0  0  0  0
   -1.9958   -1.6877    0.7782 C   0  0  0  0  0  0  0  0  0  0  0  0
   -1.6197   -0.4396    0.2750 C   0  0  0  0  0  0  0  0  0  0  0  0
   -0.4414    0.1806    0.0122 C   0  0  0  0  0  0  0  0  0  0  0  0
   -0.7512    1.4149   -0.4777 C   0  0  0  0  0  0  0  0  0  0  0  0
   -2.0801    1.5970   -0.5340 N   0  0  0  0  0  0  0  0  0  0  0  0
   -2.8299    2.7567   -0.9886 C   0  0  1  0  0  0  0  0  0  0  0  0
   -3.8453    3.1934    0.0332 C   0  0  0  0  0  0  0  0  0  0  0  0
   -3.6486    4.6089    0.4968 C   0  0  0  0  0  0  0  0  0  0  0  0
   -3.5108    5.5950   -0.6214 C   0  0  2  0  0  0  0  0  0  0  0  0
   -4.7370    5.9356   -1.1893 O   0  0  0  0  0  0  0  0  0  0  0  0
   -2.5540    5.1328   -1.6915 C   0  0  0  0  0  0  0  0  0  0  0  0
   -1.8491    3.8994   -1.1916 C   0  0  0  0  0  0  0  0  0  0  0  0
   -2.6290    0.4386   -0.0636 C   0  0  0  0  0  0  0  0  0  0  0  0
   -3.9173    0.0889    0.0918 N   0  0  0  0  0  0  0  0  0  0  0  0
    0.8974   -0.3525    0.2113 C   0  0  0  0  0  0  0  0  0  0  0  0
    1.2706   -1.0041    1.3722 C   0  0  0  0  0  0  0  0  0  0  0  0
    2.5464   -1.5026    1.5359 C   0  0  0  0  0  0  0  0  0  0  0  0
    3.5162   -1.3830    0.5635 C   0  0  0  0  0  0  0  0  0  0  0  0
    3.1538   -0.7347   -0.5978 C   0  0  0  0  0  0  0  0  0  0  0  0
    1.8813   -0.2361   -0.7642 C   0  0  0  0  0  0  0  0  0  0  0  0
    5.1350   -2.0157    0.7701 S   0  0  0  0  0  0  0  0  0  0  0  0
    5.0387   -3.2608    1.5884 O   0  0  0  0  0  0  0  0  0  0  0  0
    5.6616   -2.3292   -0.6085 O   0  0  0  0  0  0  0  0  0  0  0  0
    6.1241   -0.8259    1.4789 N   0  0  0  0  0  0  0  0  0  0  0  0
    6.2809    0.3644    0.7189 C   0  0  0  0  0  0  0  0  0  0  0  0
    7.1910    0.1735   -0.4299 C   0  0  0  0  0  0  0  0  0  0  0  0
    8.3266   -0.6215   -0.2469 N   0  0  0  0  0  0  0  0  0  0  0  0
    8.9912   -1.0780   -1.4150 C   0  0  0  0  0  0  0  0  0  0  0  0
    8.4448   -1.4101    0.9014 C   0  0  0  0  0  0  0  0  0  0  0  0
    7.3970   -1.2749    1.9368 C   0  0  0  0  0  0  0  0  0  0  0  0
   -8.1341   -4.3104   -0.0719 H   0  0  0  0  0  0  0  0  0  0  0  0
   -8.0938   -4.4082   -1.8564 H   0  0  0  0  0  0  0  0  0  0  0  0
   -8.1329   -2.7959   -1.1172 H   0  0  0  0  0  0  0  0  0  0  0  0
   -5.9062   -4.7916   -1.4887 H   0  0  0  0  0  0  0  0  0  0  0  0
   -5.7922   -3.0194   -1.5314 H   0  0  0  0  0  0  0  0  0  0  0  0
   -4.6047   -4.0954    0.3636 H   0  0  0  0  0  0  0  0  0  0  0  0
   -6.1014   -4.8647    0.8866 H   0  0  0  0  0  0  0  0  0  0  0  0
   -7.1487   -2.7235    1.4905 H   0  0  0  0  0  0  0  0  0  0  0  0
   -5.5397   -2.8674    2.2393 H   0  0  0  0  0  0  0  0  0  0  0  0
   -6.3633   -0.7695    0.4676 H   0  0  0  0  0  0  0  0  0  0  0  0
   -1.1919   -2.3576    1.0348 H   0  0  0  0  0  0  0  0  0  0  0  0
   -0.0271    2.1816   -0.7936 H   0  0  0  0  0  0  0  0  0  0  0  0
   -3.3343    2.5330   -1.9373 H   0  0  0  0  0  0  0  0  0  0  0  0
   -3.7342    2.5381    0.9279 H   0  0  0  0  0  0  0  0  0  0  0  0
   -4.8602    3.0596   -0.3544 H   0  0  0  0  0  0  0  0  0  0  0  0
   -2.7697    4.7157    1.1698 H   0  0  0  0  0  0  0  0  0  0  0  0
   -4.5470    4.8905    1.0849 H   0  0  0  0  0  0  0  0  0  0  0  0
   -3.0801    6.5334   -0.1866 H   0  0  0  0  0  0  0  0  0  0  0  0
   -5.1101    6.7321   -0.7469 H   0  0  0  0  0  0  0  0  0  0  0  0
   -3.0624    4.9157   -2.6536 H   0  0  0  0  0  0  0  0  0  0  0  0
   -1.7713    5.8857   -1.9237 H   0  0  0  0  0  0  0  0  0  0  0  0
   -1.0770    3.5441   -1.9034 H   0  0  0  0  0  0  0  0  0  0  0  0
   -1.3869    4.1008   -0.2076 H   0  0  0  0  0  0  0  0  0  0  0  0
    0.5094   -1.1042    2.1534 H   0  0  0  0  0  0  0  0  0  0  0  0
    2.7986   -2.0057    2.4585 H   0  0  0  0  0  0  0  0  0  0  0  0
    3.8832   -0.6131   -1.3990 H   0  0  0  0  0  0  0  0  0  0  0  0
    1.6066    0.2717   -1.6806 H   0  0  0  0  0  0  0  0  0  0  0  0
    6.6903    1.1520    1.3841 H   0  0  0  0  0  0  0  0  0  0  0  0
    5.2761    0.6644    0.3200 H   0  0  0  0  0  0  0  0  0  0  0  0
    7.5367    1.2032   -0.7481 H   0  0  0  0  0  0  0  0  0  0  0  0
    6.6121   -0.1794   -1.3338 H   0  0  0  0  0  0  0  0  0  0  0  0
    8.4210   -0.7539   -2.3120 H   0  0  0  0  0  0  0  0  0  0  0  0
   10.0643   -0.8039   -1.4707 H   0  0  0  0  0  0  0  0  0  0  0  0
    8.9404   -2.2019   -1.4235 H   0  0  0  0  0  0  0  0  0  0  0  0
    9.4460   -1.2147    1.3851 H   0  0  0  0  0  0  0  0  0  0  0  0
    8.5016   -2.4984    0.6109 H   0  0  0  0  0  0  0  0  0  0  0  0
    7.2319   -2.2628    2.4580 H   0  0  0  0  0  0  0  0  0  0  0  0
    7.7266   -0.5843    2.7521 H   0  0  0  0  0  0  0  0  0  0  0  0
  1  2  1  0
  2  3  1  0
  3  4  1  0
  4  5  1  0
  5  6  1  0
  6  7  2  0
  7  8  1  0
  8  9  2  0
  9 10  1  0
 10 11  2  0
 11 12  1  0
 12 13  1  0
 13 14  1  0
 14 15  1  0
 15 16  1  0
 16 17  1  0
 16 18  1  0
 18 19  1  0
 12 20  1  0
 20 21  2  0
 10 22  1  0
 22 23  2  0
 23 24  1  0
 24 25  2  0
 25 26  1  0
 26 27  2  0
 25 28  1  0
 28 29  2  0
 28 30  2  0
 28 31  1  0
 31 32  1  0
 32 33  1  0
 33 34  1  0
 34 35  1  0
 34 36  1  0
 36 37  1  0
 21  6  1  0
 27 22  1  0
 37 31  1  0
 20  9  1  0
 19 13  1  0
  1 38  1  0
  1 39  1  0
  1 40  1  0
  2 41  1  0
  2 42  1  0
  3 43  1  0
  3 44  1  0
  4 45  1  0
  4 46  1  0
  5 47  1  0
  8 48  1  0
 11 49  1  0
 13 50  1  6
 14 51  1  0
 14 52  1  0
 15 53  1  0
 15 54  1  0
 16 55  1  1
 17 56  1  0
 18 57  1  0
 18 58  1  0
 19 59  1  0
 19 60  1  0
 23 61  1  0
 24 62  1  0
 26 63  1  0
 27 64  1  0
 32 65  1  0
 32 66  1  0
 33 67  1  0
 33 68  1  0
 35 69  1  0
 35 70  1  0
 35 71  1  0
 36 72  1  0
 36 73  1  0
 37 74  1  0
 37 75  1  0
M  END
$$$$
[H]c1nc([H])c(Cl)c(N([H])C(=O)c2c([H])c([H])c(OC([H])([H])[H])n3nc(C(F)(F)F)c([H])c23)c1Cl
     RDKit          3D

 35 37  0  0  0  0  0  0  0  0999 V2000
   -4.1245   -2.7251   -1.8746 C   0  0  0  0  0  0  0  0  0  0  0  0
   -3.9318   -1.6283   -0.9864 O   0  0  0  0  0  0  0  0  0  0  0  0
   -2.6663   -1.2476   -0.5414 C   0  0  0  0  0  0  0  0  0  0  0  0
   -1.5119   -1.9297   -0.8978 C   0  0  0  0  0  0  0  0  0  0  0  0
   -0.2813   -1.5451   -0.4567 C   0  0  0  0  0  0  0  0  0  0  0  0
   -0.1702   -0.4362    0.3818 C   0  0  0  0  0  0  0  0  0  0  0  0
    1.1785    0.0257    0.7346 C   0  0  0  0  0  0  0  0  0  0  0  0
    1.4784    0.4469    1.8626 O   0  0  0  0  0  0  0  0  0  0  0  0
    2.1385   -0.0260   -0.3037 N   0  0  0  0  0  0  0  0  0  0  0  0
    3.4786    0.3351   -0.3086 C   0  0  0  0  0  0  0  0  0  0  0  0
    3.9184    1.5815   -0.7379 C   0  0  0  0  0  0  0  0  0  0  0  0
    2.7342    2.8153   -1.1991 Cl  0  0  0  0  0  0  0  0  0  0  0  0
    5.2690    1.8806   -0.8222 C   0  0  0  0  0  0  0  0  0  0  0  0
    6.1073    0.9111   -0.4631 N   0  0  0  0  0  0  0  0  0  0  0  0
    5.7473   -0.2906   -0.0438 C   0  0  0  0  0  0  0  0  0  0  0  0
    4.4232   -0.6332    0.0508 C   0  0  0  0  0  0  0  0  0  0  0  0
    3.9039   -2.2238    0.5894 Cl  0  0  0  0  0  0  0  0  0  0  0  0
   -1.3023    0.2304    0.7374 C   0  0  0  0  0  0  0  0  0  0  0  0
   -1.5708    1.3627    1.4987 C   0  0  0  0  0  0  0  0  0  0  0  0
   -2.9130    1.6237    1.4894 C   0  0  0  0  0  0  0  0  0  0  0  0
   -3.4450    0.6373    0.7188 N   0  0  0  0  0  0  0  0  0  0  0  0
   -2.5220   -0.1786    0.2765 N   0  0  0  0  0  0  0  0  0  0  0  0
   -3.6824    2.7194    2.1333 C   0  0  0  0  0  0  0  0  0  0  0  0
   -4.8829    2.8478    1.4519 F   0  0  0  0  0  0  0  0  0  0  0  0
   -2.9437    3.8618    2.1129 F   0  0  0  0  0  0  0  0  0  0  0  0
   -4.0553    2.3816    3.4417 F   0  0  0  0  0  0  0  0  0  0  0  0
   -3.4696   -3.5377   -1.5372 H   0  0  0  0  0  0  0  0  0  0  0  0
   -5.1700   -3.0211   -1.9750 H   0  0  0  0  0  0  0  0  0  0  0  0
   -3.8262   -2.3355   -2.9152 H   0  0  0  0  0  0  0  0  0  0  0  0
   -1.6165   -2.8185   -1.5539 H   0  0  0  0  0  0  0  0  0  0  0  0
    0.6479   -2.0424   -0.6958 H   0  0  0  0  0  0  0  0  0  0  0  0
    1.7300   -0.4276   -1.2465 H   0  0  0  0  0  0  0  0  0  0  0  0
    5.6289    2.8324   -1.1544 H   0  0  0  0  0  0  0  0  0  0  0  0
    6.4924   -1.0707    0.2118 H   0  0  0  0  0  0  0  0  0  0  0  0
   -0.7907    1.9233    2.0216 H   0  0  0  0  0  0  0  0  0  0  0  0
  1  2  1  0
  2  3  1  0
  3  4  2  0
  4  5  1  0
  5  6  2  0
  6  7  1  0
  7  8  2  0
  7  9  1  0
  9 10  1  0
 10 11  2  0
 11 12  1  0
 11 13  1  0
 13 14  2  0
 14 15  1  0
 15 16  2  0
 16 17  1  0
  6 18  1  0
 18 19  2  0
 19 20  1  0
 20 21  2  0
 21 22  1  0
 20 23  1  0
 23 24  1  0
 23 25  1  0
 23 26  1  0
 22  3  1  0
 16 10  1  0
 22 18  1  0
  1 27  1  0
  1 28  1  0
  1 29  1  0
  4 30  1  0
  5 31  1  0
  9 32  1  0
 13 33  1  0
 15 34  1  0
 19 35  1  0
M  END
$$$$
[H]c1c([H])c([H])c(/C(=C2/C(=O)N([H])c3c([H])c(C(=O)OC([H])([H])[H])c([H])c([H])c32)N([H])c2c([H])c([H])c(N(C(=O)C([H])([H])N3C([H])([H])C([H])([H])N(C([H])([H])[H])C([H])([H])C3([H])[H])C([H])([H])[H])c([H])c2[H])c([H])c1[H]
     RDKit          3D

 73 77  0  0  0  0  0  0  0  0999 V2000
   -9.6259    2.7362   -3.1505 C   0  0  0  0  0  0  0  0  0  0  0  0
   -8.5822    2.1423   -2.4234 O   0  0  0  0  0  0  0  0  0  0  0  0
   -7.8814    1.0256   -2.8716 C   0  0  0  0  0  0  0  0  0  0  0  0
   -8.1814    0.5157   -3.9683 O   0  0  0  0  0  0  0  0  0  0  0  0
   -6.8215    0.5153   -2.0123 C   0  0  0  0  0  0  0  0  0  0  0  0
   -6.4947    1.0717   -0.8140 C   0  0  0  0  0  0  0  0  0  0  0  0
   -5.4728    0.5613   -0.0049 C   0  0  0  0  0  0  0  0  0  0  0  0
   -4.7972   -0.5386   -0.4611 C   0  0  0  0  0  0  0  0  0  0  0  0
   -3.6924   -1.2784    0.1218 C   0  0  0  0  0  0  0  0  0  0  0  0
   -3.1406   -1.1461    1.2984 C   0  0  0  0  0  0  0  0  0  0  0  0
   -2.0489   -2.0001    1.6122 N   0  0  0  0  0  0  0  0  0  0  0  0
   -0.6955   -1.7404    1.2757 C   0  0  0  0  0  0  0  0  0  0  0  0
   -0.3049   -0.6232    0.5755 C   0  0  0  0  0  0  0  0  0  0  0  0
    1.0409   -0.3967    0.2619 C   0  0  0  0  0  0  0  0  0  0  0  0
    1.9996   -1.2983    0.6546 C   0  0  0  0  0  0  0  0  0  0  0  0
    1.6109   -2.4148    1.3542 C   0  0  0  0  0  0  0  0  0  0  0  0
    0.2717   -2.6400    1.6660 C   0  0  0  0  0  0  0  0  0  0  0  0
    3.3997   -1.0553    0.3267 N   0  0  0  0  0  0  0  0  0  0  0  0
    4.2743   -1.0443    1.4779 C   0  0  0  0  0  0  0  0  0  0  0  0
    3.8217   -0.9048   -0.9850 C   0  0  0  0  0  0  0  0  0  0  0  0
    2.8737   -1.1517   -1.8665 O   0  0  0  0  0  0  0  0  0  0  0  0
    5.0990   -0.5334   -1.5790 C   0  0  0  0  0  0  0  0  0  0  0  0
    6.1819   -0.1535   -0.7808 N   0  0  0  0  0  0  0  0  0  0  0  0
    6.1479    1.1188   -0.1443 C   0  0  0  0  0  0  0  0  0  0  0  0
    7.0593    2.1225   -0.8152 C   0  0  0  0  0  0  0  0  0  0  0  0
    8.4000    1.6684   -0.9414 N   0  0  0  0  0  0  0  0  0  0  0  0
    9.2089    2.3796   -1.8600 C   0  0  0  0  0  0  0  0  0  0  0  0
    8.6125    0.2731   -0.8355 C   0  0  0  0  0  0  0  0  0  0  0  0
    7.4754   -0.6243   -1.1164 C   0  0  0  0  0  0  0  0  0  0  0  0
   -3.6419   -0.3131    2.3473 C   0  0  0  0  0  0  0  0  0  0  0  0
   -3.0180    0.7830    2.8957 C   0  0  0  0  0  0  0  0  0  0  0  0
   -3.5184    1.4571    3.9801 C   0  0  0  0  0  0  0  0  0  0  0  0
   -4.6869    1.0413    4.5595 C   0  0  0  0  0  0  0  0  0  0  0  0
   -5.3502   -0.0483    4.0505 C   0  0  0  0  0  0  0  0  0  0  0  0
   -4.8397   -0.7104    2.9694 C   0  0  0  0  0  0  0  0  0  0  0  0
   -3.3759   -2.3505   -0.8690 C   0  0  0  0  0  0  0  0  0  0  0  0
   -2.4929   -3.2072   -0.7677 O   0  0  0  0  0  0  0  0  0  0  0  0
   -4.2699   -2.2220   -1.9626 N   0  0  0  0  0  0  0  0  0  0  0  0
   -5.1182   -1.1186   -1.6868 C   0  0  0  0  0  0  0  0  0  0  0  0
   -6.1305   -0.5894   -2.4585 C   0  0  0  0  0  0  0  0  0  0  0  0
   -9.4840    3.8397   -3.1260 H   0  0  0  0  0  0  0  0  0  0  0  0
  -10.6287    2.4400   -2.7994 H   0  0  0  0  0  0  0  0  0  0  0  0
   -9.5092    2.4513   -4.2231 H   0  0  0  0  0  0  0  0  0  0  0  0
   -7.0554    1.9338   -0.4979 H   0  0  0  0  0  0  0  0  0  0  0  0
   -5.2980    1.1170    0.8877 H   0  0  0  0  0  0  0  0  0  0  0  0
   -2.3225   -2.8839    2.1371 H   0  0  0  0  0  0  0  0  0  0  0  0
   -1.0852    0.0650    0.2820 H   0  0  0  0  0  0  0  0  0  0  0  0
    1.2956    0.4918   -0.2875 H   0  0  0  0  0  0  0  0  0  0  0  0
    2.3988   -3.1019    1.6458 H   0  0  0  0  0  0  0  0  0  0  0  0
   -0.0090   -3.5256    2.2172 H   0  0  0  0  0  0  0  0  0  0  0  0
    4.3098   -0.0784    2.0033 H   0  0  0  0  0  0  0  0  0  0  0  0
    5.2439   -1.4894    1.2146 H   0  0  0  0  0  0  0  0  0  0  0  0
    3.8678   -1.7578    2.2758 H   0  0  0  0  0  0  0  0  0  0  0  0
    4.9292    0.2743   -2.3603 H   0  0  0  0  0  0  0  0  0  0  0  0
    5.4335   -1.4380   -2.1821 H   0  0  0  0  0  0  0  0  0  0  0  0
    6.5430    1.0192    0.8973 H   0  0  0  0  0  0  0  0  0  0  0  0
    5.1051    1.4958   -0.1442 H   0  0  0  0  0  0  0  0  0  0  0  0
    7.0209    3.0816   -0.2641 H   0  0  0  0  0  0  0  0  0  0  0  0
    6.6418    2.3090   -1.8254 H   0  0  0  0  0  0  0  0  0  0  0  0
    9.5515    1.7468   -2.6801 H   0  0  0  0  0  0  0  0  0  0  0  0
    8.6875    3.2979   -2.1848 H   0  0  0  0  0  0  0  0  0  0  0  0
   10.1414    2.7025   -1.3095 H   0  0  0  0  0  0  0  0  0  0  0  0
    9.4640   -0.0087   -1.5031 H   0  0  0  0  0  0  0  0  0  0  0  0
    8.9967    0.0613    0.2048 H   0  0  0  0  0  0  0  0  0  0  0  0
    7.6214   -1.6038   -0.5691 H   0  0  0  0  0  0  0  0  0  0  0  0
    7.4535   -0.9472   -2.2000 H   0  0  0  0  0  0  0  0  0  0  0  0
   -2.1060    1.1196    2.4536 H   0  0  0  0  0  0  0  0  0  0  0  0
   -3.0267    2.3165    4.4077 H   0  0  0  0  0  0  0  0  0  0  0  0
   -5.1025    1.5578    5.4176 H   0  0  0  0  0  0  0  0  0  0  0  0
   -6.2843   -0.3557    4.5382 H   0  0  0  0  0  0  0  0  0  0  0  0
   -5.4043   -1.5664    2.6063 H   0  0  0  0  0  0  0  0  0  0  0  0
   -4.3057   -2.8330   -2.8311 H   0  0  0  0  0  0  0  0  0  0  0  0
   -6.3795   -1.0398   -3.4080 H   0  0  0  0  0  0  0  0  0  0  0  0
  1  2  1  0
  2  3  1  0
  3  4  2  0
  3  5  1  0
  5  6  2  0
  6  7  1  0
  7  8  2  0
  8  9  1  0
  9 10  2  0
 10 11  1  0
 11 12  1  0
 12 13  2  0
 13 14  1  0
 14 15  2  0
 15 16  1  0
 16 17  2  0
 15 18  1  0
 18 19  1  0
 18 20  1  0
 20 21  2  0
 20 22  1  0
 22 23  1  0
 23 24  1  0
 24 25  1  0
 25 26  1  0
 26 27  1  0
 26 28  1  0
 28 29  1  0
 10 30  1  0
 30 31  2  0
 31 32  1  0
 32 33  2  0
 33 34  1  0
 34 35  2  0
  9 36  1  0
 36 37  2  0
 36 38  1  0
 38 39  1  0
 39 40  2  0
 40  5  1  0
 39  8  1  0
 17 12  1  0
 29 23  1  0
 35 30  1  0
  1 41  1  0
  1 42  1  0
  1 43  1  0
  6 44  1  0
  7 45  1  0
 11 46  1  0
 13 47  1  0
 14 48  1  0
 16 49  1  0
 17 50  1  0
 19 51  1  0
 19 52  1  0
 19 53  1  0
 22 54  1  0
 22 55  1  0
 24 56  1  0
 24 57  1  0
 25 58  1  0
 25 59  1  0
 27 60  1  0
 27 61  1  0
 27 62  1  0
 28 63  1  0
 28 64  1  0
 29 65  1  0
 29 66  1  0
 31 67  1  0
 32 68  1  0
 33 69  1  0
 34 70  1  0
 35 71  1  0
 38 72  1  0
 40 73  1  0
M  END
$$$$
[H]OC(=O)C([H])([H])[C@@]([H])(C(=O)N1C([H])([H])C([H])([H])C([H])([H])[C@@]1([H])C(=O)N([H])[C@]([H])(C(=O)N([H])[C@]([H])(C(=O)N([H])[H])C([H])([H])c1c([H])c([H])c([H])c([H])c1[H])C([H])(C([H])([H])[H])C([H])([H])[H])N([H])C(=O)[C@@]([H])(N([H])C(=O)[C@@]([H])(N([H])C(=O)c1c(O[H])c2c([H])c([H])c([H])c([H])c2n1[H])C([H])([H])c1c([H])c([H])c([H])c([H])c1[H])C([H])([H])C([H])(C([H])([H])[H])C([H])([H])[H]
     RDKit          3D

123127  0  0  0  0  0  0  0  0999 V2000
   -2.6835   -1.1124   -4.9855 C   0  0  0  0  0  0  0  0  0  0  0  0
   -3.1018   -0.0814   -3.9130 C   0  0  0  0  0  0  0  0  0  0  0  0
   -4.3127    0.6118   -4.4663 C   0  0  0  0  0  0  0  0  0  0  0  0
   -3.3073   -0.8668   -2.6719 C   0  0  0  0  0  0  0  0  0  0  0  0
   -3.7165   -0.0955   -1.4396 C   0  0  2  0  0  0  0  0  0  0  0  0
   -4.9727    0.5991   -1.5821 N   0  0  0  0  0  0  0  0  0  0  0  0
   -6.1707    0.1055   -0.9815 C   0  0  0  0  0  0  0  0  0  0  0  0
   -6.0013   -0.9846   -0.3162 O   0  0  0  0  0  0  0  0  0  0  0  0
   -7.5027    0.7033   -1.0605 C   0  0  2  0  0  0  0  0  0  0  0  0
   -7.6432    2.1291   -0.6969 C   0  0  0  0  0  0  0  0  0  0  0  0
   -7.2661    2.5148    0.6605 C   0  0  0  0  0  0  0  0  0  0  0  0
   -5.9953    2.9488    0.9513 C   0  0  0  0  0  0  0  0  0  0  0  0
   -5.6716    3.3026    2.2524 C   0  0  0  0  0  0  0  0  0  0  0  0
   -6.5902    3.2377    3.2961 C   0  0  0  0  0  0  0  0  0  0  0  0
   -7.8559    2.8032    2.9897 C   0  0  0  0  0  0  0  0  0  0  0  0
   -8.1863    2.4455    1.6801 C   0  0  0  0  0  0  0  0  0  0  0  0
   -8.4005   -0.1687   -0.2786 N   0  0  0  0  0  0  0  0  0  0  0  0
   -9.1698   -1.1224   -0.9212 C   0  0  0  0  0  0  0  0  0  0  0  0
   -9.0306   -1.1757   -2.2020 O   0  0  0  0  0  0  0  0  0  0  0  0
  -10.0999   -2.0660   -0.3461 C   0  0  0  0  0  0  0  0  0  0  0  0
  -10.7746   -3.0101   -1.0518 N   0  0  0  0  0  0  0  0  0  0  0  0
  -11.5411   -3.7730   -0.2869 C   0  0  0  0  0  0  0  0  0  0  0  0
  -12.3966   -4.8482   -0.5396 C   0  0  0  0  0  0  0  0  0  0  0  0
  -13.0748   -5.4612    0.4774 C   0  0  0  0  0  0  0  0  0  0  0  0
  -12.9193   -5.0183    1.7809 C   0  0  0  0  0  0  0  0  0  0  0  0
  -12.0721   -3.9565    2.0079 C   0  0  0  0  0  0  0  0  0  0  0  0
  -11.3877   -3.3362    0.9933 C   0  0  0  0  0  0  0  0  0  0  0  0
  -10.4730   -2.2493    0.9744 C   0  0  0  0  0  0  0  0  0  0  0  0
  -10.1246   -1.6080    2.1060 O   0  0  0  0  0  0  0  0  0  0  0  0
   -2.6193    0.7197   -0.9023 C   0  0  0  0  0  0  0  0  0  0  0  0
   -2.7932    1.9529   -0.7585 O   0  0  0  0  0  0  0  0  0  0  0  0
   -1.3650    0.1900   -0.5247 N   0  0  0  0  0  0  0  0  0  0  0  0
   -0.2884    0.9985    0.0084 C   0  0  1  0  0  0  0  0  0  0  0  0
   -0.3335    0.6819    1.5263 C   0  0  0  0  0  0  0  0  0  0  0  0
   -1.6318    1.0519    2.0937 C   0  0  0  0  0  0  0  0  0  0  0  0
   -2.6241    0.0957    2.2090 O   0  0  0  0  0  0  0  0  0  0  0  0
   -1.8786    2.2156    2.4822 O   0  0  0  0  0  0  0  0  0  0  0  0
    1.0338    0.6906   -0.5293 C   0  0  0  0  0  0  0  0  0  0  0  0
    1.1360   -0.3230   -1.2835 O   0  0  0  0  0  0  0  0  0  0  0  0
    2.2019    1.4359   -0.2711 N   0  0  0  0  0  0  0  0  0  0  0  0
    2.2433    2.6545    0.5248 C   0  0  0  0  0  0  0  0  0  0  0  0
    3.4609    3.4136    0.0190 C   0  0  0  0  0  0  0  0  0  0  0  0
    4.1056    2.5637   -1.0440 C   0  0  0  0  0  0  0  0  0  0  0  0
    3.5792    1.1591   -0.7167 C   0  0  1  0  0  0  0  0  0  0  0  0
    4.3649    0.5505    0.3640 C   0  0  0  0  0  0  0  0  0  0  0  0
    3.8751    0.4869    1.5174 O   0  0  0  0  0  0  0  0  0  0  0  0
    5.6509    0.0403    0.1452 N   0  0  0  0  0  0  0  0  0  0  0  0
    6.4466   -0.5445    1.2147 C   0  0  1  0  0  0  0  0  0  0  0  0
    6.5333   -2.0561    1.0617 C   0  0  0  0  0  0  0  0  0  0  0  0
    5.1873   -2.7158    1.0919 C   0  0  0  0  0  0  0  0  0  0  0  0
    7.3825   -2.5046   -0.0736 C   0  0  0  0  0  0  0  0  0  0  0  0
    7.8354   -0.0398    1.0771 C   0  0  0  0  0  0  0  0  0  0  0  0
    8.0862    0.6386    0.0604 O   0  0  0  0  0  0  0  0  0  0  0  0
    8.8444   -0.2913    2.0315 N   0  0  0  0  0  0  0  0  0  0  0  0
   10.1724    0.2476    1.8235 C   0  0  1  0  0  0  0  0  0  0  0  0
   10.8226   -0.5301    0.7474 C   0  0  0  0  0  0  0  0  0  0  0  0
   12.1683   -0.1576    0.3417 C   0  0  0  0  0  0  0  0  0  0  0  0
   13.3027   -0.5681    0.9644 C   0  0  0  0  0  0  0  0  0  0  0  0
   14.5447   -0.1927    0.4736 C   0  0  0  0  0  0  0  0  0  0  0  0
   14.6634    0.6026   -0.6534 C   0  0  0  0  0  0  0  0  0  0  0  0
   13.5168    1.0310   -1.3011 C   0  0  0  0  0  0  0  0  0  0  0  0
   12.3104    0.6488   -0.7995 C   0  0  0  0  0  0  0  0  0  0  0  0
   10.1364    1.6888    1.7674 C   0  0  0  0  0  0  0  0  0  0  0  0
   11.2285    2.5646    1.5006 N   0  0  0  0  0  0  0  0  0  0  0  0
    9.0363    2.3006    1.9736 O   0  0  0  0  0  0  0  0  0  0  0  0
   -2.1687   -0.5232   -5.7835 H   0  0  0  0  0  0  0  0  0  0  0  0
   -2.0782   -1.9194   -4.5662 H   0  0  0  0  0  0  0  0  0  0  0  0
   -3.6045   -1.5009   -5.4658 H   0  0  0  0  0  0  0  0  0  0  0  0
   -2.2235    0.6181   -3.8537 H   0  0  0  0  0  0  0  0  0  0  0  0
   -4.2942    0.4919   -5.5879 H   0  0  0  0  0  0  0  0  0  0  0  0
   -4.2806    1.7135   -4.3209 H   0  0  0  0  0  0  0  0  0  0  0  0
   -5.2464    0.1393   -4.1467 H   0  0  0  0  0  0  0  0  0  0  0  0
   -2.4288   -1.4842   -2.4617 H   0  0  0  0  0  0  0  0  0  0  0  0
   -4.1380   -1.5970   -2.8887 H   0  0  0  0  0  0  0  0  0  0  0  0
   -3.9045   -0.9174   -0.6699 H   0  0  0  0  0  0  0  0  0  0  0  0
   -5.0251    1.4763   -2.1084 H   0  0  0  0  0  0  0  0  0  0  0  0
   -7.8570    0.5979   -2.1335 H   0  0  0  0  0  0  0  0  0  0  0  0
   -8.7002    2.4426   -0.9429 H   0  0  0  0  0  0  0  0  0  0  0  0
   -7.0424    2.7159   -1.4594 H   0  0  0  0  0  0  0  0  0  0  0  0
   -5.2228    3.0363    0.2030 H   0  0  0  0  0  0  0  0  0  0  0  0
   -4.6626    3.6367    2.4405 H   0  0  0  0  0  0  0  0  0  0  0  0
   -6.2967    3.5272    4.3168 H   0  0  0  0  0  0  0  0  0  0  0  0
   -8.5797    2.7521    3.8003 H   0  0  0  0  0  0  0  0  0  0  0  0
   -9.2130    2.1168    1.5579 H   0  0  0  0  0  0  0  0  0  0  0  0
   -8.4025   -0.0139    0.7273 H   0  0  0  0  0  0  0  0  0  0  0  0
  -10.7122   -3.1445   -2.1057 H   0  0  0  0  0  0  0  0  0  0  0  0
  -12.5019   -5.1763   -1.5538 H   0  0  0  0  0  0  0  0  0  0  0  0
  -13.7511   -6.3141    0.2913 H   0  0  0  0  0  0  0  0  0  0  0  0
  -13.4752   -5.5310    2.5548 H   0  0  0  0  0  0  0  0  0  0  0  0
  -11.9522   -3.6019    3.0368 H   0  0  0  0  0  0  0  0  0  0  0  0
   -9.5544   -0.8775    2.3307 H   0  0  0  0  0  0  0  0  0  0  0  0
   -1.2152   -0.8220   -0.6336 H   0  0  0  0  0  0  0  0  0  0  0  0
   -0.5303    2.0452   -0.0737 H   0  0  0  0  0  0  0  0  0  0  0  0
   -0.2234   -0.4328    1.6032 H   0  0  0  0  0  0  0  0  0  0  0  0
    0.5064    1.1718    2.0033 H   0  0  0  0  0  0  0  0  0  0  0  0
   -2.4536   -0.7373    2.7650 H   0  0  0  0  0  0  0  0  0  0  0  0
    1.3654    3.3010    0.3366 H   0  0  0  0  0  0  0  0  0  0  0  0
    2.4159    2.4412    1.5983 H   0  0  0  0  0  0  0  0  0  0  0  0
    4.1729    3.6217    0.8631 H   0  0  0  0  0  0  0  0  0  0  0  0
    3.2251    4.3959   -0.4040 H   0  0  0  0  0  0  0  0  0  0  0  0
    5.1877    2.6120   -0.8966 H   0  0  0  0  0  0  0  0  0  0  0  0
    3.8519    2.8823   -2.0688 H   0  0  0  0  0  0  0  0  0  0  0  0
    3.5280    0.6063   -1.6550 H   0  0  0  0  0  0  0  0  0  0  0  0
    6.0645    0.0773   -0.8027 H   0  0  0  0  0  0  0  0  0  0  0  0
    6.0151   -0.3769    2.2090 H   0  0  0  0  0  0  0  0  0  0  0  0
    7.0579   -2.3982    2.0037 H   0  0  0  0  0  0  0  0  0  0  0  0
    4.7631   -2.8369    2.1095 H   0  0  0  0  0  0  0  0  0  0  0  0
    5.3291   -3.7620    0.6888 H   0  0  0  0  0  0  0  0  0  0  0  0
    4.4646   -2.2354    0.3766 H   0  0  0  0  0  0  0  0  0  0  0  0
    8.4665   -2.5546    0.2248 H   0  0  0  0  0  0  0  0  0  0  0  0
    7.2913   -1.8365   -0.9630 H   0  0  0  0  0  0  0  0  0  0  0  0
    7.1252   -3.5205   -0.4111 H   0  0  0  0  0  0  0  0  0  0  0  0
    8.6176   -0.8580    2.8660 H   0  0  0  0  0  0  0  0  0  0  0  0
   10.7744    0.0365    2.8042 H   0  0  0  0  0  0  0  0  0  0  0  0
   10.1266   -0.6885   -0.1163 H   0  0  0  0  0  0  0  0  0  0  0  0
   10.9237   -1.5957    1.1636 H   0  0  0  0  0  0  0  0  0  0  0  0
   13.2578   -1.1840    1.8439 H   0  0  0  0  0  0  0  0  0  0  0  0
   15.4708   -0.4884    0.9278 H   0  0  0  0  0  0  0  0  0  0  0  0
   15.6243    0.9060   -1.0528 H   0  0  0  0  0  0  0  0  0  0  0  0
   13.5502    1.6566   -2.1942 H   0  0  0  0  0  0  0  0  0  0  0  0
   11.3997    0.9896   -1.3140 H   0  0  0  0  0  0  0  0  0  0  0  0
   11.1647    3.3286    0.8050 H   0  0  0  0  0  0  0  0  0  0  0  0
   12.1054    2.4250    2.0221 H   0  0  0  0  0  0  0  0  0  0  0  0
  1  2  1  0
  2  3  1  0
  2  4  1  0
  4  5  1  0
  5  6  1  0
  6  7  1  0
  7  8  2  0
  7  9  1  0
  9 10  1  0
 10 11  1  0
 11 12  2  0
 12 13  1  0
 13 14  2  0
 14 15  1  0
 15 16  2  0
  9 17  1  0
 17 18  1  0
 18 19  2  0
 18 20  1  0
 20 21  1  0
 21 22  1  0
 22 23  2  0
 23 24  1  0
 24 25  2  0
 25 26  1  0
 26 27  2  0
 27 28  1  0
 28 29  1  0
  5 30  1  0
 30 31  2  0
 30 32  1  0
 32 33  1  0
 33 34  1  0
 34 35  1  0
 35 36  1  0
 35 37  2  0
 33 38  1  0
 38 39  2  0
 38 40  1  0
 40 41  1  0
 41 42  1  0
 42 43  1  0
 43 44  1  0
 44 45  1  0
 45 46  2  0
 45 47  1  0
 47 48  1  0
 48 49  1  0
 49 50  1  0
 49 51  1  0
 48 52  1  0
 52 53  2  0
 52 54  1  0
 54 55  1  0
 55 56  1  0
 56 57  1  0
 57 58  2  0
 58 59  1  0
 59 60  2  0
 60 61  1  0
 61 62  2  0
 55 63  1  0
 63 64  1  0
 63 65  2  0
 16 11  1  0
 28 20  2  0
 44 40  1  0
 62 57  1  0
 27 22  1  0
  1 66  1  0
  1 67  1  0
  1 68  1  0
  2 69  1  0
  3 70  1  0
  3 71  1  0
  3 72  1  0
  4 73  1  0
  4 74  1  0
  5 75  1  1
  6 76  1  0
  9 77  1  6
 10 78  1  0
 10 79  1  0
 12 80  1  0
 13 81  1  0
 14 82  1  0
 15 83  1  0
 16 84  1  0
 17 85  1  0
 21 86  1  0
 23 87  1  0
 24 88  1  0
 25 89  1  0
 26 90  1  0
 29 91  1  0
 32 92  1  0
 33 93  1  1
 34 94  1  0
 34 95  1  0
 36 96  1  0
 41 97  1  0
 41 98  1  0
 42 99  1  0
 42100  1  0
 43101  1  0
 43102  1  0
 44103  1  6
 47104  1  0
 48105  1  1
 49106  1  0
 50107  1  0
 50108  1  0
 50109  1  0
 51110  1  0
 51111  1  0
 51112  1  0
 54113  1  0
 55114  1  1
 56115  1  0
 56116  1  0
 58117  1  0
 59118  1  0
 60119  1  0
 61120  1  0
 62121  1  0
 64122  1  0
 64123  1  0
M  END
$$$$
[H]N=C(N([H])[H])N([H])C([H])([H])C([H])([H])C([H])([H])[C@@]([H])(C(=O)N([H])[H])N([H])C(=O)[C@]([H])(N([H])C(=O)[C@@]([H])(N([H])C(=O)[C@]([H])(N([H])C(=O)[C@@]([H])(N([H])C(=O)[C@@]([H])(N([H])C(=O)[C@@]([H])(N([H])C(=O)C([H])(C([H])([H])O[H])C([H])([H])O[H])C([H])([H])O[H])C([H])([H])O[H])C([H])([H])O[H])C([H])([H])O[H])C([H])([H])O[H])C([H])([H])O[H]
     RDKit          3D

106105  0  0  0  0  0  0  0  0999 V2000
   13.2804   -1.7585    3.7374 N   0  0  0  0  0  0  0  0  0  0  0  0
   13.3412   -0.3423    3.7979 C   0  0  0  0  0  0  0  0  0  0  0  0
   13.8306    0.1762    4.8950 N   0  0  0  0  0  0  0  0  0  0  0  0
   12.9093    0.4887    2.7583 N   0  0  0  0  0  0  0  0  0  0  0  0
   12.5352   -0.1133    1.4763 C   0  0  0  0  0  0  0  0  0  0  0  0
   12.0815    0.9096    0.4883 C   0  0  0  0  0  0  0  0  0  0  0  0
   11.7276    0.3823   -0.8583 C   0  0  0  0  0  0  0  0  0  0  0  0
   10.6342   -0.6048   -0.9721 C   0  0  2  0  0  0  0  0  0  0  0  0
    9.3814   -0.0780   -0.4730 N   0  0  0  0  0  0  0  0  0  0  0  0
    8.1870   -0.1124   -1.2478 C   0  0  0  0  0  0  0  0  0  0  0  0
    8.2547   -0.6353   -2.3912 O   0  0  0  0  0  0  0  0  0  0  0  0
    6.8965    0.4108   -0.8183 C   0  0  1  0  0  0  0  0  0  0  0  0
    7.0968    1.9398   -0.6537 C   0  0  0  0  0  0  0  0  0  0  0  0
    7.4205    2.4977   -1.9024 O   0  0  0  0  0  0  0  0  0  0  0  0
    5.8356    0.1646   -1.7533 N   0  0  0  0  0  0  0  0  0  0  0  0
    4.4772   -0.0822   -1.4138 C   0  0  0  0  0  0  0  0  0  0  0  0
    4.1877   -0.0591   -0.1980 O   0  0  0  0  0  0  0  0  0  0  0  0
    3.4109   -0.3578   -2.3942 C   0  0  2  0  0  0  0  0  0  0  0  0
    3.8539   -0.2280   -3.8166 C   0  0  0  0  0  0  0  0  0  0  0  0
    4.0379    1.0705   -4.2319 O   0  0  0  0  0  0  0  0  0  0  0  0
    2.1553    0.2870   -2.1295 N   0  0  0  0  0  0  0  0  0  0  0  0
    0.9387   -0.3448   -1.7866 C   0  0  0  0  0  0  0  0  0  0  0  0
    0.8798   -1.6231   -1.6567 O   0  0  0  0  0  0  0  0  0  0  0  0
   -0.2962    0.4042   -1.5698 C   0  0  1  0  0  0  0  0  0  0  0  0
   -0.7873    1.0281   -2.9034 C   0  0  0  0  0  0  0  0  0  0  0  0
    0.1716    1.9089   -3.3235 O   0  0  0  0  0  0  0  0  0  0  0  0
   -1.3489   -0.5246   -1.1366 N   0  0  0  0  0  0  0  0  0  0  0  0
   -2.4494    0.0527   -0.4224 C   0  0  0  0  0  0  0  0  0  0  0  0
   -2.4659    1.2993   -0.2024 O   0  0  0  0  0  0  0  0  0  0  0  0
   -3.5719   -0.7765    0.0567 C   0  0  2  0  0  0  0  0  0  0  0  0
   -3.8690   -1.8040   -1.0572 C   0  0  0  0  0  0  0  0  0  0  0  0
   -4.0618   -1.1249   -2.2568 O   0  0  0  0  0  0  0  0  0  0  0  0
   -4.7378    0.0686    0.1093 N   0  0  0  0  0  0  0  0  0  0  0  0
   -5.7672    0.0320    1.0704 C   0  0  0  0  0  0  0  0  0  0  0  0
   -5.7124   -0.8048    2.0043 O   0  0  0  0  0  0  0  0  0  0  0  0
   -6.9259    0.9672    0.9974 C   0  0  2  0  0  0  0  0  0  0  0  0
   -6.4185    2.3851    0.9916 C   0  0  0  0  0  0  0  0  0  0  0  0
   -7.4521    3.2636    0.7355 O   0  0  0  0  0  0  0  0  0  0  0  0
   -7.9351    0.7434    1.9878 N   0  0  0  0  0  0  0  0  0  0  0  0
   -9.2330    0.2308    1.5748 C   0  0  0  0  0  0  0  0  0  0  0  0
   -9.4146   -0.0058    0.3661 O   0  0  0  0  0  0  0  0  0  0  0  0
  -10.3338   -0.0146    2.5331 C   0  0  2  0  0  0  0  0  0  0  0  0
   -9.9044   -0.9066    3.6425 C   0  0  0  0  0  0  0  0  0  0  0  0
  -11.0023   -1.0696    4.4963 O   0  0  0  0  0  0  0  0  0  0  0  0
  -11.4627   -0.5412    1.7576 N   0  0  0  0  0  0  0  0  0  0  0  0
  -12.6708    0.1697    1.5762 C   0  0  0  0  0  0  0  0  0  0  0  0
  -12.8041    1.2988    2.0884 O   0  0  0  0  0  0  0  0  0  0  0  0
  -13.7621   -0.4187    0.7867 C   0  0  0  0  0  0  0  0  0  0  0  0
  -14.3377   -1.6352    1.4713 C   0  0  0  0  0  0  0  0  0  0  0  0
  -13.3862   -2.6251    1.6641 O   0  0  0  0  0  0  0  0  0  0  0  0
  -14.8711    0.6339    0.6587 C   0  0  0  0  0  0  0  0  0  0  0  0
  -14.3649    1.7674    0.0235 O   0  0  0  0  0  0  0  0  0  0  0  0
   10.9517   -1.9618   -0.5099 C   0  0  0  0  0  0  0  0  0  0  0  0
   12.1753   -2.5659   -0.8713 N   0  0  0  0  0  0  0  0  0  0  0  0
   10.1705   -2.6652    0.2247 O   0  0  0  0  0  0  0  0  0  0  0  0
   12.8554   -2.3079    4.5072 H   0  0  0  0  0  0  0  0  0  0  0  0
   13.6666   -2.2564    2.9136 H   0  0  0  0  0  0  0  0  0  0  0  0
   14.1631   -0.4021    5.6918 H   0  0  0  0  0  0  0  0  0  0  0  0
   12.8471    1.5032    2.8624 H   0  0  0  0  0  0  0  0  0  0  0  0
   13.4246   -0.6961    1.1517 H   0  0  0  0  0  0  0  0  0  0  0  0
   11.6677   -0.8055    1.7087 H   0  0  0  0  0  0  0  0  0  0  0  0
   11.2150    1.4602    0.9328 H   0  0  0  0  0  0  0  0  0  0  0  0
   12.9061    1.6851    0.4061 H   0  0  0  0  0  0  0  0  0  0  0  0
   11.4140    1.2790   -1.5056 H   0  0  0  0  0  0  0  0  0  0  0  0
   12.6770   -0.0056   -1.3618 H   0  0  0  0  0  0  0  0  0  0  0  0
   10.5060   -0.7478   -2.1255 H   0  0  0  0  0  0  0  0  0  0  0  0
    9.3079    0.3485    0.4755 H   0  0  0  0  0  0  0  0  0  0  0  0
    6.6380    0.0595    0.1901 H   0  0  0  0  0  0  0  0  0  0  0  0
    6.1901    2.4325   -0.2927 H   0  0  0  0  0  0  0  0  0  0  0  0
    7.9174    2.1333    0.0631 H   0  0  0  0  0  0  0  0  0  0  0  0
    7.7804    3.3963   -1.7291 H   0  0  0  0  0  0  0  0  0  0  0  0
    6.0774    0.1738   -2.7808 H   0  0  0  0  0  0  0  0  0  0  0  0
    3.1851   -1.4776   -2.2716 H   0  0  0  0  0  0  0  0  0  0  0  0
    3.1079   -0.7743   -4.4532 H   0  0  0  0  0  0  0  0  0  0  0  0
    4.7890   -0.8082   -3.9540 H   0  0  0  0  0  0  0  0  0  0  0  0
    3.8348    1.1765   -5.1802 H   0  0  0  0  0  0  0  0  0  0  0  0
    2.1888    1.3498   -2.1968 H   0  0  0  0  0  0  0  0  0  0  0  0
   -0.2735    1.2557   -0.8862 H   0  0  0  0  0  0  0  0  0  0  0  0
   -1.0752    0.2551   -3.6164 H   0  0  0  0  0  0  0  0  0  0  0  0
   -1.6762    1.6010   -2.6065 H   0  0  0  0  0  0  0  0  0  0  0  0
    0.3858    1.7306   -4.2915 H   0  0  0  0  0  0  0  0  0  0  0  0
   -1.2598   -1.5322   -1.3577 H   0  0  0  0  0  0  0  0  0  0  0  0
   -3.3858   -1.3173    1.0068 H   0  0  0  0  0  0  0  0  0  0  0  0
   -3.0304   -2.4910   -1.1721 H   0  0  0  0  0  0  0  0  0  0  0  0
   -4.8276   -2.3271   -0.7967 H   0  0  0  0  0  0  0  0  0  0  0  0
   -4.9913   -0.8809   -2.4103 H   0  0  0  0  0  0  0  0  0  0  0  0
   -4.8229    0.7921   -0.6617 H   0  0  0  0  0  0  0  0  0  0  0  0
   -7.3746    0.7751   -0.0144 H   0  0  0  0  0  0  0  0  0  0  0  0
   -5.8565    2.6511    1.9125 H   0  0  0  0  0  0  0  0  0  0  0  0
   -5.7092    2.4792    0.1423 H   0  0  0  0  0  0  0  0  0  0  0  0
   -7.6618    3.2721   -0.2298 H   0  0  0  0  0  0  0  0  0  0  0  0
   -7.8355    0.9212    3.0063 H   0  0  0  0  0  0  0  0  0  0  0  0
  -10.7153    0.9406    2.9678 H   0  0  0  0  0  0  0  0  0  0  0  0
   -9.4129   -1.8355    3.3611 H   0  0  0  0  0  0  0  0  0  0  0  0
   -9.1582   -0.3284    4.2679 H   0  0  0  0  0  0  0  0  0  0  0  0
  -11.5000   -0.2154    4.4756 H   0  0  0  0  0  0  0  0  0  0  0  0
  -11.2701   -1.5006    1.3521 H   0  0  0  0  0  0  0  0  0  0  0  0
  -13.3951   -0.6822   -0.2500 H   0  0  0  0  0  0  0  0  0  0  0  0
  -14.7478   -1.3191    2.4464 H   0  0  0  0  0  0  0  0  0  0  0  0
  -15.1813   -2.0732    0.8675 H   0  0  0  0  0  0  0  0  0  0  0  0
  -13.3255   -2.9057    2.6192 H   0  0  0  0  0  0  0  0  0  0  0  0
  -15.7235    0.1991    0.1111 H   0  0  0  0  0  0  0  0  0  0  0  0
  -15.1057    0.9462    1.7046 H   0  0  0  0  0  0  0  0  0  0  0  0
  -14.1512    1.6313   -0.9176 H   0  0  0  0  0  0  0  0  0  0  0  0
   12.2395   -3.5877   -0.9842 H   0  0  0  0  0  0  0  0  0  0  0  0
   13.0065   -1.9668   -1.0193 H   0  0  0  0  0  0  0  0  0  0  0  0
  1  2  1  0
  2  3  2  3
  2  4  1  0
  4  5  1  0
  5  6  1  0
  6  7  1  0
  7  8  1  0
  8  9  1  0
  9 10  1  0
 10 11  2  0
 10 12  1  0
 12 13  1  0
 13 14  1  0
 12 15  1  0
 15 16  1  0
 16 17  2  0
 16 18  1  0
 18 19  1  0
 19 20  1  0
 18 21  1  0
 21 22  1  0
 22 23  2  0
 22 24  1  0
 24 25  1  0
 25 26  1  0
 24 27  1  0
 27 28  1  0
 28 29  2  0
 28 30  1  0
 30 31  1  0
 31 32  1  0
 30 33  1  0
 33 34  1  0
 34 35  2  0
 34 36  1  0
 36 37  1  0
 37 38  1  0
 36 39  1  0
 39 40  1  0
 40 41  2  0
 40 42  1  0
 42 43  1  0
 43 44  1  0
 42 45  1  0
 45 46  1  0
 46 47  2  0
 46 48  1  0
 48 49  1  0
 49 50  1  0
 48 51  1  0
 51 52  1  0
  8 53  1  0
 53 54  1  0
 53 55  2  0
  1 56  1  0
  1 57  1  0
  3 58  1  0
  4 59  1  0
  5 60  1  0
  5 61  1  0
  6 62  1  0
  6 63  1  0
  7 64  1  0
  7 65  1  0
  8 66  1  6
  9 67  1  0
 12 68  1  1
 13 69  1  0
 13 70  1  0
 14 71  1  0
 15 72  1  0
 18 73  1  6
 19 74  1  0
 19 75  1  0
 20 76  1  0
 21 77  1  0
 24 78  1  1
 25 79  1  0
 25 80  1  0
 26 81  1  0
 27 82  1  0
 30 83  1  1
 31 84  1  0
 31 85  1  0
 32 86  1  0
 33 87  1  0
 36 88  1  6
 37 89  1  0
 37 90  1  0
 38 91  1  0
 39 92  1  0
 42 93  1  1
 43 94  1  0
 43 95  1  0
 44 96  1  0
 45 97  1  0
 48 98  1  0
 49 99  1  0
 49100  1  0
 50101  1  0
 51102  1  0
 51103  1  0
 52104  1  0
 54105  1  0
 54106  1  0
M  END
$$$$
[H]Oc1c([H])c(O[H])c(C(C([H])([H])[H])(C([H])([H])[H])C([H])([H])[H])c([H])c1C(=O)N1C([H])([H])c2c([H])c([H])c([H])c([H])c2C1([H])[H]
     RDKit          3D

 44 46  0  0  0  0  0  0  0  0999 V2000
   -2.0940    1.9740   -0.4670 C   0  0  0  0  0  0  0  0  0  0  0  0
   -3.1404    1.0271    0.1133 C   0  0  0  0  0  0  0  0  0  0  0  0
   -3.7061    1.6758    1.3365 C   0  0  0  0  0  0  0  0  0  0  0  0
   -4.1879    0.8539   -0.9726 C   0  0  0  0  0  0  0  0  0  0  0  0
   -2.4965   -0.2517    0.4650 C   0  0  0  0  0  0  0  0  0  0  0  0
   -1.1233   -0.4359    0.2497 C   0  0  0  0  0  0  0  0  0  0  0  0
   -0.4574   -1.6040    0.5567 C   0  0  0  0  0  0  0  0  0  0  0  0
    0.9433   -1.8611    0.3419 C   0  0  0  0  0  0  0  0  0  0  0  0
    1.3241   -3.0736    0.5712 O   0  0  0  0  0  0  0  0  0  0  0  0
    1.9771   -1.0137   -0.0763 N   0  0  0  0  0  0  0  0  0  0  0  0
    3.3564   -1.4767   -0.2551 C   0  0  0  0  0  0  0  0  0  0  0  0
    4.1407   -0.2528   -0.5077 C   0  0  0  0  0  0  0  0  0  0  0  0
    5.5217   -0.1363   -0.6604 C   0  0  0  0  0  0  0  0  0  0  0  0
    6.0638    1.1082   -0.8947 C   0  0  0  0  0  0  0  0  0  0  0  0
    5.2791    2.2384   -0.9820 C   0  0  0  0  0  0  0  0  0  0  0  0
    3.9206    2.0659   -0.8233 C   0  0  0  0  0  0  0  0  0  0  0  0
    3.3490    0.8410   -0.5889 C   0  0  0  0  0  0  0  0  0  0  0  0
    1.9405    0.3814   -0.3789 C   0  0  0  0  0  0  0  0  0  0  0  0
   -1.2464   -2.6281    1.1104 C   0  0  0  0  0  0  0  0  0  0  0  0
   -0.6202   -3.8346    1.4402 O   0  0  0  0  0  0  0  0  0  0  0  0
   -2.5871   -2.4354    1.3155 C   0  0  0  0  0  0  0  0  0  0  0  0
   -3.2474   -1.2692    1.0086 C   0  0  0  0  0  0  0  0  0  0  0  0
   -4.6163   -1.1294    1.2398 O   0  0  0  0  0  0  0  0  0  0  0  0
   -2.6251    2.9347   -0.7355 H   0  0  0  0  0  0  0  0  0  0  0  0
   -1.6990    1.5944   -1.4205 H   0  0  0  0  0  0  0  0  0  0  0  0
   -1.3361    2.2385    0.2818 H   0  0  0  0  0  0  0  0  0  0  0  0
   -3.0597    2.4927    1.6709 H   0  0  0  0  0  0  0  0  0  0  0  0
   -3.8292    0.9940    2.2004 H   0  0  0  0  0  0  0  0  0  0  0  0
   -4.7025    2.0967    1.0955 H   0  0  0  0  0  0  0  0  0  0  0  0
   -4.1577   -0.1274   -1.4509 H   0  0  0  0  0  0  0  0  0  0  0  0
   -5.1776    1.0505   -0.4807 H   0  0  0  0  0  0  0  0  0  0  0  0
   -4.1030    1.6226   -1.7686 H   0  0  0  0  0  0  0  0  0  0  0  0
   -0.6043    0.3985   -0.1897 H   0  0  0  0  0  0  0  0  0  0  0  0
    3.7525   -1.9722    0.6327 H   0  0  0  0  0  0  0  0  0  0  0  0
    3.4180   -2.1977   -1.1093 H   0  0  0  0  0  0  0  0  0  0  0  0
    6.1472   -1.0290   -0.5920 H   0  0  0  0  0  0  0  0  0  0  0  0
    7.1329    1.1967   -1.0126 H   0  0  0  0  0  0  0  0  0  0  0  0
    5.7136    3.2263   -1.1684 H   0  0  0  0  0  0  0  0  0  0  0  0
    3.2932    2.9526   -0.8906 H   0  0  0  0  0  0  0  0  0  0  0  0
    1.5156    0.8955    0.5150 H   0  0  0  0  0  0  0  0  0  0  0  0
    1.4096    0.6500   -1.3082 H   0  0  0  0  0  0  0  0  0  0  0  0
   -1.1460   -4.5873    1.8360 H   0  0  0  0  0  0  0  0  0  0  0  0
   -3.1395   -3.2725    1.7489 H   0  0  0  0  0  0  0  0  0  0  0  0
   -5.0964   -1.9204    1.6408 H   0  0  0  0  0  0  0  0  0  0  0  0
  1  2  1  0
  2  3  1  0
  2  4  1  0
  2  5  1  0
  5  6  2  0
  6  7  1  0
  7  8  1  0
  8  9  2  0
  8 10  1  0
 10 11  1  0
 11 12  1  0
 12 13  2  0
 13 14  1  0
 14 15  2  0
 15 16  1  0
 16 17  2  0
 17 18  1  0
  7 19  2  0
 19 20  1  0
 19 21  1  0
 21 22  2  0
 22 23  1  0
 22  5  1  0
 18 10  1  0
 17 12  1  0
  1 24  1  0
  1 25  1  0
  1 26  1  0
  3 27  1  0
  3 28  1  0
  3 29  1  0
  4 30  1  0
  4 31  1  0
  4 32  1  0
  6 33  1  0
 11 34  1  0
 11 35  1  0
 13 36  1  0
 14 37  1  0
 15 38  1  0
 16 39  1  0
 18 40  1  0
 18 41  1  0
 20 42  1  0
 21 43  1  0
 23 44  1  0
M  END
$$$$
[H]c1c([H])c(N([H])C(=O)N([H])c2c([H])c([H])c(-c3c([H])c([H])c([H])c4c3c(N([H])[H])nn4[H])c([H])c2[H])c([H])c(C(F)(F)F)c1[H]
     RDKit          3D

 46 49  0  0  0  0  0  0  0  0999 V2000
   -4.0605    1.9129   -1.1031 N   0  0  0  0  0  0  0  0  0  0  0  0
   -5.1876    1.2698   -0.5327 C   0  0  0  0  0  0  0  0  0  0  0  0
   -6.4016    1.7605   -0.3192 N   0  0  0  0  0  0  0  0  0  0  0  0
   -7.2039    0.8613    0.1994 N   0  0  0  0  0  0  0  0  0  0  0  0
   -6.4704   -0.3031    0.3380 C   0  0  0  0  0  0  0  0  0  0  0  0
   -6.7958   -1.5060    0.8106 C   0  0  0  0  0  0  0  0  0  0  0  0
   -5.8556   -2.4904    0.8286 C   0  0  0  0  0  0  0  0  0  0  0  0
   -4.5693   -2.2953    0.3774 C   0  0  0  0  0  0  0  0  0  0  0  0
   -4.2178   -1.0216   -0.1193 C   0  0  0  0  0  0  0  0  0  0  0  0
   -2.8099   -0.8608   -0.4208 C   0  0  0  0  0  0  0  0  0  0  0  0
   -2.0375   -0.4096    0.6832 C   0  0  0  0  0  0  0  0  0  0  0  0
   -0.6895   -0.3104    0.5457 C   0  0  0  0  0  0  0  0  0  0  0  0
   -0.0067   -0.6345   -0.6471 C   0  0  0  0  0  0  0  0  0  0  0  0
    1.3907   -0.5482   -0.5047 N   0  0  0  0  0  0  0  0  0  0  0  0
    1.7887    0.8874   -0.1043 C   0  0  0  0  0  0  0  0  0  0  0  0
    0.9493    1.6503   -0.1204 O   0  0  0  0  0  0  0  0  0  0  0  0
    3.1638    0.8899    0.2101 N   0  0  0  0  0  0  0  0  0  0  0  0
    4.4081    0.9399    0.5069 C   0  0  0  0  0  0  0  0  0  0  0  0
    4.9349    1.5635    1.6790 C   0  0  0  0  0  0  0  0  0  0  0  0
    6.2247    1.5729    2.0419 C   0  0  0  0  0  0  0  0  0  0  0  0
    7.1712    0.9453    1.2555 C   0  0  0  0  0  0  0  0  0  0  0  0
    6.7062    0.3255    0.1088 C   0  0  0  0  0  0  0  0  0  0  0  0
    5.4182    0.3089   -0.2627 C   0  0  0  0  0  0  0  0  0  0  0  0
    7.7342   -0.3724   -0.7394 C   0  0  0  0  0  0  0  0  0  0  0  0
    8.0322   -1.5461   -0.0776 F   0  0  0  0  0  0  0  0  0  0  0  0
    8.8902    0.4135   -0.7791 F   0  0  0  0  0  0  0  0  0  0  0  0
    7.1915   -0.5841   -1.9568 F   0  0  0  0  0  0  0  0  0  0  0  0
   -0.7319   -1.0588   -1.6804 C   0  0  0  0  0  0  0  0  0  0  0  0
   -2.1639   -1.1666   -1.5481 C   0  0  0  0  0  0  0  0  0  0  0  0
   -5.1873   -0.0609   -0.1181 C   0  0  0  0  0  0  0  0  0  0  0  0
   -3.2292    2.1105   -0.5134 H   0  0  0  0  0  0  0  0  0  0  0  0
   -4.0237    2.1971   -2.1089 H   0  0  0  0  0  0  0  0  0  0  0  0
   -8.2273    0.9485    0.4785 H   0  0  0  0  0  0  0  0  0  0  0  0
   -7.8111   -1.7421    1.1461 H   0  0  0  0  0  0  0  0  0  0  0  0
   -6.0792   -3.5200    1.1862 H   0  0  0  0  0  0  0  0  0  0  0  0
   -3.8284   -3.0725    0.3704 H   0  0  0  0  0  0  0  0  0  0  0  0
   -2.5564   -0.1900    1.5757 H   0  0  0  0  0  0  0  0  0  0  0  0
   -0.0552    0.0452    1.3850 H   0  0  0  0  0  0  0  0  0  0  0  0
    2.0972   -1.2411   -0.6168 H   0  0  0  0  0  0  0  0  0  0  0  0
    3.0836    2.3140    0.2175 H   0  0  0  0  0  0  0  0  0  0  0  0
    4.1611    2.0733    2.2822 H   0  0  0  0  0  0  0  0  0  0  0  0
    6.5595    2.0812    2.9524 H   0  0  0  0  0  0  0  0  0  0  0  0
    8.2196    0.8905    1.4830 H   0  0  0  0  0  0  0  0  0  0  0  0
    5.0883   -0.1698   -1.1701 H   0  0  0  0  0  0  0  0  0  0  0  0
   -0.3057   -1.3570   -2.6568 H   0  0  0  0  0  0  0  0  0  0  0  0
   -2.7080   -1.5007   -2.3938 H   0  0  0  0  0  0  0  0  0  0  0  0
  1  2  1  0
  2  3  2  0
  3  4  1  0
  4  5  1  0
  5  6  2  0
  6  7  1  0
  7  8  2  0
  8  9  1  0
  9 10  1  0
 10 11  2  0
 11 12  1  0
 12 13  2  0
 13 14  1  0
 14 15  1  0
 15 16  2  0
 15 17  1  0
 17 18  1  0
 18 19  2  0
 19 20  1  0
 20 21  2  0
 21 22  1  0
 22 23  2  0
 22 24  1  0
 24 25  1  0
 24 26  1  0
 24 27  1  0
 13 28  1  0
 28 29  2  0
  9 30  2  0
 30  2  1  0
 30  5  1  0
 29 10  1  0
 23 18  1  0
  1 31  1  0
  1 32  1  0
  4 33  1  0
  6 34  1  0
  7 35  1  0
  8 36  1  0
 11 37  1  0
 12 38  1  0
 14 39  1  0
 17 40  1  0
 19 41  1  0
 20 42  1  0
 21 43  1  0
 23 44  1  0
 28 45  1  0
 29 46  1  0
M  END
$$$$
[H]OC(=O)[C@@]1([H])N(C(=O)[C@@]([H])(N([H])C(=O)[C@@]([H])(N([H])[H])C([H])([H])c2c([H])c([H])c(O[H])c([H])c2[H])C([H])([H])c2c([H])n([H])c3c([H])c([H])c([H])c([H])c23)C([H])([H])C([H])([H])C1([H])[H]
     RDKit          3D

 62 65  0  0  0  0  0  0  0  0999 V2000
    2.4785    0.0761   -1.0089 N   0  0  0  0  0  0  0  0  0  0  0  0
    1.7111    0.9511   -1.8383 C   0  0  1  0  0  0  0  0  0  0  0  0
    1.8035    0.6861   -3.3079 C   0  0  0  0  0  0  0  0  0  0  0  0
    3.2079    0.8046   -3.7987 C   0  0  0  0  0  0  0  0  0  0  0  0
    3.9774   -0.3282   -3.8140 C   0  0  0  0  0  0  0  0  0  0  0  0
    5.2919   -0.2701   -4.2445 C   0  0  0  0  0  0  0  0  0  0  0  0
    5.8376    0.9334   -4.6634 C   0  0  0  0  0  0  0  0  0  0  0  0
    7.1658    1.0249   -5.1044 O   0  0  0  0  0  0  0  0  0  0  0  0
    5.0491    2.0665   -4.6435 C   0  0  0  0  0  0  0  0  0  0  0  0
    3.7353    1.9943   -4.2102 C   0  0  0  0  0  0  0  0  0  0  0  0
    0.2632    0.9384   -1.4638 C   0  0  0  0  0  0  0  0  0  0  0  0
   -0.5214    1.5444   -2.2320 O   0  0  0  0  0  0  0  0  0  0  0  0
   -0.1821    0.2700   -0.2964 N   0  0  0  0  0  0  0  0  0  0  0  0
   -1.5539    0.2216    0.0980 C   0  0  1  0  0  0  0  0  0  0  0  0
   -2.1067   -1.1067    0.4067 C   0  0  0  0  0  0  0  0  0  0  0  0
   -1.4860   -1.9008    1.4614 C   0  0  0  0  0  0  0  0  0  0  0  0
   -1.8048   -1.9039    2.7968 C   0  0  0  0  0  0  0  0  0  0  0  0
   -0.9445   -2.7449    3.3957 N   0  0  0  0  0  0  0  0  0  0  0  0
   -0.0886   -3.2848    2.5167 C   0  0  0  0  0  0  0  0  0  0  0  0
    0.9391   -4.1997    2.6606 C   0  0  0  0  0  0  0  0  0  0  0  0
    1.6687   -4.6206    1.5812 C   0  0  0  0  0  0  0  0  0  0  0  0
    1.3724   -4.1227    0.3261 C   0  0  0  0  0  0  0  0  0  0  0  0
    0.3339   -3.2015    0.1990 C   0  0  0  0  0  0  0  0  0  0  0  0
   -0.4124   -2.7668    1.2941 C   0  0  0  0  0  0  0  0  0  0  0  0
   -1.8361    1.2225    1.1451 C   0  0  0  0  0  0  0  0  0  0  0  0
   -0.8293    1.9244    1.5319 O   0  0  0  0  0  0  0  0  0  0  0  0
   -3.0794    1.5083    1.7633 N   0  0  0  0  0  0  0  0  0  0  0  0
   -4.3686    0.8539    1.6645 C   0  0  0  0  0  0  0  0  0  0  0  0
   -5.3997    1.7086    2.3500 C   0  0  0  0  0  0  0  0  0  0  0  0
   -4.7174    3.0472    2.5066 C   0  0  0  0  0  0  0  0  0  0  0  0
   -3.2444    2.7159    2.6086 C   0  0  1  0  0  0  0  0  0  0  0  0
   -2.8917    2.4827    4.0080 C   0  0  0  0  0  0  0  0  0  0  0  0
   -2.4648    1.2633    4.4739 O   0  0  0  0  0  0  0  0  0  0  0  0
   -2.9696    3.4158    4.8641 O   0  0  0  0  0  0  0  0  0  0  0  0
    3.3415    0.4509   -0.6045 H   0  0  0  0  0  0  0  0  0  0  0  0
    2.5252   -0.9153   -1.3320 H   0  0  0  0  0  0  0  0  0  0  0  0
    2.0478    2.0054   -1.5957 H   0  0  0  0  0  0  0  0  0  0  0  0
    1.3441   -0.2675   -3.5493 H   0  0  0  0  0  0  0  0  0  0  0  0
    1.2199    1.5021   -3.8139 H   0  0  0  0  0  0  0  0  0  0  0  0
    3.5810   -1.3023   -3.4920 H   0  0  0  0  0  0  0  0  0  0  0  0
    5.9195   -1.1404   -4.2669 H   0  0  0  0  0  0  0  0  0  0  0  0
    7.4440    0.9079   -6.0574 H   0  0  0  0  0  0  0  0  0  0  0  0
    5.4271    3.0434   -4.9610 H   0  0  0  0  0  0  0  0  0  0  0  0
    3.0846    2.8774   -4.1809 H   0  0  0  0  0  0  0  0  0  0  0  0
    0.5352   -0.1867    0.2914 H   0  0  0  0  0  0  0  0  0  0  0  0
   -2.1191    0.6458   -0.8234 H   0  0  0  0  0  0  0  0  0  0  0  0
   -3.2047   -1.1705    0.4933 H   0  0  0  0  0  0  0  0  0  0  0  0
   -1.9558   -1.7028   -0.5958 H   0  0  0  0  0  0  0  0  0  0  0  0
   -2.6080   -1.3346    3.2981 H   0  0  0  0  0  0  0  0  0  0  0  0
   -0.9423   -2.9512    4.4185 H   0  0  0  0  0  0  0  0  0  0  0  0
    1.1360   -4.5609    3.6658 H   0  0  0  0  0  0  0  0  0  0  0  0
    2.4601   -5.3375    1.7546 H   0  0  0  0  0  0  0  0  0  0  0  0
    1.9551   -4.4648   -0.4996 H   0  0  0  0  0  0  0  0  0  0  0  0
    0.0967   -2.8141   -0.7734 H   0  0  0  0  0  0  0  0  0  0  0  0
   -4.3366   -0.1642    2.1604 H   0  0  0  0  0  0  0  0  0  0  0  0
   -4.6923    0.7755    0.5929 H   0  0  0  0  0  0  0  0  0  0  0  0
   -5.6757    1.2795    3.3406 H   0  0  0  0  0  0  0  0  0  0  0  0
   -6.3277    1.8594    1.7759 H   0  0  0  0  0  0  0  0  0  0  0  0
   -4.8705    3.6974    1.6134 H   0  0  0  0  0  0  0  0  0  0  0  0
   -5.1250    3.5517    3.3797 H   0  0  0  0  0  0  0  0  0  0  0  0
   -2.6698    3.5602    2.1648 H   0  0  0  0  0  0  0  0  0  0  0  0
   -1.5245    0.9528    4.5700 H   0  0  0  0  0  0  0  0  0  0  0  0
  1  2  1  0
  2  3  1  0
  3  4  1  0
  4  5  2  0
  5  6  1  0
  6  7  2  0
  7  8  1  0
  7  9  1  0
  9 10  2  0
  2 11  1  0
 11 12  2  0
 11 13  1  0
 13 14  1  0
 14 15  1  0
 15 16  1  0
 16 17  2  0
 17 18  1  0
 18 19  1  0
 19 20  2  0
 20 21  1  0
 21 22  2  0
 22 23  1  0
 23 24  2  0
 14 25  1  0
 25 26  2  0
 25 27  1  0
 27 28  1  0
 28 29  1  0
 29 30  1  0
 30 31  1  0
 31 32  1  0
 32 33  1  0
 32 34  2  0
 10  4  1  0
 24 16  1  0
 31 27  1  0
 24 19  1  0
  1 35  1  0
  1 36  1  0
  2 37  1  6
  3 38  1  0
  3 39  1  0
  5 40  1  0
  6 41  1  0
  8 42  1  0
  9 43  1  0
 10 44  1  0
 13 45  1  0
 14 46  1  6
 15 47  1  0
 15 48  1  0
 17 49  1  0
 18 50  1  0
 20 51  1  0
 21 52  1  0
 22 53  1  0
 23 54  1  0
 28 55  1  0
 28 56  1  0
 29 57  1  0
 29 58  1  0
 30 59  1  0
 30 60  1  0
 31 61  1  6
 33 62  1  0
M  END
$$$$
[H]N=C(c1c([H])c([H])c([H])c(C([H])([H])C([H])(C(=O)N2C([H])([H])C([H])([H])N(C([H])([H])[H])C([H])([H])C2([H])[H])N([H])S(=O)(=O)c2c([H])c([H])c3c([H])c([H])c([H])c([H])c3c2[H])c1[H])N([H])[H]
     RDKit          3D

 63 66  0  0  0  0  0  0  0  0999 V2000
   -3.0901   -3.3690    0.7863 C   0  0  0  0  0  0  0  0  0  0  0  0
   -1.8319   -2.7319    0.4240 N   0  0  0  0  0  0  0  0  0  0  0  0
   -1.8914   -1.3221    0.7616 C   0  0  0  0  0  0  0  0  0  0  0  0
   -0.5264   -0.7111    0.4341 C   0  0  0  0  0  0  0  0  0  0  0  0
   -0.1716   -0.9050   -0.9483 N   0  0  0  0  0  0  0  0  0  0  0  0
   -0.3505   -2.2918   -1.4237 C   0  0  0  0  0  0  0  0  0  0  0  0
   -1.7284   -2.7926   -1.0398 C   0  0  0  0  0  0  0  0  0  0  0  0
    0.3022    0.1142   -1.7862 C   0  0  0  0  0  0  0  0  0  0  0  0
    0.5997   -0.2676   -2.9769 O   0  0  0  0  0  0  0  0  0  0  0  0
    0.4483    1.4954   -1.3420 C   0  0  0  0  0  0  0  0  0  0  0  0
   -0.6556    2.4208   -1.6945 C   0  0  0  0  0  0  0  0  0  0  0  0
   -2.0047    2.1728   -1.2445 C   0  0  0  0  0  0  0  0  0  0  0  0
   -2.8691    1.4310   -2.0275 C   0  0  0  0  0  0  0  0  0  0  0  0
   -4.1678    1.1445   -1.6973 C   0  0  0  0  0  0  0  0  0  0  0  0
   -4.6398    1.6339   -0.4966 C   0  0  0  0  0  0  0  0  0  0  0  0
   -3.8508    2.3755    0.3361 C   0  0  0  0  0  0  0  0  0  0  0  0
   -2.5516    2.6333   -0.0470 C   0  0  0  0  0  0  0  0  0  0  0  0
   -4.4003    2.8707    1.6000 C   0  0  0  0  0  0  0  0  0  0  0  0
   -5.7483    2.5608    1.9267 N   0  0  0  0  0  0  0  0  0  0  0  0
   -3.7003    3.5750    2.4201 N   0  0  0  0  0  0  0  0  0  0  0  0
    1.7064    1.9589   -1.9998 N   0  0  0  0  0  0  0  0  0  0  0  0
    2.9510    2.3256   -0.9363 S   0  0  0  0  0  0  0  0  0  0  0  0
    4.1426    2.7790   -1.7668 O   0  0  0  0  0  0  0  0  0  0  0  0
    2.6608    3.4578    0.0045 O   0  0  0  0  0  0  0  0  0  0  0  0
    3.5036    0.9837    0.0452 C   0  0  0  0  0  0  0  0  0  0  0  0
    2.9866    0.7075    1.2959 C   0  0  0  0  0  0  0  0  0  0  0  0
    3.4292   -0.3534    2.0615 C   0  0  0  0  0  0  0  0  0  0  0  0
    4.4188   -1.1945    1.6066 C   0  0  0  0  0  0  0  0  0  0  0  0
    4.8788   -2.2698    2.3634 C   0  0  0  0  0  0  0  0  0  0  0  0
    5.8716   -3.1098    1.9012 C   0  0  0  0  0  0  0  0  0  0  0  0
    6.3998   -2.8525    0.6584 C   0  0  0  0  0  0  0  0  0  0  0  0
    5.9411   -1.7835   -0.0917 C   0  0  0  0  0  0  0  0  0  0  0  0
    4.9491   -0.9379    0.3613 C   0  0  0  0  0  0  0  0  0  0  0  0
    4.5020    0.1239   -0.3981 C   0  0  0  0  0  0  0  0  0  0  0  0
   -3.8628   -3.0984    0.0341 H   0  0  0  0  0  0  0  0  0  0  0  0
   -2.9551   -4.4697    0.7487 H   0  0  0  0  0  0  0  0  0  0  0  0
   -3.4351   -3.1018    1.7938 H   0  0  0  0  0  0  0  0  0  0  0  0
   -2.0390   -1.1786    1.8426 H   0  0  0  0  0  0  0  0  0  0  0  0
   -2.7110   -0.8859    0.1874 H   0  0  0  0  0  0  0  0  0  0  0  0
   -0.5656    0.3388    0.7671 H   0  0  0  0  0  0  0  0  0  0  0  0
    0.1820   -1.2466    1.1199 H   0  0  0  0  0  0  0  0  0  0  0  0
    0.3778   -2.9364   -0.8741 H   0  0  0  0  0  0  0  0  0  0  0  0
   -0.2113   -2.3679   -2.5021 H   0  0  0  0  0  0  0  0  0  0  0  0
   -1.8408   -3.8091   -1.4110 H   0  0  0  0  0  0  0  0  0  0  0  0
   -2.4803   -2.0804   -1.4314 H   0  0  0  0  0  0  0  0  0  0  0  0
    0.6796    1.5093   -0.2758 H   0  0  0  0  0  0  0  0  0  0  0  0
   -0.3524    3.4407   -1.3075 H   0  0  0  0  0  0  0  0  0  0  0  0
   -0.6260    2.5606   -2.8147 H   0  0  0  0  0  0  0  0  0  0  0  0
   -2.4880    1.0537   -2.9642 H   0  0  0  0  0  0  0  0  0  0  0  0
   -4.7790    0.5638   -2.3536 H   0  0  0  0  0  0  0  0  0  0  0  0
   -5.6767    1.4289   -0.1896 H   0  0  0  0  0  0  0  0  0  0  0  0
   -1.9142    3.2183    0.6004 H   0  0  0  0  0  0  0  0  0  0  0  0
   -6.1025    1.5736    1.9649 H   0  0  0  0  0  0  0  0  0  0  0  0
   -6.4629    3.3059    2.1475 H   0  0  0  0  0  0  0  0  0  0  0  0
   -4.1233    3.9010    3.2925 H   0  0  0  0  0  0  0  0  0  0  0  0
    1.5222    2.7597   -2.6141 H   0  0  0  0  0  0  0  0  0  0  0  0
    2.1978    1.3819    1.6532 H   0  0  0  0  0  0  0  0  0  0  0  0
    3.0136   -0.5547    3.0378 H   0  0  0  0  0  0  0  0  0  0  0  0
    4.4537   -2.4641    3.3456 H   0  0  0  0  0  0  0  0  0  0  0  0
    6.2302   -3.9474    2.4905 H   0  0  0  0  0  0  0  0  0  0  0  0
    7.1790   -3.5003    0.2795 H   0  0  0  0  0  0  0  0  0  0  0  0
    6.3575   -1.5902   -1.0580 H   0  0  0  0  0  0  0  0  0  0  0  0
    4.9196    0.3234   -1.3751 H   0  0  0  0  0  0  0  0  0  0  0  0
  1  2  1  0
  2  3  1  0
  3  4  1  0
  4  5  1  0
  5  6  1  0
  6  7  1  0
  5  8  1  0
  8  9  2  0
  8 10  1  0
 10 11  1  0
 11 12  1  0
 12 13  2  0
 13 14  1  0
 14 15  2  0
 15 16  1  0
 16 17  2  0
 16 18  1  0
 18 19  1  0
 18 20  2  3
 10 21  1  0
 21 22  1  0
 22 23  2  0
 22 24  2  0
 22 25  1  0
 25 26  2  0
 26 27  1  0
 27 28  2  0
 28 29  1  0
 29 30  2  0
 30 31  1  0
 31 32  2  0
 32 33  1  0
 33 34  2  0
  7  2  1  0
 17 12  1  0
 34 25  1  0
 33 28  1  0
  1 35  1  0
  1 36  1  0
  1 37  1  0
  3 38  1  0
  3 39  1  0
  4 40  1  0
  4 41  1  0
  6 42  1  0
  6 43  1  0
  7 44  1  0
  7 45  1  0
 10 46  1  0
 11 47  1  0
 11 48  1  0
 13 49  1  0
 14 50  1  0
 15 51  1  0
 17 52  1  0
 19 53  1  0
 19 54  1  0
 20 55  1  0
 21 56  1  0
 26 57  1  0
 27 58  1  0
 29 59  1  0
 30 60  1  0
 31 61  1  0
 32 62  1  0
 34 63  1  0
M  END
$$$$
[H]c1nc(C(=O)[C@@]([H])(N([H])C(=O)[C@@]2([H])N(C(=O)[C@]([H])(N([H])C(=O)OC([H])([H])c3c([H])c([H])c([H])c([H])c3[H])C([H])([H])c3c([H])c([H])c([H])c([H])c3[H])C([H])([H])C([H])([H])C2([H])[H])C([H])([H])C([H])([H])C([H])([H])N=C(N([H])[H])N([H])[H])sc1[H]
     RDKit          3D

 81 84  0  0  0  0  0  0  0  0999 V2000
    7.9968    3.3558   -2.0674 N   0  0  0  0  0  0  0  0  0  0  0  0
    7.4461    2.3745   -2.9295 C   0  0  0  0  0  0  0  0  0  0  0  0
    8.0028    2.2290   -4.2266 N   0  0  0  0  0  0  0  0  0  0  0  0
    6.4811    1.6394   -2.5695 N   0  0  0  0  0  0  0  0  0  0  0  0
    5.8162    1.6668   -1.3065 C   0  0  0  0  0  0  0  0  0  0  0  0
    5.0937    0.3252   -1.0882 C   0  0  0  0  0  0  0  0  0  0  0  0
    4.3807    0.3140    0.2230 C   0  0  0  0  0  0  0  0  0  0  0  0
    3.6773   -1.0251    0.4123 C   0  0  2  0  0  0  0  0  0  0  0  0
    2.9753   -1.0257    1.6890 N   0  0  0  0  0  0  0  0  0  0  0  0
    1.5222   -0.8800    1.7573 C   0  0  0  0  0  0  0  0  0  0  0  0
    1.0057   -0.7585    0.6387 O   0  0  0  0  0  0  0  0  0  0  0  0
    0.9386   -0.8964    3.0558 C   0  0  2  0  0  0  0  0  0  0  0  0
    0.9710   -2.2805    3.7301 C   0  0  0  0  0  0  0  0  0  0  0  0
    0.1981   -1.9547    5.0178 C   0  0  0  0  0  0  0  0  0  0  0  0
   -0.2312   -0.5061    4.8815 C   0  0  0  0  0  0  0  0  0  0  0  0
   -0.3877   -0.5229    3.3559 N   0  0  0  0  0  0  0  0  0  0  0  0
   -1.6285   -0.2560    2.7755 C   0  0  0  0  0  0  0  0  0  0  0  0
   -2.5330    0.1515    3.6391 O   0  0  0  0  0  0  0  0  0  0  0  0
   -2.1102   -0.3443    1.4055 C   0  0  1  0  0  0  0  0  0  0  0  0
   -2.3123   -1.8013    0.9771 C   0  0  0  0  0  0  0  0  0  0  0  0
   -2.8108   -1.8826   -0.4119 C   0  0  0  0  0  0  0  0  0  0  0  0
   -4.1758   -1.8828   -0.6121 C   0  0  0  0  0  0  0  0  0  0  0  0
   -4.7519   -1.9514   -1.8688 C   0  0  0  0  0  0  0  0  0  0  0  0
   -3.9296   -2.0223   -2.9662 C   0  0  0  0  0  0  0  0  0  0  0  0
   -2.5627   -2.0235   -2.7859 C   0  0  0  0  0  0  0  0  0  0  0  0
   -1.9923   -1.9541   -1.5127 C   0  0  0  0  0  0  0  0  0  0  0  0
   -3.4962    0.1927    1.3008 N   0  0  0  0  0  0  0  0  0  0  0  0
   -3.7945    1.2385    0.4058 C   0  0  0  0  0  0  0  0  0  0  0  0
   -2.8415    1.7017   -0.2994 O   0  0  0  0  0  0  0  0  0  0  0  0
   -5.0214    1.8204    0.2076 O   0  0  0  0  0  0  0  0  0  0  0  0
   -5.2278    2.8725   -0.7226 C   0  0  0  0  0  0  0  0  0  0  0  0
   -6.6600    3.2631   -0.6866 C   0  0  0  0  0  0  0  0  0  0  0  0
   -7.1163    4.2572    0.1526 C   0  0  0  0  0  0  0  0  0  0  0  0
   -8.4347    4.6158    0.1767 C   0  0  0  0  0  0  0  0  0  0  0  0
   -9.3183    3.9681   -0.6556 C   0  0  0  0  0  0  0  0  0  0  0  0
   -8.8946    2.9547   -1.5214 C   0  0  0  0  0  0  0  0  0  0  0  0
   -7.5561    2.6169   -1.5204 C   0  0  0  0  0  0  0  0  0  0  0  0
    4.6444   -2.1171    0.3149 C   0  0  0  0  0  0  0  0  0  0  0  0
    5.3272   -2.4634    1.3399 O   0  0  0  0  0  0  0  0  0  0  0  0
    4.9169   -2.8942   -0.9057 C   0  0  0  0  0  0  0  0  0  0  0  0
    5.8017   -3.8694   -1.0368 N   0  0  0  0  0  0  0  0  0  0  0  0
    5.9299   -4.4844   -2.1598 C   0  0  0  0  0  0  0  0  0  0  0  0
    5.1210   -4.0911   -3.2016 C   0  0  0  0  0  0  0  0  0  0  0  0
    4.2181   -2.8367   -2.4648 S   0  0  0  0  0  0  0  0  0  0  0  0
    9.0340    3.4314   -1.9628 H   0  0  0  0  0  0  0  0  0  0  0  0
    7.4025    4.0024   -1.5367 H   0  0  0  0  0  0  0  0  0  0  0  0
    8.7559    1.5229   -4.4532 H   0  0  0  0  0  0  0  0  0  0  0  0
    7.6946    2.8225   -5.0461 H   0  0  0  0  0  0  0  0  0  0  0  0
    5.0487    2.4961   -1.3459 H   0  0  0  0  0  0  0  0  0  0  0  0
    6.5363    1.8744   -0.4857 H   0  0  0  0  0  0  0  0  0  0  0  0
    5.8898   -0.4349   -1.1886 H   0  0  0  0  0  0  0  0  0  0  0  0
    4.3839    0.2737   -1.9598 H   0  0  0  0  0  0  0  0  0  0  0  0
    3.6697    1.1392    0.2723 H   0  0  0  0  0  0  0  0  0  0  0  0
    5.1679    0.3761    1.0216 H   0  0  0  0  0  0  0  0  0  0  0  0
    2.9335   -1.1017   -0.3895 H   0  0  0  0  0  0  0  0  0  0  0  0
    3.4704   -1.1280    2.5877 H   0  0  0  0  0  0  0  0  0  0  0  0
    1.5989   -0.2828    3.7644 H   0  0  0  0  0  0  0  0  0  0  0  0
    0.4948   -3.0506    3.1302 H   0  0  0  0  0  0  0  0  0  0  0  0
    2.0050   -2.5299    4.0124 H   0  0  0  0  0  0  0  0  0  0  0  0
   -0.7124   -2.6176    5.0462 H   0  0  0  0  0  0  0  0  0  0  0  0
    0.7763   -2.1715    5.9141 H   0  0  0  0  0  0  0  0  0  0  0  0
    0.6204    0.1508    5.0436 H   0  0  0  0  0  0  0  0  0  0  0  0
   -1.1646   -0.2601    5.3539 H   0  0  0  0  0  0  0  0  0  0  0  0
   -1.5338    0.2543    0.7277 H   0  0  0  0  0  0  0  0  0  0  0  0
   -1.4010   -2.3974    1.0563 H   0  0  0  0  0  0  0  0  0  0  0  0
   -3.0706   -2.2584    1.6429 H   0  0  0  0  0  0  0  0  0  0  0  0
   -4.8651   -1.8275    0.2276 H   0  0  0  0  0  0  0  0  0  0  0  0
   -5.8296   -1.9502   -2.0225 H   0  0  0  0  0  0  0  0  0  0  0  0
   -4.3732   -2.0759   -3.9669 H   0  0  0  0  0  0  0  0  0  0  0  0
   -1.9581   -2.0793   -3.6663 H   0  0  0  0  0  0  0  0  0  0  0  0
   -0.9184   -1.9572   -1.4119 H   0  0  0  0  0  0  0  0  0  0  0  0
   -4.2669   -0.1965    1.8851 H   0  0  0  0  0  0  0  0  0  0  0  0
   -4.9833    2.5218   -1.7495 H   0  0  0  0  0  0  0  0  0  0  0  0
   -4.5483    3.7059   -0.4372 H   0  0  0  0  0  0  0  0  0  0  0  0
   -6.3796    4.7551    0.8077 H   0  0  0  0  0  0  0  0  0  0  0  0
   -8.7497    5.4007    0.8515 H   0  0  0  0  0  0  0  0  0  0  0  0
  -10.3505    4.2682   -0.6185 H   0  0  0  0  0  0  0  0  0  0  0  0
   -9.6316    2.4908   -2.1418 H   0  0  0  0  0  0  0  0  0  0  0  0
   -7.1972    1.8243   -2.1914 H   0  0  0  0  0  0  0  0  0  0  0  0
    6.6667   -5.3097   -2.3010 H   0  0  0  0  0  0  0  0  0  0  0  0
    5.1071   -4.5148   -4.2221 H   0  0  0  0  0  0  0  0  0  0  0  0
  1  2  1  0
  2  3  1  0
  2  4  2  3
  4  5  1  0
  5  6  1  0
  6  7  1  0
  7  8  1  0
  8  9  1  0
  9 10  1  0
 10 11  2  0
 10 12  1  0
 12 13  1  0
 13 14  1  0
 14 15  1  0
 15 16  1  0
 16 17  1  0
 17 18  2  0
 17 19  1  0
 19 20  1  0
 20 21  1  0
 21 22  2  0
 22 23  1  0
 23 24  2  0
 24 25  1  0
 25 26  2  0
 19 27  1  0
 27 28  1  0
 28 29  2  0
 28 30  1  0
 30 31  1  0
 31 32  1  0
 32 33  2  0
 33 34  1  0
 34 35  2  0
 35 36  1  0
 36 37  2  0
  8 38  1  0
 38 39  2  0
 38 40  1  0
 40 41  2  0
 41 42  1  0
 42 43  2  0
 43 44  1  0
 16 12  1  0
 26 21  1  0
 37 32  1  0
 44 40  1  0
  1 45  1  0
  1 46  1  0
  3 47  1  0
  3 48  1  0
  5 49  1  0
  5 50  1  0
  6 51  1  0
  6 52  1  0
  7 53  1  0
  7 54  1  0
  8 55  1  6
  9 56  1  0
 12 57  1  1
 13 58  1  0
 13 59  1  0
 14 60  1  0
 14 61  1  0
 15 62  1  0
 15 63  1  0
 19 64  1  6
 20 65  1  0
 20 66  1  0
 22 67  1  0
 23 68  1  0
 24 69  1  0
 25 70  1  0
 26 71  1  0
 27 72  1  0
 31 73  1  0
 31 74  1  0
 33 75  1  0
 34 76  1  0
 35 77  1  0
 36 78  1  0
 37 79  1  0
 42 80  1  0
 43 81  1  0
M  END
$$$$
[H]c1c([H])c(Oc2c([H])c([H])c(OC([H])([H])[H])c([H])c2F)c(C(=O)N([H])c2c([H])c([H])n([H])c(=O)c2[H])c([H])c1Cl
     RDKit          3D

 41 43  0  0  0  0  0  0  0  0999 V2000
    5.8051    0.0156   -3.4412 C   0  0  0  0  0  0  0  0  0  0  0  0
    5.4686   -0.1366   -2.0964 O   0  0  0  0  0  0  0  0  0  0  0  0
    4.2063   -0.2571   -1.5809 C   0  0  0  0  0  0  0  0  0  0  0  0
    3.0832   -0.2411   -2.3622 C   0  0  0  0  0  0  0  0  0  0  0  0
    1.8295   -0.3648   -1.8143 C   0  0  0  0  0  0  0  0  0  0  0  0
    1.6289   -0.5137   -0.4325 C   0  0  0  0  0  0  0  0  0  0  0  0
    0.3617   -0.6335    0.0911 O   0  0  0  0  0  0  0  0  0  0  0  0
   -0.1946   -1.6875    0.7497 C   0  0  0  0  0  0  0  0  0  0  0  0
    0.5831   -2.8509    0.8686 C   0  0  0  0  0  0  0  0  0  0  0  0
    0.0372   -3.9241    1.5340 C   0  0  0  0  0  0  0  0  0  0  0  0
   -1.2213   -3.8791    2.0691 C   0  0  0  0  0  0  0  0  0  0  0  0
   -1.9042   -5.2598    2.9167 Cl  0  0  0  0  0  0  0  0  0  0  0  0
   -1.9388   -2.7328    1.9298 C   0  0  0  0  0  0  0  0  0  0  0  0
   -1.4649   -1.5809    1.2651 C   0  0  0  0  0  0  0  0  0  0  0  0
   -2.3044   -0.4150    1.1716 C   0  0  0  0  0  0  0  0  0  0  0  0
   -3.4656   -0.5269    1.7254 O   0  0  0  0  0  0  0  0  0  0  0  0
   -2.0515    0.8161    0.5728 N   0  0  0  0  0  0  0  0  0  0  0  0
   -2.9462    1.9356    0.5080 C   0  0  0  0  0  0  0  0  0  0  0  0
   -2.4040    3.2238    0.3447 C   0  0  0  0  0  0  0  0  0  0  0  0
   -3.2447    4.2988    0.2564 C   0  0  0  0  0  0  0  0  0  0  0  0
   -4.5816    4.1884    0.3181 N   0  0  0  0  0  0  0  0  0  0  0  0
   -5.1330    2.9789    0.4724 C   0  0  0  0  0  0  0  0  0  0  0  0
   -6.3854    2.8720    0.5305 O   0  0  0  0  0  0  0  0  0  0  0  0
   -4.3088    1.8535    0.5666 C   0  0  0  0  0  0  0  0  0  0  0  0
    2.7863   -0.5242    0.3218 C   0  0  0  0  0  0  0  0  0  0  0  0
    2.6890   -0.6369    1.6762 F   0  0  0  0  0  0  0  0  0  0  0  0
    4.0563   -0.4006   -0.2203 C   0  0  0  0  0  0  0  0  0  0  0  0
    6.0546   -0.9918   -3.8419 H   0  0  0  0  0  0  0  0  0  0  0  0
    5.0710    0.5385   -4.0539 H   0  0  0  0  0  0  0  0  0  0  0  0
    6.7628    0.5959   -3.4913 H   0  0  0  0  0  0  0  0  0  0  0  0
    3.2420   -0.1251   -3.4368 H   0  0  0  0  0  0  0  0  0  0  0  0
    0.9519   -0.3519   -2.4283 H   0  0  0  0  0  0  0  0  0  0  0  0
    1.5670   -2.9342    0.4525 H   0  0  0  0  0  0  0  0  0  0  0  0
    0.6146   -4.8273    1.6385 H   0  0  0  0  0  0  0  0  0  0  0  0
   -2.9244   -2.7109    2.3538 H   0  0  0  0  0  0  0  0  0  0  0  0
   -1.1325    0.9943    0.1065 H   0  0  0  0  0  0  0  0  0  0  0  0
   -1.3255    3.3250    0.2936 H   0  0  0  0  0  0  0  0  0  0  0  0
   -2.8260    5.2918    0.1306 H   0  0  0  0  0  0  0  0  0  0  0  0
   -5.1456    5.0680    0.2417 H   0  0  0  0  0  0  0  0  0  0  0  0
   -4.8329    0.9250    0.6704 H   0  0  0  0  0  0  0  0  0  0  0  0
    4.9370   -0.4145    0.4056 H   0  0  0  0  0  0  0  0  0  0  0  0
  1  2  1  0
  2  3  1  0
  3  4  2  0
  4  5  1  0
  5  6  2  0
  6  7  1  0
  7  8  1  0
  8  9  2  0
  9 10  1  0
 10 11  2  0
 11 12  1  0
 11 13  1  0
 13 14  2  0
 14 15  1  0
 15 16  2  0
 15 17  1  0
 17 18  1  0
 18 19  1  0
 19 20  2  0
 20 21  1  0
 21 22  1  0
 22 23  2  0
 22 24  1  0
  6 25  1  0
 25 26  1  0
 25 27  2  0
 27  3  1  0
 14  8  1  0
 24 18  2  0
  1 28  1  0
  1 29  1  0
  1 30  1  0
  4 31  1  0
  5 32  1  0
  9 33  1  0
 10 34  1  0
 13 35  1  0
 17 36  1  0
 19 37  1  0
 20 38  1  0
 21 39  1  0
 24 40  1  0
 27 41  1  0
M  END
$$$$
[H]O[C@]1([H])[C@@]([H])(C([H])([H])OP(=O)(O[H])OP(=O)(O[H])OP(=O)(O[H])OP(=O)(O[H])OP(=O)(O[H])O[H])O[C@@]([H])(n2c([H])c([H])c(=O)n([H])c2=O)[C@]1([H])O[H]
     RDKit          3D

 54 55  0  0  0  0  0  0  0  0999 V2000
   -2.8736    1.2178   -3.1236 O   0  0  0  0  0  0  0  0  0  0  0  0
   -2.6343    0.9210   -1.7868 C   0  0  1  0  0  0  0  0  0  0  0  0
   -3.7842    1.5046   -0.9757 C   0  0  1  0  0  0  0  0  0  0  0  0
   -4.2612    2.6818   -1.5314 O   0  0  0  0  0  0  0  0  0  0  0  0
   -4.7855    0.3664   -1.0850 C   0  0  1  0  0  0  0  0  0  0  0  0
   -3.9672   -0.7380   -0.8430 O   0  0  0  0  0  0  0  0  0  0  0  0
   -2.8135   -0.5485   -1.5564 C   0  0  2  0  0  0  0  0  0  0  0  0
   -1.6076   -1.1418   -0.8408 C   0  0  0  0  0  0  0  0  0  0  0  0
   -1.4387   -0.5475    0.4080 O   0  0  0  0  0  0  0  0  0  0  0  0
   -0.1338   -1.1517    1.2467 P   0  0  0  0  0  0  0  0  0  0  0  0
    0.7676    0.1380    1.8768 O   0  0  0  0  0  0  0  0  0  0  0  0
   -0.6092   -1.9804    2.4166 O   0  0  0  0  0  0  0  0  0  0  0  0
    0.8856   -2.0948    0.3107 O   0  0  0  0  0  0  0  0  0  0  0  0
    2.4733   -1.8547    0.8407 P   0  0  0  0  0  0  0  0  0  0  0  0
    2.5582   -2.4344    2.4386 O   0  0  0  0  0  0  0  0  0  0  0  0
    3.4188   -2.6864    0.0060 O   0  0  0  0  0  0  0  0  0  0  0  0
    2.8485   -0.2197    0.7622 O   0  0  0  0  0  0  0  0  0  0  0  0
    4.4951    0.0570    0.5142 P   0  0  0  0  0  0  0  0  0  0  0  0
    5.3058    0.3202    1.9717 O   0  0  0  0  0  0  0  0  0  0  0  0
    4.6100    1.3391   -0.2955 O   0  0  0  0  0  0  0  0  0  0  0  0
    5.2154   -1.1725   -0.3819 O   0  0  0  0  0  0  0  0  0  0  0  0
    6.8801   -1.1520   -0.0519 P   0  0  0  0  0  0  0  0  0  0  0  0
    7.1289   -2.0715    1.3341 O   0  0  0  0  0  0  0  0  0  0  0  0
    7.6589   -1.8078   -1.1875 O   0  0  0  0  0  0  0  0  0  0  0  0
    7.4165    0.4193    0.2349 O   0  0  0  0  0  0  0  0  0  0  0  0
    8.8509    0.7393   -0.5673 P   0  0  0  0  0  0  0  0  0  0  0  0
    8.8138    0.0727   -2.1390 O   0  0  0  0  0  0  0  0  0  0  0  0
    9.0463    2.4308   -0.6585 O   0  0  0  0  0  0  0  0  0  0  0  0
   10.0460    0.1315    0.1338 O   0  0  0  0  0  0  0  0  0  0  0  0
   -5.8413    0.4850   -0.1190 N   0  0  0  0  0  0  0  0  0  0  0  0
   -5.7483    0.0695    1.1499 C   0  0  0  0  0  0  0  0  0  0  0  0
   -6.7949    0.2019    2.0578 C   0  0  0  0  0  0  0  0  0  0  0  0
   -7.9515    0.7913    1.5804 C   0  0  0  0  0  0  0  0  0  0  0  0
   -8.9449    0.9479    2.3388 O   0  0  0  0  0  0  0  0  0  0  0  0
   -8.0394    1.2072    0.3039 N   0  0  0  0  0  0  0  0  0  0  0  0
   -6.9966    1.0528   -0.5258 C   0  0  0  0  0  0  0  0  0  0  0  0
   -7.1370    1.4662   -1.7263 O   0  0  0  0  0  0  0  0  0  0  0  0
   -3.1851    0.4023   -3.6268 H   0  0  0  0  0  0  0  0  0  0  0  0
   -1.6571    1.3047   -1.4370 H   0  0  0  0  0  0  0  0  0  0  0  0
   -3.4162    1.6193    0.0520 H   0  0  0  0  0  0  0  0  0  0  0  0
   -3.9136    3.4436   -0.9939 H   0  0  0  0  0  0  0  0  0  0  0  0
   -5.1372    0.2865   -2.1181 H   0  0  0  0  0  0  0  0  0  0  0  0
   -2.9120   -1.0725   -2.5355 H   0  0  0  0  0  0  0  0  0  0  0  0
   -1.7881   -2.2233   -0.6721 H   0  0  0  0  0  0  0  0  0  0  0  0
   -0.6957   -1.0724   -1.4605 H   0  0  0  0  0  0  0  0  0  0  0  0
    0.6784    0.9418    1.2851 H   0  0  0  0  0  0  0  0  0  0  0  0
    2.6836   -3.4227    2.3877 H   0  0  0  0  0  0  0  0  0  0  0  0
    4.6929    0.0834    2.6967 H   0  0  0  0  0  0  0  0  0  0  0  0
    6.6077   -1.7693    2.1028 H   0  0  0  0  0  0  0  0  0  0  0  0
    8.0946    0.4864   -2.6877 H   0  0  0  0  0  0  0  0  0  0  0  0
    8.3507    2.9029   -0.1353 H   0  0  0  0  0  0  0  0  0  0  0  0
   -4.8205   -0.3876    1.4801 H   0  0  0  0  0  0  0  0  0  0  0  0
   -6.7053   -0.1399    3.0846 H   0  0  0  0  0  0  0  0  0  0  0  0
   -8.9339    1.6573   -0.0463 H   0  0  0  0  0  0  0  0  0  0  0  0
  1  2  1  0
  2  3  1  0
  3  4  1  0
  3  5  1  0
  5  6  1  0
  6  7  1  0
  7  8  1  0
  8  9  1  0
  9 10  1  0
 10 11  1  0
 10 12  2  0
 10 13  1  0
 13 14  1  0
 14 15  1  0
 14 16  2  0
 14 17  1  0
 17 18  1  0
 18 19  1  0
 18 20  2  0
 18 21  1  0
 21 22  1  0
 22 23  1  0
 22 24  2  0
 22 25  1  0
 25 26  1  0
 26 27  1  0
 26 28  1  0
 26 29  2  0
  5 30  1  0
 30 31  1  0
 31 32  2  0
 32 33  1  0
 33 34  2  0
 33 35  1  0
 35 36  1  0
 36 37  2  0
  7  2  1  0
 36 30  1  0
  1 38  1  0
  2 39  1  1
  3 40  1  1
  4 41  1  0
  5 42  1  6
  7 43  1  6
  8 44  1  0
  8 45  1  0
 11 46  1  0
 15 47  1  0
 19 48  1  0
 23 49  1  0
 27 50  1  0
 28 51  1  0
 31 52  1  0
 32 53  1  0
 35 54  1  0
M  END
$$$$
[H]ON([H])C(=O)C([H])([H])N(C([H])([H])c1c([H])c([H])c([N+](=O)[O-])c([H])c1[H])S(=O)(=O)c1c([H])c([H])c([H])c2c([H])c([H])c([H])c([H])c12
     RDKit          3D

 46 48  0  0  0  0  0  0  0  0999 V2000
    1.1916   -4.2677    2.3970 O   0  0  0  0  0  0  0  0  0  0  0  0
    0.6051   -3.9213    1.2235 N   0  0  0  0  0  0  0  0  0  0  0  0
    0.2158   -2.5800    0.9249 C   0  0  0  0  0  0  0  0  0  0  0  0
    0.4457   -1.7328    1.8095 O   0  0  0  0  0  0  0  0  0  0  0  0
   -0.4145   -2.2848   -0.3696 C   0  0  0  0  0  0  0  0  0  0  0  0
   -0.7348   -0.8920   -0.5777 N   0  0  0  0  0  0  0  0  0  0  0  0
   -2.1192   -0.7815   -0.9251 C   0  0  0  0  0  0  0  0  0  0  0  0
   -2.8281    0.4009   -0.4602 C   0  0  0  0  0  0  0  0  0  0  0  0
   -2.3964    1.1591    0.5970 C   0  0  0  0  0  0  0  0  0  0  0  0
   -3.0880    2.2911    1.0304 C   0  0  0  0  0  0  0  0  0  0  0  0
   -4.2429    2.6657    0.3800 C   0  0  0  0  0  0  0  0  0  0  0  0
   -4.6994    1.9199   -0.6874 C   0  0  0  0  0  0  0  0  0  0  0  0
   -3.9875    0.8058   -1.0871 C   0  0  0  0  0  0  0  0  0  0  0  0
   -4.9720    3.8039    0.7867 N   0  0  0  0  0  0  0  0  0  0  0  0
   -6.1118    4.1789    0.1497 O   0  0  0  0  0  0  0  0  0  0  0  0
   -4.5633    4.4742    1.7447 O   0  0  0  0  0  0  0  0  0  0  0  0
    0.3207   -0.2719   -1.7551 S   0  0  0  0  0  0  0  0  0  0  0  0
   -0.0680    1.1033   -2.2253 O   0  0  0  0  0  0  0  0  0  0  0  0
    0.1955   -1.1644   -2.9889 O   0  0  0  0  0  0  0  0  0  0  0  0
    1.9764   -0.3566   -1.2291 C   0  0  0  0  0  0  0  0  0  0  0  0
    2.8652   -1.2556   -1.8339 C   0  0  0  0  0  0  0  0  0  0  0  0
    4.1637   -1.3786   -1.4408 C   0  0  0  0  0  0  0  0  0  0  0  0
    4.6735   -0.6164   -0.4174 C   0  0  0  0  0  0  0  0  0  0  0  0
    3.8288    0.2853    0.2069 C   0  0  0  0  0  0  0  0  0  0  0  0
    4.2967    1.0851    1.2341 C   0  0  0  0  0  0  0  0  0  0  0  0
    3.4930    2.0010    1.8700 C   0  0  0  0  0  0  0  0  0  0  0  0
    2.1874    2.0959    1.4429 C   0  0  0  0  0  0  0  0  0  0  0  0
    1.6665    1.3286    0.4292 C   0  0  0  0  0  0  0  0  0  0  0  0
    2.5020    0.4093   -0.1967 C   0  0  0  0  0  0  0  0  0  0  0  0
    0.8841   -5.1352    2.7342 H   0  0  0  0  0  0  0  0  0  0  0  0
    0.4323   -4.6545    0.5169 H   0  0  0  0  0  0  0  0  0  0  0  0
    0.2721   -2.6723   -1.1635 H   0  0  0  0  0  0  0  0  0  0  0  0
   -1.3848   -2.8606   -0.4689 H   0  0  0  0  0  0  0  0  0  0  0  0
   -2.6246   -1.7282   -0.5651 H   0  0  0  0  0  0  0  0  0  0  0  0
   -2.1732   -0.8982   -2.0508 H   0  0  0  0  0  0  0  0  0  0  0  0
   -1.5021    0.9160    1.1433 H   0  0  0  0  0  0  0  0  0  0  0  0
   -2.7219    2.8688    1.8679 H   0  0  0  0  0  0  0  0  0  0  0  0
   -5.6093    2.2429   -1.1745 H   0  0  0  0  0  0  0  0  0  0  0  0
   -4.3848    0.2512   -1.9304 H   0  0  0  0  0  0  0  0  0  0  0  0
    2.4988   -1.8639   -2.6345 H   0  0  0  0  0  0  0  0  0  0  0  0
    4.8345   -2.0961   -1.9387 H   0  0  0  0  0  0  0  0  0  0  0  0
    5.6934   -0.6761   -0.0684 H   0  0  0  0  0  0  0  0  0  0  0  0
    5.3356    0.9732    1.5357 H   0  0  0  0  0  0  0  0  0  0  0  0
    3.8753    2.6339    2.6877 H   0  0  0  0  0  0  0  0  0  0  0  0
    1.5206    2.8045    1.9163 H   0  0  0  0  0  0  0  0  0  0  0  0
    0.6524    1.3904    0.0829 H   0  0  0  0  0  0  0  0  0  0  0  0
  1  2  1  0
  2  3  1  0
  3  4  2  0
  3  5  1  0
  5  6  1  0
  6  7  1  0
  7  8  1  0
  8  9  2  0
  9 10  1  0
 10 11  2  0
 11 12  1  0
 12 13  2  0
 11 14  1  0
 14 15  1  0
 14 16  2  0
  6 17  1  0
 17 18  2  0
 17 19  2  0
 17 20  1  0
 20 21  2  0
 21 22  1  0
 22 23  2  0
 23 24  1  0
 24 25  2  0
 25 26  1  0
 26 27  2  0
 27 28  1  0
 28 29  2  0
 13  8  1  0
 29 20  1  0
 29 24  1  0
  1 30  1  0
  2 31  1  0
  5 32  1  0
  5 33  1  0
  7 34  1  0
  7 35  1  0
  9 36  1  0
 10 37  1  0
 12 38  1  0
 13 39  1  0
 21 40  1  0
 22 41  1  0
 23 42  1  0
 25 43  1  0
 26 44  1  0
 27 45  1  0
 28 46  1  0
M  CHG  2  14   1  15  -1
M  END
$$$$
[H]c1c([H])c(N2C([H])([H])C([H])([H])N(c3c([H])c([H])c(C#N)c(C(F)(F)F)c3[H])[C@]([H])(C([H])(C([H])([H])[H])C([H])([H])[H])C2([H])[H])c(C(F)(F)F)c([H])c1F
     RDKit          3D

 52 54  0  0  0  0  0  0  0  0999 V2000
    1.6659    1.0866   -2.3767 C   0  0  0  0  0  0  0  0  0  0  0  0
    0.3930    0.3692   -2.0381 C   0  0  0  0  0  0  0  0  0  0  0  0
   -0.7342    1.3381   -2.2566 C   0  0  0  0  0  0  0  0  0  0  0  0
    0.3643   -0.4682   -0.8407 C   0  0  2  0  0  0  0  0  0  0  0  0
   -1.0010   -1.1444   -0.6200 C   0  0  0  0  0  0  0  0  0  0  0  0
   -1.9025   -0.3724    0.1695 N   0  0  0  0  0  0  0  0  0  0  0  0
   -1.3149    0.5145    1.2107 C   0  0  0  0  0  0  0  0  0  0  0  0
    0.0434    0.0100    1.5757 C   0  0  0  0  0  0  0  0  0  0  0  0
    0.8848   -0.0264    0.3982 N   0  0  0  0  0  0  0  0  0  0  0  0
    2.2438    0.3286    0.6180 C   0  0  0  0  0  0  0  0  0  0  0  0
    2.5734    1.4026    1.4070 C   0  0  0  0  0  0  0  0  0  0  0  0
    3.8930    1.6876    1.6405 C   0  0  0  0  0  0  0  0  0  0  0  0
    4.8884    0.9165    1.0980 C   0  0  0  0  0  0  0  0  0  0  0  0
    6.2767    1.2023    1.3335 C   0  0  0  0  0  0  0  0  0  0  0  0
    7.3972    1.4315    1.5158 N   0  0  0  0  0  0  0  0  0  0  0  0
    4.5642   -0.1654    0.3031 C   0  0  0  0  0  0  0  0  0  0  0  0
    3.2405   -0.4388    0.0781 C   0  0  0  0  0  0  0  0  0  0  0  0
    5.6055   -1.0302   -0.3070 C   0  0  0  0  0  0  0  0  0  0  0  0
    6.3702   -1.5928    0.7170 F   0  0  0  0  0  0  0  0  0  0  0  0
    5.0115   -2.0161   -1.0596 F   0  0  0  0  0  0  0  0  0  0  0  0
    6.3900   -0.2224   -1.1249 F   0  0  0  0  0  0  0  0  0  0  0  0
   -3.3192   -0.3004    0.1020 C   0  0  0  0  0  0  0  0  0  0  0  0
   -3.9082    0.9561   -0.1929 C   0  0  0  0  0  0  0  0  0  0  0  0
   -5.2653    1.0651   -0.2415 C   0  0  0  0  0  0  0  0  0  0  0  0
   -6.0936   -0.0096   -0.0129 C   0  0  0  0  0  0  0  0  0  0  0  0
   -7.4246    0.1739   -0.0780 F   0  0  0  0  0  0  0  0  0  0  0  0
   -5.5005   -1.2136    0.2702 C   0  0  0  0  0  0  0  0  0  0  0  0
   -4.1048   -1.3922    0.3354 C   0  0  0  0  0  0  0  0  0  0  0  0
   -3.5803   -2.7235    0.6413 C   0  0  0  0  0  0  0  0  0  0  0  0
   -2.7591   -2.7830    1.7499 F   0  0  0  0  0  0  0  0  0  0  0  0
   -3.1140   -3.4394   -0.4306 F   0  0  0  0  0  0  0  0  0  0  0  0
   -4.7019   -3.5033    1.0690 F   0  0  0  0  0  0  0  0  0  0  0  0
    1.9152    1.8192   -1.5943 H   0  0  0  0  0  0  0  0  0  0  0  0
    2.4794    0.4652   -2.7499 H   0  0  0  0  0  0  0  0  0  0  0  0
    1.4102    1.7582   -3.2732 H   0  0  0  0  0  0  0  0  0  0  0  0
    0.2666   -0.3710   -2.9245 H   0  0  0  0  0  0  0  0  0  0  0  0
   -0.8179    2.0564   -1.4441 H   0  0  0  0  0  0  0  0  0  0  0  0
   -0.5924    1.8310   -3.2510 H   0  0  0  0  0  0  0  0  0  0  0  0
   -1.6855    0.7820   -2.3476 H   0  0  0  0  0  0  0  0  0  0  0  0
    1.0552   -1.3732   -1.1104 H   0  0  0  0  0  0  0  0  0  0  0  0
   -0.7313   -2.0908   -0.0895 H   0  0  0  0  0  0  0  0  0  0  0  0
   -1.4314   -1.2928   -1.6231 H   0  0  0  0  0  0  0  0  0  0  0  0
   -1.2132    1.5507    0.8422 H   0  0  0  0  0  0  0  0  0  0  0  0
   -2.0054    0.5749    2.0777 H   0  0  0  0  0  0  0  0  0  0  0  0
    0.4694    0.6334    2.3916 H   0  0  0  0  0  0  0  0  0  0  0  0
   -0.1056   -1.0303    1.9696 H   0  0  0  0  0  0  0  0  0  0  0  0
    1.7835    2.0325    1.8434 H   0  0  0  0  0  0  0  0  0  0  0  0
    4.1415    2.5517    2.2752 H   0  0  0  0  0  0  0  0  0  0  0  0
    3.0036   -1.2984   -0.5525 H   0  0  0  0  0  0  0  0  0  0  0  0
   -3.2327    1.7810   -0.3677 H   0  0  0  0  0  0  0  0  0  0  0  0
   -5.6615    2.0623   -0.4742 H   0  0  0  0  0  0  0  0  0  0  0  0
   -6.1295   -2.0827    0.4539 H   0  0  0  0  0  0  0  0  0  0  0  0
  1  2  1  0
  2  3  1  0
  2  4  1  0
  4  5  1  0
  5  6  1  0
  6  7  1  0
  7  8  1  0
  8  9  1  0
  9 10  1  0
 10 11  2  0
 11 12  1  0
 12 13  2  0
 13 14  1  0
 14 15  3  0
 13 16  1  0
 16 17  2  0
 16 18  1  0
 18 19  1  0
 18 20  1  0
 18 21  1  0
  6 22  1  0
 22 23  2  0
 23 24  1  0
 24 25  2  0
 25 26  1  0
 25 27  1  0
 27 28  2  0
 28 29  1  0
 29 30  1  0
 29 31  1  0
 29 32  1  0
  9  4  1  0
 17 10  1  0
 28 22  1  0
  1 33  1  0
  1 34  1  0
  1 35  1  0
  2 36  1  0
  3 37  1  0
  3 38  1  0
  3 39  1  0
  4 40  1  6
  5 41  1  0
  5 42  1  0
  7 43  1  0
  7 44  1  0
  8 45  1  0
  8 46  1  0
 11 47  1  0
 12 48  1  0
 17 49  1  0
 23 50  1  0
 24 51  1  0
 27 52  1  0
M  END
$$$$
[H]C1=C2C([H])([H])C([H])([H])C3([H])C4([H])C([H])([H])C([H])=C(c5c([H])nc([H])c([H])c5[H])[C@@]4(C([H])([H])[H])C([H])([H])C([H])([H])C3([H])[C@@]2(C([H])([H])[H])C([H])([H])C([H])([H])C1=O
     RDKit          3D

 55 59  0  0  0  0  0  0  0  0999 V2000
    1.9530   -1.8919    0.4996 C   0  0  0  0  0  0  0  0  0  0  0  0
    1.4588   -0.5796   -0.1550 C   0  0  2  0  0  0  0  0  0  0  0  0
    0.8061    0.2086    0.9218 C   0  0  0  0  0  0  0  0  0  0  0  0
   -0.1836    1.1705    0.3346 C   0  0  0  0  0  0  0  0  0  0  0  0
   -1.2980    0.5110   -0.4011 C   0  0  0  0  0  0  0  0  0  0  0  0
   -0.9176   -0.7704   -1.0557 C   0  0  0  0  0  0  0  0  0  0  0  0
   -1.4484   -2.0230   -0.4059 C   0  0  0  0  0  0  0  0  0  0  0  0
   -2.9056   -2.0455   -0.1342 C   0  0  0  0  0  0  0  0  0  0  0  0
   -3.4401   -0.6402   -0.0188 C   0  0  0  0  0  0  0  0  0  0  0  0
   -4.6759   -0.4246   -0.3728 C   0  0  0  0  0  0  0  0  0  0  0  0
   -5.2458    0.9018   -0.2859 C   0  0  0  0  0  0  0  0  0  0  0  0
   -6.4470    1.1032   -0.0754 O   0  0  0  0  0  0  0  0  0  0  0  0
   -4.2406    2.0138   -0.4757 C   0  0  0  0  0  0  0  0  0  0  0  0
   -3.1879    1.7478    0.5559 C   0  0  0  0  0  0  0  0  0  0  0  0
   -2.5409    0.3944    0.4829 C   0  0  2  0  0  0  0  0  0  0  0  0
   -2.2072    0.0473    1.9223 C   0  0  0  0  0  0  0  0  0  0  0  0
    0.5633   -0.9670   -1.2433 C   0  0  0  0  0  0  0  0  0  0  0  0
    1.0331   -0.1416   -2.4102 C   0  0  0  0  0  0  0  0  0  0  0  0
    2.3862    0.2678   -2.0007 C   0  0  0  0  0  0  0  0  0  0  0  0
    2.6560    0.0343   -0.7326 C   0  0  0  0  0  0  0  0  0  0  0  0
    3.9450    0.3714   -0.1216 C   0  0  0  0  0  0  0  0  0  0  0  0
    4.2327    0.1426    1.1929 C   0  0  0  0  0  0  0  0  0  0  0  0
    5.4748    0.4792    1.7363 C   0  0  0  0  0  0  0  0  0  0  0  0
    6.4569    1.0569    0.9594 C   0  0  0  0  0  0  0  0  0  0  0  0
    6.1713    1.2760   -0.3145 N   0  0  0  0  0  0  0  0  0  0  0  0
    4.9721    0.9525   -0.8450 C   0  0  0  0  0  0  0  0  0  0  0  0
    1.4538   -2.7755    0.0329 H   0  0  0  0  0  0  0  0  0  0  0  0
    1.6875   -1.9352    1.5736 H   0  0  0  0  0  0  0  0  0  0  0  0
    3.0280   -2.0585    0.3255 H   0  0  0  0  0  0  0  0  0  0  0  0
    0.3762   -0.5015    1.6574 H   0  0  0  0  0  0  0  0  0  0  0  0
    1.4975    0.8412    1.5239 H   0  0  0  0  0  0  0  0  0  0  0  0
    0.4397    1.8309   -0.3475 H   0  0  0  0  0  0  0  0  0  0  0  0
   -0.5077    1.8603    1.1323 H   0  0  0  0  0  0  0  0  0  0  0  0
   -1.6111    1.2546   -1.1708 H   0  0  0  0  0  0  0  0  0  0  0  0
   -1.3655   -0.7822   -2.0738 H   0  0  0  0  0  0  0  0  0  0  0  0
   -0.8309   -2.3295    0.4888 H   0  0  0  0  0  0  0  0  0  0  0  0
   -1.2375   -2.8756   -1.1247 H   0  0  0  0  0  0  0  0  0  0  0  0
   -3.4478   -2.5919   -0.9092 H   0  0  0  0  0  0  0  0  0  0  0  0
   -3.0645   -2.4957    0.8729 H   0  0  0  0  0  0  0  0  0  0  0  0
   -5.3271   -1.2385   -0.7470 H   0  0  0  0  0  0  0  0  0  0  0  0
   -4.7247    2.9592   -0.2362 H   0  0  0  0  0  0  0  0  0  0  0  0
   -3.8291    1.9734   -1.4900 H   0  0  0  0  0  0  0  0  0  0  0  0
   -3.6583    1.9470    1.5439 H   0  0  0  0  0  0  0  0  0  0  0  0
   -2.4350    2.5764    0.4446 H   0  0  0  0  0  0  0  0  0  0  0  0
   -1.5447    0.7469    2.4237 H   0  0  0  0  0  0  0  0  0  0  0  0
   -3.2042    0.1714    2.4511 H   0  0  0  0  0  0  0  0  0  0  0  0
   -1.9291   -0.9806    2.1060 H   0  0  0  0  0  0  0  0  0  0  0  0
    0.7564   -2.0390   -1.5557 H   0  0  0  0  0  0  0  0  0  0  0  0
    1.1061   -0.7369   -3.3474 H   0  0  0  0  0  0  0  0  0  0  0  0
    0.3991    0.7640   -2.5536 H   0  0  0  0  0  0  0  0  0  0  0  0
    3.1055    0.7343   -2.7206 H   0  0  0  0  0  0  0  0  0  0  0  0
    3.5453   -0.2940    1.8609 H   0  0  0  0  0  0  0  0  0  0  0  0
    5.6800    0.2919    2.7674 H   0  0  0  0  0  0  0  0  0  0  0  0
    7.4049    1.3048    1.4089 H   0  0  0  0  0  0  0  0  0  0  0  0
    4.8665    1.1828   -1.8949 H   0  0  0  0  0  0  0  0  0  0  0  0
  2  1  1  1
  2  3  1  0
  3  4  1  0
  4  5  1  0
  5  6  1  0
  6  7  1  0
  7  8  1  0
  8  9  1  0
  9 10  2  0
 10 11  1  0
 11 12  2  0
 11 13  1  0
 13 14  1  0
 14 15  1  0
 15 16  1  1
  6 17  1  0
 17 18  1  0
 18 19  1  0
 19 20  2  0
 20 21  1  0
 21 22  2  0
 22 23  1  0
 23 24  2  0
 24 25  1  0
 25 26  2  0
 17  2  1  0
 26 21  1  0
 20  2  1  0
 15  5  1  0
 15  9  1  0
  1 27  1  0
  1 28  1  0
  1 29  1  0
  3 30  1  0
  3 31  1  0
  4 32  1  0
  4 33  1  0
  5 34  1  0
  6 35  1  0
  7 36  1  0
  7 37  1  0
  8 38  1  0
  8 39  1  0
 10 40  1  0
 13 41  1  0
 13 42  1  0
 14 43  1  0
 14 44  1  0
 16 45  1  0
 16 46  1  0
 16 47  1  0
 17 48  1  0
 18 49  1  0
 18 50  1  0
 19 51  1  0
 22 52  1  0
 23 53  1  0
 24 54  1  0
 26 55  1  0
M  END
$$$$
[H]C1=C([H])C([H])(F)C([H])([H])C([H])=C1N([H])C(=O)C1(C(=O)N([H])c2c([H])c([H])c(Oc3c([H])c([H])nc4c([H])c(OC([H])([H])C([H])([H])C([H])([H])N5C([H])([H])C([H])([H])OC([H])([H])C5([H])[H])c(OC([H])([H])[H])c([H])c34)c(F)c2[H])C([H])([H])C1([H])[H]
     RDKit          3D

 82 87  0  0  0  0  0  0  0  0999 V2000
    3.9666    3.0495   -1.7322 C   0  0  0  0  0  0  0  0  0  0  0  0
    4.8184    1.9472   -1.5191 O   0  0  0  0  0  0  0  0  0  0  0  0
    4.2779    0.7150   -1.2054 C   0  0  0  0  0  0  0  0  0  0  0  0
    2.9355    0.4830   -1.0834 C   0  0  0  0  0  0  0  0  0  0  0  0
    2.5057   -0.7878   -0.7673 C   0  0  0  0  0  0  0  0  0  0  0  0
    1.1302   -1.0757   -0.6337 C   0  0  0  0  0  0  0  0  0  0  0  0
    0.2693   -0.0306   -0.8259 O   0  0  0  0  0  0  0  0  0  0  0  0
   -1.0898   -0.1642   -0.6451 C   0  0  0  0  0  0  0  0  0  0  0  0
   -1.9847   -0.0120   -1.6950 C   0  0  0  0  0  0  0  0  0  0  0  0
   -3.3381   -0.1282   -1.5809 C   0  0  0  0  0  0  0  0  0  0  0  0
   -3.8905   -0.4214   -0.3289 C   0  0  0  0  0  0  0  0  0  0  0  0
   -5.3238   -0.4986   -0.2135 N   0  0  0  0  0  0  0  0  0  0  0  0
   -5.9613   -1.3830    0.6262 C   0  0  0  0  0  0  0  0  0  0  0  0
   -5.1921   -2.1849    1.2964 O   0  0  0  0  0  0  0  0  0  0  0  0
   -7.4011   -1.5958    0.9101 C   0  0  0  0  0  0  0  0  0  0  0  0
   -7.6820   -2.4618    2.1265 C   0  0  0  0  0  0  0  0  0  0  0  0
   -7.8126   -3.1190    0.8294 C   0  0  0  0  0  0  0  0  0  0  0  0
   -8.4706   -0.6963    0.4763 C   0  0  0  0  0  0  0  0  0  0  0  0
   -9.6747   -1.1656    0.7176 O   0  0  0  0  0  0  0  0  0  0  0  0
   -8.4814    0.5528   -0.1324 N   0  0  0  0  0  0  0  0  0  0  0  0
   -9.7446    1.2195   -0.4499 C   0  0  0  0  0  0  0  0  0  0  0  0
   -9.9496    2.4040    0.0799 C   0  0  0  0  0  0  0  0  0  0  0  0
  -11.1350    3.2347   -0.1097 C   0  0  0  0  0  0  0  0  0  0  0  0
  -12.2008    2.6387   -0.9439 C   0  0  0  0  0  0  0  0  0  0  0  0
  -12.4721    3.4850   -2.0494 F   0  0  0  0  0  0  0  0  0  0  0  0
  -11.8730    1.3187   -1.4859 C   0  0  0  0  0  0  0  0  0  0  0  0
  -10.7586    0.6480   -1.2759 C   0  0  0  0  0  0  0  0  0  0  0  0
   -3.0432   -0.5784    0.7341 C   0  0  0  0  0  0  0  0  0  0  0  0
   -1.6522   -0.4525    0.5863 C   0  0  0  0  0  0  0  0  0  0  0  0
   -0.8827   -0.5957    1.6903 F   0  0  0  0  0  0  0  0  0  0  0  0
    0.7223   -2.3515   -0.3227 C   0  0  0  0  0  0  0  0  0  0  0  0
    1.6378   -3.3635   -0.1352 C   0  0  0  0  0  0  0  0  0  0  0  0
    2.9451   -3.0865   -0.2619 N   0  0  0  0  0  0  0  0  0  0  0  0
    3.3732   -1.8309   -0.5703 C   0  0  0  0  0  0  0  0  0  0  0  0
    4.7330   -1.5901   -0.6954 C   0  0  0  0  0  0  0  0  0  0  0  0
    5.1920   -0.3333   -1.0085 C   0  0  0  0  0  0  0  0  0  0  0  0
    6.5206   -0.0853   -1.1253 O   0  0  0  0  0  0  0  0  0  0  0  0
    7.5310   -0.9938   -0.8772 C   0  0  0  0  0  0  0  0  0  0  0  0
    7.6262   -1.3701    0.5948 C   0  0  0  0  0  0  0  0  0  0  0  0
    7.9359   -0.0985    1.3961 C   0  0  0  0  0  0  0  0  0  0  0  0
    9.1945    0.4265    0.9288 N   0  0  0  0  0  0  0  0  0  0  0  0
    9.4053    1.7864    1.4776 C   0  0  0  0  0  0  0  0  0  0  0  0
   10.8161    2.1639    1.0165 C   0  0  0  0  0  0  0  0  0  0  0  0
   11.2632    1.3549   -0.0281 O   0  0  0  0  0  0  0  0  0  0  0  0
   11.4615    0.0232    0.3872 C   0  0  0  0  0  0  0  0  0  0  0  0
   10.3466   -0.3576    1.3702 C   0  0  0  0  0  0  0  0  0  0  0  0
    4.5770    3.9509   -1.9692 H   0  0  0  0  0  0  0  0  0  0  0  0
    3.3066    3.2216   -0.8582 H   0  0  0  0  0  0  0  0  0  0  0  0
    3.3086    2.7911   -2.5987 H   0  0  0  0  0  0  0  0  0  0  0  0
    2.2243    1.2761   -1.2311 H   0  0  0  0  0  0  0  0  0  0  0  0
   -1.5528    0.2161   -2.6750 H   0  0  0  0  0  0  0  0  0  0  0  0
   -4.0246   -0.0039   -2.4200 H   0  0  0  0  0  0  0  0  0  0  0  0
   -5.8260    0.1518   -0.8369 H   0  0  0  0  0  0  0  0  0  0  0  0
   -6.8106   -2.7138    2.7607 H   0  0  0  0  0  0  0  0  0  0  0  0
   -8.5985   -2.2800    2.7131 H   0  0  0  0  0  0  0  0  0  0  0  0
   -7.0275   -3.7752    0.4011 H   0  0  0  0  0  0  0  0  0  0  0  0
   -8.7992   -3.3162    0.3639 H   0  0  0  0  0  0  0  0  0  0  0  0
   -7.6334    1.0911   -0.3743 H   0  0  0  0  0  0  0  0  0  0  0  0
   -9.1652    2.8388    0.7401 H   0  0  0  0  0  0  0  0  0  0  0  0
  -11.5358    3.5321    0.9159 H   0  0  0  0  0  0  0  0  0  0  0  0
  -10.8538    4.2484   -0.5572 H   0  0  0  0  0  0  0  0  0  0  0  0
  -13.1586    2.5647   -0.3407 H   0  0  0  0  0  0  0  0  0  0  0  0
  -12.6648    0.8691   -2.1323 H   0  0  0  0  0  0  0  0  0  0  0  0
  -10.6018   -0.3227   -1.7168 H   0  0  0  0  0  0  0  0  0  0  0  0
   -3.4037   -0.7893    1.7394 H   0  0  0  0  0  0  0  0  0  0  0  0
   -0.3200   -2.5956   -0.2356 H   0  0  0  0  0  0  0  0  0  0  0  0
    1.2680   -4.3480    0.1079 H   0  0  0  0  0  0  0  0  0  0  0  0
    5.3620   -2.4538   -0.5623 H   0  0  0  0  0  0  0  0  0  0  0  0
    7.4424   -1.9223   -1.5038 H   0  0  0  0  0  0  0  0  0  0  0  0
    8.4920   -0.5348   -1.2249 H   0  0  0  0  0  0  0  0  0  0  0  0
    6.7751   -1.8921    1.0071 H   0  0  0  0  0  0  0  0  0  0  0  0
    8.4922   -2.0400    0.6815 H   0  0  0  0  0  0  0  0  0  0  0  0
    7.1233    0.6400    1.3255 H   0  0  0  0  0  0  0  0  0  0  0  0
    8.0487   -0.4301    2.4644 H   0  0  0  0  0  0  0  0  0  0  0  0
    9.4079    1.7624    2.5778 H   0  0  0  0  0  0  0  0  0  0  0  0
    8.6320    2.4413    1.0296 H   0  0  0  0  0  0  0  0  0  0  0  0
   11.5508    2.0414    1.8480 H   0  0  0  0  0  0  0  0  0  0  0  0
   10.8264    3.2054    0.6080 H   0  0  0  0  0  0  0  0  0  0  0  0
   11.3001   -0.6008   -0.5146 H   0  0  0  0  0  0  0  0  0  0  0  0
   12.4569   -0.1361    0.8078 H   0  0  0  0  0  0  0  0  0  0  0  0
   10.1090   -1.3943    1.4038 H   0  0  0  0  0  0  0  0  0  0  0  0
   10.6797    0.0679    2.3647 H   0  0  0  0  0  0  0  0  0  0  0  0
  1  2  1  0
  2  3  1  0
  3  4  2  0
  4  5  1  0
  5  6  2  0
  6  7  1  0
  7  8  1  0
  8  9  2  0
  9 10  1  0
 10 11  2  0
 11 12  1  0
 12 13  1  0
 13 14  2  0
 13 15  1  0
 15 16  1  0
 16 17  1  0
 15 18  1  0
 18 19  2  0
 18 20  1  0
 20 21  1  0
 21 22  2  0
 22 23  1  0
 23 24  1  0
 24 25  1  0
 24 26  1  0
 26 27  2  0
 11 28  1  0
 28 29  2  0
 29 30  1  0
  6 31  1  0
 31 32  2  0
 32 33  1  0
 33 34  2  0
 34 35  1  0
 35 36  2  0
 36 37  1  0
 37 38  1  0
 38 39  1  0
 39 40  1  0
 40 41  1  0
 41 42  1  0
 42 43  1  0
 43 44  1  0
 44 45  1  0
 45 46  1  0
 36  3  1  0
 46 41  1  0
 34  5  1  0
 29  8  1  0
 17 15  1  0
 27 21  1  0
  1 47  1  0
  1 48  1  0
  1 49  1  0
  4 50  1  0
  9 51  1  0
 10 52  1  0
 12 53  1  0
 16 54  1  0
 16 55  1  0
 17 56  1  0
 17 57  1  0
 20 58  1  0
 22 59  1  0
 23 60  1  0
 23 61  1  0
 24 62  1  0
 26 63  1  0
 27 64  1  0
 28 65  1  0
 31 66  1  0
 32 67  1  0
 35 68  1  0
 38 69  1  0
 38 70  1  0
 39 71  1  0
 39 72  1  0
 40 73  1  0
 40 74  1  0
 42 75  1  0
 42 76  1  0
 43 77  1  0
 43 78  1  0
 45 79  1  0
 45 80  1  0
 46 81  1  0
 46 82  1  0
M  END
$$$$
[H]OC([H])([H])C([H])(O[H])c1[se]c(-c2c([H])c([H])c(OC([H])(C([H])([H])[H])C([H])([H])[H])c(C#N)c2[H])nc1C([H])([H])[H]
     RDKit          3D

 40 41  0  0  0  0  0  0  0  0999 V2000
    6.1378    1.7482    0.1488 C   0  0  0  0  0  0  0  0  0  0  0  0
    5.3435    0.4758   -0.0660 C   0  0  0  0  0  0  0  0  0  0  0  0
    6.2260   -0.6842    0.4070 C   0  0  0  0  0  0  0  0  0  0  0  0
    4.2174    0.4884    0.7413 O   0  0  0  0  0  0  0  0  0  0  0  0
    2.9038    0.3433    0.3856 C   0  0  0  0  0  0  0  0  0  0  0  0
    2.4721    0.1492   -0.9091 C   0  0  0  0  0  0  0  0  0  0  0  0
    1.1423    0.0100   -1.2076 C   0  0  0  0  0  0  0  0  0  0  0  0
    0.1809    0.0596   -0.2149 C   0  0  0  0  0  0  0  0  0  0  0  0
    0.6058    0.2539    1.0865 C   0  0  0  0  0  0  0  0  0  0  0  0
    1.9401    0.3925    1.3774 C   0  0  0  0  0  0  0  0  0  0  0  0
    2.3804    0.5961    2.7467 C   0  0  0  0  0  0  0  0  0  0  0  0
    2.7256    0.7463    3.8407 N   0  0  0  0  0  0  0  0  0  0  0  0
   -1.1917   -0.0925   -0.5884 C   0  0  0  0  0  0  0  0  0  0  0  0
   -2.0629   -0.2678   -1.4288 N   0  0  0  0  0  0  0  0  0  0  0  0
   -3.3103   -0.3691   -1.5066 C   0  0  0  0  0  0  0  0  0  0  0  0
   -4.0173   -0.5980   -2.8517 C   0  0  0  0  0  0  0  0  0  0  0  0
   -4.1321   -0.2841   -0.4163 C   0  0  0  0  0  0  0  0  0  0  0  0
   -2.6783    0.0188    1.0659 Se  0  0  0  0  0  2  0  0  0  0  0  0
   -5.5666   -0.3522   -0.1530 C   0  0  0  0  0  0  0  0  0  0  0  0
   -6.1898   -1.4703   -0.6597 O   0  0  0  0  0  0  0  0  0  0  0  0
   -5.7821   -0.2034    1.3465 C   0  0  0  0  0  0  0  0  0  0  0  0
   -5.2812   -1.3010    2.0328 O   0  0  0  0  0  0  0  0  0  0  0  0
    7.1472    1.6379   -0.2849 H   0  0  0  0  0  0  0  0  0  0  0  0
    6.2752    1.8342    1.2604 H   0  0  0  0  0  0  0  0  0  0  0  0
    5.6032    2.6492   -0.1665 H   0  0  0  0  0  0  0  0  0  0  0  0
    5.0831    0.3385   -1.1155 H   0  0  0  0  0  0  0  0  0  0  0  0
    7.1670   -0.3206    0.8643 H   0  0  0  0  0  0  0  0  0  0  0  0
    5.7090   -1.3124    1.1513 H   0  0  0  0  0  0  0  0  0  0  0  0
    6.4904   -1.3110   -0.4824 H   0  0  0  0  0  0  0  0  0  0  0  0
    3.1680    0.1032   -1.7094 H   0  0  0  0  0  0  0  0  0  0  0  0
    0.7764   -0.1440   -2.2237 H   0  0  0  0  0  0  0  0  0  0  0  0
   -0.1227    0.2985    1.8952 H   0  0  0  0  0  0  0  0  0  0  0  0
   -4.7826   -1.4039   -2.7287 H   0  0  0  0  0  0  0  0  0  0  0  0
   -4.5383    0.2978   -3.1717 H   0  0  0  0  0  0  0  0  0  0  0  0
   -3.3322   -0.9035   -3.6390 H   0  0  0  0  0  0  0  0  0  0  0  0
   -6.0536    0.5344   -0.6189 H   0  0  0  0  0  0  0  0  0  0  0  0
   -7.1541   -1.4717   -0.4497 H   0  0  0  0  0  0  0  0  0  0  0  0
   -6.8493   -0.0326    1.5432 H   0  0  0  0  0  0  0  0  0  0  0  0
   -5.2270    0.6883    1.7040 H   0  0  0  0  0  0  0  0  0  0  0  0
   -5.4230   -1.1420    2.9952 H   0  0  0  0  0  0  0  0  0  0  0  0
  1  2  1  0
  2  3  1  0
  2  4  1  0
  4  5  1  0
  5  6  2  0
  6  7  1  0
  7  8  2  0
  8  9  1  0
  9 10  2  0
 10 11  1  0
 11 12  3  0
  8 13  1  0
 13 14  2  0
 14 15  1  0
 15 16  1  0
 15 17  2  0
 17 18  1  0
 17 19  1  0
 19 20  1  0
 19 21  1  0
 21 22  1  0
 10  5  1  0
 18 13  1  0
  1 23  1  0
  1 24  1  0
  1 25  1  0
  2 26  1  0
  3 27  1  0
  3 28  1  0
  3 29  1  0
  6 30  1  0
  7 31  1  0
  9 32  1  0
 16 33  1  0
 16 34  1  0
 16 35  1  0
 19 36  1  0
 20 37  1  0
 21 38  1  0
 21 39  1  0
 22 40  1  0
M  END
$$$$
[H]N=C(N([H])[H])N([H])C([H])([H])C([H])([H])C([H])([H])[C@@]([H])(C([H])=O)N([H])C(=O)[C@@]1([H])N(C(=O)[C@]([H])(N([H])C(=O)OC([H])([H])c2c([H])c([H])c([H])c([H])c2[H])C([H])([H])c2c([H])c([H])c([H])c([H])c2[H])C([H])([H])C([H])([H])C1([H])[H]
     RDKit          3D

 75 77  0  0  0  0  0  0  0  0999 V2000
    5.8001    2.5252    3.8620 N   0  0  0  0  0  0  0  0  0  0  0  0
    6.2049    2.7641    2.5064 C   0  0  0  0  0  0  0  0  0  0  0  0
    7.4774    3.0044    2.3058 N   0  0  0  0  0  0  0  0  0  0  0  0
    5.3133    2.7494    1.4139 N   0  0  0  0  0  0  0  0  0  0  0  0
    4.0075    2.1298    1.4806 C   0  0  0  0  0  0  0  0  0  0  0  0
    3.2874    2.2129    0.1763 C   0  0  0  0  0  0  0  0  0  0  0  0
    3.9440    1.5640   -0.9832 C   0  0  0  0  0  0  0  0  0  0  0  0
    4.1696    0.0979   -0.9120 C   0  0  2  0  0  0  0  0  0  0  0  0
    2.9458   -0.6579   -0.7598 N   0  0  0  0  0  0  0  0  0  0  0  0
    2.5718   -1.7108   -1.6115 C   0  0  0  0  0  0  0  0  0  0  0  0
    3.3966   -1.9888   -2.5585 O   0  0  0  0  0  0  0  0  0  0  0  0
    1.3760   -2.5328   -1.5666 C   0  0  2  0  0  0  0  0  0  0  0  0
    1.0298   -3.2573   -2.8234 C   0  0  0  0  0  0  0  0  0  0  0  0
    0.2652   -2.2221   -3.6216 C   0  0  0  0  0  0  0  0  0  0  0  0
   -0.1773   -1.2006   -2.5836 C   0  0  0  0  0  0  0  0  0  0  0  0
    0.1399   -1.8126   -1.2971 N   0  0  0  0  0  0  0  0  0  0  0  0
   -0.5159   -1.7456   -0.0549 C   0  0  0  0  0  0  0  0  0  0  0  0
    0.0620   -2.3298    0.9334 O   0  0  0  0  0  0  0  0  0  0  0  0
   -1.8077   -1.0606    0.1962 C   0  0  1  0  0  0  0  0  0  0  0  0
   -2.9924   -2.0123    0.1533 C   0  0  0  0  0  0  0  0  0  0  0  0
   -3.1932   -2.7229   -1.0880 C   0  0  0  0  0  0  0  0  0  0  0  0
   -3.9791   -2.2493   -2.1055 C   0  0  0  0  0  0  0  0  0  0  0  0
   -4.1529   -2.9799   -3.2838 C   0  0  0  0  0  0  0  0  0  0  0  0
   -3.5002   -4.2015   -3.3898 C   0  0  0  0  0  0  0  0  0  0  0  0
   -2.6970   -4.7032   -2.3756 C   0  0  0  0  0  0  0  0  0  0  0  0
   -2.5530   -3.9591   -1.2369 C   0  0  0  0  0  0  0  0  0  0  0  0
   -1.8442   -0.5204    1.5670 N   0  0  0  0  0  0  0  0  0  0  0  0
   -2.0703    0.8531    1.8141 C   0  0  0  0  0  0  0  0  0  0  0  0
   -2.2476    1.6512    0.8202 O   0  0  0  0  0  0  0  0  0  0  0  0
   -2.1202    1.4321    3.0684 O   0  0  0  0  0  0  0  0  0  0  0  0
   -2.3547    2.8039    3.2035 C   0  0  0  0  0  0  0  0  0  0  0  0
   -3.6790    3.1164    2.6103 C   0  0  0  0  0  0  0  0  0  0  0  0
   -4.7172    2.1793    2.5984 C   0  0  0  0  0  0  0  0  0  0  0  0
   -5.9518    2.4362    2.0525 C   0  0  0  0  0  0  0  0  0  0  0  0
   -6.2303    3.6547    1.4826 C   0  0  0  0  0  0  0  0  0  0  0  0
   -5.1986    4.5854    1.4970 C   0  0  0  0  0  0  0  0  0  0  0  0
   -3.9727    4.3257    2.0381 C   0  0  0  0  0  0  0  0  0  0  0  0
    5.2430   -0.2930    0.0193 C   0  0  0  0  0  0  0  0  0  0  0  0
    5.1095   -1.1930    0.8262 O   0  0  0  0  0  0  0  0  0  0  0  0
    5.4188    3.3208    4.4131 H   0  0  0  0  0  0  0  0  0  0  0  0
    5.8859    1.5750    4.2955 H   0  0  0  0  0  0  0  0  0  0  0  0
    7.7721    3.1789    1.3139 H   0  0  0  0  0  0  0  0  0  0  0  0
    5.5952    3.2029    0.5222 H   0  0  0  0  0  0  0  0  0  0  0  0
    4.0280    1.1489    1.9535 H   0  0  0  0  0  0  0  0  0  0  0  0
    3.4339    2.7983    2.2056 H   0  0  0  0  0  0  0  0  0  0  0  0
    2.2541    1.8267    0.3224 H   0  0  0  0  0  0  0  0  0  0  0  0
    3.1294    3.2978   -0.0970 H   0  0  0  0  0  0  0  0  0  0  0  0
    4.9187    2.1181   -1.1689 H   0  0  0  0  0  0  0  0  0  0  0  0
    3.3559    1.7559   -1.9242 H   0  0  0  0  0  0  0  0  0  0  0  0
    4.5356   -0.1998   -1.9624 H   0  0  0  0  0  0  0  0  0  0  0  0
    2.3199   -0.4060    0.0266 H   0  0  0  0  0  0  0  0  0  0  0  0
    1.5217   -3.3014   -0.7638 H   0  0  0  0  0  0  0  0  0  0  0  0
    0.3589   -4.1085   -2.5179 H   0  0  0  0  0  0  0  0  0  0  0  0
    1.8809   -3.7014   -3.3479 H   0  0  0  0  0  0  0  0  0  0  0  0
    0.9223   -1.7905   -4.3953 H   0  0  0  0  0  0  0  0  0  0  0  0
   -0.6164   -2.7053   -4.0908 H   0  0  0  0  0  0  0  0  0  0  0  0
    0.4396   -0.2733   -2.7201 H   0  0  0  0  0  0  0  0  0  0  0  0
   -1.2154   -0.9127   -2.7090 H   0  0  0  0  0  0  0  0  0  0  0  0
   -1.9623   -0.2166   -0.4790 H   0  0  0  0  0  0  0  0  0  0  0  0
   -3.9189   -1.4663    0.4319 H   0  0  0  0  0  0  0  0  0  0  0  0
   -2.8199   -2.7025    1.0349 H   0  0  0  0  0  0  0  0  0  0  0  0
   -4.4580   -1.2943   -1.9708 H   0  0  0  0  0  0  0  0  0  0  0  0
   -4.7764   -2.5705   -4.0596 H   0  0  0  0  0  0  0  0  0  0  0  0
   -3.6109   -4.7858   -4.2845 H   0  0  0  0  0  0  0  0  0  0  0  0
   -2.2293   -5.6630   -2.5458 H   0  0  0  0  0  0  0  0  0  0  0  0
   -1.9301   -4.3416   -0.4399 H   0  0  0  0  0  0  0  0  0  0  0  0
   -1.6942   -1.1683    2.3521 H   0  0  0  0  0  0  0  0  0  0  0  0
   -2.4330    3.0671    4.2931 H   0  0  0  0  0  0  0  0  0  0  0  0
   -1.5819    3.4255    2.7018 H   0  0  0  0  0  0  0  0  0  0  0  0
   -4.5539    1.2062    3.0365 H   0  0  0  0  0  0  0  0  0  0  0  0
   -6.7243    1.6601    2.0695 H   0  0  0  0  0  0  0  0  0  0  0  0
   -7.1930    3.8544    1.0638 H   0  0  0  0  0  0  0  0  0  0  0  0
   -5.4288    5.5548    1.0433 H   0  0  0  0  0  0  0  0  0  0  0  0
   -3.2067    5.0847    2.0234 H   0  0  0  0  0  0  0  0  0  0  0  0
    6.1939    0.2235    0.0001 H   0  0  0  0  0  0  0  0  0  0  0  0
  1  2  1  0
  2  3  2  3
  2  4  1  0
  4  5  1  0
  5  6  1  0
  6  7  1  0
  7  8  1  0
  8  9  1  0
  9 10  1  0
 10 11  2  0
 10 12  1  0
 12 13  1  0
 13 14  1  0
 14 15  1  0
 15 16  1  0
 16 17  1  0
 17 18  2  0
 17 19  1  0
 19 20  1  0
 20 21  1  0
 21 22  2  0
 22 23  1  0
 23 24  2  0
 24 25  1  0
 25 26  2  0
 19 27  1  0
 27 28  1  0
 28 29  2  0
 28 30  1  0
 30 31  1  0
 31 32  1  0
 32 33  2  0
 33 34  1  0
 34 35  2  0
 35 36  1  0
 36 37  2  0
  8 38  1  0
 38 39  2  0
 16 12  1  0
 26 21  1  0
 37 32  1  0
  1 40  1  0
  1 41  1  0
  3 42  1  0
  4 43  1  0
  5 44  1  0
  5 45  1  0
  6 46  1  0
  6 47  1  0
  7 48  1  0
  7 49  1  0
  8 50  1  6
  9 51  1  0
 12 52  1  1
 13 53  1  0
 13 54  1  0
 14 55  1  0
 14 56  1  0
 15 57  1  0
 15 58  1  0
 19 59  1  6
 20 60  1  0
 20 61  1  0
 22 62  1  0
 23 63  1  0
 24 64  1  0
 25 65  1  0
 26 66  1  0
 27 67  1  0
 31 68  1  0
 31 69  1  0
 33 70  1  0
 34 71  1  0
 35 72  1  0
 36 73  1  0
 37 74  1  0
 38 75  1  0
M  END
$$$$
[H]c1nc2c(-c3c([H])c([H])c([H])c4c([H])nc([H])c([H])c34)c([H])nn2c([H])c1-c1c([H])c([H])c(N2C([H])([H])C([H])([H])N([H])C([H])([H])C2([H])[H])c([H])c1[H]
     RDKit          3D

 53 58  0  0  0  0  0  0  0  0999 V2000
   -7.5252   -0.6142    0.8568 C   0  0  0  0  0  0  0  0  0  0  0  0
   -6.1775   -0.1040    1.3694 C   0  0  0  0  0  0  0  0  0  0  0  0
   -5.4434    0.2649    0.1548 N   0  0  0  0  0  0  0  0  0  0  0  0
   -6.1865    0.8049   -0.9424 C   0  0  0  0  0  0  0  0  0  0  0  0
   -7.5418    1.3173   -0.5806 C   0  0  0  0  0  0  0  0  0  0  0  0
   -8.2595    0.5351    0.3717 N   0  0  0  0  0  0  0  0  0  0  0  0
   -4.0462    0.1073    0.0762 C   0  0  0  0  0  0  0  0  0  0  0  0
   -3.3051   -0.1202    1.2326 C   0  0  0  0  0  0  0  0  0  0  0  0
   -1.9298   -0.2966    1.1179 C   0  0  0  0  0  0  0  0  0  0  0  0
   -1.2581   -0.2588   -0.0765 C   0  0  0  0  0  0  0  0  0  0  0  0
   -2.0312   -0.0269   -1.2199 C   0  0  0  0  0  0  0  0  0  0  0  0
   -3.3937    0.1522   -1.1560 C   0  0  0  0  0  0  0  0  0  0  0  0
    0.1694   -0.4420   -0.1579 C   0  0  0  0  0  0  0  0  0  0  0  0
    1.0354   -0.0443    0.8376 C   0  0  0  0  0  0  0  0  0  0  0  0
    2.3588   -0.2461    0.6476 N   0  0  0  0  0  0  0  0  0  0  0  0
    2.8358   -0.8246   -0.4894 C   0  0  0  0  0  0  0  0  0  0  0  0
    4.1196   -1.0971   -0.9025 C   0  0  0  0  0  0  0  0  0  0  0  0
    4.0481   -1.6608   -2.1378 C   0  0  0  0  0  0  0  0  0  0  0  0
    2.7529   -1.7311   -2.4749 N   0  0  0  0  0  0  0  0  0  0  0  0
    2.0154   -1.2209   -1.4694 N   0  0  0  0  0  0  0  0  0  0  0  0
    0.7029   -1.0248   -1.2893 C   0  0  0  0  0  0  0  0  0  0  0  0
    5.3357   -0.8332   -0.1315 C   0  0  0  0  0  0  0  0  0  0  0  0
    5.8269   -1.6428    0.8525 C   0  0  0  0  0  0  0  0  0  0  0  0
    7.0126   -1.3100    1.4872 C   0  0  0  0  0  0  0  0  0  0  0  0
    7.6955   -0.1532    1.1173 C   0  0  0  0  0  0  0  0  0  0  0  0
    7.2122    0.6766    0.1242 C   0  0  0  0  0  0  0  0  0  0  0  0
    7.8706    1.8582   -0.2435 C   0  0  0  0  0  0  0  0  0  0  0  0
    7.3258    2.6432   -1.2111 N   0  0  0  0  0  0  0  0  0  0  0  0
    6.1785    2.3286   -1.8311 C   0  0  0  0  0  0  0  0  0  0  0  0
    5.5321    1.1644   -1.4675 C   0  0  0  0  0  0  0  0  0  0  0  0
    6.0263    0.3168   -0.4888 C   0  0  0  0  0  0  0  0  0  0  0  0
   -8.0742   -1.0260    1.7252 H   0  0  0  0  0  0  0  0  0  0  0  0
   -7.3836   -1.4071    0.1008 H   0  0  0  0  0  0  0  0  0  0  0  0
   -5.6595   -0.8470    1.9702 H   0  0  0  0  0  0  0  0  0  0  0  0
   -6.3618    0.8776    1.8975 H   0  0  0  0  0  0  0  0  0  0  0  0
   -5.5718    1.6005   -1.4229 H   0  0  0  0  0  0  0  0  0  0  0  0
   -6.2888    0.0130   -1.7201 H   0  0  0  0  0  0  0  0  0  0  0  0
   -7.4320    2.3312   -0.1535 H   0  0  0  0  0  0  0  0  0  0  0  0
   -8.1933    1.4404   -1.4667 H   0  0  0  0  0  0  0  0  0  0  0  0
   -9.1579    0.1567   -0.0262 H   0  0  0  0  0  0  0  0  0  0  0  0
   -3.7981   -0.1555    2.2090 H   0  0  0  0  0  0  0  0  0  0  0  0
   -1.4135   -0.4666    2.0747 H   0  0  0  0  0  0  0  0  0  0  0  0
   -1.5493    0.0131   -2.1812 H   0  0  0  0  0  0  0  0  0  0  0  0
   -3.9942    0.3296   -2.0463 H   0  0  0  0  0  0  0  0  0  0  0  0
    0.6512    0.4180    1.7353 H   0  0  0  0  0  0  0  0  0  0  0  0
    4.8750   -2.0140   -2.7793 H   0  0  0  0  0  0  0  0  0  0  0  0
    0.0120   -1.3427   -2.0774 H   0  0  0  0  0  0  0  0  0  0  0  0
    5.2646   -2.5548    1.1178 H   0  0  0  0  0  0  0  0  0  0  0  0
    7.3935   -1.9628    2.2613 H   0  0  0  0  0  0  0  0  0  0  0  0
    8.6217    0.1167    1.6051 H   0  0  0  0  0  0  0  0  0  0  0  0
    8.7790    2.1085    0.2481 H   0  0  0  0  0  0  0  0  0  0  0  0
    5.7277    2.9600   -2.6170 H   0  0  0  0  0  0  0  0  0  0  0  0
    4.5965    0.8934   -1.9601 H   0  0  0  0  0  0  0  0  0  0  0  0
  1  2  1  0
  2  3  1  0
  3  4  1  0
  4  5  1  0
  5  6  1  0
  3  7  1  0
  7  8  2  0
  8  9  1  0
  9 10  2  0
 10 11  1  0
 11 12  2  0
 10 13  1  0
 13 14  1  0
 14 15  2  0
 15 16  1  0
 16 17  2  0
 17 18  1  0
 18 19  2  0
 19 20  1  0
 20 21  1  0
 17 22  1  0
 22 23  2  0
 23 24  1  0
 24 25  2  0
 25 26  1  0
 26 27  2  0
 27 28  1  0
 28 29  2  0
 29 30  1  0
 30 31  2  0
  6  1  1  0
 12  7  1  0
 21 13  2  0
 31 22  1  0
 20 16  1  0
 31 26  1  0
  1 32  1  0
  1 33  1  0
  2 34  1  0
  2 35  1  0
  4 36  1  0
  4 37  1  0
  5 38  1  0
  5 39  1  0
  6 40  1  0
  8 41  1  0
  9 42  1  0
 11 43  1  0
 12 44  1  0
 14 45  1  0
 18 46  1  0
 21 47  1  0
 23 48  1  0
 24 49  1  0
 25 50  1  0
 27 51  1  0
 29 52  1  0
 30 53  1  0
M  END
$$$$
[H]c1c([H])c([H])c2c(c1[H])c(C(=O)OC1([H])C([H])([H])C3([H])N(C([H])([H])[H])C([H])(C([H])([H])C3([H])[H])C1([H])[H])c([H])n2[H]
     RDKit          3D

 41 44  0  0  0  0  0  0  0  0999 V2000
   -5.2682    1.0423   -0.1017 C   0  0  0  0  0  0  0  0  0  0  0  0
   -3.8393    1.0029   -0.3151 N   0  0  0  0  0  0  0  0  0  0  0  0
   -3.1452    1.0980    0.9711 C   0  0  0  0  0  0  0  0  0  0  0  0
   -3.4633   -0.2168    1.6044 C   0  0  0  0  0  0  0  0  0  0  0  0
   -3.7039   -1.2142    0.4963 C   0  0  0  0  0  0  0  0  0  0  0  0
   -3.4760   -0.3338   -0.7393 C   0  0  0  0  0  0  0  0  0  0  0  0
   -2.0127   -0.4477   -1.0775 C   0  0  0  0  0  0  0  0  0  0  0  0
   -1.1120   -0.0252    0.0548 C   0  0  0  0  0  0  0  0  0  0  0  0
   -1.6757    1.2535    0.6485 C   0  0  0  0  0  0  0  0  0  0  0  0
    0.1787    0.2847   -0.4381 O   0  0  0  0  0  0  0  0  0  0  0  0
    1.3299   -0.3265    0.0282 C   0  0  0  0  0  0  0  0  0  0  0  0
    1.1992   -1.1892    0.9267 O   0  0  0  0  0  0  0  0  0  0  0  0
    2.6396    0.0067   -0.4910 C   0  0  0  0  0  0  0  0  0  0  0  0
    2.8876    0.9514   -1.4892 C   0  0  0  0  0  0  0  0  0  0  0  0
    4.1983    1.0180   -1.7364 N   0  0  0  0  0  0  0  0  0  0  0  0
    4.8463    0.1519   -0.9410 C   0  0  0  0  0  0  0  0  0  0  0  0
    6.1660   -0.1934   -0.7690 C   0  0  0  0  0  0  0  0  0  0  0  0
    6.5185   -1.1386    0.1475 C   0  0  0  0  0  0  0  0  0  0  0  0
    5.5761   -1.7718    0.9228 C   0  0  0  0  0  0  0  0  0  0  0  0
    4.2529   -1.4304    0.7553 C   0  0  0  0  0  0  0  0  0  0  0  0
    3.8793   -0.4880   -0.1555 C   0  0  0  0  0  0  0  0  0  0  0  0
   -5.7857    0.2039   -0.6547 H   0  0  0  0  0  0  0  0  0  0  0  0
   -5.7285    1.9793   -0.5323 H   0  0  0  0  0  0  0  0  0  0  0  0
   -5.5633    0.9204    0.9506 H   0  0  0  0  0  0  0  0  0  0  0  0
   -3.4805    1.9573    1.5665 H   0  0  0  0  0  0  0  0  0  0  0  0
   -2.6497   -0.6056    2.2487 H   0  0  0  0  0  0  0  0  0  0  0  0
   -4.3499   -0.0726    2.2557 H   0  0  0  0  0  0  0  0  0  0  0  0
   -4.7151   -1.6365    0.5073 H   0  0  0  0  0  0  0  0  0  0  0  0
   -2.9871   -2.0567    0.5135 H   0  0  0  0  0  0  0  0  0  0  0  0
   -4.0497   -0.6806   -1.6018 H   0  0  0  0  0  0  0  0  0  0  0  0
   -1.8151   -1.5440   -1.2388 H   0  0  0  0  0  0  0  0  0  0  0  0
   -1.7564    0.0423   -2.0265 H   0  0  0  0  0  0  0  0  0  0  0  0
   -1.0798   -0.8070    0.8484 H   0  0  0  0  0  0  0  0  0  0  0  0
   -1.0848    1.6264    1.4997 H   0  0  0  0  0  0  0  0  0  0  0  0
   -1.6081    2.0208   -0.1527 H   0  0  0  0  0  0  0  0  0  0  0  0
    2.1222    1.5298   -1.9749 H   0  0  0  0  0  0  0  0  0  0  0  0
    4.7122    1.6225   -2.4238 H   0  0  0  0  0  0  0  0  0  0  0  0
    6.9354    0.3006   -1.3785 H   0  0  0  0  0  0  0  0  0  0  0  0
    7.5679   -1.4047    0.2757 H   0  0  0  0  0  0  0  0  0  0  0  0
    5.8630   -2.5229    1.6503 H   0  0  0  0  0  0  0  0  0  0  0  0
    3.4772   -1.9245    1.3658 H   0  0  0  0  0  0  0  0  0  0  0  0
  1  2  1  0
  2  3  1  0
  3  4  1  0
  4  5  1  0
  5  6  1  0
  6  7  1  0
  7  8  1  0
  8  9  1  0
  8 10  1  0
 10 11  1  0
 11 12  2  0
 11 13  1  0
 13 14  2  0
 14 15  1  0
 15 16  1  0
 16 17  2  0
 17 18  1  0
 18 19  2  0
 19 20  1  0
 20 21  2  0
  6  2  1  0
 21 13  1  0
  9  3  1  0
 21 16  1  0
  1 22  1  0
  1 23  1  0
  1 24  1  0
  3 25  1  0
  4 26  1  0
  4 27  1  0
  5 28  1  0
  5 29  1  0
  6 30  1  0
  7 31  1  0
  7 32  1  0
  8 33  1  0
  9 34  1  0
  9 35  1  0
 14 36  1  0
 15 37  1  0
 17 38  1  0
 18 39  1  0
 19 40  1  0
 20 41  1  0
M  END
$$$$
[H]c1c([H])c(N([H])C(=O)C2(C(=O)N([H])c3c([H])c([H])c(-c4c([H])c([H])c([H])c5c4c(N([H])[H])nn5[H])c([H])c3[H])C([H])([H])C2([H])[H])c(F)c([H])c1F
     RDKit          3D

 52 56  0  0  0  0  0  0  0  0999 V2000
   -4.2868    0.5691   -2.5096 N   0  0  0  0  0  0  0  0  0  0  0  0
   -5.4730    0.0545   -1.9384 C   0  0  0  0  0  0  0  0  0  0  0  0
   -6.7138    0.1003   -2.4518 N   0  0  0  0  0  0  0  0  0  0  0  0
   -7.5688   -0.4912   -1.6625 N   0  0  0  0  0  0  0  0  0  0  0  0
   -6.8776   -0.9438   -0.5960 C   0  0  0  0  0  0  0  0  0  0  0  0
   -7.3292   -1.6344    0.4861 C   0  0  0  0  0  0  0  0  0  0  0  0
   -6.4155   -2.0126    1.4702 C   0  0  0  0  0  0  0  0  0  0  0  0
   -5.0942   -1.6887    1.3417 C   0  0  0  0  0  0  0  0  0  0  0  0
   -4.6146   -0.9821    0.2381 C   0  0  0  0  0  0  0  0  0  0  0  0
   -3.2361   -0.5236    0.1514 C   0  0  0  0  0  0  0  0  0  0  0  0
   -2.2247   -1.4515    0.0426 C   0  0  0  0  0  0  0  0  0  0  0  0
   -0.9095   -1.0418    0.0282 C   0  0  0  0  0  0  0  0  0  0  0  0
   -0.5453    0.3056    0.1213 C   0  0  0  0  0  0  0  0  0  0  0  0
    0.8248    0.6461    0.1754 N   0  0  0  0  0  0  0  0  0  0  0  0
    1.3822    1.9144    0.0716 C   0  0  0  0  0  0  0  0  0  0  0  0
    0.5721    2.9058   -0.1399 O   0  0  0  0  0  0  0  0  0  0  0  0
    2.8020    2.3074    0.1867 C   0  0  0  0  0  0  0  0  0  0  0  0
    3.1664    3.4091   -0.8154 C   0  0  0  0  0  0  0  0  0  0  0  0
    3.0795    3.7060    0.6096 C   0  0  0  0  0  0  0  0  0  0  0  0
    3.9078    1.3282    0.3723 C   0  0  0  0  0  0  0  0  0  0  0  0
    4.5725    1.3731    1.4792 O   0  0  0  0  0  0  0  0  0  0  0  0
    4.3025    0.3511   -0.5550 N   0  0  0  0  0  0  0  0  0  0  0  0
    5.3440   -0.5858   -0.3789 C   0  0  0  0  0  0  0  0  0  0  0  0
    5.7345   -1.1439    0.8252 C   0  0  0  0  0  0  0  0  0  0  0  0
    6.7393   -2.1041    0.9297 C   0  0  0  0  0  0  0  0  0  0  0  0
    7.3792   -2.5235   -0.2345 C   0  0  0  0  0  0  0  0  0  0  0  0
    8.3607   -3.4681   -0.0890 F   0  0  0  0  0  0  0  0  0  0  0  0
    7.0206   -1.9961   -1.4540 C   0  0  0  0  0  0  0  0  0  0  0  0
    6.0254   -1.0504   -1.5159 C   0  0  0  0  0  0  0  0  0  0  0  0
    5.6908   -0.5465   -2.7196 F   0  0  0  0  0  0  0  0  0  0  0  0
   -1.5966    1.1808    0.2264 C   0  0  0  0  0  0  0  0  0  0  0  0
   -2.9175    0.7987    0.2404 C   0  0  0  0  0  0  0  0  0  0  0  0
   -5.5255   -0.6204   -0.7217 C   0  0  0  0  0  0  0  0  0  0  0  0
   -3.5993   -0.0717   -2.9073 H   0  0  0  0  0  0  0  0  0  0  0  0
   -4.1342    1.5899   -2.5201 H   0  0  0  0  0  0  0  0  0  0  0  0
   -8.6033   -0.5915   -1.8216 H   0  0  0  0  0  0  0  0  0  0  0  0
   -8.3885   -1.8757    0.5659 H   0  0  0  0  0  0  0  0  0  0  0  0
   -6.8014   -2.5592    2.3026 H   0  0  0  0  0  0  0  0  0  0  0  0
   -4.3582   -1.9615    2.0795 H   0  0  0  0  0  0  0  0  0  0  0  0
   -2.4148   -2.5132   -0.0392 H   0  0  0  0  0  0  0  0  0  0  0  0
   -0.1209   -1.7512   -0.0596 H   0  0  0  0  0  0  0  0  0  0  0  0
    1.5193   -0.1520    0.3111 H   0  0  0  0  0  0  0  0  0  0  0  0
    4.1830    3.3206   -1.3071 H   0  0  0  0  0  0  0  0  0  0  0  0
    2.3834    3.6600   -1.5522 H   0  0  0  0  0  0  0  0  0  0  0  0
    2.2715    4.4191    0.9023 H   0  0  0  0  0  0  0  0  0  0  0  0
    4.0210    3.9473    1.1566 H   0  0  0  0  0  0  0  0  0  0  0  0
    3.7898    0.3192   -1.4678 H   0  0  0  0  0  0  0  0  0  0  0  0
    5.2414   -0.8638    1.7460 H   0  0  0  0  0  0  0  0  0  0  0  0
    6.9870   -2.4966    1.8814 H   0  0  0  0  0  0  0  0  0  0  0  0
    7.5610   -2.3546   -2.3245 H   0  0  0  0  0  0  0  0  0  0  0  0
   -1.3937    2.2634    0.3187 H   0  0  0  0  0  0  0  0  0  0  0  0
   -3.7188    1.5300    0.3258 H   0  0  0  0  0  0  0  0  0  0  0  0
  1  2  1  0
  2  3  2  0
  3  4  1  0
  4  5  1  0
  5  6  2  0
  6  7  1  0
  7  8  2  0
  8  9  1  0
  9 10  1  0
 10 11  2  0
 11 12  1  0
 12 13  2  0
 13 14  1  0
 14 15  1  0
 15 16  2  0
 15 17  1  0
 17 18  1  0
 18 19  1  0
 17 20  1  0
 20 21  2  0
 20 22  1  0
 22 23  1  0
 23 24  2  0
 24 25  1  0
 25 26  2  0
 26 27  1  0
 26 28  1  0
 28 29  2  0
 29 30  1  0
 13 31  1  0
 31 32  2  0
  9 33  2  0
 33  2  1  0
 33  5  1  0
 32 10  1  0
 19 17  1  0
 29 23  1  0
  1 34  1  0
  1 35  1  0
  4 36  1  0
  6 37  1  0
  7 38  1  0
  8 39  1  0
 11 40  1  0
 12 41  1  0
 14 42  1  0
 18 43  1  0
 18 44  1  0
 19 45  1  0
 19 46  1  0
 22 47  1  0
 24 48  1  0
 25 49  1  0
 28 50  1  0
 31 51  1  0
 32 52  1  0
M  END
$$$$
[H]ON([H])C(=O)C([H])([H])N(C([H])([H])c1c([H])c([H])c([N+](=O)[O-])c([H])c1[H])S(=O)(=O)c1c([H])c([H])c(Br)c([H])c1[H]
     RDKit          3D

 40 41  0  0  0  0  0  0  0  0999 V2000
   -2.1675    3.6659   -2.4223 O   0  0  0  0  0  0  0  0  0  0  0  0
   -1.4418    3.3539   -1.3331 N   0  0  0  0  0  0  0  0  0  0  0  0
   -1.0770    2.0202   -1.0750 C   0  0  0  0  0  0  0  0  0  0  0  0
   -1.4361    1.1277   -1.8713 O   0  0  0  0  0  0  0  0  0  0  0  0
   -0.2930    1.6874    0.1028 C   0  0  0  0  0  0  0  0  0  0  0  0
    0.0371    0.3291    0.3041 N   0  0  0  0  0  0  0  0  0  0  0  0
    1.0064   -0.2398   -0.5167 C   0  0  0  0  0  0  0  0  0  0  0  0
    2.3497   -0.4635    0.0755 C   0  0  0  0  0  0  0  0  0  0  0  0
    2.8247   -1.6928    0.4771 C   0  0  0  0  0  0  0  0  0  0  0  0
    4.0772   -1.8650    1.0273 C   0  0  0  0  0  0  0  0  0  0  0  0
    4.9240   -0.8107    1.2049 C   0  0  0  0  0  0  0  0  0  0  0  0
    4.4718    0.4436    0.8084 C   0  0  0  0  0  0  0  0  0  0  0  0
    3.2189    0.6098    0.2592 C   0  0  0  0  0  0  0  0  0  0  0  0
    6.2117   -0.9947    1.7716 N   0  0  0  0  0  0  0  0  0  0  0  0
    6.5943   -2.2554    2.1402 O   0  0  0  0  0  0  0  0  0  0  0  0
    6.9930   -0.0489    1.9399 O   0  0  0  0  0  0  0  0  0  0  0  0
   -0.9867   -0.6199    1.2134 S   0  0  0  0  0  0  0  0  0  0  0  0
   -0.4007   -1.9878    1.4222 O   0  0  0  0  0  0  0  0  0  0  0  0
   -1.1527   -0.0307    2.5850 O   0  0  0  0  0  0  0  0  0  0  0  0
   -2.5994   -0.7811    0.5552 C   0  0  0  0  0  0  0  0  0  0  0  0
   -2.9222   -1.8073   -0.3105 C   0  0  0  0  0  0  0  0  0  0  0  0
   -4.1657   -1.9727   -0.8478 C   0  0  0  0  0  0  0  0  0  0  0  0
   -5.1591   -1.0902   -0.5275 C   0  0  0  0  0  0  0  0  0  0  0  0
   -6.9106   -1.3240   -1.2849 Br  0  0  0  0  0  0  0  0  0  0  0  0
   -4.8930   -0.0501    0.3295 C   0  0  0  0  0  0  0  0  0  0  0  0
   -3.6277    0.0866    0.8529 C   0  0  0  0  0  0  0  0  0  0  0  0
   -3.1178    3.4549   -2.3427 H   0  0  0  0  0  0  0  0  0  0  0  0
   -1.1616    4.1232   -0.6937 H   0  0  0  0  0  0  0  0  0  0  0  0
   -0.7953    2.0579    1.0440 H   0  0  0  0  0  0  0  0  0  0  0  0
    0.6555    2.2790    0.0581 H   0  0  0  0  0  0  0  0  0  0  0  0
    1.1977    0.3140   -1.4815 H   0  0  0  0  0  0  0  0  0  0  0  0
    0.6407   -1.2483   -0.8683 H   0  0  0  0  0  0  0  0  0  0  0  0
    2.2070   -2.5685    0.3611 H   0  0  0  0  0  0  0  0  0  0  0  0
    4.4382   -2.8463    1.3405 H   0  0  0  0  0  0  0  0  0  0  0  0
    5.1602    1.2882    0.9549 H   0  0  0  0  0  0  0  0  0  0  0  0
    2.9581    1.6255   -0.0186 H   0  0  0  0  0  0  0  0  0  0  0  0
   -2.1441   -2.5116   -0.5710 H   0  0  0  0  0  0  0  0  0  0  0  0
   -4.3792   -2.8064   -1.5348 H   0  0  0  0  0  0  0  0  0  0  0  0
   -5.7122    0.6284    0.5573 H   0  0  0  0  0  0  0  0  0  0  0  0
   -3.4229    0.9204    1.5371 H   0  0  0  0  0  0  0  0  0  0  0  0
  1  2  1  0
  2  3  1  0
  3  4  2  0
  3  5  1  0
  5  6  1  0
  6  7  1  0
  7  8  1  0
  8  9  2  0
  9 10  1  0
 10 11  2  0
 11 12  1  0
 12 13  2  0
 11 14  1  0
 14 15  1  0
 14 16  2  0
  6 17  1  0
 17 18  2  0
 17 19  2  0
 17 20  1  0
 20 21  2  0
 21 22  1  0
 22 23  2  0
 23 24  1  0
 23 25  1  0
 25 26  2  0
 13  8  1  0
 26 20  1  0
  1 27  1  0
  2 28  1  0
  5 29  1  0
  5 30  1  0
  7 31  1  0
  7 32  1  0
  9 33  1  0
 10 34  1  0
 12 35  1  0
 13 36  1  0
 21 37  1  0
 22 38  1  0
 25 39  1  0
 26 40  1  0
M  CHG  2  14   1  15  -1
M  END
$$$$
[H]c1nc([H])c(-c2nc(-c3noc(=O)n3[H])c([H])c3nc(N4C([H])([H])[C@]([H])(C([H])([H])[H])N(C([H])([H])[H])C([H])([H])[C@@]4([H])C([H])([H])[H])n(C([H])([H])[C@]4([H])C([H])([H])C([H])([H])[C@@]([H])(C([H])([H])[H])C([H])([H])C4([H])[H])c23)c([H])c1Cl
     RDKit          3D

 74 79  0  0  0  0  0  0  0  0999 V2000
    4.5388   -0.2923    3.3394 C   0  0  0  0  0  0  0  0  0  0  0  0
    3.6035   -0.9127    2.2856 C   0  0  1  0  0  0  0  0  0  0  0  0
    2.3279   -0.1847    2.1554 C   0  0  0  0  0  0  0  0  0  0  0  0
    2.1266    0.5459    0.9167 N   0  0  0  0  0  0  0  0  0  0  0  0
    3.2700    0.6626    0.0715 C   0  0  2  0  0  0  0  0  0  0  0  0
    3.1020    1.4434   -1.1853 C   0  0  0  0  0  0  0  0  0  0  0  0
    3.8577   -0.7137   -0.1079 C   0  0  0  0  0  0  0  0  0  0  0  0
    4.3754   -1.1541    1.1384 N   0  0  0  0  0  0  0  0  0  0  0  0
    5.7808   -0.8622    1.2360 C   0  0  0  0  0  0  0  0  0  0  0  0
    0.8426    1.1288    0.7075 C   0  0  0  0  0  0  0  0  0  0  0  0
    0.4985    2.1960    1.4869 N   0  0  0  0  0  0  0  0  0  0  0  0
   -0.6936    2.5893    1.0397 C   0  0  0  0  0  0  0  0  0  0  0  0
   -1.5169    3.6077    1.4678 C   0  0  0  0  0  0  0  0  0  0  0  0
   -2.7131    3.7915    0.8367 C   0  0  0  0  0  0  0  0  0  0  0  0
   -3.1136    3.0425   -0.1622 N   0  0  0  0  0  0  0  0  0  0  0  0
   -2.3148    2.0021   -0.6306 C   0  0  0  0  0  0  0  0  0  0  0  0
   -2.8545    1.2797   -1.7442 C   0  0  0  0  0  0  0  0  0  0  0  0
   -4.0752    0.6149   -1.5686 C   0  0  0  0  0  0  0  0  0  0  0  0
   -4.6903    0.0422   -2.6180 N   0  0  0  0  0  0  0  0  0  0  0  0
   -4.1855    0.0724   -3.8622 C   0  0  0  0  0  0  0  0  0  0  0  0
   -2.9875    0.7157   -4.0782 C   0  0  0  0  0  0  0  0  0  0  0  0
   -2.2487    0.8098   -5.6633 Cl  0  0  0  0  0  0  0  0  0  0  0  0
   -2.3608    1.3014   -2.9983 C   0  0  0  0  0  0  0  0  0  0  0  0
   -1.1282    1.7836   -0.0306 C   0  0  0  0  0  0  0  0  0  0  0  0
   -0.1146    0.8639   -0.1996 N   0  0  0  0  0  0  0  0  0  0  0  0
   -0.1578   -0.2157   -1.1369 C   0  0  0  0  0  0  0  0  0  0  0  0
   -0.9268   -1.4540   -0.7700 C   0  0  1  0  0  0  0  0  0  0  0  0
   -0.7753   -2.3631   -2.0214 C   0  0  0  0  0  0  0  0  0  0  0  0
   -1.4737   -3.6631   -1.8111 C   0  0  0  0  0  0  0  0  0  0  0  0
   -0.8484   -4.3635   -0.6051 C   0  0  2  0  0  0  0  0  0  0  0  0
   -1.4842   -5.7102   -0.4866 C   0  0  0  0  0  0  0  0  0  0  0  0
   -1.1157   -3.4768    0.5849 C   0  0  0  0  0  0  0  0  0  0  0  0
   -0.2991   -2.2008    0.3859 C   0  0  0  0  0  0  0  0  0  0  0  0
   -3.5720    4.8761    1.3104 C   0  0  0  0  0  0  0  0  0  0  0  0
   -4.7716    5.2039    0.8185 N   0  0  0  0  0  0  0  0  0  0  0  0
   -5.2242    6.2021    1.4837 O   0  0  0  0  0  0  0  0  0  0  0  0
   -4.3612    6.5586    2.4141 C   0  0  0  0  0  0  0  0  0  0  0  0
   -4.5041    7.5141    3.2477 O   0  0  0  0  0  0  0  0  0  0  0  0
   -3.3186    5.7303    2.3129 N   0  0  0  0  0  0  0  0  0  0  0  0
    4.0308   -0.2980    4.3389 H   0  0  0  0  0  0  0  0  0  0  0  0
    5.4139   -0.9385    3.4303 H   0  0  0  0  0  0  0  0  0  0  0  0
    4.7575    0.7661    3.1102 H   0  0  0  0  0  0  0  0  0  0  0  0
    3.3560   -1.9228    2.7387 H   0  0  0  0  0  0  0  0  0  0  0  0
    2.3690    0.6469    2.9409 H   0  0  0  0  0  0  0  0  0  0  0  0
    1.4261   -0.7473    2.4548 H   0  0  0  0  0  0  0  0  0  0  0  0
    4.0611    1.2315    0.6837 H   0  0  0  0  0  0  0  0  0  0  0  0
    2.9597    0.7545   -2.0716 H   0  0  0  0  0  0  0  0  0  0  0  0
    2.2947    2.1860   -1.1508 H   0  0  0  0  0  0  0  0  0  0  0  0
    4.0393    1.9920   -1.4230 H   0  0  0  0  0  0  0  0  0  0  0  0
    4.6850   -0.6926   -0.8508 H   0  0  0  0  0  0  0  0  0  0  0  0
    3.0962   -1.4274   -0.4734 H   0  0  0  0  0  0  0  0  0  0  0  0
    6.3651   -1.6395    1.7710 H   0  0  0  0  0  0  0  0  0  0  0  0
    6.1723   -0.8744    0.1761 H   0  0  0  0  0  0  0  0  0  0  0  0
    6.0144    0.1304    1.6337 H   0  0  0  0  0  0  0  0  0  0  0  0
   -1.2268    4.2393    2.2745 H   0  0  0  0  0  0  0  0  0  0  0  0
   -4.5256    0.5585   -0.5994 H   0  0  0  0  0  0  0  0  0  0  0  0
   -4.6888   -0.3919   -4.7017 H   0  0  0  0  0  0  0  0  0  0  0  0
   -1.4186    1.8047   -3.1876 H   0  0  0  0  0  0  0  0  0  0  0  0
    0.9315   -0.6690   -1.0079 H   0  0  0  0  0  0  0  0  0  0  0  0
   -0.0760    0.0135   -2.1955 H   0  0  0  0  0  0  0  0  0  0  0  0
   -1.9711   -1.3587   -0.5400 H   0  0  0  0  0  0  0  0  0  0  0  0
    0.3071   -2.5630   -2.1399 H   0  0  0  0  0  0  0  0  0  0  0  0
   -1.2270   -1.8274   -2.8547 H   0  0  0  0  0  0  0  0  0  0  0  0
   -2.5655   -3.5604   -1.6736 H   0  0  0  0  0  0  0  0  0  0  0  0
   -1.2384   -4.3102   -2.6807 H   0  0  0  0  0  0  0  0  0  0  0  0
    0.2475   -4.4294   -0.7959 H   0  0  0  0  0  0  0  0  0  0  0  0
   -1.7586   -6.1386   -1.4883 H   0  0  0  0  0  0  0  0  0  0  0  0
   -2.3242   -5.7516    0.2220 H   0  0  0  0  0  0  0  0  0  0  0  0
   -0.7131   -6.4246   -0.0811 H   0  0  0  0  0  0  0  0  0  0  0  0
   -2.1914   -3.1933    0.5337 H   0  0  0  0  0  0  0  0  0  0  0  0
   -0.8850   -3.9664    1.5456 H   0  0  0  0  0  0  0  0  0  0  0  0
   -0.4976   -1.5907    1.3029 H   0  0  0  0  0  0  0  0  0  0  0  0
    0.7669   -2.4059    0.2647 H   0  0  0  0  0  0  0  0  0  0  0  0
   -2.4802    5.7864    2.9341 H   0  0  0  0  0  0  0  0  0  0  0  0
  1  2  1  0
  2  3  1  0
  3  4  1  0
  4  5  1  0
  5  6  1  0
  5  7  1  0
  7  8  1  0
  8  9  1  0
  4 10  1  0
 10 11  2  0
 11 12  1  0
 12 13  2  0
 13 14  1  0
 14 15  2  0
 15 16  1  0
 16 17  1  0
 17 18  2  0
 18 19  1  0
 19 20  2  0
 20 21  1  0
 21 22  1  0
 21 23  2  0
 16 24  2  0
 24 25  1  0
 25 26  1  0
 26 27  1  0
 27 28  1  0
 28 29  1  0
 29 30  1  0
 30 31  1  0
 30 32  1  0
 32 33  1  0
 14 34  1  0
 34 35  2  0
 35 36  1  0
 36 37  1  0
 37 38  2  0
 37 39  1  0
  8  2  1  0
 25 10  1  0
 33 27  1  0
 39 34  1  0
 24 12  1  0
 23 17  1  0
  1 40  1  0
  1 41  1  0
  1 42  1  0
  2 43  1  1
  3 44  1  0
  3 45  1  0
  5 46  1  1
  6 47  1  0
  6 48  1  0
  6 49  1  0
  7 50  1  0
  7 51  1  0
  9 52  1  0
  9 53  1  0
  9 54  1  0
 13 55  1  0
 18 56  1  0
 20 57  1  0
 23 58  1  0
 26 59  1  0
 26 60  1  0
 27 61  1  1
 28 62  1  0
 28 63  1  0
 29 64  1  0
 29 65  1  0
 30 66  1  6
 31 67  1  0
 31 68  1  0
 31 69  1  0
 32 70  1  0
 32 71  1  0
 33 72  1  0
 33 73  1  0
 39 74  1  0
M  END
$$$$
[H]c1nc(N2C([H])([H])C([H])([H])c3nc(N4C([H])([H])C([H])([H])OC([H])([H])C4([H])[H])nc(N([H])c4nc([H])c(C(F)(F)F)c([H])c4[H])c3C([H])([H])C2([H])[H])c(C(F)(F)F)c([H])c1[H]
     RDKit          3D

 61 65  0  0  0  0  0  0  0  0999 V2000
   -6.3306    5.2390   -1.6155 F   0  0  0  0  0  0  0  0  0  0  0  0
   -5.5922    5.3013   -0.4559 C   0  0  0  0  0  0  0  0  0  0  0  0
   -5.0386    6.5694   -0.3901 F   0  0  0  0  0  0  0  0  0  0  0  0
   -6.3926    5.1814    0.6732 F   0  0  0  0  0  0  0  0  0  0  0  0
   -4.4627    4.3255   -0.4453 C   0  0  0  0  0  0  0  0  0  0  0  0
   -4.6172    2.9832   -0.2043 C   0  0  0  0  0  0  0  0  0  0  0  0
   -3.5115    2.1477   -0.2169 C   0  0  0  0  0  0  0  0  0  0  0  0
   -2.2424    2.6216   -0.4631 C   0  0  0  0  0  0  0  0  0  0  0  0
   -1.0682    1.8380   -0.4549 N   0  0  0  0  0  0  0  0  0  0  0  0
   -0.8977    0.4775   -0.2418 C   0  0  0  0  0  0  0  0  0  0  0  0
   -1.8754   -0.4460   -0.2022 N   0  0  0  0  0  0  0  0  0  0  0  0
   -1.6515   -1.7560   -0.1139 C   0  0  0  0  0  0  0  0  0  0  0  0
   -0.3915   -2.2263   -0.0581 N   0  0  0  0  0  0  0  0  0  0  0  0
    0.6851   -1.3805   -0.0870 C   0  0  0  0  0  0  0  0  0  0  0  0
    1.9131   -2.1693   -0.0310 C   0  0  0  0  0  0  0  0  0  0  0  0
    3.1427   -1.4284   -0.6043 C   0  0  0  0  0  0  0  0  0  0  0  0
    3.4903   -0.3097    0.1833 N   0  0  0  0  0  0  0  0  0  0  0  0
    2.5657    0.6023    0.8256 C   0  0  0  0  0  0  0  0  0  0  0  0
    1.4162    1.0316   -0.0993 C   0  0  0  0  0  0  0  0  0  0  0  0
    0.3954   -0.0500   -0.1752 C   0  0  0  0  0  0  0  0  0  0  0  0
    4.8417    0.0363    0.4815 C   0  0  0  0  0  0  0  0  0  0  0  0
    5.2120    0.0400    1.8120 N   0  0  0  0  0  0  0  0  0  0  0  0
    6.4128    0.3967    2.2422 C   0  0  0  0  0  0  0  0  0  0  0  0
    7.3432    0.7861    1.3069 C   0  0  0  0  0  0  0  0  0  0  0  0
    7.0057    0.7912   -0.0268 C   0  0  0  0  0  0  0  0  0  0  0  0
    5.7350    0.4120   -0.4787 C   0  0  0  0  0  0  0  0  0  0  0  0
    5.4486    0.4276   -1.9451 C   0  0  0  0  0  0  0  0  0  0  0  0
    4.3843    1.2028   -2.2876 F   0  0  0  0  0  0  0  0  0  0  0  0
    6.5521    1.1123   -2.5563 F   0  0  0  0  0  0  0  0  0  0  0  0
    5.5061   -0.8152   -2.5293 F   0  0  0  0  0  0  0  0  0  0  0  0
   -2.7262   -2.6763   -0.0392 N   0  0  0  0  0  0  0  0  0  0  0  0
   -3.0841   -3.4997   -1.1783 C   0  0  0  0  0  0  0  0  0  0  0  0
   -4.3987   -4.1730   -0.8492 C   0  0  0  0  0  0  0  0  0  0  0  0
   -4.3563   -4.9482    0.2923 O   0  0  0  0  0  0  0  0  0  0  0  0
   -3.6233   -4.3815    1.3259 C   0  0  0  0  0  0  0  0  0  0  0  0
   -3.5158   -2.8730    1.1546 C   0  0  0  0  0  0  0  0  0  0  0  0
   -2.1388    3.9380   -0.6918 N   0  0  0  0  0  0  0  0  0  0  0  0
   -3.1706    4.7504   -0.6878 C   0  0  0  0  0  0  0  0  0  0  0  0
   -5.6143    2.6038   -0.0040 H   0  0  0  0  0  0  0  0  0  0  0  0
   -3.7111    1.1053   -0.0176 H   0  0  0  0  0  0  0  0  0  0  0  0
   -0.1888    2.3998   -0.6986 H   0  0  0  0  0  0  0  0  0  0  0  0
    2.1397   -2.4784    0.9853 H   0  0  0  0  0  0  0  0  0  0  0  0
    1.7691   -3.0186   -0.7389 H   0  0  0  0  0  0  0  0  0  0  0  0
    3.9312   -2.2298   -0.6074 H   0  0  0  0  0  0  0  0  0  0  0  0
    2.8194   -1.1911   -1.6522 H   0  0  0  0  0  0  0  0  0  0  0  0
    3.0802    1.5350    1.1589 H   0  0  0  0  0  0  0  0  0  0  0  0
    2.1644    0.0725    1.7457 H   0  0  0  0  0  0  0  0  0  0  0  0
    1.8064    1.3591   -1.0577 H   0  0  0  0  0  0  0  0  0  0  0  0
    0.9464    1.8494    0.5274 H   0  0  0  0  0  0  0  0  0  0  0  0
    6.6796    0.3899    3.3153 H   0  0  0  0  0  0  0  0  0  0  0  0
    8.3293    1.0894    1.6630 H   0  0  0  0  0  0  0  0  0  0  0  0
    7.7423    1.0920   -0.7869 H   0  0  0  0  0  0  0  0  0  0  0  0
   -2.2994   -4.1772   -1.5059 H   0  0  0  0  0  0  0  0  0  0  0  0
   -3.3020   -2.7799   -1.9934 H   0  0  0  0  0  0  0  0  0  0  0  0
   -4.6470   -4.8416   -1.7091 H   0  0  0  0  0  0  0  0  0  0  0  0
   -5.1530   -3.3653   -0.7840 H   0  0  0  0  0  0  0  0  0  0  0  0
   -4.1528   -4.5898    2.2728 H   0  0  0  0  0  0  0  0  0  0  0  0
   -2.6046   -4.7847    1.3980 H   0  0  0  0  0  0  0  0  0  0  0  0
   -4.5476   -2.5082    0.9337 H   0  0  0  0  0  0  0  0  0  0  0  0
   -3.1073   -2.4496    2.0673 H   0  0  0  0  0  0  0  0  0  0  0  0
   -3.0444    5.8392   -0.8818 H   0  0  0  0  0  0  0  0  0  0  0  0
  1  2  1  0
  2  3  1  0
  2  4  1  0
  2  5  1  0
  5  6  2  0
  6  7  1  0
  7  8  2  0
  8  9  1  0
  9 10  1  0
 10 11  2  0
 11 12  1  0
 12 13  2  0
 13 14  1  0
 14 15  1  0
 15 16  1  0
 16 17  1  0
 17 18  1  0
 18 19  1  0
 19 20  1  0
 17 21  1  0
 21 22  2  0
 22 23  1  0
 23 24  2  0
 24 25  1  0
 25 26  2  0
 26 27  1  0
 27 28  1  0
 27 29  1  0
 27 30  1  0
 12 31  1  0
 31 32  1  0
 32 33  1  0
 33 34  1  0
 34 35  1  0
 35 36  1  0
  8 37  1  0
 37 38  2  0
 38  5  1  0
 20 10  1  0
 26 21  1  0
 36 31  1  0
 20 14  2  0
  6 39  1  0
  7 40  1  0
  9 41  1  0
 15 42  1  0
 15 43  1  0
 16 44  1  0
 16 45  1  0
 18 46  1  0
 18 47  1  0
 19 48  1  0
 19 49  1  0
 23 50  1  0
 24 51  1  0
 25 52  1  0
 32 53  1  0
 32 54  1  0
 33 55  1  0
 33 56  1  0
 35 57  1  0
 35 58  1  0
 36 59  1  0
 36 60  1  0
 38 61  1  0
M  END
$$$$
[H]Oc1c([H])c2c(c([H])c1O[H])[C@@]1([H])C([H])([H])C([H])([H])[C@]3(C([H])([H])[H])C(C([H])([H])[H])(C([H])([H])[H])C([H])([H])C([H])([H])[C@@]3([H])[C@]1([H])C([H])([H])C2([H])[H]
     RDKit          3D

 50 53  0  0  0  0  0  0  0  0999 V2000
   -1.6885    1.8446   -0.6818 C   0  0  0  0  0  0  0  0  0  0  0  0
   -1.7595    0.6576    0.2149 C   0  0  2  0  0  0  0  0  0  0  0  0
   -1.0266    0.9450    1.4792 C   0  0  0  0  0  0  0  0  0  0  0  0
    0.4320    1.2192    1.0903 C   0  0  0  0  0  0  0  0  0  0  0  0
    0.9816   -0.0306    0.4903 C   0  0  1  0  0  0  0  0  0  0  0  0
    0.2503   -0.4428   -0.7736 C   0  0  1  0  0  0  0  0  0  0  0  0
    0.8080   -1.7135   -1.3236 C   0  0  0  0  0  0  0  0  0  0  0  0
    1.9735   -2.2635   -0.5580 C   0  0  0  0  0  0  0  0  0  0  0  0
    2.9744   -1.1709   -0.2873 C   0  0  0  0  0  0  0  0  0  0  0  0
    4.3012   -1.2920   -0.5518 C   0  0  0  0  0  0  0  0  0  0  0  0
    5.1311   -0.2258   -0.2643 C   0  0  0  0  0  0  0  0  0  0  0  0
    6.4944   -0.2855   -0.5104 O   0  0  0  0  0  0  0  0  0  0  0  0
    4.6039    0.9417    0.2848 C   0  0  0  0  0  0  0  0  0  0  0  0
    5.4573    1.9761    0.5558 O   0  0  0  0  0  0  0  0  0  0  0  0
    3.2499    1.0465    0.5472 C   0  0  0  0  0  0  0  0  0  0  0  0
    2.4304   -0.0142    0.2602 C   0  0  0  0  0  0  0  0  0  0  0  0
   -1.1789   -0.6011   -0.3889 C   0  0  2  0  0  0  0  0  0  0  0  0
   -2.1267   -0.9109   -1.4781 C   0  0  0  0  0  0  0  0  0  0  0  0
   -3.4701   -0.4425   -0.9513 C   0  0  0  0  0  0  0  0  0  0  0  0
   -3.1861    0.2439    0.3881 C   0  0  0  0  0  0  0  0  0  0  0  0
   -3.3780   -0.7960    1.4616 C   0  0  0  0  0  0  0  0  0  0  0  0
   -4.1346    1.3677    0.6332 C   0  0  0  0  0  0  0  0  0  0  0  0
   -2.4541    1.8075   -1.4903 H   0  0  0  0  0  0  0  0  0  0  0  0
   -1.8490    2.7547   -0.0320 H   0  0  0  0  0  0  0  0  0  0  0  0
   -0.7104    2.0089   -1.1643 H   0  0  0  0  0  0  0  0  0  0  0  0
   -0.9762    0.0684    2.1693 H   0  0  0  0  0  0  0  0  0  0  0  0
   -1.4409    1.8303    1.9888 H   0  0  0  0  0  0  0  0  0  0  0  0
    0.9595    1.3924    2.0512 H   0  0  0  0  0  0  0  0  0  0  0  0
    0.5206    2.1049    0.4591 H   0  0  0  0  0  0  0  0  0  0  0  0
    0.7835   -0.8614    1.2295 H   0  0  0  0  0  0  0  0  0  0  0  0
    0.4051    0.3475   -1.5498 H   0  0  0  0  0  0  0  0  0  0  0  0
    1.1545   -1.6045   -2.3932 H   0  0  0  0  0  0  0  0  0  0  0  0
    0.0100   -2.4746   -1.3564 H   0  0  0  0  0  0  0  0  0  0  0  0
    1.5883   -2.6680    0.4011 H   0  0  0  0  0  0  0  0  0  0  0  0
    2.4862   -3.0142   -1.1737 H   0  0  0  0  0  0  0  0  0  0  0  0
    4.6832   -2.2196   -0.9820 H   0  0  0  0  0  0  0  0  0  0  0  0
    6.8655   -1.1343   -0.9075 H   0  0  0  0  0  0  0  0  0  0  0  0
    5.2177    2.8565    0.9441 H   0  0  0  0  0  0  0  0  0  0  0  0
    2.8070    1.9484    0.9772 H   0  0  0  0  0  0  0  0  0  0  0  0
   -1.2301   -1.3805    0.4044 H   0  0  0  0  0  0  0  0  0  0  0  0
   -1.8792   -0.4860   -2.4635 H   0  0  0  0  0  0  0  0  0  0  0  0
   -2.1935   -2.0328   -1.5699 H   0  0  0  0  0  0  0  0  0  0  0  0
   -3.8697    0.3166   -1.6845 H   0  0  0  0  0  0  0  0  0  0  0  0
   -4.1793   -1.2679   -0.7870 H   0  0  0  0  0  0  0  0  0  0  0  0
   -2.9118   -0.5195    2.4272 H   0  0  0  0  0  0  0  0  0  0  0  0
   -4.4842   -0.8327    1.6666 H   0  0  0  0  0  0  0  0  0  0  0  0
   -3.1070   -1.8138    1.1324 H   0  0  0  0  0  0  0  0  0  0  0  0
   -4.4116    1.3776    1.7139 H   0  0  0  0  0  0  0  0  0  0  0  0
   -3.8259    2.3395    0.2492 H   0  0  0  0  0  0  0  0  0  0  0  0
   -5.0970    1.1033    0.1038 H   0  0  0  0  0  0  0  0  0  0  0  0
  2  1  1  6
  2  3  1  0
  3  4  1  0
  4  5  1  0
  5  6  1  0
  6  7  1  0
  7  8  1  0
  8  9  1  0
  9 10  2  0
 10 11  1  0
 11 12  1  0
 11 13  2  0
 13 14  1  0
 13 15  1  0
 15 16  2  0
  6 17  1  0
 17 18  1  0
 18 19  1  0
 19 20  1  0
 20 21  1  0
 20 22  1  0
 17  2  1  0
 20  2  1  0
 16  5  1  0
 16  9  1  0
  1 23  1  0
  1 24  1  0
  1 25  1  0
  3 26  1  0
  3 27  1  0
  4 28  1  0
  4 29  1  0
  5 30  1  1
  6 31  1  6
  7 32  1  0
  7 33  1  0
  8 34  1  0
  8 35  1  0
 10 36  1  0
 12 37  1  0
 14 38  1  0
 15 39  1  0
 17 40  1  1
 18 41  1  0
 18 42  1  0
 19 43  1  0
 19 44  1  0
 21 45  1  0
 21 46  1  0
 21 47  1  0
 22 48  1  0
 22 49  1  0
 22 50  1  0
M  END
$$$$
[H]OC(=O)C([H])([H])[C@@]([H])(C(=O)N([H])[C@]([H])(C(=O)N([H])[C@]([H])(C(=O)O[H])C([H])([H])O[H])C([H])(C([H])([H])[H])C([H])([H])[H])N([H])C(=O)[C@@]([H])(N([H])C(=O)[C@@]([H])(N([H])C(=O)[C@@]([H])(N([H])C(=O)C([H])([H])[H])C([H])([H])O[H])C([H])(C([H])([H])[H])C([H])([H])[H])C([H])(C([H])([H])[H])C([H])([H])[H]
     RDKit          3D

 91 90  0  0  0  0  0  0  0  0999 V2000
   10.8390    2.7320    0.9337 C   0  0  0  0  0  0  0  0  0  0  0  0
   10.3168    1.3636    0.7516 C   0  0  0  0  0  0  0  0  0  0  0  0
   11.0529    0.4938    0.2416 O   0  0  0  0  0  0  0  0  0  0  0  0
    9.0048    1.0502    1.1502 N   0  0  0  0  0  0  0  0  0  0  0  0
    8.3958   -0.2837    1.0124 C   0  0  1  0  0  0  0  0  0  0  0  0
    8.0995   -0.8481    2.3560 C   0  0  0  0  0  0  0  0  0  0  0  0
    7.5905   -2.1356    2.3331 O   0  0  0  0  0  0  0  0  0  0  0  0
    7.2511   -0.2186    0.1100 C   0  0  0  0  0  0  0  0  0  0  0  0
    7.3340    0.6921   -0.8070 O   0  0  0  0  0  0  0  0  0  0  0  0
    6.1081   -0.9843    0.1028 N   0  0  0  0  0  0  0  0  0  0  0  0
    5.0266   -0.7773   -0.9253 C   0  0  1  0  0  0  0  0  0  0  0  0
    4.7429   -2.0767   -1.5717 C   0  0  0  0  0  0  0  0  0  0  0  0
    3.7020   -2.0135   -2.6495 C   0  0  0  0  0  0  0  0  0  0  0  0
    4.2841   -3.1419   -0.5917 C   0  0  0  0  0  0  0  0  0  0  0  0
    3.8952   -0.1156   -0.2580 C   0  0  0  0  0  0  0  0  0  0  0  0
    3.9357    0.0957    1.0210 O   0  0  0  0  0  0  0  0  0  0  0  0
    2.7231    0.3411   -0.8669 N   0  0  0  0  0  0  0  0  0  0  0  0
    1.6202    1.0147   -0.1223 C   0  0  1  0  0  0  0  0  0  0  0  0
    1.3693    2.3534   -0.7879 C   0  0  0  0  0  0  0  0  0  0  0  0
    0.9488    2.1921   -2.2242 C   0  0  0  0  0  0  0  0  0  0  0  0
    0.4767    3.2111    0.0407 C   0  0  0  0  0  0  0  0  0  0  0  0
    0.4622    0.1108   -0.1431 C   0  0  0  0  0  0  0  0  0  0  0  0
    0.4912   -0.9980   -0.7901 O   0  0  0  0  0  0  0  0  0  0  0  0
   -0.7528    0.3744    0.5306 N   0  0  0  0  0  0  0  0  0  0  0  0
   -1.8762   -0.5689    0.4698 C   0  0  1  0  0  0  0  0  0  0  0  0
   -2.2124   -1.1583    1.8037 C   0  0  0  0  0  0  0  0  0  0  0  0
   -2.6276   -0.1789    2.8121 C   0  0  0  0  0  0  0  0  0  0  0  0
   -2.8889   -0.6763    4.0945 O   0  0  0  0  0  0  0  0  0  0  0  0
   -2.7588    1.0338    2.6059 O   0  0  0  0  0  0  0  0  0  0  0  0
   -3.0627    0.0654   -0.1465 C   0  0  0  0  0  0  0  0  0  0  0  0
   -3.0767    1.2570   -0.5570 O   0  0  0  0  0  0  0  0  0  0  0  0
   -4.2355   -0.6886   -0.2838 N   0  0  0  0  0  0  0  0  0  0  0  0
   -5.4696   -0.1168   -0.8953 C   0  0  1  0  0  0  0  0  0  0  0  0
   -5.7534   -0.9822   -2.0798 C   0  0  0  0  0  0  0  0  0  0  0  0
   -6.9500   -0.6121   -2.8874 C   0  0  0  0  0  0  0  0  0  0  0  0
   -5.7777   -2.4377   -1.6558 C   0  0  0  0  0  0  0  0  0  0  0  0
   -6.5272   -0.0583    0.1249 C   0  0  0  0  0  0  0  0  0  0  0  0
   -6.2724   -0.5368    1.2809 O   0  0  0  0  0  0  0  0  0  0  0  0
   -7.7985    0.4959   -0.0969 N   0  0  0  0  0  0  0  0  0  0  0  0
   -8.7938    0.5268    0.9645 C   0  0  1  0  0  0  0  0  0  0  0  0
   -9.2347    1.9443    1.2781 C   0  0  0  0  0  0  0  0  0  0  0  0
   -8.1550    2.7305    1.6870 O   0  0  0  0  0  0  0  0  0  0  0  0
   -9.9574   -0.2866    0.5806 C   0  0  0  0  0  0  0  0  0  0  0  0
  -11.0563   -0.4008    1.4235 O   0  0  0  0  0  0  0  0  0  0  0  0
  -10.0306   -0.9125   -0.5048 O   0  0  0  0  0  0  0  0  0  0  0  0
   10.7160    3.3771    0.0465 H   0  0  0  0  0  0  0  0  0  0  0  0
   10.3437    3.1632    1.8503 H   0  0  0  0  0  0  0  0  0  0  0  0
   11.9280    2.6821    1.2220 H   0  0  0  0  0  0  0  0  0  0  0  0
    8.4082    1.7817    1.5699 H   0  0  0  0  0  0  0  0  0  0  0  0
    9.2386   -0.9063    0.5820 H   0  0  0  0  0  0  0  0  0  0  0  0
    7.3410   -0.1869    2.8385 H   0  0  0  0  0  0  0  0  0  0  0  0
    9.0414   -0.8824    2.9482 H   0  0  0  0  0  0  0  0  0  0  0  0
    7.1335   -2.3125    3.1770 H   0  0  0  0  0  0  0  0  0  0  0  0
    5.9493   -1.7297    0.8072 H   0  0  0  0  0  0  0  0  0  0  0  0
    5.4595   -0.0775   -1.6470 H   0  0  0  0  0  0  0  0  0  0  0  0
    5.6970   -2.4189   -2.0652 H   0  0  0  0  0  0  0  0  0  0  0  0
    2.6637   -2.0644   -2.3043 H   0  0  0  0  0  0  0  0  0  0  0  0
    3.8279   -1.1034   -3.2900 H   0  0  0  0  0  0  0  0  0  0  0  0
    3.8679   -2.8536   -3.4068 H   0  0  0  0  0  0  0  0  0  0  0  0
    3.3914   -3.6936   -0.9484 H   0  0  0  0  0  0  0  0  0  0  0  0
    5.1022   -3.8866   -0.5147 H   0  0  0  0  0  0  0  0  0  0  0  0
    4.1597   -2.7269    0.4317 H   0  0  0  0  0  0  0  0  0  0  0  0
    2.5653    0.2463   -1.8735 H   0  0  0  0  0  0  0  0  0  0  0  0
    1.9832    1.1051    0.9104 H   0  0  0  0  0  0  0  0  0  0  0  0
    2.3669    2.8993   -0.8505 H   0  0  0  0  0  0  0  0  0  0  0  0
    1.8304    2.2406   -2.9299 H   0  0  0  0  0  0  0  0  0  0  0  0
    0.5529    1.1608   -2.3477 H   0  0  0  0  0  0  0  0  0  0  0  0
    0.2289    2.9658   -2.5223 H   0  0  0  0  0  0  0  0  0  0  0  0
    0.7552    4.3094   -0.0651 H   0  0  0  0  0  0  0  0  0  0  0  0
   -0.6053    3.1329   -0.2149 H   0  0  0  0  0  0  0  0  0  0  0  0
    0.5771    3.0225    1.1232 H   0  0  0  0  0  0  0  0  0  0  0  0
   -0.9327    1.2225    1.1022 H   0  0  0  0  0  0  0  0  0  0  0  0
   -1.5356   -1.4163   -0.1710 H   0  0  0  0  0  0  0  0  0  0  0  0
   -1.3701   -1.8042    2.1607 H   0  0  0  0  0  0  0  0  0  0  0  0
   -3.0496   -1.8810    1.6343 H   0  0  0  0  0  0  0  0  0  0  0  0
   -2.5104   -0.1533    4.8841 H   0  0  0  0  0  0  0  0  0  0  0  0
   -4.3334   -1.6785    0.0210 H   0  0  0  0  0  0  0  0  0  0  0  0
   -5.1901    0.9054   -1.2680 H   0  0  0  0  0  0  0  0  0  0  0  0
   -4.8650   -0.8728   -2.7598 H   0  0  0  0  0  0  0  0  0  0  0  0
   -6.9338   -1.1141   -3.9008 H   0  0  0  0  0  0  0  0  0  0  0  0
   -7.0214    0.4624   -3.1078 H   0  0  0  0  0  0  0  0  0  0  0  0
   -7.8531   -1.0255   -2.3992 H   0  0  0  0  0  0  0  0  0  0  0  0
   -6.4700   -2.9728   -2.3641 H   0  0  0  0  0  0  0  0  0  0  0  0
   -6.2038   -2.5327   -0.6478 H   0  0  0  0  0  0  0  0  0  0  0  0
   -4.7590   -2.8557   -1.7393 H   0  0  0  0  0  0  0  0  0  0  0  0
   -8.0437    0.9012   -1.0215 H   0  0  0  0  0  0  0  0  0  0  0  0
   -8.3329    0.1201    1.8755 H   0  0  0  0  0  0  0  0  0  0  0  0
   -9.7926    2.3795    0.4381 H   0  0  0  0  0  0  0  0  0  0  0  0
   -9.9185    1.8825    2.1510 H   0  0  0  0  0  0  0  0  0  0  0  0
   -7.8220    2.4738    2.5665 H   0  0  0  0  0  0  0  0  0  0  0  0
  -11.9884   -0.1558    1.1548 H   0  0  0  0  0  0  0  0  0  0  0  0
  1  2  1  0
  2  3  2  0
  2  4  1  0
  4  5  1  0
  5  6  1  0
  6  7  1  0
  5  8  1  0
  8  9  2  0
  8 10  1  0
 10 11  1  0
 11 12  1  0
 12 13  1  0
 12 14  1  0
 11 15  1  0
 15 16  2  0
 15 17  1  0
 17 18  1  0
 18 19  1  0
 19 20  1  0
 19 21  1  0
 18 22  1  0
 22 23  2  0
 22 24  1  0
 24 25  1  0
 25 26  1  0
 26 27  1  0
 27 28  1  0
 27 29  2  0
 25 30  1  0
 30 31  2  0
 30 32  1  0
 32 33  1  0
 33 34  1  0
 34 35  1  0
 34 36  1  0
 33 37  1  0
 37 38  2  0
 37 39  1  0
 39 40  1  0
 40 41  1  0
 41 42  1  0
 40 43  1  0
 43 44  1  0
 43 45  2  0
  1 46  1  0
  1 47  1  0
  1 48  1  0
  4 49  1  0
  5 50  1  6
  6 51  1  0
  6 52  1  0
  7 53  1  0
 10 54  1  0
 11 55  1  6
 12 56  1  0
 13 57  1  0
 13 58  1  0
 13 59  1  0
 14 60  1  0
 14 61  1  0
 14 62  1  0
 17 63  1  0
 18 64  1  1
 19 65  1  0
 20 66  1  0
 20 67  1  0
 20 68  1  0
 21 69  1  0
 21 70  1  0
 21 71  1  0
 24 72  1  0
 25 73  1  6
 26 74  1  0
 26 75  1  0
 28 76  1  0
 32 77  1  0
 33 78  1  6
 34 79  1  0
 35 80  1  0
 35 81  1  0
 35 82  1  0
 36 83  1  0
 36 84  1  0
 36 85  1  0
 39 86  1  0
 40 87  1  1
 41 88  1  0
 41 89  1  0
 42 90  1  0
 44 91  1  0
M  END
$$$$
[H]c1sc(N([H])C2([H])C([H])([H])C([H])([H])N(C(=O)c3c([H])c(OC([H])([H])[H])c(OC([H])([H])[H])c(OC([H])([H])[H])c3[H])C([H])([H])C2([H])[H])nc1-c1c([H])c([H])c(F)c(OC([H])([H])[H])c1[H]
     RDKit          3D

 63 66  0  0  0  0  0  0  0  0999 V2000
    4.6155    1.8682    2.9238 C   0  0  0  0  0  0  0  0  0  0  0  0
    5.5418    1.4816    1.9540 O   0  0  0  0  0  0  0  0  0  0  0  0
    5.2635    0.8133    0.7915 C   0  0  0  0  0  0  0  0  0  0  0  0
    3.9348    0.4760    0.5298 C   0  0  0  0  0  0  0  0  0  0  0  0
    3.5304   -0.1873   -0.5837 C   0  0  0  0  0  0  0  0  0  0  0  0
    4.5770   -0.5163   -1.4820 C   0  0  0  0  0  0  0  0  0  0  0  0
    5.8868   -0.1967   -1.2503 C   0  0  0  0  0  0  0  0  0  0  0  0
    6.8708   -0.5584   -2.1922 O   0  0  0  0  0  0  0  0  0  0  0  0
    6.4429   -1.2446   -3.3469 C   0  0  0  0  0  0  0  0  0  0  0  0
    6.2328    0.4752   -0.0998 C   0  0  0  0  0  0  0  0  0  0  0  0
    7.5828    0.7864    0.1082 O   0  0  0  0  0  0  0  0  0  0  0  0
    8.1588    1.9901   -0.3383 C   0  0  0  0  0  0  0  0  0  0  0  0
    2.1962   -0.6286   -0.8769 C   0  0  0  0  0  0  0  0  0  0  0  0
    1.9974   -0.9602   -2.1598 O   0  0  0  0  0  0  0  0  0  0  0  0
    1.1148   -0.7619   -0.0548 N   0  0  0  0  0  0  0  0  0  0  0  0
   -0.2203   -1.1799   -0.6504 C   0  0  0  0  0  0  0  0  0  0  0  0
   -1.2411   -0.1586   -0.2717 C   0  0  0  0  0  0  0  0  0  0  0  0
   -1.2472    0.2507    1.1708 C   0  0  0  0  0  0  0  0  0  0  0  0
    0.1574    0.5825    1.6236 C   0  0  0  0  0  0  0  0  0  0  0  0
    1.0186   -0.6336    1.3582 C   0  0  0  0  0  0  0  0  0  0  0  0
   -1.7687   -0.7516    2.0497 N   0  0  0  0  0  0  0  0  0  0  0  0
   -3.1324   -1.1913    1.8984 C   0  0  0  0  0  0  0  0  0  0  0  0
   -4.0527   -0.8037    1.0475 N   0  0  0  0  0  0  0  0  0  0  0  0
   -5.2458   -1.3198    1.0578 C   0  0  0  0  0  0  0  0  0  0  0  0
   -5.4849   -2.2897    2.0070 C   0  0  0  0  0  0  0  0  0  0  0  0
   -3.9822   -2.3833    2.8069 S   0  0  0  0  0  0  0  0  0  0  0  0
   -6.2894   -0.8842    0.0979 C   0  0  0  0  0  0  0  0  0  0  0  0
   -7.5202   -1.4704    0.1631 C   0  0  0  0  0  0  0  0  0  0  0  0
   -8.5136   -1.0691   -0.7357 C   0  0  0  0  0  0  0  0  0  0  0  0
   -8.2436   -0.0980   -1.6667 C   0  0  0  0  0  0  0  0  0  0  0  0
   -9.2172    0.2775   -2.5283 F   0  0  0  0  0  0  0  0  0  0  0  0
   -7.0168    0.5011   -1.7479 C   0  0  0  0  0  0  0  0  0  0  0  0
   -6.7866    1.4779   -2.7035 O   0  0  0  0  0  0  0  0  0  0  0  0
   -5.5016    2.1049   -2.7879 C   0  0  0  0  0  0  0  0  0  0  0  0
   -6.0390    0.0861   -0.8415 C   0  0  0  0  0  0  0  0  0  0  0  0
    5.1667    2.1176    3.8728 H   0  0  0  0  0  0  0  0  0  0  0  0
    3.8717    1.0812    3.1566 H   0  0  0  0  0  0  0  0  0  0  0  0
    4.1048    2.7954    2.5525 H   0  0  0  0  0  0  0  0  0  0  0  0
    3.1865    0.8191    1.2549 H   0  0  0  0  0  0  0  0  0  0  0  0
    4.2638   -1.0494   -2.3786 H   0  0  0  0  0  0  0  0  0  0  0  0
    5.6371   -0.6347   -3.8314 H   0  0  0  0  0  0  0  0  0  0  0  0
    5.9314   -2.1799   -3.0047 H   0  0  0  0  0  0  0  0  0  0  0  0
    7.2686   -1.4443   -4.0446 H   0  0  0  0  0  0  0  0  0  0  0  0
    9.1972    1.7823   -0.7118 H   0  0  0  0  0  0  0  0  0  0  0  0
    8.2303    2.7171    0.4903 H   0  0  0  0  0  0  0  0  0  0  0  0
    7.6191    2.4409   -1.1999 H   0  0  0  0  0  0  0  0  0  0  0  0
   -0.4825   -2.1552   -0.2474 H   0  0  0  0  0  0  0  0  0  0  0  0
   -0.0995   -1.2071   -1.7264 H   0  0  0  0  0  0  0  0  0  0  0  0
   -0.9834    0.7691   -0.8504 H   0  0  0  0  0  0  0  0  0  0  0  0
   -2.2036   -0.4817   -0.6686 H   0  0  0  0  0  0  0  0  0  0  0  0
   -1.9087    1.1738    1.2925 H   0  0  0  0  0  0  0  0  0  0  0  0
    0.5496    1.4639    1.0524 H   0  0  0  0  0  0  0  0  0  0  0  0
    0.1911    0.8859    2.6863 H   0  0  0  0  0  0  0  0  0  0  0  0
    1.9196   -0.7186    1.9544 H   0  0  0  0  0  0  0  0  0  0  0  0
    0.3629   -1.5528    1.6676 H   0  0  0  0  0  0  0  0  0  0  0  0
   -1.2106   -1.1691    2.7958 H   0  0  0  0  0  0  0  0  0  0  0  0
   -6.4091   -2.8595    2.2008 H   0  0  0  0  0  0  0  0  0  0  0  0
   -7.8021   -2.2441    0.8738 H   0  0  0  0  0  0  0  0  0  0  0  0
   -9.4785   -1.5393   -0.6730 H   0  0  0  0  0  0  0  0  0  0  0  0
   -4.7980    1.3253   -3.1161 H   0  0  0  0  0  0  0  0  0  0  0  0
   -5.1615    2.4641   -1.7997 H   0  0  0  0  0  0  0  0  0  0  0  0
   -5.5107    2.9409   -3.4952 H   0  0  0  0  0  0  0  0  0  0  0  0
   -5.0710    0.5747   -0.9226 H   0  0  0  0  0  0  0  0  0  0  0  0
  1  2  1  0
  2  3  1  0
  3  4  2  0
  4  5  1  0
  5  6  2  0
  6  7  1  0
  7  8  1  0
  8  9  1  0
  7 10  2  0
 10 11  1  0
 11 12  1  0
  5 13  1  0
 13 14  2  0
 13 15  1  0
 15 16  1  0
 16 17  1  0
 17 18  1  0
 18 19  1  0
 19 20  1  0
 18 21  1  0
 21 22  1  0
 22 23  2  0
 23 24  1  0
 24 25  2  0
 25 26  1  0
 24 27  1  0
 27 28  2  0
 28 29  1  0
 29 30  2  0
 30 31  1  0
 30 32  1  0
 32 33  1  0
 33 34  1  0
 32 35  2  0
 10  3  1  0
 20 15  1  0
 26 22  1  0
 35 27  1  0
  1 36  1  0
  1 37  1  0
  1 38  1  0
  4 39  1  0
  6 40  1  0
  9 41  1  0
  9 42  1  0
  9 43  1  0
 12 44  1  0
 12 45  1  0
 12 46  1  0
 16 47  1  0
 16 48  1  0
 17 49  1  0
 17 50  1  0
 18 51  1  0
 19 52  1  0
 19 53  1  0
 20 54  1  0
 20 55  1  0
 21 56  1  0
 25 57  1  0
 28 58  1  0
 29 59  1  0
 34 60  1  0
 34 61  1  0
 34 62  1  0
 35 63  1  0
M  END
$$$$
[H]c1c(N([H])C(=O)[C@@]2([H])N(C(=O)c3c([H])c([H])c(F)c([H])c3[H])C([H])([H])c3c([H])c([H])c([H])c([H])c3C2([H])[H])noc1C(C([H])([H])[H])(C([H])([H])[H])C([H])([H])[H]
     RDKit          3D

 55 58  0  0  0  0  0  0  0  0999 V2000
   -5.9775   -1.5296    1.1198 C   0  0  0  0  0  0  0  0  0  0  0  0
   -5.6684   -0.9174   -0.1993 C   0  0  0  0  0  0  0  0  0  0  0  0
   -6.3228   -1.7108   -1.3161 C   0  0  0  0  0  0  0  0  0  0  0  0
   -6.1557    0.5193   -0.3052 C   0  0  0  0  0  0  0  0  0  0  0  0
   -4.1869   -0.9361   -0.3967 C   0  0  0  0  0  0  0  0  0  0  0  0
   -3.2900   -0.3546    0.4944 C   0  0  0  0  0  0  0  0  0  0  0  0
   -2.0117   -0.5579   -0.0076 C   0  0  0  0  0  0  0  0  0  0  0  0
   -0.7793   -0.1336    0.6080 N   0  0  0  0  0  0  0  0  0  0  0  0
    0.4371   -0.3206   -0.0655 C   0  0  0  0  0  0  0  0  0  0  0  0
    0.4146   -0.8432   -1.2308 O   0  0  0  0  0  0  0  0  0  0  0  0
    1.7328    0.0593    0.5055 C   0  0  2  0  0  0  0  0  0  0  0  0
    1.5967    1.2450    1.4248 C   0  0  0  0  0  0  0  0  0  0  0  0
    1.6496    2.5391    0.7080 C   0  0  0  0  0  0  0  0  0  0  0  0
    1.3453    3.7085    1.4126 C   0  0  0  0  0  0  0  0  0  0  0  0
    1.3711    4.9549    0.8350 C   0  0  0  0  0  0  0  0  0  0  0  0
    1.7135    5.0313   -0.4966 C   0  0  0  0  0  0  0  0  0  0  0  0
    2.0172    3.8989   -1.2140 C   0  0  0  0  0  0  0  0  0  0  0  0
    1.9850    2.6433   -0.6102 C   0  0  0  0  0  0  0  0  0  0  0  0
    2.2961    1.4656   -1.4282 C   0  0  0  0  0  0  0  0  0  0  0  0
    2.6335    0.2960   -0.5918 N   0  0  0  0  0  0  0  0  0  0  0  0
    3.7711   -0.4308   -0.9944 C   0  0  0  0  0  0  0  0  0  0  0  0
    4.4424    0.0708   -2.0101 O   0  0  0  0  0  0  0  0  0  0  0  0
    4.3554   -1.6385   -0.4913 C   0  0  0  0  0  0  0  0  0  0  0  0
    3.7657   -2.6234    0.2500 C   0  0  0  0  0  0  0  0  0  0  0  0
    4.4628   -3.7055    0.8163 C   0  0  0  0  0  0  0  0  0  0  0  0
    5.8172   -3.8237    0.6397 C   0  0  0  0  0  0  0  0  0  0  0  0
    6.5059   -4.8698    1.1861 F   0  0  0  0  0  0  0  0  0  0  0  0
    6.4396   -2.8555   -0.1026 C   0  0  0  0  0  0  0  0  0  0  0  0
    5.7581   -1.8028   -0.6526 C   0  0  0  0  0  0  0  0  0  0  0  0
   -2.1831   -1.2402   -1.1543 N   0  0  0  0  0  0  0  0  0  0  0  0
   -3.4650   -1.4429   -1.3501 O   0  0  0  0  0  0  0  0  0  0  0  0
   -7.0768   -1.6226    1.2911 H   0  0  0  0  0  0  0  0  0  0  0  0
   -5.5466   -0.8752    1.9210 H   0  0  0  0  0  0  0  0  0  0  0  0
   -5.4919   -2.5074    1.1744 H   0  0  0  0  0  0  0  0  0  0  0  0
   -6.1160   -2.7979   -1.1904 H   0  0  0  0  0  0  0  0  0  0  0  0
   -5.9764   -1.3732   -2.3165 H   0  0  0  0  0  0  0  0  0  0  0  0
   -7.4080   -1.5511   -1.2518 H   0  0  0  0  0  0  0  0  0  0  0  0
   -5.3256    1.2268   -0.1237 H   0  0  0  0  0  0  0  0  0  0  0  0
   -6.6100    0.7372   -1.2807 H   0  0  0  0  0  0  0  0  0  0  0  0
   -6.9003    0.6796    0.4922 H   0  0  0  0  0  0  0  0  0  0  0  0
   -3.5193    0.1679    1.4188 H   0  0  0  0  0  0  0  0  0  0  0  0
   -0.8721    0.2889    1.5487 H   0  0  0  0  0  0  0  0  0  0  0  0
    2.1285   -0.7853    1.1669 H   0  0  0  0  0  0  0  0  0  0  0  0
    2.4654    1.2057    2.1631 H   0  0  0  0  0  0  0  0  0  0  0  0
    0.6888    1.1557    2.0416 H   0  0  0  0  0  0  0  0  0  0  0  0
    1.0702    3.6672    2.4642 H   0  0  0  0  0  0  0  0  0  0  0  0
    1.1247    5.8412    1.4335 H   0  0  0  0  0  0  0  0  0  0  0  0
    1.7316    6.0420   -0.9354 H   0  0  0  0  0  0  0  0  0  0  0  0
    2.2882    3.9688   -2.2525 H   0  0  0  0  0  0  0  0  0  0  0  0
    3.1286    1.6257   -2.1260 H   0  0  0  0  0  0  0  0  0  0  0  0
    1.3689    1.2130   -1.9938 H   0  0  0  0  0  0  0  0  0  0  0  0
    2.6711   -2.5980    0.3706 H   0  0  0  0  0  0  0  0  0  0  0  0
    3.8886   -4.4138    1.3824 H   0  0  0  0  0  0  0  0  0  0  0  0
    7.5212   -2.9359   -0.2509 H   0  0  0  0  0  0  0  0  0  0  0  0
    6.2968   -1.0545   -1.2238 H   0  0  0  0  0  0  0  0  0  0  0  0
  1  2  1  0
  2  3  1  0
  2  4  1  0
  2  5  1  0
  5  6  2  0
  6  7  1  0
  7  8  1  0
  8  9  1  0
  9 10  2  0
  9 11  1  0
 11 12  1  0
 12 13  1  0
 13 14  2  0
 14 15  1  0
 15 16  2  0
 16 17  1  0
 17 18  2  0
 18 19  1  0
 19 20  1  0
 20 21  1  0
 21 22  2  0
 21 23  1  0
 23 24  2  0
 24 25  1  0
 25 26  2  0
 26 27  1  0
 26 28  1  0
 28 29  2  0
  7 30  2  0
 30 31  1  0
 31  5  1  0
 20 11  1  0
 29 23  1  0
 18 13  1  0
  1 32  1  0
  1 33  1  0
  1 34  1  0
  3 35  1  0
  3 36  1  0
  3 37  1  0
  4 38  1  0
  4 39  1  0
  4 40  1  0
  6 41  1  0
  8 42  1  0
 11 43  1  1
 12 44  1  0
 12 45  1  0
 14 46  1  0
 15 47  1  0
 16 48  1  0
 17 49  1  0
 19 50  1  0
 19 51  1  0
 24 52  1  0
 25 53  1  0
 28 54  1  0
 29 55  1  0
M  END
$$$$
[H]c1nc(N([H])[H])c([H])c(-n2c(N([H])c3c([H])c(N([H])C(=O)c4c([H])c([H])c([H])c(C(F)(F)F)c4[H])c([H])c([H])c3C([H])([H])[H])nc3c([H])c([H])c([H])c([H])c32)n1
     RDKit          3D

 57 61  0  0  0  0  0  0  0  0999 V2000
   -1.6432   -2.0416    2.7169 C   0  0  0  0  0  0  0  0  0  0  0  0
   -0.4053   -1.4867    2.0633 C   0  0  0  0  0  0  0  0  0  0  0  0
    0.8342   -1.8560    2.4707 C   0  0  0  0  0  0  0  0  0  0  0  0
    1.9648   -1.3222    1.8953 C   0  0  0  0  0  0  0  0  0  0  0  0
    1.8822   -0.3874    0.8761 C   0  0  0  0  0  0  0  0  0  0  0  0
    3.1468    0.0395    0.2902 N   0  0  0  0  0  0  0  0  0  0  0  0
    4.1825   -0.8981    0.1319 C   0  0  0  0  0  0  0  0  0  0  0  0
    3.9574   -2.1254    0.4591 O   0  0  0  0  0  0  0  0  0  0  0  0
    5.5124   -0.6686   -0.3620 C   0  0  0  0  0  0  0  0  0  0  0  0
    6.2085   -1.7268   -0.9935 C   0  0  0  0  0  0  0  0  0  0  0  0
    7.5029   -1.5976   -1.4178 C   0  0  0  0  0  0  0  0  0  0  0  0
    8.1760   -0.4198   -1.2395 C   0  0  0  0  0  0  0  0  0  0  0  0
    7.5489    0.6476   -0.6304 C   0  0  0  0  0  0  0  0  0  0  0  0
    6.2433    0.5004   -0.2105 C   0  0  0  0  0  0  0  0  0  0  0  0
    8.3554    1.8848   -0.4631 C   0  0  0  0  0  0  0  0  0  0  0  0
    9.1827    1.7204    0.6569 F   0  0  0  0  0  0  0  0  0  0  0  0
    7.6253    3.0175   -0.2734 F   0  0  0  0  0  0  0  0  0  0  0  0
    9.1307    2.1006   -1.6059 F   0  0  0  0  0  0  0  0  0  0  0  0
    0.6387    0.0017    0.4544 C   0  0  0  0  0  0  0  0  0  0  0  0
   -0.5280   -0.5230    1.0190 C   0  0  0  0  0  0  0  0  0  0  0  0
   -1.8358   -0.3085    0.6216 N   0  0  0  0  0  0  0  0  0  0  0  0
   -2.4500    0.8405    0.1121 C   0  0  0  0  0  0  0  0  0  0  0  0
   -2.0584    2.0868   -0.1661 N   0  0  0  0  0  0  0  0  0  0  0  0
   -3.0946    2.8754   -0.5621 C   0  0  0  0  0  0  0  0  0  0  0  0
   -3.2513    4.1921   -0.9126 C   0  0  0  0  0  0  0  0  0  0  0  0
   -4.4890    4.7055   -1.2275 C   0  0  0  0  0  0  0  0  0  0  0  0
   -5.6142    3.9009   -1.2026 C   0  0  0  0  0  0  0  0  0  0  0  0
   -5.4598    2.5754   -0.8527 C   0  0  0  0  0  0  0  0  0  0  0  0
   -4.1912    2.0914   -0.5358 C   0  0  0  0  0  0  0  0  0  0  0  0
   -3.8198    0.8820   -0.1403 N   0  0  0  0  0  0  0  0  0  0  0  0
   -4.6993   -0.2178    0.0100 C   0  0  0  0  0  0  0  0  0  0  0  0
   -4.7485   -1.2047   -0.9499 C   0  0  0  0  0  0  0  0  0  0  0  0
   -5.5854   -2.2820   -0.8318 C   0  0  0  0  0  0  0  0  0  0  0  0
   -5.6390   -3.3228   -1.8083 N   0  0  0  0  0  0  0  0  0  0  0  0
   -6.3867   -2.3688    0.2666 N   0  0  0  0  0  0  0  0  0  0  0  0
   -6.3356   -1.3968    1.2079 C   0  0  0  0  0  0  0  0  0  0  0  0
   -5.5174   -0.3658    1.0689 N   0  0  0  0  0  0  0  0  0  0  0  0
   -2.1040   -2.7528    2.0101 H   0  0  0  0  0  0  0  0  0  0  0  0
   -2.3603   -1.2131    2.9698 H   0  0  0  0  0  0  0  0  0  0  0  0
   -1.3766   -2.5985    3.6355 H   0  0  0  0  0  0  0  0  0  0  0  0
    0.9458   -2.5873    3.2690 H   0  0  0  0  0  0  0  0  0  0  0  0
    2.9552   -1.6055    2.2730 H   0  0  0  0  0  0  0  0  0  0  0  0
    3.2243    1.0157    0.0065 H   0  0  0  0  0  0  0  0  0  0  0  0
    5.6386   -2.6562   -1.1109 H   0  0  0  0  0  0  0  0  0  0  0  0
    8.0121   -2.4455   -1.9029 H   0  0  0  0  0  0  0  0  0  0  0  0
    9.2259   -0.3527   -1.5914 H   0  0  0  0  0  0  0  0  0  0  0  0
    5.7761    1.3585    0.2692 H   0  0  0  0  0  0  0  0  0  0  0  0
    0.5548    0.7297   -0.3343 H   0  0  0  0  0  0  0  0  0  0  0  0
   -2.4657   -1.2163    0.6894 H   0  0  0  0  0  0  0  0  0  0  0  0
   -2.3778    4.8442   -0.9514 H   0  0  0  0  0  0  0  0  0  0  0  0
   -4.6482    5.7667   -1.5019 H   0  0  0  0  0  0  0  0  0  0  0  0
   -6.6089    4.2836   -1.4481 H   0  0  0  0  0  0  0  0  0  0  0  0
   -6.3267    1.9303   -0.8277 H   0  0  0  0  0  0  0  0  0  0  0  0
   -4.1093   -1.1586   -1.8510 H   0  0  0  0  0  0  0  0  0  0  0  0
   -6.4919   -3.9111   -1.8868 H   0  0  0  0  0  0  0  0  0  0  0  0
   -4.8081   -3.4688   -2.4320 H   0  0  0  0  0  0  0  0  0  0  0  0
   -6.9953   -1.5044    2.0761 H   0  0  0  0  0  0  0  0  0  0  0  0
  1  2  1  0
  2  3  2  0
  3  4  1  0
  4  5  2  0
  5  6  1  0
  6  7  1  0
  7  8  2  0
  7  9  1  0
  9 10  2  0
 10 11  1  0
 11 12  2  0
 12 13  1  0
 13 14  2  0
 13 15  1  0
 15 16  1  0
 15 17  1  0
 15 18  1  0
  5 19  1  0
 19 20  2  0
 20 21  1  0
 21 22  1  0
 22 23  2  0
 23 24  1  0
 24 25  2  0
 25 26  1  0
 26 27  2  0
 27 28  1  0
 28 29  2  0
 29 30  1  0
 30 31  1  0
 31 32  2  0
 32 33  1  0
 33 34  1  0
 33 35  2  0
 35 36  1  0
 36 37  2  0
 20  2  1  0
 30 22  1  0
 37 31  1  0
 14  9  1  0
 29 24  1  0
  1 38  1  0
  1 39  1  0
  1 40  1  0
  3 41  1  0
  4 42  1  0
  6 43  1  0
 10 44  1  0
 11 45  1  0
 12 46  1  0
 14 47  1  0
 19 48  1  0
 21 49  1  0
 25 50  1  0
 26 51  1  0
 27 52  1  0
 28 53  1  0
 32 54  1  0
 34 55  1  0
 34 56  1  0
 36 57  1  0
M  END
$$$$
[H]OC([H])([H])[C@@]1(O[H])C([H])([H])[C@@]2([H])O[C@]1(C([H])([H])[H])n1c3c([H])c([H])c([H])c([H])c3c3c4c(c5c6c([H])c([H])c([H])c([H])c6n2c5c31)C(=O)N([H])C4([H])[H]
     RDKit          3D

 54 61  0  0  0  0  0  0  0  0999 V2000
    3.1800    0.8838    1.3878 C   0  0  0  0  0  0  0  0  0  0  0  0
    2.1176    0.2237    0.5774 C   0  0  2  0  0  0  0  0  0  0  0  0
    1.6968   -0.7870    1.4854 O   0  0  0  0  0  0  0  0  0  0  0  0
    1.2511   -1.8639    0.7986 C   0  0  2  0  0  0  0  0  0  0  0  0
    2.0328   -1.9517   -0.4419 C   0  0  0  0  0  0  0  0  0  0  0  0
    2.6347   -0.5714   -0.5849 C   0  0  1  0  0  0  0  0  0  0  0  0
    2.2138   -0.0799   -1.8115 O   0  0  0  0  0  0  0  0  0  0  0  0
    4.1191   -0.7109   -0.6110 C   0  0  0  0  0  0  0  0  0  0  0  0
    4.4589   -1.5975   -1.6334 O   0  0  0  0  0  0  0  0  0  0  0  0
   -0.2014   -1.7853    0.5955 N   0  0  0  0  0  0  0  0  0  0  0  0
   -1.1044   -2.7499    0.6347 C   0  0  0  0  0  0  0  0  0  0  0  0
   -0.9179   -4.0868    0.8734 C   0  0  0  0  0  0  0  0  0  0  0  0
   -2.0299   -4.9199    0.8648 C   0  0  0  0  0  0  0  0  0  0  0  0
   -3.2823   -4.4161    0.6235 C   0  0  0  0  0  0  0  0  0  0  0  0
   -3.4758   -3.0511    0.3794 C   0  0  0  0  0  0  0  0  0  0  0  0
   -2.3768   -2.2421    0.3902 C   0  0  0  0  0  0  0  0  0  0  0  0
   -2.2053   -0.8905    0.1945 C   0  0  0  0  0  0  0  0  0  0  0  0
   -3.0670    0.1511   -0.0975 C   0  0  0  0  0  0  0  0  0  0  0  0
   -4.5001    0.2660   -0.2996 C   0  0  0  0  0  0  0  0  0  0  0  0
   -5.3884   -0.5871   -0.2658 O   0  0  0  0  0  0  0  0  0  0  0  0
   -4.7851    1.6416   -0.5724 N   0  0  0  0  0  0  0  0  0  0  0  0
   -3.5735    2.4248   -0.5610 C   0  0  0  0  0  0  0  0  0  0  0  0
   -2.5314    1.4168   -0.2472 C   0  0  0  0  0  0  0  0  0  0  0  0
   -1.1701    1.6669   -0.1133 C   0  0  0  0  0  0  0  0  0  0  0  0
   -0.3770    2.7657   -0.2198 C   0  0  0  0  0  0  0  0  0  0  0  0
   -0.7006    4.0705   -0.5126 C   0  0  0  0  0  0  0  0  0  0  0  0
    0.3203    5.0230   -0.5829 C   0  0  0  0  0  0  0  0  0  0  0  0
    1.6233    4.6180   -0.3553 C   0  0  0  0  0  0  0  0  0  0  0  0
    1.9232    3.2989   -0.0625 C   0  0  0  0  0  0  0  0  0  0  0  0
    0.9354    2.3466    0.0129 C   0  0  0  0  0  0  0  0  0  0  0  0
    0.9590    1.0103    0.2643 N   0  0  0  0  0  0  0  0  0  0  0  0
   -0.3578    0.6223    0.1746 C   0  0  0  0  0  0  0  0  0  0  0  0
   -0.8544   -0.6533    0.3299 C   0  0  0  0  0  0  0  0  0  0  0  0
    4.0624    1.2462    0.8471 H   0  0  0  0  0  0  0  0  0  0  0  0
    3.5596    0.1949    2.1815 H   0  0  0  0  0  0  0  0  0  0  0  0
    2.7312    1.7230    1.9466 H   0  0  0  0  0  0  0  0  0  0  0  0
    1.4219   -2.7643    1.4120 H   0  0  0  0  0  0  0  0  0  0  0  0
    1.4720   -2.2700   -1.3403 H   0  0  0  0  0  0  0  0  0  0  0  0
    2.8377   -2.7359   -0.3258 H   0  0  0  0  0  0  0  0  0  0  0  0
    2.8799   -0.3390   -2.4928 H   0  0  0  0  0  0  0  0  0  0  0  0
    4.5238   -1.1579    0.3296 H   0  0  0  0  0  0  0  0  0  0  0  0
    4.6358    0.2581   -0.8438 H   0  0  0  0  0  0  0  0  0  0  0  0
    4.7979   -2.4633   -1.2908 H   0  0  0  0  0  0  0  0  0  0  0  0
    0.0592   -4.4684    1.0598 H   0  0  0  0  0  0  0  0  0  0  0  0
   -1.8569   -5.9719    1.0560 H   0  0  0  0  0  0  0  0  0  0  0  0
   -4.1224   -5.0759    0.6219 H   0  0  0  0  0  0  0  0  0  0  0  0
   -4.4721   -2.7398    0.2018 H   0  0  0  0  0  0  0  0  0  0  0  0
   -5.7336    2.0654   -0.7610 H   0  0  0  0  0  0  0  0  0  0  0  0
   -3.6366    3.2333    0.1993 H   0  0  0  0  0  0  0  0  0  0  0  0
   -3.3846    2.8954   -1.5673 H   0  0  0  0  0  0  0  0  0  0  0  0
   -1.7294    4.3700   -0.6881 H   0  0  0  0  0  0  0  0  0  0  0  0
    0.0587    6.0490   -0.8135 H   0  0  0  0  0  0  0  0  0  0  0  0
    2.3774    5.3965   -0.4223 H   0  0  0  0  0  0  0  0  0  0  0  0
    2.9510    3.0689    0.0761 H   0  0  0  0  0  0  0  0  0  0  0  0
  2  1  1  1
  2  3  1  0
  3  4  1  0
  4  5  1  0
  5  6  1  0
  6  7  1  6
  6  8  1  0
  8  9  1  0
  4 10  1  0
 10 11  1  0
 11 12  2  0
 12 13  1  0
 13 14  2  0
 14 15  1  0
 15 16  2  0
 16 17  1  0
 17 18  2  0
 18 19  1  0
 19 20  2  0
 19 21  1  0
 21 22  1  0
 22 23  1  0
 23 24  2  0
 24 25  1  0
 25 26  2  0
 26 27  1  0
 27 28  2  0
 28 29  1  0
 29 30  2  0
 30 31  1  0
 31 32  1  0
 32 33  2  0
  6  2  1  0
 33 10  1  0
 31  2  1  0
 16 11  1  0
 33 17  1  0
 23 18  1  0
 32 24  1  0
 30 25  1  0
  1 34  1  0
  1 35  1  0
  1 36  1  0
  4 37  1  1
  5 38  1  0
  5 39  1  0
  7 40  1  0
  8 41  1  0
  8 42  1  0
  9 43  1  0
 12 44  1  0
 13 45  1  0
 14 46  1  0
 15 47  1  0
 21 48  1  0
 22 49  1  0
 22 50  1  0
 26 51  1  0
 27 52  1  0
 28 53  1  0
 29 54  1  0
M  END
$$$$
[H]c1nc(N([H])c2c([H])c(N([H])C(=O)c3c([H])c([H])c(C([H])([H])N4C([H])([H])C([H])([H])N(C([H])([H])[H])C([H])([H])C4([H])[H])c(C(F)(F)F)c3[H])c([H])c([H])c2C([H])([H])[H])nc(-c2c([H])nc([H])c([H])c2[H])c1[H]
     RDKit          3D

 71 75  0  0  0  0  0  0  0  0999 V2000
   -9.9347    0.2361   -1.3530 C   0  0  0  0  0  0  0  0  0  0  0  0
   -8.7315   -0.2431   -2.0052 N   0  0  0  0  0  0  0  0  0  0  0  0
   -8.3643   -1.4998   -1.3435 C   0  0  0  0  0  0  0  0  0  0  0  0
   -7.7519   -1.1751   -0.0144 C   0  0  0  0  0  0  0  0  0  0  0  0
   -6.3847   -0.6145   -0.1490 N   0  0  0  0  0  0  0  0  0  0  0  0
   -5.4582   -1.7716   -0.2410 C   0  0  0  0  0  0  0  0  0  0  0  0
   -4.0923   -1.3053   -0.0157 C   0  0  0  0  0  0  0  0  0  0  0  0
   -3.8574   -0.0110    0.3758 C   0  0  0  0  0  0  0  0  0  0  0  0
   -2.5723    0.4484    0.6525 C   0  0  0  0  0  0  0  0  0  0  0  0
   -1.4841   -0.3764    0.5464 C   0  0  0  0  0  0  0  0  0  0  0  0
   -1.7408   -1.6721    0.1532 C   0  0  0  0  0  0  0  0  0  0  0  0
   -2.9957   -2.1554   -0.1275 C   0  0  0  0  0  0  0  0  0  0  0  0
   -3.2301   -3.5575   -0.5510 C   0  0  0  0  0  0  0  0  0  0  0  0
   -3.7929   -3.6608   -1.8005 F   0  0  0  0  0  0  0  0  0  0  0  0
   -1.9900   -4.1845   -0.5944 F   0  0  0  0  0  0  0  0  0  0  0  0
   -3.9703   -4.2573    0.3945 F   0  0  0  0  0  0  0  0  0  0  0  0
   -0.1205    0.0746    0.8363 C   0  0  0  0  0  0  0  0  0  0  0  0
    0.7874   -0.7156    0.5100 O   0  0  0  0  0  0  0  0  0  0  0  0
    0.1496    1.3030    1.4367 N   0  0  0  0  0  0  0  0  0  0  0  0
    1.3829    1.8862    1.7753 C   0  0  0  0  0  0  0  0  0  0  0  0
    1.3784    2.9682    2.6655 C   0  0  0  0  0  0  0  0  0  0  0  0
    2.5562    3.5802    3.0131 C   0  0  0  0  0  0  0  0  0  0  0  0
    3.7559    3.1427    2.4950 C   0  0  0  0  0  0  0  0  0  0  0  0
    5.0213    3.8036    2.8736 C   0  0  0  0  0  0  0  0  0  0  0  0
    3.8205    2.0721    1.6058 C   0  0  0  0  0  0  0  0  0  0  0  0
    5.0640    1.6812    1.1133 N   0  0  0  0  0  0  0  0  0  0  0  0
    5.4168    0.6392    0.2403 C   0  0  0  0  0  0  0  0  0  0  0  0
    4.5806   -0.2402   -0.3245 N   0  0  0  0  0  0  0  0  0  0  0  0
    4.9838   -1.2125   -1.1507 C   0  0  0  0  0  0  0  0  0  0  0  0
    6.3432   -1.3501   -1.4657 C   0  0  0  0  0  0  0  0  0  0  0  0
    7.2134   -0.4546   -0.8935 C   0  0  0  0  0  0  0  0  0  0  0  0
    6.7169    0.4847   -0.0790 N   0  0  0  0  0  0  0  0  0  0  0  0
    8.6702   -0.5095   -1.1601 C   0  0  0  0  0  0  0  0  0  0  0  0
    9.1974   -1.4582   -1.9850 C   0  0  0  0  0  0  0  0  0  0  0  0
   10.5790   -1.4717   -2.2091 C   0  0  0  0  0  0  0  0  0  0  0  0
   11.4031   -0.5478   -1.6125 C   0  0  0  0  0  0  0  0  0  0  0  0
   10.8420    0.3687   -0.8075 N   0  0  0  0  0  0  0  0  0  0  0  0
    9.5195    0.4071   -0.5731 C   0  0  0  0  0  0  0  0  0  0  0  0
    2.6286    1.4802    1.2763 C   0  0  0  0  0  0  0  0  0  0  0  0
   -6.3661    0.0487   -1.4754 C   0  0  0  0  0  0  0  0  0  0  0  0
   -7.6847    0.7475   -1.7423 C   0  0  0  0  0  0  0  0  0  0  0  0
  -10.8400    0.0820   -1.9782 H   0  0  0  0  0  0  0  0  0  0  0  0
  -10.1219   -0.3026   -0.4045 H   0  0  0  0  0  0  0  0  0  0  0  0
   -9.8649    1.3283   -1.1812 H   0  0  0  0  0  0  0  0  0  0  0  0
   -7.6639   -2.0729   -1.9562 H   0  0  0  0  0  0  0  0  0  0  0  0
   -9.2658   -2.1094   -1.1456 H   0  0  0  0  0  0  0  0  0  0  0  0
   -7.6343   -2.1192    0.5481 H   0  0  0  0  0  0  0  0  0  0  0  0
   -8.3505   -0.4856    0.5888 H   0  0  0  0  0  0  0  0  0  0  0  0
   -5.7781   -2.5230    0.4961 H   0  0  0  0  0  0  0  0  0  0  0  0
   -5.6613   -2.1828   -1.2517 H   0  0  0  0  0  0  0  0  0  0  0  0
   -4.6678    0.6957    0.5168 H   0  0  0  0  0  0  0  0  0  0  0  0
   -2.4771    1.4610    0.9446 H   0  0  0  0  0  0  0  0  0  0  0  0
   -0.9071   -2.3603    0.0566 H   0  0  0  0  0  0  0  0  0  0  0  0
   -0.7059    1.9212    1.6860 H   0  0  0  0  0  0  0  0  0  0  0  0
    0.4539    3.3373    3.0924 H   0  0  0  0  0  0  0  0  0  0  0  0
    2.5407    4.4303    3.7141 H   0  0  0  0  0  0  0  0  0  0  0  0
    5.7606    3.0867    3.2981 H   0  0  0  0  0  0  0  0  0  0  0  0
    4.8047    4.5194    3.6921 H   0  0  0  0  0  0  0  0  0  0  0  0
    5.4494    4.4108    2.0471 H   0  0  0  0  0  0  0  0  0  0  0  0
    5.9212    2.2641    1.4427 H   0  0  0  0  0  0  0  0  0  0  0  0
    4.2947   -1.9013   -1.5878 H   0  0  0  0  0  0  0  0  0  0  0  0
    6.6728   -2.1241   -2.1247 H   0  0  0  0  0  0  0  0  0  0  0  0
    8.6112   -2.2088   -2.4823 H   0  0  0  0  0  0  0  0  0  0  0  0
   11.0325   -2.2048   -2.8536 H   0  0  0  0  0  0  0  0  0  0  0  0
   12.4912   -0.5498   -1.7822 H   0  0  0  0  0  0  0  0  0  0  0  0
    9.0900    1.1545    0.0789 H   0  0  0  0  0  0  0  0  0  0  0  0
    2.6027    0.6574    0.5857 H   0  0  0  0  0  0  0  0  0  0  0  0
   -6.1870   -0.7063   -2.2777 H   0  0  0  0  0  0  0  0  0  0  0  0
   -5.5974    0.8055   -1.4807 H   0  0  0  0  0  0  0  0  0  0  0  0
   -7.5458    1.3496   -2.6604 H   0  0  0  0  0  0  0  0  0  0  0  0
   -7.9450    1.4195   -0.9167 H   0  0  0  0  0  0  0  0  0  0  0  0
  1  2  1  0
  2  3  1  0
  3  4  1  0
  4  5  1  0
  5  6  1  0
  6  7  1  0
  7  8  2  0
  8  9  1  0
  9 10  2  0
 10 11  1  0
 11 12  2  0
 12 13  1  0
 13 14  1  0
 13 15  1  0
 13 16  1  0
 10 17  1  0
 17 18  2  0
 17 19  1  0
 19 20  1  0
 20 21  2  0
 21 22  1  0
 22 23  2  0
 23 24  1  0
 23 25  1  0
 25 26  1  0
 26 27  1  0
 27 28  2  0
 28 29  1  0
 29 30  2  0
 30 31  1  0
 31 32  2  0
 31 33  1  0
 33 34  2  0
 34 35  1  0
 35 36  2  0
 36 37  1  0
 37 38  2  0
 25 39  2  0
  5 40  1  0
 40 41  1  0
 41  2  1  0
 12  7  1  0
 39 20  1  0
 32 27  1  0
 38 33  1  0
  1 42  1  0
  1 43  1  0
  1 44  1  0
  3 45  1  0
  3 46  1  0
  4 47  1  0
  4 48  1  0
  6 49  1  0
  6 50  1  0
  8 51  1  0
  9 52  1  0
 11 53  1  0
 19 54  1  0
 21 55  1  0
 22 56  1  0
 24 57  1  0
 24 58  1  0
 24 59  1  0
 26 60  1  0
 29 61  1  0
 30 62  1  0
 34 63  1  0
 35 64  1  0
 36 65  1  0
 38 66  1  0
 39 67  1  0
 40 68  1  0
 40 69  1  0
 41 70  1  0
 41 71  1  0
M  END
$$$$
[H]c1c([H])c(S(=O)(=O)C([H])([H])[H])c([H])c([H])c1C#Cc1c([H])c(O[C@@]([H])(C([H])([H])[H])C([H])([H])OC([H])([H])[H])c([H])c(C(=O)N([H])c2nn(C([H])([H])[H])c([H])c2[H])c1[H]
     RDKit          3D

 58 60  0  0  0  0  0  0  0  0999 V2000
   -4.6485    5.6868   -0.8980 C   0  0  0  0  0  0  0  0  0  0  0  0
   -4.5527    4.5792   -0.0768 O   0  0  0  0  0  0  0  0  0  0  0  0
   -3.2234    4.1777   -0.0401 C   0  0  0  0  0  0  0  0  0  0  0  0
   -3.0393    2.9551    0.8504 C   0  0  2  0  0  0  0  0  0  0  0  0
   -3.4042    3.3191    2.3006 C   0  0  0  0  0  0  0  0  0  0  0  0
   -1.6975    2.6100    0.8418 O   0  0  0  0  0  0  0  0  0  0  0  0
   -1.1780    1.4034    0.4868 C   0  0  0  0  0  0  0  0  0  0  0  0
    0.2158    1.2439    0.5433 C   0  0  0  0  0  0  0  0  0  0  0  0
    0.7515    0.0441    0.1918 C   0  0  0  0  0  0  0  0  0  0  0  0
   -0.0622   -0.9831   -0.2083 C   0  0  0  0  0  0  0  0  0  0  0  0
   -1.4423   -0.8791   -0.2818 C   0  0  0  0  0  0  0  0  0  0  0  0
   -1.9609    0.3441    0.0785 C   0  0  0  0  0  0  0  0  0  0  0  0
   -2.2408   -2.0122   -0.7210 C   0  0  0  0  0  0  0  0  0  0  0  0
   -1.6345   -2.9823   -1.2308 O   0  0  0  0  0  0  0  0  0  0  0  0
   -3.6345   -2.0347   -0.5862 N   0  0  0  0  0  0  0  0  0  0  0  0
   -4.4819   -3.1000   -0.9894 C   0  0  0  0  0  0  0  0  0  0  0  0
   -4.1222   -4.2833   -1.5729 C   0  0  0  0  0  0  0  0  0  0  0  0
   -5.3226   -4.9857   -1.7719 C   0  0  0  0  0  0  0  0  0  0  0  0
   -6.3185   -4.2132   -1.3116 N   0  0  0  0  0  0  0  0  0  0  0  0
   -7.7320   -4.5598   -1.3241 C   0  0  0  0  0  0  0  0  0  0  0  0
   -5.8491   -3.0964   -0.8452 N   0  0  0  0  0  0  0  0  0  0  0  0
    2.2032   -0.1306    0.2477 C   0  0  0  0  0  0  0  0  0  0  0  0
    3.4005   -0.2583    0.3063 C   0  0  0  0  0  0  0  0  0  0  0  0
    4.8275   -0.3980    0.3895 C   0  0  0  0  0  0  0  0  0  0  0  0
    5.5381    0.3842    1.2485 C   0  0  0  0  0  0  0  0  0  0  0  0
    6.9088    0.2511    1.3294 C   0  0  0  0  0  0  0  0  0  0  0  0
    7.6245   -0.6529    0.5707 C   0  0  0  0  0  0  0  0  0  0  0  0
    6.8987   -1.4449   -0.3000 C   0  0  0  0  0  0  0  0  0  0  0  0
    5.5245   -1.3112   -0.3809 C   0  0  0  0  0  0  0  0  0  0  0  0
    9.3644   -0.7749    0.7185 S   0  0  0  0  0  0  0  0  0  0  0  0
   10.1736    0.3213   -0.4161 C   0  0  0  0  0  0  0  0  0  0  0  0
    9.7767   -2.1974    0.5070 O   0  0  0  0  0  0  0  0  0  0  0  0
    9.7029   -0.4342    2.1549 O   0  0  0  0  0  0  0  0  0  0  0  0
   -5.6889    6.0701   -0.9791 H   0  0  0  0  0  0  0  0  0  0  0  0
   -3.9568    6.4629   -0.5066 H   0  0  0  0  0  0  0  0  0  0  0  0
   -4.3185    5.4784   -1.9422 H   0  0  0  0  0  0  0  0  0  0  0  0
   -2.9429    3.8586   -1.0643 H   0  0  0  0  0  0  0  0  0  0  0  0
   -2.5351    4.9756    0.3020 H   0  0  0  0  0  0  0  0  0  0  0  0
   -3.7472    2.1765    0.5407 H   0  0  0  0  0  0  0  0  0  0  0  0
   -3.7351    2.3773    2.7931 H   0  0  0  0  0  0  0  0  0  0  0  0
   -4.1881    4.0809    2.3425 H   0  0  0  0  0  0  0  0  0  0  0  0
   -2.4718    3.6295    2.8471 H   0  0  0  0  0  0  0  0  0  0  0  0
    0.8578    2.0527    0.8585 H   0  0  0  0  0  0  0  0  0  0  0  0
    0.3676   -1.9370   -0.4872 H   0  0  0  0  0  0  0  0  0  0  0  0
   -3.0309    0.4513    0.0264 H   0  0  0  0  0  0  0  0  0  0  0  0
   -4.1114   -1.1826   -0.1434 H   0  0  0  0  0  0  0  0  0  0  0  0
   -3.1469   -4.6603   -1.8485 H   0  0  0  0  0  0  0  0  0  0  0  0
   -5.3715   -5.9761   -2.2237 H   0  0  0  0  0  0  0  0  0  0  0  0
   -8.2221   -3.8778   -2.0699 H   0  0  0  0  0  0  0  0  0  0  0  0
   -8.1686   -4.4038   -0.3228 H   0  0  0  0  0  0  0  0  0  0  0  0
   -7.8757   -5.5937   -1.6899 H   0  0  0  0  0  0  0  0  0  0  0  0
    4.9915    1.1056    1.8577 H   0  0  0  0  0  0  0  0  0  0  0  0
    7.4669    0.8809    2.0189 H   0  0  0  0  0  0  0  0  0  0  0  0
    7.4395   -2.1656   -0.9095 H   0  0  0  0  0  0  0  0  0  0  0  0
    4.9823   -1.9496   -1.0763 H   0  0  0  0  0  0  0  0  0  0  0  0
    9.4336    0.9579   -0.9277 H   0  0  0  0  0  0  0  0  0  0  0  0
   10.9115    0.9053    0.1718 H   0  0  0  0  0  0  0  0  0  0  0  0
   10.6952   -0.3044   -1.1652 H   0  0  0  0  0  0  0  0  0  0  0  0
  1  2  1  0
  2  3  1  0
  3  4  1  0
  4  5  1  0
  4  6  1  0
  6  7  1  0
  7  8  2  0
  8  9  1  0
  9 10  2  0
 10 11  1  0
 11 12  2  0
 11 13  1  0
 13 14  2  0
 13 15  1  0
 15 16  1  0
 16 17  1  0
 17 18  2  0
 18 19  1  0
 19 20  1  0
 19 21  1  0
  9 22  1  0
 22 23  3  0
 23 24  1  0
 24 25  2  0
 25 26  1  0
 26 27  2  0
 27 28  1  0
 28 29  2  0
 27 30  1  0
 30 31  1  0
 30 32  2  0
 30 33  2  0
 12  7  1  0
 21 16  2  0
 29 24  1  0
  1 34  1  0
  1 35  1  0
  1 36  1  0
  3 37  1  0
  3 38  1  0
  4 39  1  6
  5 40  1  0
  5 41  1  0
  5 42  1  0
  8 43  1  0
 10 44  1  0
 12 45  1  0
 15 46  1  0
 17 47  1  0
 18 48  1  0
 20 49  1  0
 20 50  1  0
 20 51  1  0
 25 52  1  0
 26 53  1  0
 28 54  1  0
 29 55  1  0
 31 56  1  0
 31 57  1  0
 31 58  1  0
M  END
$$$$
[H]c1c([H])c(-c2c(N([H])[H])nc(N([H])[H])nc2C([H])([H])C([H])([H])[H])c([H])c([N+](=O)[O-])c1Cl
     RDKit          3D

 32 33  0  0  0  0  0  0  0  0999 V2000
   -1.4386   -2.0340    1.3882 C   0  0  0  0  0  0  0  0  0  0  0  0
   -1.3623   -0.5870    1.8915 C   0  0  0  0  0  0  0  0  0  0  0  0
   -1.6053    0.2752    0.7025 C   0  0  0  0  0  0  0  0  0  0  0  0
   -2.8907    0.6878    0.4358 N   0  0  0  0  0  0  0  0  0  0  0  0
   -3.2009    1.4100   -0.6454 C   0  0  0  0  0  0  0  0  0  0  0  0
   -4.5448    1.8260   -0.9102 N   0  0  0  0  0  0  0  0  0  0  0  0
   -2.2035    1.7318   -1.4851 N   0  0  0  0  0  0  0  0  0  0  0  0
   -0.9281    1.3565   -1.2722 C   0  0  0  0  0  0  0  0  0  0  0  0
    0.1260    1.6822   -2.1496 N   0  0  0  0  0  0  0  0  0  0  0  0
   -0.5864    0.5982   -0.1399 C   0  0  0  0  0  0  0  0  0  0  0  0
    0.8174    0.2461    0.0713 C   0  0  0  0  0  0  0  0  0  0  0  0
    1.5964    0.9592    1.0004 C   0  0  0  0  0  0  0  0  0  0  0  0
    2.9036    0.6767    1.2076 C   0  0  0  0  0  0  0  0  0  0  0  0
    3.5273   -0.3357    0.5047 C   0  0  0  0  0  0  0  0  0  0  0  0
    5.2031   -0.7118    0.7616 Cl  0  0  0  0  0  0  0  0  0  0  0  0
    2.8019   -1.0515   -0.4070 C   0  0  0  0  0  0  0  0  0  0  0  0
    1.4667   -0.7412   -0.5987 C   0  0  0  0  0  0  0  0  0  0  0  0
    3.3717   -2.1072   -1.1536 N   0  0  0  0  0  0  0  0  0  0  0  0
    4.7035   -2.1261   -1.4484 O   0  0  0  0  0  0  0  0  0  0  0  0
    2.6533   -3.0371   -1.5516 O   0  0  0  0  0  0  0  0  0  0  0  0
   -0.9050   -2.6701    2.1149 H   0  0  0  0  0  0  0  0  0  0  0  0
   -2.5287   -2.2733    1.3115 H   0  0  0  0  0  0  0  0  0  0  0  0
   -1.0512   -2.0867    0.3710 H   0  0  0  0  0  0  0  0  0  0  0  0
   -0.2747   -0.4375    2.1749 H   0  0  0  0  0  0  0  0  0  0  0  0
   -2.0486   -0.4145    2.7206 H   0  0  0  0  0  0  0  0  0  0  0  0
   -5.3556    1.4016   -0.4150 H   0  0  0  0  0  0  0  0  0  0  0  0
   -4.7724    2.5702   -1.6111 H   0  0  0  0  0  0  0  0  0  0  0  0
    0.7259    2.5047   -2.1348 H   0  0  0  0  0  0  0  0  0  0  0  0
    0.3119    0.9727   -2.9196 H   0  0  0  0  0  0  0  0  0  0  0  0
    1.1291    1.7636    1.5678 H   0  0  0  0  0  0  0  0  0  0  0  0
    3.4488    1.2640    1.9406 H   0  0  0  0  0  0  0  0  0  0  0  0
    0.9105   -1.3130   -1.3228 H   0  0  0  0  0  0  0  0  0  0  0  0
  1  2  1  0
  2  3  1  0
  3  4  2  0
  4  5  1  0
  5  6  1  0
  5  7  2  0
  7  8  1  0
  8  9  1  0
  8 10  2  0
 10 11  1  0
 11 12  2  0
 12 13  1  0
 13 14  2  0
 14 15  1  0
 14 16  1  0
 16 17  2  0
 16 18  1  0
 18 19  1  0
 18 20  2  0
 10  3  1  0
 17 11  1  0
  1 21  1  0
  1 22  1  0
  1 23  1  0
  2 24  1  0
  2 25  1  0
  6 26  1  0
  6 27  1  0
  9 28  1  0
  9 29  1  0
 12 30  1  0
 13 31  1  0
 17 32  1  0
M  CHG  2  18   1  19  -1
M  END
$$$$
[H]OC(=O)C([H])([H])n1c([H])c(C(=O)OC2([H])C([H])([H])C3([H])N(C([H])([H])[H])C([H])(C([H])([H])C3([H])[H])C2([H])[H])c2c([H])c([H])c([H])c([H])c21
     RDKit          3D

 47 50  0  0  0  0  0  0  0  0999 V2000
    5.8040    0.5159    0.3856 C   0  0  0  0  0  0  0  0  0  0  0  0
    4.3892    0.3629    0.3886 N   0  0  0  0  0  0  0  0  0  0  0  0
    3.8099    0.2670   -0.9373 C   0  0  0  0  0  0  0  0  0  0  0  0
    3.8401   -1.1779   -1.3247 C   0  0  0  0  0  0  0  0  0  0  0  0
    4.3700   -1.8812   -0.0727 C   0  0  0  0  0  0  0  0  0  0  0  0
    3.9795   -0.8789    0.9925 C   0  0  0  0  0  0  0  0  0  0  0  0
    2.4605   -0.9326    1.1197 C   0  0  0  0  0  0  0  0  0  0  0  0
    1.8152    0.2856    0.5664 C   0  0  0  0  0  0  0  0  0  0  0  0
    2.3727    0.6915   -0.7826 C   0  0  0  0  0  0  0  0  0  0  0  0
    0.4377    0.1015    0.3816 O   0  0  0  0  0  0  0  0  0  0  0  0
   -0.5289    0.8818    0.9791 C   0  0  0  0  0  0  0  0  0  0  0  0
   -0.1823    1.7927    1.7331 O   0  0  0  0  0  0  0  0  0  0  0  0
   -1.9415    0.6511    0.7295 C   0  0  0  0  0  0  0  0  0  0  0  0
   -2.9775    1.4451    1.1888 C   0  0  0  0  0  0  0  0  0  0  0  0
   -4.1390    0.9835    0.7617 N   0  0  0  0  0  0  0  0  0  0  0  0
   -5.4503    1.5428    1.0296 C   0  0  0  0  0  0  0  0  0  0  0  0
   -5.7841    2.5288   -0.0321 C   0  0  0  0  0  0  0  0  0  0  0  0
   -6.0183    2.1502   -1.3478 O   0  0  0  0  0  0  0  0  0  0  0  0
   -5.8520    3.7452    0.2812 O   0  0  0  0  0  0  0  0  0  0  0  0
   -3.8834   -0.1046    0.0273 C   0  0  0  0  0  0  0  0  0  0  0  0
   -4.7854   -0.9395   -0.6332 C   0  0  0  0  0  0  0  0  0  0  0  0
   -4.2972   -2.0101   -1.3309 C   0  0  0  0  0  0  0  0  0  0  0  0
   -2.9194   -2.2423   -1.3672 C   0  0  0  0  0  0  0  0  0  0  0  0
   -2.0304   -1.4036   -0.7051 C   0  0  0  0  0  0  0  0  0  0  0  0
   -2.5327   -0.3467   -0.0178 C   0  0  0  0  0  0  0  0  0  0  0  0
    6.2900    0.1272    1.3010 H   0  0  0  0  0  0  0  0  0  0  0  0
    6.0159    1.6320    0.3143 H   0  0  0  0  0  0  0  0  0  0  0  0
    6.2978    0.1195   -0.5498 H   0  0  0  0  0  0  0  0  0  0  0  0
    4.2993    0.9295   -1.6787 H   0  0  0  0  0  0  0  0  0  0  0  0
    2.8369   -1.6158   -1.5229 H   0  0  0  0  0  0  0  0  0  0  0  0
    4.4896   -1.3991   -2.1997 H   0  0  0  0  0  0  0  0  0  0  0  0
    5.4679   -1.8966   -0.1430 H   0  0  0  0  0  0  0  0  0  0  0  0
    3.9028   -2.8689    0.0643 H   0  0  0  0  0  0  0  0  0  0  0  0
    4.4736   -1.0658    1.9664 H   0  0  0  0  0  0  0  0  0  0  0  0
    2.0713   -1.8575    0.6451 H   0  0  0  0  0  0  0  0  0  0  0  0
    2.2445   -0.9946    2.2060 H   0  0  0  0  0  0  0  0  0  0  0  0
    2.0069    1.1521    1.2591 H   0  0  0  0  0  0  0  0  0  0  0  0
    2.3049    1.7798   -0.9590 H   0  0  0  0  0  0  0  0  0  0  0  0
    1.8122    0.1973   -1.6211 H   0  0  0  0  0  0  0  0  0  0  0  0
   -2.8553    2.3391    1.8205 H   0  0  0  0  0  0  0  0  0  0  0  0
   -6.2425    0.7915    1.0599 H   0  0  0  0  0  0  0  0  0  0  0  0
   -5.3744    2.0616    1.9958 H   0  0  0  0  0  0  0  0  0  0  0  0
   -5.6073    2.6091   -2.1595 H   0  0  0  0  0  0  0  0  0  0  0  0
   -5.8576   -0.7332   -0.5864 H   0  0  0  0  0  0  0  0  0  0  0  0
   -4.9857   -2.6666   -1.8477 H   0  0  0  0  0  0  0  0  0  0  0  0
   -2.5815   -3.0873   -1.9211 H   0  0  0  0  0  0  0  0  0  0  0  0
   -0.9659   -1.5818   -0.7310 H   0  0  0  0  0  0  0  0  0  0  0  0
  1  2  1  0
  2  3  1  0
  3  4  1  0
  4  5  1  0
  5  6  1  0
  6  7  1  0
  7  8  1  0
  8  9  1  0
  8 10  1  0
 10 11  1  0
 11 12  2  0
 11 13  1  0
 13 14  2  0
 14 15  1  0
 15 16  1  0
 16 17  1  0
 17 18  1  0
 17 19  2  0
 15 20  1  0
 20 21  2  0
 21 22  1  0
 22 23  2  0
 23 24  1  0
 24 25  2  0
  6  2  1  0
 25 13  1  0
  9  3  1  0
 25 20  1  0
  1 26  1  0
  1 27  1  0
  1 28  1  0
  3 29  1  0
  4 30  1  0
  4 31  1  0
  5 32  1  0
  5 33  1  0
  6 34  1  0
  7 35  1  0
  7 36  1  0
  8 37  1  0
  9 38  1  0
  9 39  1  0
 14 40  1  0
 16 41  1  0
 16 42  1  0
 18 43  1  0
 21 44  1  0
 22 45  1  0
 23 46  1  0
 24 47  1  0
M  END
$$$$
[H]c1c([H])c([H])c(C([H])([H])N2[C@@]3([H])C([H])([H])C([H])([H])[C@]2([H])C([H])([H])[C@@]([H])(N([H])C(=O)c2oc4c([H])c([N+](=O)[O-])c([H])c([H])c4c(=O)c2[H])C3([H])[H])c([H])c1[H]
     RDKit          3D

 55 59  0  0  0  0  0  0  0  0999 V2000
    7.9691   -3.8378    0.2318 O   0  0  0  0  0  0  0  0  0  0  0  0
    6.6855   -3.3575    0.2730 N   0  0  0  0  0  0  0  0  0  0  0  0
    5.7847   -4.1645    0.5881 O   0  0  0  0  0  0  0  0  0  0  0  0
    6.3880   -2.0045   -0.0279 C   0  0  0  0  0  0  0  0  0  0  0  0
    7.4183   -1.1543   -0.3700 C   0  0  0  0  0  0  0  0  0  0  0  0
    7.1406    0.1761   -0.6678 C   0  0  0  0  0  0  0  0  0  0  0  0
    5.8587    0.6430   -0.6234 C   0  0  0  0  0  0  0  0  0  0  0  0
    4.8372   -0.2169   -0.2799 C   0  0  0  0  0  0  0  0  0  0  0  0
    5.0900   -1.5613    0.0245 C   0  0  0  0  0  0  0  0  0  0  0  0
    3.6169    0.2583   -0.2453 O   0  0  0  0  0  0  0  0  0  0  0  0
    3.3335    1.5262   -0.5268 C   0  0  0  0  0  0  0  0  0  0  0  0
    4.3291    2.4153   -0.8743 C   0  0  0  0  0  0  0  0  0  0  0  0
    5.6368    1.9838   -0.9308 C   0  0  0  0  0  0  0  0  0  0  0  0
    6.5697    2.7574   -1.2415 O   0  0  0  0  0  0  0  0  0  0  0  0
    1.9578    2.0100   -0.4747 C   0  0  0  0  0  0  0  0  0  0  0  0
    1.7158    3.2110   -0.7444 O   0  0  0  0  0  0  0  0  0  0  0  0
    0.8725    1.1386   -0.1205 N   0  0  0  0  0  0  0  0  0  0  0  0
   -0.4942    1.6223   -0.0694 C   0  0  1  0  0  0  0  0  0  0  0  0
   -1.3064    0.8122   -1.0184 C   0  0  0  0  0  0  0  0  0  0  0  0
   -2.7404    0.6008   -0.6034 C   0  0  2  0  0  0  0  0  0  0  0  0
   -3.4909    1.9122   -0.6183 C   0  0  0  0  0  0  0  0  0  0  0  0
   -3.1387    2.5003    0.7504 C   0  0  0  0  0  0  0  0  0  0  0  0
   -2.4471    1.3766    1.4825 C   0  0  2  0  0  0  0  0  0  0  0  0
   -0.9608    1.5387    1.3589 C   0  0  0  0  0  0  0  0  0  0  0  0
   -2.8011    0.1486    0.7522 N   0  0  0  0  0  0  0  0  0  0  0  0
   -4.0841   -0.2872    1.1960 C   0  0  0  0  0  0  0  0  0  0  0  0
   -4.5968   -1.4249    0.3987 C   0  0  0  0  0  0  0  0  0  0  0  0
   -5.5199   -1.2214   -0.6039 C   0  0  0  0  0  0  0  0  0  0  0  0
   -6.0102   -2.2667   -1.3583 C   0  0  0  0  0  0  0  0  0  0  0  0
   -5.5689   -3.5637   -1.1097 C   0  0  0  0  0  0  0  0  0  0  0  0
   -4.6452   -3.7901   -0.1110 C   0  0  0  0  0  0  0  0  0  0  0  0
   -4.1792   -2.7271    0.6194 C   0  0  0  0  0  0  0  0  0  0  0  0
    8.4393   -1.4732   -0.4186 H   0  0  0  0  0  0  0  0  0  0  0  0
    7.9308    0.8712   -0.9410 H   0  0  0  0  0  0  0  0  0  0  0  0
    4.2517   -2.1952    0.2884 H   0  0  0  0  0  0  0  0  0  0  0  0
    4.0630    3.4524   -1.1002 H   0  0  0  0  0  0  0  0  0  0  0  0
    1.1312    0.1512    0.0936 H   0  0  0  0  0  0  0  0  0  0  0  0
   -0.4701    2.6977   -0.3398 H   0  0  0  0  0  0  0  0  0  0  0  0
   -0.8725   -0.2152   -1.1942 H   0  0  0  0  0  0  0  0  0  0  0  0
   -1.3147    1.3283   -2.0010 H   0  0  0  0  0  0  0  0  0  0  0  0
   -3.1772   -0.1584   -1.2570 H   0  0  0  0  0  0  0  0  0  0  0  0
   -3.1419    2.5665   -1.4420 H   0  0  0  0  0  0  0  0  0  0  0  0
   -4.5691    1.7778   -0.7480 H   0  0  0  0  0  0  0  0  0  0  0  0
   -4.0727    2.8262    1.2085 H   0  0  0  0  0  0  0  0  0  0  0  0
   -2.4288    3.3349    0.5540 H   0  0  0  0  0  0  0  0  0  0  0  0
   -2.7105    1.3082    2.5394 H   0  0  0  0  0  0  0  0  0  0  0  0
   -0.4877    0.6793    1.9044 H   0  0  0  0  0  0  0  0  0  0  0  0
   -0.6700    2.4526    1.9189 H   0  0  0  0  0  0  0  0  0  0  0  0
   -4.8056    0.5545    1.2186 H   0  0  0  0  0  0  0  0  0  0  0  0
   -3.9713   -0.6077    2.2619 H   0  0  0  0  0  0  0  0  0  0  0  0
   -5.8833   -0.2274   -0.8225 H   0  0  0  0  0  0  0  0  0  0  0  0
   -6.7348   -2.0518   -2.1345 H   0  0  0  0  0  0  0  0  0  0  0  0
   -5.9452   -4.3863   -1.6926 H   0  0  0  0  0  0  0  0  0  0  0  0
   -4.3229   -4.8025    0.0581 H   0  0  0  0  0  0  0  0  0  0  0  0
   -3.4580   -2.9368    1.3929 H   0  0  0  0  0  0  0  0  0  0  0  0
  1  2  1  0
  2  3  2  0
  2  4  1  0
  4  5  2  0
  5  6  1  0
  6  7  2  0
  7  8  1  0
  8  9  2  0
  8 10  1  0
 10 11  1  0
 11 12  2  0
 12 13  1  0
 13 14  2  0
 11 15  1  0
 15 16  2  0
 15 17  1  0
 17 18  1  0
 18 19  1  0
 19 20  1  0
 20 21  1  0
 21 22  1  0
 22 23  1  0
 23 24  1  0
 23 25  1  0
 25 26  1  0
 26 27  1  0
 27 28  2  0
 28 29  1  0
 29 30  2  0
 30 31  1  0
 31 32  2  0
  9  4  1  0
 24 18  1  0
 32 27  1  0
 13  7  1  0
 25 20  1  0
  5 33  1  0
  6 34  1  0
  9 35  1  0
 12 36  1  0
 17 37  1  0
 18 38  1  6
 19 39  1  0
 19 40  1  0
 20 41  1  6
 21 42  1  0
 21 43  1  0
 22 44  1  0
 22 45  1  0
 23 46  1  1
 24 47  1  0
 24 48  1  0
 26 49  1  0
 26 50  1  0
 28 51  1  0
 29 52  1  0
 30 53  1  0
 31 54  1  0
 32 55  1  0
M  CHG  2   1  -1   2   1
M  END
$$$$
[H]OC(=O)[C@@]([H])(N([H])C(=O)[C@@]([H])(N([H])C(=O)[C@@]([H])(N([H])C(=O)[C@@]([H])(N([H])C(=O)[C@@]1([H])N(C(=O)[C@@]([H])(N([H])C(=O)OC([H])([H])c2c([H])c([H])c([H])c([H])c2[H])[C@@]([H])(C([H])([H])[H])C([H])([H])C([H])([H])[H])C([H])([H])C([H])([H])C1([H])[H])C([H])([H])C([H])(C([H])([H])[H])C([H])([H])[H])C([H])([H])C([H])(C([H])([H])[H])C([H])([H])[H])C([H])([H])O[H])C([H])([H])O[H]
     RDKit          3D

112113  0  0  0  0  0  0  0  0999 V2000
   -7.5221   -2.9906   -0.2777 C   0  0  0  0  0  0  0  0  0  0  0  0
   -6.7100   -1.7599   -0.6644 C   0  0  0  0  0  0  0  0  0  0  0  0
   -5.5042   -1.6201    0.2582 C   0  0  2  0  0  0  0  0  0  0  0  0
   -5.9114   -1.4745    1.6996 C   0  0  0  0  0  0  0  0  0  0  0  0
   -4.6087   -0.4821   -0.2050 C   0  0  2  0  0  0  0  0  0  0  0  0
   -5.3735    0.7530   -0.1902 N   0  0  0  0  0  0  0  0  0  0  0  0
   -5.3004    1.8373    0.6420 C   0  0  0  0  0  0  0  0  0  0  0  0
   -4.4787    1.9026    1.5826 O   0  0  0  0  0  0  0  0  0  0  0  0
   -6.1502    2.9101    0.4653 O   0  0  0  0  0  0  0  0  0  0  0  0
   -6.0682    4.0129    1.3416 C   0  0  0  0  0  0  0  0  0  0  0  0
   -7.0913    4.9829    0.8978 C   0  0  0  0  0  0  0  0  0  0  0  0
   -7.6870    5.8047    1.8102 C   0  0  0  0  0  0  0  0  0  0  0  0
   -8.6411    6.7258    1.4192 C   0  0  0  0  0  0  0  0  0  0  0  0
   -8.9611    6.7790    0.0866 C   0  0  0  0  0  0  0  0  0  0  0  0
   -8.3745    5.9622   -0.8452 C   0  0  0  0  0  0  0  0  0  0  0  0
   -7.4249    5.0521   -0.4240 C   0  0  0  0  0  0  0  0  0  0  0  0
   -4.1352   -0.8184   -1.5534 C   0  0  0  0  0  0  0  0  0  0  0  0
   -4.6018   -0.0520   -2.5005 O   0  0  0  0  0  0  0  0  0  0  0  0
   -3.2771   -1.8185   -1.9741 N   0  0  0  0  0  0  0  0  0  0  0  0
   -2.9556   -2.1077   -3.3781 C   0  0  0  0  0  0  0  0  0  0  0  0
   -3.2020   -3.6274   -3.3574 C   0  0  0  0  0  0  0  0  0  0  0  0
   -2.9129   -4.0598   -1.9240 C   0  0  0  0  0  0  0  0  0  0  0  0
   -2.5055   -2.7661   -1.2412 C   0  0  1  0  0  0  0  0  0  0  0  0
   -1.0535   -2.5109   -1.2660 C   0  0  0  0  0  0  0  0  0  0  0  0
   -0.6280   -1.4297   -1.7212 O   0  0  0  0  0  0  0  0  0  0  0  0
   -0.1422   -3.4704   -0.7794 N   0  0  0  0  0  0  0  0  0  0  0  0
    1.2795   -3.3573   -0.7157 C   0  0  1  0  0  0  0  0  0  0  0  0
    2.0103   -3.1811   -1.9857 C   0  0  0  0  0  0  0  0  0  0  0  0
    1.9078   -4.2506   -3.0095 C   0  0  0  0  0  0  0  0  0  0  0  0
    2.7573   -3.8553   -4.2407 C   0  0  0  0  0  0  0  0  0  0  0  0
    0.5501   -4.5390   -3.5430 C   0  0  0  0  0  0  0  0  0  0  0  0
    1.6570   -2.2109    0.1882 C   0  0  0  0  0  0  0  0  0  0  0  0
    0.7988   -1.4890    0.7313 O   0  0  0  0  0  0  0  0  0  0  0  0
    3.0304   -1.9083    0.4609 N   0  0  0  0  0  0  0  0  0  0  0  0
    3.4641   -0.8305    1.3140 C   0  0  1  0  0  0  0  0  0  0  0  0
    4.3805   -1.2156    2.4210 C   0  0  0  0  0  0  0  0  0  0  0  0
    3.8940   -2.1919    3.4207 C   0  0  0  0  0  0  0  0  0  0  0  0
    3.5168   -3.5437    2.9446 C   0  0  0  0  0  0  0  0  0  0  0  0
    2.7894   -1.5251    4.2283 C   0  0  0  0  0  0  0  0  0  0  0  0
    4.2013    0.1511    0.4530 C   0  0  0  0  0  0  0  0  0  0  0  0
    4.3235   -0.1039   -0.7618 O   0  0  0  0  0  0  0  0  0  0  0  0
    4.7459    1.3267    0.9806 N   0  0  0  0  0  0  0  0  0  0  0  0
    5.4712    2.3180    0.2465 C   0  0  1  0  0  0  0  0  0  0  0  0
    4.6406    3.5709    0.0156 C   0  0  0  0  0  0  0  0  0  0  0  0
    4.2199    4.1883    1.1640 O   0  0  0  0  0  0  0  0  0  0  0  0
    6.7456    2.6267    0.9232 C   0  0  0  0  0  0  0  0  0  0  0  0
    7.0503    2.0633    2.0075 O   0  0  0  0  0  0  0  0  0  0  0  0
    7.6343    3.5530    0.3667 N   0  0  0  0  0  0  0  0  0  0  0  0
    8.9012    3.9382    0.9389 C   0  0  1  0  0  0  0  0  0  0  0  0
   10.0949    3.4942    0.1199 C   0  0  0  0  0  0  0  0  0  0  0  0
   10.1084    4.0039   -1.1535 O   0  0  0  0  0  0  0  0  0  0  0  0
    8.9506    5.3852    1.2419 C   0  0  0  0  0  0  0  0  0  0  0  0
   10.0716    5.9415    1.7940 O   0  0  0  0  0  0  0  0  0  0  0  0
    7.9557    6.1060    0.9902 O   0  0  0  0  0  0  0  0  0  0  0  0
   -8.2971   -3.1444   -1.0584 H   0  0  0  0  0  0  0  0  0  0  0  0
   -8.0410   -2.8589    0.6843 H   0  0  0  0  0  0  0  0  0  0  0  0
   -6.8717   -3.8760   -0.2288 H   0  0  0  0  0  0  0  0  0  0  0  0
   -6.3911   -1.9251   -1.7132 H   0  0  0  0  0  0  0  0  0  0  0  0
   -7.3557   -0.8665   -0.6594 H   0  0  0  0  0  0  0  0  0  0  0  0
   -4.9491   -2.5496    0.1534 H   0  0  0  0  0  0  0  0  0  0  0  0
   -4.9804   -1.2825    2.2823 H   0  0  0  0  0  0  0  0  0  0  0  0
   -6.3296   -2.4224    2.1114 H   0  0  0  0  0  0  0  0  0  0  0  0
   -6.6806   -0.6967    1.8739 H   0  0  0  0  0  0  0  0  0  0  0  0
   -3.7876   -0.4003    0.4916 H   0  0  0  0  0  0  0  0  0  0  0  0
   -6.0982    0.7668   -0.9854 H   0  0  0  0  0  0  0  0  0  0  0  0
   -5.0912    4.5456    1.2909 H   0  0  0  0  0  0  0  0  0  0  0  0
   -6.1950    3.7393    2.4185 H   0  0  0  0  0  0  0  0  0  0  0  0
   -7.4298    5.7594    2.8789 H   0  0  0  0  0  0  0  0  0  0  0  0
   -9.0860    7.3527    2.1687 H   0  0  0  0  0  0  0  0  0  0  0  0
   -9.7105    7.5044   -0.2149 H   0  0  0  0  0  0  0  0  0  0  0  0
   -8.6743    6.0573   -1.8695 H   0  0  0  0  0  0  0  0  0  0  0  0
   -6.9640    4.4049   -1.1778 H   0  0  0  0  0  0  0  0  0  0  0  0
   -1.9504   -1.8601   -3.6754 H   0  0  0  0  0  0  0  0  0  0  0  0
   -3.6488   -1.5956   -4.0705 H   0  0  0  0  0  0  0  0  0  0  0  0
   -4.2777   -3.8194   -3.5675 H   0  0  0  0  0  0  0  0  0  0  0  0
   -2.5255   -4.0672   -4.0895 H   0  0  0  0  0  0  0  0  0  0  0  0
   -3.8631   -4.3941   -1.4298 H   0  0  0  0  0  0  0  0  0  0  0  0
   -2.1992   -4.8690   -1.8405 H   0  0  0  0  0  0  0  0  0  0  0  0
   -2.7578   -2.8252   -0.1410 H   0  0  0  0  0  0  0  0  0  0  0  0
   -0.5873   -4.3795   -0.4227 H   0  0  0  0  0  0  0  0  0  0  0  0
    1.6426   -4.2530   -0.1255 H   0  0  0  0  0  0  0  0  0  0  0  0
    1.6127   -2.2372   -2.4696 H   0  0  0  0  0  0  0  0  0  0  0  0
    3.1043   -3.0074   -1.7772 H   0  0  0  0  0  0  0  0  0  0  0  0
    2.3610   -5.2113   -2.6732 H   0  0  0  0  0  0  0  0  0  0  0  0
    3.1296   -4.7685   -4.7473 H   0  0  0  0  0  0  0  0  0  0  0  0
    2.1432   -3.3201   -4.9836 H   0  0  0  0  0  0  0  0  0  0  0  0
    3.6623   -3.2877   -3.9337 H   0  0  0  0  0  0  0  0  0  0  0  0
    0.0578   -3.6278   -3.9729 H   0  0  0  0  0  0  0  0  0  0  0  0
   -0.0879   -5.1252   -2.8818 H   0  0  0  0  0  0  0  0  0  0  0  0
    0.7025   -5.1954   -4.4534 H   0  0  0  0  0  0  0  0  0  0  0  0
    3.7869   -2.4836    0.0287 H   0  0  0  0  0  0  0  0  0  0  0  0
    2.5317   -0.3343    1.6720 H   0  0  0  0  0  0  0  0  0  0  0  0
    4.5892   -0.2586    2.9953 H   0  0  0  0  0  0  0  0  0  0  0  0
    5.3542   -1.5162    1.9537 H   0  0  0  0  0  0  0  0  0  0  0  0
    4.7493   -2.3354    4.1584 H   0  0  0  0  0  0  0  0  0  0  0  0
    3.8617   -4.2995    3.7112 H   0  0  0  0  0  0  0  0  0  0  0  0
    4.0341   -3.7795    1.9977 H   0  0  0  0  0  0  0  0  0  0  0  0
    2.4149   -3.6946    2.7859 H   0  0  0  0  0  0  0  0  0  0  0  0
    3.1972   -0.7179    4.8687 H   0  0  0  0  0  0  0  0  0  0  0  0
    2.0056   -1.1850    3.5477 H   0  0  0  0  0  0  0  0  0  0  0  0
    2.3551   -2.2885    4.9314 H   0  0  0  0  0  0  0  0  0  0  0  0
    4.6160    1.5127    2.0198 H   0  0  0  0  0  0  0  0  0  0  0  0
    5.6346    1.9050   -0.7914 H   0  0  0  0  0  0  0  0  0  0  0  0
    5.3421    4.2902   -0.4983 H   0  0  0  0  0  0  0  0  0  0  0  0
    3.8401    3.3450   -0.7192 H   0  0  0  0  0  0  0  0  0  0  0  0
    3.5637    4.8732    0.9303 H   0  0  0  0  0  0  0  0  0  0  0  0
    7.3840    4.0244   -0.5439 H   0  0  0  0  0  0  0  0  0  0  0  0
    8.9984    3.3935    1.9156 H   0  0  0  0  0  0  0  0  0  0  0  0
   10.1667    2.3806    0.1472 H   0  0  0  0  0  0  0  0  0  0  0  0
   10.9950    3.8607    0.6551 H   0  0  0  0  0  0  0  0  0  0  0  0
   10.9930    4.2480   -1.5069 H   0  0  0  0  0  0  0  0  0  0  0  0
   10.0713    6.5968    2.5516 H   0  0  0  0  0  0  0  0  0  0  0  0
  1  2  1  0
  2  3  1  0
  3  4  1  0
  3  5  1  0
  5  6  1  0
  6  7  1  0
  7  8  2  0
  7  9  1  0
  9 10  1  0
 10 11  1  0
 11 12  2  0
 12 13  1  0
 13 14  2  0
 14 15  1  0
 15 16  2  0
  5 17  1  0
 17 18  2  0
 17 19  1  0
 19 20  1  0
 20 21  1  0
 21 22  1  0
 22 23  1  0
 23 24  1  0
 24 25  2  0
 24 26  1  0
 26 27  1  0
 27 28  1  0
 28 29  1  0
 29 30  1  0
 29 31  1  0
 27 32  1  0
 32 33  2  0
 32 34  1  0
 34 35  1  0
 35 36  1  0
 36 37  1  0
 37 38  1  0
 37 39  1  0
 35 40  1  0
 40 41  2  0
 40 42  1  0
 42 43  1  0
 43 44  1  0
 44 45  1  0
 43 46  1  0
 46 47  2  0
 46 48  1  0
 48 49  1  0
 49 50  1  0
 50 51  1  0
 49 52  1  0
 52 53  1  0
 52 54  2  0
 16 11  1  0
 23 19  1  0
  1 55  1  0
  1 56  1  0
  1 57  1  0
  2 58  1  0
  2 59  1  0
  3 60  1  1
  4 61  1  0
  4 62  1  0
  4 63  1  0
  5 64  1  1
  6 65  1  0
 10 66  1  0
 10 67  1  0
 12 68  1  0
 13 69  1  0
 14 70  1  0
 15 71  1  0
 16 72  1  0
 20 73  1  0
 20 74  1  0
 21 75  1  0
 21 76  1  0
 22 77  1  0
 22 78  1  0
 23 79  1  1
 26 80  1  0
 27 81  1  1
 28 82  1  0
 28 83  1  0
 29 84  1  0
 30 85  1  0
 30 86  1  0
 30 87  1  0
 31 88  1  0
 31 89  1  0
 31 90  1  0
 34 91  1  0
 35 92  1  1
 36 93  1  0
 36 94  1  0
 37 95  1  0
 38 96  1  0
 38 97  1  0
 38 98  1  0
 39 99  1  0
 39100  1  0
 39101  1  0
 42102  1  0
 43103  1  6
 44104  1  0
 44105  1  0
 45106  1  0
 48107  1  0
 49108  1  1
 50109  1  0
 50110  1  0
 51111  1  0
 53112  1  0
M  END
$$$$
[H]c1c([H])c(Cl)c([H])c(N([H])C(=O)N([H])c2c([H])c([H])c(-c3c([H])c([H])c([H])c4c3c(N([H])[H])nn4[H])c([H])c2[H])c1[H]
     RDKit          3D

 43 46  0  0  0  0  0  0  0  0999 V2000
   -3.2726    2.7134   -0.3940 N   0  0  0  0  0  0  0  0  0  0  0  0
   -4.4583    1.9783   -0.6165 C   0  0  0  0  0  0  0  0  0  0  0  0
   -5.6538    2.4897   -0.9962 N   0  0  0  0  0  0  0  0  0  0  0  0
   -6.5430    1.5247   -1.1335 N   0  0  0  0  0  0  0  0  0  0  0  0
   -5.9674    0.3388   -0.8494 C   0  0  0  0  0  0  0  0  0  0  0  0
   -6.4930   -0.9291   -0.8697 C   0  0  0  0  0  0  0  0  0  0  0  0
   -5.6682   -1.9804   -0.5464 C   0  0  0  0  0  0  0  0  0  0  0  0
   -4.3608   -1.7347   -0.2164 C   0  0  0  0  0  0  0  0  0  0  0  0
   -3.8110   -0.4384   -0.1913 C   0  0  0  0  0  0  0  0  0  0  0  0
   -2.4291   -0.2524    0.2148 C   0  0  0  0  0  0  0  0  0  0  0  0
   -2.0060    0.4586    1.3129 C   0  0  0  0  0  0  0  0  0  0  0  0
   -0.6710    0.5906    1.6145 C   0  0  0  0  0  0  0  0  0  0  0  0
    0.3242    0.0129    0.8269 C   0  0  0  0  0  0  0  0  0  0  0  0
    1.6734    0.1694    1.1952 N   0  0  0  0  0  0  0  0  0  0  0  0
    2.8026   -0.1393    0.4126 C   0  0  0  0  0  0  0  0  0  0  0  0
    2.7480   -0.6023   -0.7477 O   0  0  0  0  0  0  0  0  0  0  0  0
    4.0885    0.0801    0.9526 N   0  0  0  0  0  0  0  0  0  0  0  0
    5.2995   -0.1724    0.2768 C   0  0  0  0  0  0  0  0  0  0  0  0
    6.4517   -0.4635    1.0414 C   0  0  0  0  0  0  0  0  0  0  0  0
    7.6726   -0.6938    0.4774 C   0  0  0  0  0  0  0  0  0  0  0  0
    7.7994   -0.6431   -0.8929 C   0  0  0  0  0  0  0  0  0  0  0  0
    6.7303   -0.3676   -1.6883 C   0  0  0  0  0  0  0  0  0  0  0  0
    6.8384   -0.2916   -3.4323 Cl  0  0  0  0  0  0  0  0  0  0  0  0
    5.4990   -0.1376   -1.0720 C   0  0  0  0  0  0  0  0  0  0  0  0
   -0.0953   -0.6893   -0.2563 C   0  0  0  0  0  0  0  0  0  0  0  0
   -1.4495   -0.8288   -0.5711 C   0  0  0  0  0  0  0  0  0  0  0  0
   -4.6451    0.6073   -0.5183 C   0  0  0  0  0  0  0  0  0  0  0  0
   -2.4052    2.6351   -0.9605 H   0  0  0  0  0  0  0  0  0  0  0  0
   -3.2644    3.3884    0.4003 H   0  0  0  0  0  0  0  0  0  0  0  0
   -7.5583    1.6336   -1.4209 H   0  0  0  0  0  0  0  0  0  0  0  0
   -7.5416   -1.1143   -1.1348 H   0  0  0  0  0  0  0  0  0  0  0  0
   -6.0764   -2.9770   -0.5618 H   0  0  0  0  0  0  0  0  0  0  0  0
   -3.7218   -2.5551    0.0346 H   0  0  0  0  0  0  0  0  0  0  0  0
   -2.7564    0.9252    1.9683 H   0  0  0  0  0  0  0  0  0  0  0  0
   -0.3230    1.1517    2.4804 H   0  0  0  0  0  0  0  0  0  0  0  0
    1.8949    0.5619    2.1739 H   0  0  0  0  0  0  0  0  0  0  0  0
    4.1967    0.4697    1.9482 H   0  0  0  0  0  0  0  0  0  0  0  0
    6.3202   -0.4970    2.1240 H   0  0  0  0  0  0  0  0  0  0  0  0
    8.5409   -0.9165    1.1128 H   0  0  0  0  0  0  0  0  0  0  0  0
    8.7549   -0.8213   -1.3759 H   0  0  0  0  0  0  0  0  0  0  0  0
    4.6546    0.1036   -1.7160 H   0  0  0  0  0  0  0  0  0  0  0  0
    0.5721   -1.1849   -0.9286 H   0  0  0  0  0  0  0  0  0  0  0  0
   -1.6907   -1.4028   -1.4493 H   0  0  0  0  0  0  0  0  0  0  0  0
  1  2  1  0
  2  3  2  0
  3  4  1  0
  4  5  1  0
  5  6  2  0
  6  7  1  0
  7  8  2  0
  8  9  1  0
  9 10  1  0
 10 11  2  0
 11 12  1  0
 12 13  2  0
 13 14  1  0
 14 15  1  0
 15 16  2  0
 15 17  1  0
 17 18  1  0
 18 19  2  0
 19 20  1  0
 20 21  2  0
 21 22  1  0
 22 23  1  0
 22 24  2  0
 13 25  1  0
 25 26  2  0
  9 27  2  0
 27  2  1  0
 27  5  1  0
 26 10  1  0
 24 18  1  0
  1 28  1  0
  1 29  1  0
  4 30  1  0
  6 31  1  0
  7 32  1  0
  8 33  1  0
 11 34  1  0
 12 35  1  0
 14 36  1  0
 17 37  1  0
 19 38  1  0
 20 39  1  0
 21 40  1  0
 24 41  1  0
 25 42  1  0
 26 43  1  0
M  END
$$$$
[H]c1c([H])c(C([H])([H])N([H])C(=O)c2nc(-c3c([H])c([H])c(OC([H])([H])[H])c4nc(C(F)(F)F)c([H])c([H])c34)oc2C([H])([H])N([H])[H])c([H])c([H])c1F
     RDKit          3D

 52 55  0  0  0  0  0  0  0  0999 V2000
   -7.0309   -2.1214   -1.9490 C   0  0  0  0  0  0  0  0  0  0  0  0
   -5.8834   -1.6684   -1.6638 O   0  0  0  0  0  0  0  0  0  0  0  0
   -4.6618   -1.3037   -1.4857 C   0  0  0  0  0  0  0  0  0  0  0  0
   -3.6037   -1.8034   -2.2061 C   0  0  0  0  0  0  0  0  0  0  0  0
   -2.3149   -1.3810   -1.9683 C   0  0  0  0  0  0  0  0  0  0  0  0
   -2.0520   -0.4447   -1.0015 C   0  0  0  0  0  0  0  0  0  0  0  0
   -0.7098    0.0047   -0.6741 C   0  0  0  0  0  0  0  0  0  0  0  0
    0.2835    0.5170   -1.3827 N   0  0  0  0  0  0  0  0  0  0  0  0
    1.3342    0.7791   -0.6337 C   0  0  0  0  0  0  0  0  0  0  0  0
    2.7129    1.2322   -0.9006 C   0  0  0  0  0  0  0  0  0  0  0  0
    3.1554    2.1990   -0.2394 O   0  0  0  0  0  0  0  0  0  0  0  0
    3.5147    0.5905   -1.8565 N   0  0  0  0  0  0  0  0  0  0  0  0
    4.8817    0.8339   -2.2338 C   0  0  0  0  0  0  0  0  0  0  0  0
    5.7253    0.3016   -1.1108 C   0  0  0  0  0  0  0  0  0  0  0  0
    5.1000   -0.3537   -0.0430 C   0  0  0  0  0  0  0  0  0  0  0  0
    5.8428   -0.8060    1.0218 C   0  0  0  0  0  0  0  0  0  0  0  0
    7.1771   -0.6608    1.1076 C   0  0  0  0  0  0  0  0  0  0  0  0
    7.9024   -1.0872    2.1937 F   0  0  0  0  0  0  0  0  0  0  0  0
    7.8368   -0.0195    0.0538 C   0  0  0  0  0  0  0  0  0  0  0  0
    7.0548    0.4400   -1.0215 C   0  0  0  0  0  0  0  0  0  0  0  0
    0.9748    0.3983    0.6689 C   0  0  0  0  0  0  0  0  0  0  0  0
    1.7079    0.4304    1.9404 C   0  0  0  0  0  0  0  0  0  0  0  0
    0.8769   -0.2053    3.0283 N   0  0  0  0  0  0  0  0  0  0  0  0
   -0.2398   -0.0453    0.5619 O   0  0  0  0  0  0  0  0  0  0  0  0
   -3.1261    0.0641   -0.2759 C   0  0  0  0  0  0  0  0  0  0  0  0
   -2.8759    1.0561    0.6746 C   0  0  0  0  0  0  0  0  0  0  0  0
   -3.9719    1.5918    1.3828 C   0  0  0  0  0  0  0  0  0  0  0  0
   -5.2119    1.1306    1.1151 C   0  0  0  0  0  0  0  0  0  0  0  0
   -5.4640    0.1824    0.1993 N   0  0  0  0  0  0  0  0  0  0  0  0
   -4.4289   -0.3203   -0.4708 C   0  0  0  0  0  0  0  0  0  0  0  0
   -6.3641    1.7065    1.8985 C   0  0  0  0  0  0  0  0  0  0  0  0
   -5.9590    2.5212    2.9087 F   0  0  0  0  0  0  0  0  0  0  0  0
   -7.0789    0.6476    2.4355 F   0  0  0  0  0  0  0  0  0  0  0  0
   -7.1707    2.4280    1.0576 F   0  0  0  0  0  0  0  0  0  0  0  0
   -7.2342   -2.2450   -3.0609 H   0  0  0  0  0  0  0  0  0  0  0  0
   -7.9516   -1.5378   -1.5715 H   0  0  0  0  0  0  0  0  0  0  0  0
   -7.1832   -3.1762   -1.5361 H   0  0  0  0  0  0  0  0  0  0  0  0
   -3.7956   -2.5625   -2.9827 H   0  0  0  0  0  0  0  0  0  0  0  0
   -1.4549   -1.7631   -2.5240 H   0  0  0  0  0  0  0  0  0  0  0  0
    3.0603   -0.2188   -2.4070 H   0  0  0  0  0  0  0  0  0  0  0  0
    5.1439    0.1770   -3.1252 H   0  0  0  0  0  0  0  0  0  0  0  0
    5.0800    1.8881   -2.4489 H   0  0  0  0  0  0  0  0  0  0  0  0
    4.0428   -0.5718   -0.0088 H   0  0  0  0  0  0  0  0  0  0  0  0
    5.3117   -1.3064    1.8447 H   0  0  0  0  0  0  0  0  0  0  0  0
    8.8781    0.0952    0.0941 H   0  0  0  0  0  0  0  0  0  0  0  0
    7.6167    0.9191   -1.8243 H   0  0  0  0  0  0  0  0  0  0  0  0
    1.9661    1.4253    2.3350 H   0  0  0  0  0  0  0  0  0  0  0  0
    2.6747   -0.1531    1.8858 H   0  0  0  0  0  0  0  0  0  0  0  0
    0.0902   -0.6493    2.4895 H   0  0  0  0  0  0  0  0  0  0  0  0
    1.4682   -0.9418    3.4840 H   0  0  0  0  0  0  0  0  0  0  0  0
   -1.9084    1.4308    0.8401 H   0  0  0  0  0  0  0  0  0  0  0  0
   -3.7389    2.3560    2.0896 H   0  0  0  0  0  0  0  0  0  0  0  0
  1  2  1  0
  2  3  1  0
  3  4  2  0
  4  5  1  0
  5  6  2  0
  6  7  1  0
  7  8  2  0
  8  9  1  0
  9 10  1  0
 10 11  2  0
 10 12  1  0
 12 13  1  0
 13 14  1  0
 14 15  2  0
 15 16  1  0
 16 17  2  0
 17 18  1  0
 17 19  1  0
 19 20  2  0
  9 21  2  0
 21 22  1  0
 22 23  1  0
 21 24  1  0
  6 25  1  0
 25 26  2  0
 26 27  1  0
 27 28  2  0
 28 29  1  0
 29 30  2  0
 28 31  1  0
 31 32  1  0
 31 33  1  0
 31 34  1  0
 30  3  1  0
 24  7  1  0
 30 25  1  0
 20 14  1  0
  1 35  1  0
  1 36  1  0
  1 37  1  0
  4 38  1  0
  5 39  1  0
 12 40  1  0
 13 41  1  0
 13 42  1  0
 15 43  1  0
 16 44  1  0
 19 45  1  0
 20 46  1  0
 22 47  1  0
 22 48  1  0
 23 49  1  0
 23 50  1  0
 26 51  1  0
 27 52  1  0
M  END
$$$$
[H]N=C(N([H])[H])N([H])C([H])([H])C([H])([H])C([H])([H])[C@@]([H])(C(=O)c1nc([H])c([H])s1)N([H])C(=O)[C@@]1([H])N(C(=O)[C@@]([H])(N([H])C(=O)OC(C([H])([H])[H])(C([H])([H])[H])C([H])([H])[H])C([H])([H])C([H])([H])C(=O)O[H])C([H])([H])C([H])([H])C1([H])[H]
     RDKit          3D

 76 77  0  0  0  0  0  0  0  0999 V2000
   -8.6875    1.0193    0.7760 C   0  0  0  0  0  0  0  0  0  0  0  0
   -7.1866    1.1835    0.8684 C   0  0  0  0  0  0  0  0  0  0  0  0
   -6.8338    1.2948    2.3285 C   0  0  0  0  0  0  0  0  0  0  0  0
   -6.8132    2.4046    0.0668 C   0  0  0  0  0  0  0  0  0  0  0  0
   -6.5943    0.0546    0.2589 O   0  0  0  0  0  0  0  0  0  0  0  0
   -5.2115   -0.1076    0.1874 C   0  0  0  0  0  0  0  0  0  0  0  0
   -4.5361    0.8093    0.6974 O   0  0  0  0  0  0  0  0  0  0  0  0
   -4.7132   -1.2642   -0.4377 N   0  0  0  0  0  0  0  0  0  0  0  0
   -3.2774   -1.5900   -0.5703 C   0  0  1  0  0  0  0  0  0  0  0  0
   -2.7150   -1.1718   -1.8460 C   0  0  0  0  0  0  0  0  0  0  0  0
   -3.3992   -1.8024   -3.0589 C   0  0  0  0  0  0  0  0  0  0  0  0
   -3.3265   -3.2530   -3.1115 C   0  0  0  0  0  0  0  0  0  0  0  0
   -2.4551   -3.9519   -3.9675 O   0  0  0  0  0  0  0  0  0  0  0  0
   -4.0470   -3.9722   -2.3881 O   0  0  0  0  0  0  0  0  0  0  0  0
   -2.6479   -1.0854    0.6384 C   0  0  0  0  0  0  0  0  0  0  0  0
   -3.3006   -1.3543    1.7580 O   0  0  0  0  0  0  0  0  0  0  0  0
   -1.4784   -0.3620    0.8501 N   0  0  0  0  0  0  0  0  0  0  0  0
   -1.0268    0.0476    2.2436 C   0  0  0  0  0  0  0  0  0  0  0  0
   -0.5877    1.4697    2.0492 C   0  0  0  0  0  0  0  0  0  0  0  0
   -0.3827    1.6529    0.5729 C   0  0  0  0  0  0  0  0  0  0  0  0
   -0.4300    0.2061    0.0579 C   0  0  1  0  0  0  0  0  0  0  0  0
    0.8706   -0.4956    0.3028 C   0  0  0  0  0  0  0  0  0  0  0  0
    0.8227   -1.6406    0.8099 O   0  0  0  0  0  0  0  0  0  0  0  0
    2.0408    0.1713   -0.0443 N   0  0  0  0  0  0  0  0  0  0  0  0
    3.3831   -0.5590    0.2271 C   0  0  1  0  0  0  0  0  0  0  0  0
    3.9402   -0.8608   -1.0449 C   0  0  0  0  0  0  0  0  0  0  0  0
    5.1167   -1.6233   -1.3658 C   0  0  0  0  0  0  0  0  0  0  0  0
    6.4974   -1.2537   -1.0754 C   0  0  0  0  0  0  0  0  0  0  0  0
    6.9054   -0.0273   -1.7574 N   0  0  0  0  0  0  0  0  0  0  0  0
    8.2291    0.4305   -1.6289 C   0  0  0  0  0  0  0  0  0  0  0  0
    8.4866    1.8256   -1.7816 N   0  0  0  0  0  0  0  0  0  0  0  0
    9.2346   -0.3347   -1.3813 N   0  0  0  0  0  0  0  0  0  0  0  0
    3.7347   -0.0599    1.4818 C   0  0  0  0  0  0  0  0  0  0  0  0
    2.7212   -0.1675    2.4006 O   0  0  0  0  0  0  0  0  0  0  0  0
    4.8606    0.5614    2.1361 C   0  0  0  0  0  0  0  0  0  0  0  0
    4.9073    0.8270    3.4862 N   0  0  0  0  0  0  0  0  0  0  0  0
    5.9071    1.4505    3.9786 C   0  0  0  0  0  0  0  0  0  0  0  0
    6.9154    1.8430    3.1451 C   0  0  0  0  0  0  0  0  0  0  0  0
    6.3317    1.2659    1.6636 S   0  0  0  0  0  0  0  0  0  0  0  0
   -9.1902    1.9888    0.5682 H   0  0  0  0  0  0  0  0  0  0  0  0
   -9.0101    0.3251   -0.0264 H   0  0  0  0  0  0  0  0  0  0  0  0
   -9.0903    0.5760    1.7360 H   0  0  0  0  0  0  0  0  0  0  0  0
   -5.9180    1.8728    2.5186 H   0  0  0  0  0  0  0  0  0  0  0  0
   -6.8123    0.2726    2.7633 H   0  0  0  0  0  0  0  0  0  0  0  0
   -7.6587    1.8451    2.8313 H   0  0  0  0  0  0  0  0  0  0  0  0
   -6.5873    2.0747   -0.9844 H   0  0  0  0  0  0  0  0  0  0  0  0
   -7.6777    3.1091    0.0462 H   0  0  0  0  0  0  0  0  0  0  0  0
   -5.8830    2.8730    0.4521 H   0  0  0  0  0  0  0  0  0  0  0  0
   -5.3777   -1.9477   -0.8448 H   0  0  0  0  0  0  0  0  0  0  0  0
   -3.2910   -2.7318   -0.4320 H   0  0  0  0  0  0  0  0  0  0  0  0
   -1.6408   -1.5136   -1.9669 H   0  0  0  0  0  0  0  0  0  0  0  0
   -2.7093   -0.0775   -1.9463 H   0  0  0  0  0  0  0  0  0  0  0  0
   -4.4558   -1.4260   -3.0291 H   0  0  0  0  0  0  0  0  0  0  0  0
   -2.9692   -1.3887   -4.0062 H   0  0  0  0  0  0  0  0  0  0  0  0
   -1.9518   -4.7415   -3.5546 H   0  0  0  0  0  0  0  0  0  0  0  0
   -1.9072    0.0224    2.9195 H   0  0  0  0  0  0  0  0  0  0  0  0
   -0.2904   -0.6370    2.6330 H   0  0  0  0  0  0  0  0  0  0  0  0
    0.3943    1.6457    2.5760 H   0  0  0  0  0  0  0  0  0  0  0  0
   -1.3461    2.1952    2.4514 H   0  0  0  0  0  0  0  0  0  0  0  0
   -1.3001    2.1269    0.1621 H   0  0  0  0  0  0  0  0  0  0  0  0
    0.5345    2.1724    0.3070 H   0  0  0  0  0  0  0  0  0  0  0  0
   -0.5985    0.2239   -1.0369 H   0  0  0  0  0  0  0  0  0  0  0  0
    2.0867    1.1036   -0.4637 H   0  0  0  0  0  0  0  0  0  0  0  0
    2.8900   -1.6396    0.5313 H   0  0  0  0  0  0  0  0  0  0  0  0
    4.0336    0.1179   -1.7023 H   0  0  0  0  0  0  0  0  0  0  0  0
    3.0583   -1.3579   -1.6631 H   0  0  0  0  0  0  0  0  0  0  0  0
    4.9892   -2.7016   -0.9416 H   0  0  0  0  0  0  0  0  0  0  0  0
    5.1089   -1.9031   -2.5068 H   0  0  0  0  0  0  0  0  0  0  0  0
    7.1642   -2.0553   -1.5462 H   0  0  0  0  0  0  0  0  0  0  0  0
    6.7990   -1.2506   -0.0195 H   0  0  0  0  0  0  0  0  0  0  0  0
    6.2138    0.4834   -2.3214 H   0  0  0  0  0  0  0  0  0  0  0  0
    9.1150    2.1851   -2.5315 H   0  0  0  0  0  0  0  0  0  0  0  0
    8.0076    2.4645   -1.0942 H   0  0  0  0  0  0  0  0  0  0  0  0
   10.1931    0.0456   -1.2945 H   0  0  0  0  0  0  0  0  0  0  0  0
    5.9832    1.6832    5.0711 H   0  0  0  0  0  0  0  0  0  0  0  0
    7.8395    2.3851    3.4115 H   0  0  0  0  0  0  0  0  0  0  0  0
  1  2  1  0
  2  3  1  0
  2  4  1  0
  2  5  1  0
  5  6  1  0
  6  7  2  0
  6  8  1  0
  8  9  1  0
  9 10  1  0
 10 11  1  0
 11 12  1  0
 12 13  1  0
 12 14  2  0
  9 15  1  0
 15 16  2  0
 15 17  1  0
 17 18  1  0
 18 19  1  0
 19 20  1  0
 20 21  1  0
 21 22  1  0
 22 23  2  0
 22 24  1  0
 24 25  1  0
 25 26  1  0
 26 27  1  0
 27 28  1  0
 28 29  1  0
 29 30  1  0
 30 31  1  0
 30 32  2  3
 25 33  1  0
 33 34  2  0
 33 35  1  0
 35 36  2  0
 36 37  1  0
 37 38  2  0
 38 39  1  0
 21 17  1  0
 39 35  1  0
  1 40  1  0
  1 41  1  0
  1 42  1  0
  3 43  1  0
  3 44  1  0
  3 45  1  0
  4 46  1  0
  4 47  1  0
  4 48  1  0
  8 49  1  0
  9 50  1  1
 10 51  1  0
 10 52  1  0
 11 53  1  0
 11 54  1  0
 13 55  1  0
 18 56  1  0
 18 57  1  0
 19 58  1  0
 19 59  1  0
 20 60  1  0
 20 61  1  0
 21 62  1  6
 24 63  1  0
 25 64  1  1
 26 65  1  0
 26 66  1  0
 27 67  1  0
 27 68  1  0
 28 69  1  0
 28 70  1  0
 29 71  1  0
 31 72  1  0
 31 73  1  0
 32 74  1  0
 37 75  1  0
 38 76  1  0
M  END
$$$$
[H]N=C(N([H])[H])N([H])C([H])([H])C([H])([H])C([H])([H])[C@@]1([H])C(=O)N2C([H])([H])C([H])([H])C([H])([H])[C@@]2([H])C(=O)N([H])[C@@]([H])(C([H])([H])C([H])([H])C([H])([H])N([H])C(=N[H])N([H])[H])C(=O)N2C([H])([H])C([H])([H])C([H])([H])[C@@]2([H])C(=O)N([H])[C@@]([H])(C([H])(C([H])([H])[H])C([H])([H])[H])C(=O)N1[H]
     RDKit          3D

 90 92  0  0  0  0  0  0  0  0999 V2000
   -1.4702    5.7740   -1.1435 C   0  0  0  0  0  0  0  0  0  0  0  0
   -2.3495    4.7114   -0.5204 C   0  0  0  0  0  0  0  0  0  0  0  0
   -3.4190    4.2036   -1.4255 C   0  0  0  0  0  0  0  0  0  0  0  0
   -1.5025    3.5669    0.0668 C   0  0  2  0  0  0  0  0  0  0  0  0
   -0.7464    3.0119   -1.0124 N   0  0  0  0  0  0  0  0  0  0  0  0
    0.6513    2.7528   -0.9815 C   0  0  0  0  0  0  0  0  0  0  0  0
    1.2293    2.5416   -2.0728 O   0  0  0  0  0  0  0  0  0  0  0  0
    1.4671    2.7170    0.2399 C   0  0  2  0  0  0  0  0  0  0  0  0
    1.7687    4.1754    0.5583 C   0  0  0  0  0  0  0  0  0  0  0  0
    3.2437    4.2573    0.5837 C   0  0  0  0  0  0  0  0  0  0  0  0
    3.6430    3.1659   -0.3892 C   0  0  0  0  0  0  0  0  0  0  0  0
    2.7548    2.0797    0.1235 N   0  0  0  0  0  0  0  0  0  0  0  0
    3.1383    0.7726    0.4469 C   0  0  0  0  0  0  0  0  0  0  0  0
    4.2018    0.6512    1.1915 O   0  0  0  0  0  0  0  0  0  0  0  0
    2.5280   -0.5272    0.0804 C   0  0  2  0  0  0  0  0  0  0  0  0
    3.5899   -1.6149    0.4074 C   0  0  0  0  0  0  0  0  0  0  0  0
    3.1575   -2.9838    0.1130 C   0  0  0  0  0  0  0  0  0  0  0  0
    4.2273   -3.9916    0.4006 C   0  0  0  0  0  0  0  0  0  0  0  0
    4.7054   -4.0727    1.7282 N   0  0  0  0  0  0  0  0  0  0  0  0
    5.5035   -3.1525    2.4426 C   0  0  0  0  0  0  0  0  0  0  0  0
    5.2656   -2.8009    3.7949 N   0  0  0  0  0  0  0  0  0  0  0  0
    6.5322   -2.5768    1.8638 N   0  0  0  0  0  0  0  0  0  0  0  0
    2.2643   -0.6957   -1.3146 N   0  0  0  0  0  0  0  0  0  0  0  0
    1.2024   -1.3398   -1.9451 C   0  0  0  0  0  0  0  0  0  0  0  0
    1.3753   -1.6521   -3.1818 O   0  0  0  0  0  0  0  0  0  0  0  0
   -0.1014   -1.7200   -1.3978 C   0  0  2  0  0  0  0  0  0  0  0  0
   -0.3414   -3.2135   -1.6767 C   0  0  0  0  0  0  0  0  0  0  0  0
   -0.7949   -3.2047   -3.1094 C   0  0  0  0  0  0  0  0  0  0  0  0
   -1.3136   -1.8266   -3.3446 C   0  0  0  0  0  0  0  0  0  0  0  0
   -1.2502   -1.1573   -2.0274 N   0  0  0  0  0  0  0  0  0  0  0  0
   -2.0652   -0.1912   -1.4132 C   0  0  0  0  0  0  0  0  0  0  0  0
   -2.8801    0.4175   -2.1729 O   0  0  0  0  0  0  0  0  0  0  0  0
   -2.0753    0.1905    0.0171 C   0  0  2  0  0  0  0  0  0  0  0  0
   -2.7660   -1.0283    0.7019 C   0  0  0  0  0  0  0  0  0  0  0  0
   -2.8683   -0.8202    2.1627 C   0  0  0  0  0  0  0  0  0  0  0  0
   -3.4970   -1.9991    2.8440 C   0  0  0  0  0  0  0  0  0  0  0  0
   -4.8145   -2.3523    2.4705 N   0  0  0  0  0  0  0  0  0  0  0  0
   -5.2406   -2.9189    1.2508 C   0  0  0  0  0  0  0  0  0  0  0  0
   -6.4134   -2.4757    0.5422 N   0  0  0  0  0  0  0  0  0  0  0  0
   -4.6022   -3.8876    0.6936 N   0  0  0  0  0  0  0  0  0  0  0  0
   -2.8669    1.3684    0.2534 N   0  0  0  0  0  0  0  0  0  0  0  0
   -2.4788    2.6361    0.6897 C   0  0  0  0  0  0  0  0  0  0  0  0
   -3.0156    3.0947    1.7695 O   0  0  0  0  0  0  0  0  0  0  0  0
   -0.7903    6.2065   -0.4070 H   0  0  0  0  0  0  0  0  0  0  0  0
   -0.8674    5.2504   -1.9372 H   0  0  0  0  0  0  0  0  0  0  0  0
   -2.1117    6.5198   -1.6496 H   0  0  0  0  0  0  0  0  0  0  0  0
   -2.8847    5.2420    0.3239 H   0  0  0  0  0  0  0  0  0  0  0  0
   -3.0817    3.6667   -2.3102 H   0  0  0  0  0  0  0  0  0  0  0  0
   -4.1346    3.6314   -0.7987 H   0  0  0  0  0  0  0  0  0  0  0  0
   -3.9843    5.0931   -1.7849 H   0  0  0  0  0  0  0  0  0  0  0  0
   -0.8848    3.9633    0.8881 H   0  0  0  0  0  0  0  0  0  0  0  0
   -1.2879    2.7963   -1.8852 H   0  0  0  0  0  0  0  0  0  0  0  0
    0.8767    2.3545    1.1057 H   0  0  0  0  0  0  0  0  0  0  0  0
    1.4134    4.8636   -0.2532 H   0  0  0  0  0  0  0  0  0  0  0  0
    1.3336    4.4943    1.5398 H   0  0  0  0  0  0  0  0  0  0  0  0
    3.6957    4.0288    1.5744 H   0  0  0  0  0  0  0  0  0  0  0  0
    3.6547    5.2205    0.2106 H   0  0  0  0  0  0  0  0  0  0  0  0
    4.6997    2.9731   -0.2001 H   0  0  0  0  0  0  0  0  0  0  0  0
    3.4073    3.4157   -1.4228 H   0  0  0  0  0  0  0  0  0  0  0  0
    1.6077   -0.7378    0.6914 H   0  0  0  0  0  0  0  0  0  0  0  0
    3.7138   -1.5369    1.5328 H   0  0  0  0  0  0  0  0  0  0  0  0
    4.5301   -1.2912   -0.0336 H   0  0  0  0  0  0  0  0  0  0  0  0
    2.8176   -3.1435   -0.9410 H   0  0  0  0  0  0  0  0  0  0  0  0
    2.2675   -3.3008    0.7250 H   0  0  0  0  0  0  0  0  0  0  0  0
    3.8956   -5.0037    0.0472 H   0  0  0  0  0  0  0  0  0  0  0  0
    5.0939   -3.7729   -0.3165 H   0  0  0  0  0  0  0  0  0  0  0  0
    4.4408   -4.9361    2.2889 H   0  0  0  0  0  0  0  0  0  0  0  0
    4.6635   -1.9957    4.0553 H   0  0  0  0  0  0  0  0  0  0  0  0
    5.7018   -3.3587    4.5415 H   0  0  0  0  0  0  0  0  0  0  0  0
    6.7518   -2.8094    0.8644 H   0  0  0  0  0  0  0  0  0  0  0  0
    3.0062   -0.2509   -1.9465 H   0  0  0  0  0  0  0  0  0  0  0  0
   -0.0462   -1.6018   -0.3054 H   0  0  0  0  0  0  0  0  0  0  0  0
    0.6462   -3.6978   -1.6428 H   0  0  0  0  0  0  0  0  0  0  0  0
   -1.0785   -3.6312   -0.9722 H   0  0  0  0  0  0  0  0  0  0  0  0
   -1.6150   -3.9828   -3.1696 H   0  0  0  0  0  0  0  0  0  0  0  0
   -0.0421   -3.5499   -3.8306 H   0  0  0  0  0  0  0  0  0  0  0  0
   -0.8287   -1.2484   -4.1356 H   0  0  0  0  0  0  0  0  0  0  0  0
   -2.3858   -1.9300   -3.6628 H   0  0  0  0  0  0  0  0  0  0  0  0
   -1.0696    0.2112    0.4230 H   0  0  0  0  0  0  0  0  0  0  0  0
   -2.2923   -1.9492    0.4017 H   0  0  0  0  0  0  0  0  0  0  0  0
   -3.8005   -1.0029    0.2522 H   0  0  0  0  0  0  0  0  0  0  0  0
   -1.8764   -0.5830    2.6255 H   0  0  0  0  0  0  0  0  0  0  0  0
   -3.5220    0.0701    2.4171 H   0  0  0  0  0  0  0  0  0  0  0  0
   -3.4711   -1.8516    3.9627 H   0  0  0  0  0  0  0  0  0  0  0  0
   -2.8612   -2.9261    2.7073 H   0  0  0  0  0  0  0  0  0  0  0  0
   -5.6000   -2.1781    3.1779 H   0  0  0  0  0  0  0  0  0  0  0  0
   -6.2447   -1.7428   -0.1843 H   0  0  0  0  0  0  0  0  0  0  0  0
   -7.3666   -2.8540    0.7346 H   0  0  0  0  0  0  0  0  0  0  0  0
   -3.7539   -4.2544    1.1606 H   0  0  0  0  0  0  0  0  0  0  0  0
   -3.9118    1.2350    0.0679 H   0  0  0  0  0  0  0  0  0  0  0  0
  1  2  1  0
  2  3  1  0
  2  4  1  0
  4  5  1  0
  5  6  1  0
  6  7  2  0
  6  8  1  0
  8  9  1  0
  9 10  1  0
 10 11  1  0
 11 12  1  0
 12 13  1  0
 13 14  2  0
 13 15  1  0
 15 16  1  0
 16 17  1  0
 17 18  1  0
 18 19  1  0
 19 20  1  0
 20 21  1  0
 20 22  2  3
 15 23  1  0
 23 24  1  0
 24 25  2  0
 24 26  1  0
 26 27  1  0
 27 28  1  0
 28 29  1  0
 29 30  1  0
 30 31  1  0
 31 32  2  0
 31 33  1  0
 33 34  1  0
 34 35  1  0
 35 36  1  0
 36 37  1  0
 37 38  1  0
 38 39  1  0
 38 40  2  3
 33 41  1  0
 41 42  1  0
 42 43  2  0
 42  4  1  0
 12  8  1  0
 30 26  1  0
  1 44  1  0
  1 45  1  0
  1 46  1  0
  2 47  1  0
  3 48  1  0
  3 49  1  0
  3 50  1  0
  4 51  1  1
  5 52  1  0
  8 53  1  1
  9 54  1  0
  9 55  1  0
 10 56  1  0
 10 57  1  0
 11 58  1  0
 11 59  1  0
 15 60  1  1
 16 61  1  0
 16 62  1  0
 17 63  1  0
 17 64  1  0
 18 65  1  0
 18 66  1  0
 19 67  1  0
 21 68  1  0
 21 69  1  0
 22 70  1  0
 23 71  1  0
 26 72  1  1
 27 73  1  0
 27 74  1  0
 28 75  1  0
 28 76  1  0
 29 77  1  0
 29 78  1  0
 33 79  1  1
 34 80  1  0
 34 81  1  0
 35 82  1  0
 35 83  1  0
 36 84  1  0
 36 85  1  0
 37 86  1  0
 39 87  1  0
 39 88  1  0
 40 89  1  0
 41 90  1  0
M  END
$$$$
[H]OC(=O)C([H])([H])[C@@]([H])(C(=O)N([H])[C@]([H])(C(=O)N([H])[H])C([H])([H])c1c([H])c([H])c([H])c([H])c1[H])N([H])C(=O)[C@@]([H])(N([H])C(=O)[C@@]([H])(N([H])C(=O)[C@@]([H])(N([H])C(=O)[C@@]([H])(N([H])[H])C([H])([H])c1c([H])c([H])c(O[H])c([H])c1[H])C([H])([H])C([H])(C([H])([H])[H])C([H])([H])[H])C([H])([H])C([H])([H])C(=O)N([H])[H])C([H])([H])C([H])(C([H])([H])[H])C([H])([H])[H]
     RDKit          3D

113114  0  0  0  0  0  0  0  0999 V2000
    0.4507   -4.4071    1.3861 C   0  0  0  0  0  0  0  0  0  0  0  0
    1.8228   -4.1107    0.9154 C   0  0  0  0  0  0  0  0  0  0  0  0
    2.6812   -3.9977    2.2032 C   0  0  0  0  0  0  0  0  0  0  0  0
    2.1178   -3.0276   -0.0106 C   0  0  0  0  0  0  0  0  0  0  0  0
    1.8598   -1.6136    0.2941 C   0  0  2  0  0  0  0  0  0  0  0  0
    0.6091   -1.0489    0.4954 N   0  0  0  0  0  0  0  0  0  0  0  0
   -0.6805   -1.2802    0.0220 C   0  0  0  0  0  0  0  0  0  0  0  0
   -0.9254   -2.1863   -0.7969 O   0  0  0  0  0  0  0  0  0  0  0  0
   -1.8206   -0.4625    0.4707 C   0  0  2  0  0  0  0  0  0  0  0  0
   -1.8132   -0.0395    1.8878 C   0  0  0  0  0  0  0  0  0  0  0  0
   -1.8121   -1.1137    2.9295 C   0  0  0  0  0  0  0  0  0  0  0  0
   -1.8518   -0.4943    4.2990 C   0  0  0  0  0  0  0  0  0  0  0  0
   -2.0667   -1.3252    5.4150 N   0  0  0  0  0  0  0  0  0  0  0  0
   -1.6943    0.7352    4.4559 O   0  0  0  0  0  0  0  0  0  0  0  0
   -3.0903   -0.9647    0.0161 N   0  0  0  0  0  0  0  0  0  0  0  0
   -4.1821   -0.2377   -0.4813 C   0  0  0  0  0  0  0  0  0  0  0  0
   -4.1478    1.0309   -0.5720 O   0  0  0  0  0  0  0  0  0  0  0  0
   -5.3932   -0.9612   -0.8999 C   0  0  2  0  0  0  0  0  0  0  0  0
   -5.3653   -1.3833   -2.3334 C   0  0  0  0  0  0  0  0  0  0  0  0
   -5.2179   -0.3567   -3.3640 C   0  0  0  0  0  0  0  0  0  0  0  0
   -5.2256   -1.0827   -4.7240 C   0  0  0  0  0  0  0  0  0  0  0  0
   -6.1776    0.7512   -3.4634 C   0  0  0  0  0  0  0  0  0  0  0  0
   -6.6553   -0.4014   -0.4628 N   0  0  0  0  0  0  0  0  0  0  0  0
   -7.2502   -0.9109    0.7349 C   0  0  0  0  0  0  0  0  0  0  0  0
   -6.5039   -1.8439    1.2937 O   0  0  0  0  0  0  0  0  0  0  0  0
   -8.4752   -0.6038    1.4016 C   0  0  1  0  0  0  0  0  0  0  0  0
   -8.6531   -1.6077    2.4949 N   0  0  0  0  0  0  0  0  0  0  0  0
   -8.6059    0.7194    2.0385 C   0  0  0  0  0  0  0  0  0  0  0  0
   -8.5579    1.8634    1.1337 C   0  0  0  0  0  0  0  0  0  0  0  0
   -7.4114    2.5959    0.8904 C   0  0  0  0  0  0  0  0  0  0  0  0
   -7.5233    3.6696    0.0305 C   0  0  0  0  0  0  0  0  0  0  0  0
   -8.7127    4.0120   -0.5674 C   0  0  0  0  0  0  0  0  0  0  0  0
   -8.8621    5.0675   -1.4211 O   0  0  0  0  0  0  0  0  0  0  0  0
   -9.8652    3.2566   -0.3080 C   0  0  0  0  0  0  0  0  0  0  0  0
   -9.7725    2.1993    0.5332 C   0  0  0  0  0  0  0  0  0  0  0  0
    2.6981   -0.7101   -0.6246 C   0  0  0  0  0  0  0  0  0  0  0  0
    1.9845   -0.0840   -1.4482 O   0  0  0  0  0  0  0  0  0  0  0  0
    4.0516   -0.6552   -0.4977 N   0  0  0  0  0  0  0  0  0  0  0  0
    5.4513   -0.5957   -0.3697 C   0  0  1  0  0  0  0  0  0  0  0  0
    5.9872   -1.5905   -1.3524 C   0  0  0  0  0  0  0  0  0  0  0  0
    7.3886   -1.8551   -1.4493 C   0  0  0  0  0  0  0  0  0  0  0  0
    7.8769   -2.6310   -2.5395 O   0  0  0  0  0  0  0  0  0  0  0  0
    8.2574   -1.4715   -0.6602 O   0  0  0  0  0  0  0  0  0  0  0  0
    5.9389    0.8009   -0.5309 C   0  0  0  0  0  0  0  0  0  0  0  0
    5.3072    1.5573   -1.3421 O   0  0  0  0  0  0  0  0  0  0  0  0
    7.0315    1.4108    0.1328 N   0  0  0  0  0  0  0  0  0  0  0  0
    7.4150    2.7826   -0.0280 C   0  0  1  0  0  0  0  0  0  0  0  0
    8.5058    3.1024   -0.9428 C   0  0  0  0  0  0  0  0  0  0  0  0
    9.8359    2.5389   -0.6470 C   0  0  0  0  0  0  0  0  0  0  0  0
   10.7224    3.2326    0.1580 C   0  0  0  0  0  0  0  0  0  0  0  0
   11.9644    2.7792    0.4508 C   0  0  0  0  0  0  0  0  0  0  0  0
   12.4193    1.5651   -0.0515 C   0  0  0  0  0  0  0  0  0  0  0  0
   11.5384    0.8616   -0.8578 C   0  0  0  0  0  0  0  0  0  0  0  0
   10.2971    1.3313   -1.1430 C   0  0  0  0  0  0  0  0  0  0  0  0
    6.2645    3.7363   -0.1314 C   0  0  0  0  0  0  0  0  0  0  0  0
    6.3734    4.8448   -0.9756 N   0  0  0  0  0  0  0  0  0  0  0  0
    5.2387    3.5273    0.5328 O   0  0  0  0  0  0  0  0  0  0  0  0
   -0.1907   -4.7034    0.5044 H   0  0  0  0  0  0  0  0  0  0  0  0
    0.4488   -5.3513    2.0275 H   0  0  0  0  0  0  0  0  0  0  0  0
   -0.0734   -3.6116    1.9174 H   0  0  0  0  0  0  0  0  0  0  0  0
    2.2143   -5.1096    0.4869 H   0  0  0  0  0  0  0  0  0  0  0  0
    2.4537   -4.8626    2.8830 H   0  0  0  0  0  0  0  0  0  0  0  0
    2.3621   -3.0433    2.6658 H   0  0  0  0  0  0  0  0  0  0  0  0
    3.7285   -3.9784    1.8701 H   0  0  0  0  0  0  0  0  0  0  0  0
    3.2432   -3.1028   -0.2435 H   0  0  0  0  0  0  0  0  0  0  0  0
    1.6948   -3.3293   -1.0257 H   0  0  0  0  0  0  0  0  0  0  0  0
    2.4288   -1.4546    1.3194 H   0  0  0  0  0  0  0  0  0  0  0  0
    0.6350   -0.1916    1.1993 H   0  0  0  0  0  0  0  0  0  0  0  0
   -1.7107    0.5264   -0.1149 H   0  0  0  0  0  0  0  0  0  0  0  0
   -2.7305    0.5733    2.0724 H   0  0  0  0  0  0  0  0  0  0  0  0
   -0.9759    0.6795    2.1128 H   0  0  0  0  0  0  0  0  0  0  0  0
   -2.5752   -1.8809    2.8450 H   0  0  0  0  0  0  0  0  0  0  0  0
   -0.7709   -1.5640    2.8918 H   0  0  0  0  0  0  0  0  0  0  0  0
   -1.4394   -1.3317    6.2508 H   0  0  0  0  0  0  0  0  0  0  0  0
   -2.8869   -1.9724    5.4206 H   0  0  0  0  0  0  0  0  0  0  0  0
   -3.1886   -2.0224    0.0793 H   0  0  0  0  0  0  0  0  0  0  0  0
   -5.3264   -1.9393   -0.3135 H   0  0  0  0  0  0  0  0  0  0  0  0
   -4.5627   -2.1332   -2.4475 H   0  0  0  0  0  0  0  0  0  0  0  0
   -6.3182   -1.9667   -2.4952 H   0  0  0  0  0  0  0  0  0  0  0  0
   -4.1829    0.0951   -3.3146 H   0  0  0  0  0  0  0  0  0  0  0  0
   -6.0942   -1.8001   -4.6245 H   0  0  0  0  0  0  0  0  0  0  0  0
   -4.3342   -1.6907   -4.8771 H   0  0  0  0  0  0  0  0  0  0  0  0
   -5.4907   -0.4041   -5.5405 H   0  0  0  0  0  0  0  0  0  0  0  0
   -7.2432    0.4936   -3.5231 H   0  0  0  0  0  0  0  0  0  0  0  0
   -5.9578    1.2881   -4.4381 H   0  0  0  0  0  0  0  0  0  0  0  0
   -6.0123    1.5896   -2.7077 H   0  0  0  0  0  0  0  0  0  0  0  0
   -7.0855    0.3234   -1.0388 H   0  0  0  0  0  0  0  0  0  0  0  0
   -9.3640   -0.8188    0.7162 H   0  0  0  0  0  0  0  0  0  0  0  0
   -7.9197   -1.4604    3.2312 H   0  0  0  0  0  0  0  0  0  0  0  0
   -8.5653   -2.5579    2.0720 H   0  0  0  0  0  0  0  0  0  0  0  0
   -7.8230    0.8412    2.8597 H   0  0  0  0  0  0  0  0  0  0  0  0
   -9.5797    0.7665    2.6362 H   0  0  0  0  0  0  0  0  0  0  0  0
   -6.4667    2.3511    1.3460 H   0  0  0  0  0  0  0  0  0  0  0  0
   -6.6269    4.2710   -0.1707 H   0  0  0  0  0  0  0  0  0  0  0  0
   -8.1317    5.6918   -1.6952 H   0  0  0  0  0  0  0  0  0  0  0  0
  -10.8252    3.5241   -0.7769 H   0  0  0  0  0  0  0  0  0  0  0  0
  -10.6660    1.5887    0.7606 H   0  0  0  0  0  0  0  0  0  0  0  0
    4.1569    0.0681   -1.6700 H   0  0  0  0  0  0  0  0  0  0  0  0
    5.6878   -0.8756    0.7088 H   0  0  0  0  0  0  0  0  0  0  0  0
    5.3865   -2.5427   -1.1496 H   0  0  0  0  0  0  0  0  0  0  0  0
    5.6137   -1.3311   -2.4020 H   0  0  0  0  0  0  0  0  0  0  0  0
    8.2406   -3.5600   -2.3082 H   0  0  0  0  0  0  0  0  0  0  0  0
    7.5794    0.8174    0.7896 H   0  0  0  0  0  0  0  0  0  0  0  0
    7.8094    3.0628    1.0406 H   0  0  0  0  0  0  0  0  0  0  0  0
    8.6746    4.2210   -1.0002 H   0  0  0  0  0  0  0  0  0  0  0  0
    8.2688    2.8393   -2.0164 H   0  0  0  0  0  0  0  0  0  0  0  0
   10.3594    4.2019    0.5466 H   0  0  0  0  0  0  0  0  0  0  0  0
   12.6542    3.3436    1.0759 H   0  0  0  0  0  0  0  0  0  0  0  0
   13.4062    1.2287    0.1984 H   0  0  0  0  0  0  0  0  0  0  0  0
   11.8700   -0.0912   -1.2527 H   0  0  0  0  0  0  0  0  0  0  0  0
    9.5866    0.7895   -1.7782 H   0  0  0  0  0  0  0  0  0  0  0  0
    6.3094    4.8102   -2.0077 H   0  0  0  0  0  0  0  0  0  0  0  0
    6.5295    5.7779   -0.5394 H   0  0  0  0  0  0  0  0  0  0  0  0
  1  2  1  0
  2  3  1  0
  2  4  1  0
  4  5  1  0
  5  6  1  0
  6  7  1  0
  7  8  2  0
  7  9  1  0
  9 10  1  0
 10 11  1  0
 11 12  1  0
 12 13  1  0
 12 14  2  0
  9 15  1  0
 15 16  1  0
 16 17  2  0
 16 18  1  0
 18 19  1  0
 19 20  1  0
 20 21  1  0
 20 22  1  0
 18 23  1  0
 23 24  1  0
 24 25  2  0
 24 26  1  0
 26 27  1  0
 26 28  1  0
 28 29  1  0
 29 30  2  0
 30 31  1  0
 31 32  2  0
 32 33  1  0
 32 34  1  0
 34 35  2  0
  5 36  1  0
 36 37  2  0
 36 38  1  0
 38 39  1  0
 39 40  1  0
 40 41  1  0
 41 42  1  0
 41 43  2  0
 39 44  1  0
 44 45  2  0
 44 46  1  0
 46 47  1  0
 47 48  1  0
 48 49  1  0
 49 50  2  0
 50 51  1  0
 51 52  2  0
 52 53  1  0
 53 54  2  0
 47 55  1  0
 55 56  1  0
 55 57  2  0
 35 29  1  0
 54 49  1  0
  1 58  1  0
  1 59  1  0
  1 60  1  0
  2 61  1  0
  3 62  1  0
  3 63  1  0
  3 64  1  0
  4 65  1  0
  4 66  1  0
  5 67  1  1
  6 68  1  0
  9 69  1  6
 10 70  1  0
 10 71  1  0
 11 72  1  0
 11 73  1  0
 13 74  1  0
 13 75  1  0
 15 76  1  0
 18 77  1  1
 19 78  1  0
 19 79  1  0
 20 80  1  0
 21 81  1  0
 21 82  1  0
 21 83  1  0
 22 84  1  0
 22 85  1  0
 22 86  1  0
 23 87  1  0
 26 88  1  6
 27 89  1  0
 27 90  1  0
 28 91  1  0
 28 92  1  0
 30 93  1  0
 31 94  1  0
 33 95  1  0
 34 96  1  0
 35 97  1  0
 38 98  1  0
 39 99  1  1
 40100  1  0
 40101  1  0
 42102  1  0
 46103  1  0
 47104  1  1
 48105  1  0
 48106  1  0
 50107  1  0
 51108  1  0
 52109  1  0
 53110  1  0
 54111  1  0
 56112  1  0
 56113  1  0
M  END
$$$$
[H]c1c([H])c([H])c(/C(=C2/C(=O)N([H])c3c([H])c(C(=O)OC([H])([H])[H])c([H])c([H])c32)N([H])c2c([H])c([H])c(N(C(=O)C([H])([H])N3C([H])([H])C([H])([H])N(C([H])([H])[H])C([H])([H])C3([H])[H])C([H])([H])[H])c([H])c2[H])c([H])c1[H]
     RDKit          3D

 73 77  0  0  0  0  0  0  0  0999 V2000
   -9.6259    2.7362   -3.1505 C   0  0  0  0  0  0  0  0  0  0  0  0
   -8.5822    2.1423   -2.4234 O   0  0  0  0  0  0  0  0  0  0  0  0
   -7.8814    1.0256   -2.8716 C   0  0  0  0  0  0  0  0  0  0  0  0
   -8.1814    0.5157   -3.9683 O   0  0  0  0  0  0  0  0  0  0  0  0
   -6.8215    0.5153   -2.0123 C   0  0  0  0  0  0  0  0  0  0  0  0
   -6.4947    1.0717   -0.8140 C   0  0  0  0  0  0  0  0  0  0  0  0
   -5.4728    0.5613   -0.0049 C   0  0  0  0  0  0  0  0  0  0  0  0
   -4.7972   -0.5386   -0.4611 C   0  0  0  0  0  0  0  0  0  0  0  0
   -3.6924   -1.2784    0.1218 C   0  0  0  0  0  0  0  0  0  0  0  0
   -3.1406   -1.1461    1.2984 C   0  0  0  0  0  0  0  0  0  0  0  0
   -2.0489   -2.0001    1.6122 N   0  0  0  0  0  0  0  0  0  0  0  0
   -0.6955   -1.7404    1.2757 C   0  0  0  0  0  0  0  0  0  0  0  0
   -0.3049   -0.6232    0.5755 C   0  0  0  0  0  0  0  0  0  0  0  0
    1.0409   -0.3967    0.2619 C   0  0  0  0  0  0  0  0  0  0  0  0
    1.9996   -1.2983    0.6546 C   0  0  0  0  0  0  0  0  0  0  0  0
    1.6109   -2.4148    1.3542 C   0  0  0  0  0  0  0  0  0  0  0  0
    0.2717   -2.6400    1.6660 C   0  0  0  0  0  0  0  0  0  0  0  0
    3.3997   -1.0553    0.3267 N   0  0  0  0  0  0  0  0  0  0  0  0
    4.2743   -1.0443    1.4779 C   0  0  0  0  0  0  0  0  0  0  0  0
    3.8217   -0.9048   -0.9850 C   0  0  0  0  0  0  0  0  0  0  0  0
    2.8737   -1.1517   -1.8665 O   0  0  0  0  0  0  0  0  0  0  0  0
    5.0990   -0.5334   -1.5790 C   0  0  0  0  0  0  0  0  0  0  0  0
    6.1819   -0.1535   -0.7808 N   0  0  0  0  0  0  0  0  0  0  0  0
    6.1479    1.1188   -0.1443 C   0  0  0  0  0  0  0  0  0  0  0  0
    7.0593    2.1225   -0.8152 C   0  0  0  0  0  0  0  0  0  0  0  0
    8.4000    1.6684   -0.9414 N   0  0  0  0  0  0  0  0  0  0  0  0
    9.2089    2.3796   -1.8600 C   0  0  0  0  0  0  0  0  0  0  0  0
    8.6125    0.2731   -0.8355 C   0  0  0  0  0  0  0  0  0  0  0  0
    7.4754   -0.6243   -1.1164 C   0  0  0  0  0  0  0  0  0  0  0  0
   -3.6419   -0.3131    2.3473 C   0  0  0  0  0  0  0  0  0  0  0  0
   -3.0180    0.7830    2.8957 C   0  0  0  0  0  0  0  0  0  0  0  0
   -3.5184    1.4571    3.9801 C   0  0  0  0  0  0  0  0  0  0  0  0
   -4.6869    1.0413    4.5595 C   0  0  0  0  0  0  0  0  0  0  0  0
   -5.3502   -0.0483    4.0505 C   0  0  0  0  0  0  0  0  0  0  0  0
   -4.8397   -0.7104    2.9694 C   0  0  0  0  0  0  0  0  0  0  0  0
   -3.3759   -2.3505   -0.8690 C   0  0  0  0  0  0  0  0  0  0  0  0
   -2.4929   -3.2072   -0.7677 O   0  0  0  0  0  0  0  0  0  0  0  0
   -4.2699   -2.2220   -1.9626 N   0  0  0  0  0  0  0  0  0  0  0  0
   -5.1182   -1.1186   -1.6868 C   0  0  0  0  0  0  0  0  0  0  0  0
   -6.1305   -0.5894   -2.4585 C   0  0  0  0  0  0  0  0  0  0  0  0
   -9.4840    3.8397   -3.1260 H   0  0  0  0  0  0  0  0  0  0  0  0
  -10.6287    2.4400   -2.7994 H   0  0  0  0  0  0  0  0  0  0  0  0
   -9.5092    2.4513   -4.2231 H   0  0  0  0  0  0  0  0  0  0  0  0
   -7.0554    1.9338   -0.4979 H   0  0  0  0  0  0  0  0  0  0  0  0
   -5.2980    1.1170    0.8877 H   0  0  0  0  0  0  0  0  0  0  0  0
   -2.3225   -2.8839    2.1371 H   0  0  0  0  0  0  0  0  0  0  0  0
   -1.0852    0.0650    0.2820 H   0  0  0  0  0  0  0  0  0  0  0  0
    1.2956    0.4918   -0.2875 H   0  0  0  0  0  0  0  0  0  0  0  0
    2.3988   -3.1019    1.6458 H   0  0  0  0  0  0  0  0  0  0  0  0
   -0.0090   -3.5256    2.2172 H   0  0  0  0  0  0  0  0  0  0  0  0
    4.3098   -0.0784    2.0033 H   0  0  0  0  0  0  0  0  0  0  0  0
    5.2439   -1.4894    1.2146 H   0  0  0  0  0  0  0  0  0  0  0  0
    3.8678   -1.7578    2.2758 H   0  0  0  0  0  0  0  0  0  0  0  0
    4.9292    0.2743   -2.3603 H   0  0  0  0  0  0  0  0  0  0  0  0
    5.4335   -1.4380   -2.1821 H   0  0  0  0  0  0  0  0  0  0  0  0
    6.5430    1.0192    0.8973 H   0  0  0  0  0  0  0  0  0  0  0  0
    5.1051    1.4958   -0.1442 H   0  0  0  0  0  0  0  0  0  0  0  0
    7.0209    3.0816   -0.2641 H   0  0  0  0  0  0  0  0  0  0  0  0
    6.6418    2.3090   -1.8254 H   0  0  0  0  0  0  0  0  0  0  0  0
    9.5515    1.7468   -2.6801 H   0  0  0  0  0  0  0  0  0  0  0  0
    8.6875    3.2979   -2.1848 H   0  0  0  0  0  0  0  0  0  0  0  0
   10.1414    2.7025   -1.3095 H   0  0  0  0  0  0  0  0  0  0  0  0
    9.4640   -0.0087   -1.5031 H   0  0  0  0  0  0  0  0  0  0  0  0
    8.9967    0.0613    0.2048 H   0  0  0  0  0  0  0  0  0  0  0  0
    7.6214   -1.6038   -0.5691 H   0  0  0  0  0  0  0  0  0  0  0  0
    7.4535   -0.9472   -2.2000 H   0  0  0  0  0  0  0  0  0  0  0  0
   -2.1060    1.1196    2.4536 H   0  0  0  0  0  0  0  0  0  0  0  0
   -3.0267    2.3165    4.4077 H   0  0  0  0  0  0  0  0  0  0  0  0
   -5.1025    1.5578    5.4176 H   0  0  0  0  0  0  0  0  0  0  0  0
   -6.2843   -0.3557    4.5382 H   0  0  0  0  0  0  0  0  0  0  0  0
   -5.4043   -1.5664    2.6063 H   0  0  0  0  0  0  0  0  0  0  0  0
   -4.3057   -2.8330   -2.8311 H   0  0  0  0  0  0  0  0  0  0  0  0
   -6.3795   -1.0398   -3.4080 H   0  0  0  0  0  0  0  0  0  0  0  0
  1  2  1  0
  2  3  1  0
  3  4  2  0
  3  5  1  0
  5  6  2  0
  6  7  1  0
  7  8  2  0
  8  9  1  0
  9 10  2  0
 10 11  1  0
 11 12  1  0
 12 13  2  0
 13 14  1  0
 14 15  2  0
 15 16  1  0
 16 17  2  0
 15 18  1  0
 18 19  1  0
 18 20  1  0
 20 21  2  0
 20 22  1  0
 22 23  1  0
 23 24  1  0
 24 25  1  0
 25 26  1  0
 26 27  1  0
 26 28  1  0
 28 29  1  0
 10 30  1  0
 30 31  2  0
 31 32  1  0
 32 33  2  0
 33 34  1  0
 34 35  2  0
  9 36  1  0
 36 37  2  0
 36 38  1  0
 38 39  1  0
 39 40  2  0
 40  5  1  0
 39  8  1  0
 17 12  1  0
 29 23  1  0
 35 30  1  0
  1 41  1  0
  1 42  1  0
  1 43  1  0
  6 44  1  0
  7 45  1  0
 11 46  1  0
 13 47  1  0
 14 48  1  0
 16 49  1  0
 17 50  1  0
 19 51  1  0
 19 52  1  0
 19 53  1  0
 22 54  1  0
 22 55  1  0
 24 56  1  0
 24 57  1  0
 25 58  1  0
 25 59  1  0
 27 60  1  0
 27 61  1  0
 27 62  1  0
 28 63  1  0
 28 64  1  0
 29 65  1  0
 29 66  1  0
 31 67  1  0
 32 68  1  0
 33 69  1  0
 34 70  1  0
 35 71  1  0
 38 72  1  0
 40 73  1  0
M  END
$$$$
[H]O[C@]1([H])C([H])([H])C([H])([H])[C@@]([H])(C([H])([H])N([H])C(=O)c2c(C([H])([H])[H])c(/C([H])=C3\C(=O)N([H])c4c([H])c([H])c(F)c([H])c43)n([H])c2C([H])([H])[H])C([H])([H])C1([H])[H]
     RDKit          3D

 56 59  0  0  0  0  0  0  0  0999 V2000
   -0.1625   -2.0170   -1.6912 C   0  0  0  0  0  0  0  0  0  0  0  0
    0.6743   -1.3537   -0.6309 C   0  0  0  0  0  0  0  0  0  0  0  0
    2.0253   -1.2518   -0.7016 N   0  0  0  0  0  0  0  0  0  0  0  0
    2.5491   -0.6347    0.3502 C   0  0  0  0  0  0  0  0  0  0  0  0
    3.9174   -0.2945    0.6737 C   0  0  0  0  0  0  0  0  0  0  0  0
    4.7153    0.4364   -0.0777 C   0  0  0  0  0  0  0  0  0  0  0  0
    4.4008    1.0504   -1.3587 C   0  0  0  0  0  0  0  0  0  0  0  0
    3.3062    1.0125   -1.9625 O   0  0  0  0  0  0  0  0  0  0  0  0
    5.6061    1.7119   -1.7847 N   0  0  0  0  0  0  0  0  0  0  0  0
    6.6243    1.5163   -0.8069 C   0  0  0  0  0  0  0  0  0  0  0  0
    7.9477    1.9472   -0.7491 C   0  0  0  0  0  0  0  0  0  0  0  0
    8.7466    1.6247    0.3184 C   0  0  0  0  0  0  0  0  0  0  0  0
    8.2600    0.8664    1.3600 C   0  0  0  0  0  0  0  0  0  0  0  0
    9.0088    0.5284    2.4240 F   0  0  0  0  0  0  0  0  0  0  0  0
    6.9281    0.4451    1.2800 C   0  0  0  0  0  0  0  0  0  0  0  0
    6.1314    0.7619    0.2241 C   0  0  0  0  0  0  0  0  0  0  0  0
    1.4595   -0.3221    1.1470 C   0  0  0  0  0  0  0  0  0  0  0  0
    1.5734    0.3926    2.4635 C   0  0  0  0  0  0  0  0  0  0  0  0
    0.2826   -0.7692    0.5376 C   0  0  0  0  0  0  0  0  0  0  0  0
   -1.0498   -0.6073    1.0602 C   0  0  0  0  0  0  0  0  0  0  0  0
   -1.0894   -0.1009    2.2542 O   0  0  0  0  0  0  0  0  0  0  0  0
   -2.2740   -0.9175    0.4583 N   0  0  0  0  0  0  0  0  0  0  0  0
   -3.4952   -0.6600    1.1981 C   0  0  0  0  0  0  0  0  0  0  0  0
   -4.7191   -1.0642    0.3658 C   0  0  1  0  0  0  0  0  0  0  0  0
   -5.9147   -0.7699    1.1897 C   0  0  0  0  0  0  0  0  0  0  0  0
   -7.0980   -0.2375    0.4546 C   0  0  0  0  0  0  0  0  0  0  0  0
   -6.5801    0.9724   -0.3393 C   0  0  2  0  0  0  0  0  0  0  0  0
   -7.6468    1.6667   -0.8459 O   0  0  0  0  0  0  0  0  0  0  0  0
   -5.7599    0.3519   -1.4468 C   0  0  0  0  0  0  0  0  0  0  0  0
   -4.6461   -0.5008   -0.9823 C   0  0  0  0  0  0  0  0  0  0  0  0
   -0.7411   -2.8111   -1.1628 H   0  0  0  0  0  0  0  0  0  0  0  0
   -0.7935   -1.2695   -2.1901 H   0  0  0  0  0  0  0  0  0  0  0  0
    0.5357   -2.5139   -2.4052 H   0  0  0  0  0  0  0  0  0  0  0  0
    2.5729   -1.6383   -1.4979 H   0  0  0  0  0  0  0  0  0  0  0  0
    4.3747   -0.6537    1.6173 H   0  0  0  0  0  0  0  0  0  0  0  0
    5.6962    2.2413   -2.6675 H   0  0  0  0  0  0  0  0  0  0  0  0
    8.3571    2.5534   -1.5690 H   0  0  0  0  0  0  0  0  0  0  0  0
    9.7829    1.9538    0.3784 H   0  0  0  0  0  0  0  0  0  0  0  0
    6.5558   -0.1586    2.1187 H   0  0  0  0  0  0  0  0  0  0  0  0
    1.1675   -0.3045    3.2506 H   0  0  0  0  0  0  0  0  0  0  0  0
    0.9342    1.2866    2.4886 H   0  0  0  0  0  0  0  0  0  0  0  0
    2.6164    0.5742    2.7122 H   0  0  0  0  0  0  0  0  0  0  0  0
   -2.3655   -1.3118   -0.4776 H   0  0  0  0  0  0  0  0  0  0  0  0
   -3.4940   -1.3422    2.0730 H   0  0  0  0  0  0  0  0  0  0  0  0
   -3.5206    0.4033    1.4647 H   0  0  0  0  0  0  0  0  0  0  0  0
   -4.6328   -2.1901    0.2967 H   0  0  0  0  0  0  0  0  0  0  0  0
   -5.6902   -0.0284    2.0141 H   0  0  0  0  0  0  0  0  0  0  0  0
   -6.2715   -1.6807    1.7571 H   0  0  0  0  0  0  0  0  0  0  0  0
   -7.8314    0.1522    1.1790 H   0  0  0  0  0  0  0  0  0  0  0  0
   -7.5385   -0.9739   -0.2574 H   0  0  0  0  0  0  0  0  0  0  0  0
   -5.9440    1.5512    0.3623 H   0  0  0  0  0  0  0  0  0  0  0  0
   -7.3846    2.6380   -0.8729 H   0  0  0  0  0  0  0  0  0  0  0  0
   -5.4290    1.1776   -2.1196 H   0  0  0  0  0  0  0  0  0  0  0  0
   -6.4852   -0.2487   -2.0702 H   0  0  0  0  0  0  0  0  0  0  0  0
   -3.6999    0.1138   -1.0768 H   0  0  0  0  0  0  0  0  0  0  0  0
   -4.4928   -1.3037   -1.7660 H   0  0  0  0  0  0  0  0  0  0  0  0
  1  2  1  0
  2  3  1  0
  3  4  1  0
  4  5  1  0
  5  6  2  0
  6  7  1  0
  7  8  2  0
  7  9  1  0
  9 10  1  0
 10 11  2  0
 11 12  1  0
 12 13  2  0
 13 14  1  0
 13 15  1  0
 15 16  2  0
  4 17  2  0
 17 18  1  0
 17 19  1  0
 19 20  1  0
 20 21  2  0
 20 22  1  0
 22 23  1  0
 23 24  1  0
 24 25  1  0
 25 26  1  0
 26 27  1  0
 27 28  1  0
 27 29  1  0
 29 30  1  0
 19  2  2  0
 30 24  1  0
 16  6  1  0
 16 10  1  0
  1 31  1  0
  1 32  1  0
  1 33  1  0
  3 34  1  0
  5 35  1  0
  9 36  1  0
 11 37  1  0
 12 38  1  0
 15 39  1  0
 18 40  1  0
 18 41  1  0
 18 42  1  0
 22 43  1  0
 23 44  1  0
 23 45  1  0
 24 46  1  6
 25 47  1  0
 25 48  1  0
 26 49  1  0
 26 50  1  0
 27 51  1  1
 28 52  1  0
 29 53  1  0
 29 54  1  0
 30 55  1  0
 30 56  1  0
M  END
$$$$
[H]c1nc(N([H])[H])c2c(-c3c([H])c([H])c(N([H])C(=O)N([H])c4c([H])c([H])c([H])c(C(F)(F)F)c4[H])c([H])c3[H])c([H])c(C3([H])C([H])([H])C([H])([H])N([H])C([H])([H])C3([H])[H])n2n1
     RDKit          3D

 60 64  0  0  0  0  0  0  0  0999 V2000
   -0.0653    3.1949    1.5202 N   0  0  0  0  0  0  0  0  0  0  0  0
   -1.4816    3.1527    1.4663 C   0  0  0  0  0  0  0  0  0  0  0  0
   -2.1752    4.2859    1.5920 N   0  0  0  0  0  0  0  0  0  0  0  0
   -3.5204    4.2005    1.5202 C   0  0  0  0  0  0  0  0  0  0  0  0
   -4.1595    3.0516    1.3319 N   0  0  0  0  0  0  0  0  0  0  0  0
   -3.5185    1.8829    1.1987 N   0  0  0  0  0  0  0  0  0  0  0  0
   -3.9336    0.6622    0.9778 C   0  0  0  0  0  0  0  0  0  0  0  0
   -2.8039   -0.1482    0.8902 C   0  0  0  0  0  0  0  0  0  0  0  0
   -1.6730    0.7161    1.0782 C   0  0  0  0  0  0  0  0  0  0  0  0
   -0.3679    0.0084    1.0083 C   0  0  0  0  0  0  0  0  0  0  0  0
    0.0102   -0.3593   -0.2995 C   0  0  0  0  0  0  0  0  0  0  0  0
    0.9281   -1.2406   -0.5376 C   0  0  0  0  0  0  0  0  0  0  0  0
    1.5837   -1.8829    0.5820 C   0  0  0  0  0  0  0  0  0  0  0  0
    2.5829   -2.8070    0.0992 N   0  0  0  0  0  0  0  0  0  0  0  0
    3.7544   -2.0887   -0.3173 C   0  0  0  0  0  0  0  0  0  0  0  0
    3.7734   -0.8692   -0.1193 O   0  0  0  0  0  0  0  0  0  0  0  0
    4.8296   -2.8104   -0.9431 N   0  0  0  0  0  0  0  0  0  0  0  0
    5.9731   -2.0025   -1.2210 C   0  0  0  0  0  0  0  0  0  0  0  0
    7.0871   -2.6845   -1.7456 C   0  0  0  0  0  0  0  0  0  0  0  0
    8.2060   -1.9934   -1.9357 C   0  0  0  0  0  0  0  0  0  0  0  0
    8.3454   -0.6317   -1.6526 C   0  0  0  0  0  0  0  0  0  0  0  0
    7.2588    0.0160   -1.1483 C   0  0  0  0  0  0  0  0  0  0  0  0
    6.0413   -0.6802   -0.9240 C   0  0  0  0  0  0  0  0  0  0  0  0
    7.3351    1.4635   -0.7395 C   0  0  0  0  0  0  0  0  0  0  0  0
    6.5954    2.2609   -1.5458 F   0  0  0  0  0  0  0  0  0  0  0  0
    6.8476    1.5284    0.5789 F   0  0  0  0  0  0  0  0  0  0  0  0
    8.6366    1.8363   -0.8161 F   0  0  0  0  0  0  0  0  0  0  0  0
    1.2463   -1.5602    1.7959 C   0  0  0  0  0  0  0  0  0  0  0  0
    0.2295   -0.5591    2.0823 C   0  0  0  0  0  0  0  0  0  0  0  0
   -2.1346    1.9298    1.2720 C   0  0  0  0  0  0  0  0  0  0  0  0
   -5.2713    0.0416    0.8075 C   0  0  0  0  0  0  0  0  0  0  0  0
   -5.1440   -0.9376   -0.3805 C   0  0  0  0  0  0  0  0  0  0  0  0
   -6.4774   -1.1568   -1.0036 C   0  0  0  0  0  0  0  0  0  0  0  0
   -6.9987    0.0531   -1.6017 N   0  0  0  0  0  0  0  0  0  0  0  0
   -6.6176    1.2384   -0.8477 C   0  0  0  0  0  0  0  0  0  0  0  0
   -6.3939    0.9286    0.6075 C   0  0  0  0  0  0  0  0  0  0  0  0
    0.4314    4.0509    1.8873 H   0  0  0  0  0  0  0  0  0  0  0  0
    0.5097    2.4047    1.2085 H   0  0  0  0  0  0  0  0  0  0  0  0
   -4.0777    5.1591    1.6093 H   0  0  0  0  0  0  0  0  0  0  0  0
   -2.7330   -1.1756    0.7044 H   0  0  0  0  0  0  0  0  0  0  0  0
   -0.5119    0.1818   -1.1244 H   0  0  0  0  0  0  0  0  0  0  0  0
    1.2768   -1.5594   -1.5376 H   0  0  0  0  0  0  0  0  0  0  0  0
    2.4824   -3.7815    0.0913 H   0  0  0  0  0  0  0  0  0  0  0  0
    4.8247   -3.7732   -1.2025 H   0  0  0  0  0  0  0  0  0  0  0  0
    6.9978   -3.7544   -1.9553 H   0  0  0  0  0  0  0  0  0  0  0  0
    9.1128   -2.4742   -2.3256 H   0  0  0  0  0  0  0  0  0  0  0  0
    9.2267   -0.0720   -1.8101 H   0  0  0  0  0  0  0  0  0  0  0  0
    5.2578   -0.0307   -0.5615 H   0  0  0  0  0  0  0  0  0  0  0  0
    1.7176   -1.9963    2.6598 H   0  0  0  0  0  0  0  0  0  0  0  0
    0.0309   -0.3503    3.1142 H   0  0  0  0  0  0  0  0  0  0  0  0
   -5.4149   -0.6358    1.7148 H   0  0  0  0  0  0  0  0  0  0  0  0
   -4.3565   -0.6083   -1.0460 H   0  0  0  0  0  0  0  0  0  0  0  0
   -4.8199   -1.8974    0.0659 H   0  0  0  0  0  0  0  0  0  0  0  0
   -6.3829   -1.8886   -1.8168 H   0  0  0  0  0  0  0  0  0  0  0  0
   -7.1807   -1.6211   -0.2518 H   0  0  0  0  0  0  0  0  0  0  0  0
   -8.0578   -0.0543   -1.5254 H   0  0  0  0  0  0  0  0  0  0  0  0
   -7.4177    2.0090   -0.9056 H   0  0  0  0  0  0  0  0  0  0  0  0
   -5.7201    1.6513   -1.3000 H   0  0  0  0  0  0  0  0  0  0  0  0
   -6.3965    1.8508    1.1821 H   0  0  0  0  0  0  0  0  0  0  0  0
   -7.3271    0.3265    0.9099 H   0  0  0  0  0  0  0  0  0  0  0  0
  1  2  1  0
  2  3  2  0
  3  4  1  0
  4  5  2  0
  5  6  1  0
  6  7  1  0
  7  8  2  0
  8  9  1  0
  9 10  1  0
 10 11  2  0
 11 12  1  0
 12 13  2  0
 13 14  1  0
 14 15  1  0
 15 16  2  0
 15 17  1  0
 17 18  1  0
 18 19  2  0
 19 20  1  0
 20 21  2  0
 21 22  1  0
 22 23  2  0
 22 24  1  0
 24 25  1  0
 24 26  1  0
 24 27  1  0
 13 28  1  0
 28 29  2  0
  9 30  2  0
  7 31  1  0
 31 32  1  0
 32 33  1  0
 33 34  1  0
 34 35  1  0
 35 36  1  0
 30  2  1  0
 36 31  1  0
 30  6  1  0
 29 10  1  0
 23 18  1  0
  1 37  1  0
  1 38  1  0
  4 39  1  0
  8 40  1  0
 11 41  1  0
 12 42  1  0
 14 43  1  0
 17 44  1  0
 19 45  1  0
 20 46  1  0
 21 47  1  0
 23 48  1  0
 28 49  1  0
 29 50  1  0
 31 51  1  0
 32 52  1  0
 32 53  1  0
 33 54  1  0
 33 55  1  0
 34 56  1  0
 35 57  1  0
 35 58  1  0
 36 59  1  0
 36 60  1  0
M  END
$$$$
[H]OC(c1c([H])c([H])c(N2C([H])([H])C([H])([H])N(c3c([H])c([H])c(F)c([H])c3C([H])([H])[H])C([H])([H])[C@@]2([H])C([H])(C([H])([H])[H])C([H])([H])[H])c([H])c1[H])(C(F)(F)F)C(F)(F)F
     RDKit          3D

 58 60  0  0  0  0  0  0  0  0999 V2000
   -1.8380    0.5736   -2.5144 C   0  0  0  0  0  0  0  0  0  0  0  0
   -0.9169   -0.5113   -2.0827 C   0  0  0  0  0  0  0  0  0  0  0  0
    0.3669   -0.3284   -2.8772 C   0  0  0  0  0  0  0  0  0  0  0  0
   -0.6875   -0.6356   -0.6036 C   0  0  2  0  0  0  0  0  0  0  0  0
   -1.9897   -0.9175    0.1410 C   0  0  0  0  0  0  0  0  0  0  0  0
   -2.6204    0.2487    0.6317 N   0  0  0  0  0  0  0  0  0  0  0  0
   -1.8684    1.3582    1.1342 C   0  0  0  0  0  0  0  0  0  0  0  0
   -0.5191    1.5826    0.5871 C   0  0  0  0  0  0  0  0  0  0  0  0
    0.0868    0.3970   -0.0087 N   0  0  0  0  0  0  0  0  0  0  0  0
    1.5034    0.3222    0.0504 C   0  0  0  0  0  0  0  0  0  0  0  0
    2.2739    1.4563    0.2826 C   0  0  0  0  0  0  0  0  0  0  0  0
    3.6364    1.3428    0.3732 C   0  0  0  0  0  0  0  0  0  0  0  0
    4.3109    0.1276    0.2417 C   0  0  0  0  0  0  0  0  0  0  0  0
    3.5653   -0.9901    0.0114 C   0  0  0  0  0  0  0  0  0  0  0  0
    2.1664   -0.8713   -0.0800 C   0  0  0  0  0  0  0  0  0  0  0  0
    5.7688    0.1382    0.3683 C   0  0  0  0  0  0  0  0  0  0  0  0
    6.1146    1.3007    1.1176 O   0  0  0  0  0  0  0  0  0  0  0  0
    6.4043   -0.9948    1.0813 C   0  0  0  0  0  0  0  0  0  0  0  0
    6.2309   -2.2369    0.5639 F   0  0  0  0  0  0  0  0  0  0  0  0
    6.0509   -0.9675    2.4473 F   0  0  0  0  0  0  0  0  0  0  0  0
    7.7936   -0.7739    1.1130 F   0  0  0  0  0  0  0  0  0  0  0  0
    6.4109    0.3619   -0.9897 C   0  0  0  0  0  0  0  0  0  0  0  0
    5.9669    1.5925   -1.4809 F   0  0  0  0  0  0  0  0  0  0  0  0
    6.0375   -0.5727   -1.9155 F   0  0  0  0  0  0  0  0  0  0  0  0
    7.7775    0.4652   -0.9218 F   0  0  0  0  0  0  0  0  0  0  0  0
   -4.0647    0.2741    0.6462 C   0  0  0  0  0  0  0  0  0  0  0  0
   -4.8129    1.0926   -0.1647 C   0  0  0  0  0  0  0  0  0  0  0  0
   -6.1936    1.1027   -0.1255 C   0  0  0  0  0  0  0  0  0  0  0  0
   -6.8742    0.2768    0.7437 C   0  0  0  0  0  0  0  0  0  0  0  0
   -8.2420    0.2855    0.7981 F   0  0  0  0  0  0  0  0  0  0  0  0
   -6.1455   -0.5460    1.5584 C   0  0  0  0  0  0  0  0  0  0  0  0
   -4.7425   -0.5471    1.5095 C   0  0  0  0  0  0  0  0  0  0  0  0
   -3.9705   -1.4398    2.4100 C   0  0  0  0  0  0  0  0  0  0  0  0
   -1.6918    0.8531   -3.5874 H   0  0  0  0  0  0  0  0  0  0  0  0
   -1.8135    1.4960   -1.9491 H   0  0  0  0  0  0  0  0  0  0  0  0
   -2.8937    0.1704   -2.4746 H   0  0  0  0  0  0  0  0  0  0  0  0
   -1.2943   -1.5288   -2.4197 H   0  0  0  0  0  0  0  0  0  0  0  0
    0.9106    0.5749   -2.5594 H   0  0  0  0  0  0  0  0  0  0  0  0
   -0.0027   -0.0967   -3.9291 H   0  0  0  0  0  0  0  0  0  0  0  0
    0.9430   -1.2528   -2.9173 H   0  0  0  0  0  0  0  0  0  0  0  0
   -0.1379   -1.6270   -0.4981 H   0  0  0  0  0  0  0  0  0  0  0  0
   -1.7457   -1.6075    1.0029 H   0  0  0  0  0  0  0  0  0  0  0  0
   -2.6339   -1.4760   -0.5974 H   0  0  0  0  0  0  0  0  0  0  0  0
   -2.5200    2.2696    1.0493 H   0  0  0  0  0  0  0  0  0  0  0  0
   -1.7635    1.1758    2.2470 H   0  0  0  0  0  0  0  0  0  0  0  0
    0.1885    1.9057    1.4112 H   0  0  0  0  0  0  0  0  0  0  0  0
   -0.5393    2.4211   -0.1317 H   0  0  0  0  0  0  0  0  0  0  0  0
    1.7679    2.4056    0.3770 H   0  0  0  0  0  0  0  0  0  0  0  0
    4.2322    2.2493    0.5586 H   0  0  0  0  0  0  0  0  0  0  0  0
    4.0114   -1.9473   -0.1101 H   0  0  0  0  0  0  0  0  0  0  0  0
    1.6748   -1.8327   -0.2636 H   0  0  0  0  0  0  0  0  0  0  0  0
    5.5588    1.2692    1.9447 H   0  0  0  0  0  0  0  0  0  0  0  0
   -4.2939    1.7471   -0.8569 H   0  0  0  0  0  0  0  0  0  0  0  0
   -6.7856    1.7488   -0.7648 H   0  0  0  0  0  0  0  0  0  0  0  0
   -6.6609   -1.2109    2.2600 H   0  0  0  0  0  0  0  0  0  0  0  0
   -3.0843   -0.9256    2.8557 H   0  0  0  0  0  0  0  0  0  0  0  0
   -3.7673   -2.4340    2.0022 H   0  0  0  0  0  0  0  0  0  0  0  0
   -4.6389   -1.6215    3.3047 H   0  0  0  0  0  0  0  0  0  0  0  0
  1  2  1  0
  2  3  1  0
  2  4  1  0
  4  5  1  0
  5  6  1  0
  6  7  1  0
  7  8  1  0
  8  9  1  0
  9 10  1  0
 10 11  2  0
 11 12  1  0
 12 13  2  0
 13 14  1  0
 14 15  2  0
 13 16  1  0
 16 17  1  0
 16 18  1  0
 18 19  1  0
 18 20  1  0
 18 21  1  0
 16 22  1  0
 22 23  1  0
 22 24  1  0
 22 25  1  0
  6 26  1  0
 26 27  2  0
 27 28  1  0
 28 29  2  0
 29 30  1  0
 29 31  1  0
 31 32  2  0
 32 33  1  0
  9  4  1  0
 15 10  1  0
 32 26  1  0
  1 34  1  0
  1 35  1  0
  1 36  1  0
  2 37  1  0
  3 38  1  0
  3 39  1  0
  3 40  1  0
  4 41  1  6
  5 42  1  0
  5 43  1  0
  7 44  1  0
  7 45  1  0
  8 46  1  0
  8 47  1  0
 11 48  1  0
 12 49  1  0
 14 50  1  0
 15 51  1  0
 17 52  1  0
 27 53  1  0
 28 54  1  0
 31 55  1  0
 33 56  1  0
 33 57  1  0
 33 58  1  0
M  END
$$$$
[H]N=C(c1c([H])c([H])c(C([H])([H])N([H])C(=O)[C@@]([H])(N([H])C(=O)[C@@]([H])(N([H])C(=O)[C@@]([H])(N([H])C(=O)[C@@]([H])(N([H])C(=O)[C@@]([H])(N([H])C(=O)[C@@]([H])(N([H])C(=O)[C@@]([H])(N([H])C(=O)C([H])([H])[H])C([H])(C([H])([H])[H])C([H])([H])[H])C([H])([H])C([H])([H])C(=O)N([H])[H])C([H])([H])C([H])([H])C(=O)N([H])[H])C([H])([H])C([H])(C([H])([H])[H])C([H])([H])[H])C([H])([H])C([H])([H])C(=O)N([H])[H])C([H])([H])C([H])([H])C(=O)N([H])[H])C([H])([H])C([H])([H])C([H])([H])N([H])C(=N[H])N([H])[H])c([H])c1[H])N([H])[H]
     RDKit          3D

153153  0  0  0  0  0  0  0  0999 V2000
   -0.1542    3.2904   -3.2038 C   0  0  0  0  0  0  0  0  0  0  0  0
   -0.8559    3.6217   -1.9221 C   0  0  0  0  0  0  0  0  0  0  0  0
   -0.8016    5.1318   -1.7095 C   0  0  0  0  0  0  0  0  0  0  0  0
   -2.2499    3.1646   -1.7886 C   0  0  0  0  0  0  0  0  0  0  0  0
   -2.5063    1.6595   -1.8120 C   0  0  2  0  0  0  0  0  0  0  0  0
   -3.8725    1.4055   -1.6974 N   0  0  0  0  0  0  0  0  0  0  0  0
   -4.7180    0.6309   -0.8948 C   0  0  0  0  0  0  0  0  0  0  0  0
   -4.2823   -0.0649    0.0452 O   0  0  0  0  0  0  0  0  0  0  0  0
   -6.1765    0.6219   -1.1709 C   0  0  2  0  0  0  0  0  0  0  0  0
   -6.7641    1.9464   -1.5755 C   0  0  0  0  0  0  0  0  0  0  0  0
   -8.2690    1.8062   -1.7756 C   0  0  0  0  0  0  0  0  0  0  0  0
   -8.8407    3.0875   -2.2310 C   0  0  0  0  0  0  0  0  0  0  0  0
  -10.2016    3.4672   -2.1662 N   0  0  0  0  0  0  0  0  0  0  0  0
   -8.0314    3.9465   -2.7423 O   0  0  0  0  0  0  0  0  0  0  0  0
   -6.9362   -0.1943   -0.3480 N   0  0  0  0  0  0  0  0  0  0  0  0
   -7.2226   -0.1628    1.0416 C   0  0  0  0  0  0  0  0  0  0  0  0
   -6.7429    0.7925    1.7139 O   0  0  0  0  0  0  0  0  0  0  0  0
   -8.0667   -1.1700    1.6873 C   0  0  2  0  0  0  0  0  0  0  0  0
   -7.6308   -2.5596    1.6234 C   0  0  0  0  0  0  0  0  0  0  0  0
   -7.4394   -3.2350    0.3119 C   0  0  0  0  0  0  0  0  0  0  0  0
   -7.0322   -4.6537    0.5285 C   0  0  0  0  0  0  0  0  0  0  0  0
   -6.8373   -5.4569   -0.6160 N   0  0  0  0  0  0  0  0  0  0  0  0
   -6.8654   -5.1202    1.6604 O   0  0  0  0  0  0  0  0  0  0  0  0
   -9.4565   -0.8508    1.4515 N   0  0  0  0  0  0  0  0  0  0  0  0
  -10.5459   -1.2879    2.1958 C   0  0  0  0  0  0  0  0  0  0  0  0
  -10.2577   -2.0333    3.1992 O   0  0  0  0  0  0  0  0  0  0  0  0
  -11.9705   -1.0017    1.9702 C   0  0  1  0  0  0  0  0  0  0  0  0
  -12.7400   -0.6780    3.1366 N   0  0  0  0  0  0  0  0  0  0  0  0
  -12.2904   -0.1007    4.3318 C   0  0  0  0  0  0  0  0  0  0  0  0
  -13.1730    0.1654    5.5048 C   0  0  0  0  0  0  0  0  0  0  0  0
  -11.0871    0.2225    4.4655 O   0  0  0  0  0  0  0  0  0  0  0  0
  -12.3548   -0.1933    0.8061 C   0  0  0  0  0  0  0  0  0  0  0  0
  -12.0337   -0.7648   -0.5618 C   0  0  0  0  0  0  0  0  0  0  0  0
  -11.8510    1.2426    0.9131 C   0  0  0  0  0  0  0  0  0  0  0  0
   -1.6127    1.1392   -0.6515 C   0  0  0  0  0  0  0  0  0  0  0  0
   -2.0191    1.4760    0.4487 O   0  0  0  0  0  0  0  0  0  0  0  0
   -0.5108    0.3900   -1.0251 N   0  0  0  0  0  0  0  0  0  0  0  0
    0.6374   -0.3710   -1.2198 C   0  0  1  0  0  0  0  0  0  0  0  0
    0.8954   -0.5546   -2.7083 C   0  0  0  0  0  0  0  0  0  0  0  0
    2.1282   -1.2806   -3.0678 C   0  0  0  0  0  0  0  0  0  0  0  0
    2.2299   -1.3621   -4.5740 C   0  0  0  0  0  0  0  0  0  0  0  0
    3.4810   -1.3967   -5.2330 N   0  0  0  0  0  0  0  0  0  0  0  0
    1.1521   -1.4015   -5.2127 O   0  0  0  0  0  0  0  0  0  0  0  0
    1.9374    0.0480   -0.5999 C   0  0  0  0  0  0  0  0  0  0  0  0
    2.2012    1.2448   -0.4334 O   0  0  0  0  0  0  0  0  0  0  0  0
    2.7915   -0.9939   -0.2329 N   0  0  0  0  0  0  0  0  0  0  0  0
    4.0927   -0.9777    0.3799 C   0  0  1  0  0  0  0  0  0  0  0  0
    3.8861   -1.4271    1.8250 C   0  0  0  0  0  0  0  0  0  0  0  0
    3.0306   -0.4789    2.6241 C   0  0  0  0  0  0  0  0  0  0  0  0
    3.6801    0.8515    2.7859 C   0  0  0  0  0  0  0  0  0  0  0  0
    2.9745    1.8458    3.5614 N   0  0  0  0  0  0  0  0  0  0  0  0
    4.7691    1.1913    2.3218 O   0  0  0  0  0  0  0  0  0  0  0  0
    5.0377   -1.9399   -0.2772 C   0  0  0  0  0  0  0  0  0  0  0  0
    4.4330   -2.8238   -0.9813 O   0  0  0  0  0  0  0  0  0  0  0  0
    6.4242   -1.8846   -0.1601 N   0  0  0  0  0  0  0  0  0  0  0  0
    7.7903   -2.0378   -0.2123 C   0  0  1  0  0  0  0  0  0  0  0  0
    8.2191   -1.2083   -1.4339 C   0  0  0  0  0  0  0  0  0  0  0  0
    9.6097   -1.2471   -1.8882 C   0  0  0  0  0  0  0  0  0  0  0  0
   10.1120   -2.5033   -2.4877 C   0  0  0  0  0  0  0  0  0  0  0  0
   10.1872   -3.7112   -1.7855 N   0  0  0  0  0  0  0  0  0  0  0  0
   11.0924   -4.0812   -0.7837 C   0  0  0  0  0  0  0  0  0  0  0  0
   12.4927   -3.8879   -0.8777 N   0  0  0  0  0  0  0  0  0  0  0  0
   10.6355   -4.6530    0.2980 N   0  0  0  0  0  0  0  0  0  0  0  0
    8.4278   -1.3675    1.0173 C   0  0  0  0  0  0  0  0  0  0  0  0
    7.4758   -0.8549    1.7423 O   0  0  0  0  0  0  0  0  0  0  0  0
    9.7048   -1.2755    1.3516 N   0  0  0  0  0  0  0  0  0  0  0  0
   11.0348   -1.1377    1.7703 C   0  0  0  0  0  0  0  0  0  0  0  0
   11.5052    0.2678    1.8456 C   0  0  0  0  0  0  0  0  0  0  0  0
   10.6689    1.3450    1.5821 C   0  0  0  0  0  0  0  0  0  0  0  0
   11.0917    2.6146    1.7476 C   0  0  0  0  0  0  0  0  0  0  0  0
   12.3952    2.8799    2.1972 C   0  0  0  0  0  0  0  0  0  0  0  0
   13.2201    1.8013    2.4530 C   0  0  0  0  0  0  0  0  0  0  0  0
   12.8035    0.4982    2.2863 C   0  0  0  0  0  0  0  0  0  0  0  0
   12.7815    4.2560    2.4021 C   0  0  0  0  0  0  0  0  0  0  0  0
   11.8280    5.2844    2.1486 N   0  0  0  0  0  0  0  0  0  0  0  0
   13.9504    4.6076    2.8288 N   0  0  0  0  0  0  0  0  0  0  0  0
   -0.7343    2.5890   -3.8301 H   0  0  0  0  0  0  0  0  0  0  0  0
    0.0710    4.2279   -3.7545 H   0  0  0  0  0  0  0  0  0  0  0  0
    0.8342    2.8160   -2.9751 H   0  0  0  0  0  0  0  0  0  0  0  0
   -0.2259    3.1723   -1.0798 H   0  0  0  0  0  0  0  0  0  0  0  0
   -1.6150    5.3370   -0.9526 H   0  0  0  0  0  0  0  0  0  0  0  0
    0.1679    5.4096   -1.2602 H   0  0  0  0  0  0  0  0  0  0  0  0
   -1.0180    5.6290   -2.6683 H   0  0  0  0  0  0  0  0  0  0  0  0
   -2.6839    3.5730   -0.8329 H   0  0  0  0  0  0  0  0  0  0  0  0
   -2.8664    3.6051   -2.6024 H   0  0  0  0  0  0  0  0  0  0  0  0
   -2.0820    1.2072   -2.7043 H   0  0  0  0  0  0  0  0  0  0  0  0
   -4.4410    1.9780   -2.4552 H   0  0  0  0  0  0  0  0  0  0  0  0
   -6.1743    0.0433   -2.2305 H   0  0  0  0  0  0  0  0  0  0  0  0
   -6.3302    2.2787   -2.5684 H   0  0  0  0  0  0  0  0  0  0  0  0
   -6.5470    2.7234   -0.8491 H   0  0  0  0  0  0  0  0  0  0  0  0
   -8.7688    1.5036   -0.8560 H   0  0  0  0  0  0  0  0  0  0  0  0
   -8.3980    1.0114   -2.5380 H   0  0  0  0  0  0  0  0  0  0  0  0
  -10.4705    4.2532   -1.5254 H   0  0  0  0  0  0  0  0  0  0  0  0
  -10.9373    3.0107   -2.7161 H   0  0  0  0  0  0  0  0  0  0  0  0
   -7.5148   -0.9869   -0.8539 H   0  0  0  0  0  0  0  0  0  0  0  0
   -7.9531   -0.9060    2.8641 H   0  0  0  0  0  0  0  0  0  0  0  0
   -8.2498   -3.2396    2.2965 H   0  0  0  0  0  0  0  0  0  0  0  0
   -6.6164   -2.6197    2.1536 H   0  0  0  0  0  0  0  0  0  0  0  0
   -6.5488   -2.7867   -0.2304 H   0  0  0  0  0  0  0  0  0  0  0  0
   -8.2786   -3.2019   -0.3725 H   0  0  0  0  0  0  0  0  0  0  0  0
   -5.9288   -5.4281   -1.1325 H   0  0  0  0  0  0  0  0  0  0  0  0
   -7.6408   -6.0756   -0.9204 H   0  0  0  0  0  0  0  0  0  0  0  0
   -9.6188   -0.2027    0.6455 H   0  0  0  0  0  0  0  0  0  0  0  0
  -12.4023   -2.0842    1.7164 H   0  0  0  0  0  0  0  0  0  0  0  0
  -13.7795   -0.9003    3.0956 H   0  0  0  0  0  0  0  0  0  0  0  0
  -12.9863    1.1992    5.8684 H   0  0  0  0  0  0  0  0  0  0  0  0
  -14.2157   -0.0305    5.2489 H   0  0  0  0  0  0  0  0  0  0  0  0
  -12.7847   -0.5227    6.3084 H   0  0  0  0  0  0  0  0  0  0  0  0
  -13.4918   -0.0986    0.8144 H   0  0  0  0  0  0  0  0  0  0  0  0
  -12.2513   -1.8652   -0.6037 H   0  0  0  0  0  0  0  0  0  0  0  0
  -11.0093   -0.6237   -0.9147 H   0  0  0  0  0  0  0  0  0  0  0  0
  -12.7626   -0.3192   -1.3045 H   0  0  0  0  0  0  0  0  0  0  0  0
  -11.2039    1.4101    1.7892 H   0  0  0  0  0  0  0  0  0  0  0  0
  -12.6823    1.9315    0.8561 H   0  0  0  0  0  0  0  0  0  0  0  0
  -11.2364    1.4101   -0.0126 H   0  0  0  0  0  0  0  0  0  0  0  0
   -0.2286    0.3388    0.3578 H   0  0  0  0  0  0  0  0  0  0  0  0
    0.4379   -1.4300   -0.8022 H   0  0  0  0  0  0  0  0  0  0  0  0
    0.8139    0.4179   -3.2529 H   0  0  0  0  0  0  0  0  0  0  0  0
    0.0115   -1.1374   -3.0968 H   0  0  0  0  0  0  0  0  0  0  0  0
    3.0740   -0.8572   -2.6975 H   0  0  0  0  0  0  0  0  0  0  0  0
    2.1047   -2.3659   -2.7535 H   0  0  0  0  0  0  0  0  0  0  0  0
    3.5130   -1.5633   -6.2613 H   0  0  0  0  0  0  0  0  0  0  0  0
    4.3598   -1.2321   -4.6986 H   0  0  0  0  0  0  0  0  0  0  0  0
    2.4518   -1.9993   -0.4318 H   0  0  0  0  0  0  0  0  0  0  0  0
    4.5063    0.0220    0.2806 H   0  0  0  0  0  0  0  0  0  0  0  0
    3.3761   -2.4072    1.8638 H   0  0  0  0  0  0  0  0  0  0  0  0
    4.8506   -1.5493    2.3245 H   0  0  0  0  0  0  0  0  0  0  0  0
    2.8245   -0.8564    3.6416 H   0  0  0  0  0  0  0  0  0  0  0  0
    2.0508   -0.3609    2.1405 H   0  0  0  0  0  0  0  0  0  0  0  0
    2.3730    1.5478    4.3401 H   0  0  0  0  0  0  0  0  0  0  0  0
    3.1162    2.8370    3.2820 H   0  0  0  0  0  0  0  0  0  0  0  0
    6.4002   -2.8819   -1.1712 H   0  0  0  0  0  0  0  0  0  0  0  0
    8.2385   -3.0042   -0.3141 H   0  0  0  0  0  0  0  0  0  0  0  0
    7.5519   -1.5073   -2.3018 H   0  0  0  0  0  0  0  0  0  0  0  0
    7.8916   -0.1353   -1.2220 H   0  0  0  0  0  0  0  0  0  0  0  0
    9.6560   -0.4759   -2.7565 H   0  0  0  0  0  0  0  0  0  0  0  0
   10.3464   -0.8132   -1.1834 H   0  0  0  0  0  0  0  0  0  0  0  0
    9.6052   -2.6713   -3.4994 H   0  0  0  0  0  0  0  0  0  0  0  0
   11.1880   -2.2867   -2.8421 H   0  0  0  0  0  0  0  0  0  0  0  0
    9.4637   -4.4736   -2.0222 H   0  0  0  0  0  0  0  0  0  0  0  0
   13.0387   -3.7783   -0.0039 H   0  0  0  0  0  0  0  0  0  0  0  0
   13.0338   -3.8464   -1.7714 H   0  0  0  0  0  0  0  0  0  0  0  0
    9.6380   -4.8403    0.4425 H   0  0  0  0  0  0  0  0  0  0  0  0
    9.3441   -0.5907    2.4997 H   0  0  0  0  0  0  0  0  0  0  0  0
   11.7395   -1.6189    1.0017 H   0  0  0  0  0  0  0  0  0  0  0  0
   11.2947   -1.6440    2.6945 H   0  0  0  0  0  0  0  0  0  0  0  0
    9.6669    1.0601    1.2423 H   0  0  0  0  0  0  0  0  0  0  0  0
   10.4032    3.4287    1.5280 H   0  0  0  0  0  0  0  0  0  0  0  0
   14.2173    2.0482    2.8080 H   0  0  0  0  0  0  0  0  0  0  0  0
   13.4706   -0.3263    2.4890 H   0  0  0  0  0  0  0  0  0  0  0  0
   11.2477    5.2948    1.2898 H   0  0  0  0  0  0  0  0  0  0  0  0
   11.7200    6.0458    2.8414 H   0  0  0  0  0  0  0  0  0  0  0  0
   14.1754    5.6256    2.9588 H   0  0  0  0  0  0  0  0  0  0  0  0
  1  2  1  0
  2  3  1  0
  2  4  1  0
  4  5  1  0
  5  6  1  0
  6  7  1  0
  7  8  2  0
  7  9  1  0
  9 10  1  0
 10 11  1  0
 11 12  1  0
 12 13  1  0
 12 14  2  0
  9 15  1  0
 15 16  1  0
 16 17  2  0
 16 18  1  0
 18 19  1  0
 19 20  1  0
 20 21  1  0
 21 22  1  0
 21 23  2  0
 18 24  1  0
 24 25  1  0
 25 26  2  0
 25 27  1  0
 27 28  1  0
 28 29  1  0
 29 30  1  0
 29 31  2  0
 27 32  1  0
 32 33  1  0
 32 34  1  0
  5 35  1  0
 35 36  2  0
 35 37  1  0
 37 38  1  0
 38 39  1  0
 39 40  1  0
 40 41  1  0
 41 42  1  0
 41 43  2  0
 38 44  1  0
 44 45  2  0
 44 46  1  0
 46 47  1  0
 47 48  1  0
 48 49  1  0
 49 50  1  0
 50 51  1  0
 50 52  2  0
 47 53  1  0
 53 54  2  0
 53 55  1  0
 55 56  1  0
 56 57  1  0
 57 58  1  0
 58 59  1  0
 59 60  1  0
 60 61  1  0
 61 62  1  0
 61 63  2  3
 56 64  1  0
 64 65  2  0
 64 66  1  0
 66 67  1  0
 67 68  1  0
 68 69  2  0
 69 70  1  0
 70 71  2  0
 71 72  1  0
 72 73  2  0
 71 74  1  0
 74 75  1  0
 74 76  2  3
 73 68  1  0
  1 77  1  0
  1 78  1  0
  1 79  1  0
  2 80  1  0
  3 81  1  0
  3 82  1  0
  3 83  1  0
  4 84  1  0
  4 85  1  0
  5 86  1  6
  6 87  1  0
  9 88  1  6
 10 89  1  0
 10 90  1  0
 11 91  1  0
 11 92  1  0
 13 93  1  0
 13 94  1  0
 15 95  1  0
 18 96  1  1
 19 97  1  0
 19 98  1  0
 20 99  1  0
 20100  1  0
 22101  1  0
 22102  1  0
 24103  1  0
 27104  1  6
 28105  1  0
 30106  1  0
 30107  1  0
 30108  1  0
 32109  1  0
 33110  1  0
 33111  1  0
 33112  1  0
 34113  1  0
 34114  1  0
 34115  1  0
 37116  1  0
 38117  1  1
 39118  1  0
 39119  1  0
 40120  1  0
 40121  1  0
 42122  1  0
 42123  1  0
 46124  1  0
 47125  1  1
 48126  1  0
 48127  1  0
 49128  1  0
 49129  1  0
 51130  1  0
 51131  1  0
 55132  1  0
 56133  1  6
 57134  1  0
 57135  1  0
 58136  1  0
 58137  1  0
 59138  1  0
 59139  1  0
 60140  1  0
 62141  1  0
 62142  1  0
 63143  1  0
 66144  1  0
 67145  1  0
 67146  1  0
 69147  1  0
 70148  1  0
 72149  1  0
 73150  1  0
 75151  1  0
 75152  1  0
 76153  1  0
M  END
$$$$
[H]c1nc(N2C([H])([H])[C@@]3([H])N(C([H])([H])[H])C([H])([H])[C@]2([H])C3([H])[H])c([H])nc1-c1sc(Cl)c([H])c1[H]
     RDKit          3D

 35 38  0  0  0  0  0  0  0  0999 V2000
   -4.9347    1.3154    0.2028 C   0  0  0  0  0  0  0  0  0  0  0  0
   -3.5836    0.8666    0.2807 N   0  0  0  0  0  0  0  0  0  0  0  0
   -3.0421    0.4288   -0.9934 C   0  0  0  0  0  0  0  0  0  0  0  0
   -2.2000   -0.7597   -0.5773 C   0  0  2  0  0  0  0  0  0  0  0  0
   -3.2433   -1.4047    0.3587 C   0  0  0  0  0  0  0  0  0  0  0  0
   -3.3376   -0.1531    1.2518 C   0  0  1  0  0  0  0  0  0  0  0  0
   -1.8854   -0.0677    1.6599 C   0  0  0  0  0  0  0  0  0  0  0  0
   -1.2077   -0.3633    0.3851 N   0  0  0  0  0  0  0  0  0  0  0  0
    0.2030   -0.2436    0.2387 C   0  0  0  0  0  0  0  0  0  0  0  0
    0.8071   -0.5284   -0.9695 C   0  0  0  0  0  0  0  0  0  0  0  0
    2.1530   -0.4199   -1.1282 N   0  0  0  0  0  0  0  0  0  0  0  0
    2.9450   -0.0333   -0.1216 C   0  0  0  0  0  0  0  0  0  0  0  0
    2.3484    0.2512    1.0825 C   0  0  0  0  0  0  0  0  0  0  0  0
    1.0114    0.1435    1.2406 N   0  0  0  0  0  0  0  0  0  0  0  0
    4.4092    0.0853   -0.2925 C   0  0  0  0  0  0  0  0  0  0  0  0
    5.1626   -0.1527   -1.3988 C   0  0  0  0  0  0  0  0  0  0  0  0
    6.4849    0.0291   -1.2985 C   0  0  0  0  0  0  0  0  0  0  0  0
    6.9728    0.4411   -0.0864 C   0  0  0  0  0  0  0  0  0  0  0  0
    8.6410    0.7722    0.3870 Cl  0  0  0  0  0  0  0  0  0  0  0  0
    5.5665    0.5595    0.8690 S   0  0  0  0  0  0  0  0  0  0  0  0
   -5.5543    0.7034    0.8934 H   0  0  0  0  0  0  0  0  0  0  0  0
   -4.9469    2.3978    0.4893 H   0  0  0  0  0  0  0  0  0  0  0  0
   -5.2943    1.2058   -0.8600 H   0  0  0  0  0  0  0  0  0  0  0  0
   -3.9102    0.0549   -1.5928 H   0  0  0  0  0  0  0  0  0  0  0  0
   -2.4764    1.2005   -1.5117 H   0  0  0  0  0  0  0  0  0  0  0  0
   -1.8801   -1.4026   -1.3677 H   0  0  0  0  0  0  0  0  0  0  0  0
   -4.1927   -1.5741   -0.1483 H   0  0  0  0  0  0  0  0  0  0  0  0
   -2.8272   -2.2569    0.8958 H   0  0  0  0  0  0  0  0  0  0  0  0
   -4.0404   -0.2519    2.0512 H   0  0  0  0  0  0  0  0  0  0  0  0
   -1.6170   -0.8654    2.3899 H   0  0  0  0  0  0  0  0  0  0  0  0
   -1.6021    0.9166    2.0415 H   0  0  0  0  0  0  0  0  0  0  0  0
    0.1808   -0.8404   -1.7869 H   0  0  0  0  0  0  0  0  0  0  0  0
    2.9985    0.5645    1.8952 H   0  0  0  0  0  0  0  0  0  0  0  0
    4.6847   -0.4868   -2.3496 H   0  0  0  0  0  0  0  0  0  0  0  0
    7.2071   -0.1318   -2.1300 H   0  0  0  0  0  0  0  0  0  0  0  0
  1  2  1  0
  2  3  1  0
  3  4  1  0
  4  5  1  0
  5  6  1  0
  6  7  1  0
  7  8  1  0
  8  9  1  0
  9 10  2  0
 10 11  1  0
 11 12  2  0
 12 13  1  0
 13 14  2  0
 12 15  1  0
 15 16  2  0
 16 17  1  0
 17 18  2  0
 18 19  1  0
 18 20  1  0
  6  2  1  0
 14  9  1  0
 20 15  1  0
  8  4  1  0
  1 21  1  0
  1 22  1  0
  1 23  1  0
  3 24  1  0
  3 25  1  0
  4 26  1  6
  5 27  1  0
  5 28  1  0
  6 29  1  1
  7 30  1  0
  7 31  1  0
 10 32  1  0
 13 33  1  0
 16 34  1  0
 17 35  1  0
M  END
$$$$
[H]c1nc([H])c(-c2c([H])c([H])c([H])c(C(=O)N([H])c3c([H])c(N([H])C(=O)c4c([H])c([H])c(C([H])([H])N5C([H])([H])C([H])([H])N(C([H])([H])[H])C([H])([H])C5([H])[H])c(C(F)(F)F)c4[H])c([H])c([H])c3C([H])([H])[H])c2[H])o1
     RDKit          3D

 72 76  0  0  0  0  0  0  0  0999 V2000
   -9.7168   -2.5342   -0.0047 C   0  0  0  0  0  0  0  0  0  0  0  0
   -9.5350   -1.1146    0.1372 N   0  0  0  0  0  0  0  0  0  0  0  0
   -9.0551   -0.7427    1.4513 C   0  0  0  0  0  0  0  0  0  0  0  0
   -7.6651   -1.2163    1.6171 C   0  0  0  0  0  0  0  0  0  0  0  0
   -6.7466   -0.6903    0.6025 N   0  0  0  0  0  0  0  0  0  0  0  0
   -5.6955    0.0339    1.2858 C   0  0  0  0  0  0  0  0  0  0  0  0
   -4.5098    0.3672    0.5252 C   0  0  0  0  0  0  0  0  0  0  0  0
   -4.2566   -0.0526   -0.7826 C   0  0  0  0  0  0  0  0  0  0  0  0
   -3.0994    0.2447   -1.4695 C   0  0  0  0  0  0  0  0  0  0  0  0
   -2.1521    0.9906   -0.8305 C   0  0  0  0  0  0  0  0  0  0  0  0
   -2.3623    1.4229    0.4584 C   0  0  0  0  0  0  0  0  0  0  0  0
   -3.5209    1.1329    1.1629 C   0  0  0  0  0  0  0  0  0  0  0  0
   -3.7305    1.6179    2.5350 C   0  0  0  0  0  0  0  0  0  0  0  0
   -3.9119    0.6716    3.4895 F   0  0  0  0  0  0  0  0  0  0  0  0
   -2.5425    2.2813    2.9125 F   0  0  0  0  0  0  0  0  0  0  0  0
   -4.6804    2.6476    2.5761 F   0  0  0  0  0  0  0  0  0  0  0  0
   -0.9279    1.3448   -1.5378 C   0  0  0  0  0  0  0  0  0  0  0  0
   -1.0221    1.7484   -2.7170 O   0  0  0  0  0  0  0  0  0  0  0  0
    0.3447    1.2424   -0.9258 N   0  0  0  0  0  0  0  0  0  0  0  0
    1.5853    1.5798   -1.5246 C   0  0  0  0  0  0  0  0  0  0  0  0
    1.6737    2.5572   -2.4651 C   0  0  0  0  0  0  0  0  0  0  0  0
    2.9178    2.8278   -3.0538 C   0  0  0  0  0  0  0  0  0  0  0  0
    4.0342    2.1143   -2.6842 C   0  0  0  0  0  0  0  0  0  0  0  0
    5.3600    2.3828   -3.3000 C   0  0  0  0  0  0  0  0  0  0  0  0
    3.9761    1.1053   -1.7219 C   0  0  0  0  0  0  0  0  0  0  0  0
    5.1284    0.4006   -1.3914 N   0  0  0  0  0  0  0  0  0  0  0  0
    5.3348   -0.6297   -0.4672 C   0  0  0  0  0  0  0  0  0  0  0  0
    4.4243   -1.0734    0.2430 O   0  0  0  0  0  0  0  0  0  0  0  0
    6.6517   -1.2455   -0.2882 C   0  0  0  0  0  0  0  0  0  0  0  0
    7.1521   -2.1330   -1.2415 C   0  0  0  0  0  0  0  0  0  0  0  0
    8.3870   -2.7289   -1.1084 C   0  0  0  0  0  0  0  0  0  0  0  0
    9.1453   -2.4300    0.0095 C   0  0  0  0  0  0  0  0  0  0  0  0
    8.7010   -1.5592    0.9842 C   0  0  0  0  0  0  0  0  0  0  0  0
    7.4474   -0.9864    0.7993 C   0  0  0  0  0  0  0  0  0  0  0  0
    9.5167   -1.2648    2.1469 C   0  0  0  0  0  0  0  0  0  0  0  0
    9.1227   -0.3752    3.1494 C   0  0  0  0  0  0  0  0  0  0  0  0
   10.1242   -0.3610    4.0479 N   0  0  0  0  0  0  0  0  0  0  0  0
   11.0817   -1.1914    3.6268 C   0  0  0  0  0  0  0  0  0  0  0  0
   10.6749   -1.7067    2.4903 O   0  0  0  0  0  0  0  0  0  0  0  0
    2.7504    0.8651   -1.1667 C   0  0  0  0  0  0  0  0  0  0  0  0
   -7.4940    0.1667   -0.2982 C   0  0  0  0  0  0  0  0  0  0  0  0
   -8.6965   -0.5206   -0.8752 C   0  0  0  0  0  0  0  0  0  0  0  0
  -10.4101   -2.7066   -0.8547 H   0  0  0  0  0  0  0  0  0  0  0  0
  -10.2390   -2.8995    0.9063 H   0  0  0  0  0  0  0  0  0  0  0  0
   -8.7960   -3.0968   -0.1889 H   0  0  0  0  0  0  0  0  0  0  0  0
   -9.6933   -1.2950    2.1962 H   0  0  0  0  0  0  0  0  0  0  0  0
   -9.2136    0.3168    1.6481 H   0  0  0  0  0  0  0  0  0  0  0  0
   -7.6286   -2.3180    1.5197 H   0  0  0  0  0  0  0  0  0  0  0  0
   -7.2857   -0.9527    2.6161 H   0  0  0  0  0  0  0  0  0  0  0  0
   -5.3747   -0.6841    2.1076 H   0  0  0  0  0  0  0  0  0  0  0  0
   -6.1985    0.8642    1.8177 H   0  0  0  0  0  0  0  0  0  0  0  0
   -5.0009   -0.6656   -1.2729 H   0  0  0  0  0  0  0  0  0  0  0  0
   -2.9370   -0.0918   -2.4719 H   0  0  0  0  0  0  0  0  0  0  0  0
   -1.5804    2.0186    0.9386 H   0  0  0  0  0  0  0  0  0  0  0  0
    0.3682    0.8764    0.0788 H   0  0  0  0  0  0  0  0  0  0  0  0
    0.8303    3.1562   -2.7791 H   0  0  0  0  0  0  0  0  0  0  0  0
    2.9825    3.6145   -3.8072 H   0  0  0  0  0  0  0  0  0  0  0  0
    5.2565    3.2903   -3.9419 H   0  0  0  0  0  0  0  0  0  0  0  0
    5.6840    1.5716   -3.9672 H   0  0  0  0  0  0  0  0  0  0  0  0
    6.1153    2.6494   -2.5348 H   0  0  0  0  0  0  0  0  0  0  0  0
    6.0403    0.6741   -1.9195 H   0  0  0  0  0  0  0  0  0  0  0  0
    6.5149   -2.3405   -2.1144 H   0  0  0  0  0  0  0  0  0  0  0  0
    8.7604   -3.4074   -1.8437 H   0  0  0  0  0  0  0  0  0  0  0  0
   10.1242   -2.8917    0.1334 H   0  0  0  0  0  0  0  0  0  0  0  0
    7.1002   -0.2922    1.5804 H   0  0  0  0  0  0  0  0  0  0  0  0
    8.2269    0.2103    3.2525 H   0  0  0  0  0  0  0  0  0  0  0  0
   11.9977   -1.3542    4.1816 H   0  0  0  0  0  0  0  0  0  0  0  0
    2.5716    0.1166   -0.4151 H   0  0  0  0  0  0  0  0  0  0  0  0
   -6.8692    0.5563   -1.0791 H   0  0  0  0  0  0  0  0  0  0  0  0
   -7.8319    1.0305    0.3227 H   0  0  0  0  0  0  0  0  0  0  0  0
   -8.4088   -1.3303   -1.5772 H   0  0  0  0  0  0  0  0  0  0  0  0
   -9.3184    0.1909   -1.4510 H   0  0  0  0  0  0  0  0  0  0  0  0
  1  2  1  0
  2  3  1  0
  3  4  1  0
  4  5  1  0
  5  6  1  0
  6  7  1  0
  7  8  2  0
  8  9  1  0
  9 10  2  0
 10 11  1  0
 11 12  2  0
 12 13  1  0
 13 14  1  0
 13 15  1  0
 13 16  1  0
 10 17  1  0
 17 18  2  0
 17 19  1  0
 19 20  1  0
 20 21  2  0
 21 22  1  0
 22 23  2  0
 23 24  1  0
 23 25  1  0
 25 26  1  0
 26 27  1  0
 27 28  2  0
 27 29  1  0
 29 30  2  0
 30 31  1  0
 31 32  2  0
 32 33  1  0
 33 34  2  0
 33 35  1  0
 35 36  2  0
 36 37  1  0
 37 38  2  0
 38 39  1  0
 25 40  2  0
  5 41  1  0
 41 42  1  0
 42  2  1  0
 12  7  1  0
 40 20  1  0
 34 29  1  0
 39 35  1  0
  1 43  1  0
  1 44  1  0
  1 45  1  0
  3 46  1  0
  3 47  1  0
  4 48  1  0
  4 49  1  0
  6 50  1  0
  6 51  1  0
  8 52  1  0
  9 53  1  0
 11 54  1  0
 19 55  1  0
 21 56  1  0
 22 57  1  0
 24 58  1  0
 24 59  1  0
 24 60  1  0
 26 61  1  0
 30 62  1  0
 31 63  1  0
 32 64  1  0
 34 65  1  0
 36 66  1  0
 38 67  1  0
 40 68  1  0
 41 69  1  0
 41 70  1  0
 42 71  1  0
 42 72  1  0
M  END
$$$$
[H]O[C@]1([H])[C@]([H])(n2c([H])nc3c(N([H])[H])nc([H])nc32)O[C@]([H])(C([H])([H])OP(=O)(O[H])OP(=O)(O[H])OP(=O)(O[H])O[H])[C@]1([H])O[H]
     RDKit          3D

 47 49  0  0  0  0  0  0  0  0999 V2000
   -7.6030    0.8604   -0.0098 N   0  0  0  0  0  0  0  0  0  0  0  0
   -6.3376    0.3686    0.4236 C   0  0  0  0  0  0  0  0  0  0  0  0
   -6.0364    0.2032    1.7127 N   0  0  0  0  0  0  0  0  0  0  0  0
   -4.8287   -0.2641    2.0744 C   0  0  0  0  0  0  0  0  0  0  0  0
   -3.8977   -0.5750    1.1392 N   0  0  0  0  0  0  0  0  0  0  0  0
   -4.1429   -0.4303   -0.1592 C   0  0  0  0  0  0  0  0  0  0  0  0
   -3.4086   -0.6608   -1.2589 N   0  0  0  0  0  0  0  0  0  0  0  0
   -4.1748   -0.3307   -2.3137 C   0  0  0  0  0  0  0  0  0  0  0  0
   -5.3852    0.1050   -1.8719 N   0  0  0  0  0  0  0  0  0  0  0  0
   -5.3772    0.0477   -0.5377 C   0  0  0  0  0  0  0  0  0  0  0  0
   -2.0715   -1.1579   -1.3557 C   0  0  2  0  0  0  0  0  0  0  0  0
   -1.4230   -1.2482   -0.1536 O   0  0  0  0  0  0  0  0  0  0  0  0
   -0.0686   -1.1372   -0.3578 C   0  0  2  0  0  0  0  0  0  0  0  0
    0.4722   -0.1208    0.6154 C   0  0  0  0  0  0  0  0  0  0  0  0
    1.8212    0.0867    0.5173 O   0  0  0  0  0  0  0  0  0  0  0  0
    2.2900    1.2320    1.6476 P   0  0  0  0  0  0  0  0  0  0  0  0
    2.8684    2.6482    0.9012 O   0  0  0  0  0  0  0  0  0  0  0  0
    1.0882    1.6678    2.4902 O   0  0  0  0  0  0  0  0  0  0  0  0
    3.4649    0.6938    2.7033 O   0  0  0  0  0  0  0  0  0  0  0  0
    4.7045   -0.1460    1.9671 P   0  0  0  0  0  0  0  0  0  0  0  0
    5.9322   -0.3710    3.1375 O   0  0  0  0  0  0  0  0  0  0  0  0
    4.2971   -1.5357    1.5214 O   0  0  0  0  0  0  0  0  0  0  0  0
    5.4147    0.7221    0.6982 O   0  0  0  0  0  0  0  0  0  0  0  0
    6.7876   -0.1705    0.2119 P   0  0  0  0  0  0  0  0  0  0  0  0
    7.1373    0.1038   -1.4198 O   0  0  0  0  0  0  0  0  0  0  0  0
    8.1367    0.2075    1.1164 O   0  0  0  0  0  0  0  0  0  0  0  0
    6.5209   -1.6622    0.3633 O   0  0  0  0  0  0  0  0  0  0  0  0
    0.1791   -0.7861   -1.7852 C   0  0  2  0  0  0  0  0  0  0  0  0
    1.1876    0.1107   -1.9982 O   0  0  0  0  0  0  0  0  0  0  0  0
   -1.1890   -0.2229   -2.1937 C   0  0  2  0  0  0  0  0  0  0  0  0
   -1.3604    1.0649   -1.6987 O   0  0  0  0  0  0  0  0  0  0  0  0
   -7.6704    1.7504   -0.5609 H   0  0  0  0  0  0  0  0  0  0  0  0
   -8.4382    0.2917    0.2503 H   0  0  0  0  0  0  0  0  0  0  0  0
   -4.5738   -0.4023    3.1218 H   0  0  0  0  0  0  0  0  0  0  0  0
   -3.9325   -0.3787   -3.3657 H   0  0  0  0  0  0  0  0  0  0  0  0
   -2.0251   -2.1491   -1.8865 H   0  0  0  0  0  0  0  0  0  0  0  0
    0.3821   -2.1384   -0.1687 H   0  0  0  0  0  0  0  0  0  0  0  0
   -0.0829    0.8301    0.4570 H   0  0  0  0  0  0  0  0  0  0  0  0
    0.2273   -0.4983    1.6375 H   0  0  0  0  0  0  0  0  0  0  0  0
    2.8336    2.5812   -0.0800 H   0  0  0  0  0  0  0  0  0  0  0  0
    5.7845    0.1906    3.9311 H   0  0  0  0  0  0  0  0  0  0  0  0
    6.2643    0.1473   -1.8917 H   0  0  0  0  0  0  0  0  0  0  0  0
    8.1429   -0.1641    2.0259 H   0  0  0  0  0  0  0  0  0  0  0  0
    0.2862   -1.7311   -2.3940 H   0  0  0  0  0  0  0  0  0  0  0  0
    1.2353    0.3168   -2.9507 H   0  0  0  0  0  0  0  0  0  0  0  0
   -1.3781   -0.3201   -3.2600 H   0  0  0  0  0  0  0  0  0  0  0  0
   -2.0531    1.0967   -0.9924 H   0  0  0  0  0  0  0  0  0  0  0  0
  1  2  1  0
  2  3  2  0
  3  4  1  0
  4  5  2  0
  5  6  1  0
  6  7  1  0
  7  8  1  0
  8  9  2  0
  9 10  1  0
  7 11  1  0
 11 12  1  0
 12 13  1  0
 13 14  1  0
 14 15  1  0
 15 16  1  0
 16 17  1  0
 16 18  2  0
 16 19  1  0
 19 20  1  0
 20 21  1  0
 20 22  2  0
 20 23  1  0
 23 24  1  0
 24 25  1  0
 24 26  1  0
 24 27  2  0
 13 28  1  0
 28 29  1  0
 28 30  1  0
 30 31  1  0
 10  2  1  0
 30 11  1  0
 10  6  2  0
  1 32  1  0
  1 33  1  0
  4 34  1  0
  8 35  1  0
 11 36  1  6
 13 37  1  1
 14 38  1  0
 14 39  1  0
 17 40  1  0
 21 41  1  0
 25 42  1  0
 26 43  1  0
 28 44  1  6
 29 45  1  0
 30 46  1  6
 31 47  1  0
M  END
$$$$
[H]c1c([H])c([H])c(N2C([H])([H])C([H])([H])N(c3nc4c([H])c([H])c([H])c([H])c4c(=O)n3[H])C([H])([H])C2([H])[H])c(OC([H])([H])[H])c1[H]
     RDKit          3D

 45 48  0  0  0  0  0  0  0  0999 V2000
    4.4464   -2.6670    0.3374 C   0  0  0  0  0  0  0  0  0  0  0  0
    3.5821   -1.5829    0.0707 O   0  0  0  0  0  0  0  0  0  0  0  0
    4.0557   -0.5513   -0.7179 C   0  0  0  0  0  0  0  0  0  0  0  0
    5.3462   -0.5878   -1.2308 C   0  0  0  0  0  0  0  0  0  0  0  0
    5.8504    0.4230   -2.0212 C   0  0  0  0  0  0  0  0  0  0  0  0
    5.0179    1.4888   -2.2902 C   0  0  0  0  0  0  0  0  0  0  0  0
    3.7281    1.5289   -1.7795 C   0  0  0  0  0  0  0  0  0  0  0  0
    3.2300    0.5143   -0.9893 C   0  0  0  0  0  0  0  0  0  0  0  0
    1.9247    0.5098   -0.4398 N   0  0  0  0  0  0  0  0  0  0  0  0
    1.6275    0.5277    0.9566 C   0  0  0  0  0  0  0  0  0  0  0  0
    0.3110   -0.2079    1.2183 C   0  0  0  0  0  0  0  0  0  0  0  0
   -0.7431    0.3366    0.3857 N   0  0  0  0  0  0  0  0  0  0  0  0
   -0.3606    1.1245   -0.7686 C   0  0  0  0  0  0  0  0  0  0  0  0
    0.8295    0.4827   -1.4157 C   0  0  0  0  0  0  0  0  0  0  0  0
   -2.1219    0.1262    0.6612 C   0  0  0  0  0  0  0  0  0  0  0  0
   -3.0812    0.6461   -0.1257 N   0  0  0  0  0  0  0  0  0  0  0  0
   -4.3968    0.4751    0.0933 C   0  0  0  0  0  0  0  0  0  0  0  0
   -5.3648    1.0102   -0.7159 C   0  0  0  0  0  0  0  0  0  0  0  0
   -6.7126    0.8091   -0.4530 C   0  0  0  0  0  0  0  0  0  0  0  0
   -7.1237    0.0708    0.6213 C   0  0  0  0  0  0  0  0  0  0  0  0
   -6.1476   -0.4723    1.4422 C   0  0  0  0  0  0  0  0  0  0  0  0
   -4.8010   -0.2838    1.1980 C   0  0  0  0  0  0  0  0  0  0  0  0
   -3.8199   -0.8153    2.0025 C   0  0  0  0  0  0  0  0  0  0  0  0
   -4.1436   -1.5004    3.0007 O   0  0  0  0  0  0  0  0  0  0  0  0
   -2.5228   -0.6082    1.7301 N   0  0  0  0  0  0  0  0  0  0  0  0
    5.4258   -2.3317    0.7455 H   0  0  0  0  0  0  0  0  0  0  0  0
    4.6151   -3.2929   -0.5600 H   0  0  0  0  0  0  0  0  0  0  0  0
    3.9803   -3.3175    1.1125 H   0  0  0  0  0  0  0  0  0  0  0  0
    6.0226   -1.4229   -1.0302 H   0  0  0  0  0  0  0  0  0  0  0  0
    6.8629    0.3967   -2.4248 H   0  0  0  0  0  0  0  0  0  0  0  0
    5.3731    2.2916   -2.8993 H   0  0  0  0  0  0  0  0  0  0  0  0
    3.0588    2.3596   -1.9804 H   0  0  0  0  0  0  0  0  0  0  0  0
    2.4036   -0.0154    1.5244 H   0  0  0  0  0  0  0  0  0  0  0  0
    1.5631    1.5693    1.3510 H   0  0  0  0  0  0  0  0  0  0  0  0
    0.0817   -0.1542    2.2997 H   0  0  0  0  0  0  0  0  0  0  0  0
    0.4751   -1.2670    0.9420 H   0  0  0  0  0  0  0  0  0  0  0  0
   -1.2068    1.2536   -1.4782 H   0  0  0  0  0  0  0  0  0  0  0  0
   -0.0159    2.1260   -0.3776 H   0  0  0  0  0  0  0  0  0  0  0  0
    1.1093    0.9243   -2.3747 H   0  0  0  0  0  0  0  0  0  0  0  0
    0.6110   -0.5923   -1.6130 H   0  0  0  0  0  0  0  0  0  0  0  0
   -5.0928    1.6046   -1.5817 H   0  0  0  0  0  0  0  0  0  0  0  0
   -7.4592    1.2469   -1.1140 H   0  0  0  0  0  0  0  0  0  0  0  0
   -8.1883   -0.0990    0.8450 H   0  0  0  0  0  0  0  0  0  0  0  0
   -6.4671   -1.0581    2.2949 H   0  0  0  0  0  0  0  0  0  0  0  0
   -1.7622   -1.0186    2.3509 H   0  0  0  0  0  0  0  0  0  0  0  0
  1  2  1  0
  2  3  1  0
  3  4  2  0
  4  5  1  0
  5  6  2  0
  6  7  1  0
  7  8  2  0
  8  9  1  0
  9 10  1  0
 10 11  1  0
 11 12  1  0
 12 13  1  0
 13 14  1  0
 12 15  1  0
 15 16  2  0
 16 17  1  0
 17 18  2  0
 18 19  1  0
 19 20  2  0
 20 21  1  0
 21 22  2  0
 22 23  1  0
 23 24  2  0
 23 25  1  0
  8  3  1  0
 14  9  1  0
 25 15  1  0
 22 17  1  0
  1 26  1  0
  1 27  1  0
  1 28  1  0
  4 29  1  0
  5 30  1  0
  6 31  1  0
  7 32  1  0
 10 33  1  0
 10 34  1  0
 11 35  1  0
 11 36  1  0
 13 37  1  0
 13 38  1  0
 14 39  1  0
 14 40  1  0
 18 41  1  0
 19 42  1  0
 20 43  1  0
 21 44  1  0
 25 45  1  0
M  END
$$$$
[H]c1c([H])c([H])c(C([H])([H])N([H])C(=O)C(=O)[C@@]([H])(N([H])C(=O)[C@@]2([H])N(C(=O)C3(c4c([H])c([H])c(Cl)c([H])c4[H])C([H])([H])C3([H])[H])C([H])([H])[C@]([H])(S(=O)(=O)c3c([H])c([H])c([H])c([H])c3Cl)C2([H])[H])C([H])([H])C([H])([H])C([H])([H])[H])c(Cl)c1[H]
     RDKit          3D

 81 85  0  0  0  0  0  0  0  0999 V2000
    2.7751    1.6850   -3.8376 C   0  0  0  0  0  0  0  0  0  0  0  0
    2.2834    0.2996   -4.0666 C   0  0  0  0  0  0  0  0  0  0  0  0
    2.4939   -0.6691   -2.9567 C   0  0  0  0  0  0  0  0  0  0  0  0
    1.8624   -0.3856   -1.6616 C   0  0  2  0  0  0  0  0  0  0  0  0
    0.3945   -0.3055   -1.7493 N   0  0  0  0  0  0  0  0  0  0  0  0
   -0.4289   -0.7991   -0.7250 C   0  0  0  0  0  0  0  0  0  0  0  0
    0.1146   -1.3039    0.2850 O   0  0  0  0  0  0  0  0  0  0  0  0
   -1.9259   -0.7750   -0.7256 C   0  0  2  0  0  0  0  0  0  0  0  0
   -2.4787    0.5992   -1.0396 C   0  0  0  0  0  0  0  0  0  0  0  0
   -2.3275    1.3426    0.2672 C   0  0  2  0  0  0  0  0  0  0  0  0
   -2.3015    0.2842    1.3050 C   0  0  0  0  0  0  0  0  0  0  0  0
   -2.4384   -1.0253    0.5911 N   0  0  0  0  0  0  0  0  0  0  0  0
   -2.9583   -2.1438    1.2042 C   0  0  0  0  0  0  0  0  0  0  0  0
   -3.2300   -1.9623    2.4910 O   0  0  0  0  0  0  0  0  0  0  0  0
   -3.2777   -3.4955    0.7712 C   0  0  0  0  0  0  0  0  0  0  0  0
   -2.9390   -4.6681    1.6318 C   0  0  0  0  0  0  0  0  0  0  0  0
   -4.3452   -4.2734    1.5534 C   0  0  0  0  0  0  0  0  0  0  0  0
   -3.3575   -3.7874   -0.6699 C   0  0  0  0  0  0  0  0  0  0  0  0
   -2.5038   -4.6346   -1.3264 C   0  0  0  0  0  0  0  0  0  0  0  0
   -2.7107   -4.9482   -2.6587 C   0  0  0  0  0  0  0  0  0  0  0  0
   -3.7769   -4.4164   -3.3472 C   0  0  0  0  0  0  0  0  0  0  0  0
   -4.0832   -4.7876   -5.0427 Cl  0  0  0  0  0  0  0  0  0  0  0  0
   -4.6478   -3.5607   -2.6999 C   0  0  0  0  0  0  0  0  0  0  0  0
   -4.4382   -3.2500   -1.3731 C   0  0  0  0  0  0  0  0  0  0  0  0
   -3.6692    2.4744    0.4209 S   0  0  0  0  0  0  0  0  0  0  0  0
   -3.8232    3.2416   -0.8453 O   0  0  0  0  0  0  0  0  0  0  0  0
   -4.9275    1.6404    0.5954 O   0  0  0  0  0  0  0  0  0  0  0  0
   -3.5255    3.5721    1.7333 C   0  0  0  0  0  0  0  0  0  0  0  0
   -4.4494    3.5733    2.7495 C   0  0  0  0  0  0  0  0  0  0  0  0
   -4.3606    4.4404    3.8289 C   0  0  0  0  0  0  0  0  0  0  0  0
   -3.3241    5.3431    3.9160 C   0  0  0  0  0  0  0  0  0  0  0  0
   -2.3914    5.3514    2.9037 C   0  0  0  0  0  0  0  0  0  0  0  0
   -2.4958    4.4770    1.8325 C   0  0  0  0  0  0  0  0  0  0  0  0
   -1.2628    4.5700    0.5934 Cl  0  0  0  0  0  0  0  0  0  0  0  0
    2.3821    0.7557   -0.8810 C   0  0  0  0  0  0  0  0  0  0  0  0
    1.5696    1.6292   -0.3898 O   0  0  0  0  0  0  0  0  0  0  0  0
    3.7869    0.9541   -0.6221 C   0  0  0  0  0  0  0  0  0  0  0  0
    4.6887    0.2174   -1.0828 O   0  0  0  0  0  0  0  0  0  0  0  0
    4.2393    2.0538    0.2090 N   0  0  0  0  0  0  0  0  0  0  0  0
    5.6187    2.2880    0.4993 C   0  0  0  0  0  0  0  0  0  0  0  0
    6.2780    1.2474    1.3309 C   0  0  0  0  0  0  0  0  0  0  0  0
    5.5931    0.2023    1.8479 C   0  0  0  0  0  0  0  0  0  0  0  0
    6.2656   -0.7358    2.6374 C   0  0  0  0  0  0  0  0  0  0  0  0
    7.6040   -0.6349    2.9094 C   0  0  0  0  0  0  0  0  0  0  0  0
    8.2736    0.4571    2.3604 C   0  0  0  0  0  0  0  0  0  0  0  0
    7.6480    1.3855    1.5892 C   0  0  0  0  0  0  0  0  0  0  0  0
    8.5001    2.7528    0.9085 Cl  0  0  0  0  0  0  0  0  0  0  0  0
    2.2688    2.2677   -3.0730 H   0  0  0  0  0  0  0  0  0  0  0  0
    3.8691    1.7299   -3.6534 H   0  0  0  0  0  0  0  0  0  0  0  0
    2.6220    2.2504   -4.8104 H   0  0  0  0  0  0  0  0  0  0  0  0
    1.2138    0.2636   -4.3701 H   0  0  0  0  0  0  0  0  0  0  0  0
    2.8286   -0.0993   -4.9563 H   0  0  0  0  0  0  0  0  0  0  0  0
    2.0617   -1.6566   -3.3617 H   0  0  0  0  0  0  0  0  0  0  0  0
    3.5676   -0.9263   -2.8307 H   0  0  0  0  0  0  0  0  0  0  0  0
    2.0330   -1.2708   -0.9612 H   0  0  0  0  0  0  0  0  0  0  0  0
   -0.0033    0.1226   -2.5882 H   0  0  0  0  0  0  0  0  0  0  0  0
   -2.2250   -1.4277   -1.5237 H   0  0  0  0  0  0  0  0  0  0  0  0
   -1.8454    1.0241   -1.8535 H   0  0  0  0  0  0  0  0  0  0  0  0
   -3.5111    0.5183   -1.4047 H   0  0  0  0  0  0  0  0  0  0  0  0
   -1.3934    1.9324    0.1542 H   0  0  0  0  0  0  0  0  0  0  0  0
   -1.3065    0.2311    1.8162 H   0  0  0  0  0  0  0  0  0  0  0  0
   -3.0930    0.4310    2.0294 H   0  0  0  0  0  0  0  0  0  0  0  0
   -2.5695   -5.5860    1.1303 H   0  0  0  0  0  0  0  0  0  0  0  0
   -2.3013   -4.4145    2.5218 H   0  0  0  0  0  0  0  0  0  0  0  0
   -5.0245   -4.9530    1.0188 H   0  0  0  0  0  0  0  0  0  0  0  0
   -4.7822   -3.7720    2.4439 H   0  0  0  0  0  0  0  0  0  0  0  0
   -1.6365   -5.0817   -0.8078 H   0  0  0  0  0  0  0  0  0  0  0  0
   -2.0551   -5.6125   -3.2121 H   0  0  0  0  0  0  0  0  0  0  0  0
   -5.4892   -3.1406   -3.2291 H   0  0  0  0  0  0  0  0  0  0  0  0
   -5.1414   -2.5656   -0.8853 H   0  0  0  0  0  0  0  0  0  0  0  0
   -5.3016    2.9001    2.7694 H   0  0  0  0  0  0  0  0  0  0  0  0
   -5.0722    4.4603    4.6428 H   0  0  0  0  0  0  0  0  0  0  0  0
   -3.2313    6.0425    4.7620 H   0  0  0  0  0  0  0  0  0  0  0  0
   -1.5574    6.0538    2.9444 H   0  0  0  0  0  0  0  0  0  0  0  0
    3.5200    2.7107    0.6174 H   0  0  0  0  0  0  0  0  0  0  0  0
    5.7517    3.2705    1.0445 H   0  0  0  0  0  0  0  0  0  0  0  0
    6.1580    2.3824   -0.4820 H   0  0  0  0  0  0  0  0  0  0  0  0
    4.5201    0.0565    1.7043 H   0  0  0  0  0  0  0  0  0  0  0  0
    5.6675   -1.5609    3.0251 H   0  0  0  0  0  0  0  0  0  0  0  0
    8.1401   -1.3693    3.5294 H   0  0  0  0  0  0  0  0  0  0  0  0
    9.3450    0.5137    2.5844 H   0  0  0  0  0  0  0  0  0  0  0  0
  1  2  1  0
  2  3  1  0
  3  4  1  0
  4  5  1  0
  5  6  1  0
  6  7  2  0
  6  8  1  0
  8  9  1  0
  9 10  1  0
 10 11  1  0
 11 12  1  0
 12 13  1  0
 13 14  2  0
 13 15  1  0
 15 16  1  0
 16 17  1  0
 15 18  1  0
 18 19  2  0
 19 20  1  0
 20 21  2  0
 21 22  1  0
 21 23  1  0
 23 24  2  0
 10 25  1  0
 25 26  2  0
 25 27  2  0
 25 28  1  0
 28 29  2  0
 29 30  1  0
 30 31  2  0
 31 32  1  0
 32 33  2  0
 33 34  1  0
  4 35  1  0
 35 36  2  0
 35 37  1  0
 37 38  2  0
 37 39  1  0
 39 40  1  0
 40 41  1  0
 41 42  2  0
 42 43  1  0
 43 44  2  0
 44 45  1  0
 45 46  2  0
 46 47  1  0
 12  8  1  0
 17 15  1  0
 24 18  1  0
 33 28  1  0
 46 41  1  0
  1 48  1  0
  1 49  1  0
  1 50  1  0
  2 51  1  0
  2 52  1  0
  3 53  1  0
  3 54  1  0
  4 55  1  1
  5 56  1  0
  8 57  1  6
  9 58  1  0
  9 59  1  0
 10 60  1  6
 11 61  1  0
 11 62  1  0
 16 63  1  0
 16 64  1  0
 17 65  1  0
 17 66  1  0
 19 67  1  0
 20 68  1  0
 23 69  1  0
 24 70  1  0
 29 71  1  0
 30 72  1  0
 31 73  1  0
 32 74  1  0
 39 75  1  0
 40 76  1  0
 40 77  1  0
 42 78  1  0
 43 79  1  0
 44 80  1  0
 45 81  1  0
M  END
$$$$
[H]c1nc(N([H])C(=O)c2c([H])c(Oc3c([H])c([H])c(S(=O)(=O)C4([H])C([H])([H])C4([H])[H])c([H])c3[H])c([H])c(O[C@@]([H])(C([H])([H])[H])C([H])([H])OC([H])([H])[H])c2[H])sc1[H]
     RDKit          3D

 57 60  0  0  0  0  0  0  0  0999 V2000
   -4.0961   -2.0188    1.9988 C   0  0  0  0  0  0  0  0  0  0  0  0
   -3.8744   -2.9134    0.9960 O   0  0  0  0  0  0  0  0  0  0  0  0
   -4.7835   -2.8012   -0.0172 C   0  0  0  0  0  0  0  0  0  0  0  0
   -4.6957   -1.4507   -0.6764 C   0  0  2  0  0  0  0  0  0  0  0  0
   -5.7614   -1.3578   -1.7846 C   0  0  0  0  0  0  0  0  0  0  0  0
   -3.4215   -1.3235   -1.2190 O   0  0  0  0  0  0  0  0  0  0  0  0
   -2.5205   -0.2784   -1.0884 C   0  0  0  0  0  0  0  0  0  0  0  0
   -1.2966   -0.4088   -1.7599 C   0  0  0  0  0  0  0  0  0  0  0  0
   -0.3727    0.5760   -1.6717 C   0  0  0  0  0  0  0  0  0  0  0  0
    0.8736    0.4841   -2.3360 O   0  0  0  0  0  0  0  0  0  0  0  0
    1.8962   -0.1354   -1.6549 C   0  0  0  0  0  0  0  0  0  0  0  0
    2.7440    0.5970   -0.8460 C   0  0  0  0  0  0  0  0  0  0  0  0
    3.7699   -0.0173   -0.1635 C   0  0  0  0  0  0  0  0  0  0  0  0
    4.0078   -1.3689   -0.2438 C   0  0  0  0  0  0  0  0  0  0  0  0
    3.1599   -2.0981   -1.0509 C   0  0  0  0  0  0  0  0  0  0  0  0
    2.1276   -1.5014   -1.7421 C   0  0  0  0  0  0  0  0  0  0  0  0
    5.3466   -2.1075    0.6354 S   0  0  0  0  0  0  0  0  0  0  0  0
    5.6414   -1.3508    1.9038 O   0  0  0  0  0  0  0  0  0  0  0  0
    5.0149   -3.5204    1.0243 O   0  0  0  0  0  0  0  0  0  0  0  0
    6.7600   -2.0417   -0.4435 C   0  0  0  0  0  0  0  0  0  0  0  0
    7.8656   -3.0028   -0.0647 C   0  0  0  0  0  0  0  0  0  0  0  0
    6.9995   -3.2123   -1.3053 C   0  0  0  0  0  0  0  0  0  0  0  0
   -0.6409    1.6999   -0.9234 C   0  0  0  0  0  0  0  0  0  0  0  0
   -1.8261    1.8739   -0.2487 C   0  0  0  0  0  0  0  0  0  0  0  0
   -2.7460    0.8574   -0.3560 C   0  0  0  0  0  0  0  0  0  0  0  0
   -2.0909    3.0751    0.5531 C   0  0  0  0  0  0  0  0  0  0  0  0
   -3.2921    3.4659    0.6482 O   0  0  0  0  0  0  0  0  0  0  0  0
   -1.0427    3.7643    1.1940 N   0  0  0  0  0  0  0  0  0  0  0  0
   -1.2927    4.9403    1.9561 C   0  0  0  0  0  0  0  0  0  0  0  0
   -2.4598    5.5528    2.1434 N   0  0  0  0  0  0  0  0  0  0  0  0
   -2.5198    6.6138    2.8783 C   0  0  0  0  0  0  0  0  0  0  0  0
   -1.3534    7.0668    3.4434 C   0  0  0  0  0  0  0  0  0  0  0  0
   -0.2301    5.9160    2.8681 S   0  0  0  0  0  0  0  0  0  0  0  0
   -3.3229   -2.1884    2.7942 H   0  0  0  0  0  0  0  0  0  0  0  0
   -5.0697   -2.2894    2.4833 H   0  0  0  0  0  0  0  0  0  0  0  0
   -4.0804   -0.9618    1.7639 H   0  0  0  0  0  0  0  0  0  0  0  0
   -5.8312   -3.0474    0.2949 H   0  0  0  0  0  0  0  0  0  0  0  0
   -4.4884   -3.5819   -0.7850 H   0  0  0  0  0  0  0  0  0  0  0  0
   -4.9330   -0.6091   -0.0052 H   0  0  0  0  0  0  0  0  0  0  0  0
   -6.5647   -0.6615   -1.5504 H   0  0  0  0  0  0  0  0  0  0  0  0
   -6.1950   -2.3640   -1.9255 H   0  0  0  0  0  0  0  0  0  0  0  0
   -5.2394   -1.1013   -2.7239 H   0  0  0  0  0  0  0  0  0  0  0  0
   -1.0927   -1.2897   -2.3445 H   0  0  0  0  0  0  0  0  0  0  0  0
    2.5833    1.6608   -0.7637 H   0  0  0  0  0  0  0  0  0  0  0  0
    4.4422    0.5629    0.4792 H   0  0  0  0  0  0  0  0  0  0  0  0
    3.3387   -3.1677   -1.1207 H   0  0  0  0  0  0  0  0  0  0  0  0
    1.4557   -2.0578   -2.3775 H   0  0  0  0  0  0  0  0  0  0  0  0
    7.0420   -1.0141   -0.7262 H   0  0  0  0  0  0  0  0  0  0  0  0
    7.7341   -3.6841    0.7946 H   0  0  0  0  0  0  0  0  0  0  0  0
    8.8944   -2.6051   -0.2549 H   0  0  0  0  0  0  0  0  0  0  0  0
    7.5324   -3.0928   -2.2703 H   0  0  0  0  0  0  0  0  0  0  0  0
    6.2573   -4.0613   -1.2350 H   0  0  0  0  0  0  0  0  0  0  0  0
    0.1124    2.4836   -0.8580 H   0  0  0  0  0  0  0  0  0  0  0  0
   -3.6927    0.9673    0.1657 H   0  0  0  0  0  0  0  0  0  0  0  0
   -0.0767    3.4293    1.1057 H   0  0  0  0  0  0  0  0  0  0  0  0
   -3.4801    7.1525    3.0558 H   0  0  0  0  0  0  0  0  0  0  0  0
   -1.2156    7.9472    4.0953 H   0  0  0  0  0  0  0  0  0  0  0  0
  1  2  1  0
  2  3  1  0
  3  4  1  0
  4  5  1  0
  4  6  1  0
  6  7  1  0
  7  8  2  0
  8  9  1  0
  9 10  1  0
 10 11  1  0
 11 12  2  0
 12 13  1  0
 13 14  2  0
 14 15  1  0
 15 16  2  0
 14 17  1  0
 17 18  2  0
 17 19  2  0
 17 20  1  0
 20 21  1  0
 21 22  1  0
  9 23  2  0
 23 24  1  0
 24 25  2  0
 24 26  1  0
 26 27  2  0
 26 28  1  0
 28 29  1  0
 29 30  2  0
 30 31  1  0
 31 32  2  0
 32 33  1  0
 25  7  1  0
 33 29  1  0
 16 11  1  0
 22 20  1  0
  1 34  1  0
  1 35  1  0
  1 36  1  0
  3 37  1  0
  3 38  1  0
  4 39  1  1
  5 40  1  0
  5 41  1  0
  5 42  1  0
  8 43  1  0
 12 44  1  0
 13 45  1  0
 15 46  1  0
 16 47  1  0
 20 48  1  0
 21 49  1  0
 21 50  1  0
 22 51  1  0
 22 52  1  0
 23 53  1  0
 25 54  1  0
 28 55  1  0
 31 56  1  0
 32 57  1  0
M  END
$$$$
[H]OC(C([H])([H])[H])(C([H])([H])[H])C([H])([H])N([H])S(=O)(=O)c1c([H])c([H])c(C([H])([H])[H])c(-c2c([H])nc(N([H])[H])c(-c3c([H])c([H])nc(C([H])([H])[H])c3[H])c2[H])c1[H]
     RDKit          3D

 56 58  0  0  0  0  0  0  0  0999 V2000
   -6.6220    0.9611    2.1897 C   0  0  0  0  0  0  0  0  0  0  0  0
   -6.0412    1.2203    0.8387 C   0  0  0  0  0  0  0  0  0  0  0  0
   -4.9762    0.4690    0.3877 C   0  0  0  0  0  0  0  0  0  0  0  0
   -4.4297    0.6986   -0.8599 C   0  0  0  0  0  0  0  0  0  0  0  0
   -4.9707    1.6927   -1.6422 C   0  0  0  0  0  0  0  0  0  0  0  0
   -6.0402    2.4173   -1.1402 C   0  0  0  0  0  0  0  0  0  0  0  0
   -6.5648    2.1854    0.0762 N   0  0  0  0  0  0  0  0  0  0  0  0
   -3.3038   -0.1251   -1.2691 C   0  0  0  0  0  0  0  0  0  0  0  0
   -2.2183   -0.3351   -0.4412 C   0  0  0  0  0  0  0  0  0  0  0  0
   -1.1234   -1.1166   -0.8155 C   0  0  0  0  0  0  0  0  0  0  0  0
   -1.1886   -1.6731   -2.0740 C   0  0  0  0  0  0  0  0  0  0  0  0
   -2.2405   -1.4738   -2.8845 N   0  0  0  0  0  0  0  0  0  0  0  0
   -3.3055   -0.7097   -2.5115 C   0  0  0  0  0  0  0  0  0  0  0  0
   -4.4075   -0.5200   -3.3832 N   0  0  0  0  0  0  0  0  0  0  0  0
   -0.0157   -1.2772    0.1035 C   0  0  0  0  0  0  0  0  0  0  0  0
    0.5896   -0.1753    0.7165 C   0  0  0  0  0  0  0  0  0  0  0  0
    1.6486   -0.3080    1.5812 C   0  0  0  0  0  0  0  0  0  0  0  0
    2.1369   -1.5621    1.8597 C   0  0  0  0  0  0  0  0  0  0  0  0
    1.5480   -2.6556    1.2616 C   0  0  0  0  0  0  0  0  0  0  0  0
    0.4705   -2.5235    0.3818 C   0  0  0  0  0  0  0  0  0  0  0  0
   -0.1182   -3.7358   -0.2120 C   0  0  0  0  0  0  0  0  0  0  0  0
    2.3662    1.1251    2.3206 S   0  0  0  0  0  0  0  0  0  0  0  0
    2.8598    0.7880    3.6911 O   0  0  0  0  0  0  0  0  0  0  0  0
    1.3150    2.1858    2.3782 O   0  0  0  0  0  0  0  0  0  0  0  0
    3.6486    1.7309    1.3108 N   0  0  0  0  0  0  0  0  0  0  0  0
    4.6408    0.6570    1.2425 C   0  0  0  0  0  0  0  0  0  0  0  0
    5.7676    1.1528    0.3720 C   0  0  0  0  0  0  0  0  0  0  0  0
    5.1968    1.5175   -0.9763 C   0  0  0  0  0  0  0  0  0  0  0  0
    6.8714    0.1349    0.2408 C   0  0  0  0  0  0  0  0  0  0  0  0
    6.3177    2.2954    0.9377 O   0  0  0  0  0  0  0  0  0  0  0  0
   -6.9437    1.9081    2.6353 H   0  0  0  0  0  0  0  0  0  0  0  0
   -7.5516    0.3567    2.0068 H   0  0  0  0  0  0  0  0  0  0  0  0
   -5.9243    0.4610    2.8642 H   0  0  0  0  0  0  0  0  0  0  0  0
   -4.6069   -0.2958    1.0646 H   0  0  0  0  0  0  0  0  0  0  0  0
   -4.5856    1.9128   -2.6066 H   0  0  0  0  0  0  0  0  0  0  0  0
   -6.5040    3.2150   -1.7214 H   0  0  0  0  0  0  0  0  0  0  0  0
   -2.2382    0.1388    0.5414 H   0  0  0  0  0  0  0  0  0  0  0  0
   -0.3768   -2.2862   -2.4361 H   0  0  0  0  0  0  0  0  0  0  0  0
   -4.2035   -0.2039   -4.3546 H   0  0  0  0  0  0  0  0  0  0  0  0
   -5.4074   -0.6705   -3.1339 H   0  0  0  0  0  0  0  0  0  0  0  0
    0.1860    0.7957    0.4797 H   0  0  0  0  0  0  0  0  0  0  0  0
    2.9699   -1.6579    2.5406 H   0  0  0  0  0  0  0  0  0  0  0  0
    1.9198   -3.6487    1.4698 H   0  0  0  0  0  0  0  0  0  0  0  0
    0.0408   -4.5672    0.5445 H   0  0  0  0  0  0  0  0  0  0  0  0
    0.4114   -4.1008   -1.1174 H   0  0  0  0  0  0  0  0  0  0  0  0
   -1.2023   -3.6895   -0.3556 H   0  0  0  0  0  0  0  0  0  0  0  0
    4.1070    2.5017    1.8412 H   0  0  0  0  0  0  0  0  0  0  0  0
    5.0045    0.3771    2.2540 H   0  0  0  0  0  0  0  0  0  0  0  0
    4.1586   -0.1822    0.7343 H   0  0  0  0  0  0  0  0  0  0  0  0
    4.2039    1.9572   -0.8422 H   0  0  0  0  0  0  0  0  0  0  0  0
    5.0729    0.5468   -1.5359 H   0  0  0  0  0  0  0  0  0  0  0  0
    5.9236    2.1802   -1.4910 H   0  0  0  0  0  0  0  0  0  0  0  0
    7.5236    0.4624   -0.5993 H   0  0  0  0  0  0  0  0  0  0  0  0
    6.4909   -0.8979    0.1048 H   0  0  0  0  0  0  0  0  0  0  0  0
    7.4847    0.1571    1.1536 H   0  0  0  0  0  0  0  0  0  0  0  0
    6.2354    2.1888    1.9361 H   0  0  0  0  0  0  0  0  0  0  0  0
  1  2  1  0
  2  3  2  0
  3  4  1  0
  4  5  2  0
  5  6  1  0
  6  7  2  0
  4  8  1  0
  8  9  2  0
  9 10  1  0
 10 11  2  0
 11 12  1  0
 12 13  2  0
 13 14  1  0
 10 15  1  0
 15 16  2  0
 16 17  1  0
 17 18  2  0
 18 19  1  0
 19 20  2  0
 20 21  1  0
 17 22  1  0
 22 23  2  0
 22 24  2  0
 22 25  1  0
 25 26  1  0
 26 27  1  0
 27 28  1  0
 27 29  1  0
 27 30  1  0
  7  2  1  0
 13  8  1  0
 20 15  1  0
  1 31  1  0
  1 32  1  0
  1 33  1  0
  3 34  1  0
  5 35  1  0
  6 36  1  0
  9 37  1  0
 11 38  1  0
 14 39  1  0
 14 40  1  0
 16 41  1  0
 18 42  1  0
 19 43  1  0
 21 44  1  0
 21 45  1  0
 21 46  1  0
 25 47  1  0
 26 48  1  0
 26 49  1  0
 28 50  1  0
 28 51  1  0
 28 52  1  0
 29 53  1  0
 29 54  1  0
 29 55  1  0
 30 56  1  0
M  END
$$$$
[H]OC(=O)[C@@]([H])(N([H])C(=O)[C@@]([H])(N([H])C(=O)[C@@]([H])(N([H])C(=O)c1c([H])c([H])c(S(=O)(=O)N([H])[H])c([H])c1[H])C([H])([H])c1c([H])c([H])c([H])c([H])c1[H])C([H])([H])c1c([H])c([H])c([H])c([H])c1[H])C([H])([H])c1c([H])c([H])c([H])c([H])c1[H]
     RDKit          3D

 80 83  0  0  0  0  0  0  0  0999 V2000
  -10.1167    2.0201   -1.2524 N   0  0  0  0  0  0  0  0  0  0  0  0
   -9.0465    2.8921   -0.2532 S   0  0  0  0  0  0  0  0  0  0  0  0
   -9.6785    3.1500    1.1018 O   0  0  0  0  0  0  0  0  0  0  0  0
   -8.8044    4.2584   -0.8626 O   0  0  0  0  0  0  0  0  0  0  0  0
   -7.5323    2.0353   -0.0053 C   0  0  0  0  0  0  0  0  0  0  0  0
   -7.3363    1.2193    1.0898 C   0  0  0  0  0  0  0  0  0  0  0  0
   -6.1437    0.5477    1.2819 C   0  0  0  0  0  0  0  0  0  0  0  0
   -5.0853    0.6568    0.3913 C   0  0  0  0  0  0  0  0  0  0  0  0
   -5.2833    1.4723   -0.7044 C   0  0  0  0  0  0  0  0  0  0  0  0
   -6.4921    2.1550   -0.9028 C   0  0  0  0  0  0  0  0  0  0  0  0
   -3.8266   -0.0349    0.6388 C   0  0  0  0  0  0  0  0  0  0  0  0
   -3.6777   -0.5793    1.7841 O   0  0  0  0  0  0  0  0  0  0  0  0
   -2.7733   -0.1420   -0.2774 N   0  0  0  0  0  0  0  0  0  0  0  0
   -1.5417   -0.8295    0.0666 C   0  0  1  0  0  0  0  0  0  0  0  0
   -1.2665   -1.9513   -0.9174 C   0  0  0  0  0  0  0  0  0  0  0  0
   -2.2960   -2.9797   -0.9626 C   0  0  0  0  0  0  0  0  0  0  0  0
   -3.3524   -2.8497   -1.8326 C   0  0  0  0  0  0  0  0  0  0  0  0
   -4.3584   -3.8070   -1.9118 C   0  0  0  0  0  0  0  0  0  0  0  0
   -4.2672   -4.9015   -1.0854 C   0  0  0  0  0  0  0  0  0  0  0  0
   -3.2310   -5.0542   -0.2138 C   0  0  0  0  0  0  0  0  0  0  0  0
   -2.2290   -4.0776   -0.1520 C   0  0  0  0  0  0  0  0  0  0  0  0
   -0.3838    0.0915   -0.0317 C   0  0  0  0  0  0  0  0  0  0  0  0
   -0.4963    1.1192   -0.7173 O   0  0  0  0  0  0  0  0  0  0  0  0
    0.8035   -0.2006    0.6468 N   0  0  0  0  0  0  0  0  0  0  0  0
    1.9837    0.6551    0.6126 C   0  0  1  0  0  0  0  0  0  0  0  0
    2.0381    1.4682    1.9010 C   0  0  0  0  0  0  0  0  0  0  0  0
    0.8667    2.3358    2.0897 C   0  0  0  0  0  0  0  0  0  0  0  0
    0.8583    3.6077    1.5648 C   0  0  0  0  0  0  0  0  0  0  0  0
   -0.2522    4.3814    1.7722 C   0  0  0  0  0  0  0  0  0  0  0  0
   -1.3535    3.9284    2.4852 C   0  0  0  0  0  0  0  0  0  0  0  0
   -1.3273    2.6428    3.0074 C   0  0  0  0  0  0  0  0  0  0  0  0
   -0.2217    1.8653    2.8041 C   0  0  0  0  0  0  0  0  0  0  0  0
    3.2340   -0.0643    0.3583 C   0  0  0  0  0  0  0  0  0  0  0  0
    3.1256   -1.3264    0.1924 O   0  0  0  0  0  0  0  0  0  0  0  0
    4.5079    0.5021    0.2851 N   0  0  0  0  0  0  0  0  0  0  0  0
    5.7165   -0.2934    0.0314 C   0  0  1  0  0  0  0  0  0  0  0  0
    6.3118    0.0681   -1.2914 C   0  0  0  0  0  0  0  0  0  0  0  0
    7.5326   -0.6603   -1.6671 C   0  0  0  0  0  0  0  0  0  0  0  0
    8.7878   -0.1356   -1.4040 C   0  0  0  0  0  0  0  0  0  0  0  0
    9.9251   -0.8304   -1.7465 C   0  0  0  0  0  0  0  0  0  0  0  0
    9.8361   -2.0826   -2.3691 C   0  0  0  0  0  0  0  0  0  0  0  0
    8.5942   -2.6141   -2.6362 C   0  0  0  0  0  0  0  0  0  0  0  0
    7.4843   -1.8936   -2.2806 C   0  0  0  0  0  0  0  0  0  0  0  0
    6.6084   -0.1119    1.1941 C   0  0  0  0  0  0  0  0  0  0  0  0
    7.8151   -0.7715    1.3607 O   0  0  0  0  0  0  0  0  0  0  0  0
    6.3076    0.6863    2.1436 O   0  0  0  0  0  0  0  0  0  0  0  0
  -11.1252    2.0890   -0.9192 H   0  0  0  0  0  0  0  0  0  0  0  0
   -9.8713    1.0082   -1.1947 H   0  0  0  0  0  0  0  0  0  0  0  0
   -8.1419    1.1261    1.7882 H   0  0  0  0  0  0  0  0  0  0  0  0
   -5.9795   -0.0974    2.1406 H   0  0  0  0  0  0  0  0  0  0  0  0
   -4.4782    1.5677   -1.4056 H   0  0  0  0  0  0  0  0  0  0  0  0
   -6.6272    2.7909   -1.7669 H   0  0  0  0  0  0  0  0  0  0  0  0
   -2.8697    0.2758   -1.2215 H   0  0  0  0  0  0  0  0  0  0  0  0
   -1.6557   -1.2529    1.0755 H   0  0  0  0  0  0  0  0  0  0  0  0
   -1.2405   -1.4547   -1.9322 H   0  0  0  0  0  0  0  0  0  0  0  0
   -0.2945   -2.3904   -0.6645 H   0  0  0  0  0  0  0  0  0  0  0  0
   -3.4430   -2.0001   -2.4924 H   0  0  0  0  0  0  0  0  0  0  0  0
   -5.1666   -3.6632   -2.6075 H   0  0  0  0  0  0  0  0  0  0  0  0
   -5.0810   -5.6440   -1.1704 H   0  0  0  0  0  0  0  0  0  0  0  0
   -3.1950   -5.9320    0.4173 H   0  0  0  0  0  0  0  0  0  0  0  0
   -1.4360   -4.2682    0.5656 H   0  0  0  0  0  0  0  0  0  0  0  0
    0.8536   -1.0866    1.2189 H   0  0  0  0  0  0  0  0  0  0  0  0
    1.8384    1.4146   -0.1899 H   0  0  0  0  0  0  0  0  0  0  0  0
    2.9353    2.1100    1.8516 H   0  0  0  0  0  0  0  0  0  0  0  0
    2.2035    0.8038    2.8025 H   0  0  0  0  0  0  0  0  0  0  0  0
    1.7151    3.9426    1.0183 H   0  0  0  0  0  0  0  0  0  0  0  0
   -0.3113    5.3810    1.3817 H   0  0  0  0  0  0  0  0  0  0  0  0
   -2.2350    4.5335    2.6510 H   0  0  0  0  0  0  0  0  0  0  0  0
   -2.1594    2.2186    3.5803 H   0  0  0  0  0  0  0  0  0  0  0  0
   -0.2009    0.8573    3.2150 H   0  0  0  0  0  0  0  0  0  0  0  0
    4.6407    1.5130    0.4093 H   0  0  0  0  0  0  0  0  0  0  0  0
    5.4386   -1.3703   -0.0130 H   0  0  0  0  0  0  0  0  0  0  0  0
    5.5389   -0.0460   -2.0899 H   0  0  0  0  0  0  0  0  0  0  0  0
    6.5851    1.1636   -1.3466 H   0  0  0  0  0  0  0  0  0  0  0  0
    8.9194    0.8293   -0.9267 H   0  0  0  0  0  0  0  0  0  0  0  0
   10.9189   -0.4045   -1.5326 H   0  0  0  0  0  0  0  0  0  0  0  0
   10.7370   -2.6019   -2.6224 H   0  0  0  0  0  0  0  0  0  0  0  0
    8.5612   -3.5818   -3.1167 H   0  0  0  0  0  0  0  0  0  0  0  0
    6.5150   -2.3615   -2.5156 H   0  0  0  0  0  0  0  0  0  0  0  0
    8.1476   -1.0366    2.2863 H   0  0  0  0  0  0  0  0  0  0  0  0
  1  2  1  0
  2  3  2  0
  2  4  2  0
  2  5  1  0
  5  6  2  0
  6  7  1  0
  7  8  2  0
  8  9  1  0
  9 10  2  0
  8 11  1  0
 11 12  2  0
 11 13  1  0
 13 14  1  0
 14 15  1  0
 15 16  1  0
 16 17  2  0
 17 18  1  0
 18 19  2  0
 19 20  1  0
 20 21  2  0
 14 22  1  0
 22 23  2  0
 22 24  1  0
 24 25  1  0
 25 26  1  0
 26 27  1  0
 27 28  2  0
 28 29  1  0
 29 30  2  0
 30 31  1  0
 31 32  2  0
 25 33  1  0
 33 34  2  0
 33 35  1  0
 35 36  1  0
 36 37  1  0
 37 38  1  0
 38 39  2  0
 39 40  1  0
 40 41  2  0
 41 42  1  0
 42 43  2  0
 36 44  1  0
 44 45  1  0
 44 46  2  0
 10  5  1  0
 21 16  1  0
 32 27  1  0
 43 38  1  0
  1 47  1  0
  1 48  1  0
  6 49  1  0
  7 50  1  0
  9 51  1  0
 10 52  1  0
 13 53  1  0
 14 54  1  1
 15 55  1  0
 15 56  1  0
 17 57  1  0
 18 58  1  0
 19 59  1  0
 20 60  1  0
 21 61  1  0
 24 62  1  0
 25 63  1  6
 26 64  1  0
 26 65  1  0
 28 66  1  0
 29 67  1  0
 30 68  1  0
 31 69  1  0
 32 70  1  0
 35 71  1  0
 36 72  1  6
 37 73  1  0
 37 74  1  0
 39 75  1  0
 40 76  1  0
 41 77  1  0
 42 78  1  0
 43 79  1  0
 45 80  1  0
M  END
$$$$
[H]c1nc(N([H])c2c([H])c(N([H])C(=O)c3c([H])c([H])c(C([H])([H])N4C([H])([H])C([H])([H])N(C([H])([H])C([H])([H])[H])C([H])([H])C4([H])[H])c(C(F)(F)F)c3[H])c([H])c([H])c2C([H])([H])[H])nc(-c2c([H])nc([H])c([H])c2[H])c1[H]
     RDKit          3D

 74 78  0  0  0  0  0  0  0  0999 V2000
   -9.6920   -2.4471   -0.8331 C   0  0  0  0  0  0  0  0  0  0  0  0
   -9.5430   -1.3648    0.1981 C   0  0  0  0  0  0  0  0  0  0  0  0
   -9.1273   -0.1267   -0.4863 N   0  0  0  0  0  0  0  0  0  0  0  0
   -8.9617    0.9077    0.5072 C   0  0  0  0  0  0  0  0  0  0  0  0
   -7.8290    1.8507   -0.0123 C   0  0  0  0  0  0  0  0  0  0  0  0
   -6.6294    1.1092    0.1331 N   0  0  0  0  0  0  0  0  0  0  0  0
   -5.4839    1.8070    0.3706 C   0  0  0  0  0  0  0  0  0  0  0  0
   -4.2502    0.9943    0.4717 C   0  0  0  0  0  0  0  0  0  0  0  0
   -4.0244    0.1176    1.4925 C   0  0  0  0  0  0  0  0  0  0  0  0
   -2.7386   -0.4474    1.6553 C   0  0  0  0  0  0  0  0  0  0  0  0
   -1.7554   -0.1016    0.7830 C   0  0  0  0  0  0  0  0  0  0  0  0
   -2.0587    0.7789   -0.2259 C   0  0  0  0  0  0  0  0  0  0  0  0
   -3.2568    1.3601   -0.4408 C   0  0  0  0  0  0  0  0  0  0  0  0
   -3.5360    2.1904   -1.6044 C   0  0  0  0  0  0  0  0  0  0  0  0
   -4.4960    1.5602   -2.4613 F   0  0  0  0  0  0  0  0  0  0  0  0
   -2.3837    2.1910   -2.4185 F   0  0  0  0  0  0  0  0  0  0  0  0
   -3.8439    3.4975   -1.3970 F   0  0  0  0  0  0  0  0  0  0  0  0
   -0.3913   -0.5999    0.9350 C   0  0  0  0  0  0  0  0  0  0  0  0
   -0.2569   -1.6931    1.4890 O   0  0  0  0  0  0  0  0  0  0  0  0
    0.6956    0.1512    0.4679 N   0  0  0  0  0  0  0  0  0  0  0  0
    2.0562   -0.2155    0.5719 C   0  0  0  0  0  0  0  0  0  0  0  0
    2.4162   -1.2541    1.4175 C   0  0  0  0  0  0  0  0  0  0  0  0
    3.7195   -1.6625    1.4732 C   0  0  0  0  0  0  0  0  0  0  0  0
    4.6785   -1.1030    0.7386 C   0  0  0  0  0  0  0  0  0  0  0  0
    6.1186   -1.4878    0.9043 C   0  0  0  0  0  0  0  0  0  0  0  0
    4.3408   -0.0304   -0.1509 C   0  0  0  0  0  0  0  0  0  0  0  0
    5.3699    0.3028   -1.0183 N   0  0  0  0  0  0  0  0  0  0  0  0
    6.4361    1.2760   -0.6316 C   0  0  0  0  0  0  0  0  0  0  0  0
    6.3314    2.0199    0.4155 N   0  0  0  0  0  0  0  0  0  0  0  0
    7.5013    2.2643    1.1126 C   0  0  0  0  0  0  0  0  0  0  0  0
    8.7108    1.7341    0.7082 C   0  0  0  0  0  0  0  0  0  0  0  0
    8.7845    0.9701   -0.3790 C   0  0  0  0  0  0  0  0  0  0  0  0
    7.6336    0.7372   -1.0780 N   0  0  0  0  0  0  0  0  0  0  0  0
    9.8851    0.1143   -0.7855 C   0  0  0  0  0  0  0  0  0  0  0  0
   10.2420   -0.1237   -2.0708 C   0  0  0  0  0  0  0  0  0  0  0  0
   10.9635   -1.2572   -2.4089 C   0  0  0  0  0  0  0  0  0  0  0  0
   11.3162   -2.1432   -1.3976 C   0  0  0  0  0  0  0  0  0  0  0  0
   10.9652   -1.8972   -0.1227 N   0  0  0  0  0  0  0  0  0  0  0  0
   10.2745   -0.8155    0.1981 C   0  0  0  0  0  0  0  0  0  0  0  0
    3.0464    0.3921   -0.2062 C   0  0  0  0  0  0  0  0  0  0  0  0
   -6.7245   -0.2349   -0.1553 C   0  0  0  0  0  0  0  0  0  0  0  0
   -7.8963   -0.4135   -1.1397 C   0  0  0  0  0  0  0  0  0  0  0  0
  -10.4731   -3.1471   -0.4832 H   0  0  0  0  0  0  0  0  0  0  0  0
  -10.0251   -1.9870   -1.8013 H   0  0  0  0  0  0  0  0  0  0  0  0
   -8.7598   -3.0352   -0.9729 H   0  0  0  0  0  0  0  0  0  0  0  0
  -10.4700   -1.2144    0.7369 H   0  0  0  0  0  0  0  0  0  0  0  0
   -8.7099   -1.6496    0.8582 H   0  0  0  0  0  0  0  0  0  0  0  0
   -9.7900    1.5210    0.7582 H   0  0  0  0  0  0  0  0  0  0  0  0
   -8.5105    0.4796    1.4574 H   0  0  0  0  0  0  0  0  0  0  0  0
   -7.8740    2.7432    0.6449 H   0  0  0  0  0  0  0  0  0  0  0  0
   -8.0670    2.1771   -1.0324 H   0  0  0  0  0  0  0  0  0  0  0  0
   -5.6550    1.9264    1.6234 H   0  0  0  0  0  0  0  0  0  0  0  0
   -5.4003    2.8664    0.2167 H   0  0  0  0  0  0  0  0  0  0  0  0
   -4.7692   -0.1567    2.2294 H   0  0  0  0  0  0  0  0  0  0  0  0
   -2.5760   -1.1582    2.4928 H   0  0  0  0  0  0  0  0  0  0  0  0
   -1.2345    1.0009   -0.9459 H   0  0  0  0  0  0  0  0  0  0  0  0
    0.4710    1.0698   -0.0009 H   0  0  0  0  0  0  0  0  0  0  0  0
    1.7168   -1.7378    2.0497 H   0  0  0  0  0  0  0  0  0  0  0  0
    4.0282   -2.4811    2.1361 H   0  0  0  0  0  0  0  0  0  0  0  0
    6.6209   -0.6871    1.5461 H   0  0  0  0  0  0  0  0  0  0  0  0
    6.6458   -1.7835    0.0332 H   0  0  0  0  0  0  0  0  0  0  0  0
    6.1513   -2.3572    1.6137 H   0  0  0  0  0  0  0  0  0  0  0  0
    5.4496   -0.1112   -1.9745 H   0  0  0  0  0  0  0  0  0  0  0  0
    7.4213    2.8892    2.0227 H   0  0  0  0  0  0  0  0  0  0  0  0
    9.6154    1.9912    1.3141 H   0  0  0  0  0  0  0  0  0  0  0  0
   10.0080    0.5517   -2.8883 H   0  0  0  0  0  0  0  0  0  0  0  0
   11.2747   -1.4946   -3.4254 H   0  0  0  0  0  0  0  0  0  0  0  0
   11.8584   -3.0745   -1.5829 H   0  0  0  0  0  0  0  0  0  0  0  0
    9.9837   -0.6578    1.2463 H   0  0  0  0  0  0  0  0  0  0  0  0
    2.7146    1.1875   -0.8568 H   0  0  0  0  0  0  0  0  0  0  0  0
   -6.8403   -0.8915    0.7459 H   0  0  0  0  0  0  0  0  0  0  0  0
   -5.8435   -0.6741   -0.7223 H   0  0  0  0  0  0  0  0  0  0  0  0
   -7.7420    0.3701   -1.9321 H   0  0  0  0  0  0  0  0  0  0  0  0
   -7.8267   -1.3831   -1.6626 H   0  0  0  0  0  0  0  0  0  0  0  0
  1  2  1  0
  2  3  1  0
  3  4  1  0
  4  5  1  0
  5  6  1  0
  6  7  1  0
  7  8  1  0
  8  9  2  0
  9 10  1  0
 10 11  2  0
 11 12  1  0
 12 13  2  0
 13 14  1  0
 14 15  1  0
 14 16  1  0
 14 17  1  0
 11 18  1  0
 18 19  2  0
 18 20  1  0
 20 21  1  0
 21 22  2  0
 22 23  1  0
 23 24  2  0
 24 25  1  0
 24 26  1  0
 26 27  1  0
 27 28  1  0
 28 29  2  0
 29 30  1  0
 30 31  2  0
 31 32  1  0
 32 33  2  0
 32 34  1  0
 34 35  2  0
 35 36  1  0
 36 37  2  0
 37 38  1  0
 38 39  2  0
 26 40  2  0
  6 41  1  0
 41 42  1  0
 42  3  1  0
 13  8  1  0
 40 21  1  0
 33 28  1  0
 39 34  1  0
  1 43  1  0
  1 44  1  0
  1 45  1  0
  2 46  1  0
  2 47  1  0
  4 48  1  0
  4 49  1  0
  5 50  1  0
  5 51  1  0
  7 52  1  0
  7 53  1  0
  9 54  1  0
 10 55  1  0
 12 56  1  0
 20 57  1  0
 22 58  1  0
 23 59  1  0
 25 60  1  0
 25 61  1  0
 25 62  1  0
 27 63  1  0
 30 64  1  0
 31 65  1  0
 35 66  1  0
 36 67  1  0
 37 68  1  0
 39 69  1  0
 40 70  1  0
 41 71  1  0
 41 72  1  0
 42 73  1  0
 42 74  1  0
M  END
$$$$
[H]c1c([H])c(N([H])C(=O)c2c(C([H])([H])[H])c(C(=O)C(=O)N([H])C3(c4nnn([H])c4[H])C([H])([H])C3([H])[H])c3n2C([H])([H])C([H])([H])C3([H])[H])c([H])c(C([H])(F)F)c1F
     RDKit          3D

 56 60  0  0  0  0  0  0  0  0999 V2000
    0.0233    1.9414    1.2402 C   0  0  0  0  0  0  0  0  0  0  0  0
    0.2095    0.5244    0.7830 C   0  0  0  0  0  0  0  0  0  0  0  0
   -0.8279   -0.3503    0.6395 C   0  0  0  0  0  0  0  0  0  0  0  0
   -2.2145   -0.4389    0.9596 C   0  0  0  0  0  0  0  0  0  0  0  0
   -2.5413   -1.0470    2.0642 O   0  0  0  0  0  0  0  0  0  0  0  0
   -3.3563    0.0498    0.1889 C   0  0  0  0  0  0  0  0  0  0  0  0
   -3.2956    1.1249   -0.4141 O   0  0  0  0  0  0  0  0  0  0  0  0
   -4.4786   -0.8399    0.2080 N   0  0  0  0  0  0  0  0  0  0  0  0
   -5.7309   -0.6319   -0.4155 C   0  0  0  0  0  0  0  0  0  0  0  0
   -6.5430   -1.8382   -0.8338 C   0  0  0  0  0  0  0  0  0  0  0  0
   -6.8692   -1.2276    0.4601 C   0  0  0  0  0  0  0  0  0  0  0  0
   -6.1505    0.6754   -0.9662 C   0  0  0  0  0  0  0  0  0  0  0  0
   -7.2413    1.4586   -0.5464 C   0  0  0  0  0  0  0  0  0  0  0  0
   -7.3360    2.5601   -1.3120 N   0  0  0  0  0  0  0  0  0  0  0  0
   -6.3548    2.4995   -2.1831 N   0  0  0  0  0  0  0  0  0  0  0  0
   -5.6364    1.3712   -1.9879 N   0  0  0  0  0  0  0  0  0  0  0  0
   -0.1667   -1.5484    0.1534 C   0  0  0  0  0  0  0  0  0  0  0  0
   -0.5049   -2.9390   -0.2535 C   0  0  0  0  0  0  0  0  0  0  0  0
    0.8494   -3.6132    0.0648 C   0  0  0  0  0  0  0  0  0  0  0  0
    1.7944   -2.5352   -0.4339 C   0  0  0  0  0  0  0  0  0  0  0  0
    1.1119   -1.3239    0.0529 N   0  0  0  0  0  0  0  0  0  0  0  0
    1.4134   -0.0250    0.4385 C   0  0  0  0  0  0  0  0  0  0  0  0
    2.7591    0.4433    0.3398 C   0  0  0  0  0  0  0  0  0  0  0  0
    3.6565   -0.4047    0.8173 O   0  0  0  0  0  0  0  0  0  0  0  0
    3.3230    1.6024   -0.1720 N   0  0  0  0  0  0  0  0  0  0  0  0
    4.7580    1.7756   -0.2094 C   0  0  0  0  0  0  0  0  0  0  0  0
    5.3381    3.0435   -0.1538 C   0  0  0  0  0  0  0  0  0  0  0  0
    6.6945    3.2261   -0.2363 C   0  0  0  0  0  0  0  0  0  0  0  0
    7.5471    2.1252   -0.3812 C   0  0  0  0  0  0  0  0  0  0  0  0
    8.9060    2.2836   -0.4828 F   0  0  0  0  0  0  0  0  0  0  0  0
    7.0152    0.8663   -0.4390 C   0  0  0  0  0  0  0  0  0  0  0  0
    5.6371    0.7374   -0.3525 C   0  0  0  0  0  0  0  0  0  0  0  0
    7.8844   -0.3306   -0.5952 C   0  0  0  0  0  0  0  0  0  0  0  0
    7.6539   -1.0829    0.5705 F   0  0  0  0  0  0  0  0  0  0  0  0
    7.4749   -1.1318   -1.6428 F   0  0  0  0  0  0  0  0  0  0  0  0
    0.7338    2.6357    0.7559 H   0  0  0  0  0  0  0  0  0  0  0  0
    0.0755    2.0169    2.3435 H   0  0  0  0  0  0  0  0  0  0  0  0
   -1.0052    2.3137    0.9584 H   0  0  0  0  0  0  0  0  0  0  0  0
   -4.3215   -1.7654    0.7423 H   0  0  0  0  0  0  0  0  0  0  0  0
   -7.1595   -1.6757   -1.7412 H   0  0  0  0  0  0  0  0  0  0  0  0
   -6.0068   -2.8388   -0.8769 H   0  0  0  0  0  0  0  0  0  0  0  0
   -6.5684   -1.7523    1.3792 H   0  0  0  0  0  0  0  0  0  0  0  0
   -7.8229   -0.6918    0.5476 H   0  0  0  0  0  0  0  0  0  0  0  0
   -7.9083    1.1971    0.2616 H   0  0  0  0  0  0  0  0  0  0  0  0
   -8.0755    3.2758   -1.1686 H   0  0  0  0  0  0  0  0  0  0  0  0
   -1.2681   -3.3776    0.4030 H   0  0  0  0  0  0  0  0  0  0  0  0
   -0.6811   -3.0457   -1.3115 H   0  0  0  0  0  0  0  0  0  0  0  0
    0.9572   -4.5715   -0.4136 H   0  0  0  0  0  0  0  0  0  0  0  0
    0.8981   -3.6429    1.1841 H   0  0  0  0  0  0  0  0  0  0  0  0
    2.8139   -2.6417   -0.0059 H   0  0  0  0  0  0  0  0  0  0  0  0
    1.8131   -2.5449   -1.5175 H   0  0  0  0  0  0  0  0  0  0  0  0
    2.7560    2.3776   -0.5409 H   0  0  0  0  0  0  0  0  0  0  0  0
    4.6351    3.8943   -0.0522 H   0  0  0  0  0  0  0  0  0  0  0  0
    7.1132    4.2113   -0.1993 H   0  0  0  0  0  0  0  0  0  0  0  0
    5.2814   -0.2694   -0.4565 H   0  0  0  0  0  0  0  0  0  0  0  0
    8.9382   -0.1047   -0.7137 H   0  0  0  0  0  0  0  0  0  0  0  0
  1  2  1  0
  2  3  1  0
  3  4  1  0
  4  5  2  0
  4  6  1  0
  6  7  2  0
  6  8  1  0
  8  9  1  0
  9 10  1  0
 10 11  1  0
  9 12  1  0
 12 13  2  0
 13 14  1  0
 14 15  1  0
 15 16  2  0
  3 17  2  0
 17 18  1  0
 18 19  1  0
 19 20  1  0
 20 21  1  0
 21 22  1  0
 22 23  1  0
 23 24  2  0
 23 25  1  0
 25 26  1  0
 26 27  2  0
 27 28  1  0
 28 29  2  0
 29 30  1  0
 29 31  1  0
 31 32  2  0
 31 33  1  0
 33 34  1  0
 33 35  1  0
 22  2  2  0
 32 26  1  0
 11  9  1  0
 16 12  1  0
 21 17  1  0
  1 36  1  0
  1 37  1  0
  1 38  1  0
  8 39  1  0
 10 40  1  0
 10 41  1  0
 11 42  1  0
 11 43  1  0
 13 44  1  0
 14 45  1  0
 18 46  1  0
 18 47  1  0
 19 48  1  0
 19 49  1  0
 20 50  1  0
 20 51  1  0
 25 52  1  0
 27 53  1  0
 28 54  1  0
 32 55  1  0
 33 56  1  0
M  END
$$$$
[H]c1nc(N2C([H])([H])C([H])([H])c3nc(-c4c([H])c([H])c([H])c([H])c4[H])nc(N([H])c4c([H])c([H])c(C(F)(F)F)c([H])c4[H])c3C([H])([H])C2([H])[H])c(C(F)(F)F)c([H])c1[H]
     RDKit          3D

 59 63  0  0  0  0  0  0  0  0999 V2000
    7.7633   -1.6054    1.3399 F   0  0  0  0  0  0  0  0  0  0  0  0
    7.0036   -2.5499    0.7090 C   0  0  0  0  0  0  0  0  0  0  0  0
    7.6090   -3.1369   -0.3782 F   0  0  0  0  0  0  0  0  0  0  0  0
    6.8316   -3.5879    1.6513 F   0  0  0  0  0  0  0  0  0  0  0  0
    5.6342   -2.0423    0.3239 C   0  0  0  0  0  0  0  0  0  0  0  0
    4.8690   -1.3563    1.2264 C   0  0  0  0  0  0  0  0  0  0  0  0
    3.5719   -0.9380    0.9048 C   0  0  0  0  0  0  0  0  0  0  0  0
    3.0189   -1.2050   -0.3369 C   0  0  0  0  0  0  0  0  0  0  0  0
    1.6630   -0.8837   -0.5846 N   0  0  0  0  0  0  0  0  0  0  0  0
    1.0019    0.3231   -0.4548 C   0  0  0  0  0  0  0  0  0  0  0  0
    1.5867    1.4912   -0.0608 N   0  0  0  0  0  0  0  0  0  0  0  0
    0.8981    2.6107    0.1798 C   0  0  0  0  0  0  0  0  0  0  0  0
   -0.4517    2.5563    0.0288 N   0  0  0  0  0  0  0  0  0  0  0  0
   -1.1108    1.4280   -0.3653 C   0  0  0  0  0  0  0  0  0  0  0  0
   -2.5607    1.5678   -0.3062 C   0  0  0  0  0  0  0  0  0  0  0  0
   -3.3820    0.4112   -0.6855 C   0  0  0  0  0  0  0  0  0  0  0  0
   -3.1060   -0.9300   -0.3508 N   0  0  0  0  0  0  0  0  0  0  0  0
   -1.8153   -1.7097   -0.4560 C   0  0  0  0  0  0  0  0  0  0  0  0
   -0.8991   -0.9315   -1.2958 C   0  0  0  0  0  0  0  0  0  0  0  0
   -0.3691    0.3070   -0.6186 C   0  0  0  0  0  0  0  0  0  0  0  0
   -4.0539   -1.8533    0.1710 C   0  0  0  0  0  0  0  0  0  0  0  0
   -3.6959   -2.4284    1.3865 N   0  0  0  0  0  0  0  0  0  0  0  0
   -4.4440   -3.3782    1.9639 C   0  0  0  0  0  0  0  0  0  0  0  0
   -5.6062   -3.8062    1.3539 C   0  0  0  0  0  0  0  0  0  0  0  0
   -5.9746   -3.2488    0.1616 C   0  0  0  0  0  0  0  0  0  0  0  0
   -5.1850   -2.2483   -0.4511 C   0  0  0  0  0  0  0  0  0  0  0  0
   -5.6741   -1.7135   -1.7225 C   0  0  0  0  0  0  0  0  0  0  0  0
   -4.7797   -1.8174   -2.7771 F   0  0  0  0  0  0  0  0  0  0  0  0
   -6.3223   -0.5194   -1.6828 F   0  0  0  0  0  0  0  0  0  0  0  0
   -6.7067   -2.6116   -2.1741 F   0  0  0  0  0  0  0  0  0  0  0  0
    1.5154    3.9052    0.4639 C   0  0  0  0  0  0  0  0  0  0  0  0
    2.8681    4.1293    0.3879 C   0  0  0  0  0  0  0  0  0  0  0  0
    3.4018    5.3983    0.6664 C   0  0  0  0  0  0  0  0  0  0  0  0
    2.5997    6.4571    1.0197 C   0  0  0  0  0  0  0  0  0  0  0  0
    1.2326    6.2442    1.1013 C   0  0  0  0  0  0  0  0  0  0  0  0
    0.7544    4.9986    0.8254 C   0  0  0  0  0  0  0  0  0  0  0  0
    3.8018   -1.8856   -1.2366 C   0  0  0  0  0  0  0  0  0  0  0  0
    5.0837   -2.2984   -0.9111 C   0  0  0  0  0  0  0  0  0  0  0  0
    5.2983   -1.1612    2.2177 H   0  0  0  0  0  0  0  0  0  0  0  0
    2.9810   -0.3964    1.6203 H   0  0  0  0  0  0  0  0  0  0  0  0
    1.1204   -1.7659   -0.8737 H   0  0  0  0  0  0  0  0  0  0  0  0
   -2.8706    2.4381   -0.9476 H   0  0  0  0  0  0  0  0  0  0  0  0
   -2.8466    1.9351    0.7505 H   0  0  0  0  0  0  0  0  0  0  0  0
   -4.4268    0.6487   -0.2440 H   0  0  0  0  0  0  0  0  0  0  0  0
   -3.5093    0.4661   -1.8129 H   0  0  0  0  0  0  0  0  0  0  0  0
   -2.0224   -2.6895   -0.9566 H   0  0  0  0  0  0  0  0  0  0  0  0
   -1.4507   -1.9515    0.5656 H   0  0  0  0  0  0  0  0  0  0  0  0
   -0.1742   -1.4359   -1.8779 H   0  0  0  0  0  0  0  0  0  0  0  0
   -1.6110   -0.5213   -2.1545 H   0  0  0  0  0  0  0  0  0  0  0  0
   -4.2001   -3.8488    2.9002 H   0  0  0  0  0  0  0  0  0  0  0  0
   -6.2082   -4.5864    1.8383 H   0  0  0  0  0  0  0  0  0  0  0  0
   -6.8816   -3.5931   -0.3391 H   0  0  0  0  0  0  0  0  0  0  0  0
    3.5566    3.3692    0.1044 H   0  0  0  0  0  0  0  0  0  0  0  0
    4.4673    5.5138    0.5728 H   0  0  0  0  0  0  0  0  0  0  0  0
    3.0009    7.4431    1.2334 H   0  0  0  0  0  0  0  0  0  0  0  0
    0.5368    7.0487    1.3860 H   0  0  0  0  0  0  0  0  0  0  0  0
   -0.3167    4.8371    0.8856 H   0  0  0  0  0  0  0  0  0  0  0  0
    3.3360   -2.0674   -2.2146 H   0  0  0  0  0  0  0  0  0  0  0  0
    5.6490   -2.8249   -1.6705 H   0  0  0  0  0  0  0  0  0  0  0  0
  1  2  1  0
  2  3  1  0
  2  4  1  0
  2  5  1  0
  5  6  2  0
  6  7  1  0
  7  8  2  0
  8  9  1  0
  9 10  1  0
 10 11  2  0
 11 12  1  0
 12 13  2  0
 13 14  1  0
 14 15  1  0
 15 16  1  0
 16 17  1  0
 17 18  1  0
 18 19  1  0
 19 20  1  0
 17 21  1  0
 21 22  2  0
 22 23  1  0
 23 24  2  0
 24 25  1  0
 25 26  2  0
 26 27  1  0
 27 28  1  0
 27 29  1  0
 27 30  1  0
 12 31  1  0
 31 32  2  0
 32 33  1  0
 33 34  2  0
 34 35  1  0
 35 36  2  0
  8 37  1  0
 37 38  2  0
 38  5  1  0
 20 10  1  0
 26 21  1  0
 36 31  1  0
 20 14  2  0
  6 39  1  0
  7 40  1  0
  9 41  1  0
 15 42  1  0
 15 43  1  0
 16 44  1  0
 16 45  1  0
 18 46  1  0
 18 47  1  0
 19 48  1  0
 19 49  1  0
 23 50  1  0
 24 51  1  0
 25 52  1  0
 32 53  1  0
 33 54  1  0
 34 55  1  0
 35 56  1  0
 36 57  1  0
 37 58  1  0
 38 59  1  0
M  END
$$$$
[H]c1c([H])c([H])c(N([H])C(=O)c2c([H])c([H])c([H])c([N+](=O)[O-])c2[H])c([H])c1[H]
     RDKit          3D

 28 29  0  0  0  0  0  0  0  0999 V2000
   -6.1050   -1.5513   -0.0917 O   0  0  0  0  0  0  0  0  0  0  0  0
   -4.7958   -1.7753    0.2188 N   0  0  0  0  0  0  0  0  0  0  0  0
   -4.4262   -2.8342    0.7664 O   0  0  0  0  0  0  0  0  0  0  0  0
   -3.8246   -0.7858   -0.0849 C   0  0  0  0  0  0  0  0  0  0  0  0
   -4.2048    0.3970   -0.6914 C   0  0  0  0  0  0  0  0  0  0  0  0
   -3.2734    1.3354   -0.9777 C   0  0  0  0  0  0  0  0  0  0  0  0
   -1.9234    1.1217   -0.6654 C   0  0  0  0  0  0  0  0  0  0  0  0
   -1.5259   -0.0303   -0.0706 C   0  0  0  0  0  0  0  0  0  0  0  0
   -2.4973   -0.9887    0.2187 C   0  0  0  0  0  0  0  0  0  0  0  0
   -0.1169   -0.3302    0.2860 C   0  0  0  0  0  0  0  0  0  0  0  0
    0.1293   -1.3424    0.9841 O   0  0  0  0  0  0  0  0  0  0  0  0
    0.9138    0.5223   -0.1637 N   0  0  0  0  0  0  0  0  0  0  0  0
    2.2805    0.3390    0.1213 C   0  0  0  0  0  0  0  0  0  0  0  0
    2.8191   -0.4109    1.1330 C   0  0  0  0  0  0  0  0  0  0  0  0
    4.2050   -0.5497    1.3144 C   0  0  0  0  0  0  0  0  0  0  0  0
    5.0901    0.0742    0.4678 C   0  0  0  0  0  0  0  0  0  0  0  0
    4.5671    0.8339   -0.5560 C   0  0  0  0  0  0  0  0  0  0  0  0
    3.2095    0.9630   -0.7250 C   0  0  0  0  0  0  0  0  0  0  0  0
   -5.2419    0.5322   -0.9179 H   0  0  0  0  0  0  0  0  0  0  0  0
   -3.5833    2.2521   -1.4502 H   0  0  0  0  0  0  0  0  0  0  0  0
   -1.2215    1.8952   -0.9087 H   0  0  0  0  0  0  0  0  0  0  0  0
   -2.1735   -1.8949    0.6886 H   0  0  0  0  0  0  0  0  0  0  0  0
    0.6667    1.3802   -0.7634 H   0  0  0  0  0  0  0  0  0  0  0  0
    2.1940   -0.9100    1.8354 H   0  0  0  0  0  0  0  0  0  0  0  0
    4.6019   -1.1457    2.1176 H   0  0  0  0  0  0  0  0  0  0  0  0
    6.1642   -0.0091    0.5755 H   0  0  0  0  0  0  0  0  0  0  0  0
    5.2535    1.3409   -1.2432 H   0  0  0  0  0  0  0  0  0  0  0  0
    2.8186    1.5712   -1.5470 H   0  0  0  0  0  0  0  0  0  0  0  0
  1  2  1  0
  2  3  2  0
  2  4  1  0
  4  5  2  0
  5  6  1  0
  6  7  2  0
  7  8  1  0
  8  9  2  0
  8 10  1  0
 10 11  2  0
 10 12  1  0
 12 13  1  0
 13 14  2  0
 14 15  1  0
 15 16  2  0
 16 17  1  0
 17 18  2  0
  9  4  1  0
 18 13  1  0
  5 19  1  0
  6 20  1  0
  7 21  1  0
  9 22  1  0
 12 23  1  0
 14 24  1  0
 15 25  1  0
 16 26  1  0
 17 27  1  0
 18 28  1  0
M  CHG  2   1  -1   2   1
M  END
$$$$
[H]N=C(N([H])[H])N([H])C([H])([H])C([H])([H])C([H])([H])[C@@]([H])(C(=O)c1nc([H])c([H])s1)N([H])C(=O)[C@@]([H])(N([H])C(=O)[C@@]([H])(N([H])C(=O)OC([H])([H])c1c([H])c([H])c([H])c([H])c1[H])C([H])([H])C([H])([H])C(=O)N([H])[H])C([H])([H])C([H])([H])C([H])([H])N([H])C(=N[H])N([H])[H]
     RDKit          3D

 87 88  0  0  0  0  0  0  0  0999 V2000
   -3.7289   -7.7371   -0.9825 N   0  0  0  0  0  0  0  0  0  0  0  0
   -2.4495   -7.1786   -1.2743 C   0  0  0  0  0  0  0  0  0  0  0  0
   -1.6670   -7.8501   -2.0669 N   0  0  0  0  0  0  0  0  0  0  0  0
   -2.0610   -5.9353   -0.7126 N   0  0  0  0  0  0  0  0  0  0  0  0
   -1.5586   -4.9305   -1.6062 C   0  0  0  0  0  0  0  0  0  0  0  0
   -1.1723   -3.6462   -0.9084 C   0  0  0  0  0  0  0  0  0  0  0  0
   -0.6561   -2.6871   -1.9630 C   0  0  0  0  0  0  0  0  0  0  0  0
   -0.2413   -1.3669   -1.3314 C   0  0  2  0  0  0  0  0  0  0  0  0
    0.8101   -1.5992   -0.3428 N   0  0  0  0  0  0  0  0  0  0  0  0
    2.0716   -0.9981   -0.4798 C   0  0  0  0  0  0  0  0  0  0  0  0
    2.2937   -0.2219   -1.4935 O   0  0  0  0  0  0  0  0  0  0  0  0
    3.2064   -1.1475    0.4315 C   0  0  2  0  0  0  0  0  0  0  0  0
    3.0344   -2.0915    1.5273 C   0  0  0  0  0  0  0  0  0  0  0  0
    2.8327   -3.5322    1.2354 C   0  0  0  0  0  0  0  0  0  0  0  0
    3.9605   -4.2002    0.5205 C   0  0  0  0  0  0  0  0  0  0  0  0
    3.7079   -5.4791   -0.0250 N   0  0  0  0  0  0  0  0  0  0  0  0
    5.0857   -3.6678    0.4022 O   0  0  0  0  0  0  0  0  0  0  0  0
    3.7859    0.1413    0.7389 N   0  0  0  0  0  0  0  0  0  0  0  0
    5.0058    0.6479    0.2500 C   0  0  0  0  0  0  0  0  0  0  0  0
    5.7431   -0.0007   -0.5337 O   0  0  0  0  0  0  0  0  0  0  0  0
    5.4098    1.9065    0.6437 O   0  0  0  0  0  0  0  0  0  0  0  0
    6.5887    2.5679    0.2464 C   0  0  0  0  0  0  0  0  0  0  0  0
    6.6185    3.9078    0.9248 C   0  0  0  0  0  0  0  0  0  0  0  0
    6.2501    3.9888    2.2704 C   0  0  0  0  0  0  0  0  0  0  0  0
    6.2675    5.2111    2.8928 C   0  0  0  0  0  0  0  0  0  0  0  0
    6.6418    6.3275    2.1953 C   0  0  0  0  0  0  0  0  0  0  0  0
    7.0083    6.2676    0.8669 C   0  0  0  0  0  0  0  0  0  0  0  0
    6.9913    5.0301    0.2362 C   0  0  0  0  0  0  0  0  0  0  0  0
   -1.4587   -0.7749   -0.7446 C   0  0  0  0  0  0  0  0  0  0  0  0
   -1.6002   -0.8313    0.5243 O   0  0  0  0  0  0  0  0  0  0  0  0
   -2.4606   -0.1520   -1.5019 N   0  0  0  0  0  0  0  0  0  0  0  0
   -3.6571    0.4014   -0.8014 C   0  0  1  0  0  0  0  0  0  0  0  0
   -3.4576    1.7755   -0.3026 C   0  0  0  0  0  0  0  0  0  0  0  0
   -4.5956    2.1930    0.5824 C   0  0  0  0  0  0  0  0  0  0  0  0
   -4.4666    3.6243    1.0514 C   0  0  0  0  0  0  0  0  0  0  0  0
   -3.2467    3.7544    1.7948 N   0  0  0  0  0  0  0  0  0  0  0  0
   -2.8622    4.9824    2.4109 C   0  0  0  0  0  0  0  0  0  0  0  0
   -2.5151    5.0266    3.7971 N   0  0  0  0  0  0  0  0  0  0  0  0
   -2.8304    6.0566    1.7039 N   0  0  0  0  0  0  0  0  0  0  0  0
   -4.7948    0.1015   -1.6618 C   0  0  0  0  0  0  0  0  0  0  0  0
   -4.9893   -1.1337   -1.9907 O   0  0  0  0  0  0  0  0  0  0  0  0
   -5.7455    1.0382   -2.2221 C   0  0  0  0  0  0  0  0  0  0  0  0
   -5.8648    2.3508   -2.2425 N   0  0  0  0  0  0  0  0  0  0  0  0
   -6.8374    2.9433   -2.8281 C   0  0  0  0  0  0  0  0  0  0  0  0
   -7.7788    2.1648   -3.4503 C   0  0  0  0  0  0  0  0  0  0  0  0
   -7.1752    0.6042   -3.1369 S   0  0  0  0  0  0  0  0  0  0  0  0
   -4.4823   -7.8811   -1.6846 H   0  0  0  0  0  0  0  0  0  0  0  0
   -3.9262   -8.0215   -0.0026 H   0  0  0  0  0  0  0  0  0  0  0  0
   -1.9657   -8.7589   -2.4700 H   0  0  0  0  0  0  0  0  0  0  0  0
   -2.1590   -5.8157    0.3154 H   0  0  0  0  0  0  0  0  0  0  0  0
   -2.4209   -4.6596   -2.2735 H   0  0  0  0  0  0  0  0  0  0  0  0
   -0.7555   -5.2867   -2.2811 H   0  0  0  0  0  0  0  0  0  0  0  0
   -0.3679   -3.8787   -0.1592 H   0  0  0  0  0  0  0  0  0  0  0  0
   -2.0171   -3.2317   -0.3474 H   0  0  0  0  0  0  0  0  0  0  0  0
   -1.4630   -2.5407   -2.6989 H   0  0  0  0  0  0  0  0  0  0  0  0
    0.1955   -3.1812   -2.4709 H   0  0  0  0  0  0  0  0  0  0  0  0
    0.1221   -0.7147   -2.1305 H   0  0  0  0  0  0  0  0  0  0  0  0
    0.5576   -2.1876    0.4485 H   0  0  0  0  0  0  0  0  0  0  0  0
    4.0611   -1.6294   -0.2300 H   0  0  0  0  0  0  0  0  0  0  0  0
    3.8844   -2.0111    2.2740 H   0  0  0  0  0  0  0  0  0  0  0  0
    2.1453   -1.8000    2.1909 H   0  0  0  0  0  0  0  0  0  0  0  0
    1.9037   -3.8521    0.7929 H   0  0  0  0  0  0  0  0  0  0  0  0
    2.8372   -4.0455    2.2633 H   0  0  0  0  0  0  0  0  0  0  0  0
    4.4666   -6.1803   -0.0267 H   0  0  0  0  0  0  0  0  0  0  0  0
    2.7865   -5.7285   -0.4208 H   0  0  0  0  0  0  0  0  0  0  0  0
    3.2144    0.7437    1.3952 H   0  0  0  0  0  0  0  0  0  0  0  0
    6.5626    2.8048   -0.8598 H   0  0  0  0  0  0  0  0  0  0  0  0
    7.4927    1.9680    0.4725 H   0  0  0  0  0  0  0  0  0  0  0  0
    5.9607    3.0767    2.7799 H   0  0  0  0  0  0  0  0  0  0  0  0
    5.9863    5.3084    3.9332 H   0  0  0  0  0  0  0  0  0  0  0  0
    6.6727    7.3268    2.6531 H   0  0  0  0  0  0  0  0  0  0  0  0
    7.3110    7.1548    0.2935 H   0  0  0  0  0  0  0  0  0  0  0  0
    7.2843    5.0180   -0.8030 H   0  0  0  0  0  0  0  0  0  0  0  0
   -2.4551   -0.0335   -2.5253 H   0  0  0  0  0  0  0  0  0  0  0  0
   -3.7218   -0.2442    0.1367 H   0  0  0  0  0  0  0  0  0  0  0  0
   -2.4858    1.7849    0.2663 H   0  0  0  0  0  0  0  0  0  0  0  0
   -3.3129    2.5319   -1.1174 H   0  0  0  0  0  0  0  0  0  0  0  0
   -4.3588    1.6167    1.6018 H   0  0  0  0  0  0  0  0  0  0  0  0
   -5.5652    1.8228    0.3602 H   0  0  0  0  0  0  0  0  0  0  0  0
   -5.3467    3.8308    1.7017 H   0  0  0  0  0  0  0  0  0  0  0  0
   -4.4587    4.2579    0.1469 H   0  0  0  0  0  0  0  0  0  0  0  0
   -2.6004    2.9431    1.9083 H   0  0  0  0  0  0  0  0  0  0  0  0
   -1.5712    4.8574    4.1727 H   0  0  0  0  0  0  0  0  0  0  0  0
   -3.2812    5.2453    4.4690 H   0  0  0  0  0  0  0  0  0  0  0  0
   -2.5528    6.9766    2.1293 H   0  0  0  0  0  0  0  0  0  0  0  0
   -6.9453    4.0535   -2.8504 H   0  0  0  0  0  0  0  0  0  0  0  0
   -8.6737    2.5090   -3.9971 H   0  0  0  0  0  0  0  0  0  0  0  0
  1  2  1  0
  2  3  2  3
  2  4  1  0
  4  5  1  0
  5  6  1  0
  6  7  1  0
  7  8  1  0
  8  9  1  0
  9 10  1  0
 10 11  2  0
 10 12  1  0
 12 13  1  0
 13 14  1  0
 14 15  1  0
 15 16  1  0
 15 17  2  0
 12 18  1  0
 18 19  1  0
 19 20  2  0
 19 21  1  0
 21 22  1  0
 22 23  1  0
 23 24  2  0
 24 25  1  0
 25 26  2  0
 26 27  1  0
 27 28  2  0
  8 29  1  0
 29 30  2  0
 29 31  1  0
 31 32  1  0
 32 33  1  0
 33 34  1  0
 34 35  1  0
 35 36  1  0
 36 37  1  0
 37 38  1  0
 37 39  2  3
 32 40  1  0
 40 41  2  0
 40 42  1  0
 42 43  2  0
 43 44  1  0
 44 45  2  0
 45 46  1  0
 28 23  1  0
 46 42  1  0
  1 47  1  0
  1 48  1  0
  3 49  1  0
  4 50  1  0
  5 51  1  0
  5 52  1  0
  6 53  1  0
  6 54  1  0
  7 55  1  0
  7 56  1  0
  8 57  1  6
  9 58  1  0
 12 59  1  6
 13 60  1  0
 13 61  1  0
 14 62  1  0
 14 63  1  0
 16 64  1  0
 16 65  1  0
 18 66  1  0
 22 67  1  0
 22 68  1  0
 24 69  1  0
 25 70  1  0
 26 71  1  0
 27 72  1  0
 28 73  1  0
 31 74  1  0
 32 75  1  1
 33 76  1  0
 33 77  1  0
 34 78  1  0
 34 79  1  0
 35 80  1  0
 35 81  1  0
 36 82  1  0
 38 83  1  0
 38 84  1  0
 39 85  1  0
 44 86  1  0
 45 87  1  0
M  END
$$$$
[H]c1nc2c(C([H])([H])[H])c(C([H])([H])[H])c(-c3c(C([H])(C([H])([H])[H])C([H])([H])[H])c4c([H])c(C5([H])C([H])([H])C([H])([H])N(C(=O)C([H])([H])C([H])([H])N6C([H])([H])C([H])([H])OC([H])([H])C6([H])[H])C([H])([H])C5([H])[H])c([H])c([H])c4n3[H])c([H])n2n1
     RDKit          3D

 79 84  0  0  0  0  0  0  0  0999 V2000
   -3.7827    2.3641   -1.6854 C   0  0  0  0  0  0  0  0  0  0  0  0
   -3.9590    2.2940   -0.1617 C   0  0  0  0  0  0  0  0  0  0  0  0
   -4.8973    3.2604    0.4397 C   0  0  0  0  0  0  0  0  0  0  0  0
   -3.6325    0.9882    0.4173 C   0  0  0  0  0  0  0  0  0  0  0  0
   -4.3510   -0.0126    1.0134 C   0  0  0  0  0  0  0  0  0  0  0  0
   -3.4663   -0.9027    1.5282 N   0  0  0  0  0  0  0  0  0  0  0  0
   -2.1988   -0.5503    1.3109 C   0  0  0  0  0  0  0  0  0  0  0  0
   -0.9686   -1.0887    1.6284 C   0  0  0  0  0  0  0  0  0  0  0  0
    0.2072   -0.4734    1.2673 C   0  0  0  0  0  0  0  0  0  0  0  0
    0.2037    0.7108    0.5731 C   0  0  0  0  0  0  0  0  0  0  0  0
   -1.0632    1.2167    0.2730 C   0  0  0  0  0  0  0  0  0  0  0  0
   -2.2496    0.6261    0.6146 C   0  0  0  0  0  0  0  0  0  0  0  0
    1.3841    1.4576    0.1251 C   0  0  0  0  0  0  0  0  0  0  0  0
    2.6735    1.1771    0.7735 C   0  0  0  0  0  0  0  0  0  0  0  0
    3.8441    1.1654   -0.2466 C   0  0  0  0  0  0  0  0  0  0  0  0
    3.6301    0.2154   -1.2939 N   0  0  0  0  0  0  0  0  0  0  0  0
    2.2379   -0.0080   -1.6957 C   0  0  0  0  0  0  0  0  0  0  0  0
    1.4911    1.2847   -1.4155 C   0  0  0  0  0  0  0  0  0  0  0  0
    4.7008   -0.4641   -1.9073 C   0  0  0  0  0  0  0  0  0  0  0  0
    4.4510   -1.3629   -2.7606 O   0  0  0  0  0  0  0  0  0  0  0  0
    6.1089   -0.1727   -1.6032 C   0  0  0  0  0  0  0  0  0  0  0  0
    6.7388   -1.3760   -0.9019 C   0  0  0  0  0  0  0  0  0  0  0  0
    8.1140   -1.2022   -0.6022 N   0  0  0  0  0  0  0  0  0  0  0  0
    8.5576   -2.1854    0.3491 C   0  0  0  0  0  0  0  0  0  0  0  0
    9.2561   -1.5036    1.5208 C   0  0  0  0  0  0  0  0  0  0  0  0
    8.4908   -0.4812    2.0125 O   0  0  0  0  0  0  0  0  0  0  0  0
    8.2742    0.5272    1.1178 C   0  0  0  0  0  0  0  0  0  0  0  0
    8.5836    0.1065   -0.3177 C   0  0  0  0  0  0  0  0  0  0  0  0
   -5.7809   -0.2694    0.8710 C   0  0  0  0  0  0  0  0  0  0  0  0
   -6.7881    0.5839    1.1096 C   0  0  0  0  0  0  0  0  0  0  0  0
   -8.0787    0.3179    0.8071 N   0  0  0  0  0  0  0  0  0  0  0  0
   -9.1718    1.0760    0.9750 N   0  0  0  0  0  0  0  0  0  0  0  0
  -10.2404    0.3936    0.5090 C   0  0  0  0  0  0  0  0  0  0  0  0
   -9.7866   -0.7846    0.0604 N   0  0  0  0  0  0  0  0  0  0  0  0
   -8.4577   -0.8285    0.2448 C   0  0  0  0  0  0  0  0  0  0  0  0
   -7.4833   -1.7874   -0.0383 C   0  0  0  0  0  0  0  0  0  0  0  0
   -7.9977   -3.0429   -0.6394 C   0  0  0  0  0  0  0  0  0  0  0  0
   -6.1681   -1.5088    0.2679 C   0  0  0  0  0  0  0  0  0  0  0  0
   -5.1781   -2.5414   -0.0770 C   0  0  0  0  0  0  0  0  0  0  0  0
   -4.7989    2.4769   -2.1615 H   0  0  0  0  0  0  0  0  0  0  0  0
   -3.2937    1.4322   -2.0155 H   0  0  0  0  0  0  0  0  0  0  0  0
   -3.2014    3.2218   -2.0186 H   0  0  0  0  0  0  0  0  0  0  0  0
   -2.9165    2.9356    0.0938 H   0  0  0  0  0  0  0  0  0  0  0  0
   -5.9200    3.2845    0.0744 H   0  0  0  0  0  0  0  0  0  0  0  0
   -4.5012    4.3465    0.4444 H   0  0  0  0  0  0  0  0  0  0  0  0
   -4.9265    3.0565    1.5574 H   0  0  0  0  0  0  0  0  0  0  0  0
   -3.7559   -1.7787    2.0385 H   0  0  0  0  0  0  0  0  0  0  0  0
   -0.9341   -2.0149    2.1735 H   0  0  0  0  0  0  0  0  0  0  0  0
    1.1230   -0.9260    1.5276 H   0  0  0  0  0  0  0  0  0  0  0  0
   -1.1097    2.1720   -0.2848 H   0  0  0  0  0  0  0  0  0  0  0  0
    1.1301    2.5617    0.2113 H   0  0  0  0  0  0  0  0  0  0  0  0
    2.7367    0.2534    1.3572 H   0  0  0  0  0  0  0  0  0  0  0  0
    2.9642    2.0164    1.4760 H   0  0  0  0  0  0  0  0  0  0  0  0
    4.0340    2.1658   -0.6537 H   0  0  0  0  0  0  0  0  0  0  0  0
    4.7276    0.8996    0.4102 H   0  0  0  0  0  0  0  0  0  0  0  0
    1.8411   -0.8465   -1.0985 H   0  0  0  0  0  0  0  0  0  0  0  0
    2.1674   -0.2166   -2.7636 H   0  0  0  0  0  0  0  0  0  0  0  0
    1.9591    2.1452   -1.8752 H   0  0  0  0  0  0  0  0  0  0  0  0
    0.4664    1.1631   -1.7773 H   0  0  0  0  0  0  0  0  0  0  0  0
    6.1332    0.7239   -0.9596 H   0  0  0  0  0  0  0  0  0  0  0  0
    6.6405    0.0551   -2.5397 H   0  0  0  0  0  0  0  0  0  0  0  0
    6.1647   -1.6648    0.0101 H   0  0  0  0  0  0  0  0  0  0  0  0
    6.6472   -2.2349   -1.6382 H   0  0  0  0  0  0  0  0  0  0  0  0
    9.2729   -2.9276   -0.0320 H   0  0  0  0  0  0  0  0  0  0  0  0
    7.6982   -2.7570    0.7996 H   0  0  0  0  0  0  0  0  0  0  0  0
   10.2787   -1.2227    1.2624 H   0  0  0  0  0  0  0  0  0  0  0  0
    9.3208   -2.2803    2.3137 H   0  0  0  0  0  0  0  0  0  0  0  0
    7.2195    0.8801    1.1837 H   0  0  0  0  0  0  0  0  0  0  0  0
    8.9447    1.3770    1.3495 H   0  0  0  0  0  0  0  0  0  0  0  0
    9.7012    0.0950   -0.3667 H   0  0  0  0  0  0  0  0  0  0  0  0
    8.1688    0.8367   -1.0103 H   0  0  0  0  0  0  0  0  0  0  0  0
   -6.6372    1.5444    1.6462 H   0  0  0  0  0  0  0  0  0  0  0  0
  -11.2517    0.7801    0.5162 H   0  0  0  0  0  0  0  0  0  0  0  0
   -9.0303   -2.8799   -1.0306 H   0  0  0  0  0  0  0  0  0  0  0  0
   -7.3803   -3.4529   -1.4600 H   0  0  0  0  0  0  0  0  0  0  0  0
   -8.0007   -3.8472    0.1645 H   0  0  0  0  0  0  0  0  0  0  0  0
   -5.1373   -3.2456    0.7921 H   0  0  0  0  0  0  0  0  0  0  0  0
   -4.1972   -2.1840   -0.3846 H   0  0  0  0  0  0  0  0  0  0  0  0
   -5.5946   -3.1626   -0.9255 H   0  0  0  0  0  0  0  0  0  0  0  0
  1  2  1  0
  2  3  1  0
  2  4  1  0
  4  5  2  0
  5  6  1  0
  6  7  1  0
  7  8  2  0
  8  9  1  0
  9 10  2  0
 10 11  1  0
 11 12  2  0
 10 13  1  0
 13 14  1  0
 14 15  1  0
 15 16  1  0
 16 17  1  0
 17 18  1  0
 16 19  1  0
 19 20  2  0
 19 21  1  0
 21 22  1  0
 22 23  1  0
 23 24  1  0
 24 25  1  0
 25 26  1  0
 26 27  1  0
 27 28  1  0
  5 29  1  0
 29 30  2  0
 30 31  1  0
 31 32  1  0
 32 33  2  0
 33 34  1  0
 34 35  2  0
 35 36  1  0
 36 37  1  0
 36 38  2  0
 38 39  1  0
 12  4  1  0
 18 13  1  0
 28 23  1  0
 38 29  1  0
 12  7  1  0
 35 31  1  0
  1 40  1  0
  1 41  1  0
  1 42  1  0
  2 43  1  0
  3 44  1  0
  3 45  1  0
  3 46  1  0
  6 47  1  0
  8 48  1  0
  9 49  1  0
 11 50  1  0
 13 51  1  0
 14 52  1  0
 14 53  1  0
 15 54  1  0
 15 55  1  0
 17 56  1  0
 17 57  1  0
 18 58  1  0
 18 59  1  0
 21 60  1  0
 21 61  1  0
 22 62  1  0
 22 63  1  0
 24 64  1  0
 24 65  1  0
 25 66  1  0
 25 67  1  0
 27 68  1  0
 27 69  1  0
 28 70  1  0
 28 71  1  0
 30 72  1  0
 33 73  1  0
 37 74  1  0
 37 75  1  0
 37 76  1  0
 39 77  1  0
 39 78  1  0
 39 79  1  0
M  END
$$$$
[H]O[C@@]1([H])C([H])([H])C([H])([H])[C@]2(C([H])([H])[H])C3([H])C([H])([H])C([H])([H])[C@]4(C([H])([H])[H])C(n5c([H])nc([H])c5[H])=C([H])C([H])([H])C4([H])C3([H])C([H])([H])C([H])([H])C2([H])C1([H])[H]
     RDKit          3D

 57 61  0  0  0  0  0  0  0  0999 V2000
   -2.1892   -0.5749   -1.8456 C   0  0  0  0  0  0  0  0  0  0  0  0
   -2.1181   -0.0377   -0.4584 C   0  0  2  0  0  0  0  0  0  0  0  0
   -1.5921    1.3695   -0.3617 C   0  0  0  0  0  0  0  0  0  0  0  0
   -0.1789    1.4396    0.2044 C   0  0  0  0  0  0  0  0  0  0  0  0
    0.6529    0.3507   -0.3559 C   0  0  0  0  0  0  0  0  0  0  0  0
    0.1294   -0.9715    0.2213 C   0  0  0  0  0  0  0  0  0  0  0  0
    0.6218   -2.0505   -0.6614 C   0  0  0  0  0  0  0  0  0  0  0  0
    2.1221   -1.9826   -0.7600 C   0  0  0  0  0  0  0  0  0  0  0  0
    2.7304   -0.9298    0.0913 C   0  0  0  0  0  0  0  0  0  0  0  0
    4.2083   -0.7592   -0.1864 C   0  0  0  0  0  0  0  0  0  0  0  0
    4.7527    0.0305    0.9918 C   0  0  1  0  0  0  0  0  0  0  0  0
    5.8326    0.8459    0.6176 O   0  0  0  0  0  0  0  0  0  0  0  0
    3.7193    0.7361    1.7900 C   0  0  0  0  0  0  0  0  0  0  0  0
    2.5431    1.2723    1.0558 C   0  0  0  0  0  0  0  0  0  0  0  0
    2.1144    0.4496   -0.1124 C   0  0  2  0  0  0  0  0  0  0  0  0
    2.7587    1.0951   -1.3503 C   0  0  0  0  0  0  0  0  0  0  0  0
   -1.2807   -0.8414    0.5058 C   0  0  0  0  0  0  0  0  0  0  0  0
   -2.1087   -2.0583    0.6633 C   0  0  0  0  0  0  0  0  0  0  0  0
   -3.4585   -1.4000    0.7701 C   0  0  0  0  0  0  0  0  0  0  0  0
   -3.4490   -0.2517    0.1265 C   0  0  0  0  0  0  0  0  0  0  0  0
   -4.5737    0.6035    0.0378 N   0  0  0  0  0  0  0  0  0  0  0  0
   -5.7926    0.4327    0.6160 C   0  0  0  0  0  0  0  0  0  0  0  0
   -6.6384    1.4616    0.2871 C   0  0  0  0  0  0  0  0  0  0  0  0
   -5.9258    2.2699   -0.5020 N   0  0  0  0  0  0  0  0  0  0  0  0
   -4.6728    1.7454   -0.6512 C   0  0  0  0  0  0  0  0  0  0  0  0
   -3.2269   -0.3391   -2.2304 H   0  0  0  0  0  0  0  0  0  0  0  0
   -2.1365   -1.6670   -1.8217 H   0  0  0  0  0  0  0  0  0  0  0  0
   -1.5121   -0.1937   -2.5880 H   0  0  0  0  0  0  0  0  0  0  0  0
   -2.1977    2.0128    0.3127 H   0  0  0  0  0  0  0  0  0  0  0  0
   -1.5760    1.8317   -1.3590 H   0  0  0  0  0  0  0  0  0  0  0  0
   -0.2754    1.4176    1.3065 H   0  0  0  0  0  0  0  0  0  0  0  0
    0.2271    2.4482   -0.0957 H   0  0  0  0  0  0  0  0  0  0  0  0
    0.4952    0.2949   -1.4374 H   0  0  0  0  0  0  0  0  0  0  0  0
    0.6835   -1.0772    1.2024 H   0  0  0  0  0  0  0  0  0  0  0  0
    0.2595   -3.0292   -0.2475 H   0  0  0  0  0  0  0  0  0  0  0  0
    0.2317   -2.0125   -1.6976 H   0  0  0  0  0  0  0  0  0  0  0  0
    2.5072   -2.9674   -0.3865 H   0  0  0  0  0  0  0  0  0  0  0  0
    2.4813   -1.9265   -1.8181 H   0  0  0  0  0  0  0  0  0  0  0  0
    2.6976   -1.2374    1.1782 H   0  0  0  0  0  0  0  0  0  0  0  0
    4.6299   -1.8059   -0.2155 H   0  0  0  0  0  0  0  0  0  0  0  0
    4.4387   -0.3167   -1.1521 H   0  0  0  0  0  0  0  0  0  0  0  0
    5.2185   -0.7411    1.6762 H   0  0  0  0  0  0  0  0  0  0  0  0
    5.5088    1.7717    0.4148 H   0  0  0  0  0  0  0  0  0  0  0  0
    4.2281    1.6087    2.2968 H   0  0  0  0  0  0  0  0  0  0  0  0
    3.3726    0.1010    2.6579 H   0  0  0  0  0  0  0  0  0  0  0  0
    1.7029    1.3672    1.7927 H   0  0  0  0  0  0  0  0  0  0  0  0
    2.7576    2.3391    0.7528 H   0  0  0  0  0  0  0  0  0  0  0  0
    2.8320    0.3890   -2.1870 H   0  0  0  0  0  0  0  0  0  0  0  0
    1.9976    1.8637   -1.6795 H   0  0  0  0  0  0  0  0  0  0  0  0
    3.6592    1.6547   -1.1135 H   0  0  0  0  0  0  0  0  0  0  0  0
   -1.3936   -0.2760    1.4871 H   0  0  0  0  0  0  0  0  0  0  0  0
   -2.0587   -2.7992   -0.1305 H   0  0  0  0  0  0  0  0  0  0  0  0
   -1.8663   -2.5829    1.6179 H   0  0  0  0  0  0  0  0  0  0  0  0
   -4.2963   -1.8199    1.2984 H   0  0  0  0  0  0  0  0  0  0  0  0
   -6.0072   -0.4214    1.2423 H   0  0  0  0  0  0  0  0  0  0  0  0
   -7.6590    1.6223    0.5781 H   0  0  0  0  0  0  0  0  0  0  0  0
   -3.9306    2.2459   -1.2645 H   0  0  0  0  0  0  0  0  0  0  0  0
  2  1  1  6
  2  3  1  0
  3  4  1  0
  4  5  1  0
  5  6  1  0
  6  7  1  0
  7  8  1  0
  8  9  1  0
  9 10  1  0
 10 11  1  0
 11 12  1  0
 11 13  1  0
 13 14  1  0
 14 15  1  0
 15 16  1  6
  6 17  1  0
 17 18  1  0
 18 19  1  0
 19 20  2  0
 20 21  1  0
 21 22  1  0
 22 23  2  0
 23 24  1  0
 24 25  2  0
 17  2  1  0
 25 21  1  0
 20  2  1  0
 15  5  1  0
 15  9  1  0
  1 26  1  0
  1 27  1  0
  1 28  1  0
  3 29  1  0
  3 30  1  0
  4 31  1  0
  4 32  1  0
  5 33  1  0
  6 34  1  0
  7 35  1  0
  7 36  1  0
  8 37  1  0
  8 38  1  0
  9 39  1  0
 10 40  1  0
 10 41  1  0
 11 42  1  1
 12 43  1  0
 13 44  1  0
 13 45  1  0
 14 46  1  0
 14 47  1  0
 16 48  1  0
 16 49  1  0
 16 50  1  0
 17 51  1  0
 18 52  1  0
 18 53  1  0
 19 54  1  0
 22 55  1  0
 23 56  1  0
 25 57  1  0
M  END
$$$$
[H]OC(=O)[C@@]([H])(N([H])C(=O)[C@@]([H])(N([H])C(=O)[C@@]([H])(N([H])C(=O)[C@@]([H])(N([H])C(=O)[C@@]([H])(N([H])C(=O)[C@@]([H])(N([H])C(=O)[C@@]([H])(N([H])C(=O)C([H])([H])[H])C([H])([H])O[H])C([H])(C([H])([H])[H])C([H])([H])[H])C([H])([H])C([H])([H])C([H])([H])N=C(N([H])[H])N([H])[H])C([H])([H])O[H])C([H])(C([H])([H])[H])C([H])([H])[H])C([H])([H])O[H])C([H])([H])O[H]
     RDKit          3D

107106  0  0  0  0  0  0  0  0999 V2000
   -7.3527   -4.9796    5.2070 C   0  0  0  0  0  0  0  0  0  0  0  0
   -6.8229   -5.0331    3.8226 C   0  0  0  0  0  0  0  0  0  0  0  0
   -5.9070   -5.8508    3.5629 O   0  0  0  0  0  0  0  0  0  0  0  0
   -7.2990   -4.2036    2.7814 N   0  0  0  0  0  0  0  0  0  0  0  0
   -6.7834   -4.2443    1.4337 C   0  0  1  0  0  0  0  0  0  0  0  0
   -7.8648   -4.4004    0.4360 C   0  0  0  0  0  0  0  0  0  0  0  0
   -8.5926   -5.5961    0.6274 O   0  0  0  0  0  0  0  0  0  0  0  0
   -5.9732   -3.0027    1.1757 C   0  0  0  0  0  0  0  0  0  0  0  0
   -5.4103   -2.6004    2.2820 O   0  0  0  0  0  0  0  0  0  0  0  0
   -5.8059   -2.3523    0.0055 N   0  0  0  0  0  0  0  0  0  0  0  0
   -5.6142   -1.6634   -1.1776 C   0  0  1  0  0  0  0  0  0  0  0  0
   -6.2618   -0.3002   -1.2574 C   0  0  0  0  0  0  0  0  0  0  0  0
   -7.7802   -0.5987   -1.0992 C   0  0  0  0  0  0  0  0  0  0  0  0
   -5.9313    0.6171   -0.1317 C   0  0  0  0  0  0  0  0  0  0  0  0
   -4.2592   -1.6043   -1.7413 C   0  0  0  0  0  0  0  0  0  0  0  0
   -3.5426   -2.6784   -1.8026 O   0  0  0  0  0  0  0  0  0  0  0  0
   -3.7282   -0.3925   -2.2140 N   0  0  0  0  0  0  0  0  0  0  0  0
   -2.4014   -0.2307   -2.8122 C   0  0  1  0  0  0  0  0  0  0  0  0
   -2.2736    0.9965   -3.6170 C   0  0  0  0  0  0  0  0  0  0  0  0
   -2.5296    2.3028   -2.9691 C   0  0  0  0  0  0  0  0  0  0  0  0
   -1.6722    2.7384   -1.8483 C   0  0  0  0  0  0  0  0  0  0  0  0
   -2.1210    4.0526   -1.3604 N   0  0  0  0  0  0  0  0  0  0  0  0
   -1.9028    5.1524   -1.9242 C   0  0  0  0  0  0  0  0  0  0  0  0
   -1.1808    5.3367   -3.1361 N   0  0  0  0  0  0  0  0  0  0  0  0
   -2.4342    6.3394   -1.3031 N   0  0  0  0  0  0  0  0  0  0  0  0
   -1.4043   -0.3481   -1.7390 C   0  0  0  0  0  0  0  0  0  0  0  0
   -1.8204   -0.5910   -0.5545 O   0  0  0  0  0  0  0  0  0  0  0  0
   -0.0059   -0.2096   -1.9523 N   0  0  0  0  0  0  0  0  0  0  0  0
    0.8147   -0.3710   -0.7481 C   0  0  1  0  0  0  0  0  0  0  0  0
    1.4838   -1.7595   -0.8445 C   0  0  0  0  0  0  0  0  0  0  0  0
    0.4474   -2.6877   -0.9360 O   0  0  0  0  0  0  0  0  0  0  0  0
    1.8116    0.6925   -0.6864 C   0  0  0  0  0  0  0  0  0  0  0  0
    1.9890    1.4979   -1.6164 O   0  0  0  0  0  0  0  0  0  0  0  0
    2.5857    0.7922    0.4861 N   0  0  0  0  0  0  0  0  0  0  0  0
    3.6052    1.8730    0.5909 C   0  0  1  0  0  0  0  0  0  0  0  0
    3.1017    2.7727    1.6825 C   0  0  0  0  0  0  0  0  0  0  0  0
    1.7457    3.3426    1.2648 C   0  0  0  0  0  0  0  0  0  0  0  0
    4.0063    3.7760    2.2589 C   0  0  0  0  0  0  0  0  0  0  0  0
    4.9172    1.2190    0.9280 C   0  0  0  0  0  0  0  0  0  0  0  0
    4.8184    0.0011    1.2732 O   0  0  0  0  0  0  0  0  0  0  0  0
    6.1093    1.8952    0.8562 N   0  0  0  0  0  0  0  0  0  0  0  0
    7.4413    1.5220    1.1035 C   0  0  1  0  0  0  0  0  0  0  0  0
    7.8253    2.0526    2.4838 C   0  0  0  0  0  0  0  0  0  0  0  0
    7.0031    1.5466    3.4871 O   0  0  0  0  0  0  0  0  0  0  0  0
    7.8379    0.1298    0.9635 C   0  0  0  0  0  0  0  0  0  0  0  0
    7.2202   -0.8616    1.3238 O   0  0  0  0  0  0  0  0  0  0  0  0
    9.1177   -0.1446    0.3168 N   0  0  0  0  0  0  0  0  0  0  0  0
    9.5592   -1.5012    0.1419 C   0  0  1  0  0  0  0  0  0  0  0  0
    9.2260   -1.9621   -1.2953 C   0  0  0  0  0  0  0  0  0  0  0  0
    7.8253   -1.8494   -1.4551 O   0  0  0  0  0  0  0  0  0  0  0  0
   10.9903   -1.6340    0.3344 C   0  0  0  0  0  0  0  0  0  0  0  0
   11.5818   -2.8706    0.2466 O   0  0  0  0  0  0  0  0  0  0  0  0
   11.6852   -0.6345    0.5769 O   0  0  0  0  0  0  0  0  0  0  0  0
   -7.3008   -3.9384    5.6235 H   0  0  0  0  0  0  0  0  0  0  0  0
   -6.8780   -5.7238    5.8643 H   0  0  0  0  0  0  0  0  0  0  0  0
   -8.4239   -5.2403    5.1691 H   0  0  0  0  0  0  0  0  0  0  0  0
   -8.0825   -3.5175    3.0217 H   0  0  0  0  0  0  0  0  0  0  0  0
   -6.0940   -5.1368    1.3758 H   0  0  0  0  0  0  0  0  0  0  0  0
   -8.5856   -3.5382    0.3987 H   0  0  0  0  0  0  0  0  0  0  0  0
   -7.4348   -4.4255   -0.6126 H   0  0  0  0  0  0  0  0  0  0  0  0
   -7.9534   -6.3591    0.5948 H   0  0  0  0  0  0  0  0  0  0  0  0
   -4.9963   -1.4413    0.6116 H   0  0  0  0  0  0  0  0  0  0  0  0
   -6.2013   -2.2726   -1.9913 H   0  0  0  0  0  0  0  0  0  0  0  0
   -6.1550    0.1263   -2.2548 H   0  0  0  0  0  0  0  0  0  0  0  0
   -8.1126   -1.3345   -1.8476 H   0  0  0  0  0  0  0  0  0  0  0  0
   -8.3693    0.3346   -1.2447 H   0  0  0  0  0  0  0  0  0  0  0  0
   -7.9632   -0.9213   -0.0635 H   0  0  0  0  0  0  0  0  0  0  0  0
   -6.6187    0.4835    0.7405 H   0  0  0  0  0  0  0  0  0  0  0  0
   -4.8710    0.5651    0.1842 H   0  0  0  0  0  0  0  0  0  0  0  0
   -6.0995    1.6703   -0.4708 H   0  0  0  0  0  0  0  0  0  0  0  0
   -4.2741    0.4791   -2.1553 H   0  0  0  0  0  0  0  0  0  0  0  0
   -2.1900   -1.1461   -3.4583 H   0  0  0  0  0  0  0  0  0  0  0  0
   -2.8307    0.9214   -4.6042 H   0  0  0  0  0  0  0  0  0  0  0  0
   -1.1858    1.0236   -3.9749 H   0  0  0  0  0  0  0  0  0  0  0  0
   -3.6004    2.3487   -2.5648 H   0  0  0  0  0  0  0  0  0  0  0  0
   -2.5213    3.0920   -3.7559 H   0  0  0  0  0  0  0  0  0  0  0  0
   -0.6254    2.8297   -2.1938 H   0  0  0  0  0  0  0  0  0  0  0  0
   -1.6969    2.1207   -0.9338 H   0  0  0  0  0  0  0  0  0  0  0  0
   -1.6954    5.3913   -4.0529 H   0  0  0  0  0  0  0  0  0  0  0  0
   -0.1490    5.4180   -3.1190 H   0  0  0  0  0  0  0  0  0  0  0  0
   -1.9196    7.2280   -1.3198 H   0  0  0  0  0  0  0  0  0  0  0  0
   -3.3531    6.3039   -0.8186 H   0  0  0  0  0  0  0  0  0  0  0  0
    0.4678   -0.0160   -2.8438 H   0  0  0  0  0  0  0  0  0  0  0  0
    0.1858   -0.4422    0.1592 H   0  0  0  0  0  0  0  0  0  0  0  0
    1.9925   -1.9648    0.1200 H   0  0  0  0  0  0  0  0  0  0  0  0
    2.1414   -1.7892   -1.7162 H   0  0  0  0  0  0  0  0  0  0  0  0
    0.0607   -2.8345   -0.0404 H   0  0  0  0  0  0  0  0  0  0  0  0
    2.5009    0.1639    1.3097 H   0  0  0  0  0  0  0  0  0  0  0  0
    3.6201    2.4009   -0.3461 H   0  0  0  0  0  0  0  0  0  0  0  0
    2.8334    2.0619    2.5462 H   0  0  0  0  0  0  0  0  0  0  0  0
    1.5991    4.2406    1.9036 H   0  0  0  0  0  0  0  0  0  0  0  0
    0.9339    2.6181    1.3474 H   0  0  0  0  0  0  0  0  0  0  0  0
    1.8875    3.7236    0.2403 H   0  0  0  0  0  0  0  0  0  0  0  0
    4.5287    4.3480    1.4868 H   0  0  0  0  0  0  0  0  0  0  0  0
    4.7463    3.3505    2.9774 H   0  0  0  0  0  0  0  0  0  0  0  0
    3.3788    4.5558    2.7898 H   0  0  0  0  0  0  0  0  0  0  0  0
    5.9793    2.9447    0.4931 H   0  0  0  0  0  0  0  0  0  0  0  0
    8.0709    2.0963    0.3047 H   0  0  0  0  0  0  0  0  0  0  0  0
    8.8709    1.7866    2.7034 H   0  0  0  0  0  0  0  0  0  0  0  0
    7.7239    3.1578    2.4241 H   0  0  0  0  0  0  0  0  0  0  0  0
    6.7339    2.3272    4.0473 H   0  0  0  0  0  0  0  0  0  0  0  0
    9.6690    0.6774   -0.0022 H   0  0  0  0  0  0  0  0  0  0  0  0
    9.0011   -2.2245    0.7785 H   0  0  0  0  0  0  0  0  0  0  0  0
    9.7444   -1.3511   -2.0314 H   0  0  0  0  0  0  0  0  0  0  0  0
    9.4993   -3.0153   -1.3558 H   0  0  0  0  0  0  0  0  0  0  0  0
    7.3688   -2.6253   -1.0908 H   0  0  0  0  0  0  0  0  0  0  0  0
   12.5693   -3.0235    0.2160 H   0  0  0  0  0  0  0  0  0  0  0  0
  1  2  1  0
  2  3  2  0
  2  4  1  0
  4  5  1  0
  5  6  1  0
  6  7  1  0
  5  8  1  0
  8  9  2  0
  8 10  1  0
 10 11  1  0
 11 12  1  0
 12 13  1  0
 12 14  1  0
 11 15  1  0
 15 16  2  0
 15 17  1  0
 17 18  1  0
 18 19  1  0
 19 20  1  0
 20 21  1  0
 21 22  1  0
 22 23  2  3
 23 24  1  0
 23 25  1  0
 18 26  1  0
 26 27  2  0
 26 28  1  0
 28 29  1  0
 29 30  1  0
 30 31  1  0
 29 32  1  0
 32 33  2  0
 32 34  1  0
 34 35  1  0
 35 36  1  0
 36 37  1  0
 36 38  1  0
 35 39  1  0
 39 40  2  0
 39 41  1  0
 41 42  1  0
 42 43  1  0
 43 44  1  0
 42 45  1  0
 45 46  2  0
 45 47  1  0
 47 48  1  0
 48 49  1  0
 49 50  1  0
 48 51  1  0
 51 52  1  0
 51 53  2  0
  1 54  1  0
  1 55  1  0
  1 56  1  0
  4 57  1  0
  5 58  1  1
  6 59  1  0
  6 60  1  0
  7 61  1  0
 10 62  1  0
 11 63  1  6
 12 64  1  0
 13 65  1  0
 13 66  1  0
 13 67  1  0
 14 68  1  0
 14 69  1  0
 14 70  1  0
 17 71  1  0
 18 72  1  6
 19 73  1  0
 19 74  1  0
 20 75  1  0
 20 76  1  0
 21 77  1  0
 21 78  1  0
 24 79  1  0
 24 80  1  0
 25 81  1  0
 25 82  1  0
 28 83  1  0
 29 84  1  1
 30 85  1  0
 30 86  1  0
 31 87  1  0
 34 88  1  0
 35 89  1  6
 36 90  1  0
 37 91  1  0
 37 92  1  0
 37 93  1  0
 38 94  1  0
 38 95  1  0
 38 96  1  0
 41 97  1  0
 42 98  1  6
 43 99  1  0
 43100  1  0
 44101  1  0
 47102  1  0
 48103  1  1
 49104  1  0
 49105  1  0
 50106  1  0
 52107  1  0
M  END
$$$$
[H]O[C@]([H])(C([H])([H])[H])[C@@]([H])(C(=O)N([H])S(=O)(=O)c1c([H])c([H])c([H])c(-c2nc([H])nc(N([H])[H])c2[H])c1[H])N([H])[H]
     RDKit          3D

 41 42  0  0  0  0  0  0  0  0999 V2000
    2.8597    2.3597    0.4420 C   0  0  0  0  0  0  0  0  0  0  0  0
    3.8871    1.3610    0.9358 C   0  0  1  0  0  0  0  0  0  0  0  0
    3.6478    1.1209    2.2713 O   0  0  0  0  0  0  0  0  0  0  0  0
    3.8629    0.0792    0.1508 C   0  0  2  0  0  0  0  0  0  0  0  0
    4.1244    0.3882   -1.2631 N   0  0  0  0  0  0  0  0  0  0  0  0
    2.6294   -0.7014    0.2706 C   0  0  0  0  0  0  0  0  0  0  0  0
    1.9112   -0.8379   -0.7582 O   0  0  0  0  0  0  0  0  0  0  0  0
    2.1990   -1.3137    1.4757 N   0  0  0  0  0  0  0  0  0  0  0  0
    0.7689   -2.2366    1.6558 S   0  0  0  0  0  0  0  0  0  0  0  0
    0.0313   -1.6758    2.8650 O   0  0  0  0  0  0  0  0  0  0  0  0
    1.0649   -3.6753    2.0216 O   0  0  0  0  0  0  0  0  0  0  0  0
   -0.3147   -2.1306    0.3013 C   0  0  0  0  0  0  0  0  0  0  0  0
   -0.2194   -3.0315   -0.7256 C   0  0  0  0  0  0  0  0  0  0  0  0
   -1.0744   -2.9525   -1.7997 C   0  0  0  0  0  0  0  0  0  0  0  0
   -2.0312   -1.9627   -1.8434 C   0  0  0  0  0  0  0  0  0  0  0  0
   -2.1667   -1.0307   -0.8318 C   0  0  0  0  0  0  0  0  0  0  0  0
   -1.2935   -1.1426    0.2256 C   0  0  0  0  0  0  0  0  0  0  0  0
   -3.1770    0.0195   -0.8915 C   0  0  0  0  0  0  0  0  0  0  0  0
   -3.3926    0.9654    0.0758 C   0  0  0  0  0  0  0  0  0  0  0  0
   -4.3582    1.9463   -0.0161 C   0  0  0  0  0  0  0  0  0  0  0  0
   -4.5779    2.9183    0.9825 N   0  0  0  0  0  0  0  0  0  0  0  0
   -5.1223    1.9516   -1.1366 N   0  0  0  0  0  0  0  0  0  0  0  0
   -4.9297    1.0298   -2.1050 C   0  0  0  0  0  0  0  0  0  0  0  0
   -3.9717    0.0745   -1.9892 N   0  0  0  0  0  0  0  0  0  0  0  0
    3.1547    3.3380    0.8806 H   0  0  0  0  0  0  0  0  0  0  0  0
    1.8505    2.1356    0.8305 H   0  0  0  0  0  0  0  0  0  0  0  0
    2.8834    2.4882   -0.6620 H   0  0  0  0  0  0  0  0  0  0  0  0
    4.8797    1.8720    0.7779 H   0  0  0  0  0  0  0  0  0  0  0  0
    3.0832    1.8022    2.7014 H   0  0  0  0  0  0  0  0  0  0  0  0
    4.6979   -0.5666    0.5300 H   0  0  0  0  0  0  0  0  0  0  0  0
    3.3877   -0.0318   -1.8835 H   0  0  0  0  0  0  0  0  0  0  0  0
    5.0189   -0.0997   -1.5647 H   0  0  0  0  0  0  0  0  0  0  0  0
    2.8453   -1.1679    2.3105 H   0  0  0  0  0  0  0  0  0  0  0  0
    0.5465   -3.8283   -0.6963 H   0  0  0  0  0  0  0  0  0  0  0  0
   -0.9794   -3.6874   -2.6148 H   0  0  0  0  0  0  0  0  0  0  0  0
   -2.7075   -1.8944   -2.6854 H   0  0  0  0  0  0  0  0  0  0  0  0
   -1.3363   -0.4387    1.0725 H   0  0  0  0  0  0  0  0  0  0  0  0
   -2.7864    0.9530    0.9548 H   0  0  0  0  0  0  0  0  0  0  0  0
   -4.9528    2.6175    1.9012 H   0  0  0  0  0  0  0  0  0  0  0  0
   -4.3781    3.9172    0.8282 H   0  0  0  0  0  0  0  0  0  0  0  0
   -5.5647    1.0677   -2.9944 H   0  0  0  0  0  0  0  0  0  0  0  0
  1  2  1  0
  2  3  1  0
  2  4  1  0
  4  5  1  0
  4  6  1  0
  6  7  2  0
  6  8  1  0
  8  9  1  0
  9 10  2  0
  9 11  2  0
  9 12  1  0
 12 13  2  0
 13 14  1  0
 14 15  2  0
 15 16  1  0
 16 17  2  0
 16 18  1  0
 18 19  2  0
 19 20  1  0
 20 21  1  0
 20 22  2  0
 22 23  1  0
 23 24  2  0
 17 12  1  0
 24 18  1  0
  1 25  1  0
  1 26  1  0
  1 27  1  0
  2 28  1  1
  3 29  1  0
  4 30  1  1
  5 31  1  0
  5 32  1  0
  8 33  1  0
 13 34  1  0
 14 35  1  0
 15 36  1  0
 17 37  1  0
 19 38  1  0
 21 39  1  0
 21 40  1  0
 23 41  1  0
M  END
$$$$
[H]c1c([H])c(S(=O)(=O)N2c3c([H])c(N([H])C(=O)OC(C([H])([H])[H])(C([H])([H])[H])C([H])([H])[H])c([H])c([H])c3O[C@@]([H])(C([H])([H])N([H])C(=O)C([H])([H])[H])C2([H])[H])c([H])c(Cl)c1F
     RDKit          3D

 59 61  0  0  0  0  0  0  0  0999 V2000
   -7.3972   -1.6545    0.5908 C   0  0  0  0  0  0  0  0  0  0  0  0
   -6.0164   -2.2434    0.7560 C   0  0  0  0  0  0  0  0  0  0  0  0
   -5.7708   -3.2489    0.0640 O   0  0  0  0  0  0  0  0  0  0  0  0
   -5.0919   -1.6699    1.6414 N   0  0  0  0  0  0  0  0  0  0  0  0
   -3.7746   -2.1984    1.8186 C   0  0  0  0  0  0  0  0  0  0  0  0
   -2.9746   -2.1640    0.5578 C   0  0  1  0  0  0  0  0  0  0  0  0
   -2.9991   -0.8009   -0.0645 C   0  0  0  0  0  0  0  0  0  0  0  0
   -1.7693   -0.4218   -0.6917 N   0  0  0  0  0  0  0  0  0  0  0  0
   -0.5551   -0.8413   -0.1033 C   0  0  0  0  0  0  0  0  0  0  0  0
    0.6160   -0.1579   -0.2481 C   0  0  0  0  0  0  0  0  0  0  0  0
    1.8122   -0.5956    0.3465 C   0  0  0  0  0  0  0  0  0  0  0  0
    2.9496    0.1840    0.1499 N   0  0  0  0  0  0  0  0  0  0  0  0
    4.2778   -0.1958    0.3484 C   0  0  0  0  0  0  0  0  0  0  0  0
    4.6169   -1.3257    0.7363 O   0  0  0  0  0  0  0  0  0  0  0  0
    5.3394    0.6994    0.1154 O   0  0  0  0  0  0  0  0  0  0  0  0
    6.6851    0.2968    0.3211 C   0  0  0  0  0  0  0  0  0  0  0  0
    6.9223   -0.8777   -0.6161 C   0  0  0  0  0  0  0  0  0  0  0  0
    7.6386    1.4181   -0.0051 C   0  0  0  0  0  0  0  0  0  0  0  0
    6.9399   -0.1679    1.7275 C   0  0  0  0  0  0  0  0  0  0  0  0
    1.8051   -1.7388    1.0936 C   0  0  0  0  0  0  0  0  0  0  0  0
    0.6288   -2.4419    1.2507 C   0  0  0  0  0  0  0  0  0  0  0  0
   -0.5202   -2.0081    0.6701 C   0  0  0  0  0  0  0  0  0  0  0  0
   -1.6897   -2.6870    0.8138 O   0  0  0  0  0  0  0  0  0  0  0  0
   -1.8032    0.5234   -2.0939 S   0  0  0  0  0  0  0  0  0  0  0  0
   -2.7212   -0.1447   -3.1476 O   0  0  0  0  0  0  0  0  0  0  0  0
   -0.4898    0.6124   -2.7977 O   0  0  0  0  0  0  0  0  0  0  0  0
   -2.5239    2.0975   -1.8658 C   0  0  0  0  0  0  0  0  0  0  0  0
   -3.8391    2.3871   -2.0220 C   0  0  0  0  0  0  0  0  0  0  0  0
   -4.3073    3.6861   -1.8110 C   0  0  0  0  0  0  0  0  0  0  0  0
   -3.4486    4.7047   -1.4401 C   0  0  0  0  0  0  0  0  0  0  0  0
   -3.8567    5.9685   -1.2263 F   0  0  0  0  0  0  0  0  0  0  0  0
   -2.1253    4.4008   -1.2858 C   0  0  0  0  0  0  0  0  0  0  0  0
   -1.0082    5.6790   -0.8153 Cl  0  0  0  0  0  0  0  0  0  0  0  0
   -1.6557    3.1065   -1.4954 C   0  0  0  0  0  0  0  0  0  0  0  0
   -7.7366   -1.3580    1.6044 H   0  0  0  0  0  0  0  0  0  0  0  0
   -7.3709   -0.8008   -0.1157 H   0  0  0  0  0  0  0  0  0  0  0  0
   -8.0928   -2.4316    0.2324 H   0  0  0  0  0  0  0  0  0  0  0  0
   -5.3515   -0.8280    2.2014 H   0  0  0  0  0  0  0  0  0  0  0  0
   -3.1840   -1.6235    2.5803 H   0  0  0  0  0  0  0  0  0  0  0  0
   -3.8507   -3.2723    2.1347 H   0  0  0  0  0  0  0  0  0  0  0  0
   -3.4322   -2.8580   -0.1760 H   0  0  0  0  0  0  0  0  0  0  0  0
   -3.8123   -0.7390   -0.8159 H   0  0  0  0  0  0  0  0  0  0  0  0
   -3.2303   -0.0466    0.7297 H   0  0  0  0  0  0  0  0  0  0  0  0
    0.6364    0.7332   -0.8141 H   0  0  0  0  0  0  0  0  0  0  0  0
    2.8006    1.1942   -0.1861 H   0  0  0  0  0  0  0  0  0  0  0  0
    6.0845   -1.0101   -1.3471 H   0  0  0  0  0  0  0  0  0  0  0  0
    7.1112   -1.8090   -0.0459 H   0  0  0  0  0  0  0  0  0  0  0  0
    7.8377   -0.6723   -1.2059 H   0  0  0  0  0  0  0  0  0  0  0  0
    7.3198    1.9999   -0.8941 H   0  0  0  0  0  0  0  0  0  0  0  0
    8.6672    1.0227   -0.1045 H   0  0  0  0  0  0  0  0  0  0  0  0
    7.6248    2.1223    0.8652 H   0  0  0  0  0  0  0  0  0  0  0  0
    6.8507   -1.2605    1.7750 H   0  0  0  0  0  0  0  0  0  0  0  0
    6.3521    0.3758    2.4904 H   0  0  0  0  0  0  0  0  0  0  0  0
    8.0191    0.0662    1.9591 H   0  0  0  0  0  0  0  0  0  0  0  0
    2.6655   -2.1386    1.5909 H   0  0  0  0  0  0  0  0  0  0  0  0
    0.6438   -3.3593    1.8555 H   0  0  0  0  0  0  0  0  0  0  0  0
   -4.5060    1.6085   -2.3081 H   0  0  0  0  0  0  0  0  0  0  0  0
   -5.3475    3.9361   -1.9300 H   0  0  0  0  0  0  0  0  0  0  0  0
   -0.5925    2.9686   -1.3479 H   0  0  0  0  0  0  0  0  0  0  0  0
  1  2  1  0
  2  3  2  0
  2  4  1  0
  4  5  1  0
  5  6  1  0
  6  7  1  0
  7  8  1  0
  8  9  1  0
  9 10  2  0
 10 11  1  0
 11 12  1  0
 12 13  1  0
 13 14  2  0
 13 15  1  0
 15 16  1  0
 16 17  1  0
 16 18  1  0
 16 19  1  0
 11 20  2  0
 20 21  1  0
 21 22  2  0
 22 23  1  0
  8 24  1  0
 24 25  2  0
 24 26  2  0
 24 27  1  0
 27 28  2  0
 28 29  1  0
 29 30  2  0
 30 31  1  0
 30 32  1  0
 32 33  1  0
 32 34  2  0
 23  6  1  0
 34 27  1  0
 22  9  1  0
  1 35  1  0
  1 36  1  0
  1 37  1  0
  4 38  1  0
  5 39  1  0
  5 40  1  0
  6 41  1  6
  7 42  1  0
  7 43  1  0
 10 44  1  0
 12 45  1  0
 17 46  1  0
 17 47  1  0
 17 48  1  0
 18 49  1  0
 18 50  1  0
 18 51  1  0
 19 52  1  0
 19 53  1  0
 19 54  1  0
 20 55  1  0
 21 56  1  0
 28 57  1  0
 29 58  1  0
 34 59  1  0
M  END
$$$$
[H]OC(=O)[C@@]([H])(OC([H])([H])c1c([H])c([H])c(-c2c([H])c([H])c([H])c([H])c2[H])c([H])c1[H])[C@@]([H])(C(=O)O[H])N([H])[H]
     RDKit          3D

 40 41  0  0  0  0  0  0  0  0999 V2000
   -3.7687   -1.1471    1.6027 N   0  0  0  0  0  0  0  0  0  0  0  0
   -4.3469   -0.0230    0.8097 C   0  0  1  0  0  0  0  0  0  0  0  0
   -3.6118   -0.0633   -0.5136 C   0  0  2  0  0  0  0  0  0  0  0  0
   -2.2333    0.0963   -0.2962 O   0  0  0  0  0  0  0  0  0  0  0  0
   -1.5054   -1.0190   -0.6467 C   0  0  0  0  0  0  0  0  0  0  0  0
   -0.0669   -0.7059   -0.3632 C   0  0  0  0  0  0  0  0  0  0  0  0
    0.5064   -0.9687    0.8498 C   0  0  0  0  0  0  0  0  0  0  0  0
    1.8370   -0.6508    1.0332 C   0  0  0  0  0  0  0  0  0  0  0  0
    2.6111   -0.0757    0.0335 C   0  0  0  0  0  0  0  0  0  0  0  0
    2.0124    0.1784   -1.1756 C   0  0  0  0  0  0  0  0  0  0  0  0
    0.6944   -0.1309   -1.3732 C   0  0  0  0  0  0  0  0  0  0  0  0
    4.0129    0.2343    0.2991 C   0  0  0  0  0  0  0  0  0  0  0  0
    4.9306    0.1815   -0.7226 C   0  0  0  0  0  0  0  0  0  0  0  0
    6.2547    0.4698   -0.4939 C   0  0  0  0  0  0  0  0  0  0  0  0
    6.6710    0.8172    0.7785 C   0  0  0  0  0  0  0  0  0  0  0  0
    5.7722    0.8740    1.8036 C   0  0  0  0  0  0  0  0  0  0  0  0
    4.4533    0.5853    1.5682 C   0  0  0  0  0  0  0  0  0  0  0  0
   -4.0202    0.9007   -1.5146 C   0  0  0  0  0  0  0  0  0  0  0  0
   -3.0873    1.8332   -2.0118 O   0  0  0  0  0  0  0  0  0  0  0  0
   -5.1616    1.0037   -2.0112 O   0  0  0  0  0  0  0  0  0  0  0  0
   -5.7888   -0.2302    0.7213 C   0  0  0  0  0  0  0  0  0  0  0  0
   -6.6847    0.7221    0.2827 O   0  0  0  0  0  0  0  0  0  0  0  0
   -6.2793   -1.3453    1.0657 O   0  0  0  0  0  0  0  0  0  0  0  0
   -2.7788   -0.9314    1.8351 H   0  0  0  0  0  0  0  0  0  0  0  0
   -3.8416   -2.0203    1.0693 H   0  0  0  0  0  0  0  0  0  0  0  0
   -4.1347    0.8756    1.4056 H   0  0  0  0  0  0  0  0  0  0  0  0
   -3.7402   -1.0856   -0.9242 H   0  0  0  0  0  0  0  0  0  0  0  0
   -1.7427   -1.9240   -0.0881 H   0  0  0  0  0  0  0  0  0  0  0  0
   -1.6031   -1.2130   -1.7238 H   0  0  0  0  0  0  0  0  0  0  0  0
   -0.0992   -1.4122    1.6136 H   0  0  0  0  0  0  0  0  0  0  0  0
    2.2847   -0.8622    1.9978 H   0  0  0  0  0  0  0  0  0  0  0  0
    2.5817    0.6294   -1.9907 H   0  0  0  0  0  0  0  0  0  0  0  0
    0.2338    0.0718   -2.3233 H   0  0  0  0  0  0  0  0  0  0  0  0
    4.6348   -0.0858   -1.7219 H   0  0  0  0  0  0  0  0  0  0  0  0
    6.9921    0.4343   -1.2825 H   0  0  0  0  0  0  0  0  0  0  0  0
    7.7043    1.0448    0.9692 H   0  0  0  0  0  0  0  0  0  0  0  0
    6.0804    1.1425    2.7980 H   0  0  0  0  0  0  0  0  0  0  0  0
    3.7354    0.6281    2.3749 H   0  0  0  0  0  0  0  0  0  0  0  0
   -2.5810    1.6358   -2.8813 H   0  0  0  0  0  0  0  0  0  0  0  0
   -6.9272    1.5357    0.8440 H   0  0  0  0  0  0  0  0  0  0  0  0
  1  2  1  0
  2  3  1  0
  3  4  1  0
  4  5  1  0
  5  6  1  0
  6  7  2  0
  7  8  1  0
  8  9  2  0
  9 10  1  0
 10 11  2  0
  9 12  1  0
 12 13  2  0
 13 14  1  0
 14 15  2  0
 15 16  1  0
 16 17  2  0
  3 18  1  0
 18 19  1  0
 18 20  2  0
  2 21  1  0
 21 22  1  0
 21 23  2  0
 11  6  1  0
 17 12  1  0
  1 24  1  0
  1 25  1  0
  2 26  1  1
  3 27  1  6
  5 28  1  0
  5 29  1  0
  7 30  1  0
  8 31  1  0
 10 32  1  0
 11 33  1  0
 13 34  1  0
 14 35  1  0
 15 36  1  0
 16 37  1  0
 17 38  1  0
 19 39  1  0
 22 40  1  0
M  END
$$$$
[H]c1c([H])c([H])c(-c2nc(C([H])([H])C3([H])C([H])([H])C([H])([H])C([H])([H])C([H])([H])C3([H])[H])c(-c3c([H])c([H])c(S(=O)(=O)N([H])[C@@]([H])(C([H])([H])[H])C(F)(F)F)c4c([H])c([H])c([H])c([H])c34)s2)c([H])c1[H]
     RDKit          3D

 67 71  0  0  0  0  0  0  0  0999 V2000
    6.6874    0.0022    1.1209 C   0  0  0  0  0  0  0  0  0  0  0  0
    6.4646    1.4606    0.7792 C   0  0  2  0  0  0  0  0  0  0  0  0
    5.5900    1.6480   -0.3630 N   0  0  0  0  0  0  0  0  0  0  0  0
    4.2030    2.5788    0.0344 S   0  0  0  0  0  0  0  0  0  0  0  0
    4.3027    3.0677    1.4724 O   0  0  0  0  0  0  0  0  0  0  0  0
    4.0918    3.7965   -0.8208 O   0  0  0  0  0  0  0  0  0  0  0  0
    2.7873    1.5632   -0.0854 C   0  0  0  0  0  0  0  0  0  0  0  0
    2.0084    1.2907    1.0238 C   0  0  0  0  0  0  0  0  0  0  0  0
    0.9102    0.4991    0.9780 C   0  0  0  0  0  0  0  0  0  0  0  0
    0.5112   -0.0910   -0.2384 C   0  0  0  0  0  0  0  0  0  0  0  0
   -0.6383   -0.9765   -0.1479 C   0  0  0  0  0  0  0  0  0  0  0  0
   -0.7330   -2.3342    0.9762 S   0  0  0  0  0  0  0  0  0  0  0  0
   -2.3072   -2.8437    0.6130 C   0  0  0  0  0  0  0  0  0  0  0  0
   -2.6740   -2.0013   -0.2970 N   0  0  0  0  0  0  0  0  0  0  0  0
   -1.8693   -1.0423   -0.7105 C   0  0  0  0  0  0  0  0  0  0  0  0
   -2.4863   -0.0298   -1.6579 C   0  0  0  0  0  0  0  0  0  0  0  0
   -3.1839    1.0922   -0.9782 C   0  0  0  0  0  0  0  0  0  0  0  0
   -2.4016    1.9555   -0.0744 C   0  0  0  0  0  0  0  0  0  0  0  0
   -3.2452    3.1233    0.3741 C   0  0  0  0  0  0  0  0  0  0  0  0
   -4.6136    3.1450   -0.2650 C   0  0  0  0  0  0  0  0  0  0  0  0
   -5.3388    1.8476   -0.1265 C   0  0  0  0  0  0  0  0  0  0  0  0
   -4.4476    0.6470   -0.2628 C   0  0  0  0  0  0  0  0  0  0  0  0
   -3.0432   -3.9674    1.2030 C   0  0  0  0  0  0  0  0  0  0  0  0
   -4.3200   -4.2443    0.7940 C   0  0  0  0  0  0  0  0  0  0  0  0
   -5.0463   -5.3014    1.3304 C   0  0  0  0  0  0  0  0  0  0  0  0
   -4.4880   -6.0966    2.2919 C   0  0  0  0  0  0  0  0  0  0  0  0
   -3.2036   -5.8292    2.7124 C   0  0  0  0  0  0  0  0  0  0  0  0
   -2.4750   -4.7607    2.1679 C   0  0  0  0  0  0  0  0  0  0  0  0
    1.2527    0.1473   -1.3545 C   0  0  0  0  0  0  0  0  0  0  0  0
    0.9268   -0.4644   -2.5448 C   0  0  0  0  0  0  0  0  0  0  0  0
    1.7050   -0.2604   -3.6554 C   0  0  0  0  0  0  0  0  0  0  0  0
    2.8181    0.5514   -3.6027 C   0  0  0  0  0  0  0  0  0  0  0  0
    3.1278    1.1504   -2.3982 C   0  0  0  0  0  0  0  0  0  0  0  0
    2.3793    0.9708   -1.2677 C   0  0  0  0  0  0  0  0  0  0  0  0
    7.8158    2.0470    0.4277 C   0  0  0  0  0  0  0  0  0  0  0  0
    8.7064    1.9538    1.4913 F   0  0  0  0  0  0  0  0  0  0  0  0
    8.3297    1.3565   -0.6761 F   0  0  0  0  0  0  0  0  0  0  0  0
    7.7367    3.3680    0.0349 F   0  0  0  0  0  0  0  0  0  0  0  0
    5.9521   -0.3285    1.9050 H   0  0  0  0  0  0  0  0  0  0  0  0
    6.7117   -0.6507    0.2463 H   0  0  0  0  0  0  0  0  0  0  0  0
    7.6901   -0.0654    1.6180 H   0  0  0  0  0  0  0  0  0  0  0  0
    6.0648    1.9620    1.6719 H   0  0  0  0  0  0  0  0  0  0  0  0
    5.3129    0.7124   -0.7067 H   0  0  0  0  0  0  0  0  0  0  0  0
    2.3248    1.7531    1.9595 H   0  0  0  0  0  0  0  0  0  0  0  0
    0.3467    0.3263    1.8797 H   0  0  0  0  0  0  0  0  0  0  0  0
   -1.7891    0.3810   -2.3673 H   0  0  0  0  0  0  0  0  0  0  0  0
   -3.2736   -0.5358   -2.3051 H   0  0  0  0  0  0  0  0  0  0  0  0
   -3.5542    1.7645   -1.8183 H   0  0  0  0  0  0  0  0  0  0  0  0
   -1.4670    2.3160   -0.5864 H   0  0  0  0  0  0  0  0  0  0  0  0
   -2.1045    1.3244    0.8142 H   0  0  0  0  0  0  0  0  0  0  0  0
   -2.7239    4.0620    0.0846 H   0  0  0  0  0  0  0  0  0  0  0  0
   -3.3269    3.1507    1.4962 H   0  0  0  0  0  0  0  0  0  0  0  0
   -5.2026    3.9229    0.3051 H   0  0  0  0  0  0  0  0  0  0  0  0
   -4.5882    3.4948   -1.3076 H   0  0  0  0  0  0  0  0  0  0  0  0
   -6.1149    1.8057   -0.9107 H   0  0  0  0  0  0  0  0  0  0  0  0
   -5.8823    1.8542    0.8518 H   0  0  0  0  0  0  0  0  0  0  0  0
   -4.9159   -0.1760   -0.8346 H   0  0  0  0  0  0  0  0  0  0  0  0
   -4.1509    0.3236    0.7530 H   0  0  0  0  0  0  0  0  0  0  0  0
   -4.7786   -3.6247    0.0334 H   0  0  0  0  0  0  0  0  0  0  0  0
   -6.0426   -5.4649    0.9662 H   0  0  0  0  0  0  0  0  0  0  0  0
   -5.0116   -6.9333    2.7417 H   0  0  0  0  0  0  0  0  0  0  0  0
   -2.7588   -6.4563    3.4725 H   0  0  0  0  0  0  0  0  0  0  0  0
   -1.4743   -4.5476    2.4915 H   0  0  0  0  0  0  0  0  0  0  0  0
    0.0656   -1.1409   -2.6128 H   0  0  0  0  0  0  0  0  0  0  0  0
    1.4049   -0.7658   -4.5751 H   0  0  0  0  0  0  0  0  0  0  0  0
    3.4413    0.7200   -4.4871 H   0  0  0  0  0  0  0  0  0  0  0  0
    4.0044    1.7969   -2.3662 H   0  0  0  0  0  0  0  0  0  0  0  0
  1  2  1  0
  2  3  1  0
  3  4  1  0
  4  5  2  0
  4  6  2  0
  4  7  1  0
  7  8  2  0
  8  9  1  0
  9 10  2  0
 10 11  1  0
 11 12  1  0
 12 13  1  0
 13 14  2  0
 14 15  1  0
 15 16  1  0
 16 17  1  0
 17 18  1  0
 18 19  1  0
 19 20  1  0
 20 21  1  0
 21 22  1  0
 13 23  1  0
 23 24  2  0
 24 25  1  0
 25 26  2  0
 26 27  1  0
 27 28  2  0
 10 29  1  0
 29 30  2  0
 30 31  1  0
 31 32  2  0
 32 33  1  0
 33 34  2  0
  2 35  1  0
 35 36  1  0
 35 37  1  0
 35 38  1  0
 34  7  1  0
 15 11  2  0
 22 17  1  0
 28 23  1  0
 34 29  1  0
  1 39  1  0
  1 40  1  0
  1 41  1  0
  2 42  1  1
  3 43  1  0
  8 44  1  0
  9 45  1  0
 16 46  1  0
 16 47  1  0
 17 48  1  0
 18 49  1  0
 18 50  1  0
 19 51  1  0
 19 52  1  0
 20 53  1  0
 20 54  1  0
 21 55  1  0
 21 56  1  0
 22 57  1  0
 22 58  1  0
 24 59  1  0
 25 60  1  0
 26 61  1  0
 27 62  1  0
 28 63  1  0
 30 64  1  0
 31 65  1  0
 32 66  1  0
 33 67  1  0
M  END
$$$$
[H]c1nc(N([H])c2c([H])c(OC([H])([H])[H])c(OC([H])([H])[H])c(OC([H])([H])[H])c2[H])nc(N([H])c2nc3c(c([H])c2[H])OC(C([H])([H])[H])(C([H])([H])[H])C(=O)N3[H])c1F
     RDKit          3D

 57 60  0  0  0  0  0  0  0  0999 V2000
   -5.6364    2.1181   -1.8630 C   0  0  0  0  0  0  0  0  0  0  0  0
   -5.8443    0.7587   -1.5880 O   0  0  0  0  0  0  0  0  0  0  0  0
   -4.8072    0.0010   -1.0783 C   0  0  0  0  0  0  0  0  0  0  0  0
   -3.5618    0.6012   -0.8432 C   0  0  0  0  0  0  0  0  0  0  0  0
   -2.5031   -0.0703   -0.3477 C   0  0  0  0  0  0  0  0  0  0  0  0
   -1.2316    0.4626   -0.0655 N   0  0  0  0  0  0  0  0  0  0  0  0
   -0.9067    1.8244    0.0656 C   0  0  0  0  0  0  0  0  0  0  0  0
   -1.7494    2.8585   -0.0431 N   0  0  0  0  0  0  0  0  0  0  0  0
   -1.4116    4.1432    0.0863 C   0  0  0  0  0  0  0  0  0  0  0  0
   -0.1125    4.4539    0.3502 C   0  0  0  0  0  0  0  0  0  0  0  0
    0.3587    5.6995    0.5032 F   0  0  0  0  0  0  0  0  0  0  0  0
    0.8217    3.4140    0.4762 C   0  0  0  0  0  0  0  0  0  0  0  0
    2.1801    3.7060    0.7505 N   0  0  0  0  0  0  0  0  0  0  0  0
    3.1050    2.6399    0.8733 C   0  0  0  0  0  0  0  0  0  0  0  0
    4.4571    2.8965    1.1446 C   0  0  0  0  0  0  0  0  0  0  0  0
    5.3443    1.8517    1.2613 C   0  0  0  0  0  0  0  0  0  0  0  0
    4.9285    0.5481    1.1161 C   0  0  0  0  0  0  0  0  0  0  0  0
    5.7961   -0.5293    1.2273 O   0  0  0  0  0  0  0  0  0  0  0  0
    5.5066   -1.7939    0.6515 C   0  0  0  0  0  0  0  0  0  0  0  0
    6.2846   -2.8749    1.3459 C   0  0  0  0  0  0  0  0  0  0  0  0
    5.8127   -1.7705   -0.8228 C   0  0  0  0  0  0  0  0  0  0  0  0
    4.0556   -2.1122    0.8177 C   0  0  0  0  0  0  0  0  0  0  0  0
    3.6763   -3.3008    1.0572 O   0  0  0  0  0  0  0  0  0  0  0  0
    3.1427   -1.0383    0.6962 N   0  0  0  0  0  0  0  0  0  0  0  0
    3.5828    0.3027    0.8467 C   0  0  0  0  0  0  0  0  0  0  0  0
    2.7547    1.3550    0.7416 N   0  0  0  0  0  0  0  0  0  0  0  0
    0.3826    2.1601    0.3289 N   0  0  0  0  0  0  0  0  0  0  0  0
   -2.7045   -1.4372   -0.0691 C   0  0  0  0  0  0  0  0  0  0  0  0
   -3.9082   -2.0549   -0.2874 C   0  0  0  0  0  0  0  0  0  0  0  0
   -4.0666   -3.3859   -0.0045 O   0  0  0  0  0  0  0  0  0  0  0  0
   -2.9762   -4.1177    0.5153 C   0  0  0  0  0  0  0  0  0  0  0  0
   -4.9761   -1.3425   -0.7952 C   0  0  0  0  0  0  0  0  0  0  0  0
   -6.2188   -1.9257   -1.0338 O   0  0  0  0  0  0  0  0  0  0  0  0
   -7.1743   -1.9137    0.0186 C   0  0  0  0  0  0  0  0  0  0  0  0
   -4.7813    2.3111   -2.5387 H   0  0  0  0  0  0  0  0  0  0  0  0
   -5.4850    2.7232   -0.9417 H   0  0  0  0  0  0  0  0  0  0  0  0
   -6.5386    2.5082   -2.4098 H   0  0  0  0  0  0  0  0  0  0  0  0
   -3.4970    1.6360   -1.0973 H   0  0  0  0  0  0  0  0  0  0  0  0
   -0.4103   -0.2136    0.0641 H   0  0  0  0  0  0  0  0  0  0  0  0
   -2.1604    4.9024   -0.0184 H   0  0  0  0  0  0  0  0  0  0  0  0
    2.4712    4.6872    0.8556 H   0  0  0  0  0  0  0  0  0  0  0  0
    4.7318    3.9285    1.2492 H   0  0  0  0  0  0  0  0  0  0  0  0
    6.3943    2.0780    1.4734 H   0  0  0  0  0  0  0  0  0  0  0  0
    5.7812   -3.1588    2.2953 H   0  0  0  0  0  0  0  0  0  0  0  0
    7.3278   -2.5920    1.5737 H   0  0  0  0  0  0  0  0  0  0  0  0
    6.3119   -3.7970    0.7168 H   0  0  0  0  0  0  0  0  0  0  0  0
    5.5475   -2.7321   -1.2838 H   0  0  0  0  0  0  0  0  0  0  0  0
    5.2428   -0.9509   -1.3072 H   0  0  0  0  0  0  0  0  0  0  0  0
    6.8942   -1.5474   -0.9277 H   0  0  0  0  0  0  0  0  0  0  0  0
    2.1474   -1.2464    0.4955 H   0  0  0  0  0  0  0  0  0  0  0  0
   -1.8577   -2.0119    0.3366 H   0  0  0  0  0  0  0  0  0  0  0  0
   -2.2185   -4.1935   -0.2936 H   0  0  0  0  0  0  0  0  0  0  0  0
   -3.3828   -5.1246    0.7905 H   0  0  0  0  0  0  0  0  0  0  0  0
   -2.5554   -3.6060    1.4036 H   0  0  0  0  0  0  0  0  0  0  0  0
   -7.4919   -2.9486    0.2973 H   0  0  0  0  0  0  0  0  0  0  0  0
   -8.0902   -1.3564   -0.3279 H   0  0  0  0  0  0  0  0  0  0  0  0
   -6.7818   -1.4227    0.9319 H   0  0  0  0  0  0  0  0  0  0  0  0
  1  2  1  0
  2  3  1  0
  3  4  2  0
  4  5  1  0
  5  6  1  0
  6  7  1  0
  7  8  2  0
  8  9  1  0
  9 10  2  0
 10 11  1  0
 10 12  1  0
 12 13  1  0
 13 14  1  0
 14 15  2  0
 15 16  1  0
 16 17  2  0
 17 18  1  0
 18 19  1  0
 19 20  1  0
 19 21  1  0
 19 22  1  0
 22 23  2  0
 22 24  1  0
 24 25  1  0
 25 26  2  0
 12 27  2  0
  5 28  2  0
 28 29  1  0
 29 30  1  0
 30 31  1  0
 29 32  2  0
 32 33  1  0
 33 34  1  0
 32  3  1  0
 27  7  1  0
 26 14  1  0
 25 17  1  0
  1 35  1  0
  1 36  1  0
  1 37  1  0
  4 38  1  0
  6 39  1  0
  9 40  1  0
 13 41  1  0
 15 42  1  0
 16 43  1  0
 20 44  1  0
 20 45  1  0
 20 46  1  0
 21 47  1  0
 21 48  1  0
 21 49  1  0
 24 50  1  0
 28 51  1  0
 31 52  1  0
 31 53  1  0
 31 54  1  0
 34 55  1  0
 34 56  1  0
 34 57  1  0
M  END
$$$$
[H]c1nc(N([H])[H])c(O[C@@]([H])(c2c([H])c([H])c(F)c([H])c2F)C([H])([H])[H])c([H])c1-c1c([H])c(F)c(F)c(C(F)(F)F)c1[H]
     RDKit          3D

 43 45  0  0  0  0  0  0  0  0999 V2000
   -2.7362    2.4351    1.4460 C   0  0  0  0  0  0  0  0  0  0  0  0
   -2.5956    1.4904    0.2293 C   0  0  1  0  0  0  0  0  0  0  0  0
   -1.3423    0.9998    0.1160 O   0  0  0  0  0  0  0  0  0  0  0  0
   -0.2679    1.0821   -0.6762 C   0  0  0  0  0  0  0  0  0  0  0  0
    0.8245    0.2681   -0.3040 C   0  0  0  0  0  0  0  0  0  0  0  0
    1.9609    0.2950   -1.0609 C   0  0  0  0  0  0  0  0  0  0  0  0
    2.0011    1.1186   -2.1645 C   0  0  0  0  0  0  0  0  0  0  0  0
    0.9519    1.8838   -2.4998 N   0  0  0  0  0  0  0  0  0  0  0  0
   -0.1956    1.8944   -1.7852 C   0  0  0  0  0  0  0  0  0  0  0  0
   -1.2767    2.7494   -2.2018 N   0  0  0  0  0  0  0  0  0  0  0  0
    3.1514   -0.5156   -0.7611 C   0  0  0  0  0  0  0  0  0  0  0  0
    3.9630   -0.9585   -1.7816 C   0  0  0  0  0  0  0  0  0  0  0  0
    5.0780   -1.7182   -1.4922 C   0  0  0  0  0  0  0  0  0  0  0  0
    5.8928   -2.1646   -2.4880 F   0  0  0  0  0  0  0  0  0  0  0  0
    5.3760   -2.0307   -0.1910 C   0  0  0  0  0  0  0  0  0  0  0  0
    6.4885   -2.7870    0.0753 F   0  0  0  0  0  0  0  0  0  0  0  0
    4.5620   -1.5869    0.8378 C   0  0  0  0  0  0  0  0  0  0  0  0
    3.4505   -0.8291    0.5431 C   0  0  0  0  0  0  0  0  0  0  0  0
    4.9105   -1.9421    2.2572 C   0  0  0  0  0  0  0  0  0  0  0  0
    3.9417   -1.3795    3.0623 F   0  0  0  0  0  0  0  0  0  0  0  0
    6.1472   -1.3999    2.5482 F   0  0  0  0  0  0  0  0  0  0  0  0
    4.8984   -3.3072    2.3517 F   0  0  0  0  0  0  0  0  0  0  0  0
   -3.5839    0.3712    0.4870 C   0  0  0  0  0  0  0  0  0  0  0  0
   -4.4849    0.4077    1.5273 C   0  0  0  0  0  0  0  0  0  0  0  0
   -5.3960   -0.6189    1.7625 C   0  0  0  0  0  0  0  0  0  0  0  0
   -5.3507   -1.6859    0.8923 C   0  0  0  0  0  0  0  0  0  0  0  0
   -6.2283   -2.7202    1.0839 F   0  0  0  0  0  0  0  0  0  0  0  0
   -4.4756   -1.7682   -0.1542 C   0  0  0  0  0  0  0  0  0  0  0  0
   -3.5904   -0.7319   -0.3530 C   0  0  0  0  0  0  0  0  0  0  0  0
   -2.6951   -0.7760   -1.3918 F   0  0  0  0  0  0  0  0  0  0  0  0
   -3.6916    2.9525    1.4111 H   0  0  0  0  0  0  0  0  0  0  0  0
   -1.9429    3.2314    1.3677 H   0  0  0  0  0  0  0  0  0  0  0  0
   -2.5930    1.9054    2.3936 H   0  0  0  0  0  0  0  0  0  0  0  0
   -3.0133    2.0868   -0.6005 H   0  0  0  0  0  0  0  0  0  0  0  0
    0.7793   -0.3679    0.5568 H   0  0  0  0  0  0  0  0  0  0  0  0
    2.9213    1.1343   -2.7673 H   0  0  0  0  0  0  0  0  0  0  0  0
   -2.0169    2.3847   -2.8307 H   0  0  0  0  0  0  0  0  0  0  0  0
   -1.3214    3.7194   -1.8803 H   0  0  0  0  0  0  0  0  0  0  0  0
    3.7442   -0.7220   -2.8254 H   0  0  0  0  0  0  0  0  0  0  0  0
    2.7925   -0.4664    1.3292 H   0  0  0  0  0  0  0  0  0  0  0  0
   -4.4912    1.2620    2.1866 H   0  0  0  0  0  0  0  0  0  0  0  0
   -6.0989   -0.5741    2.5854 H   0  0  0  0  0  0  0  0  0  0  0  0
   -4.4475   -2.6215   -0.8409 H   0  0  0  0  0  0  0  0  0  0  0  0
  1  2  1  0
  2  3  1  0
  3  4  1  0
  4  5  2  0
  5  6  1  0
  6  7  2  0
  7  8  1  0
  8  9  2  0
  9 10  1  0
  6 11  1  0
 11 12  2  0
 12 13  1  0
 13 14  1  0
 13 15  2  0
 15 16  1  0
 15 17  1  0
 17 18  2  0
 17 19  1  0
 19 20  1  0
 19 21  1  0
 19 22  1  0
  2 23  1  0
 23 24  2  0
 24 25  1  0
 25 26  2  0
 26 27  1  0
 26 28  1  0
 28 29  2  0
 29 30  1  0
  9  4  1  0
 18 11  1  0
 29 23  1  0
  1 31  1  0
  1 32  1  0
  1 33  1  0
  2 34  1  6
  5 35  1  0
  7 36  1  0
 10 37  1  0
 10 38  1  0
 12 39  1  0
 18 40  1  0
 24 41  1  0
 25 42  1  0
 28 43  1  0
M  END
$$$$
[H]OC(=O)C([H])([H])[C@@]1([H])C(=O)N([H])[C@@]([H])(C([H])([H])c2c([H])c([H])c(O[H])c([H])c2[H])C(=O)N([H])[C@@]([H])(C([H])([H])C([H])(C([H])([H])[H])C([H])([H])[H])C(=O)N([H])[C@@]([H])(C([H])([H])c2c([H])c([H])c(O[H])c([H])c2[H])C(=O)N([H])[C@@]([H])([C@@]([H])(C([H])([H])[H])C([H])([H])C([H])([H])[H])C(=O)N1[H]
     RDKit          3D

 93 95  0  0  0  0  0  0  0  0999 V2000
   -4.6631    3.0092    0.3860 C   0  0  0  0  0  0  0  0  0  0  0  0
   -4.1207    2.7920    1.7801 C   0  0  0  0  0  0  0  0  0  0  0  0
   -2.6324    2.9837    1.8518 C   0  0  2  0  0  0  0  0  0  0  0  0
   -2.2007    4.3395    1.4526 C   0  0  0  0  0  0  0  0  0  0  0  0
   -1.8667    1.8390    1.1849 C   0  0  2  0  0  0  0  0  0  0  0  0
   -2.1784    0.5979    1.8626 N   0  0  0  0  0  0  0  0  0  0  0  0
   -1.7117   -0.6789    1.5523 C   0  0  0  0  0  0  0  0  0  0  0  0
   -1.4470   -1.4500    2.5509 O   0  0  0  0  0  0  0  0  0  0  0  0
   -1.5068   -1.1904    0.1727 C   0  0  2  0  0  0  0  0  0  0  0  0
   -2.8633   -1.3607   -0.4654 C   0  0  0  0  0  0  0  0  0  0  0  0
   -3.7639   -2.2890    0.1974 C   0  0  0  0  0  0  0  0  0  0  0  0
   -3.7731   -3.6419   -0.1599 C   0  0  0  0  0  0  0  0  0  0  0  0
   -4.6013   -4.5689    0.4205 C   0  0  0  0  0  0  0  0  0  0  0  0
   -5.4830   -4.1731    1.4132 C   0  0  0  0  0  0  0  0  0  0  0  0
   -6.3169   -5.1230    1.9936 O   0  0  0  0  0  0  0  0  0  0  0  0
   -5.5118   -2.8532    1.7995 C   0  0  0  0  0  0  0  0  0  0  0  0
   -4.6605   -1.9492    1.1894 C   0  0  0  0  0  0  0  0  0  0  0  0
   -0.8925   -2.5029    0.2650 N   0  0  0  0  0  0  0  0  0  0  0  0
    0.2808   -2.9261   -0.3801 C   0  0  0  0  0  0  0  0  0  0  0  0
    0.5651   -4.1673   -0.2490 O   0  0  0  0  0  0  0  0  0  0  0  0
    1.2100   -2.1017   -1.1788 C   0  0  2  0  0  0  0  0  0  0  0  0
    1.6054   -2.7496   -2.4573 C   0  0  0  0  0  0  0  0  0  0  0  0
    0.5901   -3.0610   -3.4679 C   0  0  0  0  0  0  0  0  0  0  0  0
    1.3670   -3.6983   -4.6576 C   0  0  0  0  0  0  0  0  0  0  0  0
   -0.4861   -4.0317   -3.1518 C   0  0  0  0  0  0  0  0  0  0  0  0
    2.4326   -1.9959   -0.3792 N   0  0  0  0  0  0  0  0  0  0  0  0
    2.9180   -0.8514    0.2932 C   0  0  0  0  0  0  0  0  0  0  0  0
    2.9999   -1.0141    1.5659 O   0  0  0  0  0  0  0  0  0  0  0  0
    3.3144    0.4296   -0.3014 C   0  0  2  0  0  0  0  0  0  0  0  0
    3.7401    1.4992    0.6345 C   0  0  0  0  0  0  0  0  0  0  0  0
    4.9289    1.2577    1.4642 C   0  0  0  0  0  0  0  0  0  0  0  0
    4.8715    0.9531    2.7966 C   0  0  0  0  0  0  0  0  0  0  0  0
    5.9657    0.6926    3.5923 C   0  0  0  0  0  0  0  0  0  0  0  0
    7.2098    0.7435    3.0036 C   0  0  0  0  0  0  0  0  0  0  0  0
    8.3338    0.4940    3.7427 O   0  0  0  0  0  0  0  0  0  0  0  0
    7.2943    1.0494    1.6618 C   0  0  0  0  0  0  0  0  0  0  0  0
    6.2068    1.3050    0.8830 C   0  0  0  0  0  0  0  0  0  0  0  0
    2.5166    0.8549   -1.4321 N   0  0  0  0  0  0  0  0  0  0  0  0
    1.6954    1.9490   -1.6720 C   0  0  0  0  0  0  0  0  0  0  0  0
    2.1554    2.7433   -2.5969 O   0  0  0  0  0  0  0  0  0  0  0  0
    0.4174    2.3788   -1.0956 C   0  0  2  0  0  0  0  0  0  0  0  0
   -0.1172    3.6386   -1.7629 C   0  0  0  0  0  0  0  0  0  0  0  0
    0.7076    4.8247   -1.6494 C   0  0  0  0  0  0  0  0  0  0  0  0
    0.2396    5.9644   -2.3483 O   0  0  0  0  0  0  0  0  0  0  0  0
    1.7686    5.0096   -1.0343 O   0  0  0  0  0  0  0  0  0  0  0  0
    0.4181    2.6674    0.3046 N   0  0  0  0  0  0  0  0  0  0  0  0
   -0.4094    2.0562    1.2486 C   0  0  0  0  0  0  0  0  0  0  0  0
    0.1400    1.6136    2.3303 O   0  0  0  0  0  0  0  0  0  0  0  0
   -5.0490    4.0614    0.3033 H   0  0  0  0  0  0  0  0  0  0  0  0
   -3.9481    2.7752   -0.4112 H   0  0  0  0  0  0  0  0  0  0  0  0
   -5.5594    2.3681    0.2616 H   0  0  0  0  0  0  0  0  0  0  0  0
   -4.3976    1.7704    2.0843 H   0  0  0  0  0  0  0  0  0  0  0  0
   -4.6720    3.4797    2.4460 H   0  0  0  0  0  0  0  0  0  0  0  0
   -2.3846    2.8791    2.9602 H   0  0  0  0  0  0  0  0  0  0  0  0
   -2.6154    5.0905    2.1864 H   0  0  0  0  0  0  0  0  0  0  0  0
   -1.1176    4.4666    1.3173 H   0  0  0  0  0  0  0  0  0  0  0  0
   -2.6666    4.6463    0.4733 H   0  0  0  0  0  0  0  0  0  0  0  0
   -2.2538    1.7948    0.1487 H   0  0  0  0  0  0  0  0  0  0  0  0
   -2.8365    0.6748    2.6972 H   0  0  0  0  0  0  0  0  0  0  0  0
   -0.8881   -0.4944   -0.4317 H   0  0  0  0  0  0  0  0  0  0  0  0
   -3.3445   -0.3388   -0.4137 H   0  0  0  0  0  0  0  0  0  0  0  0
   -2.7179   -1.6312   -1.5331 H   0  0  0  0  0  0  0  0  0  0  0  0
   -3.0851   -3.9352   -0.9311 H   0  0  0  0  0  0  0  0  0  0  0  0
   -4.6027   -5.5986    0.1433 H   0  0  0  0  0  0  0  0  0  0  0  0
   -7.2199   -5.2984    1.5972 H   0  0  0  0  0  0  0  0  0  0  0  0
   -6.2043   -2.5539    2.5760 H   0  0  0  0  0  0  0  0  0  0  0  0
   -4.7413   -0.9325    1.5375 H   0  0  0  0  0  0  0  0  0  0  0  0
   -1.4259   -3.1675    0.9095 H   0  0  0  0  0  0  0  0  0  0  0  0
    0.7932   -1.0756   -1.3567 H   0  0  0  0  0  0  0  0  0  0  0  0
    2.1729   -3.7055   -2.2286 H   0  0  0  0  0  0  0  0  0  0  0  0
    2.4067   -2.1356   -2.9834 H   0  0  0  0  0  0  0  0  0  0  0  0
    0.1982   -2.1128   -3.9255 H   0  0  0  0  0  0  0  0  0  0  0  0
    1.4466   -4.7934   -4.5082 H   0  0  0  0  0  0  0  0  0  0  0  0
    2.3791   -3.2987   -4.7189 H   0  0  0  0  0  0  0  0  0  0  0  0
    0.8424   -3.5192   -5.6000 H   0  0  0  0  0  0  0  0  0  0  0  0
   -0.0893   -5.0352   -2.8688 H   0  0  0  0  0  0  0  0  0  0  0  0
   -1.0794   -4.1601   -4.1268 H   0  0  0  0  0  0  0  0  0  0  0  0
   -1.2399   -3.7400   -2.4321 H   0  0  0  0  0  0  0  0  0  0  0  0
    2.9586   -2.9255   -0.3287 H   0  0  0  0  0  0  0  0  0  0  0  0
    4.3951    0.1820   -0.7805 H   0  0  0  0  0  0  0  0  0  0  0  0
    2.9015    1.6215    1.3977 H   0  0  0  0  0  0  0  0  0  0  0  0
    3.8351    2.4782    0.1197 H   0  0  0  0  0  0  0  0  0  0  0  0
    3.9018    0.9301    3.3042 H   0  0  0  0  0  0  0  0  0  0  0  0
    5.8298    0.4596    4.6349 H   0  0  0  0  0  0  0  0  0  0  0  0
    8.2737    0.2709    4.7203 H   0  0  0  0  0  0  0  0  0  0  0  0
    8.2802    1.0899    1.1969 H   0  0  0  0  0  0  0  0  0  0  0  0
    6.2488    1.5483   -0.1754 H   0  0  0  0  0  0  0  0  0  0  0  0
    2.6328    0.1377   -2.2584 H   0  0  0  0  0  0  0  0  0  0  0  0
   -0.4052    1.6318   -1.2852 H   0  0  0  0  0  0  0  0  0  0  0  0
   -0.1800    3.3918   -2.8605 H   0  0  0  0  0  0  0  0  0  0  0  0
   -1.1187    3.8309   -1.3807 H   0  0  0  0  0  0  0  0  0  0  0  0
    0.5671    6.1741   -3.2832 H   0  0  0  0  0  0  0  0  0  0  0  0
    1.0929    3.3907    0.6526 H   0  0  0  0  0  0  0  0  0  0  0  0
  1  2  1  0
  2  3  1  0
  3  4  1  0
  3  5  1  0
  5  6  1  0
  6  7  1  0
  7  8  2  0
  7  9  1  0
  9 10  1  0
 10 11  1  0
 11 12  2  0
 12 13  1  0
 13 14  2  0
 14 15  1  0
 14 16  1  0
 16 17  2  0
  9 18  1  0
 18 19  1  0
 19 20  2  0
 19 21  1  0
 21 22  1  0
 22 23  1  0
 23 24  1  0
 23 25  1  0
 21 26  1  0
 26 27  1  0
 27 28  2  0
 27 29  1  0
 29 30  1  0
 30 31  1  0
 31 32  2  0
 32 33  1  0
 33 34  2  0
 34 35  1  0
 34 36  1  0
 36 37  2  0
 29 38  1  0
 38 39  1  0
 39 40  2  0
 39 41  1  0
 41 42  1  0
 42 43  1  0
 43 44  1  0
 43 45  2  0
 41 46  1  0
 46 47  1  0
 47 48  2  0
 47  5  1  0
 17 11  1  0
 37 31  1  0
  1 49  1  0
  1 50  1  0
  1 51  1  0
  2 52  1  0
  2 53  1  0
  3 54  1  1
  4 55  1  0
  4 56  1  0
  4 57  1  0
  5 58  1  6
  6 59  1  0
  9 60  1  6
 10 61  1  0
 10 62  1  0
 12 63  1  0
 13 64  1  0
 15 65  1  0
 16 66  1  0
 17 67  1  0
 18 68  1  0
 21 69  1  6
 22 70  1  0
 22 71  1  0
 23 72  1  0
 24 73  1  0
 24 74  1  0
 24 75  1  0
 25 76  1  0
 25 77  1  0
 25 78  1  0
 26 79  1  0
 29 80  1  6
 30 81  1  0
 30 82  1  0
 32 83  1  0
 33 84  1  0
 35 85  1  0
 36 86  1  0
 37 87  1  0
 38 88  1  0
 41 89  1  1
 42 90  1  0
 42 91  1  0
 44 92  1  0
 46 93  1  0
M  END
$$$$
[H]N=C(N([H])[H])N([H])C([H])([H])C([H])([H])C([H])([H])[C@@]1([H])C(=O)N2C([H])([H])C([H])([H])C([H])([H])[C@@]2([H])C(=O)N([H])[C@@]([H])(C([H])([H])C([H])([H])C(=O)N([H])[H])C(=O)N2C([H])([H])C([H])([H])C([H])([H])[C@@]2([H])C(=O)N1[H]
     RDKit          3D

 68 70  0  0  0  0  0  0  0  0999 V2000
   -6.4872   -1.9800   -1.6303 N   0  0  0  0  0  0  0  0  0  0  0  0
   -5.8998   -1.6103   -0.4056 C   0  0  0  0  0  0  0  0  0  0  0  0
   -6.4525   -0.7602    0.3749 N   0  0  0  0  0  0  0  0  0  0  0  0
   -4.6676   -2.1935   -0.0259 N   0  0  0  0  0  0  0  0  0  0  0  0
   -3.6021   -1.4229    0.5739 C   0  0  0  0  0  0  0  0  0  0  0  0
   -3.0394   -0.4672   -0.4444 C   0  0  0  0  0  0  0  0  0  0  0  0
   -1.9055    0.3715    0.1687 C   0  0  0  0  0  0  0  0  0  0  0  0
   -1.3096    1.3137   -0.8051 C   0  0  2  0  0  0  0  0  0  0  0  0
   -0.6429    0.8337   -1.9635 N   0  0  0  0  0  0  0  0  0  0  0  0
    0.5028    0.0538   -2.1955 C   0  0  0  0  0  0  0  0  0  0  0  0
    1.5309    0.7678   -2.5968 O   0  0  0  0  0  0  0  0  0  0  0  0
    0.8521   -1.3352   -2.1147 C   0  0  2  0  0  0  0  0  0  0  0  0
   -0.2343   -2.3569   -2.4077 C   0  0  0  0  0  0  0  0  0  0  0  0
    0.6406   -3.6110   -2.3847 C   0  0  0  0  0  0  0  0  0  0  0  0
    1.8566   -3.2632   -1.5574 C   0  0  0  0  0  0  0  0  0  0  0  0
    1.4715   -1.9281   -0.9943 N   0  0  0  0  0  0  0  0  0  0  0  0
    1.7124   -1.5203    0.3043 C   0  0  0  0  0  0  0  0  0  0  0  0
    1.7020   -2.4402    1.2167 O   0  0  0  0  0  0  0  0  0  0  0  0
    1.9854   -0.1993    0.8601 C   0  0  2  0  0  0  0  0  0  0  0  0
    3.4716   -0.0694    1.1232 C   0  0  0  0  0  0  0  0  0  0  0  0
    4.2071   -0.2348   -0.1822 C   0  0  0  0  0  0  0  0  0  0  0  0
    5.6711   -0.1101    0.0485 C   0  0  0  0  0  0  0  0  0  0  0  0
    6.5921   -0.1893   -1.0263 N   0  0  0  0  0  0  0  0  0  0  0  0
    6.0578    0.0689    1.2373 O   0  0  0  0  0  0  0  0  0  0  0  0
    1.3251   -0.0129    2.1568 N   0  0  0  0  0  0  0  0  0  0  0  0
    0.6001    1.1561    2.4836 C   0  0  0  0  0  0  0  0  0  0  0  0
   -0.2231    1.0867    3.4330 O   0  0  0  0  0  0  0  0  0  0  0  0
    0.7472    2.4406    1.7874 C   0  0  2  0  0  0  0  0  0  0  0  0
    1.0282    3.4610    2.9065 C   0  0  0  0  0  0  0  0  0  0  0  0
    0.1907    4.6413    2.4672 C   0  0  0  0  0  0  0  0  0  0  0  0
   -1.0462    3.8641    1.9835 C   0  0  0  0  0  0  0  0  0  0  0  0
   -0.3832    2.9108    1.0557 N   0  0  0  0  0  0  0  0  0  0  0  0
   -0.8153    2.6010   -0.2451 C   0  0  0  0  0  0  0  0  0  0  0  0
   -0.7915    3.5780   -1.1161 O   0  0  0  0  0  0  0  0  0  0  0  0
   -5.9248   -2.3890   -2.4183 H   0  0  0  0  0  0  0  0  0  0  0  0
   -7.5212   -1.8621   -1.8124 H   0  0  0  0  0  0  0  0  0  0  0  0
   -6.0789   -0.4493    1.2763 H   0  0  0  0  0  0  0  0  0  0  0  0
   -4.5317   -3.2122   -0.1872 H   0  0  0  0  0  0  0  0  0  0  0  0
   -3.9884   -0.8530    1.4690 H   0  0  0  0  0  0  0  0  0  0  0  0
   -2.8320   -2.0972    0.9815 H   0  0  0  0  0  0  0  0  0  0  0  0
   -2.7605   -1.0082   -1.3396 H   0  0  0  0  0  0  0  0  0  0  0  0
   -3.8157    0.2897   -0.7431 H   0  0  0  0  0  0  0  0  0  0  0  0
   -2.3919    0.9608    0.9671 H   0  0  0  0  0  0  0  0  0  0  0  0
   -1.1977   -0.4036    0.5354 H   0  0  0  0  0  0  0  0  0  0  0  0
   -2.3541    1.6967   -1.2775 H   0  0  0  0  0  0  0  0  0  0  0  0
   -1.1224    1.1665   -2.8901 H   0  0  0  0  0  0  0  0  0  0  0  0
    1.5822   -1.6199   -2.9807 H   0  0  0  0  0  0  0  0  0  0  0  0
   -0.6745   -2.1919   -3.3891 H   0  0  0  0  0  0  0  0  0  0  0  0
   -0.9232   -2.4989   -1.5699 H   0  0  0  0  0  0  0  0  0  0  0  0
    0.9420   -3.8586   -3.4072 H   0  0  0  0  0  0  0  0  0  0  0  0
    0.0839   -4.4751   -1.9665 H   0  0  0  0  0  0  0  0  0  0  0  0
    2.7647   -3.1313   -2.1599 H   0  0  0  0  0  0  0  0  0  0  0  0
    1.9626   -4.0239   -0.7933 H   0  0  0  0  0  0  0  0  0  0  0  0
    1.6880    0.6448    0.2557 H   0  0  0  0  0  0  0  0  0  0  0  0
    3.6319    0.9570    1.5493 H   0  0  0  0  0  0  0  0  0  0  0  0
    3.7449   -0.8388    1.8652 H   0  0  0  0  0  0  0  0  0  0  0  0
    3.9944   -1.2193   -0.6007 H   0  0  0  0  0  0  0  0  0  0  0  0
    3.8619    0.5293   -0.9155 H   0  0  0  0  0  0  0  0  0  0  0  0
    6.4457   -0.7018   -1.9068 H   0  0  0  0  0  0  0  0  0  0  0  0
    7.5046    0.3352   -0.8826 H   0  0  0  0  0  0  0  0  0  0  0  0
    1.4219   -0.7974    2.8280 H   0  0  0  0  0  0  0  0  0  0  0  0
    1.7080    2.4003    1.2347 H   0  0  0  0  0  0  0  0  0  0  0  0
    2.0840    3.6709    3.0414 H   0  0  0  0  0  0  0  0  0  0  0  0
    0.5811    3.1183    3.8707 H   0  0  0  0  0  0  0  0  0  0  0  0
   -0.0755    5.3174    3.3104 H   0  0  0  0  0  0  0  0  0  0  0  0
    0.6992    5.1430    1.6425 H   0  0  0  0  0  0  0  0  0  0  0  0
   -1.6638    4.6084    1.4968 H   0  0  0  0  0  0  0  0  0  0  0  0
   -1.4898    3.3490    2.8309 H   0  0  0  0  0  0  0  0  0  0  0  0
  1  2  1  0
  2  3  2  3
  2  4  1  0
  4  5  1  0
  5  6  1  0
  6  7  1  0
  7  8  1  0
  8  9  1  0
  9 10  1  0
 10 11  2  0
 10 12  1  0
 12 13  1  0
 13 14  1  0
 14 15  1  0
 15 16  1  0
 16 17  1  0
 17 18  2  0
 17 19  1  0
 19 20  1  0
 20 21  1  0
 21 22  1  0
 22 23  1  0
 22 24  2  0
 19 25  1  0
 25 26  1  0
 26 27  2  0
 26 28  1  0
 28 29  1  0
 29 30  1  0
 30 31  1  0
 31 32  1  0
 32 33  1  0
 33 34  2  0
 33  8  1  0
 16 12  1  0
 32 28  1  0
  1 35  1  0
  1 36  1  0
  3 37  1  0
  4 38  1  0
  5 39  1  0
  5 40  1  0
  6 41  1  0
  6 42  1  0
  7 43  1  0
  7 44  1  0
  8 45  1  6
  9 46  1  0
 12 47  1  6
 13 48  1  0
 13 49  1  0
 14 50  1  0
 14 51  1  0
 15 52  1  0
 15 53  1  0
 19 54  1  6
 20 55  1  0
 20 56  1  0
 21 57  1  0
 21 58  1  0
 23 59  1  0
 23 60  1  0
 25 61  1  0
 28 62  1  6
 29 63  1  0
 29 64  1  0
 30 65  1  0
 30 66  1  0
 31 67  1  0
 31 68  1  0
M  END
$$$$
[H]Oc1c([H])c(C([H])([H])C([H])([H])[H])c(-c2c([H])c([H])c3c(-c4nc5c(n4[H])C([H])([H])C([H])([H])N(C4([H])C([H])([H])C([H])([H])N(C([H])([H])[H])C([H])([H])C4([H])[H])C5([H])[H])nn([H])c3c2[H])c([H])c1F
     RDKit          3D

 66 71  0  0  0  0  0  0  0  0999 V2000
   -6.1598   -0.0976   -3.0663 C   0  0  0  0  0  0  0  0  0  0  0  0
   -6.7403    0.9484   -2.1235 C   0  0  0  0  0  0  0  0  0  0  0  0
   -7.2208    0.2653   -0.9121 C   0  0  0  0  0  0  0  0  0  0  0  0
   -8.5997   -0.0295   -0.8549 C   0  0  0  0  0  0  0  0  0  0  0  0
   -9.1684   -0.7009    0.1886 C   0  0  0  0  0  0  0  0  0  0  0  0
  -10.5174   -1.0065    0.2778 O   0  0  0  0  0  0  0  0  0  0  0  0
   -8.3278   -1.0940    1.2169 C   0  0  0  0  0  0  0  0  0  0  0  0
   -8.8986   -1.7746    2.2671 F   0  0  0  0  0  0  0  0  0  0  0  0
   -6.9852   -0.8211    1.1904 C   0  0  0  0  0  0  0  0  0  0  0  0
   -6.4142   -0.1235    0.0996 C   0  0  0  0  0  0  0  0  0  0  0  0
   -4.9990    0.1837    0.1491 C   0  0  0  0  0  0  0  0  0  0  0  0
   -4.1160   -0.8910    0.3261 C   0  0  0  0  0  0  0  0  0  0  0  0
   -2.7568   -0.7098    0.4639 C   0  0  0  0  0  0  0  0  0  0  0  0
   -2.2082    0.5581    0.4302 C   0  0  0  0  0  0  0  0  0  0  0  0
   -0.9395    1.0519    0.5556 C   0  0  0  0  0  0  0  0  0  0  0  0
   -1.0660    2.4087    0.4504 N   0  0  0  0  0  0  0  0  0  0  0  0
   -2.3103    2.7635    0.2722 N   0  0  0  0  0  0  0  0  0  0  0  0
   -3.0691    1.6494    0.2522 C   0  0  0  0  0  0  0  0  0  0  0  0
   -4.4341    1.4312    0.1170 C   0  0  0  0  0  0  0  0  0  0  0  0
    0.3109    0.3974    0.8045 C   0  0  0  0  0  0  0  0  0  0  0  0
    1.4829    1.0780    1.0365 N   0  0  0  0  0  0  0  0  0  0  0  0
    2.4700    0.2352    1.2910 C   0  0  0  0  0  0  0  0  0  0  0  0
    3.9218    0.3214    1.6225 C   0  0  0  0  0  0  0  0  0  0  0  0
    4.6953   -0.7019    1.0306 N   0  0  0  0  0  0  0  0  0  0  0  0
    4.2073   -2.0221    1.1483 C   0  0  0  0  0  0  0  0  0  0  0  0
    2.7630   -2.1980    1.4567 C   0  0  0  0  0  0  0  0  0  0  0  0
    1.9103   -1.0131    1.2167 C   0  0  0  0  0  0  0  0  0  0  0  0
    0.5804   -0.8909    0.9163 N   0  0  0  0  0  0  0  0  0  0  0  0
    5.3198   -0.4415   -0.2120 C   0  0  0  0  0  0  0  0  0  0  0  0
    6.6429   -1.1705   -0.2925 C   0  0  0  0  0  0  0  0  0  0  0  0
    7.7901   -0.2206   -0.0472 C   0  0  0  0  0  0  0  0  0  0  0  0
    7.9351    0.7900   -1.0534 N   0  0  0  0  0  0  0  0  0  0  0  0
    8.4197    2.0006   -0.4244 C   0  0  0  0  0  0  0  0  0  0  0  0
    6.6176    1.0971   -1.5947 C   0  0  0  0  0  0  0  0  0  0  0  0
    5.6264    1.0288   -0.4294 C   0  0  0  0  0  0  0  0  0  0  0  0
   -5.6852    0.3484   -3.9670 H   0  0  0  0  0  0  0  0  0  0  0  0
   -6.9364   -0.7928   -3.4522 H   0  0  0  0  0  0  0  0  0  0  0  0
   -5.3880   -0.6592   -2.5245 H   0  0  0  0  0  0  0  0  0  0  0  0
   -7.5955    1.4586   -2.6605 H   0  0  0  0  0  0  0  0  0  0  0  0
   -5.9802    1.7071   -1.9965 H   0  0  0  0  0  0  0  0  0  0  0  0
   -9.2312    0.2924   -1.6694 H   0  0  0  0  0  0  0  0  0  0  0  0
  -10.8834   -1.5114    1.0777 H   0  0  0  0  0  0  0  0  0  0  0  0
   -6.3350   -1.1282    1.9886 H   0  0  0  0  0  0  0  0  0  0  0  0
   -4.4788   -1.8919    0.3604 H   0  0  0  0  0  0  0  0  0  0  0  0
   -2.0864   -1.5422    0.6022 H   0  0  0  0  0  0  0  0  0  0  0  0
   -2.6536    3.7338    0.1628 H   0  0  0  0  0  0  0  0  0  0  0  0
   -5.0425    2.3148    0.0003 H   0  0  0  0  0  0  0  0  0  0  0  0
    4.0689    0.3266    2.7395 H   0  0  0  0  0  0  0  0  0  0  0  0
    4.2734    1.3146    1.2859 H   0  0  0  0  0  0  0  0  0  0  0  0
    4.8386   -2.5540    1.9355 H   0  0  0  0  0  0  0  0  0  0  0  0
    4.4342   -2.6203    0.2154 H   0  0  0  0  0  0  0  0  0  0  0  0
    2.6683   -2.5318    2.5344 H   0  0  0  0  0  0  0  0  0  0  0  0
    2.3028   -3.0648    0.8945 H   0  0  0  0  0  0  0  0  0  0  0  0
    0.0127   -1.7441    0.8143 H   0  0  0  0  0  0  0  0  0  0  0  0
    4.6672   -0.7343   -1.0835 H   0  0  0  0  0  0  0  0  0  0  0  0
    6.7648   -1.7062   -1.2571 H   0  0  0  0  0  0  0  0  0  0  0  0
    6.7075   -1.9587    0.5169 H   0  0  0  0  0  0  0  0  0  0  0  0
    7.6687    0.2307    0.9619 H   0  0  0  0  0  0  0  0  0  0  0  0
    8.7154   -0.8535    0.0440 H   0  0  0  0  0  0  0  0  0  0  0  0
    7.8453    2.8914   -0.7754 H   0  0  0  0  0  0  0  0  0  0  0  0
    8.2925    1.9669    0.6964 H   0  0  0  0  0  0  0  0  0  0  0  0
    9.4791    2.2213   -0.6175 H   0  0  0  0  0  0  0  0  0  0  0  0
    6.6596    2.1245   -2.0157 H   0  0  0  0  0  0  0  0  0  0  0  0
    6.2979    0.3713   -2.3586 H   0  0  0  0  0  0  0  0  0  0  0  0
    6.1194    1.5087    0.4354 H   0  0  0  0  0  0  0  0  0  0  0  0
    4.7175    1.6276   -0.6579 H   0  0  0  0  0  0  0  0  0  0  0  0
  1  2  1  0
  2  3  1  0
  3  4  2  0
  4  5  1  0
  5  6  1  0
  5  7  2  0
  7  8  1  0
  7  9  1  0
  9 10  2  0
 10 11  1  0
 11 12  2  0
 12 13  1  0
 13 14  2  0
 14 15  1  0
 15 16  2  0
 16 17  1  0
 17 18  1  0
 18 19  2  0
 15 20  1  0
 20 21  2  0
 21 22  1  0
 22 23  1  0
 23 24  1  0
 24 25  1  0
 25 26  1  0
 26 27  1  0
 27 28  1  0
 24 29  1  0
 29 30  1  0
 30 31  1  0
 31 32  1  0
 32 33  1  0
 32 34  1  0
 34 35  1  0
 10  3  1  0
 19 11  1  0
 28 20  1  0
 35 29  1  0
 18 14  1  0
 27 22  2  0
  1 36  1  0
  1 37  1  0
  1 38  1  0
  2 39  1  0
  2 40  1  0
  4 41  1  0
  6 42  1  0
  9 43  1  0
 12 44  1  0
 13 45  1  0
 17 46  1  0
 19 47  1  0
 23 48  1  0
 23 49  1  0
 25 50  1  0
 25 51  1  0
 26 52  1  0
 26 53  1  0
 28 54  1  0
 29 55  1  0
 30 56  1  0
 30 57  1  0
 31 58  1  0
 31 59  1  0
 33 60  1  0
 33 61  1  0
 33 62  1  0
 34 63  1  0
 34 64  1  0
 35 65  1  0
 35 66  1  0
M  END
$$$$
[H]c1nc(N([H])c2c([H])c(N3C([H])([H])C([H])([H])OC([H])([H])C3([H])[H])c([H])c(N3C([H])([H])C([H])([H])OC([H])([H])C3([H])[H])c2[H])nc(N(C([H])([H])[H])S(=O)(=O)C([H])([H])[H])c1[H]
     RDKit          3D

 59 62  0  0  0  0  0  0  0  0999 V2000
    5.9271   -1.8141   -1.3632 C   0  0  0  0  0  0  0  0  0  0  0  0
    5.8733   -0.6837   -0.4447 N   0  0  0  0  0  0  0  0  0  0  0  0
    4.6076   -0.1815   -0.0464 C   0  0  0  0  0  0  0  0  0  0  0  0
    4.5085    0.8774    0.8279 C   0  0  0  0  0  0  0  0  0  0  0  0
    3.2534    1.3641    1.2087 C   0  0  0  0  0  0  0  0  0  0  0  0
    2.2005    0.7558    0.6874 N   0  0  0  0  0  0  0  0  0  0  0  0
    2.2452   -0.2592   -0.1514 C   0  0  0  0  0  0  0  0  0  0  0  0
    1.1259   -0.8845   -0.6880 N   0  0  0  0  0  0  0  0  0  0  0  0
   -0.2172   -0.5224   -0.4359 C   0  0  0  0  0  0  0  0  0  0  0  0
   -0.6216    0.7339   -0.1048 C   0  0  0  0  0  0  0  0  0  0  0  0
   -1.9762    0.9812    0.1589 C   0  0  0  0  0  0  0  0  0  0  0  0
   -2.8821   -0.0493    0.0789 C   0  0  0  0  0  0  0  0  0  0  0  0
   -2.5181   -1.3358   -0.2535 C   0  0  0  0  0  0  0  0  0  0  0  0
   -1.1833   -1.5380   -0.5039 C   0  0  0  0  0  0  0  0  0  0  0  0
   -3.4546   -2.4081   -0.3398 N   0  0  0  0  0  0  0  0  0  0  0  0
   -4.8690   -2.2299   -0.1227 C   0  0  0  0  0  0  0  0  0  0  0  0
   -5.5767   -3.2330   -1.0208 C   0  0  0  0  0  0  0  0  0  0  0  0
   -5.2793   -4.5344   -0.7361 O   0  0  0  0  0  0  0  0  0  0  0  0
   -3.9967   -4.8024   -0.3590 C   0  0  0  0  0  0  0  0  0  0  0  0
   -2.9906   -3.7360   -0.6548 C   0  0  0  0  0  0  0  0  0  0  0  0
   -2.3454    2.3056    0.5002 N   0  0  0  0  0  0  0  0  0  0  0  0
   -3.7559    2.5529    0.7724 C   0  0  0  0  0  0  0  0  0  0  0  0
   -4.0948    3.9956    0.9361 C   0  0  0  0  0  0  0  0  0  0  0  0
   -3.1372    4.8789    0.5011 O   0  0  0  0  0  0  0  0  0  0  0  0
   -1.9047    4.6359    1.1006 C   0  0  0  0  0  0  0  0  0  0  0  0
   -1.3529    3.3540    0.5709 C   0  0  0  0  0  0  0  0  0  0  0  0
    3.4737   -0.7305   -0.5200 N   0  0  0  0  0  0  0  0  0  0  0  0
    7.3361   -0.0103    0.1142 S   0  0  0  0  0  0  0  0  0  0  0  0
    7.4463    1.6959   -0.4117 C   0  0  0  0  0  0  0  0  0  0  0  0
    7.4012   -0.0757    1.6231 O   0  0  0  0  0  0  0  0  0  0  0  0
    8.5116   -0.7603   -0.4042 O   0  0  0  0  0  0  0  0  0  0  0  0
    5.7090   -2.7546   -0.7874 H   0  0  0  0  0  0  0  0  0  0  0  0
    6.9076   -1.8715   -1.8825 H   0  0  0  0  0  0  0  0  0  0  0  0
    5.1196   -1.6575   -2.1031 H   0  0  0  0  0  0  0  0  0  0  0  0
    5.3899    1.3342    1.2246 H   0  0  0  0  0  0  0  0  0  0  0  0
    3.1473    2.1838    1.8848 H   0  0  0  0  0  0  0  0  0  0  0  0
    1.2333   -1.7189   -1.3634 H   0  0  0  0  0  0  0  0  0  0  0  0
    0.0760    1.5636   -0.0567 H   0  0  0  0  0  0  0  0  0  0  0  0
   -3.9255    0.1492    0.2842 H   0  0  0  0  0  0  0  0  0  0  0  0
   -0.8693   -2.5520   -0.7703 H   0  0  0  0  0  0  0  0  0  0  0  0
   -5.2424   -1.2277   -0.4215 H   0  0  0  0  0  0  0  0  0  0  0  0
   -5.0762   -2.4743    0.9369 H   0  0  0  0  0  0  0  0  0  0  0  0
   -5.2965   -2.9864   -2.0752 H   0  0  0  0  0  0  0  0  0  0  0  0
   -6.6668   -3.0839   -0.9493 H   0  0  0  0  0  0  0  0  0  0  0  0
   -3.9508   -5.1161    0.7171 H   0  0  0  0  0  0  0  0  0  0  0  0
   -3.6673   -5.7229   -0.9243 H   0  0  0  0  0  0  0  0  0  0  0  0
   -2.5839   -3.7691   -1.6778 H   0  0  0  0  0  0  0  0  0  0  0  0
   -2.1235   -3.9299    0.0444 H   0  0  0  0  0  0  0  0  0  0  0  0
   -4.3035    2.1236   -0.1121 H   0  0  0  0  0  0  0  0  0  0  0  0
   -4.0324    1.9193    1.6407 H   0  0  0  0  0  0  0  0  0  0  0  0
   -4.3400    4.1582    2.0205 H   0  0  0  0  0  0  0  0  0  0  0  0
   -5.0424    4.2348    0.3887 H   0  0  0  0  0  0  0  0  0  0  0  0
   -1.2246    5.4767    0.8390 H   0  0  0  0  0  0  0  0  0  0  0  0
   -2.0083    4.6198    2.2072 H   0  0  0  0  0  0  0  0  0  0  0  0
   -0.8605    3.5307   -0.4278 H   0  0  0  0  0  0  0  0  0  0  0  0
   -0.5072    3.0546    1.2425 H   0  0  0  0  0  0  0  0  0  0  0  0
    8.3235    1.8341   -1.0953 H   0  0  0  0  0  0  0  0  0  0  0  0
    7.5245    2.3413    0.4640 H   0  0  0  0  0  0  0  0  0  0  0  0
    6.5363    1.9990   -0.9782 H   0  0  0  0  0  0  0  0  0  0  0  0
  1  2  1  0
  2  3  1  0
  3  4  2  0
  4  5  1  0
  5  6  2  0
  6  7  1  0
  7  8  1  0
  8  9  1  0
  9 10  2  0
 10 11  1  0
 11 12  2  0
 12 13  1  0
 13 14  2  0
 13 15  1  0
 15 16  1  0
 16 17  1  0
 17 18  1  0
 18 19  1  0
 19 20  1  0
 11 21  1  0
 21 22  1  0
 22 23  1  0
 23 24  1  0
 24 25  1  0
 25 26  1  0
  7 27  2  0
  2 28  1  0
 28 29  1  0
 28 30  2  0
 28 31  2  0
 27  3  1  0
 14  9  1  0
 20 15  1  0
 26 21  1  0
  1 32  1  0
  1 33  1  0
  1 34  1  0
  4 35  1  0
  5 36  1  0
  8 37  1  0
 10 38  1  0
 12 39  1  0
 14 40  1  0
 16 41  1  0
 16 42  1  0
 17 43  1  0
 17 44  1  0
 19 45  1  0
 19 46  1  0
 20 47  1  0
 20 48  1  0
 22 49  1  0
 22 50  1  0
 23 51  1  0
 23 52  1  0
 25 53  1  0
 25 54  1  0
 26 55  1  0
 26 56  1  0
 29 57  1  0
 29 58  1  0
 29 59  1  0
M  END
$$$$
[H]OC([H])([H])[C@@]1(O[H])C([H])([H])[C@@]2([H])O[C@]1(C([H])([H])[H])n1c3c([H])c([H])c([H])c([H])c3c3c4c(c5c6c([H])c([H])c([H])c([H])c6n2c5c31)C(=O)N([H])C4([H])[H]
     RDKit          3D

 54 61  0  0  0  0  0  0  0  0999 V2000
    3.1800    0.8838    1.3878 C   0  0  0  0  0  0  0  0  0  0  0  0
    2.1176    0.2237    0.5774 C   0  0  2  0  0  0  0  0  0  0  0  0
    1.6968   -0.7870    1.4854 O   0  0  0  0  0  0  0  0  0  0  0  0
    1.2511   -1.8639    0.7986 C   0  0  2  0  0  0  0  0  0  0  0  0
    2.0328   -1.9517   -0.4419 C   0  0  0  0  0  0  0  0  0  0  0  0
    2.6347   -0.5714   -0.5849 C   0  0  1  0  0  0  0  0  0  0  0  0
    2.2138   -0.0799   -1.8115 O   0  0  0  0  0  0  0  0  0  0  0  0
    4.1191   -0.7109   -0.6110 C   0  0  0  0  0  0  0  0  0  0  0  0
    4.4589   -1.5975   -1.6334 O   0  0  0  0  0  0  0  0  0  0  0  0
   -0.2014   -1.7853    0.5955 N   0  0  0  0  0  0  0  0  0  0  0  0
   -1.1044   -2.7499    0.6347 C   0  0  0  0  0  0  0  0  0  0  0  0
   -0.9179   -4.0868    0.8734 C   0  0  0  0  0  0  0  0  0  0  0  0
   -2.0299   -4.9199    0.8648 C   0  0  0  0  0  0  0  0  0  0  0  0
   -3.2823   -4.4161    0.6235 C   0  0  0  0  0  0  0  0  0  0  0  0
   -3.4758   -3.0511    0.3794 C   0  0  0  0  0  0  0  0  0  0  0  0
   -2.3768   -2.2421    0.3902 C   0  0  0  0  0  0  0  0  0  0  0  0
   -2.2053   -0.8905    0.1945 C   0  0  0  0  0  0  0  0  0  0  0  0
   -3.0670    0.1511   -0.0975 C   0  0  0  0  0  0  0  0  0  0  0  0
   -4.5001    0.2660   -0.2996 C   0  0  0  0  0  0  0  0  0  0  0  0
   -5.3884   -0.5871   -0.2658 O   0  0  0  0  0  0  0  0  0  0  0  0
   -4.7851    1.6416   -0.5724 N   0  0  0  0  0  0  0  0  0  0  0  0
   -3.5735    2.4248   -0.5610 C   0  0  0  0  0  0  0  0  0  0  0  0
   -2.5314    1.4168   -0.2472 C   0  0  0  0  0  0  0  0  0  0  0  0
   -1.1701    1.6669   -0.1133 C   0  0  0  0  0  0  0  0  0  0  0  0
   -0.3770    2.7657   -0.2198 C   0  0  0  0  0  0  0  0  0  0  0  0
   -0.7006    4.0705   -0.5126 C   0  0  0  0  0  0  0  0  0  0  0  0
    0.3203    5.0230   -0.5829 C   0  0  0  0  0  0  0  0  0  0  0  0
    1.6233    4.6180   -0.3553 C   0  0  0  0  0  0  0  0  0  0  0  0
    1.9232    3.2989   -0.0625 C   0  0  0  0  0  0  0  0  0  0  0  0
    0.9354    2.3466    0.0129 C   0  0  0  0  0  0  0  0  0  0  0  0
    0.9590    1.0103    0.2643 N   0  0  0  0  0  0  0  0  0  0  0  0
   -0.3578    0.6223    0.1746 C   0  0  0  0  0  0  0  0  0  0  0  0
   -0.8544   -0.6533    0.3299 C   0  0  0  0  0  0  0  0  0  0  0  0
    4.0624    1.2462    0.8471 H   0  0  0  0  0  0  0  0  0  0  0  0
    3.5596    0.1949    2.1815 H   0  0  0  0  0  0  0  0  0  0  0  0
    2.7312    1.7230    1.9466 H   0  0  0  0  0  0  0  0  0  0  0  0
    1.4219   -2.7643    1.4120 H   0  0  0  0  0  0  0  0  0  0  0  0
    1.4720   -2.2700   -1.3403 H   0  0  0  0  0  0  0  0  0  0  0  0
    2.8377   -2.7359   -0.3258 H   0  0  0  0  0  0  0  0  0  0  0  0
    2.8799   -0.3390   -2.4928 H   0  0  0  0  0  0  0  0  0  0  0  0
    4.5238   -1.1579    0.3296 H   0  0  0  0  0  0  0  0  0  0  0  0
    4.6358    0.2581   -0.8438 H   0  0  0  0  0  0  0  0  0  0  0  0
    4.7979   -2.4633   -1.2908 H   0  0  0  0  0  0  0  0  0  0  0  0
    0.0592   -4.4684    1.0598 H   0  0  0  0  0  0  0  0  0  0  0  0
   -1.8569   -5.9719    1.0560 H   0  0  0  0  0  0  0  0  0  0  0  0
   -4.1224   -5.0759    0.6219 H   0  0  0  0  0  0  0  0  0  0  0  0
   -4.4721   -2.7398    0.2018 H   0  0  0  0  0  0  0  0  0  0  0  0
   -5.7336    2.0654   -0.7610 H   0  0  0  0  0  0  0  0  0  0  0  0
   -3.6366    3.2333    0.1993 H   0  0  0  0  0  0  0  0  0  0  0  0
   -3.3846    2.8954   -1.5673 H   0  0  0  0  0  0  0  0  0  0  0  0
   -1.7294    4.3700   -0.6881 H   0  0  0  0  0  0  0  0  0  0  0  0
    0.0587    6.0490   -0.8135 H   0  0  0  0  0  0  0  0  0  0  0  0
    2.3774    5.3965   -0.4223 H   0  0  0  0  0  0  0  0  0  0  0  0
    2.9510    3.0689    0.0761 H   0  0  0  0  0  0  0  0  0  0  0  0
  2  1  1  1
  2  3  1  0
  3  4  1  0
  4  5  1  0
  5  6  1  0
  6  7  1  6
  6  8  1  0
  8  9  1  0
  4 10  1  0
 10 11  1  0
 11 12  2  0
 12 13  1  0
 13 14  2  0
 14 15  1  0
 15 16  2  0
 16 17  1  0
 17 18  2  0
 18 19  1  0
 19 20  2  0
 19 21  1  0
 21 22  1  0
 22 23  1  0
 23 24  2  0
 24 25  1  0
 25 26  2  0
 26 27  1  0
 27 28  2  0
 28 29  1  0
 29 30  2  0
 30 31  1  0
 31 32  1  0
 32 33  2  0
  6  2  1  0
 33 10  1  0
 31  2  1  0
 16 11  1  0
 33 17  1  0
 23 18  1  0
 32 24  1  0
 30 25  1  0
  1 34  1  0
  1 35  1  0
  1 36  1  0
  4 37  1  1
  5 38  1  0
  5 39  1  0
  7 40  1  0
  8 41  1  0
  8 42  1  0
  9 43  1  0
 12 44  1  0
 13 45  1  0
 14 46  1  0
 15 47  1  0
 21 48  1  0
 22 49  1  0
 22 50  1  0
 26 51  1  0
 27 52  1  0
 28 53  1  0
 29 54  1  0
M  END
$$$$
[H]N=C(N([H])[H])N([H])C([H])([H])C([H])([H])C([H])([H])[C@@]([H])(C(=O)N([H])[C@]([H])(C(=O)O[H])C([H])([H])c1c([H])c([H])c([H])c([H])c1[H])N([H])C(=O)[C@@]1([H])N([H])C([H])([H])c2c([H])c([H])c([H])c([H])c2C1([H])[H]
     RDKit          3D

 67 69  0  0  0  0  0  0  0  0999 V2000
   -1.0006    7.6572   -1.1487 N   0  0  0  0  0  0  0  0  0  0  0  0
   -0.3525    6.7265   -1.9998 C   0  0  0  0  0  0  0  0  0  0  0  0
   -0.2633    6.9348   -3.2676 N   0  0  0  0  0  0  0  0  0  0  0  0
    0.1826    5.5663   -1.3617 N   0  0  0  0  0  0  0  0  0  0  0  0
   -0.6469    4.3788   -1.3175 C   0  0  0  0  0  0  0  0  0  0  0  0
    0.1021    3.2851   -0.6049 C   0  0  0  0  0  0  0  0  0  0  0  0
   -0.7489    2.0216   -0.5431 C   0  0  0  0  0  0  0  0  0  0  0  0
   -0.0347    0.9217    0.1840 C   0  0  2  0  0  0  0  0  0  0  0  0
    1.2182    0.5337   -0.3981 N   0  0  0  0  0  0  0  0  0  0  0  0
    2.5008    0.6966    0.1884 C   0  0  0  0  0  0  0  0  0  0  0  0
    2.6673    1.2180    1.3253 O   0  0  0  0  0  0  0  0  0  0  0  0
    3.7284    0.2496   -0.5318 C   0  0  2  0  0  0  0  0  0  0  0  0
    3.5609   -1.1891   -0.8840 C   0  0  0  0  0  0  0  0  0  0  0  0
    4.7412   -2.0392   -0.5848 C   0  0  0  0  0  0  0  0  0  0  0  0
    4.6057   -3.4215   -0.4797 C   0  0  0  0  0  0  0  0  0  0  0  0
    5.7228   -4.1613   -0.2135 C   0  0  0  0  0  0  0  0  0  0  0  0
    6.9793   -3.6138   -0.0435 C   0  0  0  0  0  0  0  0  0  0  0  0
    7.0879   -2.2358   -0.1527 C   0  0  0  0  0  0  0  0  0  0  0  0
    5.9826   -1.4675   -0.4187 C   0  0  0  0  0  0  0  0  0  0  0  0
    6.0734    0.0257   -0.5291 C   0  0  0  0  0  0  0  0  0  0  0  0
    4.9155    0.5214    0.2229 N   0  0  0  0  0  0  0  0  0  0  0  0
   -0.9096   -0.2596    0.3221 C   0  0  0  0  0  0  0  0  0  0  0  0
   -0.3113   -1.3944    0.3285 O   0  0  0  0  0  0  0  0  0  0  0  0
   -2.3001   -0.1682    0.4344 N   0  0  0  0  0  0  0  0  0  0  0  0
   -3.1449   -1.3763    0.5705 C   0  0  1  0  0  0  0  0  0  0  0  0
   -4.0231   -1.2231    1.7788 C   0  0  0  0  0  0  0  0  0  0  0  0
   -4.9166   -2.3527    2.0192 C   0  0  0  0  0  0  0  0  0  0  0  0
   -4.5036   -3.4669    2.7711 C   0  0  0  0  0  0  0  0  0  0  0  0
   -5.3458   -4.5257    3.0402 C   0  0  0  0  0  0  0  0  0  0  0  0
   -6.6301   -4.4742    2.5483 C   0  0  0  0  0  0  0  0  0  0  0  0
   -7.0539   -3.3742    1.7997 C   0  0  0  0  0  0  0  0  0  0  0  0
   -6.2071   -2.3260    1.5380 C   0  0  0  0  0  0  0  0  0  0  0  0
   -3.8725   -1.5919   -0.7050 C   0  0  0  0  0  0  0  0  0  0  0  0
   -4.6690   -2.7010   -0.9713 O   0  0  0  0  0  0  0  0  0  0  0  0
   -3.8016   -0.7551   -1.6481 O   0  0  0  0  0  0  0  0  0  0  0  0
   -1.8319    8.1672   -1.5048 H   0  0  0  0  0  0  0  0  0  0  0  0
   -0.6709    7.8556   -0.1682 H   0  0  0  0  0  0  0  0  0  0  0  0
    0.2149    6.2470   -3.8972 H   0  0  0  0  0  0  0  0  0  0  0  0
    1.1203    5.5771   -0.9537 H   0  0  0  0  0  0  0  0  0  0  0  0
   -1.5359    4.6500   -0.6923 H   0  0  0  0  0  0  0  0  0  0  0  0
   -0.9470    4.1138   -2.3300 H   0  0  0  0  0  0  0  0  0  0  0  0
    0.3529    3.6275    0.4142 H   0  0  0  0  0  0  0  0  0  0  0  0
    1.0518    3.1040   -1.1407 H   0  0  0  0  0  0  0  0  0  0  0  0
   -1.6828    2.2726    0.0303 H   0  0  0  0  0  0  0  0  0  0  0  0
   -1.0487    1.7749   -1.5690 H   0  0  0  0  0  0  0  0  0  0  0  0
    0.2390    1.2765    1.2340 H   0  0  0  0  0  0  0  0  0  0  0  0
    1.1921    0.0814   -1.3562 H   0  0  0  0  0  0  0  0  0  0  0  0
    3.7948    0.8608   -1.4748 H   0  0  0  0  0  0  0  0  0  0  0  0
    3.2866   -1.2755   -1.9681 H   0  0  0  0  0  0  0  0  0  0  0  0
    2.6946   -1.6785   -0.3491 H   0  0  0  0  0  0  0  0  0  0  0  0
    3.6168   -3.8412   -0.6157 H   0  0  0  0  0  0  0  0  0  0  0  0
    5.6246   -5.2532   -0.1305 H   0  0  0  0  0  0  0  0  0  0  0  0
    7.8244   -4.2482    0.1642 H   0  0  0  0  0  0  0  0  0  0  0  0
    8.0386   -1.7481   -0.0339 H   0  0  0  0  0  0  0  0  0  0  0  0
    6.9962    0.4109   -0.0860 H   0  0  0  0  0  0  0  0  0  0  0  0
    5.9040    0.2822   -1.5866 H   0  0  0  0  0  0  0  0  0  0  0  0
    4.9064    0.1607    1.1950 H   0  0  0  0  0  0  0  0  0  0  0  0
   -2.8277    0.7171    0.4249 H   0  0  0  0  0  0  0  0  0  0  0  0
   -2.4998   -2.2633    0.7175 H   0  0  0  0  0  0  0  0  0  0  0  0
   -4.5636   -0.2431    1.7534 H   0  0  0  0  0  0  0  0  0  0  0  0
   -3.3091   -1.1816    2.6551 H   0  0  0  0  0  0  0  0  0  0  0  0
   -3.5146   -3.5322    3.1640 H   0  0  0  0  0  0  0  0  0  0  0  0
   -4.9956   -5.3835    3.6314 H   0  0  0  0  0  0  0  0  0  0  0  0
   -7.3234   -5.2944    2.7429 H   0  0  0  0  0  0  0  0  0  0  0  0
   -8.0685   -3.3126    1.3992 H   0  0  0  0  0  0  0  0  0  0  0  0
   -6.5579   -1.4609    0.9386 H   0  0  0  0  0  0  0  0  0  0  0  0
   -4.8130   -3.0833   -1.8754 H   0  0  0  0  0  0  0  0  0  0  0  0
  1  2  1  0
  2  3  2  3
  2  4  1  0
  4  5  1  0
  5  6  1  0
  6  7  1  0
  7  8  1  0
  8  9  1  0
  9 10  1  0
 10 11  2  0
 10 12  1  0
 12 13  1  0
 13 14  1  0
 14 15  2  0
 15 16  1  0
 16 17  2  0
 17 18  1  0
 18 19  2  0
 19 20  1  0
 20 21  1  0
  8 22  1  0
 22 23  2  0
 22 24  1  0
 24 25  1  0
 25 26  1  0
 26 27  1  0
 27 28  2  0
 28 29  1  0
 29 30  2  0
 30 31  1  0
 31 32  2  0
 25 33  1  0
 33 34  1  0
 33 35  2  0
 21 12  1  0
 32 27  1  0
 19 14  1  0
  1 36  1  0
  1 37  1  0
  3 38  1  0
  4 39  1  0
  5 40  1  0
  5 41  1  0
  6 42  1  0
  6 43  1  0
  7 44  1  0
  7 45  1  0
  8 46  1  1
  9 47  1  0
 12 48  1  6
 13 49  1  0
 13 50  1  0
 15 51  1  0
 16 52  1  0
 17 53  1  0
 18 54  1  0
 20 55  1  0
 20 56  1  0
 21 57  1  0
 24 58  1  0
 25 59  1  1
 26 60  1  0
 26 61  1  0
 28 62  1  0
 29 63  1  0
 30 64  1  0
 31 65  1  0
 32 66  1  0
 34 67  1  0
M  END
$$$$
[H]Oc1c([H])c([H])c(/C([H])=C(\[H])C(=O)N2C([H])([H])C([H])([H])C([H])([H])C([H])([H])C2([H])[H])c([H])c1[H]
     RDKit          3D

 34 35  0  0  0  0  0  0  0  0999 V2000
    6.5688    1.0518    0.4542 O   0  0  0  0  0  0  0  0  0  0  0  0
    5.2839    0.5581    0.1807 C   0  0  0  0  0  0  0  0  0  0  0  0
    4.1656    1.2662    0.5524 C   0  0  0  0  0  0  0  0  0  0  0  0
    2.8948    0.7628    0.2737 C   0  0  0  0  0  0  0  0  0  0  0  0
    2.7786   -0.4326   -0.3676 C   0  0  0  0  0  0  0  0  0  0  0  0
    1.5117   -1.0239   -0.6933 C   0  0  0  0  0  0  0  0  0  0  0  0
    0.3792   -0.4417   -0.3891 C   0  0  0  0  0  0  0  0  0  0  0  0
   -0.8752   -1.0888   -0.7446 C   0  0  0  0  0  0  0  0  0  0  0  0
   -0.8259   -2.1945   -1.3368 O   0  0  0  0  0  0  0  0  0  0  0  0
   -2.1009   -0.4526   -0.4120 N   0  0  0  0  0  0  0  0  0  0  0  0
   -2.1014    0.7938    0.2558 C   0  0  0  0  0  0  0  0  0  0  0  0
   -3.3992    1.4497    0.4717 C   0  0  0  0  0  0  0  0  0  0  0  0
   -4.6130    0.6267    0.2348 C   0  0  0  0  0  0  0  0  0  0  0  0
   -4.2919   -0.8618    0.3629 C   0  0  0  0  0  0  0  0  0  0  0  0
   -3.3395   -1.1445   -0.7914 C   0  0  0  0  0  0  0  0  0  0  0  0
    3.9336   -1.1371   -0.7370 C   0  0  0  0  0  0  0  0  0  0  0  0
    5.1838   -0.6491   -0.4668 C   0  0  0  0  0  0  0  0  0  0  0  0
    7.0299    1.6531   -0.2444 H   0  0  0  0  0  0  0  0  0  0  0  0
    4.2355    2.2142    1.0608 H   0  0  0  0  0  0  0  0  0  0  0  0
    2.0277    1.3312    0.5723 H   0  0  0  0  0  0  0  0  0  0  0  0
    1.4808   -1.9922   -1.2124 H   0  0  0  0  0  0  0  0  0  0  0  0
    0.3437    0.5016    0.1163 H   0  0  0  0  0  0  0  0  0  0  0  0
   -1.3968    1.4793   -0.3020 H   0  0  0  0  0  0  0  0  0  0  0  0
   -1.5984    0.6600    1.2565 H   0  0  0  0  0  0  0  0  0  0  0  0
   -3.4708    2.3571   -0.1960 H   0  0  0  0  0  0  0  0  0  0  0  0
   -3.4828    1.8737    1.5159 H   0  0  0  0  0  0  0  0  0  0  0  0
   -4.9405    0.7669   -0.8243 H   0  0  0  0  0  0  0  0  0  0  0  0
   -5.4459    0.8223    0.9563 H   0  0  0  0  0  0  0  0  0  0  0  0
   -5.1980   -1.4772    0.3132 H   0  0  0  0  0  0  0  0  0  0  0  0
   -3.7332   -0.9660    1.3197 H   0  0  0  0  0  0  0  0  0  0  0  0
   -3.7478   -0.7515   -1.7385 H   0  0  0  0  0  0  0  0  0  0  0  0
   -3.1639   -2.2213   -0.9380 H   0  0  0  0  0  0  0  0  0  0  0  0
    3.8518   -2.1057   -1.2566 H   0  0  0  0  0  0  0  0  0  0  0  0
    6.0554   -1.2280   -0.7710 H   0  0  0  0  0  0  0  0  0  0  0  0
  1  2  1  0
  2  3  2  0
  3  4  1  0
  4  5  2  0
  5  6  1  0
  6  7  2  0
  7  8  1  0
  8  9  2  0
  8 10  1  0
 10 11  1  0
 11 12  1  0
 12 13  1  0
 13 14  1  0
 14 15  1  0
  5 16  1  0
 16 17  2  0
 17  2  1  0
 15 10  1  0
  1 18  1  0
  3 19  1  0
  4 20  1  0
  6 21  1  0
  7 22  1  0
 11 23  1  0
 11 24  1  0
 12 25  1  0
 12 26  1  0
 13 27  1  0
 13 28  1  0
 14 29  1  0
 14 30  1  0
 15 31  1  0
 15 32  1  0
 16 33  1  0
 17 34  1  0
M  END
$$$$
[H]OC(=O)[C@@]([H])(N([H])C(=O)[C@@]([H])(N([H])C(=O)[C@@]([H])(N([H])C(=O)C([H])([H])N([H])C(=O)[C@@]([H])(N([H])C(=O)[C@@]([H])(N([H])[H])C([H])([H])c1c([H])n([H])c2c([H])c([H])c([H])c([H])c12)C([H])(C([H])([H])[H])C([H])([H])[H])C([H])([H])c1c([H])c([H])c([H])c([H])c1[H])C([H])([H])C([H])(C([H])([H])[H])C([H])([H])[H])C([H])([H])c1c([H])c([H])c([H])c([H])c1[H]
     RDKit          3D

109112  0  0  0  0  0  0  0  0999 V2000
    4.0349   -3.5220   -1.9452 C   0  0  0  0  0  0  0  0  0  0  0  0
    5.0222   -3.0061   -0.9894 C   0  0  0  0  0  0  0  0  0  0  0  0
    5.8133   -4.1890   -0.4016 C   0  0  0  0  0  0  0  0  0  0  0  0
    4.6596   -2.0964    0.0863 C   0  0  0  0  0  0  0  0  0  0  0  0
    4.0975   -0.7797   -0.1415 C   0  0  2  0  0  0  0  0  0  0  0  0
    2.8329   -0.6578   -0.8315 N   0  0  0  0  0  0  0  0  0  0  0  0
    2.0682    0.4879   -0.6001 C   0  0  0  0  0  0  0  0  0  0  0  0
    2.5727    1.3463    0.2307 O   0  0  0  0  0  0  0  0  0  0  0  0
    0.8023    0.8184   -1.1706 C   0  0  2  0  0  0  0  0  0  0  0  0
    0.6793    0.9825   -2.6472 C   0  0  0  0  0  0  0  0  0  0  0  0
    0.9661   -0.1352   -3.5228 C   0  0  0  0  0  0  0  0  0  0  0  0
    2.1084   -0.3615   -4.2647 C   0  0  0  0  0  0  0  0  0  0  0  0
    2.2636   -1.4806   -5.0986 C   0  0  0  0  0  0  0  0  0  0  0  0
    1.2290   -2.4024   -5.1832 C   0  0  0  0  0  0  0  0  0  0  0  0
    0.0913   -2.2092   -4.4655 C   0  0  0  0  0  0  0  0  0  0  0  0
   -0.0323   -1.1163   -3.6662 C   0  0  0  0  0  0  0  0  0  0  0  0
    0.3358    2.1035   -0.5509 N   0  0  0  0  0  0  0  0  0  0  0  0
   -1.0492    2.3417   -0.3737 C   0  0  0  0  0  0  0  0  0  0  0  0
   -1.8398    1.4419   -0.7785 O   0  0  0  0  0  0  0  0  0  0  0  0
   -1.4471    3.6075    0.2617 C   0  0  0  0  0  0  0  0  0  0  0  0
   -2.8769    3.7098    0.3443 N   0  0  0  0  0  0  0  0  0  0  0  0
   -3.6281    2.7428    1.0651 C   0  0  0  0  0  0  0  0  0  0  0  0
   -3.0859    1.7853    1.6442 O   0  0  0  0  0  0  0  0  0  0  0  0
   -5.1191    2.9649    1.0698 C   0  0  1  0  0  0  0  0  0  0  0  0
   -5.7293    1.6515    1.1595 N   0  0  0  0  0  0  0  0  0  0  0  0
   -6.5416    1.2743    0.0559 C   0  0  0  0  0  0  0  0  0  0  0  0
   -6.6879    2.0798   -0.9207 O   0  0  0  0  0  0  0  0  0  0  0  0
   -7.2044   -0.0481    0.0573 C   0  0  1  0  0  0  0  0  0  0  0  0
   -7.9412   -0.2372   -1.1538 N   0  0  0  0  0  0  0  0  0  0  0  0
   -6.1858   -1.1764    0.2620 C   0  0  0  0  0  0  0  0  0  0  0  0
   -6.9103   -2.4585    0.2338 C   0  0  0  0  0  0  0  0  0  0  0  0
   -6.8866   -3.3197   -0.8372 C   0  0  0  0  0  0  0  0  0  0  0  0
   -7.6605   -4.3812   -0.5190 N   0  0  0  0  0  0  0  0  0  0  0  0
   -8.1827   -4.2513    0.6965 C   0  0  0  0  0  0  0  0  0  0  0  0
   -9.0166   -5.0192    1.4680 C   0  0  0  0  0  0  0  0  0  0  0  0
   -9.4005   -4.5967    2.7373 C   0  0  0  0  0  0  0  0  0  0  0  0
   -8.9410   -3.3844    3.2396 C   0  0  0  0  0  0  0  0  0  0  0  0
   -8.0941   -2.6179    2.4417 C   0  0  0  0  0  0  0  0  0  0  0  0
   -7.7112   -3.0322    1.1835 C   0  0  0  0  0  0  0  0  0  0  0  0
   -5.4115    3.7916    2.2882 C   0  0  0  0  0  0  0  0  0  0  0  0
   -4.7007    5.1169    2.2865 C   0  0  0  0  0  0  0  0  0  0  0  0
   -6.9279    4.0098    2.4546 C   0  0  0  0  0  0  0  0  0  0  0  0
    5.0743    0.2240   -0.7008 C   0  0  0  0  0  0  0  0  0  0  0  0
    4.7100    0.9432   -1.6373 O   0  0  0  0  0  0  0  0  0  0  0  0
    6.3643    0.3492   -0.1686 N   0  0  0  0  0  0  0  0  0  0  0  0
    7.2890    1.3390   -0.6798 C   0  0  1  0  0  0  0  0  0  0  0  0
    7.6053    2.3124    0.4531 C   0  0  0  0  0  0  0  0  0  0  0  0
    8.2330    1.6451    1.6215 C   0  0  0  0  0  0  0  0  0  0  0  0
    7.4820    1.1398    2.6606 C   0  0  0  0  0  0  0  0  0  0  0  0
    8.0642    0.5370    3.7389 C   0  0  0  0  0  0  0  0  0  0  0  0
    9.4347    0.4343    3.7841 C   0  0  0  0  0  0  0  0  0  0  0  0
   10.2358    0.9259    2.7668 C   0  0  0  0  0  0  0  0  0  0  0  0
    9.6057    1.5274    1.6961 C   0  0  0  0  0  0  0  0  0  0  0  0
    8.4774    0.7818   -1.3236 C   0  0  0  0  0  0  0  0  0  0  0  0
    9.4467    1.6268   -1.8514 O   0  0  0  0  0  0  0  0  0  0  0  0
    8.6573   -0.4536   -1.4183 O   0  0  0  0  0  0  0  0  0  0  0  0
    4.4079   -4.5289   -2.3516 H   0  0  0  0  0  0  0  0  0  0  0  0
    3.7387   -2.8748   -2.7635 H   0  0  0  0  0  0  0  0  0  0  0  0
    3.0939   -3.8138   -1.3943 H   0  0  0  0  0  0  0  0  0  0  0  0
    5.8303   -2.4903   -1.6349 H   0  0  0  0  0  0  0  0  0  0  0  0
    5.0764   -4.8838    0.0468 H   0  0  0  0  0  0  0  0  0  0  0  0
    6.4368   -3.8075    0.4513 H   0  0  0  0  0  0  0  0  0  0  0  0
    6.4441   -4.6515   -1.1914 H   0  0  0  0  0  0  0  0  0  0  0  0
    5.5914   -1.9739    0.7365 H   0  0  0  0  0  0  0  0  0  0  0  0
    3.9720   -2.6461    0.8107 H   0  0  0  0  0  0  0  0  0  0  0  0
    3.8919   -0.2925    0.8826 H   0  0  0  0  0  0  0  0  0  0  0  0
    2.5143   -1.4057   -1.4385 H   0  0  0  0  0  0  0  0  0  0  0  0
    0.0284    0.0320   -0.8736 H   0  0  0  0  0  0  0  0  0  0  0  0
   -0.3274    1.4536   -2.8629 H   0  0  0  0  0  0  0  0  0  0  0  0
    1.3846    1.8509   -2.9063 H   0  0  0  0  0  0  0  0  0  0  0  0
    2.9018    0.3515   -4.1963 H   0  0  0  0  0  0  0  0  0  0  0  0
    3.1562   -1.6380   -5.6736 H   0  0  0  0  0  0  0  0  0  0  0  0
    1.3655   -3.2751   -5.8346 H   0  0  0  0  0  0  0  0  0  0  0  0
   -0.7175   -2.9549   -4.5477 H   0  0  0  0  0  0  0  0  0  0  0  0
   -0.9734   -1.0012   -3.0975 H   0  0  0  0  0  0  0  0  0  0  0  0
    1.0163    2.8279   -0.2510 H   0  0  0  0  0  0  0  0  0  0  0  0
   -1.0186    4.4262   -0.3812 H   0  0  0  0  0  0  0  0  0  0  0  0
   -0.9865    3.7082    1.2708 H   0  0  0  0  0  0  0  0  0  0  0  0
   -3.3762    4.5159   -0.1355 H   0  0  0  0  0  0  0  0  0  0  0  0
   -5.3795    3.4885    0.1387 H   0  0  0  0  0  0  0  0  0  0  0  0
   -5.6049    1.0041    1.9459 H   0  0  0  0  0  0  0  0  0  0  0  0
   -7.9351   -0.1307    0.9114 H   0  0  0  0  0  0  0  0  0  0  0  0
   -8.8902    0.1911   -1.1344 H   0  0  0  0  0  0  0  0  0  0  0  0
   -7.4135    0.1999   -1.9665 H   0  0  0  0  0  0  0  0  0  0  0  0
   -5.4304   -1.1431   -0.5538 H   0  0  0  0  0  0  0  0  0  0  0  0
   -5.6274   -0.9922    1.2024 H   0  0  0  0  0  0  0  0  0  0  0  0
   -6.3607   -3.2004   -1.7672 H   0  0  0  0  0  0  0  0  0  0  0  0
   -7.8115   -5.1890   -1.1692 H   0  0  0  0  0  0  0  0  0  0  0  0
   -9.3632   -5.9484    1.0506 H   0  0  0  0  0  0  0  0  0  0  0  0
  -10.0579   -5.1984    3.3425 H   0  0  0  0  0  0  0  0  0  0  0  0
   -9.2494   -3.0781    4.2172 H   0  0  0  0  0  0  0  0  0  0  0  0
   -7.7404   -1.6784    2.8469 H   0  0  0  0  0  0  0  0  0  0  0  0
   -5.0868    3.2493    3.2127 H   0  0  0  0  0  0  0  0  0  0  0  0
   -4.8826    5.6495    1.3307 H   0  0  0  0  0  0  0  0  0  0  0  0
   -3.6149    5.0456    2.4331 H   0  0  0  0  0  0  0  0  0  0  0  0
   -5.1181    5.7373    3.1310 H   0  0  0  0  0  0  0  0  0  0  0  0
   -7.4880    3.0707    2.3176 H   0  0  0  0  0  0  0  0  0  0  0  0
   -7.3168    4.7598    1.7585 H   0  0  0  0  0  0  0  0  0  0  0  0
   -7.0789    4.3335    3.5163 H   0  0  0  0  0  0  0  0  0  0  0  0
    6.6737   -0.2680    0.5976 H   0  0  0  0  0  0  0  0  0  0  0  0
    6.7782    1.9626   -1.4822 H   0  0  0  0  0  0  0  0  0  0  0  0
    8.2470    3.1035    0.0208 H   0  0  0  0  0  0  0  0  0  0  0  0
    6.5945    2.7367    0.7265 H   0  0  0  0  0  0  0  0  0  0  0  0
    6.3965    1.2367    2.5994 H   0  0  0  0  0  0  0  0  0  0  0  0
    7.4514    0.1319    4.5723 H   0  0  0  0  0  0  0  0  0  0  0  0
    9.8652   -0.0558    4.6589 H   0  0  0  0  0  0  0  0  0  0  0  0
   11.3352    0.8412    2.8094 H   0  0  0  0  0  0  0  0  0  0  0  0
   10.2648    1.9142    0.8925 H   0  0  0  0  0  0  0  0  0  0  0  0
    9.3480    2.1881   -2.6726 H   0  0  0  0  0  0  0  0  0  0  0  0
  1  2  1  0
  2  3  1  0
  2  4  1  0
  4  5  1  0
  5  6  1  0
  6  7  1  0
  7  8  2  0
  7  9  1  0
  9 10  1  0
 10 11  1  0
 11 12  2  0
 12 13  1  0
 13 14  2  0
 14 15  1  0
 15 16  2  0
  9 17  1  0
 17 18  1  0
 18 19  2  0
 18 20  1  0
 20 21  1  0
 21 22  1  0
 22 23  2  0
 22 24  1  0
 24 25  1  0
 25 26  1  0
 26 27  2  0
 26 28  1  0
 28 29  1  0
 28 30  1  0
 30 31  1  0
 31 32  2  0
 32 33  1  0
 33 34  1  0
 34 35  2  0
 35 36  1  0
 36 37  2  0
 37 38  1  0
 38 39  2  0
 24 40  1  0
 40 41  1  0
 40 42  1  0
  5 43  1  0
 43 44  2  0
 43 45  1  0
 45 46  1  0
 46 47  1  0
 47 48  1  0
 48 49  2  0
 49 50  1  0
 50 51  2  0
 51 52  1  0
 52 53  2  0
 46 54  1  0
 54 55  1  0
 54 56  2  0
 16 11  1  0
 39 31  1  0
 53 48  1  0
 39 34  1  0
  1 57  1  0
  1 58  1  0
  1 59  1  0
  2 60  1  0
  3 61  1  0
  3 62  1  0
  3 63  1  0
  4 64  1  0
  4 65  1  0
  5 66  1  1
  6 67  1  0
  9 68  1  1
 10 69  1  0
 10 70  1  0
 12 71  1  0
 13 72  1  0
 14 73  1  0
 15 74  1  0
 16 75  1  0
 17 76  1  0
 20 77  1  0
 20 78  1  0
 21 79  1  0
 24 80  1  6
 25 81  1  0
 28 82  1  1
 29 83  1  0
 29 84  1  0
 30 85  1  0
 30 86  1  0
 32 87  1  0
 33 88  1  0
 35 89  1  0
 36 90  1  0
 37 91  1  0
 38 92  1  0
 40 93  1  0
 41 94  1  0
 41 95  1  0
 41 96  1  0
 42 97  1  0
 42 98  1  0
 42 99  1  0
 45100  1  0
 46101  1  6
 47102  1  0
 47103  1  0
 49104  1  0
 50105  1  0
 51106  1  0
 52107  1  0
 53108  1  0
 55109  1  0
M  END
$$$$
[H]C1=C([H])C([H])(F)C([H])([H])C([H])=C1N([H])C(=O)C1(C(=O)N([H])c2c([H])c([H])c(Oc3c([H])c([H])nc4c([H])c(OC([H])([H])C([H])([H])C([H])([H])N5C([H])([H])C([H])([H])N(C([H])([H])[H])C([H])([H])C5([H])[H])c(OC([H])([H])[H])c([H])c34)c(F)c2[H])C([H])([H])C1([H])[H]
     RDKit          3D

 86 91  0  0  0  0  0  0  0  0999 V2000
    4.0867   -2.2079    1.2558 C   0  0  0  0  0  0  0  0  0  0  0  0
    4.5964   -1.7919    0.0038 O   0  0  0  0  0  0  0  0  0  0  0  0
    3.7510   -1.1170   -0.8556 C   0  0  0  0  0  0  0  0  0  0  0  0
    2.4528   -0.8639   -0.4970 C   0  0  0  0  0  0  0  0  0  0  0  0
    1.6185   -0.1926   -1.3583 C   0  0  0  0  0  0  0  0  0  0  0  0
    0.3165    0.0411   -0.9579 C   0  0  0  0  0  0  0  0  0  0  0  0
   -0.1443   -0.3926    0.2766 O   0  0  0  0  0  0  0  0  0  0  0  0
   -1.4136   -0.2900    0.7642 C   0  0  0  0  0  0  0  0  0  0  0  0
   -1.7361    0.4631    1.8817 C   0  0  0  0  0  0  0  0  0  0  0  0
   -3.0164    0.5329    2.3341 C   0  0  0  0  0  0  0  0  0  0  0  0
   -4.0984   -0.1315    1.7281 C   0  0  0  0  0  0  0  0  0  0  0  0
   -5.3722    0.0048    2.2756 N   0  0  0  0  0  0  0  0  0  0  0  0
   -6.5324   -0.6319    1.8337 C   0  0  0  0  0  0  0  0  0  0  0  0
   -6.6351   -1.4437    0.8577 O   0  0  0  0  0  0  0  0  0  0  0  0
   -7.8496   -0.3945    2.5344 C   0  0  0  0  0  0  0  0  0  0  0  0
   -7.8362   -0.0976    3.9672 C   0  0  0  0  0  0  0  0  0  0  0  0
   -8.2207   -1.4625    3.5571 C   0  0  0  0  0  0  0  0  0  0  0  0
   -8.9634    0.0748    1.6803 C   0  0  0  0  0  0  0  0  0  0  0  0
  -10.1142    0.2212    2.2058 O   0  0  0  0  0  0  0  0  0  0  0  0
   -8.8512    0.3722    0.3227 N   0  0  0  0  0  0  0  0  0  0  0  0
   -9.9815    0.8073   -0.4732 C   0  0  0  0  0  0  0  0  0  0  0  0
  -10.3291    0.0684   -1.5024 C   0  0  0  0  0  0  0  0  0  0  0  0
  -11.4313    0.3663   -2.3957 C   0  0  0  0  0  0  0  0  0  0  0  0
  -12.2501    1.5436   -2.0631 C   0  0  0  0  0  0  0  0  0  0  0  0
  -13.5880    1.1058   -1.8641 F   0  0  0  0  0  0  0  0  0  0  0  0
  -11.8000    2.3168   -0.9110 C   0  0  0  0  0  0  0  0  0  0  0  0
  -10.7631    1.9750   -0.1863 C   0  0  0  0  0  0  0  0  0  0  0  0
   -3.7643   -0.8698    0.6265 C   0  0  0  0  0  0  0  0  0  0  0  0
   -2.4386   -0.9505    0.1489 C   0  0  0  0  0  0  0  0  0  0  0  0
   -2.2116   -1.7494   -0.9484 F   0  0  0  0  0  0  0  0  0  0  0  0
   -0.5097    0.7093   -1.8126 C   0  0  0  0  0  0  0  0  0  0  0  0
   -0.0090    1.1263   -3.0529 C   0  0  0  0  0  0  0  0  0  0  0  0
    1.2621    0.8758   -3.3978 N   0  0  0  0  0  0  0  0  0  0  0  0
    2.1278    0.2103   -2.5731 C   0  0  0  0  0  0  0  0  0  0  0  0
    3.4219   -0.0368   -2.9428 C   0  0  0  0  0  0  0  0  0  0  0  0
    4.3056   -0.7231   -2.0866 C   0  0  0  0  0  0  0  0  0  0  0  0
    5.5434   -0.9906   -2.3747 O   0  0  0  0  0  0  0  0  0  0  0  0
    6.7666   -1.2496   -2.6706 C   0  0  0  0  0  0  0  0  0  0  0  0
    7.6637   -0.0309   -2.9366 C   0  0  0  0  0  0  0  0  0  0  0  0
    7.7387    0.8690   -1.7317 C   0  0  0  0  0  0  0  0  0  0  0  0
    8.2814    0.1493   -0.5738 N   0  0  0  0  0  0  0  0  0  0  0  0
    9.6712   -0.1102   -0.8874 C   0  0  0  0  0  0  0  0  0  0  0  0
   10.4563   -0.5360    0.3248 C   0  0  0  0  0  0  0  0  0  0  0  0
   10.3302    0.5184    1.3061 N   0  0  0  0  0  0  0  0  0  0  0  0
   11.2619    0.3531    2.4092 C   0  0  0  0  0  0  0  0  0  0  0  0
    8.9530    0.5410    1.7546 C   0  0  0  0  0  0  0  0  0  0  0  0
    8.0950    0.9600    0.5801 C   0  0  0  0  0  0  0  0  0  0  0  0
    3.2827   -2.9251    1.0805 H   0  0  0  0  0  0  0  0  0  0  0  0
    3.6337   -1.3520    1.8199 H   0  0  0  0  0  0  0  0  0  0  0  0
    4.9064   -2.5881    1.8996 H   0  0  0  0  0  0  0  0  0  0  0  0
    2.0485   -1.1854    0.4742 H   0  0  0  0  0  0  0  0  0  0  0  0
   -0.9076    0.9863    2.3687 H   0  0  0  0  0  0  0  0  0  0  0  0
   -3.2400    1.1356    3.2215 H   0  0  0  0  0  0  0  0  0  0  0  0
   -5.4900    0.6543    3.1135 H   0  0  0  0  0  0  0  0  0  0  0  0
   -6.8613    0.0338    4.4739 H   0  0  0  0  0  0  0  0  0  0  0  0
   -8.6392    0.5121    4.4436 H   0  0  0  0  0  0  0  0  0  0  0  0
   -7.4751   -2.2684    3.7570 H   0  0  0  0  0  0  0  0  0  0  0  0
   -9.2865   -1.7668    3.6019 H   0  0  0  0  0  0  0  0  0  0  0  0
   -7.9645    0.3068   -0.1841 H   0  0  0  0  0  0  0  0  0  0  0  0
   -9.7122   -0.8497   -1.6756 H   0  0  0  0  0  0  0  0  0  0  0  0
  -11.0278    0.4385   -3.4547 H   0  0  0  0  0  0  0  0  0  0  0  0
  -12.1099   -0.5473   -2.4105 H   0  0  0  0  0  0  0  0  0  0  0  0
  -12.3668    2.2191   -2.9747 H   0  0  0  0  0  0  0  0  0  0  0  0
  -12.3187    3.2373   -0.5892 H   0  0  0  0  0  0  0  0  0  0  0  0
  -10.4489    2.5836    0.6810 H   0  0  0  0  0  0  0  0  0  0  0  0
   -4.5126   -1.4111    0.0878 H   0  0  0  0  0  0  0  0  0  0  0  0
   -1.5372    0.9348   -1.5422 H   0  0  0  0  0  0  0  0  0  0  0  0
   -0.6941    1.6536   -3.7081 H   0  0  0  0  0  0  0  0  0  0  0  0
    3.8123    0.2765   -3.8873 H   0  0  0  0  0  0  0  0  0  0  0  0
    7.3805   -1.8992   -1.9782 H   0  0  0  0  0  0  0  0  0  0  0  0
    6.8532   -1.8368   -3.6515 H   0  0  0  0  0  0  0  0  0  0  0  0
    7.1759    0.5371   -3.7485 H   0  0  0  0  0  0  0  0  0  0  0  0
    8.6687   -0.3241   -3.2590 H   0  0  0  0  0  0  0  0  0  0  0  0
    6.7725    1.2908   -1.4817 H   0  0  0  0  0  0  0  0  0  0  0  0
    8.4648    1.6754   -1.9591 H   0  0  0  0  0  0  0  0  0  0  0  0
    9.6998   -0.9741   -1.5924 H   0  0  0  0  0  0  0  0  0  0  0  0
   10.1662    0.7491   -1.3328 H   0  0  0  0  0  0  0  0  0  0  0  0
   11.5169   -0.6456    0.0269 H   0  0  0  0  0  0  0  0  0  0  0  0
   10.0651   -1.4678    0.7665 H   0  0  0  0  0  0  0  0  0  0  0  0
   10.7438    0.3269    3.3824 H   0  0  0  0  0  0  0  0  0  0  0  0
   11.8849   -0.5618    2.3184 H   0  0  0  0  0  0  0  0  0  0  0  0
   11.9040    1.2835    2.4209 H   0  0  0  0  0  0  0  0  0  0  0  0
    8.6058   -0.4467    2.1392 H   0  0  0  0  0  0  0  0  0  0  0  0
    8.8788    1.3449    2.5247 H   0  0  0  0  0  0  0  0  0  0  0  0
    8.2511    2.0333    0.3637 H   0  0  0  0  0  0  0  0  0  0  0  0
    7.0362    0.8613    0.8886 H   0  0  0  0  0  0  0  0  0  0  0  0
  1  2  1  0
  2  3  1  0
  3  4  2  0
  4  5  1  0
  5  6  2  0
  6  7  1  0
  7  8  1  0
  8  9  2  0
  9 10  1  0
 10 11  2  0
 11 12  1  0
 12 13  1  0
 13 14  2  0
 13 15  1  0
 15 16  1  0
 16 17  1  0
 15 18  1  0
 18 19  2  0
 18 20  1  0
 20 21  1  0
 21 22  2  0
 22 23  1  0
 23 24  1  0
 24 25  1  0
 24 26  1  0
 26 27  2  0
 11 28  1  0
 28 29  2  0
 29 30  1  0
  6 31  1  0
 31 32  2  0
 32 33  1  0
 33 34  2  0
 34 35  1  0
 35 36  2  0
 36 37  1  0
 37 38  1  0
 38 39  1  0
 39 40  1  0
 40 41  1  0
 41 42  1  0
 42 43  1  0
 43 44  1  0
 44 45  1  0
 44 46  1  0
 46 47  1  0
 36  3  1  0
 47 41  1  0
 34  5  1  0
 29  8  1  0
 17 15  1  0
 27 21  1  0
  1 48  1  0
  1 49  1  0
  1 50  1  0
  4 51  1  0
  9 52  1  0
 10 53  1  0
 12 54  1  0
 16 55  1  0
 16 56  1  0
 17 57  1  0
 17 58  1  0
 20 59  1  0
 22 60  1  0
 23 61  1  0
 23 62  1  0
 24 63  1  0
 26 64  1  0
 27 65  1  0
 28 66  1  0
 31 67  1  0
 32 68  1  0
 35 69  1  0
 38 70  1  0
 38 71  1  0
 39 72  1  0
 39 73  1  0
 40 74  1  0
 40 75  1  0
 42 76  1  0
 42 77  1  0
 43 78  1  0
 43 79  1  0
 45 80  1  0
 45 81  1  0
 45 82  1  0
 46 83  1  0
 46 84  1  0
 47 85  1  0
 47 86  1  0
M  END
$$$$
[H]N([H])C(=O)C([H])([H])C([H])([H])[C@@]([H])(C(=O)N([H])[C@]([H])(C(=O)N([H])[C@]([H])(C(=O)N([H])[C@]([H])(C(=O)N([H])[C@]([H])(C(=O)N([H])[C@]([H])(C(=O)N([H])[C@]([H])(C(=O)N([H])[H])C([H])([H])C([H])(C([H])([H])[H])C([H])([H])[H])C([H])([H])C([H])([H])C(=O)N([H])[H])C([H])([H])C([H])([H])C(=O)N([H])[H])C([H])([H])C([H])([H])C(=O)N([H])[H])C([H])([H])C([H])([H])C(=O)N([H])[H])C([H])([H])C([H])([H])C(=O)N([H])[H])N([H])C(=O)C([H])([H])[H]
     RDKit          3D

130129  0  0  0  0  0  0  0  0999 V2000
  -11.4901    5.0637    0.3116 C   0  0  0  0  0  0  0  0  0  0  0  0
  -11.2071    3.5607    0.0561 C   0  0  0  0  0  0  0  0  0  0  0  0
  -12.5320    3.0086   -0.3982 C   0  0  0  0  0  0  0  0  0  0  0  0
  -10.7047    3.0204    1.3419 C   0  0  0  0  0  0  0  0  0  0  0  0
  -10.3216    1.5790    1.3626 C   0  0  2  0  0  0  0  0  0  0  0  0
   -9.2858    1.2648    0.4325 N   0  0  0  0  0  0  0  0  0  0  0  0
   -7.9705    0.8481    0.6447 C   0  0  0  0  0  0  0  0  0  0  0  0
   -7.5248    0.7040    1.8022 O   0  0  0  0  0  0  0  0  0  0  0  0
   -7.0607    0.5611   -0.4938 C   0  0  2  0  0  0  0  0  0  0  0  0
   -7.7076   -0.5715   -1.3376 C   0  0  0  0  0  0  0  0  0  0  0  0
   -7.8592   -1.7886   -0.4621 C   0  0  0  0  0  0  0  0  0  0  0  0
   -8.4500   -2.9193   -1.1980 C   0  0  0  0  0  0  0  0  0  0  0  0
   -8.6475   -4.1217   -0.5084 N   0  0  0  0  0  0  0  0  0  0  0  0
   -8.7526   -2.7946   -2.3910 O   0  0  0  0  0  0  0  0  0  0  0  0
   -5.7732    0.1546   -0.0921 N   0  0  0  0  0  0  0  0  0  0  0  0
   -4.5104    0.6580   -0.5340 C   0  0  0  0  0  0  0  0  0  0  0  0
   -4.4578    1.5839   -1.3296 O   0  0  0  0  0  0  0  0  0  0  0  0
   -3.3197   -0.0103    0.0077 C   0  0  2  0  0  0  0  0  0  0  0  0
   -3.2869   -0.1283    1.5052 C   0  0  0  0  0  0  0  0  0  0  0  0
   -2.0278   -0.8308    1.9570 C   0  0  0  0  0  0  0  0  0  0  0  0
   -1.9330   -0.9959    3.4150 C   0  0  0  0  0  0  0  0  0  0  0  0
   -1.2506   -2.0757    4.0515 N   0  0  0  0  0  0  0  0  0  0  0  0
   -2.4796   -0.1360    4.1588 O   0  0  0  0  0  0  0  0  0  0  0  0
   -2.0582    0.3814   -0.5251 N   0  0  0  0  0  0  0  0  0  0  0  0
   -1.2835    0.1335   -1.5953 C   0  0  0  0  0  0  0  0  0  0  0  0
   -1.5467   -0.6389   -2.5458 O   0  0  0  0  0  0  0  0  0  0  0  0
    0.0783    0.8309   -1.7137 C   0  0  2  0  0  0  0  0  0  0  0  0
    0.0601    1.8857   -2.7625 C   0  0  0  0  0  0  0  0  0  0  0  0
    1.4446    2.5726   -2.7778 C   0  0  0  0  0  0  0  0  0  0  0  0
    1.6370    3.2397   -1.4834 C   0  0  0  0  0  0  0  0  0  0  0  0
    2.8832    3.5400   -0.8686 N   0  0  0  0  0  0  0  0  0  0  0  0
    0.5773    3.5923   -0.8461 O   0  0  0  0  0  0  0  0  0  0  0  0
    1.0204   -0.2188   -2.1596 N   0  0  0  0  0  0  0  0  0  0  0  0
    2.0574   -0.6381   -1.3047 C   0  0  0  0  0  0  0  0  0  0  0  0
    2.1276   -0.0558   -0.1467 O   0  0  0  0  0  0  0  0  0  0  0  0
    3.0600   -1.6812   -1.6230 C   0  0  2  0  0  0  0  0  0  0  0  0
    2.4205   -3.0698   -1.7428 C   0  0  0  0  0  0  0  0  0  0  0  0
    3.5241   -4.0829   -2.0367 C   0  0  0  0  0  0  0  0  0  0  0  0
    2.9168   -5.4442   -2.0196 C   0  0  0  0  0  0  0  0  0  0  0  0
    3.7421   -6.5857   -1.8957 N   0  0  0  0  0  0  0  0  0  0  0  0
    1.6596   -5.5800   -2.1144 O   0  0  0  0  0  0  0  0  0  0  0  0
    4.0435   -1.7953   -0.5289 N   0  0  0  0  0  0  0  0  0  0  0  0
    5.3967   -1.4462   -0.6913 C   0  0  0  0  0  0  0  0  0  0  0  0
    5.8643   -1.0144   -1.7009 O   0  0  0  0  0  0  0  0  0  0  0  0
    6.3032   -1.6641    0.5763 C   0  0  2  0  0  0  0  0  0  0  0  0
    5.7466   -0.6764    1.5664 C   0  0  0  0  0  0  0  0  0  0  0  0
    6.2250   -0.6479    2.9375 C   0  0  0  0  0  0  0  0  0  0  0  0
    7.6302   -0.5220    3.2393 C   0  0  0  0  0  0  0  0  0  0  0  0
    8.1918    0.6656    3.7804 N   0  0  0  0  0  0  0  0  0  0  0  0
    8.4562   -1.4792    3.0387 O   0  0  0  0  0  0  0  0  0  0  0  0
    7.5716   -1.3240    0.1869 N   0  0  0  0  0  0  0  0  0  0  0  0
    8.8992   -1.4445   -0.3717 C   0  0  0  0  0  0  0  0  0  0  0  0
    9.4410   -2.3416   -0.8852 O   0  0  0  0  0  0  0  0  0  0  0  0
    9.7417   -0.1178   -0.2579 C   0  0  2  0  0  0  0  0  0  0  0  0
    9.0340    0.8406   -1.1264 C   0  0  0  0  0  0  0  0  0  0  0  0
    9.5931    2.1972   -1.2755 C   0  0  0  0  0  0  0  0  0  0  0  0
    9.6487    2.9614   -0.0282 C   0  0  0  0  0  0  0  0  0  0  0  0
   10.4003    4.1557    0.1242 N   0  0  0  0  0  0  0  0  0  0  0  0
    8.9911    2.5299    0.9562 O   0  0  0  0  0  0  0  0  0  0  0  0
   11.0421   -0.4730   -0.7695 N   0  0  0  0  0  0  0  0  0  0  0  0
   11.9997   -1.1707    0.0384 C   0  0  0  0  0  0  0  0  0  0  0  0
   13.3158   -1.4963   -0.5743 C   0  0  0  0  0  0  0  0  0  0  0  0
   11.7535   -1.4994    1.2102 O   0  0  0  0  0  0  0  0  0  0  0  0
  -11.4713    0.6772    1.2828 C   0  0  0  0  0  0  0  0  0  0  0  0
  -12.6586    0.7586    2.0107 N   0  0  0  0  0  0  0  0  0  0  0  0
  -11.3592   -0.3012    0.4419 O   0  0  0  0  0  0  0  0  0  0  0  0
  -12.3080    5.1448    1.0599 H   0  0  0  0  0  0  0  0  0  0  0  0
  -10.6121    5.5989    0.6678 H   0  0  0  0  0  0  0  0  0  0  0  0
  -11.8498    5.5303   -0.6250 H   0  0  0  0  0  0  0  0  0  0  0  0
  -10.4800    3.4835   -0.7882 H   0  0  0  0  0  0  0  0  0  0  0  0
  -12.8453    3.6695   -1.2787 H   0  0  0  0  0  0  0  0  0  0  0  0
  -12.4780    2.0027   -0.8215 H   0  0  0  0  0  0  0  0  0  0  0  0
  -13.3220    3.1318    0.3493 H   0  0  0  0  0  0  0  0  0  0  0  0
   -9.8757    3.6535    1.7703 H   0  0  0  0  0  0  0  0  0  0  0  0
  -11.5361    3.1646    2.0843 H   0  0  0  0  0  0  0  0  0  0  0  0
   -9.8632    1.4127    2.3885 H   0  0  0  0  0  0  0  0  0  0  0  0
   -9.5684    1.3766   -0.5988 H   0  0  0  0  0  0  0  0  0  0  0  0
   -7.0331    1.4312   -1.1562 H   0  0  0  0  0  0  0  0  0  0  0  0
   -8.6278   -0.1757   -1.7488 H   0  0  0  0  0  0  0  0  0  0  0  0
   -6.9929   -0.7815   -2.1402 H   0  0  0  0  0  0  0  0  0  0  0  0
   -8.6091   -1.5740    0.3690 H   0  0  0  0  0  0  0  0  0  0  0  0
   -6.8703   -2.0887   -0.0585 H   0  0  0  0  0  0  0  0  0  0  0  0
   -9.6058   -4.3337   -0.0906 H   0  0  0  0  0  0  0  0  0  0  0  0
   -7.9312   -4.8678   -0.3513 H   0  0  0  0  0  0  0  0  0  0  0  0
   -5.7392   -0.6145    0.6418 H   0  0  0  0  0  0  0  0  0  0  0  0
   -3.4677   -1.1049   -0.3774 H   0  0  0  0  0  0  0  0  0  0  0  0
   -4.1479   -0.6918    1.8939 H   0  0  0  0  0  0  0  0  0  0  0  0
   -3.2859    0.8859    1.9517 H   0  0  0  0  0  0  0  0  0  0  0  0
   -1.8499   -1.7689    1.4048 H   0  0  0  0  0  0  0  0  0  0  0  0
   -1.1444   -0.1699    1.6851 H   0  0  0  0  0  0  0  0  0  0  0  0
   -1.5357   -2.3842    5.0093 H   0  0  0  0  0  0  0  0  0  0  0  0
   -0.4633   -2.5830    3.5854 H   0  0  0  0  0  0  0  0  0  0  0  0
   -1.5529    1.1356    0.1846 H   0  0  0  0  0  0  0  0  0  0  0  0
    0.3350    1.2059   -0.7181 H   0  0  0  0  0  0  0  0  0  0  0  0
   -0.7062    2.6668   -2.5811 H   0  0  0  0  0  0  0  0  0  0  0  0
   -0.0390    1.4443   -3.8040 H   0  0  0  0  0  0  0  0  0  0  0  0
    1.4405    3.2439   -3.6386 H   0  0  0  0  0  0  0  0  0  0  0  0
    2.2249    1.7818   -2.9784 H   0  0  0  0  0  0  0  0  0  0  0  0
    2.8618    4.0596    0.0367 H   0  0  0  0  0  0  0  0  0  0  0  0
    3.7961    3.2575   -1.2709 H   0  0  0  0  0  0  0  0  0  0  0  0
    0.8978   -0.6233   -3.0835 H   0  0  0  0  0  0  0  0  0  0  0  0
    3.5712   -1.4495   -2.5386 H   0  0  0  0  0  0  0  0  0  0  0  0
    1.8816   -3.2818   -0.8223 H   0  0  0  0  0  0  0  0  0  0  0  0
    1.7598   -3.0666   -2.6214 H   0  0  0  0  0  0  0  0  0  0  0  0
    3.9098   -3.9252   -3.0970 H   0  0  0  0  0  0  0  0  0  0  0  0
    4.4019   -3.9757   -1.3811 H   0  0  0  0  0  0  0  0  0  0  0  0
    3.7583   -7.3966   -2.5506 H   0  0  0  0  0  0  0  0  0  0  0  0
    4.4005   -6.6095   -1.0705 H   0  0  0  0  0  0  0  0  0  0  0  0
    3.6942   -2.1373    0.3756 H   0  0  0  0  0  0  0  0  0  0  0  0
    6.0025   -2.6661    0.8604 H   0  0  0  0  0  0  0  0  0  0  0  0
    4.6226   -0.8148    1.5723 H   0  0  0  0  0  0  0  0  0  0  0  0
    5.8500    0.3702    1.1247 H   0  0  0  0  0  0  0  0  0  0  0  0
    5.6421    0.1215    3.5701 H   0  0  0  0  0  0  0  0  0  0  0  0
    5.8685   -1.6147    3.4756 H   0  0  0  0  0  0  0  0  0  0  0  0
    7.7841    1.2343    4.5321 H   0  0  0  0  0  0  0  0  0  0  0  0
    9.1229    0.9741    3.3464 H   0  0  0  0  0  0  0  0  0  0  0  0
    7.5339   -2.7085   -0.3180 H   0  0  0  0  0  0  0  0  0  0  0  0
    9.7785    0.0993    0.8085 H   0  0  0  0  0  0  0  0  0  0  0  0
    7.9934    0.9775   -0.6605 H   0  0  0  0  0  0  0  0  0  0  0  0
    8.8065    0.3484   -2.1014 H   0  0  0  0  0  0  0  0  0  0  0  0
    8.8883    2.7562   -1.9634 H   0  0  0  0  0  0  0  0  0  0  0  0
   10.5599    2.2268   -1.8430 H   0  0  0  0  0  0  0  0  0  0  0  0
   10.1633    5.0317   -0.4032 H   0  0  0  0  0  0  0  0  0  0  0  0
   11.1904    4.1645    0.7783 H   0  0  0  0  0  0  0  0  0  0  0  0
   11.3440   -0.2237   -1.7504 H   0  0  0  0  0  0  0  0  0  0  0  0
   13.7693   -2.4002   -0.1364 H   0  0  0  0  0  0  0  0  0  0  0  0
   13.9982   -0.6123   -0.5374 H   0  0  0  0  0  0  0  0  0  0  0  0
   13.1880   -1.6994   -1.6691 H   0  0  0  0  0  0  0  0  0  0  0  0
  -12.6707    0.8436    3.0363 H   0  0  0  0  0  0  0  0  0  0  0  0
  -13.5954    0.7270    1.5083 H   0  0  0  0  0  0  0  0  0  0  0  0
  1  2  1  0
  2  3  1  0
  2  4  1  0
  4  5  1  0
  5  6  1  0
  6  7  1  0
  7  8  2  0
  7  9  1  0
  9 10  1  0
 10 11  1  0
 11 12  1  0
 12 13  1  0
 12 14  2  0
  9 15  1  0
 15 16  1  0
 16 17  2  0
 16 18  1  0
 18 19  1  0
 19 20  1  0
 20 21  1  0
 21 22  1  0
 21 23  2  0
 18 24  1  0
 24 25  1  0
 25 26  2  0
 25 27  1  0
 27 28  1  0
 28 29  1  0
 29 30  1  0
 30 31  1  0
 30 32  2  0
 27 33  1  0
 33 34  1  0
 34 35  2  0
 34 36  1  0
 36 37  1  0
 37 38  1  0
 38 39  1  0
 39 40  1  0
 39 41  2  0
 36 42  1  0
 42 43  1  0
 43 44  2  0
 43 45  1  0
 45 46  1  0
 46 47  1  0
 47 48  1  0
 48 49  1  0
 48 50  2  0
 45 51  1  0
 51 52  1  0
 52 53  2  0
 52 54  1  0
 54 55  1  0
 55 56  1  0
 56 57  1  0
 57 58  1  0
 57 59  2  0
 54 60  1  0
 60 61  1  0
 61 62  1  0
 61 63  2  0
  5 64  1  0
 64 65  1  0
 64 66  2  0
  1 67  1  0
  1 68  1  0
  1 69  1  0
  2 70  1  0
  3 71  1  0
  3 72  1  0
  3 73  1  0
  4 74  1  0
  4 75  1  0
  5 76  1  1
  6 77  1  0
  9 78  1  6
 10 79  1  0
 10 80  1  0
 11 81  1  0
 11 82  1  0
 13 83  1  0
 13 84  1  0
 15 85  1  0
 18 86  1  6
 19 87  1  0
 19 88  1  0
 20 89  1  0
 20 90  1  0
 22 91  1  0
 22 92  1  0
 24 93  1  0
 27 94  1  1
 28 95  1  0
 28 96  1  0
 29 97  1  0
 29 98  1  0
 31 99  1  0
 31100  1  0
 33101  1  0
 36102  1  6
 37103  1  0
 37104  1  0
 38105  1  0
 38106  1  0
 40107  1  0
 40108  1  0
 42109  1  0
 45110  1  1
 46111  1  0
 46112  1  0
 47113  1  0
 47114  1  0
 49115  1  0
 49116  1  0
 51117  1  0
 54118  1  1
 55119  1  0
 55120  1  0
 56121  1  0
 56122  1  0
 58123  1  0
 58124  1  0
 60125  1  0
 62126  1  0
 62127  1  0
 62128  1  0
 65129  1  0
 65130  1  0
M  END
$$$$
[H]c1c([H])c(C([H])([H])N2C([H])([H])C([H])([H])N(C([H])([H])[H])C([H])([H])C2([H])[H])c(C(F)(F)F)c([H])c1C(=O)N([H])c1c([H])c([H])c(C([H])([H])[H])c(C(F)(F)F)c1[H]
     RDKit          3D

 55 57  0  0  0  0  0  0  0  0999 V2000
   -8.2125    0.9738    0.1773 C   0  0  0  0  0  0  0  0  0  0  0  0
   -6.9972    0.5136    0.8441 N   0  0  0  0  0  0  0  0  0  0  0  0
   -5.9291    1.4440    0.6981 C   0  0  0  0  0  0  0  0  0  0  0  0
   -4.6583    0.6590    1.1675 C   0  0  0  0  0  0  0  0  0  0  0  0
   -4.3528   -0.1537    0.1374 N   0  0  0  0  0  0  0  0  0  0  0  0
   -3.2136   -0.7754   -0.2326 C   0  0  0  0  0  0  0  0  0  0  0  0
   -1.8467   -0.4203   -0.0572 C   0  0  0  0  0  0  0  0  0  0  0  0
   -1.1385   -0.4132    1.1480 C   0  0  0  0  0  0  0  0  0  0  0  0
    0.2729   -0.5160    1.1458 C   0  0  0  0  0  0  0  0  0  0  0  0
    0.9885   -0.6185    0.0008 C   0  0  0  0  0  0  0  0  0  0  0  0
    0.2847   -0.6047   -1.2105 C   0  0  0  0  0  0  0  0  0  0  0  0
   -1.0486   -0.5095   -1.2207 C   0  0  0  0  0  0  0  0  0  0  0  0
   -1.7873   -0.2915   -2.5106 C   0  0  0  0  0  0  0  0  0  0  0  0
   -2.6423   -1.2191   -2.8984 F   0  0  0  0  0  0  0  0  0  0  0  0
   -0.9002    0.0057   -3.5036 F   0  0  0  0  0  0  0  0  0  0  0  0
   -2.4506    0.9720   -2.3366 F   0  0  0  0  0  0  0  0  0  0  0  0
    2.4014   -0.8462   -0.1487 C   0  0  0  0  0  0  0  0  0  0  0  0
    2.7637   -1.8429   -0.9427 O   0  0  0  0  0  0  0  0  0  0  0  0
    3.3335   -0.1112    0.4637 N   0  0  0  0  0  0  0  0  0  0  0  0
    4.7729   -0.2068    0.4583 C   0  0  0  0  0  0  0  0  0  0  0  0
    5.3698   -0.5988    1.6309 C   0  0  0  0  0  0  0  0  0  0  0  0
    6.7247   -0.4508    1.8222 C   0  0  0  0  0  0  0  0  0  0  0  0
    7.5500    0.1117    0.8384 C   0  0  0  0  0  0  0  0  0  0  0  0
    8.9473    0.4590    1.0691 C   0  0  0  0  0  0  0  0  0  0  0  0
    6.9009    0.4934   -0.3519 C   0  0  0  0  0  0  0  0  0  0  0  0
    5.5522    0.3383   -0.5389 C   0  0  0  0  0  0  0  0  0  0  0  0
    7.6745    1.1777   -1.4296 C   0  0  0  0  0  0  0  0  0  0  0  0
    8.8117    0.5619   -1.8208 F   0  0  0  0  0  0  0  0  0  0  0  0
    6.8002    1.0052   -2.6051 F   0  0  0  0  0  0  0  0  0  0  0  0
    7.7040    2.5264   -1.2659 F   0  0  0  0  0  0  0  0  0  0  0  0
   -5.5092   -0.9211   -0.4392 C   0  0  0  0  0  0  0  0  0  0  0  0
   -6.6943   -0.8328    0.4115 C   0  0  0  0  0  0  0  0  0  0  0  0
   -9.0228    0.2985    0.5717 H   0  0  0  0  0  0  0  0  0  0  0  0
   -8.4331    1.9893    0.5013 H   0  0  0  0  0  0  0  0  0  0  0  0
   -8.1292    0.7941   -0.8994 H   0  0  0  0  0  0  0  0  0  0  0  0
   -6.0331    2.3822    1.2051 H   0  0  0  0  0  0  0  0  0  0  0  0
   -5.6679    1.6338   -0.3920 H   0  0  0  0  0  0  0  0  0  0  0  0
   -4.8592    0.2899    2.1861 H   0  0  0  0  0  0  0  0  0  0  0  0
   -3.8358    1.4708    1.2635 H   0  0  0  0  0  0  0  0  0  0  0  0
   -3.3910   -1.7003   -0.9216 H   0  0  0  0  0  0  0  0  0  0  0  0
   -3.2516   -1.6170    0.7765 H   0  0  0  0  0  0  0  0  0  0  0  0
   -1.6969   -0.3573    2.0644 H   0  0  0  0  0  0  0  0  0  0  0  0
    0.8219   -0.5139    2.1041 H   0  0  0  0  0  0  0  0  0  0  0  0
    0.9393   -0.6396   -2.0927 H   0  0  0  0  0  0  0  0  0  0  0  0
    3.0377    0.8170    1.0595 H   0  0  0  0  0  0  0  0  0  0  0  0
    4.7039   -1.0565    2.4230 H   0  0  0  0  0  0  0  0  0  0  0  0
    7.1853   -0.7839    2.7692 H   0  0  0  0  0  0  0  0  0  0  0  0
    9.7225   -0.2480    0.7264 H   0  0  0  0  0  0  0  0  0  0  0  0
    9.1460    1.5054    0.5956 H   0  0  0  0  0  0  0  0  0  0  0  0
    9.1155    0.6242    2.1777 H   0  0  0  0  0  0  0  0  0  0  0  0
    5.0558    0.6290   -1.4631 H   0  0  0  0  0  0  0  0  0  0  0  0
   -5.5795   -0.7287   -1.4938 H   0  0  0  0  0  0  0  0  0  0  0  0
   -5.1174   -1.9879   -0.3587 H   0  0  0  0  0  0  0  0  0  0  0  0
   -6.6208   -1.5032    1.3225 H   0  0  0  0  0  0  0  0  0  0  0  0
   -7.5616   -1.2075   -0.1620 H   0  0  0  0  0  0  0  0  0  0  0  0
  1  2  1  0
  2  3  1  0
  3  4  1  0
  4  5  1  0
  5  6  1  0
  6  7  1  0
  7  8  2  0
  8  9  1  0
  9 10  2  0
 10 11  1  0
 11 12  2  0
 12 13  1  0
 13 14  1  0
 13 15  1  0
 13 16  1  0
 10 17  1  0
 17 18  2  0
 17 19  1  0
 19 20  1  0
 20 21  2  0
 21 22  1  0
 22 23  2  0
 23 24  1  0
 23 25  1  0
 25 26  2  0
 25 27  1  0
 27 28  1  0
 27 29  1  0
 27 30  1  0
  5 31  1  0
 31 32  1  0
 32  2  1  0
 12  7  1  0
 26 20  1  0
  1 33  1  0
  1 34  1  0
  1 35  1  0
  3 36  1  0
  3 37  1  0
  4 38  1  0
  4 39  1  0
  6 40  1  0
  6 41  1  0
  8 42  1  0
  9 43  1  0
 11 44  1  0
 19 45  1  0
 21 46  1  0
 22 47  1  0
 24 48  1  0
 24 49  1  0
 24 50  1  0
 26 51  1  0
 31 52  1  0
 31 53  1  0
 32 54  1  0
 32 55  1  0
M  END
$$$$
[H]Oc1c([H])c([H])c(C([H])([H])[C@@]([H])(C(=O)N2C([H])([H])C([H])([H])C([H])([H])[C@@]2([H])C(=O)N([H])C([H])([H])C(=O)N([H])[C@]([H])(C(=O)N([H])[C@]([H])(C(=O)N([H])[C@]([H])(C(=O)N([H])[H])C([H])([H])c2c([H])n([H])c3c([H])c([H])c([H])c([H])c23)C([H])([H])C([H])(C([H])([H])[H])C([H])([H])[H])C([H])([H])c2c([H])c([H])c([H])c([H])c2[H])N([H])[H])c([H])c1[H]
     RDKit          3D

109113  0  0  0  0  0  0  0  0999 V2000
   -0.8329    3.8007    2.2141 C   0  0  0  0  0  0  0  0  0  0  0  0
   -1.8301    2.6189    2.0402 C   0  0  0  0  0  0  0  0  0  0  0  0
   -3.1937    3.1426    2.3132 C   0  0  0  0  0  0  0  0  0  0  0  0
   -1.5490    2.0532    0.7192 C   0  0  0  0  0  0  0  0  0  0  0  0
   -2.2436    0.8951    0.1674 C   0  0  2  0  0  0  0  0  0  0  0  0
   -1.5946    0.6478   -1.2045 N   0  0  0  0  0  0  0  0  0  0  0  0
   -0.5929   -0.2944   -1.2988 C   0  0  0  0  0  0  0  0  0  0  0  0
   -0.2791   -0.8889   -0.1838 O   0  0  0  0  0  0  0  0  0  0  0  0
    0.1752   -0.7326   -2.4544 C   0  0  2  0  0  0  0  0  0  0  0  0
   -0.6588   -1.7028   -3.3361 C   0  0  0  0  0  0  0  0  0  0  0  0
   -1.8877   -1.1308   -3.8788 C   0  0  0  0  0  0  0  0  0  0  0  0
   -3.1032   -1.3121   -3.2620 C   0  0  0  0  0  0  0  0  0  0  0  0
   -4.2706   -0.7759   -3.8192 C   0  0  0  0  0  0  0  0  0  0  0  0
   -4.2437   -0.0568   -4.9904 C   0  0  0  0  0  0  0  0  0  0  0  0
   -3.0193    0.1263   -5.6114 C   0  0  0  0  0  0  0  0  0  0  0  0
   -1.9000   -0.4069   -5.0452 C   0  0  0  0  0  0  0  0  0  0  0  0
    1.3418   -1.5149   -2.0094 N   0  0  0  0  0  0  0  0  0  0  0  0
    2.3053   -2.1022   -2.8496 C   0  0  0  0  0  0  0  0  0  0  0  0
    2.2276   -1.9987   -4.0836 O   0  0  0  0  0  0  0  0  0  0  0  0
    3.4594   -2.8928   -2.3189 C   0  0  0  0  0  0  0  0  0  0  0  0
    3.5462   -2.6892   -0.8510 N   0  0  0  0  0  0  0  0  0  0  0  0
    3.9746   -1.3789   -0.4173 C   0  0  0  0  0  0  0  0  0  0  0  0
    4.2790   -0.5199   -1.3248 O   0  0  0  0  0  0  0  0  0  0  0  0
    4.0771   -0.9818    0.9635 C   0  0  2  0  0  0  0  0  0  0  0  0
    3.1400    0.2680    1.1974 C   0  0  0  0  0  0  0  0  0  0  0  0
    3.9872    1.4061    0.6646 C   0  0  0  0  0  0  0  0  0  0  0  0
    5.4074    0.9297    0.7819 C   0  0  0  0  0  0  0  0  0  0  0  0
    5.3044   -0.3588    1.3928 N   0  0  0  0  0  0  0  0  0  0  0  0
    6.2245   -0.9657    2.3015 C   0  0  0  0  0  0  0  0  0  0  0  0
    5.9447   -2.1316    2.7540 O   0  0  0  0  0  0  0  0  0  0  0  0
    7.4734   -0.3704    2.7731 C   0  0  1  0  0  0  0  0  0  0  0  0
    8.0343   -1.1633    3.8319 N   0  0  0  0  0  0  0  0  0  0  0  0
    8.5017   -0.3966    1.6181 C   0  0  0  0  0  0  0  0  0  0  0  0
    9.7868    0.2011    2.1324 C   0  0  0  0  0  0  0  0  0  0  0  0
   10.7198   -0.6437    2.7042 C   0  0  0  0  0  0  0  0  0  0  0  0
   11.8743   -0.0587    3.2009 C   0  0  0  0  0  0  0  0  0  0  0  0
   12.0805    1.3107    3.1244 C   0  0  0  0  0  0  0  0  0  0  0  0
   13.2678    1.8162    3.6535 O   0  0  0  0  0  0  0  0  0  0  0  0
   11.1465    2.1041    2.5573 C   0  0  0  0  0  0  0  0  0  0  0  0
    9.9651    1.5406    2.0444 C   0  0  0  0  0  0  0  0  0  0  0  0
   -3.6769    0.8324   -0.0483 C   0  0  0  0  0  0  0  0  0  0  0  0
   -4.1377    1.4712   -1.0694 O   0  0  0  0  0  0  0  0  0  0  0  0
   -4.5993    0.1221    0.7372 N   0  0  0  0  0  0  0  0  0  0  0  0
   -6.0195   -0.0253    0.4908 C   0  0  1  0  0  0  0  0  0  0  0  0
   -6.3705   -1.4892    0.4040 C   0  0  0  0  0  0  0  0  0  0  0  0
   -7.7397   -1.8704    0.1972 C   0  0  0  0  0  0  0  0  0  0  0  0
   -8.5227   -2.4867    1.1654 C   0  0  0  0  0  0  0  0  0  0  0  0
   -9.7206   -2.7831    0.6737 N   0  0  0  0  0  0  0  0  0  0  0  0
   -9.7316   -2.3607   -0.6207 C   0  0  0  0  0  0  0  0  0  0  0  0
  -10.7543   -2.4418   -1.5710 C   0  0  0  0  0  0  0  0  0  0  0  0
  -10.5300   -1.9403   -2.8363 C   0  0  0  0  0  0  0  0  0  0  0  0
   -9.3175   -1.3782   -3.1355 C   0  0  0  0  0  0  0  0  0  0  0  0
   -8.2914   -1.2868   -2.2157 C   0  0  0  0  0  0  0  0  0  0  0  0
   -8.5188   -1.7908   -0.9424 C   0  0  0  0  0  0  0  0  0  0  0  0
   -6.8289    0.7656    1.4019 C   0  0  0  0  0  0  0  0  0  0  0  0
   -8.2569    0.8273    1.2215 N   0  0  0  0  0  0  0  0  0  0  0  0
   -6.3075    1.3996    2.3399 O   0  0  0  0  0  0  0  0  0  0  0  0
   -0.6853    3.9415    3.2921 H   0  0  0  0  0  0  0  0  0  0  0  0
    0.0867    3.5761    1.6816 H   0  0  0  0  0  0  0  0  0  0  0  0
   -1.3410    4.7212    1.8178 H   0  0  0  0  0  0  0  0  0  0  0  0
   -1.5713    1.9204    2.8877 H   0  0  0  0  0  0  0  0  0  0  0  0
   -3.1405    4.1674    2.7915 H   0  0  0  0  0  0  0  0  0  0  0  0
   -3.8017    2.4620    2.9509 H   0  0  0  0  0  0  0  0  0  0  0  0
   -3.7413    3.2792    1.3671 H   0  0  0  0  0  0  0  0  0  0  0  0
   -0.4310    1.7635    0.7431 H   0  0  0  0  0  0  0  0  0  0  0  0
   -1.5348    2.8682   -0.0925 H   0  0  0  0  0  0  0  0  0  0  0  0
   -1.9210   -0.0179    0.7347 H   0  0  0  0  0  0  0  0  0  0  0  0
   -1.9436    1.2091   -1.9745 H   0  0  0  0  0  0  0  0  0  0  0  0
    0.5342   -0.0052   -3.1723 H   0  0  0  0  0  0  0  0  0  0  0  0
   -0.0433   -2.1587   -4.1225 H   0  0  0  0  0  0  0  0  0  0  0  0
   -0.9819   -2.5702   -2.6624 H   0  0  0  0  0  0  0  0  0  0  0  0
   -3.2350   -1.8515   -2.3423 H   0  0  0  0  0  0  0  0  0  0  0  0
   -5.2066   -0.9316   -3.3232 H   0  0  0  0  0  0  0  0  0  0  0  0
   -5.1516    0.3667   -5.4367 H   0  0  0  0  0  0  0  0  0  0  0  0
   -2.9892    0.6846   -6.5292 H   0  0  0  0  0  0  0  0  0  0  0  0
   -0.9384   -0.2699   -5.5242 H   0  0  0  0  0  0  0  0  0  0  0  0
    1.4374   -1.6472   -0.9630 H   0  0  0  0  0  0  0  0  0  0  0  0
    3.4031   -3.9552   -2.5025 H   0  0  0  0  0  0  0  0  0  0  0  0
    4.4170   -2.5279   -2.7310 H   0  0  0  0  0  0  0  0  0  0  0  0
    3.2969   -3.4678   -0.2483 H   0  0  0  0  0  0  0  0  0  0  0  0
    3.7190   -1.7129    1.6872 H   0  0  0  0  0  0  0  0  0  0  0  0
    2.9763    0.3557    2.2754 H   0  0  0  0  0  0  0  0  0  0  0  0
    2.2593    0.1040    0.5757 H   0  0  0  0  0  0  0  0  0  0  0  0
    3.7880    2.3404    1.2441 H   0  0  0  0  0  0  0  0  0  0  0  0
    3.7339    1.6038   -0.4066 H   0  0  0  0  0  0  0  0  0  0  0  0
    5.9768    0.9458   -0.1724 H   0  0  0  0  0  0  0  0  0  0  0  0
    5.9569    1.6232    1.4806 H   0  0  0  0  0  0  0  0  0  0  0  0
    7.4067    0.7180    3.0255 H   0  0  0  0  0  0  0  0  0  0  0  0
    7.3548   -1.7754    4.3015 H   0  0  0  0  0  0  0  0  0  0  0  0
    8.4669   -0.5360    4.5389 H   0  0  0  0  0  0  0  0  0  0  0  0
    8.1670    0.2545    0.8018 H   0  0  0  0  0  0  0  0  0  0  0  0
    8.6644   -1.4140    1.2632 H   0  0  0  0  0  0  0  0  0  0  0  0
   10.6038   -1.6952    2.7778 H   0  0  0  0  0  0  0  0  0  0  0  0
   12.5941   -0.7013    3.6371 H   0  0  0  0  0  0  0  0  0  0  0  0
   13.4035    2.8219    3.5959 H   0  0  0  0  0  0  0  0  0  0  0  0
   11.3104    3.1725    2.5036 H   0  0  0  0  0  0  0  0  0  0  0  0
    9.2809    2.2415    1.6097 H   0  0  0  0  0  0  0  0  0  0  0  0
   -4.2158   -0.3548    1.5808 H   0  0  0  0  0  0  0  0  0  0  0  0
   -6.1856    0.3788   -0.5612 H   0  0  0  0  0  0  0  0  0  0  0  0
   -5.7374   -1.9456   -0.4148 H   0  0  0  0  0  0  0  0  0  0  0  0
   -5.9773   -1.9317    1.3704 H   0  0  0  0  0  0  0  0  0  0  0  0
   -8.2081   -2.7087    2.2047 H   0  0  0  0  0  0  0  0  0  0  0  0
  -10.5272   -3.2494    1.1473 H   0  0  0  0  0  0  0  0  0  0  0  0
  -11.6905   -2.8902   -1.3163 H   0  0  0  0  0  0  0  0  0  0  0  0
  -11.3441   -2.0192   -3.5471 H   0  0  0  0  0  0  0  0  0  0  0  0
   -9.1553   -0.9737   -4.1380 H   0  0  0  0  0  0  0  0  0  0  0  0
   -7.3385   -0.8507   -2.4180 H   0  0  0  0  0  0  0  0  0  0  0  0
   -8.8694    0.6291    2.0118 H   0  0  0  0  0  0  0  0  0  0  0  0
   -8.6530    1.0674    0.2960 H   0  0  0  0  0  0  0  0  0  0  0  0
  1  2  1  0
  2  3  1  0
  2  4  1  0
  4  5  1  0
  5  6  1  0
  6  7  1  0
  7  8  2  0
  7  9  1  0
  9 10  1  0
 10 11  1  0
 11 12  2  0
 12 13  1  0
 13 14  2  0
 14 15  1  0
 15 16  2  0
  9 17  1  0
 17 18  1  0
 18 19  2  0
 18 20  1  0
 20 21  1  0
 21 22  1  0
 22 23  2  0
 22 24  1  0
 24 25  1  0
 25 26  1  0
 26 27  1  0
 27 28  1  0
 28 29  1  0
 29 30  2  0
 29 31  1  0
 31 32  1  0
 31 33  1  0
 33 34  1  0
 34 35  2  0
 35 36  1  0
 36 37  2  0
 37 38  1  0
 37 39  1  0
 39 40  2  0
  5 41  1  0
 41 42  2  0
 41 43  1  0
 43 44  1  0
 44 45  1  0
 45 46  1  0
 46 47  2  0
 47 48  1  0
 48 49  1  0
 49 50  2  0
 50 51  1  0
 51 52  2  0
 52 53  1  0
 53 54  2  0
 44 55  1  0
 55 56  1  0
 55 57  2  0
 16 11  1  0
 28 24  1  0
 40 34  1  0
 54 46  1  0
 54 49  1  0
  1 58  1  0
  1 59  1  0
  1 60  1  0
  2 61  1  0
  3 62  1  0
  3 63  1  0
  3 64  1  0
  4 65  1  0
  4 66  1  0
  5 67  1  1
  6 68  1  0
  9 69  1  6
 10 70  1  0
 10 71  1  0
 12 72  1  0
 13 73  1  0
 14 74  1  0
 15 75  1  0
 16 76  1  0
 17 77  1  0
 20 78  1  0
 20 79  1  0
 21 80  1  0
 24 81  1  1
 25 82  1  0
 25 83  1  0
 26 84  1  0
 26 85  1  0
 27 86  1  0
 27 87  1  0
 31 88  1  1
 32 89  1  0
 32 90  1  0
 33 91  1  0
 33 92  1  0
 35 93  1  0
 36 94  1  0
 38 95  1  0
 39 96  1  0
 40 97  1  0
 43 98  1  0
 44 99  1  6
 45100  1  0
 45101  1  0
 47102  1  0
 48103  1  0
 50104  1  0
 51105  1  0
 52106  1  0
 53107  1  0
 56108  1  0
 56109  1  0
M  END
$$$$
[H]OC([H])([H])[C@@]1(O[H])C([H])([H])[C@@]2([H])O[C@]1(C([H])([H])[H])n1c3c([H])c([H])c([H])c([H])c3c3c4c(c5c6c([H])c([H])c([H])c([H])c6n2c5c31)C(=O)N([H])C4([H])[H]
     RDKit          3D

 54 61  0  0  0  0  0  0  0  0999 V2000
    3.1800    0.8838    1.3878 C   0  0  0  0  0  0  0  0  0  0  0  0
    2.1176    0.2237    0.5774 C   0  0  2  0  0  0  0  0  0  0  0  0
    1.6968   -0.7870    1.4854 O   0  0  0  0  0  0  0  0  0  0  0  0
    1.2511   -1.8639    0.7986 C   0  0  2  0  0  0  0  0  0  0  0  0
    2.0328   -1.9517   -0.4419 C   0  0  0  0  0  0  0  0  0  0  0  0
    2.6347   -0.5714   -0.5849 C   0  0  1  0  0  0  0  0  0  0  0  0
    2.2138   -0.0799   -1.8115 O   0  0  0  0  0  0  0  0  0  0  0  0
    4.1191   -0.7109   -0.6110 C   0  0  0  0  0  0  0  0  0  0  0  0
    4.4589   -1.5975   -1.6334 O   0  0  0  0  0  0  0  0  0  0  0  0
   -0.2014   -1.7853    0.5955 N   0  0  0  0  0  0  0  0  0  0  0  0
   -1.1044   -2.7499    0.6347 C   0  0  0  0  0  0  0  0  0  0  0  0
   -0.9179   -4.0868    0.8734 C   0  0  0  0  0  0  0  0  0  0  0  0
   -2.0299   -4.9199    0.8648 C   0  0  0  0  0  0  0  0  0  0  0  0
   -3.2823   -4.4161    0.6235 C   0  0  0  0  0  0  0  0  0  0  0  0
   -3.4758   -3.0511    0.3794 C   0  0  0  0  0  0  0  0  0  0  0  0
   -2.3768   -2.2421    0.3902 C   0  0  0  0  0  0  0  0  0  0  0  0
   -2.2053   -0.8905    0.1945 C   0  0  0  0  0  0  0  0  0  0  0  0
   -3.0670    0.1511   -0.0975 C   0  0  0  0  0  0  0  0  0  0  0  0
   -4.5001    0.2660   -0.2996 C   0  0  0  0  0  0  0  0  0  0  0  0
   -5.3884   -0.5871   -0.2658 O   0  0  0  0  0  0  0  0  0  0  0  0
   -4.7851    1.6416   -0.5724 N   0  0  0  0  0  0  0  0  0  0  0  0
   -3.5735    2.4248   -0.5610 C   0  0  0  0  0  0  0  0  0  0  0  0
   -2.5314    1.4168   -0.2472 C   0  0  0  0  0  0  0  0  0  0  0  0
   -1.1701    1.6669   -0.1133 C   0  0  0  0  0  0  0  0  0  0  0  0
   -0.3770    2.7657   -0.2198 C   0  0  0  0  0  0  0  0  0  0  0  0
   -0.7006    4.0705   -0.5126 C   0  0  0  0  0  0  0  0  0  0  0  0
    0.3203    5.0230   -0.5829 C   0  0  0  0  0  0  0  0  0  0  0  0
    1.6233    4.6180   -0.3553 C   0  0  0  0  0  0  0  0  0  0  0  0
    1.9232    3.2989   -0.0625 C   0  0  0  0  0  0  0  0  0  0  0  0
    0.9354    2.3466    0.0129 C   0  0  0  0  0  0  0  0  0  0  0  0
    0.9590    1.0103    0.2643 N   0  0  0  0  0  0  0  0  0  0  0  0
   -0.3578    0.6223    0.1746 C   0  0  0  0  0  0  0  0  0  0  0  0
   -0.8544   -0.6533    0.3299 C   0  0  0  0  0  0  0  0  0  0  0  0
    4.0624    1.2462    0.8471 H   0  0  0  0  0  0  0  0  0  0  0  0
    3.5596    0.1949    2.1815 H   0  0  0  0  0  0  0  0  0  0  0  0
    2.7312    1.7230    1.9466 H   0  0  0  0  0  0  0  0  0  0  0  0
    1.4219   -2.7643    1.4120 H   0  0  0  0  0  0  0  0  0  0  0  0
    1.4720   -2.2700   -1.3403 H   0  0  0  0  0  0  0  0  0  0  0  0
    2.8377   -2.7359   -0.3258 H   0  0  0  0  0  0  0  0  0  0  0  0
    2.8799   -0.3390   -2.4928 H   0  0  0  0  0  0  0  0  0  0  0  0
    4.5238   -1.1579    0.3296 H   0  0  0  0  0  0  0  0  0  0  0  0
    4.6358    0.2581   -0.8438 H   0  0  0  0  0  0  0  0  0  0  0  0
    4.7979   -2.4633   -1.2908 H   0  0  0  0  0  0  0  0  0  0  0  0
    0.0592   -4.4684    1.0598 H   0  0  0  0  0  0  0  0  0  0  0  0
   -1.8569   -5.9719    1.0560 H   0  0  0  0  0  0  0  0  0  0  0  0
   -4.1224   -5.0759    0.6219 H   0  0  0  0  0  0  0  0  0  0  0  0
   -4.4721   -2.7398    0.2018 H   0  0  0  0  0  0  0  0  0  0  0  0
   -5.7336    2.0654   -0.7610 H   0  0  0  0  0  0  0  0  0  0  0  0
   -3.6366    3.2333    0.1993 H   0  0  0  0  0  0  0  0  0  0  0  0
   -3.3846    2.8954   -1.5673 H   0  0  0  0  0  0  0  0  0  0  0  0
   -1.7294    4.3700   -0.6881 H   0  0  0  0  0  0  0  0  0  0  0  0
    0.0587    6.0490   -0.8135 H   0  0  0  0  0  0  0  0  0  0  0  0
    2.3774    5.3965   -0.4223 H   0  0  0  0  0  0  0  0  0  0  0  0
    2.9510    3.0689    0.0761 H   0  0  0  0  0  0  0  0  0  0  0  0
  2  1  1  1
  2  3  1  0
  3  4  1  0
  4  5  1  0
  5  6  1  0
  6  7  1  6
  6  8  1  0
  8  9  1  0
  4 10  1  0
 10 11  1  0
 11 12  2  0
 12 13  1  0
 13 14  2  0
 14 15  1  0
 15 16  2  0
 16 17  1  0
 17 18  2  0
 18 19  1  0
 19 20  2  0
 19 21  1  0
 21 22  1  0
 22 23  1  0
 23 24  2  0
 24 25  1  0
 25 26  2  0
 26 27  1  0
 27 28  2  0
 28 29  1  0
 29 30  2  0
 30 31  1  0
 31 32  1  0
 32 33  2  0
  6  2  1  0
 33 10  1  0
 31  2  1  0
 16 11  1  0
 33 17  1  0
 23 18  1  0
 32 24  1  0
 30 25  1  0
  1 34  1  0
  1 35  1  0
  1 36  1  0
  4 37  1  1
  5 38  1  0
  5 39  1  0
  7 40  1  0
  8 41  1  0
  8 42  1  0
  9 43  1  0
 12 44  1  0
 13 45  1  0
 14 46  1  0
 15 47  1  0
 21 48  1  0
 22 49  1  0
 22 50  1  0
 26 51  1  0
 27 52  1  0
 28 53  1  0
 29 54  1  0
M  END
$$$$
