[H]c1c([H])c([H])c(S(=O)(=O)N2C([H])([H])C([H])([H])N(C(=O)c3c([H])c([H])c([H])c(C(F)(F)F)c3[H])[C@]([H])(C([H])([H])[H])C2([H])[H])c(Cl)c1[H]
     RDKit          3D

 47 49  0  0  0  0  0  0  0  0999 V2000
   -0.2170    2.1279   -0.7919 C   0  0  0  0  0  0  0  0  0  0  0  0
   -0.2482    0.6838   -0.5669 C   0  0  2  0  0  0  0  0  0  0  0  0
   -1.3159    0.3011    0.4823 C   0  0  0  0  0  0  0  0  0  0  0  0
   -1.7732   -0.9681    0.1055 N   0  0  0  0  0  0  0  0  0  0  0  0
   -0.7275   -1.8749   -0.1267 C   0  0  0  0  0  0  0  0  0  0  0  0
    0.6659   -1.4129    0.2453 C   0  0  0  0  0  0  0  0  0  0  0  0
    0.9439   -0.0259   -0.1498 N   0  0  0  0  0  0  0  0  0  0  0  0
    2.1955    0.5773   -0.1596 C   0  0  0  0  0  0  0  0  0  0  0  0
    2.1781    1.8108   -0.6006 O   0  0  0  0  0  0  0  0  0  0  0  0
    3.4985    0.0913    0.2240 C   0  0  0  0  0  0  0  0  0  0  0  0
    3.7719   -1.1104    0.7660 C   0  0  0  0  0  0  0  0  0  0  0  0
    5.1039   -1.4615    1.0737 C   0  0  0  0  0  0  0  0  0  0  0  0
    6.1327   -0.5977    0.8312 C   0  0  0  0  0  0  0  0  0  0  0  0
    5.8895    0.6330    0.2810 C   0  0  0  0  0  0  0  0  0  0  0  0
    4.5909    0.9598   -0.0128 C   0  0  0  0  0  0  0  0  0  0  0  0
    7.0239    1.5703    0.0269 C   0  0  0  0  0  0  0  0  0  0  0  0
    6.8497    2.3070   -1.1257 F   0  0  0  0  0  0  0  0  0  0  0  0
    7.0800    2.4907    1.0735 F   0  0  0  0  0  0  0  0  0  0  0  0
    8.2069    0.8790   -0.0783 F   0  0  0  0  0  0  0  0  0  0  0  0
   -3.2669   -1.5131    0.5817 S   0  0  0  0  0  0  0  0  0  0  0  0
   -3.3693   -1.6568    2.0685 O   0  0  0  0  0  0  0  0  0  0  0  0
   -3.4632   -2.9175    0.0146 O   0  0  0  0  0  0  0  0  0  0  0  0
   -4.6438   -0.5929    0.0226 C   0  0  0  0  0  0  0  0  0  0  0  0
   -4.5396    0.4922   -0.8101 C   0  0  0  0  0  0  0  0  0  0  0  0
   -5.6606    1.1966   -1.2456 C   0  0  0  0  0  0  0  0  0  0  0  0
   -6.9285    0.8196   -0.8478 C   0  0  0  0  0  0  0  0  0  0  0  0
   -7.0178   -0.2703   -0.0126 C   0  0  0  0  0  0  0  0  0  0  0  0
   -5.9156   -0.9672    0.4189 C   0  0  0  0  0  0  0  0  0  0  0  0
   -6.0766   -2.3613    1.4916 Cl  0  0  0  0  0  0  0  0  0  0  0  0
    0.1076    2.7600    0.0395 H   0  0  0  0  0  0  0  0  0  0  0  0
    0.2126    2.3661   -1.7831 H   0  0  0  0  0  0  0  0  0  0  0  0
   -1.3190    2.4326   -0.9301 H   0  0  0  0  0  0  0  0  0  0  0  0
   -0.5993    0.1866   -1.5205 H   0  0  0  0  0  0  0  0  0  0  0  0
   -2.0464    1.1052    0.6225 H   0  0  0  0  0  0  0  0  0  0  0  0
   -0.7349    0.2259    1.4538 H   0  0  0  0  0  0  0  0  0  0  0  0
   -0.7410   -2.2832   -1.1698 H   0  0  0  0  0  0  0  0  0  0  0  0
   -0.9023   -2.7948    0.5192 H   0  0  0  0  0  0  0  0  0  0  0  0
    0.8271   -1.5752    1.3177 H   0  0  0  0  0  0  0  0  0  0  0  0
    1.3485   -2.0292   -0.3785 H   0  0  0  0  0  0  0  0  0  0  0  0
    3.0466   -1.8563    1.0122 H   0  0  0  0  0  0  0  0  0  0  0  0
    5.2637   -2.4349    1.5070 H   0  0  0  0  0  0  0  0  0  0  0  0
    7.1491   -0.8665    1.0666 H   0  0  0  0  0  0  0  0  0  0  0  0
    4.4254    1.9332   -0.4455 H   0  0  0  0  0  0  0  0  0  0  0  0
   -3.5710    0.8167   -1.1508 H   0  0  0  0  0  0  0  0  0  0  0  0
   -5.5914    2.0552   -1.9022 H   0  0  0  0  0  0  0  0  0  0  0  0
   -7.8322    1.3250   -1.1516 H   0  0  0  0  0  0  0  0  0  0  0  0
   -8.0104   -0.5762    0.3063 H   0  0  0  0  0  0  0  0  0  0  0  0
  1  2  1  0
  2  3  1  0
  3  4  1  0
  4  5  1  0
  5  6  1  0
  6  7  1  0
  7  8  1  0
  8  9  2  0
  8 10  1  0
 10 11  2  0
 11 12  1  0
 12 13  2  0
 13 14  1  0
 14 15  2  0
 14 16  1  0
 16 17  1  0
 16 18  1  0
 16 19  1  0
  4 20  1  0
 20 21  2  0
 20 22  2  0
 20 23  1  0
 23 24  2  0
 24 25  1  0
 25 26  2  0
 26 27  1  0
 27 28  2  0
 28 29  1  0
  7  2  1  0
 15 10  1  0
 28 23  1  0
  1 30  1  0
  1 31  1  0
  1 32  1  0
  2 33  1  6
  3 34  1  0
  3 35  1  0
  5 36  1  0
  5 37  1  0
  6 38  1  0
  6 39  1  0
 11 40  1  0
 12 41  1  0
 13 42  1  0
 15 43  1  0
 24 44  1  0
 25 45  1  0
 26 46  1  0
 27 47  1  0
M  END
$$$$
[H]OC([H])([H])[C@]([H])(N([H])C(=O)[C@@]([H])(N([H])C(=O)c1c([H])c([H])c(C(C([H])([H])[H])(C([H])([H])[H])C([H])([H])[H])c([H])c1[H])C([H])([H])c1c([H])c([H])c(-c2c([H])c([H])c([H])c([H])c2[H])c([H])c1[H])[C@]([H])(O[H])C([H])([H])[H]
     RDKit          3D

 72 74  0  0  0  0  0  0  0  0999 V2000
   -0.6942   -6.3370   -0.6212 C   0  0  0  0  0  0  0  0  0  0  0  0
    0.4472   -6.3656    0.3596 C   0  0  1  0  0  0  0  0  0  0  0  0
    0.6990   -7.7324    0.7141 O   0  0  0  0  0  0  0  0  0  0  0  0
    1.7266   -5.8184   -0.2148 C   0  0  2  0  0  0  0  0  0  0  0  0
    2.8062   -5.8949    0.8426 C   0  0  0  0  0  0  0  0  0  0  0  0
    4.0186   -5.4553    0.2907 O   0  0  0  0  0  0  0  0  0  0  0  0
    1.6162   -4.4687   -0.6340 N   0  0  0  0  0  0  0  0  0  0  0  0
    0.9024   -3.4515   -0.0019 C   0  0  0  0  0  0  0  0  0  0  0  0
    0.2613   -3.6262    1.0447 O   0  0  0  0  0  0  0  0  0  0  0  0
    0.9044   -2.0814   -0.6054 C   0  0  2  0  0  0  0  0  0  0  0  0
    2.3297   -1.5510   -0.3843 C   0  0  0  0  0  0  0  0  0  0  0  0
    2.4773   -0.1824   -0.9384 C   0  0  0  0  0  0  0  0  0  0  0  0
    2.1695    0.9207   -0.1523 C   0  0  0  0  0  0  0  0  0  0  0  0
    2.3049    2.2239   -0.6277 C   0  0  0  0  0  0  0  0  0  0  0  0
    2.7554    2.4579   -1.9097 C   0  0  0  0  0  0  0  0  0  0  0  0
    3.0624    1.3697   -2.6950 C   0  0  0  0  0  0  0  0  0  0  0  0
    2.9255    0.0581   -2.2179 C   0  0  0  0  0  0  0  0  0  0  0  0
    2.8925    3.8186   -2.4197 C   0  0  0  0  0  0  0  0  0  0  0  0
    2.0307    4.7892   -1.9860 C   0  0  0  0  0  0  0  0  0  0  0  0
    2.1669    6.0671   -2.4713 C   0  0  0  0  0  0  0  0  0  0  0  0
    3.1321    6.4390   -3.3810 C   0  0  0  0  0  0  0  0  0  0  0  0
    3.9915    5.4349   -3.8023 C   0  0  0  0  0  0  0  0  0  0  0  0
    3.8745    4.1345   -3.3268 C   0  0  0  0  0  0  0  0  0  0  0  0
    0.0722   -1.2342    0.2480 N   0  0  0  0  0  0  0  0  0  0  0  0
   -0.9791   -0.5063   -0.3514 C   0  0  0  0  0  0  0  0  0  0  0  0
   -1.1897   -0.5919   -1.5964 O   0  0  0  0  0  0  0  0  0  0  0  0
   -1.8168    0.3446    0.4733 C   0  0  0  0  0  0  0  0  0  0  0  0
   -1.6436    0.5252    1.8222 C   0  0  0  0  0  0  0  0  0  0  0  0
   -2.4659    1.3470    2.5808 C   0  0  0  0  0  0  0  0  0  0  0  0
   -3.4975    2.0103    1.9628 C   0  0  0  0  0  0  0  0  0  0  0  0
   -3.6540    1.8166    0.6119 C   0  0  0  0  0  0  0  0  0  0  0  0
   -2.8629    1.0174   -0.1536 C   0  0  0  0  0  0  0  0  0  0  0  0
   -4.4518    2.9153    2.6396 C   0  0  0  0  0  0  0  0  0  0  0  0
   -3.9863    3.4686    3.9407 C   0  0  0  0  0  0  0  0  0  0  0  0
   -5.7465    2.1528    2.8550 C   0  0  0  0  0  0  0  0  0  0  0  0
   -4.7123    4.0776    1.6971 C   0  0  0  0  0  0  0  0  0  0  0  0
   -1.2115   -5.3699   -0.6626 H   0  0  0  0  0  0  0  0  0  0  0  0
   -0.3396   -6.6899   -1.6150 H   0  0  0  0  0  0  0  0  0  0  0  0
   -1.4744   -7.0816   -0.3020 H   0  0  0  0  0  0  0  0  0  0  0  0
    0.2129   -5.8894    1.3189 H   0  0  0  0  0  0  0  0  0  0  0  0
   -0.1605   -8.2149    0.6879 H   0  0  0  0  0  0  0  0  0  0  0  0
    1.9551   -6.4961   -1.0980 H   0  0  0  0  0  0  0  0  0  0  0  0
    2.5495   -5.1378    1.6121 H   0  0  0  0  0  0  0  0  0  0  0  0
    2.9025   -6.9141    1.2862 H   0  0  0  0  0  0  0  0  0  0  0  0
    4.4204   -6.1161   -0.3227 H   0  0  0  0  0  0  0  0  0  0  0  0
    2.1510   -4.2388   -1.5395 H   0  0  0  0  0  0  0  0  0  0  0  0
    0.5996   -2.0534   -1.6500 H   0  0  0  0  0  0  0  0  0  0  0  0
    2.4480   -1.4776    0.7165 H   0  0  0  0  0  0  0  0  0  0  0  0
    3.0700   -2.2230   -0.8598 H   0  0  0  0  0  0  0  0  0  0  0  0
    1.8163    0.7206    0.8587 H   0  0  0  0  0  0  0  0  0  0  0  0
    2.0586    3.0716    0.0005 H   0  0  0  0  0  0  0  0  0  0  0  0
    3.4192    1.5466   -3.7034 H   0  0  0  0  0  0  0  0  0  0  0  0
    3.1727   -0.7769   -2.8528 H   0  0  0  0  0  0  0  0  0  0  0  0
    1.2491    4.5308   -1.2626 H   0  0  0  0  0  0  0  0  0  0  0  0
    1.4965    6.8591   -2.1396 H   0  0  0  0  0  0  0  0  0  0  0  0
    3.2341    7.4386   -3.7584 H   0  0  0  0  0  0  0  0  0  0  0  0
    4.7663    5.6866   -4.5161 H   0  0  0  0  0  0  0  0  0  0  0  0
    4.5722    3.3711   -3.6810 H   0  0  0  0  0  0  0  0  0  0  0  0
    0.3063   -1.2175    1.2563 H   0  0  0  0  0  0  0  0  0  0  0  0
   -0.8364    0.0195    2.3442 H   0  0  0  0  0  0  0  0  0  0  0  0
   -2.3213    1.4834    3.6346 H   0  0  0  0  0  0  0  0  0  0  0  0
   -4.4703    2.3369    0.0912 H   0  0  0  0  0  0  0  0  0  0  0  0
   -3.0376    0.9133   -1.2075 H   0  0  0  0  0  0  0  0  0  0  0  0
   -3.5673    2.7374    4.6438 H   0  0  0  0  0  0  0  0  0  0  0  0
   -3.3278    4.3495    3.7680 H   0  0  0  0  0  0  0  0  0  0  0  0
   -4.9039    3.8978    4.4435 H   0  0  0  0  0  0  0  0  0  0  0  0
   -6.2535    2.4528    3.7840 H   0  0  0  0  0  0  0  0  0  0  0  0
   -5.5413    1.0658    2.7967 H   0  0  0  0  0  0  0  0  0  0  0  0
   -6.4374    2.3666    1.9958 H   0  0  0  0  0  0  0  0  0  0  0  0
   -4.9714    4.9988    2.2547 H   0  0  0  0  0  0  0  0  0  0  0  0
   -3.8387    4.2067    1.0382 H   0  0  0  0  0  0  0  0  0  0  0  0
   -5.5741    3.7518    1.0468 H   0  0  0  0  0  0  0  0  0  0  0  0
  1  2  1  0
  2  3  1  0
  2  4  1  0
  4  5  1  0
  5  6  1  0
  4  7  1  0
  7  8  1  0
  8  9  2  0
  8 10  1  0
 10 11  1  0
 11 12  1  0
 12 13  2  0
 13 14  1  0
 14 15  2  0
 15 16  1  0
 16 17  2  0
 15 18  1  0
 18 19  2  0
 19 20  1  0
 20 21  2  0
 21 22  1  0
 22 23  2  0
 10 24  1  0
 24 25  1  0
 25 26  2  0
 25 27  1  0
 27 28  2  0
 28 29  1  0
 29 30  2  0
 30 31  1  0
 31 32  2  0
 30 33  1  0
 33 34  1  0
 33 35  1  0
 33 36  1  0
 17 12  1  0
 23 18  1  0
 32 27  1  0
  1 37  1  0
  1 38  1  0
  1 39  1  0
  2 40  1  1
  3 41  1  0
  4 42  1  6
  5 43  1  0
  5 44  1  0
  6 45  1  0
  7 46  1  0
 10 47  1  6
 11 48  1  0
 11 49  1  0
 13 50  1  0
 14 51  1  0
 16 52  1  0
 17 53  1  0
 19 54  1  0
 20 55  1  0
 21 56  1  0
 22 57  1  0
 23 58  1  0
 24 59  1  0
 28 60  1  0
 29 61  1  0
 31 62  1  0
 32 63  1  0
 34 64  1  0
 34 65  1  0
 34 66  1  0
 35 67  1  0
 35 68  1  0
 35 69  1  0
 36 70  1  0
 36 71  1  0
 36 72  1  0
M  END
$$$$
[H]c1nc(N([H])c2c([H])c([H])c(N3C([H])([H])C([H])([H])C([H])([H])C3([H])[H])c([H])c2OC([H])([H])[H])nc(N([H])c2c([H])c([H])c([H])c([H])c2S(=O)(=O)C([H])(C([H])([H])[H])C([H])([H])[H])c1Cl
     RDKit          3D

 62 65  0  0  0  0  0  0  0  0999 V2000
    3.2096   -2.0609    2.6947 C   0  0  0  0  0  0  0  0  0  0  0  0
    2.4224   -1.4133    1.7127 O   0  0  0  0  0  0  0  0  0  0  0  0
    2.9677   -0.3618    0.9953 C   0  0  0  0  0  0  0  0  0  0  0  0
    4.2572    0.0530    1.2291 C   0  0  0  0  0  0  0  0  0  0  0  0
    4.8235    1.0886    0.5366 C   0  0  0  0  0  0  0  0  0  0  0  0
    4.0752    1.7161   -0.4079 C   0  0  0  0  0  0  0  0  0  0  0  0
    2.7540    1.2879   -0.6446 C   0  0  0  0  0  0  0  0  0  0  0  0
    2.1664    0.2666    0.0243 C   0  0  0  0  0  0  0  0  0  0  0  0
    0.8696   -0.1802   -0.1856 N   0  0  0  0  0  0  0  0  0  0  0  0
   -0.1084    0.2853   -1.0961 C   0  0  0  0  0  0  0  0  0  0  0  0
    0.0610    1.2910   -1.9564 N   0  0  0  0  0  0  0  0  0  0  0  0
   -0.8873    1.7043   -2.8056 C   0  0  0  0  0  0  0  0  0  0  0  0
   -2.1134    1.0929   -2.8294 C   0  0  0  0  0  0  0  0  0  0  0  0
   -3.3915    1.5675   -3.9002 Cl  0  0  0  0  0  0  0  0  0  0  0  0
   -2.3447    0.0208   -1.9370 C   0  0  0  0  0  0  0  0  0  0  0  0
   -3.6191   -0.5623   -1.9497 N   0  0  0  0  0  0  0  0  0  0  0  0
   -4.0331   -1.6625   -1.1801 C   0  0  0  0  0  0  0  0  0  0  0  0
   -3.0825   -2.5500   -0.6621 C   0  0  0  0  0  0  0  0  0  0  0  0
   -3.4800   -3.7098   -0.0047 C   0  0  0  0  0  0  0  0  0  0  0  0
   -4.8200   -3.9597    0.1206 C   0  0  0  0  0  0  0  0  0  0  0  0
   -5.7733   -3.1221   -0.3685 C   0  0  0  0  0  0  0  0  0  0  0  0
   -5.4002   -1.9313   -1.0412 C   0  0  0  0  0  0  0  0  0  0  0  0
   -6.6384   -0.8507   -1.5489 S   0  0  0  0  0  0  0  0  0  0  0  0
   -7.9900   -1.6248   -1.4519 O   0  0  0  0  0  0  0  0  0  0  0  0
   -6.4774   -0.4460   -2.9853 O   0  0  0  0  0  0  0  0  0  0  0  0
   -6.8303    0.5130   -0.4913 C   0  0  0  0  0  0  0  0  0  0  0  0
   -7.3705    0.0426    0.8690 C   0  0  0  0  0  0  0  0  0  0  0  0
   -5.5901    1.2834   -0.2036 C   0  0  0  0  0  0  0  0  0  0  0  0
   -1.3250   -0.2996   -1.1400 N   0  0  0  0  0  0  0  0  0  0  0  0
    6.1674    1.4448    0.8462 N   0  0  0  0  0  0  0  0  0  0  0  0
    6.8682    2.5381    0.1883 C   0  0  0  0  0  0  0  0  0  0  0  0
    8.2520    2.5587    0.7521 C   0  0  0  0  0  0  0  0  0  0  0  0
    8.4449    1.1679    1.3147 C   0  0  0  0  0  0  0  0  0  0  0  0
    7.0530    0.8320    1.8113 C   0  0  0  0  0  0  0  0  0  0  0  0
    4.0894   -2.5362    2.1987 H   0  0  0  0  0  0  0  0  0  0  0  0
    2.6755   -2.8565    3.2164 H   0  0  0  0  0  0  0  0  0  0  0  0
    3.5743   -1.2577    3.3766 H   0  0  0  0  0  0  0  0  0  0  0  0
    4.8446   -0.4612    1.9910 H   0  0  0  0  0  0  0  0  0  0  0  0
    4.5234    2.5305   -0.9509 H   0  0  0  0  0  0  0  0  0  0  0  0
    2.2714    1.8655   -1.4148 H   0  0  0  0  0  0  0  0  0  0  0  0
    0.5351   -1.0076    0.4279 H   0  0  0  0  0  0  0  0  0  0  0  0
   -0.7109    2.5334   -3.4969 H   0  0  0  0  0  0  0  0  0  0  0  0
   -4.3140   -0.1463   -2.6066 H   0  0  0  0  0  0  0  0  0  0  0  0
   -2.0227   -2.3788   -0.7743 H   0  0  0  0  0  0  0  0  0  0  0  0
   -2.7473   -4.3997    0.3987 H   0  0  0  0  0  0  0  0  0  0  0  0
   -5.1686   -4.8689    0.6336 H   0  0  0  0  0  0  0  0  0  0  0  0
   -6.8436   -3.3243   -0.2661 H   0  0  0  0  0  0  0  0  0  0  0  0
   -7.6366    1.2216   -0.8449 H   0  0  0  0  0  0  0  0  0  0  0  0
   -8.2066   -0.6669    0.7112 H   0  0  0  0  0  0  0  0  0  0  0  0
   -7.7906    0.9344    1.3833 H   0  0  0  0  0  0  0  0  0  0  0  0
   -6.5680   -0.3436    1.5138 H   0  0  0  0  0  0  0  0  0  0  0  0
   -4.8537    0.7097    0.3759 H   0  0  0  0  0  0  0  0  0  0  0  0
   -5.8201    2.1632    0.4907 H   0  0  0  0  0  0  0  0  0  0  0  0
   -5.2221    1.7511   -1.1308 H   0  0  0  0  0  0  0  0  0  0  0  0
    6.3066    3.4803    0.3755 H   0  0  0  0  0  0  0  0  0  0  0  0
    6.8731    2.3300   -0.9042 H   0  0  0  0  0  0  0  0  0  0  0  0
    8.4205    3.3305    1.5265 H   0  0  0  0  0  0  0  0  0  0  0  0
    8.9618    2.7046   -0.1146 H   0  0  0  0  0  0  0  0  0  0  0  0
    8.6951    0.5113    0.4519 H   0  0  0  0  0  0  0  0  0  0  0  0
    9.2055    1.1239    2.1031 H   0  0  0  0  0  0  0  0  0  0  0  0
    6.8957   -0.2634    1.8903 H   0  0  0  0  0  0  0  0  0  0  0  0
    6.9158    1.3020    2.8021 H   0  0  0  0  0  0  0  0  0  0  0  0
  1  2  1  0
  2  3  1  0
  3  4  2  0
  4  5  1  0
  5  6  2  0
  6  7  1  0
  7  8  2  0
  8  9  1  0
  9 10  1  0
 10 11  2  0
 11 12  1  0
 12 13  2  0
 13 14  1  0
 13 15  1  0
 15 16  1  0
 16 17  1  0
 17 18  2  0
 18 19  1  0
 19 20  2  0
 20 21  1  0
 21 22  2  0
 22 23  1  0
 23 24  2  0
 23 25  2  0
 23 26  1  0
 26 27  1  0
 26 28  1  0
 15 29  2  0
  5 30  1  0
 30 31  1  0
 31 32  1  0
 32 33  1  0
 33 34  1  0
  8  3  1  0
 29 10  1  0
 34 30  1  0
 22 17  1  0
  1 35  1  0
  1 36  1  0
  1 37  1  0
  4 38  1  0
  6 39  1  0
  7 40  1  0
  9 41  1  0
 12 42  1  0
 16 43  1  0
 18 44  1  0
 19 45  1  0
 20 46  1  0
 21 47  1  0
 26 48  1  0
 27 49  1  0
 27 50  1  0
 27 51  1  0
 28 52  1  0
 28 53  1  0
 28 54  1  0
 31 55  1  0
 31 56  1  0
 32 57  1  0
 32 58  1  0
 33 59  1  0
 33 60  1  0
 34 61  1  0
 34 62  1  0
M  END
$$$$
[H]c1nc(N([H])c2c([H])c([H])c(N3C([H])([H])C([H])([H])C([H])([H])[C@@]([H])(N4C([H])([H])C([H])([H])C([H])([H])C([H])([H])C4([H])[H])C3([H])[H])c([H])c2OC([H])([H])[H])nc(N([H])c2c([H])c([H])c([H])c([H])c2S(=O)(=O)C(F)(F)F)c1Cl
     RDKit          3D

 74 78  0  0  0  0  0  0  0  0999 V2000
    0.5813   -1.8434    3.7942 C   0  0  0  0  0  0  0  0  0  0  0  0
    1.0860   -1.3903    2.5555 O   0  0  0  0  0  0  0  0  0  0  0  0
    0.2461   -0.9056    1.5720 C   0  0  0  0  0  0  0  0  0  0  0  0
   -1.1279   -0.8424    1.7577 C   0  0  0  0  0  0  0  0  0  0  0  0
   -1.9745   -0.3706    0.8069 C   0  0  0  0  0  0  0  0  0  0  0  0
   -1.4087    0.0513   -0.3712 C   0  0  0  0  0  0  0  0  0  0  0  0
   -0.0297   -0.0021   -0.5814 C   0  0  0  0  0  0  0  0  0  0  0  0
    0.8182   -0.4732    0.3666 C   0  0  0  0  0  0  0  0  0  0  0  0
    2.2182   -0.5755    0.2488 N   0  0  0  0  0  0  0  0  0  0  0  0
    3.0081   -0.1791   -0.8517 C   0  0  0  0  0  0  0  0  0  0  0  0
    2.5837    0.3685   -1.9829 N   0  0  0  0  0  0  0  0  0  0  0  0
    3.4186    0.7069   -2.9650 C   0  0  0  0  0  0  0  0  0  0  0  0
    4.7670    0.5075   -2.8614 C   0  0  0  0  0  0  0  0  0  0  0  0
    5.8372    0.9431   -4.1252 Cl  0  0  0  0  0  0  0  0  0  0  0  0
    5.2542   -0.0643   -1.6919 C   0  0  0  0  0  0  0  0  0  0  0  0
    6.6341   -0.2791   -1.5053 N   0  0  0  0  0  0  0  0  0  0  0  0
    7.3494   -0.8464   -0.4539 C   0  0  0  0  0  0  0  0  0  0  0  0
    6.7519   -1.6369    0.4737 C   0  0  0  0  0  0  0  0  0  0  0  0
    7.4708   -2.2797    1.4687 C   0  0  0  0  0  0  0  0  0  0  0  0
    8.8156   -2.1257    1.5320 C   0  0  0  0  0  0  0  0  0  0  0  0
    9.4500   -1.3369    0.6154 C   0  0  0  0  0  0  0  0  0  0  0  0
    8.7260   -0.6815   -0.3945 C   0  0  0  0  0  0  0  0  0  0  0  0
    9.6489    0.3616   -1.4233 S   0  0  0  0  0  0  0  0  0  0  0  0
    9.5133    0.0342   -2.8970 O   0  0  0  0  0  0  0  0  0  0  0  0
   11.1470    0.1493   -1.1584 O   0  0  0  0  0  0  0  0  0  0  0  0
    9.3532    2.0760   -1.1860 C   0  0  0  0  0  0  0  0  0  0  0  0
   10.1460    2.8255   -2.0703 F   0  0  0  0  0  0  0  0  0  0  0  0
    8.0665    2.4735   -1.4043 F   0  0  0  0  0  0  0  0  0  0  0  0
    9.7996    2.4954    0.0800 F   0  0  0  0  0  0  0  0  0  0  0  0
    4.3660   -0.3684   -0.7737 N   0  0  0  0  0  0  0  0  0  0  0  0
   -3.3740   -0.3140    0.9996 N   0  0  0  0  0  0  0  0  0  0  0  0
   -4.0806   -0.7403    2.1799 C   0  0  0  0  0  0  0  0  0  0  0  0
   -4.8891    0.3788    2.8125 C   0  0  0  0  0  0  0  0  0  0  0  0
   -5.5261    1.1795    1.7235 C   0  0  0  0  0  0  0  0  0  0  0  0
   -5.6172    0.3609    0.4322 C   0  0  2  0  0  0  0  0  0  0  0  0
   -4.2332    0.2159   -0.0834 C   0  0  0  0  0  0  0  0  0  0  0  0
   -6.4820    1.1290   -0.4427 N   0  0  0  0  0  0  0  0  0  0  0  0
   -7.7763    1.2577    0.0790 C   0  0  0  0  0  0  0  0  0  0  0  0
   -8.9228    0.9978   -0.8136 C   0  0  0  0  0  0  0  0  0  0  0  0
   -8.6655    1.0820   -2.2777 C   0  0  0  0  0  0  0  0  0  0  0  0
   -7.4031    0.2482   -2.5434 C   0  0  0  0  0  0  0  0  0  0  0  0
   -6.2973    0.9777   -1.8160 C   0  0  0  0  0  0  0  0  0  0  0  0
    1.3931   -2.0690    4.5064 H   0  0  0  0  0  0  0  0  0  0  0  0
   -0.0144   -2.7648    3.5655 H   0  0  0  0  0  0  0  0  0  0  0  0
   -0.0384   -1.0540    4.2682 H   0  0  0  0  0  0  0  0  0  0  0  0
   -1.4929   -1.1955    2.7187 H   0  0  0  0  0  0  0  0  0  0  0  0
   -2.0535    0.4307   -1.1474 H   0  0  0  0  0  0  0  0  0  0  0  0
    0.3275    0.3496   -1.5393 H   0  0  0  0  0  0  0  0  0  0  0  0
    2.7831   -0.9965    1.0617 H   0  0  0  0  0  0  0  0  0  0  0  0
    2.9610    1.1522   -3.8562 H   0  0  0  0  0  0  0  0  0  0  0  0
    7.2415    0.0180   -2.3489 H   0  0  0  0  0  0  0  0  0  0  0  0
    5.6893   -1.8261    0.4922 H   0  0  0  0  0  0  0  0  0  0  0  0
    6.9384   -2.9096    2.1970 H   0  0  0  0  0  0  0  0  0  0  0  0
    9.3734   -2.6441    2.3282 H   0  0  0  0  0  0  0  0  0  0  0  0
   10.5143   -1.2368    0.6940 H   0  0  0  0  0  0  0  0  0  0  0  0
   -4.7956   -1.5616    1.8636 H   0  0  0  0  0  0  0  0  0  0  0  0
   -3.4044   -1.1498    2.9676 H   0  0  0  0  0  0  0  0  0  0  0  0
   -5.7163   -0.0297    3.4426 H   0  0  0  0  0  0  0  0  0  0  0  0
   -4.2593    1.0233    3.4514 H   0  0  0  0  0  0  0  0  0  0  0  0
   -4.8780    2.0684    1.4602 H   0  0  0  0  0  0  0  0  0  0  0  0
   -6.5053    1.6138    2.0057 H   0  0  0  0  0  0  0  0  0  0  0  0
   -6.0647   -0.6315    0.6479 H   0  0  0  0  0  0  0  0  0  0  0  0
   -4.1704   -0.5786   -0.8683 H   0  0  0  0  0  0  0  0  0  0  0  0
   -3.8142    1.1706   -0.4870 H   0  0  0  0  0  0  0  0  0  0  0  0
   -7.8757    0.5497    0.9567 H   0  0  0  0  0  0  0  0  0  0  0  0
   -7.8951    2.2767    0.5358 H   0  0  0  0  0  0  0  0  0  0  0  0
   -9.7758    1.7009   -0.5819 H   0  0  0  0  0  0  0  0  0  0  0  0
   -9.3715   -0.0212   -0.6209 H   0  0  0  0  0  0  0  0  0  0  0  0
   -8.4764    2.0930   -2.6497 H   0  0  0  0  0  0  0  0  0  0  0  0
   -9.5365    0.6326   -2.8070 H   0  0  0  0  0  0  0  0  0  0  0  0
   -7.5384   -0.7912   -2.1958 H   0  0  0  0  0  0  0  0  0  0  0  0
   -7.1982    0.3102   -3.6210 H   0  0  0  0  0  0  0  0  0  0  0  0
   -5.3404    0.5044   -2.1065 H   0  0  0  0  0  0  0  0  0  0  0  0
   -6.2551    2.0013   -2.2949 H   0  0  0  0  0  0  0  0  0  0  0  0
  1  2  1  0
  2  3  1  0
  3  4  2  0
  4  5  1  0
  5  6  2  0
  6  7  1  0
  7  8  2  0
  8  9  1  0
  9 10  1  0
 10 11  2  0
 11 12  1  0
 12 13  2  0
 13 14  1  0
 13 15  1  0
 15 16  1  0
 16 17  1  0
 17 18  2  0
 18 19  1  0
 19 20  2  0
 20 21  1  0
 21 22  2  0
 22 23  1  0
 23 24  2  0
 23 25  2  0
 23 26  1  0
 26 27  1  0
 26 28  1  0
 26 29  1  0
 15 30  2  0
  5 31  1  0
 31 32  1  0
 32 33  1  0
 33 34  1  0
 34 35  1  0
 35 36  1  0
 35 37  1  0
 37 38  1  0
 38 39  1  0
 39 40  1  0
 40 41  1  0
 41 42  1  0
  8  3  1  0
 30 10  1  0
 36 31  1  0
 42 37  1  0
 22 17  1  0
  1 43  1  0
  1 44  1  0
  1 45  1  0
  4 46  1  0
  6 47  1  0
  7 48  1  0
  9 49  1  0
 12 50  1  0
 16 51  1  0
 18 52  1  0
 19 53  1  0
 20 54  1  0
 21 55  1  0
 32 56  1  0
 32 57  1  0
 33 58  1  0
 33 59  1  0
 34 60  1  0
 34 61  1  0
 35 62  1  1
 36 63  1  0
 36 64  1  0
 38 65  1  0
 38 66  1  0
 39 67  1  0
 39 68  1  0
 40 69  1  0
 40 70  1  0
 41 71  1  0
 41 72  1  0
 42 73  1  0
 42 74  1  0
M  END
$$$$
[H]OC(=O)C([H])([H])[C@@]([H])(C(=O)N([H])[C@]([H])(C(=O)N1C([H])([H])C([H])([H])C([H])([H])[C@@]1([H])C(=O)N([H])[C@@]([H])(C(=O)N([H])[C@@]([H])(C([H])([H])C([H])(C([H])([H])[H])C([H])([H])[H])C(C([H])([H])[H])(C([H])([H])[H])C([H])([H])[H])C([H])([H])c1c([H])c([H])c(O[H])c([H])c1[H])C([H])([H])c1c([H])c([H])c([H])c([H])c1[H])N([H])C(=O)[C@]([H])(N([H])C(=O)OC([H])([H])c1c([H])c([H])c([H])c([H])c1[H])C([H])([H])c1c([H])c([H])c([H])c([H])c1[H]
     RDKit          3D

135139  0  0  0  0  0  0  0  0999 V2000
  -10.5360    1.2438    0.3500 C   0  0  0  0  0  0  0  0  0  0  0  0
   -9.3823    0.9965    1.2986 C   0  0  0  0  0  0  0  0  0  0  0  0
  -10.0078    0.6483    2.6437 C   0  0  0  0  0  0  0  0  0  0  0  0
   -8.4645    2.1609    1.4111 C   0  0  0  0  0  0  0  0  0  0  0  0
   -7.8147    2.5664    0.1158 C   0  0  2  0  0  0  0  0  0  0  0  0
   -6.9992    1.5485   -0.5066 N   0  0  0  0  0  0  0  0  0  0  0  0
   -6.2321    0.5558    0.0765 C   0  0  0  0  0  0  0  0  0  0  0  0
   -6.1921    0.5429    1.3787 O   0  0  0  0  0  0  0  0  0  0  0  0
   -5.4250   -0.5197   -0.5092 C   0  0  1  0  0  0  0  0  0  0  0  0
   -5.5043   -0.9142   -1.9059 C   0  0  0  0  0  0  0  0  0  0  0  0
   -6.7985   -1.4560   -2.3791 C   0  0  0  0  0  0  0  0  0  0  0  0
   -7.0541   -2.7943   -2.0518 C   0  0  0  0  0  0  0  0  0  0  0  0
   -8.2182   -3.3615   -2.4802 C   0  0  0  0  0  0  0  0  0  0  0  0
   -9.1538   -2.6522   -3.2269 C   0  0  0  0  0  0  0  0  0  0  0  0
  -10.3266   -3.2732   -3.6405 O   0  0  0  0  0  0  0  0  0  0  0  0
   -8.8870   -1.3276   -3.5431 C   0  0  0  0  0  0  0  0  0  0  0  0
   -7.6997   -0.7662   -3.1024 C   0  0  0  0  0  0  0  0  0  0  0  0
   -4.1280   -0.5657    0.1469 N   0  0  0  0  0  0  0  0  0  0  0  0
   -3.8226   -1.3968    1.2360 C   0  0  0  0  0  0  0  0  0  0  0  0
   -4.7081   -2.2047    1.6966 O   0  0  0  0  0  0  0  0  0  0  0  0
   -2.5199   -1.4404    1.9551 C   0  0  2  0  0  0  0  0  0  0  0  0
   -2.7210   -1.1267    3.4355 C   0  0  0  0  0  0  0  0  0  0  0  0
   -2.5978    0.3477    3.5532 C   0  0  0  0  0  0  0  0  0  0  0  0
   -2.1915    0.8399    2.1959 C   0  0  0  0  0  0  0  0  0  0  0  0
   -1.6242   -0.3992    1.5543 N   0  0  0  0  0  0  0  0  0  0  0  0
   -0.4709   -0.3707    0.8162 C   0  0  0  0  0  0  0  0  0  0  0  0
    0.0185    0.8769    0.6833 O   0  0  0  0  0  0  0  0  0  0  0  0
    0.3539   -1.3858    0.1516 C   0  0  2  0  0  0  0  0  0  0  0  0
    0.2506   -2.7638    0.6846 C   0  0  0  0  0  0  0  0  0  0  0  0
    1.1463   -3.7537   -0.0177 C   0  0  0  0  0  0  0  0  0  0  0  0
    2.4044   -3.9928    0.4831 C   0  0  0  0  0  0  0  0  0  0  0  0
    3.2252   -4.8910   -0.1489 C   0  0  0  0  0  0  0  0  0  0  0  0
    2.8468   -5.5806   -1.2819 C   0  0  0  0  0  0  0  0  0  0  0  0
    1.5727   -5.3242   -1.7695 C   0  0  0  0  0  0  0  0  0  0  0  0
    0.7316   -4.4183   -1.1414 C   0  0  0  0  0  0  0  0  0  0  0  0
    1.7026   -0.8279    0.1418 N   0  0  0  0  0  0  0  0  0  0  0  0
    2.6453   -0.7853   -0.8794 C   0  0  0  0  0  0  0  0  0  0  0  0
    2.3622   -1.3312   -1.9749 O   0  0  0  0  0  0  0  0  0  0  0  0
    3.9253   -0.0994   -0.6122 C   0  0  2  0  0  0  0  0  0  0  0  0
    3.9341    1.3364   -1.0794 C   0  0  0  0  0  0  0  0  0  0  0  0
    3.7159    1.5908   -2.4956 C   0  0  0  0  0  0  0  0  0  0  0  0
    3.6776    2.9375   -2.9401 O   0  0  0  0  0  0  0  0  0  0  0  0
    3.5565    0.7328   -3.3758 O   0  0  0  0  0  0  0  0  0  0  0  0
    5.0764   -0.8257   -1.0671 N   0  0  0  0  0  0  0  0  0  0  0  0
    6.3072   -0.5339   -0.4423 C   0  0  0  0  0  0  0  0  0  0  0  0
    6.3480    0.3756    0.4215 O   0  0  0  0  0  0  0  0  0  0  0  0
    7.5424   -1.2589   -0.7503 C   0  0  1  0  0  0  0  0  0  0  0  0
    7.8692   -1.6955   -2.1066 C   0  0  0  0  0  0  0  0  0  0  0  0
    8.0026   -0.6252   -3.0924 C   0  0  0  0  0  0  0  0  0  0  0  0
    9.2499   -0.0054   -3.2380 C   0  0  0  0  0  0  0  0  0  0  0  0
    9.4644    1.0063   -4.1599 C   0  0  0  0  0  0  0  0  0  0  0  0
    8.4155    1.4189   -4.9646 C   0  0  0  0  0  0  0  0  0  0  0  0
    7.1724    0.8369   -4.8565 C   0  0  0  0  0  0  0  0  0  0  0  0
    7.0059   -0.1642   -3.9264 C   0  0  0  0  0  0  0  0  0  0  0  0
    8.6172   -0.5355   -0.0579 N   0  0  0  0  0  0  0  0  0  0  0  0
    8.7514   -0.6583    1.3405 C   0  0  0  0  0  0  0  0  0  0  0  0
    8.0278   -1.3412    2.0675 O   0  0  0  0  0  0  0  0  0  0  0  0
    9.7955    0.0578    1.9761 O   0  0  0  0  0  0  0  0  0  0  0  0
    9.9760   -0.0035    3.3797 C   0  0  0  0  0  0  0  0  0  0  0  0
   11.1325    0.8952    3.6890 C   0  0  0  0  0  0  0  0  0  0  0  0
   12.3565    0.5829    3.1522 C   0  0  0  0  0  0  0  0  0  0  0  0
   13.4495    1.4140    3.4147 C   0  0  0  0  0  0  0  0  0  0  0  0
   13.2505    2.5028    4.1967 C   0  0  0  0  0  0  0  0  0  0  0  0
   12.0155    2.7970    4.7252 C   0  0  0  0  0  0  0  0  0  0  0  0
   10.9117    2.0070    4.4927 C   0  0  0  0  0  0  0  0  0  0  0  0
   -7.0391    3.8314    0.2085 C   0  0  0  0  0  0  0  0  0  0  0  0
   -5.9012    3.7317    1.2282 C   0  0  0  0  0  0  0  0  0  0  0  0
   -6.3963    4.2577   -1.0913 C   0  0  0  0  0  0  0  0  0  0  0  0
   -7.8662    5.0185    0.6736 C   0  0  0  0  0  0  0  0  0  0  0  0
  -11.0200    2.2065    0.4949 H   0  0  0  0  0  0  0  0  0  0  0  0
  -11.2961    0.4346    0.5730 H   0  0  0  0  0  0  0  0  0  0  0  0
  -10.2120    1.0724   -0.7138 H   0  0  0  0  0  0  0  0  0  0  0  0
   -8.9086    0.0586    0.9469 H   0  0  0  0  0  0  0  0  0  0  0  0
  -10.3457    1.5905    3.0978 H   0  0  0  0  0  0  0  0  0  0  0  0
  -10.8905    0.0027    2.4947 H   0  0  0  0  0  0  0  0  0  0  0  0
   -9.2677    0.2076    3.3426 H   0  0  0  0  0  0  0  0  0  0  0  0
   -7.7460    2.0119    2.2150 H   0  0  0  0  0  0  0  0  0  0  0  0
   -9.1189    3.0137    1.7876 H   0  0  0  0  0  0  0  0  0  0  0  0
   -8.6600    2.7550   -0.6463 H   0  0  0  0  0  0  0  0  0  0  0  0
   -6.9575    1.6076   -1.5713 H   0  0  0  0  0  0  0  0  0  0  0  0
   -5.9617   -1.4842    0.0124 H   0  0  0  0  0  0  0  0  0  0  0  0
   -5.1854   -0.0894   -2.6173 H   0  0  0  0  0  0  0  0  0  0  0  0
   -4.7516   -1.7185   -2.1103 H   0  0  0  0  0  0  0  0  0  0  0  0
   -6.3258   -3.3618   -1.4552 H   0  0  0  0  0  0  0  0  0  0  0  0
   -8.4127   -4.4190   -2.2228 H   0  0  0  0  0  0  0  0  0  0  0  0
  -10.4778   -4.2354   -3.3851 H   0  0  0  0  0  0  0  0  0  0  0  0
   -9.6296   -0.8022   -4.1233 H   0  0  0  0  0  0  0  0  0  0  0  0
   -7.5514    0.2905   -3.4006 H   0  0  0  0  0  0  0  0  0  0  0  0
   -3.3404    0.0444   -0.2231 H   0  0  0  0  0  0  0  0  0  0  0  0
   -2.0517   -2.4147    1.9260 H   0  0  0  0  0  0  0  0  0  0  0  0
   -1.9277   -1.6127    4.0496 H   0  0  0  0  0  0  0  0  0  0  0  0
   -3.7439   -1.4279    3.7568 H   0  0  0  0  0  0  0  0  0  0  0  0
   -1.7616    0.6309    4.2513 H   0  0  0  0  0  0  0  0  0  0  0  0
   -3.5553    0.8140    3.8976 H   0  0  0  0  0  0  0  0  0  0  0  0
   -3.0321    1.2426    1.6580 H   0  0  0  0  0  0  0  0  0  0  0  0
   -1.4027    1.6164    2.2647 H   0  0  0  0  0  0  0  0  0  0  0  0
    0.0287   -1.4241   -0.9527 H   0  0  0  0  0  0  0  0  0  0  0  0
    0.2943   -2.8965    1.7579 H   0  0  0  0  0  0  0  0  0  0  0  0
   -0.7829   -3.1296    0.3547 H   0  0  0  0  0  0  0  0  0  0  0  0
    2.7651   -3.4713    1.3909 H   0  0  0  0  0  0  0  0  0  0  0  0
    4.2172   -5.0572    0.2693 H   0  0  0  0  0  0  0  0  0  0  0  0
    3.5230   -6.2958   -1.7654 H   0  0  0  0  0  0  0  0  0  0  0  0
    1.2592   -5.8620   -2.6721 H   0  0  0  0  0  0  0  0  0  0  0  0
   -0.2682   -4.2474   -1.5732 H   0  0  0  0  0  0  0  0  0  0  0  0
    1.9665   -0.4019    1.0992 H   0  0  0  0  0  0  0  0  0  0  0  0
    4.0592    0.0358    0.5276 H   0  0  0  0  0  0  0  0  0  0  0  0
    3.1190    1.8828   -0.5220 H   0  0  0  0  0  0  0  0  0  0  0  0
    4.8711    1.8654   -0.7249 H   0  0  0  0  0  0  0  0  0  0  0  0
    4.5471    3.4583   -2.9486 H   0  0  0  0  0  0  0  0  0  0  0  0
    4.9978   -1.5201   -1.8120 H   0  0  0  0  0  0  0  0  0  0  0  0
    7.4360   -2.2118   -0.0540 H   0  0  0  0  0  0  0  0  0  0  0  0
    7.0443   -2.3868   -2.4625 H   0  0  0  0  0  0  0  0  0  0  0  0
    8.8396   -2.3055   -2.1054 H   0  0  0  0  0  0  0  0  0  0  0  0
   10.0941   -0.3066   -2.6529 H   0  0  0  0  0  0  0  0  0  0  0  0
   10.4501    1.4600   -4.2339 H   0  0  0  0  0  0  0  0  0  0  0  0
    8.6399    2.2131   -5.6769 H   0  0  0  0  0  0  0  0  0  0  0  0
    6.3842    1.1689   -5.4915 H   0  0  0  0  0  0  0  0  0  0  0  0
    6.0387   -0.6270   -3.8592 H   0  0  0  0  0  0  0  0  0  0  0  0
    9.2973    0.0733   -0.5525 H   0  0  0  0  0  0  0  0  0  0  0  0
    9.0736    0.3168    3.9135 H   0  0  0  0  0  0  0  0  0  0  0  0
   10.2093   -1.0643    3.6299 H   0  0  0  0  0  0  0  0  0  0  0  0
   12.5390   -0.2772    2.5248 H   0  0  0  0  0  0  0  0  0  0  0  0
   14.4088    1.1502    2.9756 H   0  0  0  0  0  0  0  0  0  0  0  0
   14.0742    3.1610    4.4126 H   0  0  0  0  0  0  0  0  0  0  0  0
   11.9045    3.6803    5.3479 H   0  0  0  0  0  0  0  0  0  0  0  0
    9.9331    2.1833    4.8694 H   0  0  0  0  0  0  0  0  0  0  0  0
   -5.5668    4.7914    1.4035 H   0  0  0  0  0  0  0  0  0  0  0  0
   -6.2628    3.3810    2.1995 H   0  0  0  0  0  0  0  0  0  0  0  0
   -5.0329    3.1916    0.8210 H   0  0  0  0  0  0  0  0  0  0  0  0
   -7.1536    4.5600   -1.8593 H   0  0  0  0  0  0  0  0  0  0  0  0
   -5.8550    3.3815   -1.5074 H   0  0  0  0  0  0  0  0  0  0  0  0
   -5.7001    5.1140   -0.9424 H   0  0  0  0  0  0  0  0  0  0  0  0
   -8.3068    4.8612    1.6772 H   0  0  0  0  0  0  0  0  0  0  0  0
   -8.5591    5.3864   -0.0930 H   0  0  0  0  0  0  0  0  0  0  0  0
   -7.1170    5.8468    0.8290 H   0  0  0  0  0  0  0  0  0  0  0  0
  1  2  1  0
  2  3  1  0
  2  4  1  0
  4  5  1  0
  5  6  1  0
  6  7  1  0
  7  8  2  0
  7  9  1  0
  9 10  1  0
 10 11  1  0
 11 12  2  0
 12 13  1  0
 13 14  2  0
 14 15  1  0
 14 16  1  0
 16 17  2  0
  9 18  1  0
 18 19  1  0
 19 20  2  0
 19 21  1  0
 21 22  1  0
 22 23  1  0
 23 24  1  0
 24 25  1  0
 25 26  1  0
 26 27  2  0
 26 28  1  0
 28 29  1  0
 29 30  1  0
 30 31  2  0
 31 32  1  0
 32 33  2  0
 33 34  1  0
 34 35  2  0
 28 36  1  0
 36 37  1  0
 37 38  2  0
 37 39  1  0
 39 40  1  0
 40 41  1  0
 41 42  1  0
 41 43  2  0
 39 44  1  0
 44 45  1  0
 45 46  2  0
 45 47  1  0
 47 48  1  0
 48 49  1  0
 49 50  2  0
 50 51  1  0
 51 52  2  0
 52 53  1  0
 53 54  2  0
 47 55  1  0
 55 56  1  0
 56 57  2  0
 56 58  1  0
 58 59  1  0
 59 60  1  0
 60 61  2  0
 61 62  1  0
 62 63  2  0
 63 64  1  0
 64 65  2  0
  5 66  1  0
 66 67  1  0
 66 68  1  0
 66 69  1  0
 17 11  1  0
 25 21  1  0
 35 30  1  0
 54 49  1  0
 65 60  1  0
  1 70  1  0
  1 71  1  0
  1 72  1  0
  2 73  1  0
  3 74  1  0
  3 75  1  0
  3 76  1  0
  4 77  1  0
  4 78  1  0
  5 79  1  6
  6 80  1  0
  9 81  1  1
 10 82  1  0
 10 83  1  0
 12 84  1  0
 13 85  1  0
 15 86  1  0
 16 87  1  0
 17 88  1  0
 18 89  1  0
 21 90  1  1
 22 91  1  0
 22 92  1  0
 23 93  1  0
 23 94  1  0
 24 95  1  0
 24 96  1  0
 28 97  1  6
 29 98  1  0
 29 99  1  0
 31100  1  0
 32101  1  0
 33102  1  0
 34103  1  0
 35104  1  0
 36105  1  0
 39106  1  1
 40107  1  0
 40108  1  0
 42109  1  0
 44110  1  0
 47111  1  1
 48112  1  0
 48113  1  0
 50114  1  0
 51115  1  0
 52116  1  0
 53117  1  0
 54118  1  0
 55119  1  0
 59120  1  0
 59121  1  0
 61122  1  0
 62123  1  0
 63124  1  0
 64125  1  0
 65126  1  0
 67127  1  0
 67128  1  0
 67129  1  0
 68130  1  0
 68131  1  0
 68132  1  0
 69133  1  0
 69134  1  0
 69135  1  0
M  END
$$$$
[H]c1c([H])c([H])c(C([H])([H])[C@@]([H])(C(=O)N([H])[C@]([H])(C(=O)N([H])[H])C([H])([H])c2c([H])n([H])c3c([H])c([H])c([H])c([H])c23)N([H])C(=O)[C@]([H])(N([H])C(=O)[C@@]([H])(N([H])S(=O)(=O)c2c([H])c([H])c([H])c([H])c2[H])C([H])(C([H])([H])[H])C([H])([H])[H])C([H])([H])c2c([H])c([H])c([H])c([H])c2[H])c([H])c1[H]
     RDKit          3D

 97101  0  0  0  0  0  0  0  0999 V2000
    6.1535    0.3973    3.1131 C   0  0  0  0  0  0  0  0  0  0  0  0
    4.7907   -0.0677    2.6300 C   0  0  0  0  0  0  0  0  0  0  0  0
    4.4167   -1.3363    3.3414 C   0  0  0  0  0  0  0  0  0  0  0  0
    4.7324   -0.2662    1.1344 C   0  0  2  0  0  0  0  0  0  0  0  0
    5.0669    1.0328    0.5650 N   0  0  0  0  0  0  0  0  0  0  0  0
    6.2351    0.9821   -0.6625 S   0  0  0  0  0  0  0  0  0  0  0  0
    6.4848   -0.4255   -1.1302 O   0  0  0  0  0  0  0  0  0  0  0  0
    5.6880    1.7237   -1.8657 O   0  0  0  0  0  0  0  0  0  0  0  0
    7.7080    1.7449   -0.1336 C   0  0  0  0  0  0  0  0  0  0  0  0
    7.9051    3.1148   -0.2232 C   0  0  0  0  0  0  0  0  0  0  0  0
    9.0756    3.7155    0.1761 C   0  0  0  0  0  0  0  0  0  0  0  0
   10.1362    2.9699    0.6976 C   0  0  0  0  0  0  0  0  0  0  0  0
    9.9471    1.6113    0.7892 C   0  0  0  0  0  0  0  0  0  0  0  0
    8.7690    1.0285    0.3845 C   0  0  0  0  0  0  0  0  0  0  0  0
    3.2720   -0.4961    0.7645 C   0  0  0  0  0  0  0  0  0  0  0  0
    2.6580    0.4786    0.2914 O   0  0  0  0  0  0  0  0  0  0  0  0
    2.6606   -1.7286    0.9430 N   0  0  0  0  0  0  0  0  0  0  0  0
    1.2990   -2.0145    0.6499 C   0  0  2  0  0  0  0  0  0  0  0  0
    1.0319   -2.7153   -0.6275 C   0  0  0  0  0  0  0  0  0  0  0  0
    1.7776   -4.0095   -0.5947 C   0  0  0  0  0  0  0  0  0  0  0  0
    3.0847   -4.0568   -1.0975 C   0  0  0  0  0  0  0  0  0  0  0  0
    3.7857   -5.2382   -1.0760 C   0  0  0  0  0  0  0  0  0  0  0  0
    3.2253   -6.3732   -0.5698 C   0  0  0  0  0  0  0  0  0  0  0  0
    1.9367   -6.3439   -0.0694 C   0  0  0  0  0  0  0  0  0  0  0  0
    1.2251   -5.1573   -0.0878 C   0  0  0  0  0  0  0  0  0  0  0  0
    0.4267   -0.7972    0.8328 C   0  0  0  0  0  0  0  0  0  0  0  0
    0.5355   -0.0360    1.8243 O   0  0  0  0  0  0  0  0  0  0  0  0
   -0.5299   -0.5066   -0.1314 N   0  0  0  0  0  0  0  0  0  0  0  0
   -1.4491    0.6465   -0.0865 C   0  0  1  0  0  0  0  0  0  0  0  0
   -1.0933    1.6875   -1.0543 C   0  0  0  0  0  0  0  0  0  0  0  0
   -1.0520    1.3955   -2.4678 C   0  0  0  0  0  0  0  0  0  0  0  0
    0.0319    0.9004   -3.1579 C   0  0  0  0  0  0  0  0  0  0  0  0
   -0.0482    0.6816   -4.5152 C   0  0  0  0  0  0  0  0  0  0  0  0
   -1.1928    0.9423   -5.2315 C   0  0  0  0  0  0  0  0  0  0  0  0
   -2.2800    1.4356   -4.5536 C   0  0  0  0  0  0  0  0  0  0  0  0
   -2.1904    1.6495   -3.2068 C   0  0  0  0  0  0  0  0  0  0  0  0
   -2.8284    0.2347    0.0508 C   0  0  0  0  0  0  0  0  0  0  0  0
   -3.0504   -1.0235    0.1651 O   0  0  0  0  0  0  0  0  0  0  0  0
   -3.9665    1.0455    0.0767 N   0  0  0  0  0  0  0  0  0  0  0  0
   -5.3405    0.5285    0.2367 C   0  0  1  0  0  0  0  0  0  0  0  0
   -5.9386    1.3127    1.3476 C   0  0  0  0  0  0  0  0  0  0  0  0
   -7.3155    1.0806    1.7283 C   0  0  0  0  0  0  0  0  0  0  0  0
   -7.7368    0.1782    2.6769 C   0  0  0  0  0  0  0  0  0  0  0  0
   -9.0656    0.1710    2.7725 N   0  0  0  0  0  0  0  0  0  0  0  0
   -9.5241    1.0753    1.8816 C   0  0  0  0  0  0  0  0  0  0  0  0
  -10.8063    1.5060    1.5496 C   0  0  0  0  0  0  0  0  0  0  0  0
  -11.0316    2.4795    0.5957 C   0  0  0  0  0  0  0  0  0  0  0  0
   -9.9705    3.0534   -0.0577 C   0  0  0  0  0  0  0  0  0  0  0  0
   -8.7032    2.6461    0.2510 C   0  0  0  0  0  0  0  0  0  0  0  0
   -8.4658    1.6608    1.2148 C   0  0  0  0  0  0  0  0  0  0  0  0
   -6.0807    0.5184   -1.0312 C   0  0  0  0  0  0  0  0  0  0  0  0
   -7.2198   -0.3620   -1.1550 N   0  0  0  0  0  0  0  0  0  0  0  0
   -5.7399    1.2383   -1.9823 O   0  0  0  0  0  0  0  0  0  0  0  0
    6.3773    1.4387    2.8882 H   0  0  0  0  0  0  0  0  0  0  0  0
    6.1628    0.3065    4.2308 H   0  0  0  0  0  0  0  0  0  0  0  0
    6.9060   -0.3160    2.7494 H   0  0  0  0  0  0  0  0  0  0  0  0
    4.0673    0.7139    2.9649 H   0  0  0  0  0  0  0  0  0  0  0  0
    4.8212   -1.2334    4.4034 H   0  0  0  0  0  0  0  0  0  0  0  0
    4.9276   -2.1795    2.8700 H   0  0  0  0  0  0  0  0  0  0  0  0
    3.3152   -1.4173    3.3797 H   0  0  0  0  0  0  0  0  0  0  0  0
    5.3415   -1.0546    0.7235 H   0  0  0  0  0  0  0  0  0  0  0  0
    4.2798    1.6366    0.3496 H   0  0  0  0  0  0  0  0  0  0  0  0
    7.0898    3.6985   -0.6257 H   0  0  0  0  0  0  0  0  0  0  0  0
    9.1845    4.7937    0.0861 H   0  0  0  0  0  0  0  0  0  0  0  0
   11.0268    3.4822    0.9954 H   0  0  0  0  0  0  0  0  0  0  0  0
   10.7448    1.0112    1.1885 H   0  0  0  0  0  0  0  0  0  0  0  0
    8.6000   -0.0541    0.4506 H   0  0  0  0  0  0  0  0  0  0  0  0
    3.2279   -2.5526    1.3073 H   0  0  0  0  0  0  0  0  0  0  0  0
    0.9382   -2.6318    1.5637 H   0  0  0  0  0  0  0  0  0  0  0  0
   -0.0666   -2.9814   -0.6588 H   0  0  0  0  0  0  0  0  0  0  0  0
    1.2642   -2.1443   -1.5187 H   0  0  0  0  0  0  0  0  0  0  0  0
    3.5433   -3.1633   -1.5021 H   0  0  0  0  0  0  0  0  0  0  0  0
    4.7876   -5.2555   -1.4662 H   0  0  0  0  0  0  0  0  0  0  0  0
    3.7488   -7.3134   -0.5384 H   0  0  0  0  0  0  0  0  0  0  0  0
    1.4609   -7.2233    0.3406 H   0  0  0  0  0  0  0  0  0  0  0  0
    0.2135   -5.1276    0.3032 H   0  0  0  0  0  0  0  0  0  0  0  0
   -0.6366   -1.1269   -0.9777 H   0  0  0  0  0  0  0  0  0  0  0  0
   -1.1880    1.1065    0.9316 H   0  0  0  0  0  0  0  0  0  0  0  0
   -1.7811    2.5587   -0.8770 H   0  0  0  0  0  0  0  0  0  0  0  0
   -0.0810    2.0911   -0.7657 H   0  0  0  0  0  0  0  0  0  0  0  0
    0.9224    0.6927   -2.6192 H   0  0  0  0  0  0  0  0  0  0  0  0
    0.7878    0.2896   -5.0989 H   0  0  0  0  0  0  0  0  0  0  0  0
   -1.2733    0.7740   -6.3095 H   0  0  0  0  0  0  0  0  0  0  0  0
   -3.2031    1.6522   -5.1023 H   0  0  0  0  0  0  0  0  0  0  0  0
   -3.0985    2.0501   -2.7327 H   0  0  0  0  0  0  0  0  0  0  0  0
   -3.8686    2.0658   -0.0209 H   0  0  0  0  0  0  0  0  0  0  0  0
   -5.2305   -0.5672    0.5115 H   0  0  0  0  0  0  0  0  0  0  0  0
   -5.8231    2.4307    1.1714 H   0  0  0  0  0  0  0  0  0  0  0  0
   -5.2272    1.1619    2.2325 H   0  0  0  0  0  0  0  0  0  0  0  0
   -7.0835   -0.4622    3.2870 H   0  0  0  0  0  0  0  0  0  0  0  0
   -9.6870   -0.4006    3.3959 H   0  0  0  0  0  0  0  0  0  0  0  0
  -11.6325    1.0334    2.0854 H   0  0  0  0  0  0  0  0  0  0  0  0
  -12.0586    2.7769    0.3770 H   0  0  0  0  0  0  0  0  0  0  0  0
  -10.1355    3.8200   -0.8090 H   0  0  0  0  0  0  0  0  0  0  0  0
   -7.8307    3.0698   -0.2376 H   0  0  0  0  0  0  0  0  0  0  0  0
   -7.6793   -0.4666   -2.0732 H   0  0  0  0  0  0  0  0  0  0  0  0
   -7.5947   -0.8955   -0.3634 H   0  0  0  0  0  0  0  0  0  0  0  0
  1  2  1  0
  2  3  1  0
  2  4  1  0
  4  5  1  0
  5  6  1  0
  6  7  2  0
  6  8  2  0
  6  9  1  0
  9 10  2  0
 10 11  1  0
 11 12  2  0
 12 13  1  0
 13 14  2  0
  4 15  1  0
 15 16  2  0
 15 17  1  0
 17 18  1  0
 18 19  1  0
 19 20  1  0
 20 21  2  0
 21 22  1  0
 22 23  2  0
 23 24  1  0
 24 25  2  0
 18 26  1  0
 26 27  2  0
 26 28  1  0
 28 29  1  0
 29 30  1  0
 30 31  1  0
 31 32  2  0
 32 33  1  0
 33 34  2  0
 34 35  1  0
 35 36  2  0
 29 37  1  0
 37 38  2  0
 37 39  1  0
 39 40  1  0
 40 41  1  0
 41 42  1  0
 42 43  2  0
 43 44  1  0
 44 45  1  0
 45 46  2  0
 46 47  1  0
 47 48  2  0
 48 49  1  0
 49 50  2  0
 40 51  1  0
 51 52  1  0
 51 53  2  0
 14  9  1  0
 25 20  1  0
 36 31  1  0
 50 42  1  0
 50 45  1  0
  1 54  1  0
  1 55  1  0
  1 56  1  0
  2 57  1  0
  3 58  1  0
  3 59  1  0
  3 60  1  0
  4 61  1  6
  5 62  1  0
 10 63  1  0
 11 64  1  0
 12 65  1  0
 13 66  1  0
 14 67  1  0
 17 68  1  0
 18 69  1  1
 19 70  1  0
 19 71  1  0
 21 72  1  0
 22 73  1  0
 23 74  1  0
 24 75  1  0
 25 76  1  0
 28 77  1  0
 29 78  1  1
 30 79  1  0
 30 80  1  0
 32 81  1  0
 33 82  1  0
 34 83  1  0
 35 84  1  0
 36 85  1  0
 39 86  1  0
 40 87  1  1
 41 88  1  0
 41 89  1  0
 43 90  1  0
 44 91  1  0
 46 92  1  0
 47 93  1  0
 48 94  1  0
 49 95  1  0
 52 96  1  0
 52 97  1  0
M  END
$$$$
[H]c1nc2c([H])c(OC([H])([H])C([H])([H])C([H])([H])N3C([H])([H])C([H])([H])C([H])([H])C3([H])[H])c(OC([H])([H])[H])c([H])c2c(Oc2c([H])c([H])c(N([H])C(=O)c3nn(C([H])([H])[H])c4c([H])c([H])c([H])c([H])c4c3=O)c([H])c2F)c1[H]
     RDKit          3D

 76 81  0  0  0  0  0  0  0  0999 V2000
   -2.8290    1.3513    2.3887 C   0  0  0  0  0  0  0  0  0  0  0  0
   -3.3591    0.6994    1.3355 O   0  0  0  0  0  0  0  0  0  0  0  0
   -3.0468    0.2962    0.1257 C   0  0  0  0  0  0  0  0  0  0  0  0
   -1.8112    0.4530   -0.4252 C   0  0  0  0  0  0  0  0  0  0  0  0
   -1.5661    0.0034   -1.7213 C   0  0  0  0  0  0  0  0  0  0  0  0
   -0.2544    0.1760   -2.2357 C   0  0  0  0  0  0  0  0  0  0  0  0
    0.6418    0.7406   -1.4215 O   0  0  0  0  0  0  0  0  0  0  0  0
    1.9498    0.9371   -1.3370 C   0  0  0  0  0  0  0  0  0  0  0  0
    2.9074    0.4020   -2.1719 C   0  0  0  0  0  0  0  0  0  0  0  0
    4.2372    0.6709   -2.0069 C   0  0  0  0  0  0  0  0  0  0  0  0
    4.7097    1.5063   -0.9840 C   0  0  0  0  0  0  0  0  0  0  0  0
    5.9732    1.7985   -0.8196 N   0  0  0  0  0  0  0  0  0  0  0  0
    7.3086    2.1123   -0.6488 C   0  0  0  0  0  0  0  0  0  0  0  0
    7.8422    3.1995   -1.1537 O   0  0  0  0  0  0  0  0  0  0  0  0
    8.3199    1.3209    0.0875 C   0  0  0  0  0  0  0  0  0  0  0  0
    9.4707    1.8331    0.5122 N   0  0  0  0  0  0  0  0  0  0  0  0
   10.4147    1.1220    1.0825 N   0  0  0  0  0  0  0  0  0  0  0  0
   11.6675    1.7047    1.5539 C   0  0  0  0  0  0  0  0  0  0  0  0
   10.2088   -0.2052    1.2482 C   0  0  0  0  0  0  0  0  0  0  0  0
   11.1694   -1.0252    1.8154 C   0  0  0  0  0  0  0  0  0  0  0  0
   10.9646   -2.3664    1.9558 C   0  0  0  0  0  0  0  0  0  0  0  0
    9.7748   -2.9635    1.5334 C   0  0  0  0  0  0  0  0  0  0  0  0
    8.7985   -2.1529    0.9618 C   0  0  0  0  0  0  0  0  0  0  0  0
    9.0465   -0.8018    0.8375 C   0  0  0  0  0  0  0  0  0  0  0  0
    8.0698   -0.0200    0.2406 C   0  0  0  0  0  0  0  0  0  0  0  0
    6.9885   -0.5521   -0.1397 O   0  0  0  0  0  0  0  0  0  0  0  0
    3.7195    2.0443   -0.1345 C   0  0  0  0  0  0  0  0  0  0  0  0
    2.4052    1.7805   -0.2952 C   0  0  0  0  0  0  0  0  0  0  0  0
    1.4742    2.3134    0.5288 F   0  0  0  0  0  0  0  0  0  0  0  0
   -0.0725   -0.2893   -3.5229 C   0  0  0  0  0  0  0  0  0  0  0  0
   -1.1154   -0.8922   -4.2514 C   0  0  0  0  0  0  0  0  0  0  0  0
   -2.3176   -1.0198   -3.6848 N   0  0  0  0  0  0  0  0  0  0  0  0
   -2.5660   -0.5857   -2.4329 C   0  0  0  0  0  0  0  0  0  0  0  0
   -3.8247   -0.7427   -1.8625 C   0  0  0  0  0  0  0  0  0  0  0  0
   -4.1255   -0.3273   -0.5952 C   0  0  0  0  0  0  0  0  0  0  0  0
   -5.2651   -0.4235    0.0606 O   0  0  0  0  0  0  0  0  0  0  0  0
   -6.5353   -0.8384    0.0503 C   0  0  0  0  0  0  0  0  0  0  0  0
   -7.4962   -0.2852   -0.9224 C   0  0  0  0  0  0  0  0  0  0  0  0
   -8.8420   -0.9047   -0.8277 C   0  0  0  0  0  0  0  0  0  0  0  0
   -9.6066   -0.8738    0.3118 N   0  0  0  0  0  0  0  0  0  0  0  0
   -9.4892   -1.5233    1.5039 C   0  0  0  0  0  0  0  0  0  0  0  0
  -10.8466   -1.2646    2.2252 C   0  0  0  0  0  0  0  0  0  0  0  0
  -11.5560   -0.2477    1.3736 C   0  0  0  0  0  0  0  0  0  0  0  0
  -10.5069    0.2547    0.4198 C   0  0  0  0  0  0  0  0  0  0  0  0
   -2.5482    0.5975    3.1834 H   0  0  0  0  0  0  0  0  0  0  0  0
   -3.6902    1.9321    2.8872 H   0  0  0  0  0  0  0  0  0  0  0  0
   -2.0084    2.0923    2.2219 H   0  0  0  0  0  0  0  0  0  0  0  0
   -0.9873    0.9232    0.1237 H   0  0  0  0  0  0  0  0  0  0  0  0
    2.5976   -0.2754   -2.9654 H   0  0  0  0  0  0  0  0  0  0  0  0
    4.9974    0.2513   -2.6544 H   0  0  0  0  0  0  0  0  0  0  0  0
    5.8142    2.9350   -1.5755 H   0  0  0  0  0  0  0  0  0  0  0  0
   11.5728    2.8299    1.5480 H   0  0  0  0  0  0  0  0  0  0  0  0
   12.4325    1.3637    0.8269 H   0  0  0  0  0  0  0  0  0  0  0  0
   11.9227    1.3507    2.5497 H   0  0  0  0  0  0  0  0  0  0  0  0
   12.1043   -0.5879    2.1552 H   0  0  0  0  0  0  0  0  0  0  0  0
   11.7033   -3.0255    2.3897 H   0  0  0  0  0  0  0  0  0  0  0  0
    9.6018   -4.0403    1.6346 H   0  0  0  0  0  0  0  0  0  0  0  0
    7.8616   -2.5541    0.6082 H   0  0  0  0  0  0  0  0  0  0  0  0
    4.0885    2.7005    0.6690 H   0  0  0  0  0  0  0  0  0  0  0  0
    0.8681   -0.1579   -4.0132 H   0  0  0  0  0  0  0  0  0  0  0  0
   -0.9150   -1.2355   -5.2509 H   0  0  0  0  0  0  0  0  0  0  0  0
   -4.5493   -1.2117   -2.4820 H   0  0  0  0  0  0  0  0  0  0  0  0
   -7.0191   -0.7290    1.0775 H   0  0  0  0  0  0  0  0  0  0  0  0
   -6.5413   -1.9687   -0.0732 H   0  0  0  0  0  0  0  0  0  0  0  0
   -7.5205    0.8320   -0.9288 H   0  0  0  0  0  0  0  0  0  0  0  0
   -7.0756   -0.5222   -1.9580 H   0  0  0  0  0  0  0  0  0  0  0  0
   -9.4808   -0.4139   -1.6565 H   0  0  0  0  0  0  0  0  0  0  0  0
   -8.8176   -1.9763   -1.2167 H   0  0  0  0  0  0  0  0  0  0  0  0
   -8.7426   -1.2601    2.2647 H   0  0  0  0  0  0  0  0  0  0  0  0
   -9.3807   -2.6541    1.3930 H   0  0  0  0  0  0  0  0  0  0  0  0
  -11.3683   -2.2202    2.2901 H   0  0  0  0  0  0  0  0  0  0  0  0
  -10.6890   -0.8618    3.2339 H   0  0  0  0  0  0  0  0  0  0  0  0
  -11.9814    0.5919    1.9717 H   0  0  0  0  0  0  0  0  0  0  0  0
  -12.3790   -0.7014    0.7507 H   0  0  0  0  0  0  0  0  0  0  0  0
   -9.9917    1.1612    0.8122 H   0  0  0  0  0  0  0  0  0  0  0  0
  -10.9093    0.4199   -0.6039 H   0  0  0  0  0  0  0  0  0  0  0  0
  1  2  1  0
  2  3  1  0
  3  4  2  0
  4  5  1  0
  5  6  2  0
  6  7  1  0
  7  8  1  0
  8  9  2  0
  9 10  1  0
 10 11  2  0
 11 12  1  0
 12 13  1  0
 13 14  2  0
 13 15  1  0
 15 16  2  0
 16 17  1  0
 17 18  1  0
 17 19  1  0
 19 20  2  0
 20 21  1  0
 21 22  2  0
 22 23  1  0
 23 24  2  0
 24 25  1  0
 25 26  2  0
 11 27  1  0
 27 28  2  0
 28 29  1  0
  6 30  1  0
 30 31  2  0
 31 32  1  0
 32 33  2  0
 33 34  1  0
 34 35  2  0
 35 36  1  0
 36 37  1  0
 37 38  1  0
 38 39  1  0
 39 40  1  0
 40 41  1  0
 41 42  1  0
 42 43  1  0
 43 44  1  0
 35  3  1  0
 44 40  1  0
 33  5  1  0
 28  8  1  0
 25 15  1  0
 24 19  1  0
  1 45  1  0
  1 46  1  0
  1 47  1  0
  4 48  1  0
  9 49  1  0
 10 50  1  0
 12 51  1  0
 18 52  1  0
 18 53  1  0
 18 54  1  0
 20 55  1  0
 21 56  1  0
 22 57  1  0
 23 58  1  0
 27 59  1  0
 30 60  1  0
 31 61  1  0
 34 62  1  0
 37 63  1  0
 37 64  1  0
 38 65  1  0
 38 66  1  0
 39 67  1  0
 39 68  1  0
 41 69  1  0
 41 70  1  0
 42 71  1  0
 42 72  1  0
 43 73  1  0
 43 74  1  0
 44 75  1  0
 44 76  1  0
M  END
$$$$
[H]Oc1c([H])c([H])c(C([H])([H])[C@@]([H])(C(=O)N([H])[C@]([H])(C(=O)N([H])[C@]([H])(C(=O)N([H])[C@]([H])(C(=O)N([H])[H])C([H])([H])c2c([H])n([H])c3c([H])c([H])c([H])c([H])c23)C([H])([H])c2c([H])c([H])c([H])c([H])c2[H])[C@@]([H])(C([H])([H])[H])C([H])([H])C([H])([H])[H])N([H])[H])c([H])c1[H]
     RDKit          3D

 88 91  0  0  0  0  0  0  0  0999 V2000
   -3.1113   -0.5598   -2.8900 C   0  0  0  0  0  0  0  0  0  0  0  0
   -2.0420   -1.5235   -2.4560 C   0  0  0  0  0  0  0  0  0  0  0  0
   -2.2888   -2.2058   -1.1537 C   0  0  2  0  0  0  0  0  0  0  0  0
   -3.5806   -3.0308   -1.1536 C   0  0  0  0  0  0  0  0  0  0  0  0
   -2.1644   -1.3673    0.0709 C   0  0  2  0  0  0  0  0  0  0  0  0
   -3.0252   -0.2225    0.1484 N   0  0  0  0  0  0  0  0  0  0  0  0
   -4.1979   -0.0906    0.9256 C   0  0  0  0  0  0  0  0  0  0  0  0
   -4.5803   -1.0620    1.6606 O   0  0  0  0  0  0  0  0  0  0  0  0
   -5.0195    1.1273    0.9356 C   0  0  1  0  0  0  0  0  0  0  0  0
   -4.6082    2.0987   -0.0335 N   0  0  0  0  0  0  0  0  0  0  0  0
   -6.4791    0.7715    0.8889 C   0  0  0  0  0  0  0  0  0  0  0  0
   -7.3951    1.9105    0.8920 C   0  0  0  0  0  0  0  0  0  0  0  0
   -7.7218    2.4374   -0.3719 C   0  0  0  0  0  0  0  0  0  0  0  0
   -8.5850    3.5009   -0.4329 C   0  0  0  0  0  0  0  0  0  0  0  0
   -9.1461    4.0819    0.6474 C   0  0  0  0  0  0  0  0  0  0  0  0
  -10.0144    5.1500    0.6174 O   0  0  0  0  0  0  0  0  0  0  0  0
   -8.8222    3.5553    1.9222 C   0  0  0  0  0  0  0  0  0  0  0  0
   -7.9539    2.4852    1.9930 C   0  0  0  0  0  0  0  0  0  0  0  0
   -0.7844   -1.1695    0.4793 C   0  0  0  0  0  0  0  0  0  0  0  0
   -0.6161   -0.4441    1.5326 O   0  0  0  0  0  0  0  0  0  0  0  0
    0.3704   -1.6645   -0.1225 N   0  0  0  0  0  0  0  0  0  0  0  0
    1.6884   -1.3996    0.4453 C   0  0  1  0  0  0  0  0  0  0  0  0
    2.7478   -2.3517    0.1124 C   0  0  0  0  0  0  0  0  0  0  0  0
    2.5598   -3.7478    0.5365 C   0  0  0  0  0  0  0  0  0  0  0  0
    1.9195   -4.6611   -0.2887 C   0  0  0  0  0  0  0  0  0  0  0  0
    1.7768   -5.9907    0.0924 C   0  0  0  0  0  0  0  0  0  0  0  0
    2.2580   -6.4589    1.2928 C   0  0  0  0  0  0  0  0  0  0  0  0
    2.9021   -5.5372    2.1211 C   0  0  0  0  0  0  0  0  0  0  0  0
    3.0435   -4.2257    1.7488 C   0  0  0  0  0  0  0  0  0  0  0  0
    2.0548    0.0102    0.0649 C   0  0  0  0  0  0  0  0  0  0  0  0
    1.3868    0.6060   -0.7848 O   0  0  0  0  0  0  0  0  0  0  0  0
    3.1407    0.5755    0.7203 N   0  0  0  0  0  0  0  0  0  0  0  0
    3.5291    1.9648    0.4059 C   0  0  1  0  0  0  0  0  0  0  0  0
    4.6630    2.3448    1.2659 C   0  0  0  0  0  0  0  0  0  0  0  0
    5.9310    1.5864    1.0157 C   0  0  0  0  0  0  0  0  0  0  0  0
    6.3107    0.3728    1.5602 C   0  0  0  0  0  0  0  0  0  0  0  0
    7.5031   -0.0253    1.0194 N   0  0  0  0  0  0  0  0  0  0  0  0
    7.8719    0.9410    0.1399 C   0  0  0  0  0  0  0  0  0  0  0  0
    9.0040    1.0516   -0.6306 C   0  0  0  0  0  0  0  0  0  0  0  0
    9.1824    2.1911   -1.4297 C   0  0  0  0  0  0  0  0  0  0  0  0
    8.2241    3.1609   -1.4219 C   0  0  0  0  0  0  0  0  0  0  0  0
    7.0974    3.0662   -0.6672 C   0  0  0  0  0  0  0  0  0  0  0  0
    6.9265    1.9366    0.1221 C   0  0  0  0  0  0  0  0  0  0  0  0
    3.8235    1.9749   -1.0607 C   0  0  0  0  0  0  0  0  0  0  0  0
    3.6020    3.1401   -1.8686 N   0  0  0  0  0  0  0  0  0  0  0  0
    4.2736    0.9534   -1.6467 O   0  0  0  0  0  0  0  0  0  0  0  0
   -2.7299    0.4699   -2.7968 H   0  0  0  0  0  0  0  0  0  0  0  0
   -3.4510   -0.7044   -3.9413 H   0  0  0  0  0  0  0  0  0  0  0  0
   -3.9902   -0.6412   -2.1905 H   0  0  0  0  0  0  0  0  0  0  0  0
   -1.0538   -1.0008   -2.4792 H   0  0  0  0  0  0  0  0  0  0  0  0
   -1.9602   -2.2790   -3.2964 H   0  0  0  0  0  0  0  0  0  0  0  0
   -1.4798   -3.0160   -1.0906 H   0  0  0  0  0  0  0  0  0  0  0  0
   -4.4784   -2.4011   -1.1913 H   0  0  0  0  0  0  0  0  0  0  0  0
   -3.5475   -3.7083   -0.2909 H   0  0  0  0  0  0  0  0  0  0  0  0
   -3.4619   -3.6929   -2.0594 H   0  0  0  0  0  0  0  0  0  0  0  0
   -2.6673   -2.0735    0.8871 H   0  0  0  0  0  0  0  0  0  0  0  0
   -2.7530    0.6285   -0.4313 H   0  0  0  0  0  0  0  0  0  0  0  0
   -4.8880    1.6385    1.9429 H   0  0  0  0  0  0  0  0  0  0  0  0
   -4.9268    1.8785   -1.0053 H   0  0  0  0  0  0  0  0  0  0  0  0
   -4.9267    3.0665    0.1488 H   0  0  0  0  0  0  0  0  0  0  0  0
   -6.6257    0.1928   -0.0571 H   0  0  0  0  0  0  0  0  0  0  0  0
   -6.6607    0.0579    1.7301 H   0  0  0  0  0  0  0  0  0  0  0  0
   -7.3087    2.0213   -1.2690 H   0  0  0  0  0  0  0  0  0  0  0  0
   -8.8433    3.9133   -1.4267 H   0  0  0  0  0  0  0  0  0  0  0  0
  -10.4091    5.5514    1.4310 H   0  0  0  0  0  0  0  0  0  0  0  0
   -9.2380    3.9687    2.8125 H   0  0  0  0  0  0  0  0  0  0  0  0
   -7.6945    2.0662    2.9842 H   0  0  0  0  0  0  0  0  0  0  0  0
    0.3499   -2.2270   -0.9787 H   0  0  0  0  0  0  0  0  0  0  0  0
    1.5037   -1.3176    1.5588 H   0  0  0  0  0  0  0  0  0  0  0  0
    3.7129   -2.0212    0.6099 H   0  0  0  0  0  0  0  0  0  0  0  0
    2.9970   -2.3835   -0.9817 H   0  0  0  0  0  0  0  0  0  0  0  0
    1.5418   -4.3168   -1.2266 H   0  0  0  0  0  0  0  0  0  0  0  0
    1.2760   -6.6734   -0.5763 H   0  0  0  0  0  0  0  0  0  0  0  0
    2.1571   -7.4872    1.6034 H   0  0  0  0  0  0  0  0  0  0  0  0
    3.2940   -5.9251    3.0614 H   0  0  0  0  0  0  0  0  0  0  0  0
    3.5495   -3.5627    2.4418 H   0  0  0  0  0  0  0  0  0  0  0  0
    3.6814    0.0699    1.4104 H   0  0  0  0  0  0  0  0  0  0  0  0
    2.6498    2.6021    0.5245 H   0  0  0  0  0  0  0  0  0  0  0  0
    4.3351    2.1336    2.3346 H   0  0  0  0  0  0  0  0  0  0  0  0
    4.8644    3.4133    1.2323 H   0  0  0  0  0  0  0  0  0  0  0  0
    5.8003   -0.2028    2.3042 H   0  0  0  0  0  0  0  0  0  0  0  0
    8.0101   -0.8858    1.2267 H   0  0  0  0  0  0  0  0  0  0  0  0
    9.7785    0.3147   -0.6807 H   0  0  0  0  0  0  0  0  0  0  0  0
   10.0712    2.2938   -2.0382 H   0  0  0  0  0  0  0  0  0  0  0  0
    8.3629    4.0462   -2.0363 H   0  0  0  0  0  0  0  0  0  0  0  0
    6.3143    3.8145   -0.6286 H   0  0  0  0  0  0  0  0  0  0  0  0
    4.4812    3.5515   -2.2684 H   0  0  0  0  0  0  0  0  0  0  0  0
    2.7087    3.5708   -2.0749 H   0  0  0  0  0  0  0  0  0  0  0  0
  1  2  1  0
  2  3  1  0
  3  4  1  0
  3  5  1  0
  5  6  1  0
  6  7  1  0
  7  8  2  0
  7  9  1  0
  9 10  1  0
  9 11  1  0
 11 12  1  0
 12 13  2  0
 13 14  1  0
 14 15  2  0
 15 16  1  0
 15 17  1  0
 17 18  2  0
  5 19  1  0
 19 20  2  0
 19 21  1  0
 21 22  1  0
 22 23  1  0
 23 24  1  0
 24 25  2  0
 25 26  1  0
 26 27  2  0
 27 28  1  0
 28 29  2  0
 22 30  1  0
 30 31  2  0
 30 32  1  0
 32 33  1  0
 33 34  1  0
 34 35  1  0
 35 36  2  0
 36 37  1  0
 37 38  1  0
 38 39  2  0
 39 40  1  0
 40 41  2  0
 41 42  1  0
 42 43  2  0
 33 44  1  0
 44 45  1  0
 44 46  2  0
 18 12  1  0
 29 24  1  0
 43 35  1  0
 43 38  1  0
  1 47  1  0
  1 48  1  0
  1 49  1  0
  2 50  1  0
  2 51  1  0
  3 52  1  1
  4 53  1  0
  4 54  1  0
  4 55  1  0
  5 56  1  1
  6 57  1  0
  9 58  1  1
 10 59  1  0
 10 60  1  0
 11 61  1  0
 11 62  1  0
 13 63  1  0
 14 64  1  0
 16 65  1  0
 17 66  1  0
 18 67  1  0
 21 68  1  0
 22 69  1  1
 23 70  1  0
 23 71  1  0
 25 72  1  0
 26 73  1  0
 27 74  1  0
 28 75  1  0
 29 76  1  0
 32 77  1  0
 33 78  1  6
 34 79  1  0
 34 80  1  0
 36 81  1  0
 37 82  1  0
 39 83  1  0
 40 84  1  0
 41 85  1  0
 42 86  1  0
 45 87  1  0
 45 88  1  0
M  END
$$$$
[H]N=C(N([H])[H])N([H])C([H])([H])C([H])([H])C([H])([H])[C@@]([H])(C(=O)N([H])[C@]([H])(C(=O)N([H])[H])C([H])([H])c1c([H])c([H])c([H])c([H])c1[H])N([H])C(=O)[C@@]([H])(N([H])[C@]([H])(C(=O)O[H])C([H])([H])[H])C([H])([H])c1c([H])c([H])c([H])c([H])c1[H]
     RDKit          3D

 76 77  0  0  0  0  0  0  0  0999 V2000
   -5.9894    1.4721   -1.7680 C   0  0  0  0  0  0  0  0  0  0  0  0
   -5.1635    0.6148   -2.7318 C   0  0  2  0  0  0  0  0  0  0  0  0
   -3.8034    0.7369   -2.3856 N   0  0  0  0  0  0  0  0  0  0  0  0
   -3.4148    0.2696   -1.0634 C   0  0  1  0  0  0  0  0  0  0  0  0
   -3.6524   -1.1786   -0.8976 C   0  0  0  0  0  0  0  0  0  0  0  0
   -3.3270   -1.8516    0.3350 C   0  0  0  0  0  0  0  0  0  0  0  0
   -2.1495   -2.5750    0.5101 C   0  0  0  0  0  0  0  0  0  0  0  0
   -1.8287   -3.2170    1.6824 C   0  0  0  0  0  0  0  0  0  0  0  0
   -2.6984   -3.1541    2.7469 C   0  0  0  0  0  0  0  0  0  0  0  0
   -3.8738   -2.4551    2.6311 C   0  0  0  0  0  0  0  0  0  0  0  0
   -4.1604   -1.8280    1.4468 C   0  0  0  0  0  0  0  0  0  0  0  0
   -2.0456    0.7401   -0.8325 C   0  0  0  0  0  0  0  0  0  0  0  0
   -1.4131    1.2689   -1.8305 O   0  0  0  0  0  0  0  0  0  0  0  0
   -1.3265    0.6874    0.3749 N   0  0  0  0  0  0  0  0  0  0  0  0
    0.0637    1.1975    0.5058 C   0  0  1  0  0  0  0  0  0  0  0  0
    0.1384    2.1074    1.6529 C   0  0  0  0  0  0  0  0  0  0  0  0
    1.4444    2.8102    1.8568 C   0  0  0  0  0  0  0  0  0  0  0  0
    1.7366    3.6502    0.6085 C   0  0  0  0  0  0  0  0  0  0  0  0
    0.7040    4.6319    0.4642 N   0  0  0  0  0  0  0  0  0  0  0  0
    0.7529    5.4829   -0.6715 C   0  0  0  0  0  0  0  0  0  0  0  0
    0.9278    6.8783   -0.5748 N   0  0  0  0  0  0  0  0  0  0  0  0
    0.6307    4.9442   -1.8384 N   0  0  0  0  0  0  0  0  0  0  0  0
    0.9682    0.0665    0.4054 C   0  0  0  0  0  0  0  0  0  0  0  0
    0.7125   -0.7119   -0.6048 O   0  0  0  0  0  0  0  0  0  0  0  0
    2.0356   -0.2963    1.2196 N   0  0  0  0  0  0  0  0  0  0  0  0
    2.8353   -1.5278    0.8964 C   0  0  1  0  0  0  0  0  0  0  0  0
    4.2342   -1.0903    0.5655 C   0  0  0  0  0  0  0  0  0  0  0  0
    5.1450   -2.1906    0.2134 C   0  0  0  0  0  0  0  0  0  0  0  0
    5.1767   -2.6754   -1.1008 C   0  0  0  0  0  0  0  0  0  0  0  0
    6.0228   -3.6783   -1.5043 C   0  0  0  0  0  0  0  0  0  0  0  0
    6.8930   -4.2518   -0.5902 C   0  0  0  0  0  0  0  0  0  0  0  0
    6.8875   -3.8041    0.6943 C   0  0  0  0  0  0  0  0  0  0  0  0
    6.0299   -2.7964    1.0784 C   0  0  0  0  0  0  0  0  0  0  0  0
    2.6960   -2.4886    1.9804 C   0  0  0  0  0  0  0  0  0  0  0  0
    3.2323   -3.7954    1.9464 N   0  0  0  0  0  0  0  0  0  0  0  0
    2.0493   -2.1613    3.0434 O   0  0  0  0  0  0  0  0  0  0  0  0
   -5.3369    1.2709   -4.0729 C   0  0  0  0  0  0  0  0  0  0  0  0
   -6.6134    1.2733   -4.6330 O   0  0  0  0  0  0  0  0  0  0  0  0
   -4.3852    1.8084   -4.6949 O   0  0  0  0  0  0  0  0  0  0  0  0
   -5.3539    2.2504   -1.3043 H   0  0  0  0  0  0  0  0  0  0  0  0
   -6.8654    1.9058   -2.2881 H   0  0  0  0  0  0  0  0  0  0  0  0
   -6.3503    0.8375   -0.9056 H   0  0  0  0  0  0  0  0  0  0  0  0
   -5.5929   -0.3796   -2.7088 H   0  0  0  0  0  0  0  0  0  0  0  0
   -3.4417    1.7121   -2.4570 H   0  0  0  0  0  0  0  0  0  0  0  0
   -4.0634    0.8344   -0.3358 H   0  0  0  0  0  0  0  0  0  0  0  0
   -3.0021   -1.6809   -1.6948 H   0  0  0  0  0  0  0  0  0  0  0  0
   -4.6854   -1.4795   -1.2906 H   0  0  0  0  0  0  0  0  0  0  0  0
   -1.4363   -2.6413   -0.3268 H   0  0  0  0  0  0  0  0  0  0  0  0
   -0.9150   -3.7809    1.8233 H   0  0  0  0  0  0  0  0  0  0  0  0
   -2.4795   -3.6519    3.7001 H   0  0  0  0  0  0  0  0  0  0  0  0
   -4.6046   -2.3663    3.4360 H   0  0  0  0  0  0  0  0  0  0  0  0
   -5.0745   -1.2817    1.3502 H   0  0  0  0  0  0  0  0  0  0  0  0
   -1.7672    0.3066    1.2260 H   0  0  0  0  0  0  0  0  0  0  0  0
    0.2073    1.7732   -0.4673 H   0  0  0  0  0  0  0  0  0  0  0  0
   -0.1431    1.5503    2.6160 H   0  0  0  0  0  0  0  0  0  0  0  0
   -0.6553    2.9114    1.5763 H   0  0  0  0  0  0  0  0  0  0  0  0
    2.3162    2.2173    2.0303 H   0  0  0  0  0  0  0  0  0  0  0  0
    1.3617    3.5057    2.7453 H   0  0  0  0  0  0  0  0  0  0  0  0
    2.7421    4.1373    0.7153 H   0  0  0  0  0  0  0  0  0  0  0  0
    1.8139    3.0143   -0.2840 H   0  0  0  0  0  0  0  0  0  0  0  0
   -0.0430    4.7227    1.1678 H   0  0  0  0  0  0  0  0  0  0  0  0
    1.4686    7.2784    0.2042 H   0  0  0  0  0  0  0  0  0  0  0  0
    0.5094    7.4990   -1.2916 H   0  0  0  0  0  0  0  0  0  0  0  0
    0.6527    5.4748   -2.7247 H   0  0  0  0  0  0  0  0  0  0  0  0
    2.3869    0.1414    2.0837 H   0  0  0  0  0  0  0  0  0  0  0  0
    2.3764   -1.9406   -0.0183 H   0  0  0  0  0  0  0  0  0  0  0  0
    4.2352   -0.3114   -0.2409 H   0  0  0  0  0  0  0  0  0  0  0  0
    4.7007   -0.5557    1.4396 H   0  0  0  0  0  0  0  0  0  0  0  0
    4.4853   -2.2080   -1.7954 H   0  0  0  0  0  0  0  0  0  0  0  0
    6.0461   -4.0512   -2.5181 H   0  0  0  0  0  0  0  0  0  0  0  0
    7.5534   -5.0460   -0.9350 H   0  0  0  0  0  0  0  0  0  0  0  0
    7.5435   -4.2141    1.4485 H   0  0  0  0  0  0  0  0  0  0  0  0
    6.0484   -2.4594    2.1137 H   0  0  0  0  0  0  0  0  0  0  0  0
    3.5966   -4.2672    2.8017 H   0  0  0  0  0  0  0  0  0  0  0  0
    3.2785   -4.3363    1.0408 H   0  0  0  0  0  0  0  0  0  0  0  0
   -6.9839    0.3956   -4.9954 H   0  0  0  0  0  0  0  0  0  0  0  0
  1  2  1  0
  2  3  1  0
  3  4  1  0
  4  5  1  0
  5  6  1  0
  6  7  2  0
  7  8  1  0
  8  9  2  0
  9 10  1  0
 10 11  2  0
  4 12  1  0
 12 13  2  0
 12 14  1  0
 14 15  1  0
 15 16  1  0
 16 17  1  0
 17 18  1  0
 18 19  1  0
 19 20  1  0
 20 21  1  0
 20 22  2  3
 15 23  1  0
 23 24  2  0
 23 25  1  0
 25 26  1  0
 26 27  1  0
 27 28  1  0
 28 29  2  0
 29 30  1  0
 30 31  2  0
 31 32  1  0
 32 33  2  0
 26 34  1  0
 34 35  1  0
 34 36  2  0
  2 37  1  0
 37 38  1  0
 37 39  2  0
 11  6  1  0
 33 28  1  0
  1 40  1  0
  1 41  1  0
  1 42  1  0
  2 43  1  6
  3 44  1  0
  4 45  1  1
  5 46  1  0
  5 47  1  0
  7 48  1  0
  8 49  1  0
  9 50  1  0
 10 51  1  0
 11 52  1  0
 14 53  1  0
 15 54  1  6
 16 55  1  0
 16 56  1  0
 17 57  1  0
 17 58  1  0
 18 59  1  0
 18 60  1  0
 19 61  1  0
 21 62  1  0
 21 63  1  0
 22 64  1  0
 25 65  1  0
 26 66  1  6
 27 67  1  0
 27 68  1  0
 29 69  1  0
 30 70  1  0
 31 71  1  0
 32 72  1  0
 33 73  1  0
 35 74  1  0
 35 75  1  0
 38 76  1  0
M  END
$$$$
[H]c1nc(N([H])c2c([H])c([H])c(N3C([H])([H])C([H])([H])C(C([H])([H])[H])(C([H])([H])[H])C([H])([H])C3([H])[H])c([H])c2OC([H])([H])[H])nc(N([H])c2c([H])c([H])c([H])c([H])c2S(=O)(=O)C([H])(C([H])([H])[H])C([H])([H])[H])c1Cl
     RDKit          3D

 71 74  0  0  0  0  0  0  0  0999 V2000
    1.9944   -3.7904    0.5854 C   0  0  0  0  0  0  0  0  0  0  0  0
    1.2278   -2.7107    0.1386 O   0  0  0  0  0  0  0  0  0  0  0  0
    1.8521   -1.5385   -0.2350 C   0  0  0  0  0  0  0  0  0  0  0  0
    3.2190   -1.4345   -0.1681 C   0  0  0  0  0  0  0  0  0  0  0  0
    3.9146   -0.2883   -0.5267 C   0  0  0  0  0  0  0  0  0  0  0  0
    3.1447    0.7558   -0.9606 C   0  0  0  0  0  0  0  0  0  0  0  0
    1.7440    0.6537   -1.0311 C   0  0  0  0  0  0  0  0  0  0  0  0
    1.0600   -0.4700   -0.6796 C   0  0  0  0  0  0  0  0  0  0  0  0
   -0.3188   -0.6803   -0.7095 N   0  0  0  0  0  0  0  0  0  0  0  0
   -1.3023    0.2466   -1.1182 C   0  0  0  0  0  0  0  0  0  0  0  0
   -1.0645    1.4886   -1.5468 N   0  0  0  0  0  0  0  0  0  0  0  0
   -2.0232    2.3225   -1.9207 C   0  0  0  0  0  0  0  0  0  0  0  0
   -3.3413    1.9438   -1.8860 C   0  0  0  0  0  0  0  0  0  0  0  0
   -4.6232    3.0142   -2.3829 Cl  0  0  0  0  0  0  0  0  0  0  0  0
   -3.6291    0.6314   -1.4355 C   0  0  0  0  0  0  0  0  0  0  0  0
   -4.9895    0.2657   -1.3576 N   0  0  0  0  0  0  0  0  0  0  0  0
   -5.5057   -0.9834   -1.0027 C   0  0  0  0  0  0  0  0  0  0  0  0
   -4.7086   -2.1166   -1.1747 C   0  0  0  0  0  0  0  0  0  0  0  0
   -5.2495   -3.3642   -0.9514 C   0  0  0  0  0  0  0  0  0  0  0  0
   -6.5465   -3.5462   -0.5655 C   0  0  0  0  0  0  0  0  0  0  0  0
   -7.3178   -2.4335   -0.3991 C   0  0  0  0  0  0  0  0  0  0  0  0
   -6.8174   -1.1421   -0.6106 C   0  0  0  0  0  0  0  0  0  0  0  0
   -7.8588    0.2064   -0.2546 S   0  0  0  0  0  0  0  0  0  0  0  0
   -7.9605    1.2063   -1.3775 O   0  0  0  0  0  0  0  0  0  0  0  0
   -9.3083   -0.3468   -0.1375 O   0  0  0  0  0  0  0  0  0  0  0  0
   -7.4599    1.0523    1.2295 C   0  0  0  0  0  0  0  0  0  0  0  0
   -8.6147    2.0679    1.4515 C   0  0  0  0  0  0  0  0  0  0  0  0
   -6.2109    1.8398    1.2567 C   0  0  0  0  0  0  0  0  0  0  0  0
   -2.6081   -0.1147   -1.0885 N   0  0  0  0  0  0  0  0  0  0  0  0
    5.3189   -0.2183   -0.4263 N   0  0  0  0  0  0  0  0  0  0  0  0
    6.0574    0.7540   -1.1968 C   0  0  0  0  0  0  0  0  0  0  0  0
    6.7097    1.7364   -0.2564 C   0  0  0  0  0  0  0  0  0  0  0  0
    7.4724    1.0476    0.8473 C   0  0  0  0  0  0  0  0  0  0  0  0
    8.8797    0.7405    0.3248 C   0  0  0  0  0  0  0  0  0  0  0  0
    7.6547    2.0679    1.9579 C   0  0  0  0  0  0  0  0  0  0  0  0
    6.8118   -0.1479    1.4206 C   0  0  0  0  0  0  0  0  0  0  0  0
    6.1267   -1.0588    0.4318 C   0  0  0  0  0  0  0  0  0  0  0  0
    1.3448   -4.6017    0.9855 H   0  0  0  0  0  0  0  0  0  0  0  0
    2.6037   -4.2550   -0.2221 H   0  0  0  0  0  0  0  0  0  0  0  0
    2.6890   -3.5135    1.4181 H   0  0  0  0  0  0  0  0  0  0  0  0
    3.8368   -2.2779    0.1764 H   0  0  0  0  0  0  0  0  0  0  0  0
    3.6052    1.7025   -1.2581 H   0  0  0  0  0  0  0  0  0  0  0  0
    1.2189    1.5177   -1.3816 H   0  0  0  0  0  0  0  0  0  0  0  0
   -0.7252   -1.6293   -0.3991 H   0  0  0  0  0  0  0  0  0  0  0  0
   -1.8423    3.3382   -2.2723 H   0  0  0  0  0  0  0  0  0  0  0  0
   -5.7029    1.0016   -1.6199 H   0  0  0  0  0  0  0  0  0  0  0  0
   -3.6800   -2.0825   -1.4977 H   0  0  0  0  0  0  0  0  0  0  0  0
   -4.6347   -4.2436   -1.0829 H   0  0  0  0  0  0  0  0  0  0  0  0
   -6.9542   -4.5442   -0.3957 H   0  0  0  0  0  0  0  0  0  0  0  0
   -8.3489   -2.5436   -0.0940 H   0  0  0  0  0  0  0  0  0  0  0  0
   -7.4880    0.3390    2.1139 H   0  0  0  0  0  0  0  0  0  0  0  0
   -9.5465    1.4558    1.4501 H   0  0  0  0  0  0  0  0  0  0  0  0
   -8.5757    2.7350    0.5772 H   0  0  0  0  0  0  0  0  0  0  0  0
   -8.4537    2.5761    2.4150 H   0  0  0  0  0  0  0  0  0  0  0  0
   -6.2164    2.5512    2.1452 H   0  0  0  0  0  0  0  0  0  0  0  0
   -5.3058    1.2066    1.4598 H   0  0  0  0  0  0  0  0  0  0  0  0
   -6.0496    2.4719    0.3626 H   0  0  0  0  0  0  0  0  0  0  0  0
    5.4181    1.2985   -1.9028 H   0  0  0  0  0  0  0  0  0  0  0  0
    6.8320    0.2166   -1.8197 H   0  0  0  0  0  0  0  0  0  0  0  0
    7.4397    2.3290   -0.8452 H   0  0  0  0  0  0  0  0  0  0  0  0
    5.9479    2.4349    0.1243 H   0  0  0  0  0  0  0  0  0  0  0  0
    9.5671    1.5905    0.5216 H   0  0  0  0  0  0  0  0  0  0  0  0
    8.8622    0.6158   -0.7916 H   0  0  0  0  0  0  0  0  0  0  0  0
    9.2954   -0.1423    0.8369 H   0  0  0  0  0  0  0  0  0  0  0  0
    8.3148    1.6209    2.7328 H   0  0  0  0  0  0  0  0  0  0  0  0
    6.6543    2.2193    2.4306 H   0  0  0  0  0  0  0  0  0  0  0  0
    8.0042    3.0391    1.5860 H   0  0  0  0  0  0  0  0  0  0  0  0
    7.6142   -0.7751    1.9088 H   0  0  0  0  0  0  0  0  0  0  0  0
    6.1032    0.0948    2.2467 H   0  0  0  0  0  0  0  0  0  0  0  0
    6.8759   -1.6113   -0.1697 H   0  0  0  0  0  0  0  0  0  0  0  0
    5.5671   -1.7908    1.0115 H   0  0  0  0  0  0  0  0  0  0  0  0
  1  2  1  0
  2  3  1  0
  3  4  2  0
  4  5  1  0
  5  6  2  0
  6  7  1  0
  7  8  2  0
  8  9  1  0
  9 10  1  0
 10 11  2  0
 11 12  1  0
 12 13  2  0
 13 14  1  0
 13 15  1  0
 15 16  1  0
 16 17  1  0
 17 18  2  0
 18 19  1  0
 19 20  2  0
 20 21  1  0
 21 22  2  0
 22 23  1  0
 23 24  2  0
 23 25  2  0
 23 26  1  0
 26 27  1  0
 26 28  1  0
 15 29  2  0
  5 30  1  0
 30 31  1  0
 31 32  1  0
 32 33  1  0
 33 34  1  0
 33 35  1  0
 33 36  1  0
 36 37  1  0
  8  3  1  0
 29 10  1  0
 37 30  1  0
 22 17  1  0
  1 38  1  0
  1 39  1  0
  1 40  1  0
  4 41  1  0
  6 42  1  0
  7 43  1  0
  9 44  1  0
 12 45  1  0
 16 46  1  0
 18 47  1  0
 19 48  1  0
 20 49  1  0
 21 50  1  0
 26 51  1  0
 27 52  1  0
 27 53  1  0
 27 54  1  0
 28 55  1  0
 28 56  1  0
 28 57  1  0
 31 58  1  0
 31 59  1  0
 32 60  1  0
 32 61  1  0
 34 62  1  0
 34 63  1  0
 34 64  1  0
 35 65  1  0
 35 66  1  0
 35 67  1  0
 36 68  1  0
 36 69  1  0
 37 70  1  0
 37 71  1  0
M  END
$$$$
[H]c1c([H])c(C(=O)N2C([H])([H])C([H])([H])N(S(=O)(=O)c3c([H])c([H])c(-c4c([H])c([H])c(OC([H])([H])[H])c([H])c4[H])c([H])c3[H])C([H])([H])C2([H])[H])c([H])c([H])c1C#N
     RDKit          3D

 56 59  0  0  0  0  0  0  0  0999 V2000
   10.3319   -0.8429    1.1352 C   0  0  0  0  0  0  0  0  0  0  0  0
    9.3678   -1.5536    0.3988 O   0  0  0  0  0  0  0  0  0  0  0  0
    8.0628   -1.1421    0.2121 C   0  0  0  0  0  0  0  0  0  0  0  0
    7.5107    0.0052    0.7084 C   0  0  0  0  0  0  0  0  0  0  0  0
    6.1907    0.3459    0.4749 C   0  0  0  0  0  0  0  0  0  0  0  0
    5.3983   -0.4895   -0.2800 C   0  0  0  0  0  0  0  0  0  0  0  0
    5.9457   -1.6449   -0.7826 C   0  0  0  0  0  0  0  0  0  0  0  0
    7.2438   -1.9624   -0.5425 C   0  0  0  0  0  0  0  0  0  0  0  0
    3.9951   -0.1342   -0.5335 C   0  0  0  0  0  0  0  0  0  0  0  0
    3.6025    1.1840   -0.6360 C   0  0  0  0  0  0  0  0  0  0  0  0
    2.2848    1.5157   -0.8759 C   0  0  0  0  0  0  0  0  0  0  0  0
    1.2952    0.5542   -1.0252 C   0  0  0  0  0  0  0  0  0  0  0  0
    1.6907   -0.7622   -0.9220 C   0  0  0  0  0  0  0  0  0  0  0  0
    3.0244   -1.1015   -0.6792 C   0  0  0  0  0  0  0  0  0  0  0  0
   -0.3653    1.0195   -1.3318 S   0  0  0  0  0  0  0  0  0  0  0  0
   -1.0817   -0.0427   -2.1420 O   0  0  0  0  0  0  0  0  0  0  0  0
   -0.4378    2.2884   -2.1550 O   0  0  0  0  0  0  0  0  0  0  0  0
   -1.2571    1.2655    0.0912 N   0  0  0  0  0  0  0  0  0  0  0  0
   -1.4050    0.1447    0.9496 C   0  0  0  0  0  0  0  0  0  0  0  0
   -2.6256    0.3678    1.8197 C   0  0  0  0  0  0  0  0  0  0  0  0
   -3.8286    0.5007    0.9518 N   0  0  0  0  0  0  0  0  0  0  0  0
   -3.7114    1.2780   -0.2360 C   0  0  0  0  0  0  0  0  0  0  0  0
   -2.3979    2.0724   -0.1342 C   0  0  0  0  0  0  0  0  0  0  0  0
   -4.9862   -0.1313    1.4020 C   0  0  0  0  0  0  0  0  0  0  0  0
   -4.8215   -0.7281    2.5646 O   0  0  0  0  0  0  0  0  0  0  0  0
   -6.3055   -0.2400    0.8277 C   0  0  0  0  0  0  0  0  0  0  0  0
   -7.3046   -0.8285    1.6182 C   0  0  0  0  0  0  0  0  0  0  0  0
   -8.5661   -0.9905    1.1368 C   0  0  0  0  0  0  0  0  0  0  0  0
   -8.9441   -0.6000   -0.1252 C   0  0  0  0  0  0  0  0  0  0  0  0
   -7.9636   -0.0249   -0.8961 C   0  0  0  0  0  0  0  0  0  0  0  0
   -6.6453    0.1558   -0.4234 C   0  0  0  0  0  0  0  0  0  0  0  0
  -10.2879   -0.7952   -0.5793 C   0  0  0  0  0  0  0  0  0  0  0  0
  -11.3645   -0.9718   -0.9523 N   0  0  0  0  0  0  0  0  0  0  0  0
   11.1518   -1.5481    1.3726 H   0  0  0  0  0  0  0  0  0  0  0  0
    9.9438   -0.4271    2.0848 H   0  0  0  0  0  0  0  0  0  0  0  0
   10.7850   -0.0834    0.4616 H   0  0  0  0  0  0  0  0  0  0  0  0
    8.1461    0.6451    1.2960 H   0  0  0  0  0  0  0  0  0  0  0  0
    5.7848    1.2811    0.8938 H   0  0  0  0  0  0  0  0  0  0  0  0
    5.2920   -2.2871   -1.3777 H   0  0  0  0  0  0  0  0  0  0  0  0
    7.6392   -2.9026   -0.9673 H   0  0  0  0  0  0  0  0  0  0  0  0
    4.3507    1.9753   -0.5244 H   0  0  0  0  0  0  0  0  0  0  0  0
    1.9649    2.5540   -0.9587 H   0  0  0  0  0  0  0  0  0  0  0  0
    0.9424   -1.5451   -1.0339 H   0  0  0  0  0  0  0  0  0  0  0  0
    3.3162   -2.1481   -0.6010 H   0  0  0  0  0  0  0  0  0  0  0  0
   -0.5361    0.0039    1.5964 H   0  0  0  0  0  0  0  0  0  0  0  0
   -1.6275   -0.7423    0.3177 H   0  0  0  0  0  0  0  0  0  0  0  0
   -2.5269    1.3258    2.3493 H   0  0  0  0  0  0  0  0  0  0  0  0
   -2.8174   -0.4264    2.5416 H   0  0  0  0  0  0  0  0  0  0  0  0
   -3.6549    0.7396   -1.1809 H   0  0  0  0  0  0  0  0  0  0  0  0
   -4.4875    2.0887   -0.2308 H   0  0  0  0  0  0  0  0  0  0  0  0
   -2.5065    2.8816    0.6259 H   0  0  0  0  0  0  0  0  0  0  0  0
   -2.2978    2.5910   -1.1089 H   0  0  0  0  0  0  0  0  0  0  0  0
   -7.0458   -1.1414    2.6058 H   0  0  0  0  0  0  0  0  0  0  0  0
   -9.3291   -1.4466    1.7566 H   0  0  0  0  0  0  0  0  0  0  0  0
   -8.1873    0.3024   -1.8889 H   0  0  0  0  0  0  0  0  0  0  0  0
   -5.9448    0.5983   -1.1072 H   0  0  0  0  0  0  0  0  0  0  0  0
  1  2  1  0
  2  3  1  0
  3  4  2  0
  4  5  1  0
  5  6  2  0
  6  7  1  0
  7  8  2  0
  6  9  1  0
  9 10  2  0
 10 11  1  0
 11 12  2  0
 12 13  1  0
 13 14  2  0
 12 15  1  0
 15 16  2  0
 15 17  2  0
 15 18  1  0
 18 19  1  0
 19 20  1  0
 20 21  1  0
 21 22  1  0
 22 23  1  0
 21 24  1  0
 24 25  2  0
 24 26  1  0
 26 27  2  0
 27 28  1  0
 28 29  2  0
 29 30  1  0
 30 31  2  0
 29 32  1  0
 32 33  3  0
  8  3  1  0
 14  9  1  0
 23 18  1  0
 31 26  1  0
  1 34  1  0
  1 35  1  0
  1 36  1  0
  4 37  1  0
  5 38  1  0
  7 39  1  0
  8 40  1  0
 10 41  1  0
 11 42  1  0
 13 43  1  0
 14 44  1  0
 19 45  1  0
 19 46  1  0
 20 47  1  0
 20 48  1  0
 22 49  1  0
 22 50  1  0
 23 51  1  0
 23 52  1  0
 27 53  1  0
 28 54  1  0
 30 55  1  0
 31 56  1  0
M  END
$$$$
[H]O[C@]1([H])C([H])([H])[C@]([H])(N([H])C(=O)[C@@]([H])(N([H])C(=O)c2c([H])c([H])c(-c3c([H])c([H])c(S(=O)(=O)C([H])([H])[H])c([H])c3[H])c([H])c2[H])C([H])(C([H])([H])[H])C([H])([H])[H])C1([H])[H]
     RDKit          3D

 59 61  0  0  0  0  0  0  0  0999 V2000
   -4.8172   -0.7720   -2.3502 C   0  0  0  0  0  0  0  0  0  0  0  0
   -3.4041   -0.8505   -1.9071 C   0  0  0  0  0  0  0  0  0  0  0  0
   -3.0032   -2.2285   -1.4297 C   0  0  0  0  0  0  0  0  0  0  0  0
   -3.0490    0.1364   -0.8009 C   0  0  2  0  0  0  0  0  0  0  0  0
   -1.6145   -0.1386   -0.5647 N   0  0  0  0  0  0  0  0  0  0  0  0
   -0.6878    0.8585   -0.8803 C   0  0  0  0  0  0  0  0  0  0  0  0
   -1.0932    1.9795   -1.3635 O   0  0  0  0  0  0  0  0  0  0  0  0
    0.7553    0.7395   -0.7052 C   0  0  0  0  0  0  0  0  0  0  0  0
    1.2476   -0.4132   -0.1251 C   0  0  0  0  0  0  0  0  0  0  0  0
    2.6273   -0.5364    0.0440 C   0  0  0  0  0  0  0  0  0  0  0  0
    3.5214    0.4341   -0.3388 C   0  0  0  0  0  0  0  0  0  0  0  0
    2.9879    1.5822   -0.9200 C   0  0  0  0  0  0  0  0  0  0  0  0
    1.6323    1.7249   -1.0963 C   0  0  0  0  0  0  0  0  0  0  0  0
    4.9400    0.2201   -0.1236 C   0  0  0  0  0  0  0  0  0  0  0  0
    5.8807    0.7706   -0.9954 C   0  0  0  0  0  0  0  0  0  0  0  0
    7.2307    0.5755   -0.7997 C   0  0  0  0  0  0  0  0  0  0  0  0
    7.7160   -0.1655    0.2561 C   0  0  0  0  0  0  0  0  0  0  0  0
    6.7872   -0.7145    1.1249 C   0  0  0  0  0  0  0  0  0  0  0  0
    5.4364   -0.5194    0.9290 C   0  0  0  0  0  0  0  0  0  0  0  0
    9.4454   -0.4051    0.4918 S   0  0  0  0  0  0  0  0  0  0  0  0
   10.0371    0.9336    1.5108 C   0  0  0  0  0  0  0  0  0  0  0  0
    9.6787   -1.7132    1.1839 O   0  0  0  0  0  0  0  0  0  0  0  0
   10.1273   -0.3484   -0.8529 O   0  0  0  0  0  0  0  0  0  0  0  0
   -3.8003   -0.0974    0.4491 C   0  0  0  0  0  0  0  0  0  0  0  0
   -3.2187   -0.5891    1.4488 O   0  0  0  0  0  0  0  0  0  0  0  0
   -5.1599    0.2206    0.5525 N   0  0  0  0  0  0  0  0  0  0  0  0
   -5.9515    0.0083    1.7497 C   0  0  2  0  0  0  0  0  0  0  0  0
   -7.3012   -0.6118    1.5322 C   0  0  0  0  0  0  0  0  0  0  0  0
   -7.9564    0.7592    1.5105 C   0  0  2  0  0  0  0  0  0  0  0  0
   -8.2110    1.1853    0.2142 O   0  0  0  0  0  0  0  0  0  0  0  0
   -6.6626    1.3087    2.1110 C   0  0  0  0  0  0  0  0  0  0  0  0
   -5.5198   -1.2367   -1.6356 H   0  0  0  0  0  0  0  0  0  0  0  0
   -5.1164    0.2822   -2.5003 H   0  0  0  0  0  0  0  0  0  0  0  0
   -4.9457   -1.2302   -3.3791 H   0  0  0  0  0  0  0  0  0  0  0  0
   -2.7535   -0.6247   -2.7794 H   0  0  0  0  0  0  0  0  0  0  0  0
   -3.2800   -2.2875   -0.3589 H   0  0  0  0  0  0  0  0  0  0  0  0
   -1.9421   -2.4507   -1.5317 H   0  0  0  0  0  0  0  0  0  0  0  0
   -3.6585   -2.9722   -1.9490 H   0  0  0  0  0  0  0  0  0  0  0  0
   -3.1096    1.1668   -1.1872 H   0  0  0  0  0  0  0  0  0  0  0  0
   -1.3568   -1.0496   -0.1783 H   0  0  0  0  0  0  0  0  0  0  0  0
    0.6021   -1.2121    0.1981 H   0  0  0  0  0  0  0  0  0  0  0  0
    3.0150   -1.4449    0.5012 H   0  0  0  0  0  0  0  0  0  0  0  0
    3.6899    2.3437   -1.2199 H   0  0  0  0  0  0  0  0  0  0  0  0
    1.2483    2.6154   -1.5447 H   0  0  0  0  0  0  0  0  0  0  0  0
    5.4738    1.3523   -1.8226 H   0  0  0  0  0  0  0  0  0  0  0  0
    7.9468    1.0128   -1.4901 H   0  0  0  0  0  0  0  0  0  0  0  0
    7.1499   -1.3015    1.9624 H   0  0  0  0  0  0  0  0  0  0  0  0
    4.7148   -0.9503    1.6105 H   0  0  0  0  0  0  0  0  0  0  0  0
   11.0950    1.1562    1.2332 H   0  0  0  0  0  0  0  0  0  0  0  0
    9.9445    0.6291    2.5739 H   0  0  0  0  0  0  0  0  0  0  0  0
    9.3802    1.8117    1.3428 H   0  0  0  0  0  0  0  0  0  0  0  0
   -5.6580    0.6481   -0.2506 H   0  0  0  0  0  0  0  0  0  0  0  0
   -5.4374   -0.4280    2.6073 H   0  0  0  0  0  0  0  0  0  0  0  0
   -7.4334   -1.1298    0.5579 H   0  0  0  0  0  0  0  0  0  0  0  0
   -7.6988   -1.2155    2.3522 H   0  0  0  0  0  0  0  0  0  0  0  0
   -8.8471    0.8677    2.1355 H   0  0  0  0  0  0  0  0  0  0  0  0
   -8.5188    2.1019    0.1544 H   0  0  0  0  0  0  0  0  0  0  0  0
   -6.7593    1.4962    3.1951 H   0  0  0  0  0  0  0  0  0  0  0  0
   -6.3460    2.1891    1.5477 H   0  0  0  0  0  0  0  0  0  0  0  0
  1  2  1  0
  2  3  1  0
  2  4  1  0
  4  5  1  0
  5  6  1  0
  6  7  2  0
  6  8  1  0
  8  9  2  0
  9 10  1  0
 10 11  2  0
 11 12  1  0
 12 13  2  0
 11 14  1  0
 14 15  2  0
 15 16  1  0
 16 17  2  0
 17 18  1  0
 18 19  2  0
 17 20  1  0
 20 21  1  0
 20 22  2  0
 20 23  2  0
  4 24  1  0
 24 25  2  0
 24 26  1  0
 26 27  1  0
 27 28  1  0
 28 29  1  0
 29 30  1  0
 29 31  1  0
 13  8  1  0
 19 14  1  0
 31 27  1  0
  1 32  1  0
  1 33  1  0
  1 34  1  0
  2 35  1  0
  3 36  1  0
  3 37  1  0
  3 38  1  0
  4 39  1  6
  5 40  1  0
  9 41  1  0
 10 42  1  0
 12 43  1  0
 13 44  1  0
 15 45  1  0
 16 46  1  0
 18 47  1  0
 19 48  1  0
 21 49  1  0
 21 50  1  0
 21 51  1  0
 26 52  1  0
 27 53  1  1
 28 54  1  0
 28 55  1  0
 29 56  1  1
 30 57  1  0
 31 58  1  0
 31 59  1  0
M  END
$$$$
[H]OC(=O)C([H])([H])[C@@]([H])(C(=O)N([H])[C@@]([H])(C(=O)N1C([H])([H])C([H])([H])C([H])([H])[C@@]1([H])C(=O)N([H])[C@@]([H])(C(=O)N([H])[C@@]([H])(C([H])([H])C([H])(C([H])([H])[H])C([H])([H])[H])C([H])(C([H])([H])[H])C([H])([H])[H])C([H])([H])c1c([H])c([H])c(O[H])c([H])c1[H])C([H])([H])c1c([H])c([H])c([H])c([H])c1[H])N([H])C(=O)[C@@]([H])(N([H])C(=O)[C@@]([H])(N([H])C(=O)OC([H])([H])c1c([H])c([H])c([H])c([H])c1[H])C([H])([H])c1c([H])c([H])c([H])c([H])c1[H])C([H])([H])c1c([H])c([H])c([H])c([H])c1[H]
     RDKit          3D

152157  0  0  0  0  0  0  0  0999 V2000
  -12.6522   -3.5764    0.4493 C   0  0  0  0  0  0  0  0  0  0  0  0
  -12.9252   -2.1027    0.5329 C   0  0  0  0  0  0  0  0  0  0  0  0
  -14.0722   -1.7620   -0.3673 C   0  0  0  0  0  0  0  0  0  0  0  0
  -11.7279   -1.2471    0.4606 C   0  0  0  0  0  0  0  0  0  0  0  0
  -10.8667   -1.2931   -0.7296 C   0  0  2  0  0  0  0  0  0  0  0  0
   -9.7497   -0.3579   -0.4659 N   0  0  0  0  0  0  0  0  0  0  0  0
   -8.3920   -0.7091   -0.5706 C   0  0  0  0  0  0  0  0  0  0  0  0
   -8.0962   -1.8868   -0.9012 O   0  0  0  0  0  0  0  0  0  0  0  0
   -7.3280    0.2520   -0.3121 C   0  0  1  0  0  0  0  0  0  0  0  0
   -7.4098    0.8243    1.0642 C   0  0  0  0  0  0  0  0  0  0  0  0
   -7.3301   -0.1289    2.1704 C   0  0  0  0  0  0  0  0  0  0  0  0
   -6.1414   -0.6314    2.6615 C   0  0  0  0  0  0  0  0  0  0  0  0
   -6.0681   -1.5027    3.7222 C   0  0  0  0  0  0  0  0  0  0  0  0
   -7.2355   -1.9024    4.3380 C   0  0  0  0  0  0  0  0  0  0  0  0
   -7.2427   -2.7882    5.4224 O   0  0  0  0  0  0  0  0  0  0  0  0
   -8.4591   -1.4285    3.8878 C   0  0  0  0  0  0  0  0  0  0  0  0
   -8.4760   -0.5494    2.8116 C   0  0  0  0  0  0  0  0  0  0  0  0
   -5.9988   -0.2762   -0.5954 N   0  0  0  0  0  0  0  0  0  0  0  0
   -5.2031    0.2516   -1.6290 C   0  0  0  0  0  0  0  0  0  0  0  0
   -5.7603    1.2093   -2.3008 O   0  0  0  0  0  0  0  0  0  0  0  0
   -3.8605   -0.1214   -2.0377 C   0  0  2  0  0  0  0  0  0  0  0  0
   -3.9655   -1.0059   -3.2889 C   0  0  0  0  0  0  0  0  0  0  0  0
   -3.8475   -2.3964   -2.7737 C   0  0  0  0  0  0  0  0  0  0  0  0
   -3.2263   -2.2763   -1.4242 C   0  0  0  0  0  0  0  0  0  0  0  0
   -3.0417   -0.8535   -1.1427 N   0  0  0  0  0  0  0  0  0  0  0  0
   -2.1535   -0.3878   -0.1516 C   0  0  0  0  0  0  0  0  0  0  0  0
   -1.4658   -1.1841    0.5788 O   0  0  0  0  0  0  0  0  0  0  0  0
   -1.9189    1.0761    0.1499 C   0  0  1  0  0  0  0  0  0  0  0  0
   -2.8383    1.4700    1.2575 C   0  0  0  0  0  0  0  0  0  0  0  0
   -2.7736    2.8646    1.6762 C   0  0  0  0  0  0  0  0  0  0  0  0
   -3.6118    3.7729    1.0086 C   0  0  0  0  0  0  0  0  0  0  0  0
   -3.6321    5.0908    1.3742 C   0  0  0  0  0  0  0  0  0  0  0  0
   -2.8175    5.5179    2.4110 C   0  0  0  0  0  0  0  0  0  0  0  0
   -1.9773    4.6511    3.0913 C   0  0  0  0  0  0  0  0  0  0  0  0
   -1.9825    3.3344    2.6950 C   0  0  0  0  0  0  0  0  0  0  0  0
   -0.5385    1.2542    0.5820 N   0  0  0  0  0  0  0  0  0  0  0  0
    0.5501    1.5004   -0.2806 C   0  0  0  0  0  0  0  0  0  0  0  0
    0.3109    1.5482   -1.5048 O   0  0  0  0  0  0  0  0  0  0  0  0
    1.8749    1.6768    0.2943 C   0  0  2  0  0  0  0  0  0  0  0  0
    1.9827    3.0647    0.9431 C   0  0  0  0  0  0  0  0  0  0  0  0
    1.7756    4.1566   -0.0215 C   0  0  0  0  0  0  0  0  0  0  0  0
    1.8215    5.4958    0.4121 O   0  0  0  0  0  0  0  0  0  0  0  0
    1.5515    4.0115   -1.2376 O   0  0  0  0  0  0  0  0  0  0  0  0
    2.9966    1.5932   -0.6056 N   0  0  0  0  0  0  0  0  0  0  0  0
    4.1464    0.8118   -0.2938 C   0  0  0  0  0  0  0  0  0  0  0  0
    4.0858    0.2061    0.8471 O   0  0  0  0  0  0  0  0  0  0  0  0
    5.3070    0.6889   -1.1641 C   0  0  2  0  0  0  0  0  0  0  0  0
    4.8555    0.0307   -2.4735 C   0  0  0  0  0  0  0  0  0  0  0  0
    6.0273   -0.1275   -3.3838 C   0  0  0  0  0  0  0  0  0  0  0  0
    6.4295    0.8701   -4.2457 C   0  0  0  0  0  0  0  0  0  0  0  0
    7.5303    0.7020   -5.0789 C   0  0  0  0  0  0  0  0  0  0  0  0
    8.2567   -0.4690   -5.0738 C   0  0  0  0  0  0  0  0  0  0  0  0
    7.8532   -1.4810   -4.2047 C   0  0  0  0  0  0  0  0  0  0  0  0
    6.7610   -1.2930   -3.3883 C   0  0  0  0  0  0  0  0  0  0  0  0
    6.2955   -0.1438   -0.5101 N   0  0  0  0  0  0  0  0  0  0  0  0
    7.6408    0.2444   -0.2683 C   0  0  0  0  0  0  0  0  0  0  0  0
    8.0533    1.3736   -0.6275 O   0  0  0  0  0  0  0  0  0  0  0  0
    8.5853   -0.7086    0.4281 C   0  0  2  0  0  0  0  0  0  0  0  0
    7.9327   -0.9594    1.7879 C   0  0  0  0  0  0  0  0  0  0  0  0
    8.6793   -1.8624    2.6514 C   0  0  0  0  0  0  0  0  0  0  0  0
    8.4799   -3.2161    2.5449 C   0  0  0  0  0  0  0  0  0  0  0  0
    9.1573   -4.0860    3.3698 C   0  0  0  0  0  0  0  0  0  0  0  0
   10.0465   -3.5912    4.3127 C   0  0  0  0  0  0  0  0  0  0  0  0
   10.2454   -2.2164    4.4173 C   0  0  0  0  0  0  0  0  0  0  0  0
    9.5593   -1.3753    3.5856 C   0  0  0  0  0  0  0  0  0  0  0  0
    9.8610   -0.0883    0.5122 N   0  0  0  0  0  0  0  0  0  0  0  0
   11.0303   -0.5988   -0.1407 C   0  0  0  0  0  0  0  0  0  0  0  0
   10.8823   -1.6509   -0.8177 O   0  0  0  0  0  0  0  0  0  0  0  0
   12.2750   -0.0372   -0.0853 O   0  0  0  0  0  0  0  0  0  0  0  0
   13.4078   -0.5808   -0.7594 C   0  0  0  0  0  0  0  0  0  0  0  0
   14.5753    0.2879   -0.4555 C   0  0  0  0  0  0  0  0  0  0  0  0
   15.7069    0.2704   -1.2745 C   0  0  0  0  0  0  0  0  0  0  0  0
   16.8153    1.0409   -1.0144 C   0  0  0  0  0  0  0  0  0  0  0  0
   16.8362    1.8771    0.0949 C   0  0  0  0  0  0  0  0  0  0  0  0
   15.7360    1.9099    0.9080 C   0  0  0  0  0  0  0  0  0  0  0  0
   14.6186    1.1228    0.6352 C   0  0  0  0  0  0  0  0  0  0  0  0
  -11.4843   -0.7420   -1.9993 C   0  0  0  0  0  0  0  0  0  0  0  0
  -10.4196   -0.9308   -3.0968 C   0  0  0  0  0  0  0  0  0  0  0  0
  -11.7123    0.7525   -1.9492 C   0  0  0  0  0  0  0  0  0  0  0  0
  -12.6232   -4.0554    1.4704 H   0  0  0  0  0  0  0  0  0  0  0  0
  -11.6720   -3.8133   -0.0062 H   0  0  0  0  0  0  0  0  0  0  0  0
  -13.4231   -4.1312   -0.1121 H   0  0  0  0  0  0  0  0  0  0  0  0
  -13.3465   -1.9527    1.5850 H   0  0  0  0  0  0  0  0  0  0  0  0
  -14.1230   -0.6809   -0.5924 H   0  0  0  0  0  0  0  0  0  0  0  0
  -15.0602   -1.9605    0.1613 H   0  0  0  0  0  0  0  0  0  0  0  0
  -14.1372   -2.4176   -1.2635 H   0  0  0  0  0  0  0  0  0  0  0  0
  -12.0584   -0.1858    0.6090 H   0  0  0  0  0  0  0  0  0  0  0  0
  -11.0731   -1.4645    1.3496 H   0  0  0  0  0  0  0  0  0  0  0  0
  -10.3888   -2.2504   -0.9754 H   0  0  0  0  0  0  0  0  0  0  0  0
   -9.9874    0.6185   -0.1871 H   0  0  0  0  0  0  0  0  0  0  0  0
   -7.4135    1.1505   -1.0075 H   0  0  0  0  0  0  0  0  0  0  0  0
   -8.4019    1.3609    1.1192 H   0  0  0  0  0  0  0  0  0  0  0  0
   -6.6695    1.6726    1.2005 H   0  0  0  0  0  0  0  0  0  0  0  0
   -5.1891   -0.3491    2.2107 H   0  0  0  0  0  0  0  0  0  0  0  0
   -5.1139   -1.8926    4.0955 H   0  0  0  0  0  0  0  0  0  0  0  0
   -7.3089   -3.7896    5.2538 H   0  0  0  0  0  0  0  0  0  0  0  0
   -9.3893   -1.7412    4.3741 H   0  0  0  0  0  0  0  0  0  0  0  0
   -9.4674   -0.1893    2.5122 H   0  0  0  0  0  0  0  0  0  0  0  0
   -5.6202   -1.0694   -0.0287 H   0  0  0  0  0  0  0  0  0  0  0  0
   -3.2996    0.7769   -2.3831 H   0  0  0  0  0  0  0  0  0  0  0  0
   -4.9563   -0.8664   -3.7817 H   0  0  0  0  0  0  0  0  0  0  0  0
   -3.1915   -0.7444   -4.0185 H   0  0  0  0  0  0  0  0  0  0  0  0
   -4.8175   -2.9350   -2.7611 H   0  0  0  0  0  0  0  0  0  0  0  0
   -3.1168   -2.9290   -3.4497 H   0  0  0  0  0  0  0  0  0  0  0  0
   -2.1719   -2.6881   -1.4556 H   0  0  0  0  0  0  0  0  0  0  0  0
   -3.7920   -2.7848   -0.6139 H   0  0  0  0  0  0  0  0  0  0  0  0
   -2.0977    1.6113   -0.7562 H   0  0  0  0  0  0  0  0  0  0  0  0
   -2.7072    0.8099    2.1631 H   0  0  0  0  0  0  0  0  0  0  0  0
   -3.8932    1.2548    0.9429 H   0  0  0  0  0  0  0  0  0  0  0  0
   -4.2409    3.4375    0.2001 H   0  0  0  0  0  0  0  0  0  0  0  0
   -4.2824    5.8222    0.8653 H   0  0  0  0  0  0  0  0  0  0  0  0
   -2.8082    6.5573    2.7335 H   0  0  0  0  0  0  0  0  0  0  0  0
   -1.3472    4.9824    3.9027 H   0  0  0  0  0  0  0  0  0  0  0  0
   -1.3087    2.6564    3.2470 H   0  0  0  0  0  0  0  0  0  0  0  0
   -0.3684    1.1805    1.6052 H   0  0  0  0  0  0  0  0  0  0  0  0
    2.0391    0.9776    1.1829 H   0  0  0  0  0  0  0  0  0  0  0  0
    1.2713    3.1608    1.7970 H   0  0  0  0  0  0  0  0  0  0  0  0
    2.9955    3.1530    1.4091 H   0  0  0  0  0  0  0  0  0  0  0  0
    0.9579    6.0252    0.2791 H   0  0  0  0  0  0  0  0  0  0  0  0
    2.9786    2.1042   -1.4985 H   0  0  0  0  0  0  0  0  0  0  0  0
    5.7207    1.6621   -1.4650 H   0  0  0  0  0  0  0  0  0  0  0  0
    4.1354    0.7186   -2.9474 H   0  0  0  0  0  0  0  0  0  0  0  0
    4.4186   -0.9444   -2.2640 H   0  0  0  0  0  0  0  0  0  0  0  0
    5.8729    1.7879   -4.2609 H   0  0  0  0  0  0  0  0  0  0  0  0
    7.8322    1.5123   -5.7557 H   0  0  0  0  0  0  0  0  0  0  0  0
    9.1111   -0.6204   -5.7105 H   0  0  0  0  0  0  0  0  0  0  0  0
    8.4306   -2.3917   -4.2069 H   0  0  0  0  0  0  0  0  0  0  0  0
    6.4676   -2.0877   -2.7273 H   0  0  0  0  0  0  0  0  0  0  0  0
    5.9873   -1.0836   -0.2069 H   0  0  0  0  0  0  0  0  0  0  0  0
    8.5652   -1.6241   -0.1867 H   0  0  0  0  0  0  0  0  0  0  0  0
    7.7818    0.0437    2.2903 H   0  0  0  0  0  0  0  0  0  0  0  0
    6.8962   -1.2998    1.5823 H   0  0  0  0  0  0  0  0  0  0  0  0
    7.7945   -3.5853    1.8071 H   0  0  0  0  0  0  0  0  0  0  0  0
    8.9934   -5.1465    3.2806 H   0  0  0  0  0  0  0  0  0  0  0  0
   10.5975   -4.2587    4.9800 H   0  0  0  0  0  0  0  0  0  0  0  0
   10.9475   -1.8721    5.1698 H   0  0  0  0  0  0  0  0  0  0  0  0
    9.7256   -0.3167    3.6717 H   0  0  0  0  0  0  0  0  0  0  0  0
   10.0121    0.7840    1.0593 H   0  0  0  0  0  0  0  0  0  0  0  0
   13.5901   -1.6291   -0.4249 H   0  0  0  0  0  0  0  0  0  0  0  0
   13.2588   -0.5401   -1.8503 H   0  0  0  0  0  0  0  0  0  0  0  0
   15.7319   -0.3521   -2.1414 H   0  0  0  0  0  0  0  0  0  0  0  0
   17.7030    1.0427   -1.6409 H   0  0  0  0  0  0  0  0  0  0  0  0
   17.6828    2.4965    0.3366 H   0  0  0  0  0  0  0  0  0  0  0  0
   15.6874    2.5413    1.7922 H   0  0  0  0  0  0  0  0  0  0  0  0
   13.7509    1.1671    1.2963 H   0  0  0  0  0  0  0  0  0  0  0  0
  -12.3794   -1.2385   -2.3430 H   0  0  0  0  0  0  0  0  0  0  0  0
  -10.8342   -0.6670   -4.0960 H   0  0  0  0  0  0  0  0  0  0  0  0
   -9.5825   -0.2345   -2.9080 H   0  0  0  0  0  0  0  0  0  0  0  0
  -10.0397   -1.9560   -3.0301 H   0  0  0  0  0  0  0  0  0  0  0  0
  -11.8090    1.1668   -0.9453 H   0  0  0  0  0  0  0  0  0  0  0  0
  -12.6484    1.0369   -2.5003 H   0  0  0  0  0  0  0  0  0  0  0  0
  -10.9118    1.3309   -2.4769 H   0  0  0  0  0  0  0  0  0  0  0  0
  1  2  1  0
  2  3  1  0
  2  4  1  0
  4  5  1  0
  5  6  1  0
  6  7  1  0
  7  8  2  0
  7  9  1  0
  9 10  1  0
 10 11  1  0
 11 12  2  0
 12 13  1  0
 13 14  2  0
 14 15  1  0
 14 16  1  0
 16 17  2  0
  9 18  1  0
 18 19  1  0
 19 20  2  0
 19 21  1  0
 21 22  1  0
 22 23  1  0
 23 24  1  0
 24 25  1  0
 25 26  1  0
 26 27  2  0
 26 28  1  0
 28 29  1  0
 29 30  1  0
 30 31  2  0
 31 32  1  0
 32 33  2  0
 33 34  1  0
 34 35  2  0
 28 36  1  0
 36 37  1  0
 37 38  2  0
 37 39  1  0
 39 40  1  0
 40 41  1  0
 41 42  1  0
 41 43  2  0
 39 44  1  0
 44 45  1  0
 45 46  2  0
 45 47  1  0
 47 48  1  0
 48 49  1  0
 49 50  2  0
 50 51  1  0
 51 52  2  0
 52 53  1  0
 53 54  2  0
 47 55  1  0
 55 56  1  0
 56 57  2  0
 56 58  1  0
 58 59  1  0
 59 60  1  0
 60 61  2  0
 61 62  1  0
 62 63  2  0
 63 64  1  0
 64 65  2  0
 58 66  1  0
 66 67  1  0
 67 68  2  0
 67 69  1  0
 69 70  1  0
 70 71  1  0
 71 72  2  0
 72 73  1  0
 73 74  2  0
 74 75  1  0
 75 76  2  0
  5 77  1  0
 77 78  1  0
 77 79  1  0
 17 11  1  0
 25 21  1  0
 35 30  1  0
 54 49  1  0
 65 60  1  0
 76 71  1  0
  1 80  1  0
  1 81  1  0
  1 82  1  0
  2 83  1  0
  3 84  1  0
  3 85  1  0
  3 86  1  0
  4 87  1  0
  4 88  1  0
  5 89  1  6
  6 90  1  0
  9 91  1  6
 10 92  1  0
 10 93  1  0
 12 94  1  0
 13 95  1  0
 15 96  1  0
 16 97  1  0
 17 98  1  0
 18 99  1  0
 21100  1  6
 22101  1  0
 22102  1  0
 23103  1  0
 23104  1  0
 24105  1  0
 24106  1  0
 28107  1  6
 29108  1  0
 29109  1  0
 31110  1  0
 32111  1  0
 33112  1  0
 34113  1  0
 35114  1  0
 36115  1  0
 39116  1  1
 40117  1  0
 40118  1  0
 42119  1  0
 44120  1  0
 47121  1  6
 48122  1  0
 48123  1  0
 50124  1  0
 51125  1  0
 52126  1  0
 53127  1  0
 54128  1  0
 55129  1  0
 58130  1  6
 59131  1  0
 59132  1  0
 61133  1  0
 62134  1  0
 63135  1  0
 64136  1  0
 65137  1  0
 66138  1  0
 70139  1  0
 70140  1  0
 72141  1  0
 73142  1  0
 74143  1  0
 75144  1  0
 76145  1  0
 77146  1  0
 78147  1  0
 78148  1  0
 78149  1  0
 79150  1  0
 79151  1  0
 79152  1  0
M  END
$$$$
[H]O[C@]([H])(C([H])([H])[H])[C@]([H])(C(=O)N([H])[C@]([H])(C(=O)N([H])[H])C([H])([H])c1c([H])c([H])c([H])c([H])c1[H])N([H])C(=O)[C@]([H])(N([H])C(=O)C(C([H])([H])[H])(C([H])([H])[H])C([H])([H])[H])C([H])([H])c1c([H])n([H])c2c([H])c([H])c([H])c([H])c12
     RDKit          3D

 76 78  0  0  0  0  0  0  0  0999 V2000
    1.4355   -2.5268    3.8519 C   0  0  0  0  0  0  0  0  0  0  0  0
    2.2648   -1.6748    2.9161 C   0  0  1  0  0  0  0  0  0  0  0  0
    3.5448   -2.1996    2.8676 O   0  0  0  0  0  0  0  0  0  0  0  0
    1.6268   -1.5036    1.5848 C   0  0  1  0  0  0  0  0  0  0  0  0
    0.2643   -0.9679    1.7121 N   0  0  0  0  0  0  0  0  0  0  0  0
   -0.7915   -1.3889    0.8815 C   0  0  0  0  0  0  0  0  0  0  0  0
   -0.5985   -2.2482   -0.0092 O   0  0  0  0  0  0  0  0  0  0  0  0
   -2.1836   -0.8319    1.0140 C   0  0  1  0  0  0  0  0  0  0  0  0
   -2.2057    0.4921    1.6279 C   0  0  0  0  0  0  0  0  0  0  0  0
   -3.5333    1.1200    1.7933 C   0  0  0  0  0  0  0  0  0  0  0  0
   -4.2998    1.0631    2.9746 C   0  0  0  0  0  0  0  0  0  0  0  0
   -5.4487    1.7201    2.7662 N   0  0  0  0  0  0  0  0  0  0  0  0
   -5.5048    2.2214    1.5053 C   0  0  0  0  0  0  0  0  0  0  0  0
   -6.4519    2.9690    0.8318 C   0  0  0  0  0  0  0  0  0  0  0  0
   -6.2172    3.3579   -0.4698 C   0  0  0  0  0  0  0  0  0  0  0  0
   -5.0357    2.9912   -1.0738 C   0  0  0  0  0  0  0  0  0  0  0  0
   -4.1105    2.2470   -0.3823 C   0  0  0  0  0  0  0  0  0  0  0  0
   -4.3141    1.8426    0.9153 C   0  0  0  0  0  0  0  0  0  0  0  0
   -2.9105   -1.0267   -0.2028 N   0  0  0  0  0  0  0  0  0  0  0  0
   -3.9118   -2.0130   -0.4043 C   0  0  0  0  0  0  0  0  0  0  0  0
   -4.1947   -2.7722    0.5519 O   0  0  0  0  0  0  0  0  0  0  0  0
   -4.6346   -2.1901   -1.6867 C   0  0  0  0  0  0  0  0  0  0  0  0
   -5.4169   -0.9590   -2.0604 C   0  0  0  0  0  0  0  0  0  0  0  0
   -5.5461   -3.3754   -1.6783 C   0  0  0  0  0  0  0  0  0  0  0  0
   -3.5858   -2.3727   -2.7774 C   0  0  0  0  0  0  0  0  0  0  0  0
    2.3935   -0.5925    0.6581 C   0  0  0  0  0  0  0  0  0  0  0  0
    1.8013    0.4321    0.1896 O   0  0  0  0  0  0  0  0  0  0  0  0
    3.7268   -0.7977    0.2683 N   0  0  0  0  0  0  0  0  0  0  0  0
    4.4021    0.1469   -0.6610 C   0  0  1  0  0  0  0  0  0  0  0  0
    5.6372    0.5928    0.0020 C   0  0  0  0  0  0  0  0  0  0  0  0
    6.5134    1.5367   -0.6651 C   0  0  0  0  0  0  0  0  0  0  0  0
    6.3554    2.9069   -0.6310 C   0  0  0  0  0  0  0  0  0  0  0  0
    7.2635    3.7199   -1.2780 C   0  0  0  0  0  0  0  0  0  0  0  0
    8.3204    3.2095   -1.9544 C   0  0  0  0  0  0  0  0  0  0  0  0
    8.5076    1.8614   -2.0084 C   0  0  0  0  0  0  0  0  0  0  0  0
    7.6091    1.0405   -1.3674 C   0  0  0  0  0  0  0  0  0  0  0  0
    4.6363   -0.5720   -1.9221 C   0  0  0  0  0  0  0  0  0  0  0  0
    5.1623    0.0689   -3.0600 N   0  0  0  0  0  0  0  0  0  0  0  0
    4.3641   -1.8167   -2.0311 O   0  0  0  0  0  0  0  0  0  0  0  0
    0.3990   -2.1609    3.8286 H   0  0  0  0  0  0  0  0  0  0  0  0
    1.8419   -2.3676    4.8701 H   0  0  0  0  0  0  0  0  0  0  0  0
    1.4395   -3.5766    3.5206 H   0  0  0  0  0  0  0  0  0  0  0  0
    2.3567   -0.6741    3.4158 H   0  0  0  0  0  0  0  0  0  0  0  0
    3.6423   -2.9661    3.4909 H   0  0  0  0  0  0  0  0  0  0  0  0
    1.5668   -2.4614    1.0505 H   0  0  0  0  0  0  0  0  0  0  0  0
    0.1109   -0.2564    2.4417 H   0  0  0  0  0  0  0  0  0  0  0  0
   -2.6627   -1.5514    1.7666 H   0  0  0  0  0  0  0  0  0  0  0  0
   -1.7463    0.4118    2.6533 H   0  0  0  0  0  0  0  0  0  0  0  0
   -1.5607    1.2190    1.0515 H   0  0  0  0  0  0  0  0  0  0  0  0
   -3.9552    0.5576    3.8655 H   0  0  0  0  0  0  0  0  0  0  0  0
   -6.2109    1.8460    3.4603 H   0  0  0  0  0  0  0  0  0  0  0  0
   -7.3782    3.2665    1.2858 H   0  0  0  0  0  0  0  0  0  0  0  0
   -6.9611    3.9548   -1.0231 H   0  0  0  0  0  0  0  0  0  0  0  0
   -4.8487    3.2952   -2.0948 H   0  0  0  0  0  0  0  0  0  0  0  0
   -3.1577    1.9411   -0.8393 H   0  0  0  0  0  0  0  0  0  0  0  0
   -2.7224   -0.4189   -1.0637 H   0  0  0  0  0  0  0  0  0  0  0  0
   -6.0340   -0.5887   -1.2045 H   0  0  0  0  0  0  0  0  0  0  0  0
   -6.0104   -1.1485   -2.9769 H   0  0  0  0  0  0  0  0  0  0  0  0
   -4.6913   -0.1630   -2.3210 H   0  0  0  0  0  0  0  0  0  0  0  0
   -6.6256   -3.0593   -1.7109 H   0  0  0  0  0  0  0  0  0  0  0  0
   -5.3486   -4.0338   -2.5474 H   0  0  0  0  0  0  0  0  0  0  0  0
   -5.4112   -3.9007   -0.6933 H   0  0  0  0  0  0  0  0  0  0  0  0
   -2.7425   -1.6829   -2.6884 H   0  0  0  0  0  0  0  0  0  0  0  0
   -3.2539   -3.4425   -2.6576 H   0  0  0  0  0  0  0  0  0  0  0  0
   -4.0209   -2.3221   -3.7924 H   0  0  0  0  0  0  0  0  0  0  0  0
    4.2500   -1.6155    0.6278 H   0  0  0  0  0  0  0  0  0  0  0  0
    3.6550    0.9315   -0.8631 H   0  0  0  0  0  0  0  0  0  0  0  0
    5.4634    0.9801    1.0515 H   0  0  0  0  0  0  0  0  0  0  0  0
    6.2411   -0.3495    0.2025 H   0  0  0  0  0  0  0  0  0  0  0  0
    5.5035    3.2874   -0.0851 H   0  0  0  0  0  0  0  0  0  0  0  0
    7.0750    4.7951   -1.2117 H   0  0  0  0  0  0  0  0  0  0  0  0
    9.0343    3.8679   -2.4640 H   0  0  0  0  0  0  0  0  0  0  0  0
    9.3579    1.4770   -2.5522 H   0  0  0  0  0  0  0  0  0  0  0  0
    7.7897   -0.0367   -1.4315 H   0  0  0  0  0  0  0  0  0  0  0  0
    5.8656   -0.3925   -3.6949 H   0  0  0  0  0  0  0  0  0  0  0  0
    4.8159    1.0513   -3.2558 H   0  0  0  0  0  0  0  0  0  0  0  0
  1  2  1  0
  2  3  1  0
  2  4  1  0
  4  5  1  0
  5  6  1  0
  6  7  2  0
  6  8  1  0
  8  9  1  0
  9 10  1  0
 10 11  2  0
 11 12  1  0
 12 13  1  0
 13 14  2  0
 14 15  1  0
 15 16  2  0
 16 17  1  0
 17 18  2  0
  8 19  1  0
 19 20  1  0
 20 21  2  0
 20 22  1  0
 22 23  1  0
 22 24  1  0
 22 25  1  0
  4 26  1  0
 26 27  2  0
 26 28  1  0
 28 29  1  0
 29 30  1  0
 30 31  1  0
 31 32  2  0
 32 33  1  0
 33 34  2  0
 34 35  1  0
 35 36  2  0
 29 37  1  0
 37 38  1  0
 37 39  2  0
 18 10  1  0
 36 31  1  0
 18 13  1  0
  1 40  1  0
  1 41  1  0
  1 42  1  0
  2 43  1  1
  3 44  1  0
  4 45  1  6
  5 46  1  0
  8 47  1  1
  9 48  1  0
  9 49  1  0
 11 50  1  0
 12 51  1  0
 14 52  1  0
 15 53  1  0
 16 54  1  0
 17 55  1  0
 19 56  1  0
 23 57  1  0
 23 58  1  0
 23 59  1  0
 24 60  1  0
 24 61  1  0
 24 62  1  0
 25 63  1  0
 25 64  1  0
 25 65  1  0
 28 66  1  0
 29 67  1  6
 30 68  1  0
 30 69  1  0
 32 70  1  0
 33 71  1  0
 34 72  1  0
 35 73  1  0
 36 74  1  0
 38 75  1  0
 38 76  1  0
M  END
$$$$
[H]c1nc(N([H])c2c([H])c([H])c(N3C([H])([H])C([H])([H])N(C(=O)OC([H])([H])[H])C([H])([H])C3([H])[H])c([H])c2OC([H])([H])[H])nc(N([H])c2c([H])c([H])c([H])c([H])c2S(=O)(=O)C([H])(C([H])([H])[H])C([H])([H])[H])c1Cl
     RDKit          3D

 70 73  0  0  0  0  0  0  0  0999 V2000
    1.9408    3.6053    1.5324 C   0  0  0  0  0  0  0  0  0  0  0  0
    1.1191    2.4871    1.2568 O   0  0  0  0  0  0  0  0  0  0  0  0
    1.6842    1.3943    0.6249 C   0  0  0  0  0  0  0  0  0  0  0  0
    3.0011    1.4065    0.2758 C   0  0  0  0  0  0  0  0  0  0  0  0
    3.6249    0.3382   -0.3601 C   0  0  0  0  0  0  0  0  0  0  0  0
    2.8466   -0.7465   -0.6258 C   0  0  0  0  0  0  0  0  0  0  0  0
    1.4832   -0.7655   -0.2680 C   0  0  0  0  0  0  0  0  0  0  0  0
    0.8730    0.2789    0.3544 C   0  0  0  0  0  0  0  0  0  0  0  0
   -0.4691    0.3348    0.6878 N   0  0  0  0  0  0  0  0  0  0  0  0
   -1.4010   -0.7290    0.6964 C   0  0  0  0  0  0  0  0  0  0  0  0
   -1.1206   -1.9940    0.4125 N   0  0  0  0  0  0  0  0  0  0  0  0
   -2.0220   -2.9838    0.4140 C   0  0  0  0  0  0  0  0  0  0  0  0
   -3.3170   -2.7024    0.7213 C   0  0  0  0  0  0  0  0  0  0  0  0
   -4.5512   -3.9149    0.7707 Cl  0  0  0  0  0  0  0  0  0  0  0  0
   -3.6771   -1.3856    1.0283 C   0  0  0  0  0  0  0  0  0  0  0  0
   -5.0232   -1.0706    1.2854 N   0  0  0  0  0  0  0  0  0  0  0  0
   -5.5031    0.1999    1.6461 C   0  0  0  0  0  0  0  0  0  0  0  0
   -4.7222    1.2012    2.2408 C   0  0  0  0  0  0  0  0  0  0  0  0
   -5.2570    2.4010    2.6748 C   0  0  0  0  0  0  0  0  0  0  0  0
   -6.5819    2.6378    2.5302 C   0  0  0  0  0  0  0  0  0  0  0  0
   -7.3406    1.6745    1.9556 C   0  0  0  0  0  0  0  0  0  0  0  0
   -6.8821    0.4412    1.4905 C   0  0  0  0  0  0  0  0  0  0  0  0
   -7.9742   -0.6283    0.7013 S   0  0  0  0  0  0  0  0  0  0  0  0
   -8.0718   -1.9940    1.3527 O   0  0  0  0  0  0  0  0  0  0  0  0
   -9.3908   -0.0803    0.9335 O   0  0  0  0  0  0  0  0  0  0  0  0
   -7.8256   -0.7657   -1.0277 C   0  0  0  0  0  0  0  0  0  0  0  0
   -8.1522    0.5673   -1.7197 C   0  0  0  0  0  0  0  0  0  0  0  0
   -6.5557   -1.2484   -1.6049 C   0  0  0  0  0  0  0  0  0  0  0  0
   -2.7059   -0.4723    1.0010 N   0  0  0  0  0  0  0  0  0  0  0  0
    4.9965    0.3855   -0.7044 N   0  0  0  0  0  0  0  0  0  0  0  0
    5.5014   -0.4547   -1.7805 C   0  0  0  0  0  0  0  0  0  0  0  0
    7.0010   -0.4794   -1.8621 C   0  0  0  0  0  0  0  0  0  0  0  0
    7.6416   -0.3784   -0.5840 N   0  0  0  0  0  0  0  0  0  0  0  0
    7.0129    0.2774    0.5588 C   0  0  0  0  0  0  0  0  0  0  0  0
    5.9720    1.2170   -0.0549 C   0  0  0  0  0  0  0  0  0  0  0  0
    8.9292   -0.9240   -0.3959 C   0  0  0  0  0  0  0  0  0  0  0  0
    9.5425   -0.8659    0.7116 O   0  0  0  0  0  0  0  0  0  0  0  0
    9.5444   -1.5564   -1.4930 O   0  0  0  0  0  0  0  0  0  0  0  0
   10.8317   -2.1116   -1.3187 C   0  0  0  0  0  0  0  0  0  0  0  0
    2.7809    3.2325    2.1817 H   0  0  0  0  0  0  0  0  0  0  0  0
    2.4144    3.9141    0.5761 H   0  0  0  0  0  0  0  0  0  0  0  0
    1.3714    4.4227    2.0236 H   0  0  0  0  0  0  0  0  0  0  0  0
    3.6191    2.2699    0.4828 H   0  0  0  0  0  0  0  0  0  0  0  0
    3.2654   -1.6148   -1.1142 H   0  0  0  0  0  0  0  0  0  0  0  0
    0.9863   -1.6792   -0.5480 H   0  0  0  0  0  0  0  0  0  0  0  0
   -0.8439    1.3085    0.9667 H   0  0  0  0  0  0  0  0  0  0  0  0
   -1.7614   -4.0092    0.1771 H   0  0  0  0  0  0  0  0  0  0  0  0
   -5.6886   -1.8687    1.2207 H   0  0  0  0  0  0  0  0  0  0  0  0
   -3.6748    1.0689    2.4050 H   0  0  0  0  0  0  0  0  0  0  0  0
   -4.6098    3.1563    3.1343 H   0  0  0  0  0  0  0  0  0  0  0  0
   -6.9934    3.5770    2.8673 H   0  0  0  0  0  0  0  0  0  0  0  0
   -8.4036    1.8895    1.8486 H   0  0  0  0  0  0  0  0  0  0  0  0
   -8.6388   -1.4758   -1.3697 H   0  0  0  0  0  0  0  0  0  0  0  0
   -7.2412    1.2293   -1.7046 H   0  0  0  0  0  0  0  0  0  0  0  0
   -8.3731    0.3359   -2.7796 H   0  0  0  0  0  0  0  0  0  0  0  0
   -9.0133    1.0713   -1.2478 H   0  0  0  0  0  0  0  0  0  0  0  0
   -6.3163   -2.2536   -1.2114 H   0  0  0  0  0  0  0  0  0  0  0  0
   -6.7571   -1.4324   -2.7078 H   0  0  0  0  0  0  0  0  0  0  0  0
   -5.7177   -0.5257   -1.5783 H   0  0  0  0  0  0  0  0  0  0  0  0
    5.1703   -1.4919   -1.7445 H   0  0  0  0  0  0  0  0  0  0  0  0
    5.0493   -0.0079   -2.7152 H   0  0  0  0  0  0  0  0  0  0  0  0
    7.3292    0.3640   -2.4826 H   0  0  0  0  0  0  0  0  0  0  0  0
    7.3782   -1.4057   -2.3382 H   0  0  0  0  0  0  0  0  0  0  0  0
    6.4500   -0.4928    1.1607 H   0  0  0  0  0  0  0  0  0  0  0  0
    7.6983    0.8516    1.1747 H   0  0  0  0  0  0  0  0  0  0  0  0
    6.4963    1.8435   -0.7989 H   0  0  0  0  0  0  0  0  0  0  0  0
    5.5680    1.8687    0.7373 H   0  0  0  0  0  0  0  0  0  0  0  0
   10.8350   -2.6952   -0.3741 H   0  0  0  0  0  0  0  0  0  0  0  0
   11.5624   -1.3022   -1.1908 H   0  0  0  0  0  0  0  0  0  0  0  0
   11.0565   -2.7448   -2.2091 H   0  0  0  0  0  0  0  0  0  0  0  0
  1  2  1  0
  2  3  1  0
  3  4  2  0
  4  5  1  0
  5  6  2  0
  6  7  1  0
  7  8  2  0
  8  9  1  0
  9 10  1  0
 10 11  2  0
 11 12  1  0
 12 13  2  0
 13 14  1  0
 13 15  1  0
 15 16  1  0
 16 17  1  0
 17 18  2  0
 18 19  1  0
 19 20  2  0
 20 21  1  0
 21 22  2  0
 22 23  1  0
 23 24  2  0
 23 25  2  0
 23 26  1  0
 26 27  1  0
 26 28  1  0
 15 29  2  0
  5 30  1  0
 30 31  1  0
 31 32  1  0
 32 33  1  0
 33 34  1  0
 34 35  1  0
 33 36  1  0
 36 37  2  0
 36 38  1  0
 38 39  1  0
  8  3  1  0
 29 10  1  0
 35 30  1  0
 22 17  1  0
  1 40  1  0
  1 41  1  0
  1 42  1  0
  4 43  1  0
  6 44  1  0
  7 45  1  0
  9 46  1  0
 12 47  1  0
 16 48  1  0
 18 49  1  0
 19 50  1  0
 20 51  1  0
 21 52  1  0
 26 53  1  0
 27 54  1  0
 27 55  1  0
 27 56  1  0
 28 57  1  0
 28 58  1  0
 28 59  1  0
 31 60  1  0
 31 61  1  0
 32 62  1  0
 32 63  1  0
 34 64  1  0
 34 65  1  0
 35 66  1  0
 35 67  1  0
 39 68  1  0
 39 69  1  0
 39 70  1  0
M  END
$$$$
[H]c1nc2c(c([H])c(-c3c([H])nn(C([H])(C([H])([H])[H])C([H])([H])[H])c3[H])n2[H])c(-c2c([H])c([H])c(C(=O)N([H])C3([H])C([H])([H])C3([H])[H])c([H])c2[H])c1[H]
     RDKit          3D

 52 56  0  0  0  0  0  0  0  0999 V2000
   -6.2412    3.6522    0.6766 C   0  0  0  0  0  0  0  0  0  0  0  0
   -6.2607    2.1741    0.8904 C   0  0  0  0  0  0  0  0  0  0  0  0
   -7.2994    1.5248    0.0033 C   0  0  0  0  0  0  0  0  0  0  0  0
   -4.9417    1.6200    0.6584 N   0  0  0  0  0  0  0  0  0  0  0  0
   -4.5856    0.3111    0.7163 C   0  0  0  0  0  0  0  0  0  0  0  0
   -3.2419    0.1883    0.4341 C   0  0  0  0  0  0  0  0  0  0  0  0
   -2.7945    1.4710    0.2027 C   0  0  0  0  0  0  0  0  0  0  0  0
   -3.8589    2.3116    0.3490 N   0  0  0  0  0  0  0  0  0  0  0  0
   -2.4554   -1.0368    0.3896 C   0  0  0  0  0  0  0  0  0  0  0  0
   -1.0954   -1.1155    0.0998 C   0  0  0  0  0  0  0  0  0  0  0  0
   -0.7079   -2.4312    0.1532 C   0  0  0  0  0  0  0  0  0  0  0  0
    0.4944   -3.0636   -0.0467 C   0  0  0  0  0  0  0  0  0  0  0  0
    0.5890   -4.4590    0.0752 C   0  0  0  0  0  0  0  0  0  0  0  0
   -0.5619   -5.1431    0.3990 C   0  0  0  0  0  0  0  0  0  0  0  0
   -1.7391   -4.5241    0.5952 N   0  0  0  0  0  0  0  0  0  0  0  0
   -1.8266   -3.1697    0.4757 C   0  0  0  0  0  0  0  0  0  0  0  0
   -2.8483   -2.2994    0.6082 N   0  0  0  0  0  0  0  0  0  0  0  0
    1.6605   -2.2673   -0.3722 C   0  0  0  0  0  0  0  0  0  0  0  0
    2.0135   -1.1523    0.3412 C   0  0  0  0  0  0  0  0  0  0  0  0
    3.1451   -0.3956    0.0006 C   0  0  0  0  0  0  0  0  0  0  0  0
    3.9315   -0.7557   -1.0621 C   0  0  0  0  0  0  0  0  0  0  0  0
    3.5827   -1.8791   -1.7868 C   0  0  0  0  0  0  0  0  0  0  0  0
    2.4590   -2.6178   -1.4369 C   0  0  0  0  0  0  0  0  0  0  0  0
    5.1116    0.0013   -1.4435 C   0  0  0  0  0  0  0  0  0  0  0  0
    5.8017   -0.3674   -2.4544 O   0  0  0  0  0  0  0  0  0  0  0  0
    5.5721    1.1455   -0.7678 N   0  0  0  0  0  0  0  0  0  0  0  0
    6.7428    1.8862   -1.1558 C   0  0  0  0  0  0  0  0  0  0  0  0
    6.8124    3.3228   -0.8822 C   0  0  0  0  0  0  0  0  0  0  0  0
    7.7136    2.3628   -0.1328 C   0  0  0  0  0  0  0  0  0  0  0  0
   -6.1681    4.1747    1.6687 H   0  0  0  0  0  0  0  0  0  0  0  0
   -5.3587    3.9791    0.0921 H   0  0  0  0  0  0  0  0  0  0  0  0
   -7.1328    4.0365    0.1683 H   0  0  0  0  0  0  0  0  0  0  0  0
   -6.5802    1.9619    1.9471 H   0  0  0  0  0  0  0  0  0  0  0  0
   -8.2993    1.8281    0.4195 H   0  0  0  0  0  0  0  0  0  0  0  0
   -7.2119    1.8007   -1.0506 H   0  0  0  0  0  0  0  0  0  0  0  0
   -7.2371    0.4294    0.1601 H   0  0  0  0  0  0  0  0  0  0  0  0
   -5.2549   -0.5016    0.9476 H   0  0  0  0  0  0  0  0  0  0  0  0
   -1.7792    1.7402   -0.0481 H   0  0  0  0  0  0  0  0  0  0  0  0
   -0.4672   -0.2755   -0.1298 H   0  0  0  0  0  0  0  0  0  0  0  0
    1.5482   -4.9286   -0.0883 H   0  0  0  0  0  0  0  0  0  0  0  0
   -0.4586   -6.2304    0.4878 H   0  0  0  0  0  0  0  0  0  0  0  0
   -3.8282   -2.5696    0.8513 H   0  0  0  0  0  0  0  0  0  0  0  0
    1.4188   -0.8456    1.1863 H   0  0  0  0  0  0  0  0  0  0  0  0
    3.3966    0.4793    0.5831 H   0  0  0  0  0  0  0  0  0  0  0  0
    4.2160   -2.1469   -2.6217 H   0  0  0  0  0  0  0  0  0  0  0  0
    2.1817   -3.5026   -2.0052 H   0  0  0  0  0  0  0  0  0  0  0  0
    5.0473    1.4882    0.0611 H   0  0  0  0  0  0  0  0  0  0  0  0
    7.2407    1.4557   -2.0683 H   0  0  0  0  0  0  0  0  0  0  0  0
    5.9818    3.8073   -0.3204 H   0  0  0  0  0  0  0  0  0  0  0  0
    7.2671    3.9779   -1.6599 H   0  0  0  0  0  0  0  0  0  0  0  0
    8.7941    2.3704   -0.3570 H   0  0  0  0  0  0  0  0  0  0  0  0
    7.5127    2.1771    0.9539 H   0  0  0  0  0  0  0  0  0  0  0  0
  1  2  1  0
  2  3  1  0
  2  4  1  0
  4  5  1  0
  5  6  2  0
  6  7  1  0
  7  8  2  0
  6  9  1  0
  9 10  2  0
 10 11  1  0
 11 12  2  0
 12 13  1  0
 13 14  2  0
 14 15  1  0
 15 16  2  0
 16 17  1  0
 12 18  1  0
 18 19  2  0
 19 20  1  0
 20 21  2  0
 21 22  1  0
 22 23  2  0
 21 24  1  0
 24 25  2  0
 24 26  1  0
 26 27  1  0
 27 28  1  0
 28 29  1  0
  8  4  1  0
 17  9  1  0
 23 18  1  0
 29 27  1  0
 16 11  1  0
  1 30  1  0
  1 31  1  0
  1 32  1  0
  2 33  1  0
  3 34  1  0
  3 35  1  0
  3 36  1  0
  5 37  1  0
  7 38  1  0
 10 39  1  0
 13 40  1  0
 14 41  1  0
 17 42  1  0
 19 43  1  0
 20 44  1  0
 22 45  1  0
 23 46  1  0
 26 47  1  0
 27 48  1  0
 28 49  1  0
 28 50  1  0
 29 51  1  0
 29 52  1  0
M  END
$$$$
[H]c1c(N2C([H])([H])C([H])([H])OC([H])([H])C2([H])[H])nc(C(=O)N([H])c2c([H])c([H])c(C(F)(F)F)c([H])c2[H])nc1N1C([H])([H])C([H])([H])N(C([H])([H])[H])C([H])([H])C1([H])[H]
     RDKit          3D

 57 60  0  0  0  0  0  0  0  0999 V2000
   -5.8027   -4.2746    0.6265 C   0  0  0  0  0  0  0  0  0  0  0  0
   -4.7362   -3.5443   -0.0434 N   0  0  0  0  0  0  0  0  0  0  0  0
   -3.5152   -3.7474    0.6720 C   0  0  0  0  0  0  0  0  0  0  0  0
   -2.8724   -2.5034    1.1863 C   0  0  0  0  0  0  0  0  0  0  0  0
   -2.8623   -1.4201    0.2243 N   0  0  0  0  0  0  0  0  0  0  0  0
   -3.9968   -1.3038   -0.6832 C   0  0  0  0  0  0  0  0  0  0  0  0
   -5.1176   -2.1545   -0.2001 C   0  0  0  0  0  0  0  0  0  0  0  0
   -1.7688   -0.5132    0.1370 C   0  0  0  0  0  0  0  0  0  0  0  0
   -1.9487    0.8316   -0.1995 C   0  0  0  0  0  0  0  0  0  0  0  0
   -0.9012    1.7210   -0.3265 C   0  0  0  0  0  0  0  0  0  0  0  0
    0.3166    1.1750   -0.0984 N   0  0  0  0  0  0  0  0  0  0  0  0
    0.5412   -0.0987    0.2252 C   0  0  0  0  0  0  0  0  0  0  0  0
   -0.5123   -0.9335    0.3415 N   0  0  0  0  0  0  0  0  0  0  0  0
    1.8763   -0.6500    0.4220 C   0  0  0  0  0  0  0  0  0  0  0  0
    1.9927   -1.8317    0.8693 O   0  0  0  0  0  0  0  0  0  0  0  0
    3.0031    0.1241    0.1053 N   0  0  0  0  0  0  0  0  0  0  0  0
    4.3601   -0.2945    0.2355 C   0  0  0  0  0  0  0  0  0  0  0  0
    4.8255   -1.1870    1.1598 C   0  0  0  0  0  0  0  0  0  0  0  0
    6.1725   -1.5833    1.1692 C   0  0  0  0  0  0  0  0  0  0  0  0
    7.0945   -1.0973    0.2649 C   0  0  0  0  0  0  0  0  0  0  0  0
    6.6269   -0.1934   -0.6676 C   0  0  0  0  0  0  0  0  0  0  0  0
    5.3019    0.1996   -0.6851 C   0  0  0  0  0  0  0  0  0  0  0  0
    8.5121   -1.5499    0.2978 C   0  0  0  0  0  0  0  0  0  0  0  0
    9.2794   -0.5372    0.8055 F   0  0  0  0  0  0  0  0  0  0  0  0
    8.9645   -1.8582   -0.9730 F   0  0  0  0  0  0  0  0  0  0  0  0
    8.5836   -2.6154    1.1698 F   0  0  0  0  0  0  0  0  0  0  0  0
   -1.0583    3.0893   -0.6529 N   0  0  0  0  0  0  0  0  0  0  0  0
    0.1648    3.8794   -0.7737 C   0  0  0  0  0  0  0  0  0  0  0  0
   -0.1494    5.3569   -0.6884 C   0  0  0  0  0  0  0  0  0  0  0  0
   -1.3218    5.6597   -1.3805 O   0  0  0  0  0  0  0  0  0  0  0  0
   -2.3999    5.1253   -0.6644 C   0  0  0  0  0  0  0  0  0  0  0  0
   -2.3686    3.6291   -0.8397 C   0  0  0  0  0  0  0  0  0  0  0  0
   -6.6450   -4.3731   -0.1070 H   0  0  0  0  0  0  0  0  0  0  0  0
   -5.4682   -5.2999    0.8943 H   0  0  0  0  0  0  0  0  0  0  0  0
   -6.1237   -3.7196    1.5437 H   0  0  0  0  0  0  0  0  0  0  0  0
   -2.7771   -4.2130   -0.0499 H   0  0  0  0  0  0  0  0  0  0  0  0
   -3.6204   -4.4378    1.5312 H   0  0  0  0  0  0  0  0  0  0  0  0
   -1.8379   -2.7498    1.4704 H   0  0  0  0  0  0  0  0  0  0  0  0
   -3.3957   -2.1257    2.1108 H   0  0  0  0  0  0  0  0  0  0  0  0
   -4.3014   -0.2698   -0.7916 H   0  0  0  0  0  0  0  0  0  0  0  0
   -3.7048   -1.6743   -1.7069 H   0  0  0  0  0  0  0  0  0  0  0  0
   -5.5337   -1.8119    0.7660 H   0  0  0  0  0  0  0  0  0  0  0  0
   -5.9768   -2.1299   -0.9398 H   0  0  0  0  0  0  0  0  0  0  0  0
   -2.9451    1.1783   -0.3683 H   0  0  0  0  0  0  0  0  0  0  0  0
    2.8050    1.1091   -0.2636 H   0  0  0  0  0  0  0  0  0  0  0  0
    4.1430   -1.5927    1.9019 H   0  0  0  0  0  0  0  0  0  0  0  0
    6.4922   -2.2873    1.9083 H   0  0  0  0  0  0  0  0  0  0  0  0
    7.3714    0.1721   -1.3695 H   0  0  0  0  0  0  0  0  0  0  0  0
    4.9633    0.9025   -1.4205 H   0  0  0  0  0  0  0  0  0  0  0  0
    0.8745    3.6334    0.0128 H   0  0  0  0  0  0  0  0  0  0  0  0
    0.5975    3.6513   -1.7770 H   0  0  0  0  0  0  0  0  0  0  0  0
   -0.2956    5.6921    0.3576 H   0  0  0  0  0  0  0  0  0  0  0  0
    0.6573    5.9650   -1.1341 H   0  0  0  0  0  0  0  0  0  0  0  0
   -3.3669    5.5292   -1.0730 H   0  0  0  0  0  0  0  0  0  0  0  0
   -2.3470    5.4042    0.3862 H   0  0  0  0  0  0  0  0  0  0  0  0
   -2.7193    3.4011   -1.8811 H   0  0  0  0  0  0  0  0  0  0  0  0
   -3.1292    3.1468   -0.1697 H   0  0  0  0  0  0  0  0  0  0  0  0
  1  2  1  0
  2  3  1  0
  3  4  1  0
  4  5  1  0
  5  6  1  0
  6  7  1  0
  5  8  1  0
  8  9  2  0
  9 10  1  0
 10 11  2  0
 11 12  1  0
 12 13  2  0
 12 14  1  0
 14 15  2  0
 14 16  1  0
 16 17  1  0
 17 18  2  0
 18 19  1  0
 19 20  2  0
 20 21  1  0
 21 22  2  0
 20 23  1  0
 23 24  1  0
 23 25  1  0
 23 26  1  0
 10 27  1  0
 27 28  1  0
 28 29  1  0
 29 30  1  0
 30 31  1  0
 31 32  1  0
  7  2  1  0
 13  8  1  0
 22 17  1  0
 32 27  1  0
  1 33  1  0
  1 34  1  0
  1 35  1  0
  3 36  1  0
  3 37  1  0
  4 38  1  0
  4 39  1  0
  6 40  1  0
  6 41  1  0
  7 42  1  0
  7 43  1  0
  9 44  1  0
 16 45  1  0
 18 46  1  0
 19 47  1  0
 21 48  1  0
 22 49  1  0
 28 50  1  0
 28 51  1  0
 29 52  1  0
 29 53  1  0
 31 54  1  0
 31 55  1  0
 32 56  1  0
 32 57  1  0
M  END
$$$$
[H]c1c([H])c(C(=O)N([H])[C@]2([H])C([H])([H])N(S(=O)(=O)c3c([H])c([H])c(OC([H])([H])[H])c([H])c3[H])C([H])([H])[C@@]([H])(C(=O)N([H])[H])C2([H])[H])c([H])c(C(F)(F)F)c1[H]
     RDKit          3D

 55 57  0  0  0  0  0  0  0  0999 V2000
    7.9584    1.9774    0.1467 C   0  0  0  0  0  0  0  0  0  0  0  0
    6.8201    2.7595   -0.1201 O   0  0  0  0  0  0  0  0  0  0  0  0
    5.5603    2.1894   -0.0318 C   0  0  0  0  0  0  0  0  0  0  0  0
    5.4150    0.8730    0.3034 C   0  0  0  0  0  0  0  0  0  0  0  0
    4.1301    0.2963    0.3926 C   0  0  0  0  0  0  0  0  0  0  0  0
    3.0133    1.0041    0.1562 C   0  0  0  0  0  0  0  0  0  0  0  0
    3.2035    2.3634   -0.1880 C   0  0  0  0  0  0  0  0  0  0  0  0
    4.4321    2.9462   -0.2810 C   0  0  0  0  0  0  0  0  0  0  0  0
    1.3802    0.4668    0.2745 S   0  0  0  0  0  0  0  0  0  0  0  0
    0.8214    0.5674   -1.1676 O   0  0  0  0  0  0  0  0  0  0  0  0
    0.5743    1.5460    1.0432 O   0  0  0  0  0  0  0  0  0  0  0  0
    1.1242   -1.0452    0.9146 N   0  0  0  0  0  0  0  0  0  0  0  0
    1.6130   -2.2054    0.2877 C   0  0  0  0  0  0  0  0  0  0  0  0
    0.6434   -2.7684   -0.7501 C   0  0  2  0  0  0  0  0  0  0  0  0
   -0.7554   -2.3585   -0.5808 C   0  0  0  0  0  0  0  0  0  0  0  0
   -1.2089   -1.7854    0.7460 C   0  0  1  0  0  0  0  0  0  0  0  0
   -0.1265   -1.2578    1.6139 C   0  0  0  0  0  0  0  0  0  0  0  0
   -2.1395   -0.7162    0.4950 N   0  0  0  0  0  0  0  0  0  0  0  0
   -3.4393   -0.7480   -0.0464 C   0  0  0  0  0  0  0  0  0  0  0  0
   -3.9481   -1.8401   -0.3957 O   0  0  0  0  0  0  0  0  0  0  0  0
   -4.2021    0.5060   -0.1961 C   0  0  0  0  0  0  0  0  0  0  0  0
   -3.5091    1.6668   -0.3911 C   0  0  0  0  0  0  0  0  0  0  0  0
   -4.1109    2.8983   -0.5024 C   0  0  0  0  0  0  0  0  0  0  0  0
   -5.4722    2.9619   -0.4126 C   0  0  0  0  0  0  0  0  0  0  0  0
   -6.2060    1.8180   -0.2150 C   0  0  0  0  0  0  0  0  0  0  0  0
   -5.5649    0.5718   -0.1047 C   0  0  0  0  0  0  0  0  0  0  0  0
   -7.6793    1.9275   -0.1031 C   0  0  0  0  0  0  0  0  0  0  0  0
   -7.9232    2.4003    1.1959 F   0  0  0  0  0  0  0  0  0  0  0  0
   -8.3214    0.7456   -0.2949 F   0  0  0  0  0  0  0  0  0  0  0  0
   -8.1813    2.8807   -0.9514 F   0  0  0  0  0  0  0  0  0  0  0  0
    0.8517   -4.2246   -0.8072 C   0  0  0  0  0  0  0  0  0  0  0  0
    0.4379   -5.0628    0.2344 N   0  0  0  0  0  0  0  0  0  0  0  0
    1.4284   -4.7329   -1.8282 O   0  0  0  0  0  0  0  0  0  0  0  0
    8.8440    2.6000   -0.0476 H   0  0  0  0  0  0  0  0  0  0  0  0
    7.9719    1.6196    1.2030 H   0  0  0  0  0  0  0  0  0  0  0  0
    8.0266    1.1113   -0.5348 H   0  0  0  0  0  0  0  0  0  0  0  0
    6.2853    0.2617    0.5027 H   0  0  0  0  0  0  0  0  0  0  0  0
    4.0764   -0.7248    0.6676 H   0  0  0  0  0  0  0  0  0  0  0  0
    2.3262    2.9767   -0.3978 H   0  0  0  0  0  0  0  0  0  0  0  0
    4.5501    4.0006   -0.5472 H   0  0  0  0  0  0  0  0  0  0  0  0
    2.5743   -2.0748   -0.1841 H   0  0  0  0  0  0  0  0  0  0  0  0
    1.6960   -3.0031    1.0730 H   0  0  0  0  0  0  0  0  0  0  0  0
    1.0030   -2.3704   -1.7654 H   0  0  0  0  0  0  0  0  0  0  0  0
   -1.0530   -1.6033   -1.3612 H   0  0  0  0  0  0  0  0  0  0  0  0
   -1.4382   -3.2443   -0.7763 H   0  0  0  0  0  0  0  0  0  0  0  0
   -1.7459   -2.6500    1.2566 H   0  0  0  0  0  0  0  0  0  0  0  0
   -0.4131   -0.2623    2.0092 H   0  0  0  0  0  0  0  0  0  0  0  0
    0.0307   -1.8917    2.5199 H   0  0  0  0  0  0  0  0  0  0  0  0
   -1.8154    0.2714    0.7889 H   0  0  0  0  0  0  0  0  0  0  0  0
   -2.4394    1.6484   -0.4794 H   0  0  0  0  0  0  0  0  0  0  0  0
   -3.5524    3.8228   -0.6592 H   0  0  0  0  0  0  0  0  0  0  0  0
   -5.9606    3.9465   -0.4948 H   0  0  0  0  0  0  0  0  0  0  0  0
   -6.1226   -0.3140    0.0470 H   0  0  0  0  0  0  0  0  0  0  0  0
   -0.5294   -5.4592    0.1781 H   0  0  0  0  0  0  0  0  0  0  0  0
    1.0666   -5.2821    1.0291 H   0  0  0  0  0  0  0  0  0  0  0  0
  1  2  1  0
  2  3  1  0
  3  4  2  0
  4  5  1  0
  5  6  2  0
  6  7  1  0
  7  8  2  0
  6  9  1  0
  9 10  2  0
  9 11  2  0
  9 12  1  0
 12 13  1  0
 13 14  1  0
 14 15  1  0
 15 16  1  0
 16 17  1  0
 16 18  1  0
 18 19  1  0
 19 20  2  0
 19 21  1  0
 21 22  2  0
 22 23  1  0
 23 24  2  0
 24 25  1  0
 25 26  2  0
 25 27  1  0
 27 28  1  0
 27 29  1  0
 27 30  1  0
 14 31  1  0
 31 32  1  0
 31 33  2  0
  8  3  1  0
 17 12  1  0
 26 21  1  0
  1 34  1  0
  1 35  1  0
  1 36  1  0
  4 37  1  0
  5 38  1  0
  7 39  1  0
  8 40  1  0
 13 41  1  0
 13 42  1  0
 14 43  1  6
 15 44  1  0
 15 45  1  0
 16 46  1  1
 17 47  1  0
 17 48  1  0
 18 49  1  0
 22 50  1  0
 23 51  1  0
 24 52  1  0
 26 53  1  0
 32 54  1  0
 32 55  1  0
M  END
$$$$
[H]c1c([H])c(C(F)(F)F)c([H])c([H])c1C(=O)N([H])c1c([H])c([H])c(C([H])([H])[H])c(-c2nc3c([H])c([H])c(N4C([H])([H])C([H])([H])N(C([H])([H])[H])C([H])([H])C4([H])[H])c([H])c3n2[H])c1[H]
     RDKit          3D

 62 66  0  0  0  0  0  0  0  0999 V2000
    8.1838    1.3340    1.8157 C   0  0  0  0  0  0  0  0  0  0  0  0
    8.2728   -0.0873    1.5071 N   0  0  0  0  0  0  0  0  0  0  0  0
    7.9385   -0.3540    0.1354 C   0  0  0  0  0  0  0  0  0  0  0  0
    6.4990    0.1161   -0.1242 C   0  0  0  0  0  0  0  0  0  0  0  0
    5.6578   -0.7723    0.6711 N   0  0  0  0  0  0  0  0  0  0  0  0
    6.2920   -1.5496    1.7022 C   0  0  0  0  0  0  0  0  0  0  0  0
    7.4139   -0.7962    2.3992 C   0  0  0  0  0  0  0  0  0  0  0  0
    4.2567   -0.8491    0.4535 C   0  0  0  0  0  0  0  0  0  0  0  0
    3.4490   -1.8292    0.9844 C   0  0  0  0  0  0  0  0  0  0  0  0
    2.0881   -1.8746    0.8000 C   0  0  0  0  0  0  0  0  0  0  0  0
    1.4849   -0.8776    0.0325 C   0  0  0  0  0  0  0  0  0  0  0  0
    0.2437   -0.6042   -0.3363 N   0  0  0  0  0  0  0  0  0  0  0  0
    0.1760    0.5330   -1.1042 C   0  0  0  0  0  0  0  0  0  0  0  0
    1.4238    0.9588   -1.2012 N   0  0  0  0  0  0  0  0  0  0  0  0
    2.2630    0.1166   -0.5138 C   0  0  0  0  0  0  0  0  0  0  0  0
    3.6054    0.1284   -0.3084 C   0  0  0  0  0  0  0  0  0  0  0  0
   -1.0820    1.0077   -1.6680 C   0  0  0  0  0  0  0  0  0  0  0  0
   -2.2831    0.5273   -1.0966 C   0  0  0  0  0  0  0  0  0  0  0  0
   -3.5235    0.8893   -1.5544 C   0  0  0  0  0  0  0  0  0  0  0  0
   -4.7459    0.4731   -0.9876 N   0  0  0  0  0  0  0  0  0  0  0  0
   -4.9256   -0.3401    0.1657 C   0  0  0  0  0  0  0  0  0  0  0  0
   -4.0025   -0.8168    0.8273 O   0  0  0  0  0  0  0  0  0  0  0  0
   -6.3044   -0.6425    0.6131 C   0  0  0  0  0  0  0  0  0  0  0  0
   -7.1193    0.4398    0.9277 C   0  0  0  0  0  0  0  0  0  0  0  0
   -8.4108    0.2338    1.2967 C   0  0  0  0  0  0  0  0  0  0  0  0
   -8.9596   -1.0547    1.3728 C   0  0  0  0  0  0  0  0  0  0  0  0
   -8.1393   -2.1119    1.0608 C   0  0  0  0  0  0  0  0  0  0  0  0
   -6.8356   -1.8939    0.6883 C   0  0  0  0  0  0  0  0  0  0  0  0
  -10.3800   -1.2022    1.7634 C   0  0  0  0  0  0  0  0  0  0  0  0
  -10.6281   -0.7607    3.0573 F   0  0  0  0  0  0  0  0  0  0  0  0
  -11.2120   -0.4666    0.9314 F   0  0  0  0  0  0  0  0  0  0  0  0
  -10.7614   -2.5138    1.6845 F   0  0  0  0  0  0  0  0  0  0  0  0
   -3.6255    1.7743   -2.6411 C   0  0  0  0  0  0  0  0  0  0  0  0
   -2.4746    2.2435   -3.2006 C   0  0  0  0  0  0  0  0  0  0  0  0
   -1.2105    1.8591   -2.7145 C   0  0  0  0  0  0  0  0  0  0  0  0
   -0.0301    2.4133   -3.4165 C   0  0  0  0  0  0  0  0  0  0  0  0
    8.2098    1.9330    0.8871 H   0  0  0  0  0  0  0  0  0  0  0  0
    7.2516    1.5694    2.3463 H   0  0  0  0  0  0  0  0  0  0  0  0
    9.0306    1.6105    2.4649 H   0  0  0  0  0  0  0  0  0  0  0  0
    8.6537    0.1001   -0.5667 H   0  0  0  0  0  0  0  0  0  0  0  0
    7.8905   -1.4568   -0.0070 H   0  0  0  0  0  0  0  0  0  0  0  0
    6.3920    1.1740    0.1624 H   0  0  0  0  0  0  0  0  0  0  0  0
    6.3325    0.0162   -1.2013 H   0  0  0  0  0  0  0  0  0  0  0  0
    5.5161   -1.8518    2.4503 H   0  0  0  0  0  0  0  0  0  0  0  0
    6.6758   -2.5008    1.2748 H   0  0  0  0  0  0  0  0  0  0  0  0
    6.9275   -0.1027    3.1416 H   0  0  0  0  0  0  0  0  0  0  0  0
    7.9749   -1.5180    3.0407 H   0  0  0  0  0  0  0  0  0  0  0  0
    3.9139   -2.6200    1.5721 H   0  0  0  0  0  0  0  0  0  0  0  0
    1.4954   -2.6451    1.2227 H   0  0  0  0  0  0  0  0  0  0  0  0
    1.7650    1.7921   -1.6857 H   0  0  0  0  0  0  0  0  0  0  0  0
    4.2283    0.8999   -0.7353 H   0  0  0  0  0  0  0  0  0  0  0  0
   -2.1669   -0.1561   -0.2709 H   0  0  0  0  0  0  0  0  0  0  0  0
   -5.6499    0.7913   -1.4551 H   0  0  0  0  0  0  0  0  0  0  0  0
   -6.7155    1.4633    0.8720 H   0  0  0  0  0  0  0  0  0  0  0  0
   -9.0681    1.0698    1.5538 H   0  0  0  0  0  0  0  0  0  0  0  0
   -8.5821   -3.0989    1.1249 H   0  0  0  0  0  0  0  0  0  0  0  0
   -6.2182   -2.7394    0.4474 H   0  0  0  0  0  0  0  0  0  0  0  0
   -4.5964    2.0801   -3.0351 H   0  0  0  0  0  0  0  0  0  0  0  0
   -2.5482    2.9288   -4.0398 H   0  0  0  0  0  0  0  0  0  0  0  0
    0.6298    1.5693   -3.6865 H   0  0  0  0  0  0  0  0  0  0  0  0
    0.4407    3.2383   -2.8843 H   0  0  0  0  0  0  0  0  0  0  0  0
   -0.3773    2.8026   -4.4366 H   0  0  0  0  0  0  0  0  0  0  0  0
  1  2  1  0
  2  3  1  0
  3  4  1  0
  4  5  1  0
  5  6  1  0
  6  7  1  0
  5  8  1  0
  8  9  2  0
  9 10  1  0
 10 11  2  0
 11 12  1  0
 12 13  2  0
 13 14  1  0
 14 15  1  0
 15 16  2  0
 13 17  1  0
 17 18  2  0
 18 19  1  0
 19 20  1  0
 20 21  1  0
 21 22  2  0
 21 23  1  0
 23 24  2  0
 24 25  1  0
 25 26  2  0
 26 27  1  0
 27 28  2  0
 26 29  1  0
 29 30  1  0
 29 31  1  0
 29 32  1  0
 19 33  2  0
 33 34  1  0
 34 35  2  0
 35 36  1  0
  7  2  1  0
 16  8  1  0
 35 17  1  0
 15 11  1  0
 28 23  1  0
  1 37  1  0
  1 38  1  0
  1 39  1  0
  3 40  1  0
  3 41  1  0
  4 42  1  0
  4 43  1  0
  6 44  1  0
  6 45  1  0
  7 46  1  0
  7 47  1  0
  9 48  1  0
 10 49  1  0
 14 50  1  0
 16 51  1  0
 18 52  1  0
 20 53  1  0
 24 54  1  0
 25 55  1  0
 27 56  1  0
 28 57  1  0
 33 58  1  0
 34 59  1  0
 36 60  1  0
 36 61  1  0
 36 62  1  0
M  END
$$$$
[H]c1nc2c([H])c(OC([H])([H])C([H])([H])C([H])([H])N3C([H])([H])C([H])([H])C([H])([H])C([H])([H])C3([H])[H])c(OC([H])([H])[H])c([H])c2c(Oc2c([H])c([H])c(N([H])C(=O)c3nn(C([H])([H])[H])c(=O)c4c([H])c([H])c([H])c([H])c4c3=O)c([H])c2F)c1[H]
     RDKit          3D

 81 86  0  0  0  0  0  0  0  0999 V2000
   -2.3761    2.3766   -2.8073 C   0  0  0  0  0  0  0  0  0  0  0  0
   -3.3393    1.9225   -1.8970 O   0  0  0  0  0  0  0  0  0  0  0  0
   -2.9876    1.2980   -0.7324 C   0  0  0  0  0  0  0  0  0  0  0  0
   -1.6857    1.0808   -0.3372 C   0  0  0  0  0  0  0  0  0  0  0  0
   -1.3464    0.4496    0.8509 C   0  0  0  0  0  0  0  0  0  0  0  0
    0.0235    0.3068    1.1539 C   0  0  0  0  0  0  0  0  0  0  0  0
    0.8739    0.7788    0.2618 O   0  0  0  0  0  0  0  0  0  0  0  0
    2.1497    0.9944    0.0529 C   0  0  0  0  0  0  0  0  0  0  0  0
    2.8284    0.3866   -0.9758 C   0  0  0  0  0  0  0  0  0  0  0  0
    4.1536    0.6115   -1.2141 C   0  0  0  0  0  0  0  0  0  0  0  0
    4.8786    1.4910   -0.3948 C   0  0  0  0  0  0  0  0  0  0  0  0
    6.1873    1.7530   -0.6324 N   0  0  0  0  0  0  0  0  0  0  0  0
    7.4785    2.0146   -0.8674 C   0  0  0  0  0  0  0  0  0  0  0  0
    7.9856    3.1814   -1.1432 O   0  0  0  0  0  0  0  0  0  0  0  0
    8.5418    0.9656   -0.8394 C   0  0  0  0  0  0  0  0  0  0  0  0
    9.7457    1.3422   -1.3678 N   0  0  0  0  0  0  0  0  0  0  0  0
   10.7436    0.6267   -1.8694 N   0  0  0  0  0  0  0  0  0  0  0  0
   11.6388    1.3095   -2.7913 C   0  0  0  0  0  0  0  0  0  0  0  0
   11.0025   -0.6612   -1.6138 C   0  0  0  0  0  0  0  0  0  0  0  0
   11.9249   -1.1728   -2.3075 O   0  0  0  0  0  0  0  0  0  0  0  0
   10.4062   -1.5235   -0.6938 C   0  0  0  0  0  0  0  0  0  0  0  0
   11.1897   -2.6243   -0.4380 C   0  0  0  0  0  0  0  0  0  0  0  0
   10.6897   -3.5691    0.4677 C   0  0  0  0  0  0  0  0  0  0  0  0
    9.4677   -3.3852    1.0635 C   0  0  0  0  0  0  0  0  0  0  0  0
    8.7197   -2.2530    0.7662 C   0  0  0  0  0  0  0  0  0  0  0  0
    9.1688   -1.3103   -0.1081 C   0  0  0  0  0  0  0  0  0  0  0  0
    8.3030   -0.2369   -0.2625 C   0  0  0  0  0  0  0  0  0  0  0  0
    7.1703   -0.4399    0.2030 O   0  0  0  0  0  0  0  0  0  0  0  0
    4.1799    2.1045    0.6573 C   0  0  0  0  0  0  0  0  0  0  0  0
    2.8611    1.8721    0.8836 C   0  0  0  0  0  0  0  0  0  0  0  0
    2.1566    2.4501    1.8863 F   0  0  0  0  0  0  0  0  0  0  0  0
    0.3050   -0.3056    2.3543 C   0  0  0  0  0  0  0  0  0  0  0  0
   -0.7313   -0.7357    3.1752 C   0  0  0  0  0  0  0  0  0  0  0  0
   -2.0293   -0.5863    2.8611 N   0  0  0  0  0  0  0  0  0  0  0  0
   -2.3266    0.0089    1.6936 C   0  0  0  0  0  0  0  0  0  0  0  0
   -3.6506    0.2264    1.2963 C   0  0  0  0  0  0  0  0  0  0  0  0
   -4.0087    0.8470    0.1257 C   0  0  0  0  0  0  0  0  0  0  0  0
   -5.3268    1.0445   -0.2451 O   0  0  0  0  0  0  0  0  0  0  0  0
   -6.4701    0.6743    0.4561 C   0  0  0  0  0  0  0  0  0  0  0  0
   -7.7166    1.0299   -0.3399 C   0  0  0  0  0  0  0  0  0  0  0  0
   -8.9626    0.6190    0.3637 C   0  0  0  0  0  0  0  0  0  0  0  0
   -9.0433   -0.7812    0.6261 N   0  0  0  0  0  0  0  0  0  0  0  0
   -9.1859   -1.5505   -0.5656 C   0  0  0  0  0  0  0  0  0  0  0  0
  -10.5293   -1.3663   -1.2344 C   0  0  0  0  0  0  0  0  0  0  0  0
  -11.6206   -1.6082   -0.2427 C   0  0  0  0  0  0  0  0  0  0  0  0
  -11.1421   -1.9600    1.1361 C   0  0  0  0  0  0  0  0  0  0  0  0
  -10.0228   -1.0821    1.6330 C   0  0  0  0  0  0  0  0  0  0  0  0
   -1.6520    1.5511   -2.9308 H   0  0  0  0  0  0  0  0  0  0  0  0
   -1.8623    3.2878   -2.4004 H   0  0  0  0  0  0  0  0  0  0  0  0
   -2.8032    2.6706   -3.7635 H   0  0  0  0  0  0  0  0  0  0  0  0
   -0.8680    1.4215   -0.9922 H   0  0  0  0  0  0  0  0  0  0  0  0
    2.2897   -0.3112   -1.6309 H   0  0  0  0  0  0  0  0  0  0  0  0
    4.7177    0.1503   -2.0137 H   0  0  0  0  0  0  0  0  0  0  0  0
    5.8609    3.0439   -0.9763 H   0  0  0  0  0  0  0  0  0  0  0  0
   11.1375    1.4727   -3.7564 H   0  0  0  0  0  0  0  0  0  0  0  0
   12.0029    2.2030   -2.2862 H   0  0  0  0  0  0  0  0  0  0  0  0
   12.5223    0.6523   -3.0135 H   0  0  0  0  0  0  0  0  0  0  0  0
   12.1466   -2.7388   -0.9234 H   0  0  0  0  0  0  0  0  0  0  0  0
   11.3042   -4.4345    0.6789 H   0  0  0  0  0  0  0  0  0  0  0  0
    9.0883   -4.1142    1.7586 H   0  0  0  0  0  0  0  0  0  0  0  0
    7.7538   -2.1301    1.2433 H   0  0  0  0  0  0  0  0  0  0  0  0
    4.7367    2.7840    1.2937 H   0  0  0  0  0  0  0  0  0  0  0  0
    1.3531   -0.4292    2.6190 H   0  0  0  0  0  0  0  0  0  0  0  0
   -0.4133   -1.2082    4.0992 H   0  0  0  0  0  0  0  0  0  0  0  0
   -4.4144   -0.1142    1.9639 H   0  0  0  0  0  0  0  0  0  0  0  0
   -6.4619   -0.3603    0.7919 H   0  0  0  0  0  0  0  0  0  0  0  0
   -6.5142    1.3083    1.3776 H   0  0  0  0  0  0  0  0  0  0  0  0
   -7.6143    0.6013   -1.3370 H   0  0  0  0  0  0  0  0  0  0  0  0
   -7.7398    2.1431   -0.4511 H   0  0  0  0  0  0  0  0  0  0  0  0
   -9.0907    1.1807    1.3210 H   0  0  0  0  0  0  0  0  0  0  0  0
   -9.8215    0.9695   -0.2772 H   0  0  0  0  0  0  0  0  0  0  0  0
   -9.0152   -2.6300   -0.3685 H   0  0  0  0  0  0  0  0  0  0  0  0
   -8.4192   -1.2335   -1.2961 H   0  0  0  0  0  0  0  0  0  0  0  0
  -10.5641   -2.0576   -2.0978 H   0  0  0  0  0  0  0  0  0  0  0  0
  -10.6025   -0.3407   -1.6552 H   0  0  0  0  0  0  0  0  0  0  0  0
  -12.1957   -2.5058   -0.6200 H   0  0  0  0  0  0  0  0  0  0  0  0
  -12.3152   -0.7654   -0.2606 H   0  0  0  0  0  0  0  0  0  0  0  0
  -10.8854   -3.0425    1.2507 H   0  0  0  0  0  0  0  0  0  0  0  0
  -12.0072   -1.7744    1.8272 H   0  0  0  0  0  0  0  0  0  0  0  0
  -10.4366   -0.1891    2.1412 H   0  0  0  0  0  0  0  0  0  0  0  0
   -9.4895   -1.6747    2.4141 H   0  0  0  0  0  0  0  0  0  0  0  0
  1  2  1  0
  2  3  1  0
  3  4  2  0
  4  5  1  0
  5  6  2  0
  6  7  1  0
  7  8  1  0
  8  9  2  0
  9 10  1  0
 10 11  2  0
 11 12  1  0
 12 13  1  0
 13 14  2  0
 13 15  1  0
 15 16  2  0
 16 17  1  0
 17 18  1  0
 17 19  1  0
 19 20  2  0
 19 21  1  0
 21 22  2  0
 22 23  1  0
 23 24  2  0
 24 25  1  0
 25 26  2  0
 26 27  1  0
 27 28  2  0
 11 29  1  0
 29 30  2  0
 30 31  1  0
  6 32  1  0
 32 33  2  0
 33 34  1  0
 34 35  2  0
 35 36  1  0
 36 37  2  0
 37 38  1  0
 38 39  1  0
 39 40  1  0
 40 41  1  0
 41 42  1  0
 42 43  1  0
 43 44  1  0
 44 45  1  0
 45 46  1  0
 46 47  1  0
 37  3  1  0
 47 42  1  0
 35  5  1  0
 30  8  1  0
 27 15  1  0
 26 21  1  0
  1 48  1  0
  1 49  1  0
  1 50  1  0
  4 51  1  0
  9 52  1  0
 10 53  1  0
 12 54  1  0
 18 55  1  0
 18 56  1  0
 18 57  1  0
 22 58  1  0
 23 59  1  0
 24 60  1  0
 25 61  1  0
 29 62  1  0
 32 63  1  0
 33 64  1  0
 36 65  1  0
 39 66  1  0
 39 67  1  0
 40 68  1  0
 40 69  1  0
 41 70  1  0
 41 71  1  0
 43 72  1  0
 43 73  1  0
 44 74  1  0
 44 75  1  0
 45 76  1  0
 45 77  1  0
 46 78  1  0
 46 79  1  0
 47 80  1  0
 47 81  1  0
M  END
$$$$
[H]N=C(N([H])[H])N([H])C([H])([H])C([H])([H])C([H])([H])[C@@]([H])(C(=O)N([H])[C@]([H])(C(=O)N([H])[H])C([H])([H])c1c([H])c([H])c([H])c([H])c1[H])N([H])C(=O)[C@@]([H])(N([H])C(=O)[C@@]([H])(N([H])[H])C([H])([H])c1c([H])c([H])c([H])c([H])c1[H])C([H])([H])C([H])(C([H])([H])[H])C([H])([H])[H]
     RDKit          3D

 86 87  0  0  0  0  0  0  0  0999 V2000
    3.3759   -2.1853   -3.8180 C   0  0  0  0  0  0  0  0  0  0  0  0
    3.4109   -0.9773   -2.9168 C   0  0  0  0  0  0  0  0  0  0  0  0
    3.5722    0.2492   -3.7877 C   0  0  0  0  0  0  0  0  0  0  0  0
    2.1237   -0.9602   -2.1199 C   0  0  0  0  0  0  0  0  0  0  0  0
    2.0445    0.1941   -1.1888 C   0  0  2  0  0  0  0  0  0  0  0  0
    3.1532    0.1470   -0.2470 N   0  0  0  0  0  0  0  0  0  0  0  0
    3.9911    1.2568   -0.0100 C   0  0  0  0  0  0  0  0  0  0  0  0
    3.7937    2.3230   -0.6175 O   0  0  0  0  0  0  0  0  0  0  0  0
    5.0949    1.1475    0.9572 C   0  0  1  0  0  0  0  0  0  0  0  0
    5.8419    2.3866    1.0857 N   0  0  0  0  0  0  0  0  0  0  0  0
    4.5445    0.8005    2.3089 C   0  0  0  0  0  0  0  0  0  0  0  0
    5.6385    0.6907    3.3093 C   0  0  0  0  0  0  0  0  0  0  0  0
    6.2479   -0.5195    3.5409 C   0  0  0  0  0  0  0  0  0  0  0  0
    7.2721   -0.5882    4.4838 C   0  0  0  0  0  0  0  0  0  0  0  0
    7.6990    0.5066    5.1930 C   0  0  0  0  0  0  0  0  0  0  0  0
    7.0737    1.7057    4.9431 C   0  0  0  0  0  0  0  0  0  0  0  0
    6.0581    1.7957    4.0148 C   0  0  0  0  0  0  0  0  0  0  0  0
    0.7831    0.1697   -0.3877 C   0  0  0  0  0  0  0  0  0  0  0  0
    0.7906    0.1491    0.8608 O   0  0  0  0  0  0  0  0  0  0  0  0
   -0.4999    0.1746   -1.0323 N   0  0  0  0  0  0  0  0  0  0  0  0
   -1.6895    0.1786   -0.2744 C   0  0  1  0  0  0  0  0  0  0  0  0
   -2.6862    1.2180   -0.4694 C   0  0  0  0  0  0  0  0  0  0  0  0
   -3.3919    1.4596   -1.7245 C   0  0  0  0  0  0  0  0  0  0  0  0
   -2.5834    1.7863   -2.9499 C   0  0  0  0  0  0  0  0  0  0  0  0
   -1.7489    2.9124   -2.7229 N   0  0  0  0  0  0  0  0  0  0  0  0
   -2.1936    4.2169   -2.5092 C   0  0  0  0  0  0  0  0  0  0  0  0
   -1.3769    5.1074   -1.7150 N   0  0  0  0  0  0  0  0  0  0  0  0
   -3.2898    4.6584   -2.9673 N   0  0  0  0  0  0  0  0  0  0  0  0
   -2.2893   -1.2026   -0.2472 C   0  0  0  0  0  0  0  0  0  0  0  0
   -1.4916   -2.2035   -0.3498 O   0  0  0  0  0  0  0  0  0  0  0  0
   -3.6737   -1.3984   -0.1150 N   0  0  0  0  0  0  0  0  0  0  0  0
   -4.2123   -2.7418   -0.0700 C   0  0  1  0  0  0  0  0  0  0  0  0
   -5.6345   -2.8153    0.3330 C   0  0  0  0  0  0  0  0  0  0  0  0
   -5.9806   -2.2590    1.6429 C   0  0  0  0  0  0  0  0  0  0  0  0
   -5.9274   -2.9887    2.8004 C   0  0  0  0  0  0  0  0  0  0  0  0
   -6.2639   -2.4859    4.0465 C   0  0  0  0  0  0  0  0  0  0  0  0
   -6.6854   -1.1603    4.1613 C   0  0  0  0  0  0  0  0  0  0  0  0
   -6.7385   -0.4307    3.0045 C   0  0  0  0  0  0  0  0  0  0  0  0
   -6.4057   -0.9256    1.7661 C   0  0  0  0  0  0  0  0  0  0  0  0
   -4.2001   -3.1738   -1.5421 C   0  0  0  0  0  0  0  0  0  0  0  0
   -4.6666   -4.4710   -1.8131 N   0  0  0  0  0  0  0  0  0  0  0  0
   -3.8018   -2.4300   -2.4550 O   0  0  0  0  0  0  0  0  0  0  0  0
    2.8239   -3.0223   -3.3599 H   0  0  0  0  0  0  0  0  0  0  0  0
    4.3949   -2.5480   -4.0879 H   0  0  0  0  0  0  0  0  0  0  0  0
    2.7997   -1.9493   -4.7592 H   0  0  0  0  0  0  0  0  0  0  0  0
    4.3064   -1.0718   -2.2714 H   0  0  0  0  0  0  0  0  0  0  0  0
    3.5727    0.0062   -4.8696 H   0  0  0  0  0  0  0  0  0  0  0  0
    2.7161    0.9441   -3.6277 H   0  0  0  0  0  0  0  0  0  0  0  0
    4.5481    0.7507   -3.5788 H   0  0  0  0  0  0  0  0  0  0  0  0
    2.0693   -1.9027   -1.5576 H   0  0  0  0  0  0  0  0  0  0  0  0
    1.3038   -0.9235   -2.8659 H   0  0  0  0  0  0  0  0  0  0  0  0
    2.0336    1.1819   -1.7170 H   0  0  0  0  0  0  0  0  0  0  0  0
    3.2763   -0.7852    0.2344 H   0  0  0  0  0  0  0  0  0  0  0  0
    5.8048    0.3882    0.5694 H   0  0  0  0  0  0  0  0  0  0  0  0
    5.3220    3.2103    0.7017 H   0  0  0  0  0  0  0  0  0  0  0  0
    6.8208    2.3118    0.7372 H   0  0  0  0  0  0  0  0  0  0  0  0
    3.8224    1.5520    2.6204 H   0  0  0  0  0  0  0  0  0  0  0  0
    4.0791   -0.2044    2.2429 H   0  0  0  0  0  0  0  0  0  0  0  0
    5.9460   -1.4134    3.0058 H   0  0  0  0  0  0  0  0  0  0  0  0
    7.7187   -1.5386    4.6349 H   0  0  0  0  0  0  0  0  0  0  0  0
    8.4921    0.4218    5.9154 H   0  0  0  0  0  0  0  0  0  0  0  0
    7.3886    2.6024    5.4908 H   0  0  0  0  0  0  0  0  0  0  0  0
    5.5634    2.7443    3.8176 H   0  0  0  0  0  0  0  0  0  0  0  0
   -0.4321    0.1703   -2.0781 H   0  0  0  0  0  0  0  0  0  0  0  0
   -1.3318    0.3064    0.8255 H   0  0  0  0  0  0  0  0  0  0  0  0
   -3.4804    1.1395    0.3448 H   0  0  0  0  0  0  0  0  0  0  0  0
   -2.2312    2.2471   -0.1789 H   0  0  0  0  0  0  0  0  0  0  0  0
   -4.2015    0.7180   -1.9630 H   0  0  0  0  0  0  0  0  0  0  0  0
   -4.0099    2.4086   -1.5578 H   0  0  0  0  0  0  0  0  0  0  0  0
   -2.0819    0.9316   -3.4255 H   0  0  0  0  0  0  0  0  0  0  0  0
   -3.3745    2.1476   -3.7030 H   0  0  0  0  0  0  0  0  0  0  0  0
   -0.7015    2.7322   -2.7195 H   0  0  0  0  0  0  0  0  0  0  0  0
   -0.4552    5.4485   -2.0537 H   0  0  0  0  0  0  0  0  0  0  0  0
   -1.6982    5.4382   -0.7604 H   0  0  0  0  0  0  0  0  0  0  0  0
   -3.9156    4.0542   -3.5336 H   0  0  0  0  0  0  0  0  0  0  0  0
   -4.3186   -0.6058   -0.0423 H   0  0  0  0  0  0  0  0  0  0  0  0
   -3.5101   -3.4274    0.4450 H   0  0  0  0  0  0  0  0  0  0  0  0
   -5.9208   -3.9149    0.2724 H   0  0  0  0  0  0  0  0  0  0  0  0
   -6.2478   -2.3631   -0.5069 H   0  0  0  0  0  0  0  0  0  0  0  0
   -5.5960   -4.0353    2.7148 H   0  0  0  0  0  0  0  0  0  0  0  0
   -6.2186   -3.0673    4.9531 H   0  0  0  0  0  0  0  0  0  0  0  0
   -6.9508   -0.7501    5.1319 H   0  0  0  0  0  0  0  0  0  0  0  0
   -7.0655    0.6080    3.0669 H   0  0  0  0  0  0  0  0  0  0  0  0
   -6.4678   -0.3200    0.8903 H   0  0  0  0  0  0  0  0  0  0  0  0
   -4.4610   -5.2356   -1.1370 H   0  0  0  0  0  0  0  0  0  0  0  0
   -5.2098   -4.7024   -2.6622 H   0  0  0  0  0  0  0  0  0  0  0  0
  1  2  1  0
  2  3  1  0
  2  4  1  0
  4  5  1  0
  5  6  1  0
  6  7  1  0
  7  8  2  0
  7  9  1  0
  9 10  1  0
  9 11  1  0
 11 12  1  0
 12 13  2  0
 13 14  1  0
 14 15  2  0
 15 16  1  0
 16 17  2  0
  5 18  1  0
 18 19  2  0
 18 20  1  0
 20 21  1  0
 21 22  1  0
 22 23  1  0
 23 24  1  0
 24 25  1  0
 25 26  1  0
 26 27  1  0
 26 28  2  3
 21 29  1  0
 29 30  2  0
 29 31  1  0
 31 32  1  0
 32 33  1  0
 33 34  1  0
 34 35  2  0
 35 36  1  0
 36 37  2  0
 37 38  1  0
 38 39  2  0
 32 40  1  0
 40 41  1  0
 40 42  2  0
 17 12  1  0
 39 34  1  0
  1 43  1  0
  1 44  1  0
  1 45  1  0
  2 46  1  0
  3 47  1  0
  3 48  1  0
  3 49  1  0
  4 50  1  0
  4 51  1  0
  5 52  1  6
  6 53  1  0
  9 54  1  6
 10 55  1  0
 10 56  1  0
 11 57  1  0
 11 58  1  0
 13 59  1  0
 14 60  1  0
 15 61  1  0
 16 62  1  0
 17 63  1  0
 20 64  1  0
 21 65  1  1
 22 66  1  0
 22 67  1  0
 23 68  1  0
 23 69  1  0
 24 70  1  0
 24 71  1  0
 25 72  1  0
 27 73  1  0
 27 74  1  0
 28 75  1  0
 31 76  1  0
 32 77  1  1
 33 78  1  0
 33 79  1  0
 35 80  1  0
 36 81  1  0
 37 82  1  0
 38 83  1  0
 39 84  1  0
 41 85  1  0
 41 86  1  0
M  END
$$$$
[H]c1c([H])c([H])c(C([H])([H])[C@]2([H])C(=O)N3C([H])([H])C([H])([H])C([H])([H])[C@@]3([H])C(=O)N([H])[C@@]([H])(C([H])([H])c3c([H])n([H])c4c([H])c([H])c([H])c([H])c34)C(=O)N([H])[C@@]([H])(C([H])(C([H])([H])[H])C([H])([H])[H])C(=O)N2[H])c([H])c1[H]
     RDKit          3D

 74 78  0  0  0  0  0  0  0  0999 V2000
    2.0371   -4.7564   -0.3658 C   0  0  0  0  0  0  0  0  0  0  0  0
    0.9685   -4.2515    0.5471 C   0  0  0  0  0  0  0  0  0  0  0  0
   -0.4005   -4.7693    0.2067 C   0  0  0  0  0  0  0  0  0  0  0  0
    0.9873   -2.7153    0.5750 C   0  0  2  0  0  0  0  0  0  0  0  0
    0.7476   -2.3117   -0.7988 N   0  0  0  0  0  0  0  0  0  0  0  0
   -0.4685   -1.8762   -1.3296 C   0  0  0  0  0  0  0  0  0  0  0  0
   -0.8417   -2.2978   -2.4517 O   0  0  0  0  0  0  0  0  0  0  0  0
   -1.3983   -0.9082   -0.6398 C   0  0  2  0  0  0  0  0  0  0  0  0
   -2.7909   -1.3736   -0.9601 C   0  0  0  0  0  0  0  0  0  0  0  0
   -3.8725   -0.5625   -0.3775 C   0  0  0  0  0  0  0  0  0  0  0  0
   -4.5087   -0.8773    0.8309 C   0  0  0  0  0  0  0  0  0  0  0  0
   -5.4172    0.0686    1.1117 N   0  0  0  0  0  0  0  0  0  0  0  0
   -5.4196    1.0015    0.1478 C   0  0  0  0  0  0  0  0  0  0  0  0
   -6.1720    2.1465   -0.0128 C   0  0  0  0  0  0  0  0  0  0  0  0
   -5.9348    2.9028   -1.1483 C   0  0  0  0  0  0  0  0  0  0  0  0
   -4.9935    2.5435   -2.0869 C   0  0  0  0  0  0  0  0  0  0  0  0
   -4.2568    1.3959   -1.9009 C   0  0  0  0  0  0  0  0  0  0  0  0
   -4.4523    0.6083   -0.7881 C   0  0  0  0  0  0  0  0  0  0  0  0
   -1.0905    0.3786   -1.1994 N   0  0  0  0  0  0  0  0  0  0  0  0
   -0.5749    1.4673   -0.4456 C   0  0  0  0  0  0  0  0  0  0  0  0
    0.0991    2.3360   -1.0573 O   0  0  0  0  0  0  0  0  0  0  0  0
   -0.8035    1.6007    0.9824 C   0  0  2  0  0  0  0  0  0  0  0  0
   -1.1398    3.0739    1.2168 C   0  0  0  0  0  0  0  0  0  0  0  0
   -0.1159    3.5365    2.2648 C   0  0  0  0  0  0  0  0  0  0  0  0
    0.0265    2.2179    3.0135 C   0  0  0  0  0  0  0  0  0  0  0  0
    0.2858    1.3193    1.8708 N   0  0  0  0  0  0  0  0  0  0  0  0
    1.3381    0.4114    1.7396 C   0  0  0  0  0  0  0  0  0  0  0  0
    1.5867   -0.3815    2.7341 O   0  0  0  0  0  0  0  0  0  0  0  0
    2.2542    0.2070    0.5895 C   0  0  1  0  0  0  0  0  0  0  0  0
    3.1951    1.3869    0.6016 C   0  0  0  0  0  0  0  0  0  0  0  0
    4.2017    1.4067   -0.4545 C   0  0  0  0  0  0  0  0  0  0  0  0
    3.8989    1.9736   -1.7000 C   0  0  0  0  0  0  0  0  0  0  0  0
    4.8150    2.0298   -2.7283 C   0  0  0  0  0  0  0  0  0  0  0  0
    6.0855    1.5218   -2.5677 C   0  0  0  0  0  0  0  0  0  0  0  0
    6.3998    0.9611   -1.3493 C   0  0  0  0  0  0  0  0  0  0  0  0
    5.4772    0.9048   -0.3142 C   0  0  0  0  0  0  0  0  0  0  0  0
    2.9658   -1.0721    0.7414 N   0  0  0  0  0  0  0  0  0  0  0  0
    2.3136   -2.2738    1.0741 C   0  0  0  0  0  0  0  0  0  0  0  0
    2.9081   -3.0656    1.8782 O   0  0  0  0  0  0  0  0  0  0  0  0
    2.4540   -5.7077    0.0261 H   0  0  0  0  0  0  0  0  0  0  0  0
    1.6760   -4.9747   -1.3926 H   0  0  0  0  0  0  0  0  0  0  0  0
    2.8321   -3.9684   -0.4127 H   0  0  0  0  0  0  0  0  0  0  0  0
    1.2119   -4.6198    1.5795 H   0  0  0  0  0  0  0  0  0  0  0  0
   -0.4023   -5.8600    0.4935 H   0  0  0  0  0  0  0  0  0  0  0  0
   -0.6507   -4.7208   -0.8583 H   0  0  0  0  0  0  0  0  0  0  0  0
   -1.1528   -4.2925    0.8660 H   0  0  0  0  0  0  0  0  0  0  0  0
    0.1485   -2.3878    1.2297 H   0  0  0  0  0  0  0  0  0  0  0  0
    1.5963   -2.3631   -1.4380 H   0  0  0  0  0  0  0  0  0  0  0  0
   -1.1977   -0.9193    0.4566 H   0  0  0  0  0  0  0  0  0  0  0  0
   -2.9078   -2.4654   -0.6838 H   0  0  0  0  0  0  0  0  0  0  0  0
   -2.8614   -1.4043   -2.0890 H   0  0  0  0  0  0  0  0  0  0  0  0
   -4.2940   -1.7450    1.4303 H   0  0  0  0  0  0  0  0  0  0  0  0
   -6.0403    0.0880    1.9569 H   0  0  0  0  0  0  0  0  0  0  0  0
   -6.9211    2.4619    0.7018 H   0  0  0  0  0  0  0  0  0  0  0  0
   -6.5036    3.8053   -1.3086 H   0  0  0  0  0  0  0  0  0  0  0  0
   -4.8029    3.1282   -2.9749 H   0  0  0  0  0  0  0  0  0  0  0  0
   -3.5441    1.1256   -2.6440 H   0  0  0  0  0  0  0  0  0  0  0  0
   -1.2713    0.4811   -2.2431 H   0  0  0  0  0  0  0  0  0  0  0  0
   -1.7353    1.0509    1.2722 H   0  0  0  0  0  0  0  0  0  0  0  0
   -2.1596    3.2059    1.6275 H   0  0  0  0  0  0  0  0  0  0  0  0
   -1.0052    3.6937    0.3221 H   0  0  0  0  0  0  0  0  0  0  0  0
    0.8393    3.7735    1.7780 H   0  0  0  0  0  0  0  0  0  0  0  0
   -0.5267    4.3293    2.8979 H   0  0  0  0  0  0  0  0  0  0  0  0
   -0.9929    1.9348    3.3551 H   0  0  0  0  0  0  0  0  0  0  0  0
    0.7666    2.2110    3.7915 H   0  0  0  0  0  0  0  0  0  0  0  0
    1.7769    0.1355   -0.3848 H   0  0  0  0  0  0  0  0  0  0  0  0
    3.7461    1.4589    1.5825 H   0  0  0  0  0  0  0  0  0  0  0  0
    2.5791    2.3082    0.5607 H   0  0  0  0  0  0  0  0  0  0  0  0
    2.9129    2.3795   -1.8544 H   0  0  0  0  0  0  0  0  0  0  0  0
    4.5662    2.4712   -3.6859 H   0  0  0  0  0  0  0  0  0  0  0  0
    6.7917    1.5756   -3.3892 H   0  0  0  0  0  0  0  0  0  0  0  0
    7.3851    0.5562   -1.1954 H   0  0  0  0  0  0  0  0  0  0  0  0
    5.7489    0.4644    0.6405 H   0  0  0  0  0  0  0  0  0  0  0  0
    3.9985   -1.1174    0.6002 H   0  0  0  0  0  0  0  0  0  0  0  0
  1  2  1  0
  2  3  1  0
  2  4  1  0
  4  5  1  0
  5  6  1  0
  6  7  2  0
  6  8  1  0
  8  9  1  0
  9 10  1  0
 10 11  2  0
 11 12  1  0
 12 13  1  0
 13 14  2  0
 14 15  1  0
 15 16  2  0
 16 17  1  0
 17 18  2  0
  8 19  1  0
 19 20  1  0
 20 21  2  0
 20 22  1  0
 22 23  1  0
 23 24  1  0
 24 25  1  0
 25 26  1  0
 26 27  1  0
 27 28  2  0
 27 29  1  0
 29 30  1  0
 30 31  1  0
 31 32  2  0
 32 33  1  0
 33 34  2  0
 34 35  1  0
 35 36  2  0
 29 37  1  0
 37 38  1  0
 38 39  2  0
 38  4  1  0
 18 10  1  0
 26 22  1  0
 36 31  1  0
 18 13  1  0
  1 40  1  0
  1 41  1  0
  1 42  1  0
  2 43  1  0
  3 44  1  0
  3 45  1  0
  3 46  1  0
  4 47  1  1
  5 48  1  0
  8 49  1  1
  9 50  1  0
  9 51  1  0
 11 52  1  0
 12 53  1  0
 14 54  1  0
 15 55  1  0
 16 56  1  0
 17 57  1  0
 19 58  1  0
 22 59  1  1
 23 60  1  0
 23 61  1  0
 24 62  1  0
 24 63  1  0
 25 64  1  0
 25 65  1  0
 29 66  1  6
 30 67  1  0
 30 68  1  0
 32 69  1  0
 33 70  1  0
 34 71  1  0
 35 72  1  0
 36 73  1  0
 37 74  1  0
M  END
$$$$
[H]c1c([H])c(N([H])C(=O)N([H])[C@]2([H])C([H])([H])C([H])([H])[C@]([H])(N([H])C(=O)N([H])c3c([H])c([H])c(OC(F)(F)F)c([H])c3[H])C([H])([H])C2([H])[H])c([H])c([H])c1C#N
     RDKit          3D

 55 57  0  0  0  0  0  0  0  0999 V2000
   10.8696    1.1746   -0.1246 F   0  0  0  0  0  0  0  0  0  0  0  0
   10.5617   -0.1617   -0.1850 C   0  0  0  0  0  0  0  0  0  0  0  0
   11.7130   -0.8633    0.1407 F   0  0  0  0  0  0  0  0  0  0  0  0
   10.2772   -0.4635   -1.5035 F   0  0  0  0  0  0  0  0  0  0  0  0
    9.5454   -0.5392    0.6921 O   0  0  0  0  0  0  0  0  0  0  0  0
    8.2686   -0.0534    0.6969 C   0  0  0  0  0  0  0  0  0  0  0  0
    7.3005   -0.6659   -0.0495 C   0  0  0  0  0  0  0  0  0  0  0  0
    5.9815   -0.1962   -0.0691 C   0  0  0  0  0  0  0  0  0  0  0  0
    5.6441    0.8886    0.6651 C   0  0  0  0  0  0  0  0  0  0  0  0
    4.3247    1.3883    0.7079 N   0  0  0  0  0  0  0  0  0  0  0  0
    3.2048    0.5584    0.5471 C   0  0  0  0  0  0  0  0  0  0  0  0
    3.3194   -0.6632    0.3816 O   0  0  0  0  0  0  0  0  0  0  0  0
    1.8823    1.1315    0.5734 N   0  0  0  0  0  0  0  0  0  0  0  0
    0.7687    0.2742    0.4093 C   0  0  2  0  0  0  0  0  0  0  0  0
   -0.0729    0.5989   -0.8132 C   0  0  0  0  0  0  0  0  0  0  0  0
   -1.0252   -0.5609   -0.9413 C   0  0  0  0  0  0  0  0  0  0  0  0
   -1.9457   -0.7291    0.2254 C   0  0  1  0  0  0  0  0  0  0  0  0
   -1.3494   -0.4483    1.5598 C   0  0  0  0  0  0  0  0  0  0  0  0
   -0.1622    0.4252    1.5894 C   0  0  0  0  0  0  0  0  0  0  0  0
   -3.1175    0.0715   -0.0199 N   0  0  0  0  0  0  0  0  0  0  0  0
   -4.3963   -0.5933   -0.2051 C   0  0  0  0  0  0  0  0  0  0  0  0
   -4.3802   -1.8416   -0.1354 O   0  0  0  0  0  0  0  0  0  0  0  0
   -5.4931    0.2266   -0.4385 N   0  0  0  0  0  0  0  0  0  0  0  0
   -6.8112   -0.2111   -0.6499 C   0  0  0  0  0  0  0  0  0  0  0  0
   -7.8559    0.7466   -0.6885 C   0  0  0  0  0  0  0  0  0  0  0  0
   -9.1599    0.3998   -0.8994 C   0  0  0  0  0  0  0  0  0  0  0  0
   -9.5262   -0.9071   -1.0862 C   0  0  0  0  0  0  0  0  0  0  0  0
   -8.5634   -1.8581   -1.0580 C   0  0  0  0  0  0  0  0  0  0  0  0
   -7.2410   -1.4983   -0.8435 C   0  0  0  0  0  0  0  0  0  0  0  0
  -10.9289   -1.2251   -1.3071 C   0  0  0  0  0  0  0  0  0  0  0  0
  -12.0395   -1.4784   -1.5022 N   0  0  0  0  0  0  0  0  0  0  0  0
    6.6131    1.5252    1.4296 C   0  0  0  0  0  0  0  0  0  0  0  0
    7.8954    1.0468    1.4313 C   0  0  0  0  0  0  0  0  0  0  0  0
    7.5085   -1.5376   -0.6562 H   0  0  0  0  0  0  0  0  0  0  0  0
    5.2844   -0.7503   -0.7239 H   0  0  0  0  0  0  0  0  0  0  0  0
    4.1736    2.4417    0.8696 H   0  0  0  0  0  0  0  0  0  0  0  0
    1.7566    2.1481    0.7097 H   0  0  0  0  0  0  0  0  0  0  0  0
    1.0986   -0.7668    0.2773 H   0  0  0  0  0  0  0  0  0  0  0  0
    0.5145    0.6750   -1.7257 H   0  0  0  0  0  0  0  0  0  0  0  0
   -0.7002    1.5132   -0.6321 H   0  0  0  0  0  0  0  0  0  0  0  0
   -1.6222   -0.5120   -1.8642 H   0  0  0  0  0  0  0  0  0  0  0  0
   -0.3885   -1.4891   -1.0328 H   0  0  0  0  0  0  0  0  0  0  0  0
   -2.2554   -1.7956    0.2296 H   0  0  0  0  0  0  0  0  0  0  0  0
   -2.1557    0.0384    2.1837 H   0  0  0  0  0  0  0  0  0  0  0  0
   -1.1092   -1.3891    2.1277 H   0  0  0  0  0  0  0  0  0  0  0  0
   -0.4630    1.5041    1.6131 H   0  0  0  0  0  0  0  0  0  0  0  0
    0.4574    0.2635    2.4978 H   0  0  0  0  0  0  0  0  0  0  0  0
   -3.0358    1.1003   -0.0610 H   0  0  0  0  0  0  0  0  0  0  0  0
   -5.3332    1.2808   -0.4637 H   0  0  0  0  0  0  0  0  0  0  0  0
   -7.6000    1.7871   -0.5443 H   0  0  0  0  0  0  0  0  0  0  0  0
   -9.9327    1.1761   -0.9207 H   0  0  0  0  0  0  0  0  0  0  0  0
   -8.7914   -2.8844   -1.1968 H   0  0  0  0  0  0  0  0  0  0  0  0
   -6.4793   -2.2951   -0.8339 H   0  0  0  0  0  0  0  0  0  0  0  0
    6.3559    2.4081    2.0311 H   0  0  0  0  0  0  0  0  0  0  0  0
    8.6155    1.5850    2.0493 H   0  0  0  0  0  0  0  0  0  0  0  0
  1  2  1  0
  2  3  1  0
  2  4  1  0
  2  5  1  0
  5  6  1  0
  6  7  2  0
  7  8  1  0
  8  9  2  0
  9 10  1  0
 10 11  1  0
 11 12  2  0
 11 13  1  0
 13 14  1  0
 14 15  1  0
 15 16  1  0
 16 17  1  0
 17 18  1  0
 18 19  1  0
 17 20  1  0
 20 21  1  0
 21 22  2  0
 21 23  1  0
 23 24  1  0
 24 25  2  0
 25 26  1  0
 26 27  2  0
 27 28  1  0
 28 29  2  0
 27 30  1  0
 30 31  3  0
  9 32  1  0
 32 33  2  0
 33  6  1  0
 19 14  1  0
 29 24  1  0
  7 34  1  0
  8 35  1  0
 10 36  1  0
 13 37  1  0
 14 38  1  6
 15 39  1  0
 15 40  1  0
 16 41  1  0
 16 42  1  0
 17 43  1  1
 18 44  1  0
 18 45  1  0
 19 46  1  0
 19 47  1  0
 20 48  1  0
 23 49  1  0
 25 50  1  0
 26 51  1  0
 28 52  1  0
 29 53  1  0
 32 54  1  0
 33 55  1  0
M  END
$$$$
[H]C([H])=C([H])C(=O)N1C([H])([H])C([H])([H])N(C2([H])C([H])([H])C([H])([H])N(c3c([H])c([H])c(N([H])c4nc([H])c(Cl)c(N([H])c5c([H])c([H])c([H])c([H])c5S(=O)(=O)C([H])(C([H])([H])[H])C([H])([H])[H])n4)c(OC([H])([H])[H])c3[H])C([H])([H])C2([H])[H])C([H])([H])C1([H])[H]
     RDKit          3D

 85 89  0  0  0  0  0  0  0  0999 V2000
    0.3602   -4.0438    1.0220 C   0  0  0  0  0  0  0  0  0  0  0  0
    1.0333   -2.8870    0.5678 O   0  0  0  0  0  0  0  0  0  0  0  0
    0.3455   -1.7872    0.1181 C   0  0  0  0  0  0  0  0  0  0  0  0
   -1.0183   -1.8105    0.1086 C   0  0  0  0  0  0  0  0  0  0  0  0
   -1.7731   -0.7318   -0.3332 C   0  0  0  0  0  0  0  0  0  0  0  0
   -1.0622    0.3538   -0.7572 C   0  0  0  0  0  0  0  0  0  0  0  0
    0.3425    0.3916   -0.7531 C   0  0  0  0  0  0  0  0  0  0  0  0
    1.0633   -0.6746   -0.3173 C   0  0  0  0  0  0  0  0  0  0  0  0
    2.4575   -0.7315   -0.2791 N   0  0  0  0  0  0  0  0  0  0  0  0
    3.3781    0.2523   -0.6898 C   0  0  0  0  0  0  0  0  0  0  0  0
    3.0640    1.4386   -1.1966 N   0  0  0  0  0  0  0  0  0  0  0  0
    3.9548    2.3436   -1.5873 C   0  0  0  0  0  0  0  0  0  0  0  0
    5.2914    2.0237   -1.4550 C   0  0  0  0  0  0  0  0  0  0  0  0
    6.4918    3.1748   -1.9517 Cl  0  0  0  0  0  0  0  0  0  0  0  0
    5.7048    0.7765   -0.9224 C   0  0  0  0  0  0  0  0  0  0  0  0
    7.0881    0.5457   -0.8278 N   0  0  0  0  0  0  0  0  0  0  0  0
    7.6910   -0.6341   -0.3284 C   0  0  0  0  0  0  0  0  0  0  0  0
    6.9873   -1.7687   -0.0044 C   0  0  0  0  0  0  0  0  0  0  0  0
    7.6306   -2.9262    0.4456 C   0  0  0  0  0  0  0  0  0  0  0  0
    8.9950   -2.9041    0.5571 C   0  0  0  0  0  0  0  0  0  0  0  0
    9.7073   -1.7761    0.2365 C   0  0  0  0  0  0  0  0  0  0  0  0
    9.0916   -0.6071   -0.2142 C   0  0  0  0  0  0  0  0  0  0  0  0
    9.9941    0.8087   -0.5880 S   0  0  0  0  0  0  0  0  0  0  0  0
   11.4772    0.4421   -0.3803 O   0  0  0  0  0  0  0  0  0  0  0  0
    9.9306    1.2175   -2.0360 O   0  0  0  0  0  0  0  0  0  0  0  0
    9.7014    2.1946    0.4399 C   0  0  0  0  0  0  0  0  0  0  0  0
   10.1671    1.9562    1.8697 C   0  0  0  0  0  0  0  0  0  0  0  0
   10.6157    3.3222   -0.0789 C   0  0  0  0  0  0  0  0  0  0  0  0
    4.7062   -0.0128   -0.5806 N   0  0  0  0  0  0  0  0  0  0  0  0
   -3.1819   -0.7201   -0.3593 N   0  0  0  0  0  0  0  0  0  0  0  0
   -3.8557   -1.8569    0.2119 C   0  0  0  0  0  0  0  0  0  0  0  0
   -5.2824   -1.6651    0.5645 C   0  0  0  0  0  0  0  0  0  0  0  0
   -5.9759   -0.5136   -0.0887 C   0  0  0  0  0  0  0  0  0  0  0  0
   -5.2717   -0.1442   -1.3509 C   0  0  0  0  0  0  0  0  0  0  0  0
   -3.8875    0.3891   -0.9427 C   0  0  0  0  0  0  0  0  0  0  0  0
   -7.4012   -0.8074   -0.3318 N   0  0  0  0  0  0  0  0  0  0  0  0
   -8.0060   -1.0140    0.9262 C   0  0  0  0  0  0  0  0  0  0  0  0
   -9.4488   -0.6441    1.0437 C   0  0  0  0  0  0  0  0  0  0  0  0
   -9.8437    0.4301    0.1772 N   0  0  0  0  0  0  0  0  0  0  0  0
   -9.4182    0.3341   -1.1808 C   0  0  0  0  0  0  0  0  0  0  0  0
   -7.9044    0.2318   -1.1435 C   0  0  0  0  0  0  0  0  0  0  0  0
  -10.6023    1.5016    0.6516 C   0  0  0  0  0  0  0  0  0  0  0  0
  -10.9760    1.5718    1.8829 O   0  0  0  0  0  0  0  0  0  0  0  0
  -11.0354    2.6173   -0.1801 C   0  0  0  0  0  0  0  0  0  0  0  0
  -11.7547    3.6118    0.3137 C   0  0  0  0  0  0  0  0  0  0  0  0
    1.0974   -4.7822    1.3600 H   0  0  0  0  0  0  0  0  0  0  0  0
   -0.3061   -3.8051    1.8686 H   0  0  0  0  0  0  0  0  0  0  0  0
   -0.2807   -4.4358    0.2125 H   0  0  0  0  0  0  0  0  0  0  0  0
   -1.5276   -2.6876    0.4524 H   0  0  0  0  0  0  0  0  0  0  0  0
   -1.5809    1.2324   -1.1103 H   0  0  0  0  0  0  0  0  0  0  0  0
    0.7630    1.3005   -1.1087 H   0  0  0  0  0  0  0  0  0  0  0  0
    2.8893   -1.6403    0.1146 H   0  0  0  0  0  0  0  0  0  0  0  0
    3.6533    3.3176   -2.0025 H   0  0  0  0  0  0  0  0  0  0  0  0
    7.7211    1.3315   -1.1840 H   0  0  0  0  0  0  0  0  0  0  0  0
    5.9122   -1.8472   -0.0813 H   0  0  0  0  0  0  0  0  0  0  0  0
    7.0351   -3.7923    0.6886 H   0  0  0  0  0  0  0  0  0  0  0  0
    9.5102   -3.8096    0.9086 H   0  0  0  0  0  0  0  0  0  0  0  0
   10.7806   -1.7728    0.3298 H   0  0  0  0  0  0  0  0  0  0  0  0
    8.6809    2.5648    0.4739 H   0  0  0  0  0  0  0  0  0  0  0  0
    9.3639    1.4982    2.4693 H   0  0  0  0  0  0  0  0  0  0  0  0
   11.0624    1.3115    1.8955 H   0  0  0  0  0  0  0  0  0  0  0  0
   10.3499    2.9713    2.3066 H   0  0  0  0  0  0  0  0  0  0  0  0
   10.5964    3.3862   -1.1720 H   0  0  0  0  0  0  0  0  0  0  0  0
   10.3136    4.3023    0.3394 H   0  0  0  0  0  0  0  0  0  0  0  0
   11.6540    3.1246    0.2685 H   0  0  0  0  0  0  0  0  0  0  0  0
   -3.3110   -2.0606    1.1870 H   0  0  0  0  0  0  0  0  0  0  0  0
   -3.6979   -2.7777   -0.3894 H   0  0  0  0  0  0  0  0  0  0  0  0
   -5.4533   -1.6357    1.6811 H   0  0  0  0  0  0  0  0  0  0  0  0
   -5.8407   -2.5979    0.2543 H   0  0  0  0  0  0  0  0  0  0  0  0
   -5.9699    0.3403    0.6239 H   0  0  0  0  0  0  0  0  0  0  0  0
   -5.7453    0.7061   -1.8797 H   0  0  0  0  0  0  0  0  0  0  0  0
   -5.1109   -1.0341   -1.9581 H   0  0  0  0  0  0  0  0  0  0  0  0
   -3.3879    0.8415   -1.8247 H   0  0  0  0  0  0  0  0  0  0  0  0
   -4.0075    1.2215   -0.2028 H   0  0  0  0  0  0  0  0  0  0  0  0
   -7.4569   -0.5339    1.7725 H   0  0  0  0  0  0  0  0  0  0  0  0
   -7.9506   -2.1206    1.1504 H   0  0  0  0  0  0  0  0  0  0  0  0
   -9.6817   -0.3447    2.0940 H   0  0  0  0  0  0  0  0  0  0  0  0
  -10.1113   -1.5356    0.8569 H   0  0  0  0  0  0  0  0  0  0  0  0
   -9.6866    1.1431   -1.8494 H   0  0  0  0  0  0  0  0  0  0  0  0
   -9.8221   -0.6074   -1.6730 H   0  0  0  0  0  0  0  0  0  0  0  0
   -7.5238    1.2389   -0.8820 H   0  0  0  0  0  0  0  0  0  0  0  0
   -7.6157   -0.0081   -2.2104 H   0  0  0  0  0  0  0  0  0  0  0  0
  -10.7828    2.6724   -1.2285 H   0  0  0  0  0  0  0  0  0  0  0  0
  -12.0570    3.6467    1.3579 H   0  0  0  0  0  0  0  0  0  0  0  0
  -12.0457    4.4094   -0.3535 H   0  0  0  0  0  0  0  0  0  0  0  0
  1  2  1  0
  2  3  1  0
  3  4  2  0
  4  5  1  0
  5  6  2  0
  6  7  1  0
  7  8  2  0
  8  9  1  0
  9 10  1  0
 10 11  2  0
 11 12  1  0
 12 13  2  0
 13 14  1  0
 13 15  1  0
 15 16  1  0
 16 17  1  0
 17 18  2  0
 18 19  1  0
 19 20  2  0
 20 21  1  0
 21 22  2  0
 22 23  1  0
 23 24  2  0
 23 25  2  0
 23 26  1  0
 26 27  1  0
 26 28  1  0
 15 29  2  0
  5 30  1  0
 30 31  1  0
 31 32  1  0
 32 33  1  0
 33 34  1  0
 34 35  1  0
 33 36  1  0
 36 37  1  0
 37 38  1  0
 38 39  1  0
 39 40  1  0
 40 41  1  0
 39 42  1  0
 42 43  2  0
 42 44  1  0
 44 45  2  3
  8  3  1  0
 29 10  1  0
 35 30  1  0
 41 36  1  0
 22 17  1  0
  1 46  1  0
  1 47  1  0
  1 48  1  0
  4 49  1  0
  6 50  1  0
  7 51  1  0
  9 52  1  0
 12 53  1  0
 16 54  1  0
 18 55  1  0
 19 56  1  0
 20 57  1  0
 21 58  1  0
 26 59  1  0
 27 60  1  0
 27 61  1  0
 27 62  1  0
 28 63  1  0
 28 64  1  0
 28 65  1  0
 31 66  1  0
 31 67  1  0
 32 68  1  0
 32 69  1  0
 33 70  1  0
 34 71  1  0
 34 72  1  0
 35 73  1  0
 35 74  1  0
 37 75  1  0
 37 76  1  0
 38 77  1  0
 38 78  1  0
 40 79  1  0
 40 80  1  0
 41 81  1  0
 41 82  1  0
 44 83  1  0
 45 84  1  0
 45 85  1  0
M  END
$$$$
[H]c1nc(N([H])c2c([H])c([H])c(F)c(C(=O)N([H])[H])c2[H])c2c([H])c(OC([H])([H])[H])c(OC([H])([H])[H])c([H])c2n1
     RDKit          3D

 40 42  0  0  0  0  0  0  0  0999 V2000
   -6.2600   -0.7052    1.4543 C   0  0  0  0  0  0  0  0  0  0  0  0
   -5.4951    0.1124    0.5895 O   0  0  0  0  0  0  0  0  0  0  0  0
   -4.1010   -0.1015    0.5409 C   0  0  0  0  0  0  0  0  0  0  0  0
   -3.5067   -1.0753    1.3114 C   0  0  0  0  0  0  0  0  0  0  0  0
   -2.1384   -1.3323    1.3060 C   0  0  0  0  0  0  0  0  0  0  0  0
   -1.5955   -2.2871    2.0673 N   0  0  0  0  0  0  0  0  0  0  0  0
   -0.2665   -2.5232    2.0487 C   0  0  0  0  0  0  0  0  0  0  0  0
    0.4636   -1.7531    1.2326 N   0  0  0  0  0  0  0  0  0  0  0  0
    0.0091   -0.7856    0.4448 C   0  0  0  0  0  0  0  0  0  0  0  0
    0.8787   -0.0199   -0.3445 N   0  0  0  0  0  0  0  0  0  0  0  0
    2.2543   -0.2591   -0.4184 C   0  0  0  0  0  0  0  0  0  0  0  0
    2.8022   -1.4980   -0.3227 C   0  0  0  0  0  0  0  0  0  0  0  0
    4.2046   -1.6219   -0.3750 C   0  0  0  0  0  0  0  0  0  0  0  0
    5.0296   -0.5311   -0.5203 C   0  0  0  0  0  0  0  0  0  0  0  0
    6.3756   -0.7194   -0.5637 F   0  0  0  0  0  0  0  0  0  0  0  0
    4.4798    0.7131   -0.6175 C   0  0  0  0  0  0  0  0  0  0  0  0
    3.1113    0.8253   -0.5651 C   0  0  0  0  0  0  0  0  0  0  0  0
    5.3278    1.8788   -0.7718 C   0  0  0  0  0  0  0  0  0  0  0  0
    6.7324    1.6925   -0.8186 N   0  0  0  0  0  0  0  0  0  0  0  0
    4.8373    3.0527   -0.8648 O   0  0  0  0  0  0  0  0  0  0  0  0
   -1.3673   -0.5451    0.4674 C   0  0  0  0  0  0  0  0  0  0  0  0
   -1.9209    0.4375   -0.3182 C   0  0  0  0  0  0  0  0  0  0  0  0
   -3.3048    0.6601   -0.2791 C   0  0  0  0  0  0  0  0  0  0  0  0
   -3.9187    1.6358   -1.0480 O   0  0  0  0  0  0  0  0  0  0  0  0
   -3.2204    2.4829   -1.9279 C   0  0  0  0  0  0  0  0  0  0  0  0
   -6.0594   -1.7824    1.3255 H   0  0  0  0  0  0  0  0  0  0  0  0
   -7.3224   -0.5489    1.1746 H   0  0  0  0  0  0  0  0  0  0  0  0
   -6.1034   -0.4542    2.5212 H   0  0  0  0  0  0  0  0  0  0  0  0
   -4.1235   -1.6808    1.9606 H   0  0  0  0  0  0  0  0  0  0  0  0
    0.2071   -3.2902    2.6536 H   0  0  0  0  0  0  0  0  0  0  0  0
    0.5589    0.7879   -0.9391 H   0  0  0  0  0  0  0  0  0  0  0  0
    2.2481   -2.4278   -0.2281 H   0  0  0  0  0  0  0  0  0  0  0  0
    4.6462   -2.6042   -0.2986 H   0  0  0  0  0  0  0  0  0  0  0  0
    2.6755    1.8072   -0.6417 H   0  0  0  0  0  0  0  0  0  0  0  0
    7.2353    1.5357    0.0727 H   0  0  0  0  0  0  0  0  0  0  0  0
    7.2090    1.7188   -1.7354 H   0  0  0  0  0  0  0  0  0  0  0  0
   -1.3307    1.0476   -0.9684 H   0  0  0  0  0  0  0  0  0  0  0  0
   -2.2999    2.9066   -1.5111 H   0  0  0  0  0  0  0  0  0  0  0  0
   -3.8985    3.3283   -2.2059 H   0  0  0  0  0  0  0  0  0  0  0  0
   -3.0535    1.9232   -2.8873 H   0  0  0  0  0  0  0  0  0  0  0  0
  1  2  1  0
  2  3  1  0
  3  4  2  0
  4  5  1  0
  5  6  2  0
  6  7  1  0
  7  8  2  0
  8  9  1  0
  9 10  1  0
 10 11  1  0
 11 12  2  0
 12 13  1  0
 13 14  2  0
 14 15  1  0
 14 16  1  0
 16 17  2  0
 16 18  1  0
 18 19  1  0
 18 20  2  0
  9 21  2  0
 21 22  1  0
 22 23  2  0
 23 24  1  0
 24 25  1  0
 23  3  1  0
 21  5  1  0
 17 11  1  0
  1 26  1  0
  1 27  1  0
  1 28  1  0
  4 29  1  0
  7 30  1  0
 10 31  1  0
 12 32  1  0
 13 33  1  0
 17 34  1  0
 19 35  1  0
 19 36  1  0
 22 37  1  0
 25 38  1  0
 25 39  1  0
 25 40  1  0
M  END
$$$$
[H]c1c([H])c(N([H])C(=O)c2c([H])c([H])c(N([H])C(=O)OC(C([H])([H])[H])(C([H])([H])[H])C([H])([H])[H])c([H])c2[H])c([H])c(C(F)(F)F)c1[H]
     RDKit          3D

 46 47  0  0  0  0  0  0  0  0999 V2000
   -5.8480    2.2227   -0.7322 C   0  0  0  0  0  0  0  0  0  0  0  0
   -6.1525    0.8231   -0.2316 C   0  0  0  0  0  0  0  0  0  0  0  0
   -7.0992    1.0763    0.9843 C   0  0  0  0  0  0  0  0  0  0  0  0
   -6.9570    0.0788   -1.2488 C   0  0  0  0  0  0  0  0  0  0  0  0
   -5.0690    0.1479    0.2918 O   0  0  0  0  0  0  0  0  0  0  0  0
   -3.8303   -0.0476   -0.3468 C   0  0  0  0  0  0  0  0  0  0  0  0
   -3.6860    0.4582   -1.4683 O   0  0  0  0  0  0  0  0  0  0  0  0
   -2.8751   -0.7791    0.3485 N   0  0  0  0  0  0  0  0  0  0  0  0
   -1.5165   -1.0522   -0.0169 C   0  0  0  0  0  0  0  0  0  0  0  0
   -1.0222   -2.3219    0.2492 C   0  0  0  0  0  0  0  0  0  0  0  0
    0.3506   -2.5149    0.1287 C   0  0  0  0  0  0  0  0  0  0  0  0
    1.1500   -1.4325   -0.2471 C   0  0  0  0  0  0  0  0  0  0  0  0
    0.6123   -0.2171   -0.5043 C   0  0  0  0  0  0  0  0  0  0  0  0
   -0.7571    0.0189   -0.3972 C   0  0  0  0  0  0  0  0  0  0  0  0
    2.6229   -1.5667   -0.0555 C   0  0  0  0  0  0  0  0  0  0  0  0
    3.0427   -2.7318    0.2716 O   0  0  0  0  0  0  0  0  0  0  0  0
    3.4827   -0.5147   -0.1865 N   0  0  0  0  0  0  0  0  0  0  0  0
    4.8730   -0.4416    0.1027 C   0  0  0  0  0  0  0  0  0  0  0  0
    5.4211   -1.2202    1.1151 C   0  0  0  0  0  0  0  0  0  0  0  0
    6.7172   -1.0844    1.5422 C   0  0  0  0  0  0  0  0  0  0  0  0
    7.5273   -0.1381    0.9626 C   0  0  0  0  0  0  0  0  0  0  0  0
    7.0159    0.6496   -0.0399 C   0  0  0  0  0  0  0  0  0  0  0  0
    5.6835    0.5046   -0.4805 C   0  0  0  0  0  0  0  0  0  0  0  0
    7.9006    1.6796   -0.6448 C   0  0  0  0  0  0  0  0  0  0  0  0
    7.2105    2.8752   -0.6535 F   0  0  0  0  0  0  0  0  0  0  0  0
    9.0754    1.7749    0.0855 F   0  0  0  0  0  0  0  0  0  0  0  0
    8.2355    1.3025   -1.9099 F   0  0  0  0  0  0  0  0  0  0  0  0
   -5.1572    2.7753   -0.1015 H   0  0  0  0  0  0  0  0  0  0  0  0
   -6.8214    2.7479   -0.7791 H   0  0  0  0  0  0  0  0  0  0  0  0
   -5.4764    2.1650   -1.7923 H   0  0  0  0  0  0  0  0  0  0  0  0
   -6.7511    1.9785    1.4908 H   0  0  0  0  0  0  0  0  0  0  0  0
   -8.1420    1.1553    0.6086 H   0  0  0  0  0  0  0  0  0  0  0  0
   -6.9543    0.2274    1.6553 H   0  0  0  0  0  0  0  0  0  0  0  0
   -8.0396    0.3753   -1.1117 H   0  0  0  0  0  0  0  0  0  0  0  0
   -6.8444   -1.0275   -1.0948 H   0  0  0  0  0  0  0  0  0  0  0  0
   -6.7336    0.3472   -2.2974 H   0  0  0  0  0  0  0  0  0  0  0  0
   -3.1376   -1.2208    1.2952 H   0  0  0  0  0  0  0  0  0  0  0  0
   -1.7134   -3.1032    0.5346 H   0  0  0  0  0  0  0  0  0  0  0  0
    0.7181   -3.4985    0.3201 H   0  0  0  0  0  0  0  0  0  0  0  0
    1.1877    0.6611   -0.8211 H   0  0  0  0  0  0  0  0  0  0  0  0
   -1.1685    0.9990   -0.6097 H   0  0  0  0  0  0  0  0  0  0  0  0
    3.0828    0.4110   -0.5675 H   0  0  0  0  0  0  0  0  0  0  0  0
    4.7996   -1.9621    1.5907 H   0  0  0  0  0  0  0  0  0  0  0  0
    7.1467   -1.7036    2.3192 H   0  0  0  0  0  0  0  0  0  0  0  0
    8.5746   -0.0049    1.3041 H   0  0  0  0  0  0  0  0  0  0  0  0
    5.3218    1.1281   -1.2824 H   0  0  0  0  0  0  0  0  0  0  0  0
  1  2  1  0
  2  3  1  0
  2  4  1  0
  2  5  1  0
  5  6  1  0
  6  7  2  0
  6  8  1  0
  8  9  1  0
  9 10  2  0
 10 11  1  0
 11 12  2  0
 12 13  1  0
 13 14  2  0
 12 15  1  0
 15 16  2  0
 15 17  1  0
 17 18  1  0
 18 19  2  0
 19 20  1  0
 20 21  2  0
 21 22  1  0
 22 23  2  0
 22 24  1  0
 24 25  1  0
 24 26  1  0
 24 27  1  0
 14  9  1  0
 23 18  1  0
  1 28  1  0
  1 29  1  0
  1 30  1  0
  3 31  1  0
  3 32  1  0
  3 33  1  0
  4 34  1  0
  4 35  1  0
  4 36  1  0
  8 37  1  0
 10 38  1  0
 11 39  1  0
 13 40  1  0
 14 41  1  0
 17 42  1  0
 19 43  1  0
 20 44  1  0
 21 45  1  0
 23 46  1  0
M  END
$$$$
[H]OC([H])([H])[C@@]1([H])O[C@@]([H])(n2c([H])nc3c(N([H])C4([H])C([H])([H])C([H])([H])C([H])([H])C([H])([H])C4([H])[H])nc([H])nc32)[C@]([H])(O[H])[C@]1([H])O[H]
     RDKit          3D

 48 51  0  0  0  0  0  0  0  0999 V2000
    7.3999    1.7821    0.2941 O   0  0  0  0  0  0  0  0  0  0  0  0
    6.1086    2.0941   -0.1223 C   0  0  0  0  0  0  0  0  0  0  0  0
    5.2016    0.9923    0.3673 C   0  0  1  0  0  0  0  0  0  0  0  0
    3.8698    1.2094   -0.0002 O   0  0  0  0  0  0  0  0  0  0  0  0
    3.2664    0.0266    0.3899 C   0  0  2  0  0  0  0  0  0  0  0  0
    4.2091   -1.0904   -0.0221 C   0  0  2  0  0  0  0  0  0  0  0  0
    4.5226   -1.9269    1.0503 O   0  0  0  0  0  0  0  0  0  0  0  0
    5.4916   -0.3150   -0.3396 C   0  0  2  0  0  0  0  0  0  0  0  0
    6.6100   -0.9552    0.1408 O   0  0  0  0  0  0  0  0  0  0  0  0
    1.9413   -0.1450   -0.1645 N   0  0  0  0  0  0  0  0  0  0  0  0
    1.6560   -0.5846   -1.4030 C   0  0  0  0  0  0  0  0  0  0  0  0
    0.3264   -0.6284   -1.6024 N   0  0  0  0  0  0  0  0  0  0  0  0
   -0.2601   -0.2100   -0.4735 C   0  0  0  0  0  0  0  0  0  0  0  0
   -1.6091   -0.0708   -0.1651 C   0  0  0  0  0  0  0  0  0  0  0  0
   -2.6192   -0.3845   -1.1130 N   0  0  0  0  0  0  0  0  0  0  0  0
   -4.0166   -0.2888   -0.9122 C   0  0  0  0  0  0  0  0  0  0  0  0
   -4.4425   -1.2444    0.1927 C   0  0  0  0  0  0  0  0  0  0  0  0
   -5.9507   -1.3965    0.2228 C   0  0  0  0  0  0  0  0  0  0  0  0
   -6.6335   -0.1493   -0.3187 C   0  0  0  0  0  0  0  0  0  0  0  0
   -5.8294    1.0442    0.1591 C   0  0  0  0  0  0  0  0  0  0  0  0
   -4.5305    1.1087   -0.6499 C   0  0  0  0  0  0  0  0  0  0  0  0
   -1.8490    0.3817    1.0789 N   0  0  0  0  0  0  0  0  0  0  0  0
   -0.8821    0.6801    1.9648 C   0  0  0  0  0  0  0  0  0  0  0  0
    0.4170    0.5382    1.6458 N   0  0  0  0  0  0  0  0  0  0  0  0
    0.7490    0.0890    0.4164 C   0  0  0  0  0  0  0  0  0  0  0  0
    7.3954    1.3031    1.1712 H   0  0  0  0  0  0  0  0  0  0  0  0
    5.8261    3.0354    0.3605 H   0  0  0  0  0  0  0  0  0  0  0  0
    6.1071    2.1104   -1.2173 H   0  0  0  0  0  0  0  0  0  0  0  0
    5.3093    0.8052    1.4481 H   0  0  0  0  0  0  0  0  0  0  0  0
    3.2553    0.0209    1.5039 H   0  0  0  0  0  0  0  0  0  0  0  0
    3.8275   -1.6305   -0.8867 H   0  0  0  0  0  0  0  0  0  0  0  0
    3.6858   -2.3933    1.3069 H   0  0  0  0  0  0  0  0  0  0  0  0
    5.5524   -0.1373   -1.4515 H   0  0  0  0  0  0  0  0  0  0  0  0
    7.0034   -1.4741   -0.6134 H   0  0  0  0  0  0  0  0  0  0  0  0
    2.4154   -0.8677   -2.1458 H   0  0  0  0  0  0  0  0  0  0  0  0
   -2.2662   -0.7221   -2.0593 H   0  0  0  0  0  0  0  0  0  0  0  0
   -4.5554   -0.6457   -1.8198 H   0  0  0  0  0  0  0  0  0  0  0  0
   -4.0041   -2.2323   -0.0583 H   0  0  0  0  0  0  0  0  0  0  0  0
   -4.0355   -0.9395    1.1656 H   0  0  0  0  0  0  0  0  0  0  0  0
   -6.2456   -1.4770    1.2918 H   0  0  0  0  0  0  0  0  0  0  0  0
   -6.2782   -2.3140   -0.2912 H   0  0  0  0  0  0  0  0  0  0  0  0
   -7.6571   -0.1138    0.1043 H   0  0  0  0  0  0  0  0  0  0  0  0
   -6.6207   -0.2130   -1.4274 H   0  0  0  0  0  0  0  0  0  0  0  0
   -6.4512    1.9466   -0.0819 H   0  0  0  0  0  0  0  0  0  0  0  0
   -5.6454    0.9716    1.2333 H   0  0  0  0  0  0  0  0  0  0  0  0
   -3.8017    1.7414   -0.1184 H   0  0  0  0  0  0  0  0  0  0  0  0
   -4.7877    1.6244   -1.5983 H   0  0  0  0  0  0  0  0  0  0  0  0
   -1.1752    1.0442    2.9599 H   0  0  0  0  0  0  0  0  0  0  0  0
  1  2  1  0
  2  3  1  0
  3  4  1  0
  4  5  1  0
  5  6  1  0
  6  7  1  0
  6  8  1  0
  8  9  1  0
  5 10  1  0
 10 11  1  0
 11 12  2  0
 12 13  1  0
 13 14  2  0
 14 15  1  0
 15 16  1  0
 16 17  1  0
 17 18  1  0
 18 19  1  0
 19 20  1  0
 20 21  1  0
 14 22  1  0
 22 23  2  0
 23 24  1  0
 24 25  2  0
  8  3  1  0
 25 10  1  0
 25 13  1  0
 21 16  1  0
  1 26  1  0
  2 27  1  0
  2 28  1  0
  3 29  1  1
  5 30  1  1
  6 31  1  6
  7 32  1  0
  8 33  1  6
  9 34  1  0
 11 35  1  0
 15 36  1  0
 16 37  1  0
 17 38  1  0
 17 39  1  0
 18 40  1  0
 18 41  1  0
 19 42  1  0
 19 43  1  0
 20 44  1  0
 20 45  1  0
 21 46  1  0
 21 47  1  0
 23 48  1  0
M  END
$$$$
[H]c1nc(N([H])c2c([H])c([H])c(N3C([H])([H])C([H])([H])C([H])([H])[C@@]([H])(N4C([H])([H])C([H])([H])C([H])([H])C4([H])[H])C3([H])[H])c([H])c2OC([H])([H])[H])nc(N([H])c2c([H])c([H])c([H])c([H])c2S(=O)(=O)C([H])(C([H])([H])[H])C([H])([H])[H])c1Cl
     RDKit          3D

 77 81  0  0  0  0  0  0  0  0999 V2000
   -0.9102   -4.1833   -1.6766 C   0  0  0  0  0  0  0  0  0  0  0  0
   -0.3170   -2.9944   -1.1972 O   0  0  0  0  0  0  0  0  0  0  0  0
   -1.1044   -1.8529   -1.0106 C   0  0  0  0  0  0  0  0  0  0  0  0
   -2.4334   -1.9039   -1.2936 C   0  0  0  0  0  0  0  0  0  0  0  0
   -3.3005   -0.8136   -1.1383 C   0  0  0  0  0  0  0  0  0  0  0  0
   -2.7347    0.3369   -0.6762 C   0  0  0  0  0  0  0  0  0  0  0  0
   -1.3703    0.3964   -0.3835 C   0  0  0  0  0  0  0  0  0  0  0  0
   -0.5153   -0.6564   -0.5300 C   0  0  0  0  0  0  0  0  0  0  0  0
    0.8620   -0.6931   -0.2657 N   0  0  0  0  0  0  0  0  0  0  0  0
    1.6608    0.3650    0.2192 C   0  0  0  0  0  0  0  0  0  0  0  0
    1.2588    1.5964    0.5181 N   0  0  0  0  0  0  0  0  0  0  0  0
    2.0473    2.5771    0.9751 C   0  0  0  0  0  0  0  0  0  0  0  0
    3.3932    2.3206    1.1619 C   0  0  0  0  0  0  0  0  0  0  0  0
    4.5008    3.5245    1.7502 Cl  0  0  0  0  0  0  0  0  0  0  0  0
    3.8757    1.0367    0.8628 C   0  0  0  0  0  0  0  0  0  0  0  0
    5.2449    0.7886    1.0429 N   0  0  0  0  0  0  0  0  0  0  0  0
    6.0116   -0.3662    0.8487 C   0  0  0  0  0  0  0  0  0  0  0  0
    5.4498   -1.5726    0.5590 C   0  0  0  0  0  0  0  0  0  0  0  0
    6.1734   -2.7611    0.3941 C   0  0  0  0  0  0  0  0  0  0  0  0
    7.5368   -2.6689    0.5410 C   0  0  0  0  0  0  0  0  0  0  0  0
    8.1213   -1.4616    0.8328 C   0  0  0  0  0  0  0  0  0  0  0  0
    7.3975   -0.3006    0.9916 C   0  0  0  0  0  0  0  0  0  0  0  0
    8.2484    1.1935    1.3266 S   0  0  0  0  0  0  0  0  0  0  0  0
    7.8779    1.8003    2.6373 O   0  0  0  0  0  0  0  0  0  0  0  0
    9.7380    0.8758    1.4379 O   0  0  0  0  0  0  0  0  0  0  0  0
    8.0888    2.3932    0.0614 C   0  0  0  0  0  0  0  0  0  0  0  0
    8.7239    1.8995   -1.2307 C   0  0  0  0  0  0  0  0  0  0  0  0
    8.8559    3.6355    0.5312 C   0  0  0  0  0  0  0  0  0  0  0  0
    2.9918    0.1403    0.4130 N   0  0  0  0  0  0  0  0  0  0  0  0
   -4.6710   -0.9324   -1.4461 N   0  0  0  0  0  0  0  0  0  0  0  0
   -5.1929   -2.2271   -1.8346 C   0  0  0  0  0  0  0  0  0  0  0  0
   -6.7097   -2.2511   -1.7568 C   0  0  0  0  0  0  0  0  0  0  0  0
   -7.1035   -1.5779   -0.4597 C   0  0  0  0  0  0  0  0  0  0  0  0
   -6.7573   -0.1003   -0.4684 C   0  0  2  0  0  0  0  0  0  0  0  0
   -5.6040    0.1529   -1.4055 C   0  0  0  0  0  0  0  0  0  0  0  0
   -6.5100    0.3097    0.8743 N   0  0  0  0  0  0  0  0  0  0  0  0
   -7.7342    0.1258    1.6346 C   0  0  0  0  0  0  0  0  0  0  0  0
   -8.6085    1.2646    1.0985 C   0  0  0  0  0  0  0  0  0  0  0  0
   -7.6232    2.3134    0.6036 C   0  0  0  0  0  0  0  0  0  0  0  0
   -6.3070    1.7324    1.0222 C   0  0  0  0  0  0  0  0  0  0  0  0
   -0.2062   -5.0202   -1.6397 H   0  0  0  0  0  0  0  0  0  0  0  0
   -1.3733   -4.0325   -2.6683 H   0  0  0  0  0  0  0  0  0  0  0  0
   -1.7197   -4.4394   -0.9322 H   0  0  0  0  0  0  0  0  0  0  0  0
   -2.8337   -2.8478   -1.6603 H   0  0  0  0  0  0  0  0  0  0  0  0
   -3.3574    1.2308   -0.5294 H   0  0  0  0  0  0  0  0  0  0  0  0
   -0.9984    1.3351   -0.0247 H   0  0  0  0  0  0  0  0  0  0  0  0
    1.3967   -1.6086   -0.4403 H   0  0  0  0  0  0  0  0  0  0  0  0
    1.6767    3.5733    1.2077 H   0  0  0  0  0  0  0  0  0  0  0  0
    5.8060    1.6272    1.4062 H   0  0  0  0  0  0  0  0  0  0  0  0
    4.3749   -1.7410    0.4315 H   0  0  0  0  0  0  0  0  0  0  0  0
    5.6965   -3.7026    0.1644 H   0  0  0  0  0  0  0  0  0  0  0  0
    8.1525   -3.5537    0.4255 H   0  0  0  0  0  0  0  0  0  0  0  0
    9.2226   -1.4187    0.9460 H   0  0  0  0  0  0  0  0  0  0  0  0
    7.0878    2.7325   -0.1791 H   0  0  0  0  0  0  0  0  0  0  0  0
    9.7902    1.6846   -1.0153 H   0  0  0  0  0  0  0  0  0  0  0  0
    8.5801    2.6983   -1.9824 H   0  0  0  0  0  0  0  0  0  0  0  0
    8.1451    1.0041   -1.5338 H   0  0  0  0  0  0  0  0  0  0  0  0
    8.9921    4.3403   -0.3136 H   0  0  0  0  0  0  0  0  0  0  0  0
    9.7934    3.2876    0.9713 H   0  0  0  0  0  0  0  0  0  0  0  0
    8.2539    4.0900    1.3406 H   0  0  0  0  0  0  0  0  0  0  0  0
   -4.9506   -2.4069   -2.9220 H   0  0  0  0  0  0  0  0  0  0  0  0
   -4.8139   -3.0624   -1.2479 H   0  0  0  0  0  0  0  0  0  0  0  0
   -7.0203   -3.2992   -1.7030 H   0  0  0  0  0  0  0  0  0  0  0  0
   -7.1300   -1.6902   -2.6101 H   0  0  0  0  0  0  0  0  0  0  0  0
   -8.2116   -1.7422   -0.3652 H   0  0  0  0  0  0  0  0  0  0  0  0
   -6.5517   -2.0952    0.3520 H   0  0  0  0  0  0  0  0  0  0  0  0
   -7.6362    0.4485   -0.8593 H   0  0  0  0  0  0  0  0  0  0  0  0
   -5.2069    1.1473   -1.2571 H   0  0  0  0  0  0  0  0  0  0  0  0
   -6.0708    0.1772   -2.4406 H   0  0  0  0  0  0  0  0  0  0  0  0
   -7.5684    0.2842    2.7229 H   0  0  0  0  0  0  0  0  0  0  0  0
   -8.2498   -0.8147    1.4452 H   0  0  0  0  0  0  0  0  0  0  0  0
   -9.2597    0.9190    0.2778 H   0  0  0  0  0  0  0  0  0  0  0  0
   -9.2018    1.6565    1.9506 H   0  0  0  0  0  0  0  0  0  0  0  0
   -7.8528    3.2747    1.1483 H   0  0  0  0  0  0  0  0  0  0  0  0
   -7.6593    2.4514   -0.4879 H   0  0  0  0  0  0  0  0  0  0  0  0
   -6.2107    1.9215    2.1303 H   0  0  0  0  0  0  0  0  0  0  0  0
   -5.4367    2.1298    0.5131 H   0  0  0  0  0  0  0  0  0  0  0  0
  1  2  1  0
  2  3  1  0
  3  4  2  0
  4  5  1  0
  5  6  2  0
  6  7  1  0
  7  8  2  0
  8  9  1  0
  9 10  1  0
 10 11  2  0
 11 12  1  0
 12 13  2  0
 13 14  1  0
 13 15  1  0
 15 16  1  0
 16 17  1  0
 17 18  2  0
 18 19  1  0
 19 20  2  0
 20 21  1  0
 21 22  2  0
 22 23  1  0
 23 24  2  0
 23 25  2  0
 23 26  1  0
 26 27  1  0
 26 28  1  0
 15 29  2  0
  5 30  1  0
 30 31  1  0
 31 32  1  0
 32 33  1  0
 33 34  1  0
 34 35  1  0
 34 36  1  0
 36 37  1  0
 37 38  1  0
 38 39  1  0
 39 40  1  0
  8  3  1  0
 29 10  1  0
 35 30  1  0
 40 36  1  0
 22 17  1  0
  1 41  1  0
  1 42  1  0
  1 43  1  0
  4 44  1  0
  6 45  1  0
  7 46  1  0
  9 47  1  0
 12 48  1  0
 16 49  1  0
 18 50  1  0
 19 51  1  0
 20 52  1  0
 21 53  1  0
 26 54  1  0
 27 55  1  0
 27 56  1  0
 27 57  1  0
 28 58  1  0
 28 59  1  0
 28 60  1  0
 31 61  1  0
 31 62  1  0
 32 63  1  0
 32 64  1  0
 33 65  1  0
 33 66  1  0
 34 67  1  6
 35 68  1  0
 35 69  1  0
 37 70  1  0
 37 71  1  0
 38 72  1  0
 38 73  1  0
 39 74  1  0
 39 75  1  0
 40 76  1  0
 40 77  1  0
M  END
$$$$
[H]N=C(N([H])[H])N([H])C([H])([H])C([H])([H])C([H])([H])[C@@]([H])(C(=O)N([H])[C@]([H])(C(=O)N([H])[H])C([H])([H])c1c([H])c([H])c(O[H])c([H])c1[H])N([H])C(=O)[C@@]([H])(N([H])C(=O)[C@@]([H])(N([H])[H])C([H])([H])c1c([H])c([H])c(O[H])c([H])c1[H])C([H])([H])C([H])(C([H])([H])[H])C([H])([H])[H]
     RDKit          3D

 88 89  0  0  0  0  0  0  0  0999 V2000
   -3.8402    1.3490    3.6092 C   0  0  0  0  0  0  0  0  0  0  0  0
   -2.4248    1.7314    3.8304 C   0  0  0  0  0  0  0  0  0  0  0  0
   -2.3978    3.2241    4.1474 C   0  0  0  0  0  0  0  0  0  0  0  0
   -1.4193    1.3309    2.8353 C   0  0  0  0  0  0  0  0  0  0  0  0
   -1.5664    1.8135    1.4450 C   0  0  2  0  0  0  0  0  0  0  0  0
   -2.7978    1.3642    0.8538 N   0  0  0  0  0  0  0  0  0  0  0  0
   -3.1372    0.0017    0.6302 C   0  0  0  0  0  0  0  0  0  0  0  0
   -2.3098   -0.8753    0.9731 O   0  0  0  0  0  0  0  0  0  0  0  0
   -4.4127   -0.4221    0.0177 C   0  0  1  0  0  0  0  0  0  0  0  0
   -5.2210    0.6674   -0.4612 N   0  0  0  0  0  0  0  0  0  0  0  0
   -4.1916   -1.4051   -1.0847 C   0  0  0  0  0  0  0  0  0  0  0  0
   -5.4714   -1.8444   -1.7140 C   0  0  0  0  0  0  0  0  0  0  0  0
   -6.0465   -1.2271   -2.7974 C   0  0  0  0  0  0  0  0  0  0  0  0
   -7.2415   -1.6574   -3.3580 C   0  0  0  0  0  0  0  0  0  0  0  0
   -7.8990   -2.7458   -2.8262 C   0  0  0  0  0  0  0  0  0  0  0  0
   -9.1045   -3.1901   -3.3819 O   0  0  0  0  0  0  0  0  0  0  0  0
   -7.3419   -3.3830   -1.7366 C   0  0  0  0  0  0  0  0  0  0  0  0
   -6.1629   -2.9428   -1.1993 C   0  0  0  0  0  0  0  0  0  0  0  0
   -0.4455    1.4455    0.5460 C   0  0  0  0  0  0  0  0  0  0  0  0
   -0.6914    0.9007   -0.5481 O   0  0  0  0  0  0  0  0  0  0  0  0
    0.8985    1.6997    0.9036 N   0  0  0  0  0  0  0  0  0  0  0  0
    2.0510    1.3985    0.1095 C   0  0  1  0  0  0  0  0  0  0  0  0
    2.9507    2.5755    0.0401 C   0  0  0  0  0  0  0  0  0  0  0  0
    2.2646    3.7609   -0.5720 C   0  0  0  0  0  0  0  0  0  0  0  0
    1.8118    3.5052   -1.9872 C   0  0  0  0  0  0  0  0  0  0  0  0
    1.1782    4.7042   -2.5005 N   0  0  0  0  0  0  0  0  0  0  0  0
   -0.0543    5.1785   -2.0078 C   0  0  0  0  0  0  0  0  0  0  0  0
   -0.1510    6.4871   -1.4654 N   0  0  0  0  0  0  0  0  0  0  0  0
   -1.1192    4.4569   -2.0325 N   0  0  0  0  0  0  0  0  0  0  0  0
    2.7592    0.1740    0.6051 C   0  0  0  0  0  0  0  0  0  0  0  0
    2.3085   -0.4681    1.5855 O   0  0  0  0  0  0  0  0  0  0  0  0
    3.9358   -0.2746   -0.0172 N   0  0  0  0  0  0  0  0  0  0  0  0
    4.6927   -1.4609    0.3911 C   0  0  1  0  0  0  0  0  0  0  0  0
    4.7464   -2.3611   -0.7914 C   0  0  0  0  0  0  0  0  0  0  0  0
    5.4514   -3.6296   -0.6702 C   0  0  0  0  0  0  0  0  0  0  0  0
    6.7653   -3.7635   -1.0637 C   0  0  0  0  0  0  0  0  0  0  0  0
    7.3653   -4.9923   -0.9238 C   0  0  0  0  0  0  0  0  0  0  0  0
    6.6878   -6.0746   -0.4059 C   0  0  0  0  0  0  0  0  0  0  0  0
    7.3689   -7.3006   -0.2933 O   0  0  0  0  0  0  0  0  0  0  0  0
    5.3725   -5.9630   -0.0062 C   0  0  0  0  0  0  0  0  0  0  0  0
    4.7885   -4.7232   -0.1540 C   0  0  0  0  0  0  0  0  0  0  0  0
    5.9826   -1.1011    0.9645 C   0  0  0  0  0  0  0  0  0  0  0  0
    6.8414   -2.0579    1.5166 N   0  0  0  0  0  0  0  0  0  0  0  0
    6.3891    0.1120    0.9936 O   0  0  0  0  0  0  0  0  0  0  0  0
   -4.3820    1.8675    2.8189 H   0  0  0  0  0  0  0  0  0  0  0  0
   -4.3857    1.6616    4.5583 H   0  0  0  0  0  0  0  0  0  0  0  0
   -4.0073    0.2292    3.6181 H   0  0  0  0  0  0  0  0  0  0  0  0
   -2.1196    1.2457    4.8073 H   0  0  0  0  0  0  0  0  0  0  0  0
   -3.0552    3.7474    3.4412 H   0  0  0  0  0  0  0  0  0  0  0  0
   -1.3745    3.6161    4.1860 H   0  0  0  0  0  0  0  0  0  0  0  0
   -2.8390    3.3722    5.1677 H   0  0  0  0  0  0  0  0  0  0  0  0
   -0.4233    1.7359    3.2060 H   0  0  0  0  0  0  0  0  0  0  0  0
   -1.2673    0.2303    2.8790 H   0  0  0  0  0  0  0  0  0  0  0  0
   -1.5859    2.9437    1.3871 H   0  0  0  0  0  0  0  0  0  0  0  0
   -3.5204    2.0580    0.5564 H   0  0  0  0  0  0  0  0  0  0  0  0
   -4.9959   -0.9468    0.8144 H   0  0  0  0  0  0  0  0  0  0  0  0
   -6.2203    0.3535   -0.5308 H   0  0  0  0  0  0  0  0  0  0  0  0
   -4.8741    1.0835   -1.3548 H   0  0  0  0  0  0  0  0  0  0  0  0
   -3.7158   -2.3556   -0.7103 H   0  0  0  0  0  0  0  0  0  0  0  0
   -3.5477   -0.9786   -1.8984 H   0  0  0  0  0  0  0  0  0  0  0  0
   -5.5477   -0.3720   -3.2301 H   0  0  0  0  0  0  0  0  0  0  0  0
   -7.6815   -1.1557   -4.2148 H   0  0  0  0  0  0  0  0  0  0  0  0
   -8.9894   -3.8917   -4.1258 H   0  0  0  0  0  0  0  0  0  0  0  0
   -7.8650   -4.2378   -1.3224 H   0  0  0  0  0  0  0  0  0  0  0  0
   -5.7641   -3.4804   -0.3416 H   0  0  0  0  0  0  0  0  0  0  0  0
    1.0758    2.1502    1.8343 H   0  0  0  0  0  0  0  0  0  0  0  0
    1.6971    1.1368   -0.9107 H   0  0  0  0  0  0  0  0  0  0  0  0
    3.8620    2.3962   -0.5793 H   0  0  0  0  0  0  0  0  0  0  0  0
    3.3054    2.8710    1.0645 H   0  0  0  0  0  0  0  0  0  0  0  0
    2.9006    4.6731   -0.5110 H   0  0  0  0  0  0  0  0  0  0  0  0
    1.3377    4.0248    0.0093 H   0  0  0  0  0  0  0  0  0  0  0  0
    2.6407    3.1728   -2.6431 H   0  0  0  0  0  0  0  0  0  0  0  0
    1.0552    2.6952   -1.9655 H   0  0  0  0  0  0  0  0  0  0  0  0
    1.6537    5.2279   -3.2568 H   0  0  0  0  0  0  0  0  0  0  0  0
    0.4710    6.7410   -0.6649 H   0  0  0  0  0  0  0  0  0  0  0  0
   -0.8065    7.2134   -1.8162 H   0  0  0  0  0  0  0  0  0  0  0  0
   -2.0295    4.7679   -1.6841 H   0  0  0  0  0  0  0  0  0  0  0  0
    4.3130    0.2598   -0.8278 H   0  0  0  0  0  0  0  0  0  0  0  0
    4.0783   -1.9229    1.2043 H   0  0  0  0  0  0  0  0  0  0  0  0
    3.7013   -2.5833   -1.1728 H   0  0  0  0  0  0  0  0  0  0  0  0
    5.2220   -1.8258   -1.6714 H   0  0  0  0  0  0  0  0  0  0  0  0
    7.3232   -2.9091   -1.4810 H   0  0  0  0  0  0  0  0  0  0  0  0
    8.4185   -5.0874   -1.2425 H   0  0  0  0  0  0  0  0  0  0  0  0
    7.8606   -7.4458    0.5914 H   0  0  0  0  0  0  0  0  0  0  0  0
    4.8603   -6.8178    0.3958 H   0  0  0  0  0  0  0  0  0  0  0  0
    3.7348   -4.6440    0.1683 H   0  0  0  0  0  0  0  0  0  0  0  0
    6.4601   -2.8486    2.0658 H   0  0  0  0  0  0  0  0  0  0  0  0
    7.8641   -1.9883    1.3831 H   0  0  0  0  0  0  0  0  0  0  0  0
  1  2  1  0
  2  3  1  0
  2  4  1  0
  4  5  1  0
  5  6  1  0
  6  7  1  0
  7  8  2  0
  7  9  1  0
  9 10  1  0
  9 11  1  0
 11 12  1  0
 12 13  2  0
 13 14  1  0
 14 15  2  0
 15 16  1  0
 15 17  1  0
 17 18  2  0
  5 19  1  0
 19 20  2  0
 19 21  1  0
 21 22  1  0
 22 23  1  0
 23 24  1  0
 24 25  1  0
 25 26  1  0
 26 27  1  0
 27 28  1  0
 27 29  2  3
 22 30  1  0
 30 31  2  0
 30 32  1  0
 32 33  1  0
 33 34  1  0
 34 35  1  0
 35 36  2  0
 36 37  1  0
 37 38  2  0
 38 39  1  0
 38 40  1  0
 40 41  2  0
 33 42  1  0
 42 43  1  0
 42 44  2  0
 18 12  1  0
 41 35  1  0
  1 45  1  0
  1 46  1  0
  1 47  1  0
  2 48  1  0
  3 49  1  0
  3 50  1  0
  3 51  1  0
  4 52  1  0
  4 53  1  0
  5 54  1  1
  6 55  1  0
  9 56  1  1
 10 57  1  0
 10 58  1  0
 11 59  1  0
 11 60  1  0
 13 61  1  0
 14 62  1  0
 16 63  1  0
 17 64  1  0
 18 65  1  0
 21 66  1  0
 22 67  1  6
 23 68  1  0
 23 69  1  0
 24 70  1  0
 24 71  1  0
 25 72  1  0
 25 73  1  0
 26 74  1  0
 28 75  1  0
 28 76  1  0
 29 77  1  0
 32 78  1  0
 33 79  1  1
 34 80  1  0
 34 81  1  0
 36 82  1  0
 37 83  1  0
 39 84  1  0
 40 85  1  0
 41 86  1  0
 43 87  1  0
 43 88  1  0
M  END
$$$$
[H]c1c([H])c(C(F)(F)F)c([H])c([C@]2([H])C([H])([H])[C@@]3([H])N(S(=O)(=O)c4c([H])c([H])c(OC([H])([H])[H])c([H])c4[H])C([H])([H])[C@@]23[H])c1[H]
     RDKit          3D

 45 48  0  0  0  0  0  0  0  0999 V2000
   -8.1418   -0.6771    0.1850 C   0  0  0  0  0  0  0  0  0  0  0  0
   -7.2907    0.4248   -0.1072 O   0  0  0  0  0  0  0  0  0  0  0  0
   -5.9207    0.2377    0.1720 C   0  0  0  0  0  0  0  0  0  0  0  0
   -5.4184   -0.9207    0.6898 C   0  0  0  0  0  0  0  0  0  0  0  0
   -4.0586   -1.0483    0.9250 C   0  0  0  0  0  0  0  0  0  0  0  0
   -3.1670   -0.0436    0.6613 C   0  0  0  0  0  0  0  0  0  0  0  0
   -3.6916    1.1125    0.1505 C   0  0  0  0  0  0  0  0  0  0  0  0
   -5.0384    1.2590   -0.0991 C   0  0  0  0  0  0  0  0  0  0  0  0
   -1.4864   -0.3640    0.9378 S   0  0  0  0  0  0  0  0  0  0  0  0
   -1.1459    0.2746    2.2797 O   0  0  0  0  0  0  0  0  0  0  0  0
   -1.3638   -1.8545    1.2650 O   0  0  0  0  0  0  0  0  0  0  0  0
   -0.4680   -0.0620   -0.3115 N   0  0  0  0  0  0  0  0  0  0  0  0
   -0.1854    1.1789   -0.8971 C   0  0  0  0  0  0  0  0  0  0  0  0
    1.1463    0.6228   -1.3434 C   0  0  1  0  0  0  0  0  0  0  0  0
    2.3416    1.0811   -0.6666 C   0  0  1  0  0  0  0  0  0  0  0  0
    1.7080    0.5351    0.6666 C   0  0  0  0  0  0  0  0  0  0  0  0
    0.8945   -0.3699   -0.2277 C   0  0  1  0  0  0  0  0  0  0  0  0
    3.6022    0.2903   -0.8591 C   0  0  0  0  0  0  0  0  0  0  0  0
    3.6757   -0.8530   -1.6142 C   0  0  0  0  0  0  0  0  0  0  0  0
    4.8598   -1.6145   -1.6467 C   0  0  0  0  0  0  0  0  0  0  0  0
    5.9671   -1.2343   -0.9240 C   0  0  0  0  0  0  0  0  0  0  0  0
    5.8610   -0.0831   -0.1808 C   0  0  0  0  0  0  0  0  0  0  0  0
    4.6951    0.6991   -0.1297 C   0  0  0  0  0  0  0  0  0  0  0  0
    7.0253    0.3544    0.6234 C   0  0  0  0  0  0  0  0  0  0  0  0
    8.1618    0.3460   -0.1390 F   0  0  0  0  0  0  0  0  0  0  0  0
    7.1544   -0.4851    1.6798 F   0  0  0  0  0  0  0  0  0  0  0  0
    6.8079    1.6561    1.1238 F   0  0  0  0  0  0  0  0  0  0  0  0
   -7.7676   -1.6265   -0.2577 H   0  0  0  0  0  0  0  0  0  0  0  0
   -8.2227   -0.8030    1.2862 H   0  0  0  0  0  0  0  0  0  0  0  0
   -9.1471   -0.4679   -0.2177 H   0  0  0  0  0  0  0  0  0  0  0  0
   -6.1299   -1.6990    0.9040 H   0  0  0  0  0  0  0  0  0  0  0  0
   -3.7460   -2.0086    1.3268 H   0  0  0  0  0  0  0  0  0  0  0  0
   -3.0051    1.9007   -0.0620 H   0  0  0  0  0  0  0  0  0  0  0  0
   -5.4336    2.1746   -0.5138 H   0  0  0  0  0  0  0  0  0  0  0  0
   -0.1201    2.0758   -0.2564 H   0  0  0  0  0  0  0  0  0  0  0  0
   -0.7437    1.4786   -1.8342 H   0  0  0  0  0  0  0  0  0  0  0  0
    1.1812    0.2408   -2.3725 H   0  0  0  0  0  0  0  0  0  0  0  0
    2.5714    2.1431   -0.5754 H   0  0  0  0  0  0  0  0  0  0  0  0
    1.2014    1.3673    1.1376 H   0  0  0  0  0  0  0  0  0  0  0  0
    2.4197   -0.0068    1.2852 H   0  0  0  0  0  0  0  0  0  0  0  0
    1.2588   -1.3738   -0.3565 H   0  0  0  0  0  0  0  0  0  0  0  0
    2.7904   -1.1272   -2.1579 H   0  0  0  0  0  0  0  0  0  0  0  0
    4.8776   -2.5045   -2.2623 H   0  0  0  0  0  0  0  0  0  0  0  0
    6.8533   -1.8269   -0.9415 H   0  0  0  0  0  0  0  0  0  0  0  0
    4.6378    1.6010    0.4571 H   0  0  0  0  0  0  0  0  0  0  0  0
  1  2  1  0
  2  3  1  0
  3  4  2  0
  4  5  1  0
  5  6  2  0
  6  7  1  0
  7  8  2  0
  6  9  1  0
  9 10  2  0
  9 11  2  0
  9 12  1  0
 12 13  1  0
 13 14  1  0
 14 15  1  0
 15 16  1  0
 16 17  1  0
 15 18  1  0
 18 19  2  0
 19 20  1  0
 20 21  2  0
 21 22  1  0
 22 23  2  0
 22 24  1  0
 24 25  1  0
 24 26  1  0
 24 27  1  0
  8  3  1  0
 17 12  1  0
 23 18  1  0
 17 14  1  0
  1 28  1  0
  1 29  1  0
  1 30  1  0
  4 31  1  0
  5 32  1  0
  7 33  1  0
  8 34  1  0
 13 35  1  0
 13 36  1  0
 14 37  1  6
 15 38  1  1
 16 39  1  0
 16 40  1  0
 17 41  1  6
 19 42  1  0
 20 43  1  0
 21 44  1  0
 23 45  1  0
M  END
$$$$
[H]c1c([H])c([H])c(-c2c([H])c([H])c(C(=O)N([H])C([H])([H])C([H])([H])c3c([H])c([H])c(S(=O)(=O)N([H])[H])c([H])c3[H])c([H])c2[H])c([H])c1[H]
     RDKit          3D

 47 49  0  0  0  0  0  0  0  0999 V2000
   -8.2482   -0.3450    1.6045 N   0  0  0  0  0  0  0  0  0  0  0  0
   -6.9603   -1.3709    1.0816 S   0  0  0  0  0  0  0  0  0  0  0  0
   -7.5088   -2.3142    0.0561 O   0  0  0  0  0  0  0  0  0  0  0  0
   -6.5290   -2.1765    2.2624 O   0  0  0  0  0  0  0  0  0  0  0  0
   -5.6425   -0.4320    0.4064 C   0  0  0  0  0  0  0  0  0  0  0  0
   -5.6173   -0.1084   -0.9114 C   0  0  0  0  0  0  0  0  0  0  0  0
   -4.5874    0.6199   -1.4755 C   0  0  0  0  0  0  0  0  0  0  0  0
   -3.5175    1.0637   -0.7384 C   0  0  0  0  0  0  0  0  0  0  0  0
   -2.3953    1.8439   -1.3046 C   0  0  0  0  0  0  0  0  0  0  0  0
   -1.2751    0.9354   -1.8690 C   0  0  0  0  0  0  0  0  0  0  0  0
   -0.7072    0.1099   -1.0706 N   0  0  0  0  0  0  0  0  0  0  0  0
   -0.0775   -0.8056   -0.1853 C   0  0  0  0  0  0  0  0  0  0  0  0
   -0.6021   -1.7078    0.4539 O   0  0  0  0  0  0  0  0  0  0  0  0
    1.4031   -0.6003   -0.0545 C   0  0  0  0  0  0  0  0  0  0  0  0
    2.1730   -1.5956    0.4810 C   0  0  0  0  0  0  0  0  0  0  0  0
    3.5445   -1.4792    0.6511 C   0  0  0  0  0  0  0  0  0  0  0  0
    4.1338   -0.2945    0.2536 C   0  0  0  0  0  0  0  0  0  0  0  0
    3.3665    0.7198   -0.2898 C   0  0  0  0  0  0  0  0  0  0  0  0
    1.9902    0.5720   -0.4482 C   0  0  0  0  0  0  0  0  0  0  0  0
    5.5664   -0.1293    0.4371 C   0  0  0  0  0  0  0  0  0  0  0  0
    6.0988    1.1193    0.6700 C   0  0  0  0  0  0  0  0  0  0  0  0
    7.4420    1.3376    0.8638 C   0  0  0  0  0  0  0  0  0  0  0  0
    8.2973    0.2686    0.8269 C   0  0  0  0  0  0  0  0  0  0  0  0
    7.7831   -1.0006    0.5943 C   0  0  0  0  0  0  0  0  0  0  0  0
    6.4277   -1.1931    0.4020 C   0  0  0  0  0  0  0  0  0  0  0  0
   -3.5450    0.7308    0.6186 C   0  0  0  0  0  0  0  0  0  0  0  0
   -4.5703    0.0024    1.2008 C   0  0  0  0  0  0  0  0  0  0  0  0
   -9.0130   -0.8940    2.0186 H   0  0  0  0  0  0  0  0  0  0  0  0
   -8.6359    0.2331    0.8224 H   0  0  0  0  0  0  0  0  0  0  0  0
   -6.4488   -0.4368   -1.5527 H   0  0  0  0  0  0  0  0  0  0  0  0
   -4.5891    0.8633   -2.5298 H   0  0  0  0  0  0  0  0  0  0  0  0
   -1.9250    2.4718   -0.5043 H   0  0  0  0  0  0  0  0  0  0  0  0
   -2.6818    2.5335   -2.1157 H   0  0  0  0  0  0  0  0  0  0  0  0
   -1.7170    0.4838   -2.8333 H   0  0  0  0  0  0  0  0  0  0  0  0
   -0.5963    1.7427   -2.3920 H   0  0  0  0  0  0  0  0  0  0  0  0
   -1.8731   -0.5810   -0.8495 H   0  0  0  0  0  0  0  0  0  0  0  0
    1.7155   -2.5265    0.7921 H   0  0  0  0  0  0  0  0  0  0  0  0
    4.1543   -2.2632    1.0677 H   0  0  0  0  0  0  0  0  0  0  0  0
    3.8622    1.6356   -0.5795 H   0  0  0  0  0  0  0  0  0  0  0  0
    1.4196    1.3872   -0.8836 H   0  0  0  0  0  0  0  0  0  0  0  0
    5.4560    1.9877    0.7082 H   0  0  0  0  0  0  0  0  0  0  0  0
    7.7974    2.3365    1.0378 H   0  0  0  0  0  0  0  0  0  0  0  0
    9.3356    0.4397    0.9765 H   0  0  0  0  0  0  0  0  0  0  0  0
    8.5163   -1.7887    0.5748 H   0  0  0  0  0  0  0  0  0  0  0  0
    6.0895   -2.2036    0.2338 H   0  0  0  0  0  0  0  0  0  0  0  0
   -2.7006    1.0737    1.2215 H   0  0  0  0  0  0  0  0  0  0  0  0
   -4.6087   -0.2649    2.2318 H   0  0  0  0  0  0  0  0  0  0  0  0
  1  2  1  0
  2  3  2  0
  2  4  2  0
  2  5  1  0
  5  6  2  0
  6  7  1  0
  7  8  2  0
  8  9  1  0
  9 10  1  0
 10 11  1  0
 11 12  1  0
 12 13  2  0
 12 14  1  0
 14 15  2  0
 15 16  1  0
 16 17  2  0
 17 18  1  0
 18 19  2  0
 17 20  1  0
 20 21  2  0
 21 22  1  0
 22 23  2  0
 23 24  1  0
 24 25  2  0
  8 26  1  0
 26 27  2  0
 27  5  1  0
 19 14  1  0
 25 20  1  0
  1 28  1  0
  1 29  1  0
  6 30  1  0
  7 31  1  0
  9 32  1  0
  9 33  1  0
 10 34  1  0
 10 35  1  0
 11 36  1  0
 15 37  1  0
 16 38  1  0
 18 39  1  0
 19 40  1  0
 21 41  1  0
 22 42  1  0
 23 43  1  0
 24 44  1  0
 25 45  1  0
 26 46  1  0
 27 47  1  0
M  END
$$$$
[H]OC(=O)C([H])([H])C([H])([H])[C@@]([H])(C(=O)N([H])[C@]([H])(C(=O)N([H])[C@]([H])(C(=O)N([H])[C@]([H])(C(=O)O[H])C([H])([H])C(=O)O[H])C([H])([H])C(=O)O[H])C([H])([H])c1c([H])c([H])c([H])c([H])c1[H])N([H])C(=O)[C@@]([H])(N([H])C(=O)[C@@]([H])(N([H])[H])C([H])([H])C([H])(C([H])([H])[H])C([H])([H])[H])C([H])([H])c1c([H])c([H])c([H])c([H])c1[H]
     RDKit          3D

104105  0  0  0  0  0  0  0  0999 V2000
    9.5161    2.5756    1.0121 C   0  0  0  0  0  0  0  0  0  0  0  0
    9.2799    1.1854    0.4680 C   0  0  0  0  0  0  0  0  0  0  0  0
   10.3049    0.2061    1.0243 C   0  0  0  0  0  0  0  0  0  0  0  0
    7.8927    0.7155    0.7978 C   0  0  0  0  0  0  0  0  0  0  0  0
    7.6414   -0.6819    0.2340 C   0  0  2  0  0  0  0  0  0  0  0  0
    7.8272   -0.5782   -1.1990 N   0  0  0  0  0  0  0  0  0  0  0  0
    6.1988   -1.0307    0.5376 C   0  0  0  0  0  0  0  0  0  0  0  0
    5.9258   -1.2988    1.7098 O   0  0  0  0  0  0  0  0  0  0  0  0
    5.2516   -1.0282   -0.4865 N   0  0  0  0  0  0  0  0  0  0  0  0
    3.8503   -1.2917   -0.4429 C   0  0  1  0  0  0  0  0  0  0  0  0
    3.4495   -2.6515    0.0462 C   0  0  0  0  0  0  0  0  0  0  0  0
    3.9832   -3.7523   -0.7964 C   0  0  0  0  0  0  0  0  0  0  0  0
    3.3005   -4.1746   -1.9287 C   0  0  0  0  0  0  0  0  0  0  0  0
    3.8403   -5.1870   -2.6775 C   0  0  0  0  0  0  0  0  0  0  0  0
    5.0298   -5.8365   -2.3872 C   0  0  0  0  0  0  0  0  0  0  0  0
    5.6988   -5.4069   -1.2550 C   0  0  0  0  0  0  0  0  0  0  0  0
    5.1660   -4.3865   -0.4933 C   0  0  0  0  0  0  0  0  0  0  0  0
    3.1056   -0.2558    0.3326 C   0  0  0  0  0  0  0  0  0  0  0  0
    3.6679    0.2151    1.3676 O   0  0  0  0  0  0  0  0  0  0  0  0
    1.8413    0.2040   -0.0571 N   0  0  0  0  0  0  0  0  0  0  0  0
    1.1888    1.2544    0.7716 C   0  0  1  0  0  0  0  0  0  0  0  0
    1.6248    2.5362    0.1846 C   0  0  0  0  0  0  0  0  0  0  0  0
    1.2359    3.8180    0.8052 C   0  0  0  0  0  0  0  0  0  0  0  0
    1.6812    3.9344    2.2316 C   0  0  0  0  0  0  0  0  0  0  0  0
    2.8714    4.4876    2.6021 O   0  0  0  0  0  0  0  0  0  0  0  0
    0.9026    3.4841    3.0962 O   0  0  0  0  0  0  0  0  0  0  0  0
   -0.1975    0.9331    1.0149 C   0  0  0  0  0  0  0  0  0  0  0  0
   -0.4077   -0.2956    1.4009 O   0  0  0  0  0  0  0  0  0  0  0  0
   -1.3606    1.7027    0.9099 N   0  0  0  0  0  0  0  0  0  0  0  0
   -2.6611    1.1745    1.2363 C   0  0  1  0  0  0  0  0  0  0  0  0
   -3.3869    2.1199    2.1039 C   0  0  0  0  0  0  0  0  0  0  0  0
   -3.5570    3.4752    1.5396 C   0  0  0  0  0  0  0  0  0  0  0  0
   -2.6478    4.4924    1.8403 C   0  0  0  0  0  0  0  0  0  0  0  0
   -2.7796    5.7515    1.3160 C   0  0  0  0  0  0  0  0  0  0  0  0
   -3.8292    6.0628    0.4665 C   0  0  0  0  0  0  0  0  0  0  0  0
   -4.7115    5.0452    0.1869 C   0  0  0  0  0  0  0  0  0  0  0  0
   -4.5853    3.7764    0.7070 C   0  0  0  0  0  0  0  0  0  0  0  0
   -3.4359    0.6684    0.0493 C   0  0  0  0  0  0  0  0  0  0  0  0
   -2.8437    0.8329   -1.0465 O   0  0  0  0  0  0  0  0  0  0  0  0
   -4.6661    0.0868    0.2346 N   0  0  0  0  0  0  0  0  0  0  0  0
   -5.8922   -0.4930    0.4186 C   0  0  1  0  0  0  0  0  0  0  0  0
   -7.0483    0.4476    0.3093 C   0  0  0  0  0  0  0  0  0  0  0  0
   -7.2649    1.1328   -0.9507 C   0  0  0  0  0  0  0  0  0  0  0  0
   -8.3367    2.0631   -1.0443 O   0  0  0  0  0  0  0  0  0  0  0  0
   -6.6064    0.9955   -1.9815 O   0  0  0  0  0  0  0  0  0  0  0  0
   -6.1500   -1.7721   -0.3366 C   0  0  0  0  0  0  0  0  0  0  0  0
   -5.1994   -2.5645   -0.4658 O   0  0  0  0  0  0  0  0  0  0  0  0
   -7.4024   -2.0696   -0.8707 N   0  0  0  0  0  0  0  0  0  0  0  0
   -7.7825   -3.2934   -1.5797 C   0  0  1  0  0  0  0  0  0  0  0  0
   -9.2014   -3.5409   -1.2526 C   0  0  0  0  0  0  0  0  0  0  0  0
   -9.8792   -4.7054   -1.7586 C   0  0  0  0  0  0  0  0  0  0  0  0
  -11.2872   -4.7560   -1.6554 O   0  0  0  0  0  0  0  0  0  0  0  0
   -9.3655   -5.7193   -2.3012 O   0  0  0  0  0  0  0  0  0  0  0  0
   -7.5289   -3.0900   -3.0222 C   0  0  0  0  0  0  0  0  0  0  0  0
   -7.7898   -4.0714   -3.9287 O   0  0  0  0  0  0  0  0  0  0  0  0
   -7.0656   -1.9976   -3.4312 O   0  0  0  0  0  0  0  0  0  0  0  0
   10.2739    2.4977    1.8261 H   0  0  0  0  0  0  0  0  0  0  0  0
    9.9258    3.2124    0.1852 H   0  0  0  0  0  0  0  0  0  0  0  0
    8.5544    2.9737    1.3745 H   0  0  0  0  0  0  0  0  0  0  0  0
    9.4658    1.2127   -0.6232 H   0  0  0  0  0  0  0  0  0  0  0  0
   10.0177   -0.0596    2.0402 H   0  0  0  0  0  0  0  0  0  0  0  0
   11.2913    0.7164    0.9637 H   0  0  0  0  0  0  0  0  0  0  0  0
   10.3538   -0.6364    0.3028 H   0  0  0  0  0  0  0  0  0  0  0  0
    7.8318    0.5969    1.9154 H   0  0  0  0  0  0  0  0  0  0  0  0
    7.1349    1.4098    0.3981 H   0  0  0  0  0  0  0  0  0  0  0  0
    8.2677   -1.4399    0.6515 H   0  0  0  0  0  0  0  0  0  0  0  0
    7.5159   -1.4415   -1.6874 H   0  0  0  0  0  0  0  0  0  0  0  0
    7.3675    0.2715   -1.5856 H   0  0  0  0  0  0  0  0  0  0  0  0
    5.6284   -0.7783   -1.4741 H   0  0  0  0  0  0  0  0  0  0  0  0
    3.4511   -1.1413   -1.5051 H   0  0  0  0  0  0  0  0  0  0  0  0
    3.8661   -2.7880    1.0669 H   0  0  0  0  0  0  0  0  0  0  0  0
    2.3475   -2.7131    0.0073 H   0  0  0  0  0  0  0  0  0  0  0  0
    2.3751   -3.6768   -2.1636 H   0  0  0  0  0  0  0  0  0  0  0  0
    3.3071   -5.5329   -3.5605 H   0  0  0  0  0  0  0  0  0  0  0  0
    5.4098   -6.6568   -3.0222 H   0  0  0  0  0  0  0  0  0  0  0  0
    6.6454   -5.8549   -0.9435 H   0  0  0  0  0  0  0  0  0  0  0  0
    5.6923   -4.0399    0.4042 H   0  0  0  0  0  0  0  0  0  0  0  0
    1.3466   -0.1375   -0.8708 H   0  0  0  0  0  0  0  0  0  0  0  0
    1.7172    1.1935    1.7764 H   0  0  0  0  0  0  0  0  0  0  0  0
    1.4100    2.6263   -0.9221 H   0  0  0  0  0  0  0  0  0  0  0  0
    2.7634    2.5166    0.2118 H   0  0  0  0  0  0  0  0  0  0  0  0
    0.2515    4.2075    0.6961 H   0  0  0  0  0  0  0  0  0  0  0  0
    1.9179    4.6055    0.2739 H   0  0  0  0  0  0  0  0  0  0  0  0
    3.5247    4.2013    3.2931 H   0  0  0  0  0  0  0  0  0  0  0  0
   -1.3113    2.6894    0.5523 H   0  0  0  0  0  0  0  0  0  0  0  0
   -2.4535    0.2326    1.8323 H   0  0  0  0  0  0  0  0  0  0  0  0
   -4.3429    1.7040    2.5121 H   0  0  0  0  0  0  0  0  0  0  0  0
   -2.7490    2.2486    3.0358 H   0  0  0  0  0  0  0  0  0  0  0  0
   -1.8269    4.2424    2.5156 H   0  0  0  0  0  0  0  0  0  0  0  0
   -2.0509    6.4926    1.5747 H   0  0  0  0  0  0  0  0  0  0  0  0
   -3.9093    7.0671    0.0584 H   0  0  0  0  0  0  0  0  0  0  0  0
   -5.5390    5.2814   -0.4703 H   0  0  0  0  0  0  0  0  0  0  0  0
   -5.3548    3.0500    0.4227 H   0  0  0  0  0  0  0  0  0  0  0  0
   -4.7652   -0.1523   -1.1051 H   0  0  0  0  0  0  0  0  0  0  0  0
   -5.9461   -0.9307    1.5180 H   0  0  0  0  0  0  0  0  0  0  0  0
   -6.8603    1.2681    1.1038 H   0  0  0  0  0  0  0  0  0  0  0  0
   -8.0053    0.0007    0.6843 H   0  0  0  0  0  0  0  0  0  0  0  0
   -8.3155    2.8651   -0.4177 H   0  0  0  0  0  0  0  0  0  0  0  0
   -8.1787   -1.3451   -0.7568 H   0  0  0  0  0  0  0  0  0  0  0  0
   -7.1145   -4.0855   -1.2564 H   0  0  0  0  0  0  0  0  0  0  0  0
   -9.8476   -2.6475   -1.5685 H   0  0  0  0  0  0  0  0  0  0  0  0
   -9.3491   -3.5410   -0.1237 H   0  0  0  0  0  0  0  0  0  0  0  0
  -11.8964   -4.3357   -2.3469 H   0  0  0  0  0  0  0  0  0  0  0  0
   -7.2444   -4.8971   -4.0547 H   0  0  0  0  0  0  0  0  0  0  0  0
  1  2  1  0
  2  3  1  0
  2  4  1  0
  4  5  1  0
  5  6  1  0
  5  7  1  0
  7  8  2  0
  7  9  1  0
  9 10  1  0
 10 11  1  0
 11 12  1  0
 12 13  2  0
 13 14  1  0
 14 15  2  0
 15 16  1  0
 16 17  2  0
 10 18  1  0
 18 19  2  0
 18 20  1  0
 20 21  1  0
 21 22  1  0
 22 23  1  0
 23 24  1  0
 24 25  1  0
 24 26  2  0
 21 27  1  0
 27 28  2  0
 27 29  1  0
 29 30  1  0
 30 31  1  0
 31 32  1  0
 32 33  2  0
 33 34  1  0
 34 35  2  0
 35 36  1  0
 36 37  2  0
 30 38  1  0
 38 39  2  0
 38 40  1  0
 40 41  1  0
 41 42  1  0
 42 43  1  0
 43 44  1  0
 43 45  2  0
 41 46  1  0
 46 47  2  0
 46 48  1  0
 48 49  1  0
 49 50  1  0
 50 51  1  0
 51 52  1  0
 51 53  2  0
 49 54  1  0
 54 55  1  0
 54 56  2  0
 17 12  1  0
 37 32  1  0
  1 57  1  0
  1 58  1  0
  1 59  1  0
  2 60  1  0
  3 61  1  0
  3 62  1  0
  3 63  1  0
  4 64  1  0
  4 65  1  0
  5 66  1  1
  6 67  1  0
  6 68  1  0
  9 69  1  0
 10 70  1  6
 11 71  1  0
 11 72  1  0
 13 73  1  0
 14 74  1  0
 15 75  1  0
 16 76  1  0
 17 77  1  0
 20 78  1  0
 21 79  1  1
 22 80  1  0
 22 81  1  0
 23 82  1  0
 23 83  1  0
 25 84  1  0
 29 85  1  0
 30 86  1  1
 31 87  1  0
 31 88  1  0
 33 89  1  0
 34 90  1  0
 35 91  1  0
 36 92  1  0
 37 93  1  0
 40 94  1  0
 41 95  1  1
 42 96  1  0
 42 97  1  0
 44 98  1  0
 48 99  1  0
 49100  1  1
 50101  1  0
 50102  1  0
 52103  1  0
 55104  1  0
M  END
$$$$
[H]OC(=O)[C@@]([H])(N([H])C(=O)[C@@]([H])(N([H])C(=O)[C@@]([H])(N([H])C(=O)[C@@]([H])(N([H])[H])C([H])([H])c1c([H])c([H])c(O[H])c(F)c1[H])[C@]([H])(C([H])([H])[H])C([H])([H])C([H])([H])[H])C([H])([H])[H])C([H])([H])c1c([H])n([H])c2c([H])c([H])c([H])c([H])c12
     RDKit          3D

 77 79  0  0  0  0  0  0  0  0999 V2000
    3.1837   -2.2408   -2.7269 C   0  0  0  0  0  0  0  0  0  0  0  0
    2.6592   -2.6539   -1.3699 C   0  0  0  0  0  0  0  0  0  0  0  0
    1.5881   -1.6697   -0.9064 C   0  0  1  0  0  0  0  0  0  0  0  0
    1.0376   -2.0428    0.4365 C   0  0  0  0  0  0  0  0  0  0  0  0
    2.1049   -0.2568   -0.8812 C   0  0  2  0  0  0  0  0  0  0  0  0
    3.2279   -0.1000    0.0120 N   0  0  0  0  0  0  0  0  0  0  0  0
    4.4301    0.5266   -0.4001 C   0  0  0  0  0  0  0  0  0  0  0  0
    4.5009    0.9530   -1.5786 O   0  0  0  0  0  0  0  0  0  0  0  0
    5.6183    0.7160    0.4657 C   0  0  1  0  0  0  0  0  0  0  0  0
    5.3978    0.1243    1.7741 N   0  0  0  0  0  0  0  0  0  0  0  0
    6.8332    0.0502   -0.1480 C   0  0  0  0  0  0  0  0  0  0  0  0
    8.0399    0.2301    0.7113 C   0  0  0  0  0  0  0  0  0  0  0  0
    8.3649   -0.6898    1.6794 C   0  0  0  0  0  0  0  0  0  0  0  0
    9.4839   -0.5022    2.4604 C   0  0  0  0  0  0  0  0  0  0  0  0
   10.3127    0.5724    2.3270 C   0  0  0  0  0  0  0  0  0  0  0  0
   11.4431    0.7616    3.1151 O   0  0  0  0  0  0  0  0  0  0  0  0
    9.9677    1.4949    1.3399 C   0  0  0  0  0  0  0  0  0  0  0  0
   10.7591    2.6003    1.1527 F   0  0  0  0  0  0  0  0  0  0  0  0
    8.8575    1.3266    0.5515 C   0  0  0  0  0  0  0  0  0  0  0  0
    0.9462    0.6069   -0.4647 C   0  0  0  0  0  0  0  0  0  0  0  0
    1.0143    1.3415    0.5566 O   0  0  0  0  0  0  0  0  0  0  0  0
   -0.2516    0.6096   -1.2214 N   0  0  0  0  0  0  0  0  0  0  0  0
   -1.4258    1.3790   -0.9403 C   0  0  1  0  0  0  0  0  0  0  0  0
   -1.6513    2.4821   -1.9551 C   0  0  0  0  0  0  0  0  0  0  0  0
   -2.6352    0.5275   -0.8087 C   0  0  0  0  0  0  0  0  0  0  0  0
   -2.5660   -0.7368   -0.9156 O   0  0  0  0  0  0  0  0  0  0  0  0
   -3.9210    1.0768   -0.5601 N   0  0  0  0  0  0  0  0  0  0  0  0
   -5.1123    0.1992   -0.4352 C   0  0  1  0  0  0  0  0  0  0  0  0
   -5.7047    0.5336    0.8730 C   0  0  0  0  0  0  0  0  0  0  0  0
   -6.9270   -0.1394    1.2954 C   0  0  0  0  0  0  0  0  0  0  0  0
   -7.0504   -1.3392    1.9932 C   0  0  0  0  0  0  0  0  0  0  0  0
   -8.3391   -1.6219    2.1356 N   0  0  0  0  0  0  0  0  0  0  0  0
   -9.1035   -0.6617    1.5631 C   0  0  0  0  0  0  0  0  0  0  0  0
  -10.4657   -0.4779    1.4571 C   0  0  0  0  0  0  0  0  0  0  0  0
  -10.9714    0.6367    0.8265 C   0  0  0  0  0  0  0  0  0  0  0  0
  -10.1194    1.5767    0.2967 C   0  0  0  0  0  0  0  0  0  0  0  0
   -8.7689    1.3741    0.4119 C   0  0  0  0  0  0  0  0  0  0  0  0
   -8.2123    0.2543    1.0447 C   0  0  0  0  0  0  0  0  0  0  0  0
   -5.9639    0.3265   -1.6189 C   0  0  0  0  0  0  0  0  0  0  0  0
   -7.0344   -0.5097   -1.8856 O   0  0  0  0  0  0  0  0  0  0  0  0
   -5.7525    1.2345   -2.4934 O   0  0  0  0  0  0  0  0  0  0  0  0
    4.1451   -1.7119   -2.6784 H   0  0  0  0  0  0  0  0  0  0  0  0
    2.3880   -1.6819   -3.2659 H   0  0  0  0  0  0  0  0  0  0  0  0
    3.3679   -3.1587   -3.3539 H   0  0  0  0  0  0  0  0  0  0  0  0
    3.4699   -2.7744   -0.6409 H   0  0  0  0  0  0  0  0  0  0  0  0
    2.1926   -3.6532   -1.4962 H   0  0  0  0  0  0  0  0  0  0  0  0
    0.7607   -1.7459   -1.6397 H   0  0  0  0  0  0  0  0  0  0  0  0
    1.5895   -2.9135    0.8867 H   0  0  0  0  0  0  0  0  0  0  0  0
    1.0571   -1.1611    1.1435 H   0  0  0  0  0  0  0  0  0  0  0  0
   -0.0254   -2.3570    0.3969 H   0  0  0  0  0  0  0  0  0  0  0  0
    2.4035    0.1357   -1.8703 H   0  0  0  0  0  0  0  0  0  0  0  0
    3.1676   -0.4524    0.9911 H   0  0  0  0  0  0  0  0  0  0  0  0
    5.7915    1.8050    0.6273 H   0  0  0  0  0  0  0  0  0  0  0  0
    5.1961   -0.9090    1.6959 H   0  0  0  0  0  0  0  0  0  0  0  0
    4.5740    0.5710    2.2594 H   0  0  0  0  0  0  0  0  0  0  0  0
    7.0173    0.5268   -1.1447 H   0  0  0  0  0  0  0  0  0  0  0  0
    6.6751   -1.0355   -0.2822 H   0  0  0  0  0  0  0  0  0  0  0  0
    7.7340   -1.5775    1.8318 H   0  0  0  0  0  0  0  0  0  0  0  0
    9.7455   -1.2282    3.2288 H   0  0  0  0  0  0  0  0  0  0  0  0
   12.0042    1.5794    2.9543 H   0  0  0  0  0  0  0  0  0  0  0  0
    8.6290    2.0735   -0.2054 H   0  0  0  0  0  0  0  0  0  0  0  0
   -0.2921   -0.0043   -2.0642 H   0  0  0  0  0  0  0  0  0  0  0  0
   -1.2467    1.9056    0.0253 H   0  0  0  0  0  0  0  0  0  0  0  0
   -2.2799    3.2971   -1.5439 H   0  0  0  0  0  0  0  0  0  0  0  0
   -0.6536    2.9471   -2.1783 H   0  0  0  0  0  0  0  0  0  0  0  0
   -2.0389    2.1103   -2.9248 H   0  0  0  0  0  0  0  0  0  0  0  0
   -3.9976    2.1101   -0.4689 H   0  0  0  0  0  0  0  0  0  0  0  0
   -4.6795   -0.8455   -0.4629 H   0  0  0  0  0  0  0  0  0  0  0  0
   -4.9291    0.3112    1.6783 H   0  0  0  0  0  0  0  0  0  0  0  0
   -5.8288    1.6543    0.9474 H   0  0  0  0  0  0  0  0  0  0  0  0
   -6.1890   -1.8932    2.3321 H   0  0  0  0  0  0  0  0  0  0  0  0
   -8.7407   -2.4586    2.6159 H   0  0  0  0  0  0  0  0  0  0  0  0
  -11.1565   -1.1942    1.8614 H   0  0  0  0  0  0  0  0  0  0  0  0
  -12.0454    0.8025    0.7307 H   0  0  0  0  0  0  0  0  0  0  0  0
  -10.5135    2.4482   -0.1957 H   0  0  0  0  0  0  0  0  0  0  0  0
   -8.0905    2.1141   -0.0055 H   0  0  0  0  0  0  0  0  0  0  0  0
   -6.9957   -1.5085   -1.6765 H   0  0  0  0  0  0  0  0  0  0  0  0
  1  2  1  0
  2  3  1  0
  3  4  1  0
  3  5  1  0
  5  6  1  0
  6  7  1  0
  7  8  2  0
  7  9  1  0
  9 10  1  0
  9 11  1  0
 11 12  1  0
 12 13  2  0
 13 14  1  0
 14 15  2  0
 15 16  1  0
 15 17  1  0
 17 18  1  0
 17 19  2  0
  5 20  1  0
 20 21  2  0
 20 22  1  0
 22 23  1  0
 23 24  1  0
 23 25  1  0
 25 26  2  0
 25 27  1  0
 27 28  1  0
 28 29  1  0
 29 30  1  0
 30 31  2  0
 31 32  1  0
 32 33  1  0
 33 34  2  0
 34 35  1  0
 35 36  2  0
 36 37  1  0
 37 38  2  0
 28 39  1  0
 39 40  1  0
 39 41  2  0
 19 12  1  0
 38 30  1  0
 38 33  1  0
  1 42  1  0
  1 43  1  0
  1 44  1  0
  2 45  1  0
  2 46  1  0
  3 47  1  6
  4 48  1  0
  4 49  1  0
  4 50  1  0
  5 51  1  6
  6 52  1  0
  9 53  1  1
 10 54  1  0
 10 55  1  0
 11 56  1  0
 11 57  1  0
 13 58  1  0
 14 59  1  0
 16 60  1  0
 19 61  1  0
 22 62  1  0
 23 63  1  1
 24 64  1  0
 24 65  1  0
 24 66  1  0
 27 67  1  0
 28 68  1  1
 29 69  1  0
 29 70  1  0
 31 71  1  0
 32 72  1  0
 34 73  1  0
 35 74  1  0
 36 75  1  0
 37 76  1  0
 40 77  1  0
M  END
$$$$
[H]O[C@]1([H])[C@@]([H])(C([H])([H])OP(=O)(O[H])OP(=O)(O[H])OP(=O)(O[H])OP(=O)(O[H])O[H])O[C@@]([H])(n2c([H])nc3c(N([H])[H])nc([H])nc32)[C@]1([H])O[H]
     RDKit          3D

 52 54  0  0  0  0  0  0  0  0999 V2000
   -8.0342    2.4845    1.5069 N   0  0  0  0  0  0  0  0  0  0  0  0
   -7.3295    1.6994    0.5819 C   0  0  0  0  0  0  0  0  0  0  0  0
   -7.8063    1.5385   -0.6586 N   0  0  0  0  0  0  0  0  0  0  0  0
   -7.1666    0.7962   -1.5785 C   0  0  0  0  0  0  0  0  0  0  0  0
   -6.0181    0.2058   -1.2276 N   0  0  0  0  0  0  0  0  0  0  0  0
   -5.4684    0.3197    0.0098 C   0  0  0  0  0  0  0  0  0  0  0  0
   -4.3540   -0.1693    0.5765 N   0  0  0  0  0  0  0  0  0  0  0  0
   -4.3257    0.2808    1.8384 C   0  0  0  0  0  0  0  0  0  0  0  0
   -5.4100    1.0418    2.0561 N   0  0  0  0  0  0  0  0  0  0  0  0
   -6.1472    1.0861    0.9282 C   0  0  0  0  0  0  0  0  0  0  0  0
   -3.4109   -1.0191   -0.1198 C   0  0  2  0  0  0  0  0  0  0  0  0
   -2.5333   -1.6322    0.7309 O   0  0  0  0  0  0  0  0  0  0  0  0
   -1.3698   -1.9152    0.0661 C   0  0  2  0  0  0  0  0  0  0  0  0
   -0.2171   -1.3819    0.8932 C   0  0  0  0  0  0  0  0  0  0  0  0
    1.0179   -1.6284    0.2860 O   0  0  0  0  0  0  0  0  0  0  0  0
    2.1859   -0.9664    1.3462 P   0  0  0  0  0  0  0  0  0  0  0  0
    1.9036    0.6953    1.4234 O   0  0  0  0  0  0  0  0  0  0  0  0
    1.9244   -1.5411    2.7197 O   0  0  0  0  0  0  0  0  0  0  0  0
    3.7382   -1.3499    0.8868 O   0  0  0  0  0  0  0  0  0  0  0  0
    4.1041   -0.9221   -0.6847 P   0  0  0  0  0  0  0  0  0  0  0  0
    5.0968   -2.0804   -1.4470 O   0  0  0  0  0  0  0  0  0  0  0  0
    2.8165   -0.8806   -1.5040 O   0  0  0  0  0  0  0  0  0  0  0  0
    4.8771    0.5568   -0.7985 O   0  0  0  0  0  0  0  0  0  0  0  0
    5.9362    0.8615    0.4606 P   0  0  0  0  0  0  0  0  0  0  0  0
    6.3596    2.5152    0.3804 O   0  0  0  0  0  0  0  0  0  0  0  0
    5.2798    0.6696    1.8255 O   0  0  0  0  0  0  0  0  0  0  0  0
    7.3039   -0.1110    0.4320 O   0  0  0  0  0  0  0  0  0  0  0  0
    8.6222    0.6411   -0.2774 P   0  0  0  0  0  0  0  0  0  0  0  0
    9.8965   -0.4965   -0.3040 O   0  0  0  0  0  0  0  0  0  0  0  0
    9.1577    1.9830    0.5842 O   0  0  0  0  0  0  0  0  0  0  0  0
    8.3454    1.0048   -1.7327 O   0  0  0  0  0  0  0  0  0  0  0  0
   -1.3708   -1.1700   -1.2380 C   0  0  1  0  0  0  0  0  0  0  0  0
   -1.7756   -2.0413   -2.2594 O   0  0  0  0  0  0  0  0  0  0  0  0
   -2.5026   -0.1641   -0.9868 C   0  0  1  0  0  0  0  0  0  0  0  0
   -3.0967    0.2528   -2.1496 O   0  0  0  0  0  0  0  0  0  0  0  0
   -9.0634    2.5154    1.5642 H   0  0  0  0  0  0  0  0  0  0  0  0
   -7.4945    3.0760    2.1817 H   0  0  0  0  0  0  0  0  0  0  0  0
   -7.6209    0.7203   -2.5519 H   0  0  0  0  0  0  0  0  0  0  0  0
   -3.5257    0.0465    2.5602 H   0  0  0  0  0  0  0  0  0  0  0  0
   -3.8938   -1.7658   -0.7566 H   0  0  0  0  0  0  0  0  0  0  0  0
   -1.3006   -3.0123   -0.0845 H   0  0  0  0  0  0  0  0  0  0  0  0
   -0.3416   -0.2615    0.8993 H   0  0  0  0  0  0  0  0  0  0  0  0
   -0.2658   -1.7334    1.9265 H   0  0  0  0  0  0  0  0  0  0  0  0
    1.7119    1.0965    0.5390 H   0  0  0  0  0  0  0  0  0  0  0  0
    5.0632   -2.9435   -0.9550 H   0  0  0  0  0  0  0  0  0  0  0  0
    5.5870    3.0578    0.7249 H   0  0  0  0  0  0  0  0  0  0  0  0
    9.7752   -1.1658    0.4394 H   0  0  0  0  0  0  0  0  0  0  0  0
    8.8049    2.8391    0.2325 H   0  0  0  0  0  0  0  0  0  0  0  0
   -0.4280   -0.6695   -1.4626 H   0  0  0  0  0  0  0  0  0  0  0  0
   -2.1984   -2.8715   -1.8696 H   0  0  0  0  0  0  0  0  0  0  0  0
   -2.0357    0.6512   -0.3926 H   0  0  0  0  0  0  0  0  0  0  0  0
   -3.0026    1.2570   -2.1786 H   0  0  0  0  0  0  0  0  0  0  0  0
  1  2  1  0
  2  3  2  0
  3  4  1  0
  4  5  2  0
  5  6  1  0
  6  7  1  0
  7  8  1  0
  8  9  2  0
  9 10  1  0
  7 11  1  0
 11 12  1  0
 12 13  1  0
 13 14  1  0
 14 15  1  0
 15 16  1  0
 16 17  1  0
 16 18  2  0
 16 19  1  0
 19 20  1  0
 20 21  1  0
 20 22  2  0
 20 23  1  0
 23 24  1  0
 24 25  1  0
 24 26  2  0
 24 27  1  0
 27 28  1  0
 28 29  1  0
 28 30  1  0
 28 31  2  0
 13 32  1  0
 32 33  1  0
 32 34  1  0
 34 35  1  0
 10  2  1  0
 34 11  1  0
 10  6  2  0
  1 36  1  0
  1 37  1  0
  4 38  1  0
  8 39  1  0
 11 40  1  6
 13 41  1  6
 14 42  1  0
 14 43  1  0
 17 44  1  0
 21 45  1  0
 25 46  1  0
 29 47  1  0
 30 48  1  0
 32 49  1  6
 33 50  1  0
 34 51  1  1
 35 52  1  0
M  END
$$$$
[H]c1c([H])c([H])c(C([H])([H])OC(=O)N([H])[C@]([H])(C(=O)N([H])[C@]([H])(C(=O)N([H])[C@]([H])(C(=O)N([H])[H])C([H])([H])c2c([H])c([H])c([H])c([H])c2[H])C([H])([H])c2c([H])n([H])c3c([H])c([H])c([H])c([H])c23)C([H])([H])C([H])(C([H])([H])[H])C([H])([H])[H])c([H])c1[H]
     RDKit          3D

 83 86  0  0  0  0  0  0  0  0999 V2000
    2.8414    0.0055   -5.0272 C   0  0  0  0  0  0  0  0  0  0  0  0
    2.8325   -0.2798   -3.5061 C   0  0  0  0  0  0  0  0  0  0  0  0
    1.5449   -1.0191   -3.2737 C   0  0  0  0  0  0  0  0  0  0  0  0
    2.9589    1.0402   -2.8674 C   0  0  0  0  0  0  0  0  0  0  0  0
    2.9914    1.1824   -1.4177 C   0  0  2  0  0  0  0  0  0  0  0  0
    4.0241    0.4991   -0.7078 N   0  0  0  0  0  0  0  0  0  0  0  0
    3.9249   -0.6801    0.0609 C   0  0  0  0  0  0  0  0  0  0  0  0
    2.8934   -1.3689    0.2555 O   0  0  0  0  0  0  0  0  0  0  0  0
    5.0688   -1.1999    0.7116 O   0  0  0  0  0  0  0  0  0  0  0  0
    4.9722   -2.3771    1.4870 C   0  0  0  0  0  0  0  0  0  0  0  0
    6.2772   -2.7149    2.0559 C   0  0  0  0  0  0  0  0  0  0  0  0
    6.3053   -3.3767    3.2660 C   0  0  0  0  0  0  0  0  0  0  0  0
    7.4734   -3.7493    3.8923 C   0  0  0  0  0  0  0  0  0  0  0  0
    8.6716   -3.4535    3.2947 C   0  0  0  0  0  0  0  0  0  0  0  0
    8.6594   -2.7846    2.0717 C   0  0  0  0  0  0  0  0  0  0  0  0
    7.4809   -2.4198    1.4596 C   0  0  0  0  0  0  0  0  0  0  0  0
    1.7363    1.3504   -0.6682 C   0  0  0  0  0  0  0  0  0  0  0  0
    1.7173    1.0294    0.5446 O   0  0  0  0  0  0  0  0  0  0  0  0
    0.5221    1.8487   -1.1709 N   0  0  0  0  0  0  0  0  0  0  0  0
   -0.6882    2.0101   -0.3332 C   0  0  1  0  0  0  0  0  0  0  0  0
   -1.0956    3.4188   -0.5354 C   0  0  0  0  0  0  0  0  0  0  0  0
   -2.2546    3.9315    0.1667 C   0  0  0  0  0  0  0  0  0  0  0  0
   -3.4974    4.2306   -0.3429 C   0  0  0  0  0  0  0  0  0  0  0  0
   -4.2838    4.7128    0.6539 N   0  0  0  0  0  0  0  0  0  0  0  0
   -3.6080    4.7440    1.8057 C   0  0  0  0  0  0  0  0  0  0  0  0
   -3.9709    5.1474    3.0773 C   0  0  0  0  0  0  0  0  0  0  0  0
   -3.0227    5.0541    4.0698 C   0  0  0  0  0  0  0  0  0  0  0  0
   -1.7463    4.5682    3.7871 C   0  0  0  0  0  0  0  0  0  0  0  0
   -1.4269    4.1826    2.5331 C   0  0  0  0  0  0  0  0  0  0  0  0
   -2.3445    4.2620    1.5235 C   0  0  0  0  0  0  0  0  0  0  0  0
   -1.6754    0.9743   -0.6777 C   0  0  0  0  0  0  0  0  0  0  0  0
   -1.3975    0.2041   -1.6424 O   0  0  0  0  0  0  0  0  0  0  0  0
   -2.9067    0.7395   -0.0363 N   0  0  0  0  0  0  0  0  0  0  0  0
   -3.7412   -0.3752   -0.5188 C   0  0  1  0  0  0  0  0  0  0  0  0
   -3.6659   -1.4888    0.5150 C   0  0  0  0  0  0  0  0  0  0  0  0
   -4.4057   -2.6910    0.2464 C   0  0  0  0  0  0  0  0  0  0  0  0
   -5.6700   -2.8939    0.7413 C   0  0  0  0  0  0  0  0  0  0  0  0
   -6.4029   -4.0328    0.5163 C   0  0  0  0  0  0  0  0  0  0  0  0
   -5.8070   -5.0311   -0.2656 C   0  0  0  0  0  0  0  0  0  0  0  0
   -4.5473   -4.8638   -0.7765 C   0  0  0  0  0  0  0  0  0  0  0  0
   -3.8619   -3.7079   -0.5204 C   0  0  0  0  0  0  0  0  0  0  0  0
   -5.0989    0.1094   -0.7886 C   0  0  0  0  0  0  0  0  0  0  0  0
   -6.1219   -0.6864   -1.4021 N   0  0  0  0  0  0  0  0  0  0  0  0
   -5.4915    1.2906   -0.5037 O   0  0  0  0  0  0  0  0  0  0  0  0
    3.6021    0.7978   -5.2419 H   0  0  0  0  0  0  0  0  0  0  0  0
    1.8427    0.2691   -5.3757 H   0  0  0  0  0  0  0  0  0  0  0  0
    3.1652   -0.8967   -5.5776 H   0  0  0  0  0  0  0  0  0  0  0  0
    3.7210   -0.9448   -3.3725 H   0  0  0  0  0  0  0  0  0  0  0  0
    1.2698   -1.1386   -2.2071 H   0  0  0  0  0  0  0  0  0  0  0  0
    1.6435   -2.0389   -3.7316 H   0  0  0  0  0  0  0  0  0  0  0  0
    0.7702   -0.5126   -3.8870 H   0  0  0  0  0  0  0  0  0  0  0  0
    2.1561    1.6931   -3.2777 H   0  0  0  0  0  0  0  0  0  0  0  0
    3.9030    1.5060   -3.2935 H   0  0  0  0  0  0  0  0  0  0  0  0
    3.3697    2.3208   -1.3013 H   0  0  0  0  0  0  0  0  0  0  0  0
    5.0257    0.8996   -0.7402 H   0  0  0  0  0  0  0  0  0  0  0  0
    4.6296   -3.2270    0.8264 H   0  0  0  0  0  0  0  0  0  0  0  0
    4.2449   -2.2220    2.3119 H   0  0  0  0  0  0  0  0  0  0  0  0
    5.3852   -3.6229    3.7612 H   0  0  0  0  0  0  0  0  0  0  0  0
    7.4299   -4.2730    4.8544 H   0  0  0  0  0  0  0  0  0  0  0  0
    9.5952   -3.7284    3.7518 H   0  0  0  0  0  0  0  0  0  0  0  0
    9.6028   -2.5402    1.5775 H   0  0  0  0  0  0  0  0  0  0  0  0
    7.4924   -1.8934    0.4935 H   0  0  0  0  0  0  0  0  0  0  0  0
    0.4362    2.1228   -2.1539 H   0  0  0  0  0  0  0  0  0  0  0  0
   -0.3374    1.7717    0.6988 H   0  0  0  0  0  0  0  0  0  0  0  0
   -0.1599    4.0384   -0.3397 H   0  0  0  0  0  0  0  0  0  0  0  0
   -1.2140    3.5559   -1.6596 H   0  0  0  0  0  0  0  0  0  0  0  0
   -3.8458    4.1197   -1.3660 H   0  0  0  0  0  0  0  0  0  0  0  0
   -5.2781    5.0170    0.5425 H   0  0  0  0  0  0  0  0  0  0  0  0
   -4.9416    5.5278    3.3372 H   0  0  0  0  0  0  0  0  0  0  0  0
   -3.2362    5.3534    5.0961 H   0  0  0  0  0  0  0  0  0  0  0  0
   -0.9768    4.4843    4.5562 H   0  0  0  0  0  0  0  0  0  0  0  0
   -0.4353    3.7909    2.2501 H   0  0  0  0  0  0  0  0  0  0  0  0
   -3.2649    1.2966    0.7527 H   0  0  0  0  0  0  0  0  0  0  0  0
   -3.2644   -0.7222   -1.4719 H   0  0  0  0  0  0  0  0  0  0  0  0
   -2.5708   -1.6828    0.6612 H   0  0  0  0  0  0  0  0  0  0  0  0
   -4.0078   -1.0145    1.4862 H   0  0  0  0  0  0  0  0  0  0  0  0
   -6.1735   -2.1331    1.3610 H   0  0  0  0  0  0  0  0  0  0  0  0
   -7.4081   -4.1829    0.9155 H   0  0  0  0  0  0  0  0  0  0  0  0
   -6.3999   -5.9235   -0.4322 H   0  0  0  0  0  0  0  0  0  0  0  0
   -4.1346   -5.6610   -1.3698 H   0  0  0  0  0  0  0  0  0  0  0  0
   -2.8703   -3.6246   -0.9472 H   0  0  0  0  0  0  0  0  0  0  0  0
   -7.0696   -0.6932   -0.9903 H   0  0  0  0  0  0  0  0  0  0  0  0
   -5.8600   -1.2299   -2.2512 H   0  0  0  0  0  0  0  0  0  0  0  0
  1  2  1  0
  2  3  1  0
  2  4  1  0
  4  5  1  0
  5  6  1  0
  6  7  1  0
  7  8  2  0
  7  9  1  0
  9 10  1  0
 10 11  1  0
 11 12  2  0
 12 13  1  0
 13 14  2  0
 14 15  1  0
 15 16  2  0
  5 17  1  0
 17 18  2  0
 17 19  1  0
 19 20  1  0
 20 21  1  0
 21 22  1  0
 22 23  2  0
 23 24  1  0
 24 25  1  0
 25 26  2  0
 26 27  1  0
 27 28  2  0
 28 29  1  0
 29 30  2  0
 20 31  1  0
 31 32  2  0
 31 33  1  0
 33 34  1  0
 34 35  1  0
 35 36  1  0
 36 37  2  0
 37 38  1  0
 38 39  2  0
 39 40  1  0
 40 41  2  0
 34 42  1  0
 42 43  1  0
 42 44  2  0
 16 11  1  0
 30 22  1  0
 41 36  1  0
 30 25  1  0
  1 45  1  0
  1 46  1  0
  1 47  1  0
  2 48  1  0
  3 49  1  0
  3 50  1  0
  3 51  1  0
  4 52  1  0
  4 53  1  0
  5 54  1  6
  6 55  1  0
 10 56  1  0
 10 57  1  0
 12 58  1  0
 13 59  1  0
 14 60  1  0
 15 61  1  0
 16 62  1  0
 19 63  1  0
 20 64  1  1
 21 65  1  0
 21 66  1  0
 23 67  1  0
 24 68  1  0
 26 69  1  0
 27 70  1  0
 28 71  1  0
 29 72  1  0
 33 73  1  0
 34 74  1  6
 35 75  1  0
 35 76  1  0
 37 77  1  0
 38 78  1  0
 39 79  1  0
 40 80  1  0
 41 81  1  0
 43 82  1  0
 43 83  1  0
M  END
$$$$
[H]OC(=O)[C@@]([H])(N([H])C(=O)[C@@]([H])(N([H])C(=O)[C@@]([H])(N([H])C(=O)[C@@]([H])(N([H])C(=O)[C@@]([H])(N([H])C(=O)[C@@]([H])(N([H])C(=O)C([H])([H])[H])C([H])([H])C([H])(C([H])([H])[H])C([H])([H])[H])C([H])([H])C([H])(C([H])([H])[H])C([H])([H])[H])C([H])([H])C([H])(C([H])([H])[H])C([H])([H])[H])C([H])([H])C([H])(C([H])([H])[H])C([H])([H])[H])C([H])([H])C([H])(C([H])([H])[H])C([H])([H])[H])[C@@]([H])(C([H])([H])[H])C([H])([H])C([H])([H])[H]
     RDKit          3D

122121  0  0  0  0  0  0  0  0999 V2000
   -9.6801    0.6247   -1.3271 C   0  0  0  0  0  0  0  0  0  0  0  0
   -9.8717    0.7331    0.1585 C   0  0  0  0  0  0  0  0  0  0  0  0
   -8.5948    0.5877    0.9037 C   0  0  2  0  0  0  0  0  0  0  0  0
   -8.8548    0.6810    2.4208 C   0  0  0  0  0  0  0  0  0  0  0  0
   -7.5470    1.6448    0.5473 C   0  0  2  0  0  0  0  0  0  0  0  0
   -6.3788    1.2909    1.3512 N   0  0  0  0  0  0  0  0  0  0  0  0
   -5.0625    1.1979    0.7972 C   0  0  0  0  0  0  0  0  0  0  0  0
   -4.9856    1.5225   -0.4222 O   0  0  0  0  0  0  0  0  0  0  0  0
   -3.9162    0.7535    1.5672 C   0  0  2  0  0  0  0  0  0  0  0  0
   -3.6432    1.3471    2.8954 C   0  0  0  0  0  0  0  0  0  0  0  0
   -3.3195    2.7772    3.0047 C   0  0  0  0  0  0  0  0  0  0  0  0
   -3.0910    3.0513    4.5124 C   0  0  0  0  0  0  0  0  0  0  0  0
   -4.3207    3.7702    2.5627 C   0  0  0  0  0  0  0  0  0  0  0  0
   -2.6884    0.7437    0.7664 N   0  0  0  0  0  0  0  0  0  0  0  0
   -1.9950   -0.4323    0.3661 C   0  0  0  0  0  0  0  0  0  0  0  0
   -2.5395   -1.5079    0.7061 O   0  0  0  0  0  0  0  0  0  0  0  0
   -0.7481   -0.4060   -0.3610 C   0  0  2  0  0  0  0  0  0  0  0  0
   -0.5273    0.4149   -1.5479 C   0  0  0  0  0  0  0  0  0  0  0  0
   -1.2266    0.2874   -2.8119 C   0  0  0  0  0  0  0  0  0  0  0  0
   -1.0693   -1.0598   -3.4977 C   0  0  0  0  0  0  0  0  0  0  0  0
   -2.6359    0.7913   -2.9096 C   0  0  0  0  0  0  0  0  0  0  0  0
   -0.2201   -1.7816   -0.5876 N   0  0  0  0  0  0  0  0  0  0  0  0
    0.9497   -2.2169    0.0020 C   0  0  0  0  0  0  0  0  0  0  0  0
    1.5620   -1.4326    0.7718 O   0  0  0  0  0  0  0  0  0  0  0  0
    1.5800   -3.5637   -0.2066 C   0  0  2  0  0  0  0  0  0  0  0  0
    1.1738   -4.5834    0.7729 C   0  0  0  0  0  0  0  0  0  0  0  0
   -0.3060   -4.8456    0.7214 C   0  0  0  0  0  0  0  0  0  0  0  0
   -0.6630   -5.3746   -0.6678 C   0  0  0  0  0  0  0  0  0  0  0  0
   -0.6587   -5.8679    1.7876 C   0  0  0  0  0  0  0  0  0  0  0  0
    3.0509   -3.3653   -0.0359 N   0  0  0  0  0  0  0  0  0  0  0  0
    3.7411   -2.5971   -1.0066 C   0  0  0  0  0  0  0  0  0  0  0  0
    3.0145   -2.1474   -1.9568 O   0  0  0  0  0  0  0  0  0  0  0  0
    5.2163   -2.3121   -0.9392 C   0  0  2  0  0  0  0  0  0  0  0  0
    5.8031   -3.1784    0.0719 C   0  0  0  0  0  0  0  0  0  0  0  0
    7.2465   -3.1434    0.4022 C   0  0  0  0  0  0  0  0  0  0  0  0
    7.7845   -1.8788    0.9989 C   0  0  0  0  0  0  0  0  0  0  0  0
    7.6467   -4.3320    1.2703 C   0  0  0  0  0  0  0  0  0  0  0  0
    5.6145   -0.9801   -1.0823 N   0  0  0  0  0  0  0  0  0  0  0  0
    4.8919    0.2056   -1.3161 C   0  0  0  0  0  0  0  0  0  0  0  0
    3.6640    0.2294   -1.4314 O   0  0  0  0  0  0  0  0  0  0  0  0
    5.5659    1.5498   -1.4420 C   0  0  2  0  0  0  0  0  0  0  0  0
    6.5105    1.7102   -0.3066 C   0  0  0  0  0  0  0  0  0  0  0  0
    7.2503    3.0323   -0.2818 C   0  0  0  0  0  0  0  0  0  0  0  0
    8.0764    3.2992   -1.4957 C   0  0  0  0  0  0  0  0  0  0  0  0
    6.3731    4.1843    0.1451 C   0  0  0  0  0  0  0  0  0  0  0  0
    4.6151    2.6019   -1.6259 N   0  0  0  0  0  0  0  0  0  0  0  0
    4.5037    3.2749   -2.8647 C   0  0  0  0  0  0  0  0  0  0  0  0
    3.5117    4.3578   -3.0138 C   0  0  0  0  0  0  0  0  0  0  0  0
    5.2330    2.9607   -3.8196 O   0  0  0  0  0  0  0  0  0  0  0  0
   -8.0485    2.9955    0.7154 C   0  0  0  0  0  0  0  0  0  0  0  0
   -9.0475    3.4980   -0.1606 O   0  0  0  0  0  0  0  0  0  0  0  0
   -7.6796    3.7970    1.5769 O   0  0  0  0  0  0  0  0  0  0  0  0
   -8.6145    0.5760   -1.6043 H   0  0  0  0  0  0  0  0  0  0  0  0
  -10.2155   -0.3085   -1.6903 H   0  0  0  0  0  0  0  0  0  0  0  0
  -10.2100    1.4581   -1.8548 H   0  0  0  0  0  0  0  0  0  0  0  0
  -10.4251    1.6648    0.4264 H   0  0  0  0  0  0  0  0  0  0  0  0
  -10.5265   -0.1467    0.4740 H   0  0  0  0  0  0  0  0  0  0  0  0
   -8.1532   -0.4000    0.7172 H   0  0  0  0  0  0  0  0  0  0  0  0
   -8.4592    1.6296    2.8150 H   0  0  0  0  0  0  0  0  0  0  0  0
   -8.3313   -0.1365    2.9516 H   0  0  0  0  0  0  0  0  0  0  0  0
   -9.9365    0.5410    2.5630 H   0  0  0  0  0  0  0  0  0  0  0  0
   -7.2564    1.5088   -0.4987 H   0  0  0  0  0  0  0  0  0  0  0  0
   -6.5116    1.1023    2.3606 H   0  0  0  0  0  0  0  0  0  0  0  0
   -4.0940   -0.3599    1.7665 H   0  0  0  0  0  0  0  0  0  0  0  0
   -4.5493    1.1635    3.5579 H   0  0  0  0  0  0  0  0  0  0  0  0
   -2.8352    0.7727    3.4176 H   0  0  0  0  0  0  0  0  0  0  0  0
   -2.2840    3.0036    2.5759 H   0  0  0  0  0  0  0  0  0  0  0  0
   -4.0365    3.2497    5.0229 H   0  0  0  0  0  0  0  0  0  0  0  0
   -2.4096    3.9170    4.6280 H   0  0  0  0  0  0  0  0  0  0  0  0
   -2.5642    2.1829    4.9457 H   0  0  0  0  0  0  0  0  0  0  0  0
   -5.2807    3.6176    3.1180 H   0  0  0  0  0  0  0  0  0  0  0  0
   -4.0012    4.8064    2.8898 H   0  0  0  0  0  0  0  0  0  0  0  0
   -4.4788    3.8315    1.4769 H   0  0  0  0  0  0  0  0  0  0  0  0
   -2.2813    1.6530    0.4552 H   0  0  0  0  0  0  0  0  0  0  0  0
    0.0241    0.0049    0.3863 H   0  0  0  0  0  0  0  0  0  0  0  0
   -0.5893    1.4943   -1.2285 H   0  0  0  0  0  0  0  0  0  0  0  0
    0.5934    0.3203   -1.7752 H   0  0  0  0  0  0  0  0  0  0  0  0
   -0.6476    0.9824   -3.5215 H   0  0  0  0  0  0  0  0  0  0  0  0
   -1.8819   -1.7574   -3.2419 H   0  0  0  0  0  0  0  0  0  0  0  0
   -1.1488   -0.8891   -4.5876 H   0  0  0  0  0  0  0  0  0  0  0  0
   -0.0587   -1.4220   -3.2834 H   0  0  0  0  0  0  0  0  0  0  0  0
   -2.7248    1.8665   -2.6687 H   0  0  0  0  0  0  0  0  0  0  0  0
   -3.3463    0.1418   -2.3225 H   0  0  0  0  0  0  0  0  0  0  0  0
   -3.0381    0.7094   -3.9627 H   0  0  0  0  0  0  0  0  0  0  0  0
   -0.7782   -2.3720   -1.2061 H   0  0  0  0  0  0  0  0  0  0  0  0
    1.4604   -3.7505   -1.2700 H   0  0  0  0  0  0  0  0  0  0  0  0
    1.4371   -4.2444    1.8183 H   0  0  0  0  0  0  0  0  0  0  0  0
    1.7480   -5.5384    0.5567 H   0  0  0  0  0  0  0  0  0  0  0  0
   -0.8202   -3.8741    0.9272 H   0  0  0  0  0  0  0  0  0  0  0  0
   -1.5722   -4.8501   -1.0230 H   0  0  0  0  0  0  0  0  0  0  0  0
    0.1618   -5.3228   -1.3725 H   0  0  0  0  0  0  0  0  0  0  0  0
   -0.9039   -6.4505   -0.5417 H   0  0  0  0  0  0  0  0  0  0  0  0
    0.2722   -6.3228    2.1458 H   0  0  0  0  0  0  0  0  0  0  0  0
   -1.1798   -5.3560    2.5939 H   0  0  0  0  0  0  0  0  0  0  0  0
   -1.2995   -6.6393    1.2653 H   0  0  0  0  0  0  0  0  0  0  0  0
    3.5532   -3.7728    0.7604 H   0  0  0  0  0  0  0  0  0  0  0  0
    5.4901   -2.7632   -2.0247 H   0  0  0  0  0  0  0  0  0  0  0  0
    5.2872   -2.9068    1.0660 H   0  0  0  0  0  0  0  0  0  0  0  0
    5.4543   -4.2420   -0.1114 H   0  0  0  0  0  0  0  0  0  0  0  0
    7.7972   -3.3045   -0.5707 H   0  0  0  0  0  0  0  0  0  0  0  0
    8.5079   -1.3520    0.3780 H   0  0  0  0  0  0  0  0  0  0  0  0
    6.9514   -1.1702    1.2830 H   0  0  0  0  0  0  0  0  0  0  0  0
    8.3167   -2.1251    1.9642 H   0  0  0  0  0  0  0  0  0  0  0  0
    7.1604   -4.2466    2.2570 H   0  0  0  0  0  0  0  0  0  0  0  0
    8.7586   -4.2702    1.4438 H   0  0  0  0  0  0  0  0  0  0  0  0
    7.4671   -5.2933    0.7628 H   0  0  0  0  0  0  0  0  0  0  0  0
    6.7001   -0.8260   -1.0459 H   0  0  0  0  0  0  0  0  0  0  0  0
    6.2012    1.4145   -2.3763 H   0  0  0  0  0  0  0  0  0  0  0  0
    6.0118    1.6143    0.6911 H   0  0  0  0  0  0  0  0  0  0  0  0
    7.2759    0.9069   -0.3597 H   0  0  0  0  0  0  0  0  0  0  0  0
    7.9967    2.9002    0.5701 H   0  0  0  0  0  0  0  0  0  0  0  0
    7.7355    2.7508   -2.3956 H   0  0  0  0  0  0  0  0  0  0  0  0
    9.1598    3.0083   -1.3579 H   0  0  0  0  0  0  0  0  0  0  0  0
    8.1024    4.4121   -1.6576 H   0  0  0  0  0  0  0  0  0  0  0  0
    6.9769    4.8376    0.8487 H   0  0  0  0  0  0  0  0  0  0  0  0
    5.4873    3.9043    0.7198 H   0  0  0  0  0  0  0  0  0  0  0  0
    6.1191    4.8422   -0.7134 H   0  0  0  0  0  0  0  0  0  0  0  0
    3.9957    2.8759   -0.8435 H   0  0  0  0  0  0  0  0  0  0  0  0
    2.4983    3.9785   -2.6893 H   0  0  0  0  0  0  0  0  0  0  0  0
    3.4937    4.6928   -4.0693 H   0  0  0  0  0  0  0  0  0  0  0  0
    3.8214    5.2332   -2.3818 H   0  0  0  0  0  0  0  0  0  0  0  0
   -9.8331    3.9351    0.2808 H   0  0  0  0  0  0  0  0  0  0  0  0
  1  2  1  0
  2  3  1  0
  3  4  1  0
  3  5  1  0
  5  6  1  0
  6  7  1  0
  7  8  2  0
  7  9  1  0
  9 10  1  0
 10 11  1  0
 11 12  1  0
 11 13  1  0
  9 14  1  0
 14 15  1  0
 15 16  2  0
 15 17  1  0
 17 18  1  0
 18 19  1  0
 19 20  1  0
 19 21  1  0
 17 22  1  0
 22 23  1  0
 23 24  2  0
 23 25  1  0
 25 26  1  0
 26 27  1  0
 27 28  1  0
 27 29  1  0
 25 30  1  0
 30 31  1  0
 31 32  2  0
 31 33  1  0
 33 34  1  0
 34 35  1  0
 35 36  1  0
 35 37  1  0
 33 38  1  0
 38 39  1  0
 39 40  2  0
 39 41  1  0
 41 42  1  0
 42 43  1  0
 43 44  1  0
 43 45  1  0
 41 46  1  0
 46 47  1  0
 47 48  1  0
 47 49  2  0
  5 50  1  0
 50 51  1  0
 50 52  2  0
  1 53  1  0
  1 54  1  0
  1 55  1  0
  2 56  1  0
  2 57  1  0
  3 58  1  1
  4 59  1  0
  4 60  1  0
  4 61  1  0
  5 62  1  6
  6 63  1  0
  9 64  1  1
 10 65  1  0
 10 66  1  0
 11 67  1  0
 12 68  1  0
 12 69  1  0
 12 70  1  0
 13 71  1  0
 13 72  1  0
 13 73  1  0
 14 74  1  0
 17 75  1  1
 18 76  1  0
 18 77  1  0
 19 78  1  0
 20 79  1  0
 20 80  1  0
 20 81  1  0
 21 82  1  0
 21 83  1  0
 21 84  1  0
 22 85  1  0
 25 86  1  6
 26 87  1  0
 26 88  1  0
 27 89  1  0
 28 90  1  0
 28 91  1  0
 28 92  1  0
 29 93  1  0
 29 94  1  0
 29 95  1  0
 30 96  1  0
 33 97  1  6
 34 98  1  0
 34 99  1  0
 35100  1  0
 36101  1  0
 36102  1  0
 36103  1  0
 37104  1  0
 37105  1  0
 37106  1  0
 38107  1  0
 41108  1  6
 42109  1  0
 42110  1  0
 43111  1  0
 44112  1  0
 44113  1  0
 44114  1  0
 45115  1  0
 45116  1  0
 45117  1  0
 46118  1  0
 48119  1  0
 48120  1  0
 48121  1  0
 51122  1  0
M  END
$$$$
[H]C(=O)[C@@]([H])(N([H])C(=O)[C@@]([H])(N([H])C(=O)[C@@]([H])(N([H])[H])C([H])([H])c1c([H])c([H])c([H])c([H])c1[H])C([H])([H])C([H])(C([H])([H])[H])C([H])([H])[H])C([H])([H])c1c([H])c([H])c([H])c([H])c1[H]
     RDKit          3D

 61 62  0  0  0  0  0  0  0  0999 V2000
   -1.0202    4.2553   -1.3214 C   0  0  0  0  0  0  0  0  0  0  0  0
   -0.6323    3.9308    0.0816 C   0  0  0  0  0  0  0  0  0  0  0  0
    0.0196    5.2338    0.6171 C   0  0  0  0  0  0  0  0  0  0  0  0
    0.4553    2.8754    0.1779 C   0  0  0  0  0  0  0  0  0  0  0  0
    0.1223    1.6243   -0.4354 C   0  0  2  0  0  0  0  0  0  0  0  0
   -1.0122    0.8701    0.0501 N   0  0  0  0  0  0  0  0  0  0  0  0
   -1.7993    0.0284   -0.7613 C   0  0  0  0  0  0  0  0  0  0  0  0
   -1.5902   -0.1532   -1.9867 O   0  0  0  0  0  0  0  0  0  0  0  0
   -2.9406   -0.7084   -0.1488 C   0  0  1  0  0  0  0  0  0  0  0  0
   -3.3164   -0.1287    1.0832 N   0  0  0  0  0  0  0  0  0  0  0  0
   -3.9767   -0.8779   -1.1936 C   0  0  0  0  0  0  0  0  0  0  0  0
   -5.1448   -1.6017   -0.6361 C   0  0  0  0  0  0  0  0  0  0  0  0
   -6.1574   -0.8706   -0.0736 C   0  0  0  0  0  0  0  0  0  0  0  0
   -7.2413   -1.5715    0.4539 C   0  0  0  0  0  0  0  0  0  0  0  0
   -7.3330   -2.9369    0.4286 C   0  0  0  0  0  0  0  0  0  0  0  0
   -6.2943   -3.6379   -0.1457 C   0  0  0  0  0  0  0  0  0  0  0  0
   -5.2103   -2.9696   -0.6732 C   0  0  0  0  0  0  0  0  0  0  0  0
    1.2108    0.6276   -0.5974 C   0  0  0  0  0  0  0  0  0  0  0  0
    1.5029    0.3461   -1.8566 O   0  0  0  0  0  0  0  0  0  0  0  0
    1.9287   -0.0458    0.3682 N   0  0  0  0  0  0  0  0  0  0  0  0
    2.9696   -0.9661    0.4247 C   0  0  1  0  0  0  0  0  0  0  0  0
    4.2951   -0.2023    0.1588 C   0  0  0  0  0  0  0  0  0  0  0  0
    5.4083   -1.1769    0.1455 C   0  0  0  0  0  0  0  0  0  0  0  0
    6.1067   -1.5333    1.2663 C   0  0  0  0  0  0  0  0  0  0  0  0
    7.1384   -2.4310    1.2210 C   0  0  0  0  0  0  0  0  0  0  0  0
    7.5285   -3.0188    0.0393 C   0  0  0  0  0  0  0  0  0  0  0  0
    6.8435   -2.6750   -1.1007 C   0  0  0  0  0  0  0  0  0  0  0  0
    5.8052   -1.7761   -1.0578 C   0  0  0  0  0  0  0  0  0  0  0  0
    3.1594   -1.5898    1.7935 C   0  0  0  0  0  0  0  0  0  0  0  0
    2.9721   -0.7476    2.7318 O   0  0  0  0  0  0  0  0  0  0  0  0
   -1.5183    5.2744   -1.2899 H   0  0  0  0  0  0  0  0  0  0  0  0
   -1.7533    3.5906   -1.7580 H   0  0  0  0  0  0  0  0  0  0  0  0
   -0.1076    4.4415   -1.9304 H   0  0  0  0  0  0  0  0  0  0  0  0
   -1.5150    3.7520    0.6938 H   0  0  0  0  0  0  0  0  0  0  0  0
   -0.0156    5.2595    1.7100 H   0  0  0  0  0  0  0  0  0  0  0  0
    1.0672    5.2585    0.2587 H   0  0  0  0  0  0  0  0  0  0  0  0
   -0.4672    6.1239    0.1690 H   0  0  0  0  0  0  0  0  0  0  0  0
    1.3854    3.3174   -0.2667 H   0  0  0  0  0  0  0  0  0  0  0  0
    0.6882    2.7892    1.2575 H   0  0  0  0  0  0  0  0  0  0  0  0
   -0.1908    1.8652   -1.5488 H   0  0  0  0  0  0  0  0  0  0  0  0
   -1.2697    0.9684    1.0742 H   0  0  0  0  0  0  0  0  0  0  0  0
   -2.5593   -1.7712    0.0684 H   0  0  0  0  0  0  0  0  0  0  0  0
   -3.2957    0.9033    1.0858 H   0  0  0  0  0  0  0  0  0  0  0  0
   -4.1039   -0.5839    1.5460 H   0  0  0  0  0  0  0  0  0  0  0  0
   -4.3196    0.0522   -1.6822 H   0  0  0  0  0  0  0  0  0  0  0  0
   -3.5651   -1.5508   -2.0119 H   0  0  0  0  0  0  0  0  0  0  0  0
   -6.1326    0.2303   -0.0247 H   0  0  0  0  0  0  0  0  0  0  0  0
   -8.0200   -0.9555    0.8961 H   0  0  0  0  0  0  0  0  0  0  0  0
   -8.1651   -3.4782    0.8503 H   0  0  0  0  0  0  0  0  0  0  0  0
   -6.3098   -4.7393   -0.1902 H   0  0  0  0  0  0  0  0  0  0  0  0
   -4.4093   -3.5455   -1.1176 H   0  0  0  0  0  0  0  0  0  0  0  0
    1.5073    0.1980    1.3912 H   0  0  0  0  0  0  0  0  0  0  0  0
    2.9620   -1.7358   -0.3307 H   0  0  0  0  0  0  0  0  0  0  0  0
    4.4128    0.5401    0.9465 H   0  0  0  0  0  0  0  0  0  0  0  0
    4.2299    0.3244   -0.7944 H   0  0  0  0  0  0  0  0  0  0  0  0
    5.8111   -1.0679    2.2101 H   0  0  0  0  0  0  0  0  0  0  0  0
    7.6785   -2.6941    2.1318 H   0  0  0  0  0  0  0  0  0  0  0  0
    8.3644   -3.7428   -0.0053 H   0  0  0  0  0  0  0  0  0  0  0  0
    7.1579   -3.1427   -2.0325 H   0  0  0  0  0  0  0  0  0  0  0  0
    5.2533   -1.4931   -1.9437 H   0  0  0  0  0  0  0  0  0  0  0  0
    3.4020   -2.5610    2.0013 H   0  0  0  0  0  0  0  0  0  0  0  0
  1  2  1  0
  2  3  1  0
  2  4  1  0
  4  5  1  0
  5  6  1  0
  6  7  1  0
  7  8  2  0
  7  9  1  0
  9 10  1  0
  9 11  1  0
 11 12  1  0
 12 13  2  0
 13 14  1  0
 14 15  2  0
 15 16  1  0
 16 17  2  0
  5 18  1  0
 18 19  2  0
 18 20  1  0
 20 21  1  0
 21 22  1  0
 22 23  1  0
 23 24  2  0
 24 25  1  0
 25 26  2  0
 26 27  1  0
 27 28  2  0
 21 29  1  0
 29 30  2  0
 17 12  1  0
 28 23  1  0
  1 31  1  0
  1 32  1  0
  1 33  1  0
  2 34  1  0
  3 35  1  0
  3 36  1  0
  3 37  1  0
  4 38  1  0
  4 39  1  0
  5 40  1  6
  6 41  1  0
  9 42  1  1
 10 43  1  0
 10 44  1  0
 11 45  1  0
 11 46  1  0
 13 47  1  0
 14 48  1  0
 15 49  1  0
 16 50  1  0
 17 51  1  0
 20 52  1  0
 21 53  1  6
 22 54  1  0
 22 55  1  0
 24 56  1  0
 25 57  1  0
 26 58  1  0
 27 59  1  0
 28 60  1  0
 29 61  1  0
M  END
$$$$
[H]N=C(N([H])[H])N([H])C([H])([H])C([H])([H])C([H])([H])[C@]([H])(C(=O)N([H])[C@]([H])(C(=O)N1C([H])([H])C([H])([H])C([H])([H])[C@@]1([H])C(=O)N([H])[C@]([H])(C(=O)N([H])[H])C([H])([H])[H])C([H])([H])c1c([H])c([H])c([H])c([H])c1[H])N([H])C(=O)[C@@]([H])(N([H])C(=O)[C@@]([H])(N([H])C(=O)C([H])([H])[H])C([H])([H])c1c([H])c([H])c([H])c([H])c1[H])C([H])([H])c1c([H])c([H])c([H])c([H])c1[H]
     RDKit          3D

116119  0  0  0  0  0  0  0  0999 V2000
   -9.9096    3.9971   -1.4292 C   0  0  0  0  0  0  0  0  0  0  0  0
   -8.9974    3.2714   -0.4426 C   0  0  2  0  0  0  0  0  0  0  0  0
   -7.7955    2.8044   -1.1285 N   0  0  0  0  0  0  0  0  0  0  0  0
   -6.5305    3.3730   -0.9107 C   0  0  0  0  0  0  0  0  0  0  0  0
   -6.4770    4.3592   -0.0661 O   0  0  0  0  0  0  0  0  0  0  0  0
   -5.2875    2.9738   -1.5336 C   0  0  2  0  0  0  0  0  0  0  0  0
   -5.4503    3.1852   -3.0420 C   0  0  0  0  0  0  0  0  0  0  0  0
   -5.7303    1.8248   -3.6142 C   0  0  0  0  0  0  0  0  0  0  0  0
   -5.5284    0.8440   -2.4939 C   0  0  0  0  0  0  0  0  0  0  0  0
   -4.8794    1.6110   -1.4662 N   0  0  0  0  0  0  0  0  0  0  0  0
   -3.9125    1.0518   -0.5322 C   0  0  0  0  0  0  0  0  0  0  0  0
   -3.3876    1.8462    0.2710 O   0  0  0  0  0  0  0  0  0  0  0  0
   -3.5453   -0.3711   -0.5130 C   0  0  2  0  0  0  0  0  0  0  0  0
   -4.6761   -1.2935   -0.1109 C   0  0  0  0  0  0  0  0  0  0  0  0
   -5.2066   -1.0273    1.2432 C   0  0  0  0  0  0  0  0  0  0  0  0
   -6.2316   -0.1445    1.4868 C   0  0  0  0  0  0  0  0  0  0  0  0
   -6.7414    0.1051    2.7420 C   0  0  0  0  0  0  0  0  0  0  0  0
   -6.2157   -0.5472    3.8118 C   0  0  0  0  0  0  0  0  0  0  0  0
   -5.1863   -1.4419    3.6176 C   0  0  0  0  0  0  0  0  0  0  0  0
   -4.6884   -1.6783    2.3494 C   0  0  0  0  0  0  0  0  0  0  0  0
   -2.3857   -0.5895    0.3656 N   0  0  0  0  0  0  0  0  0  0  0  0
   -1.1240   -0.9238   -0.1206 C   0  0  0  0  0  0  0  0  0  0  0  0
   -1.0205   -1.0289   -1.3928 O   0  0  0  0  0  0  0  0  0  0  0  0
    0.1059   -1.1708    0.6391 C   0  0  1  0  0  0  0  0  0  0  0  0
   -0.0239   -1.9581    1.8780 C   0  0  0  0  0  0  0  0  0  0  0  0
   -0.5640   -3.3173    1.8688 C   0  0  0  0  0  0  0  0  0  0  0  0
    0.2504   -4.2621    1.0354 C   0  0  0  0  0  0  0  0  0  0  0  0
   -0.3314   -5.6117    1.1063 N   0  0  0  0  0  0  0  0  0  0  0  0
   -0.2378   -6.2514    2.3678 C   0  0  0  0  0  0  0  0  0  0  0  0
    1.0341   -6.3891    2.9798 N   0  0  0  0  0  0  0  0  0  0  0  0
   -1.2720   -6.7045    2.9629 N   0  0  0  0  0  0  0  0  0  0  0  0
    1.2491   -1.4162   -0.2024 N   0  0  0  0  0  0  0  0  0  0  0  0
    2.4991   -0.8113   -0.0531 C   0  0  0  0  0  0  0  0  0  0  0  0
    2.6912   -0.0033    0.8857 O   0  0  0  0  0  0  0  0  0  0  0  0
    3.6194   -1.0842   -0.9717 C   0  0  2  0  0  0  0  0  0  0  0  0
    3.7787   -2.5157   -1.2986 C   0  0  0  0  0  0  0  0  0  0  0  0
    4.8933   -2.7887   -2.2101 C   0  0  0  0  0  0  0  0  0  0  0  0
    4.7754   -2.7872   -3.5776 C   0  0  0  0  0  0  0  0  0  0  0  0
    5.8286   -3.0457   -4.4201 C   0  0  0  0  0  0  0  0  0  0  0  0
    7.0694   -3.3227   -3.9082 C   0  0  0  0  0  0  0  0  0  0  0  0
    7.2226   -3.3332   -2.5361 C   0  0  0  0  0  0  0  0  0  0  0  0
    6.1414   -3.0678   -1.7010 C   0  0  0  0  0  0  0  0  0  0  0  0
    4.8344   -0.4065   -0.5478 N   0  0  0  0  0  0  0  0  0  0  0  0
    5.1357    0.9264   -0.9403 C   0  0  0  0  0  0  0  0  0  0  0  0
    4.3054    1.5208   -1.6729 O   0  0  0  0  0  0  0  0  0  0  0  0
    6.3548    1.6397   -0.5341 C   0  0  2  0  0  0  0  0  0  0  0  0
    7.1045    0.9431    0.5751 C   0  0  0  0  0  0  0  0  0  0  0  0
    8.3075    1.6793    0.9807 C   0  0  0  0  0  0  0  0  0  0  0  0
    9.5106    1.4699    0.3823 C   0  0  0  0  0  0  0  0  0  0  0  0
   10.6421    2.1551    0.7694 C   0  0  0  0  0  0  0  0  0  0  0  0
   10.5781    3.0838    1.7888 C   0  0  0  0  0  0  0  0  0  0  0  0
    9.3483    3.2757    2.3770 C   0  0  0  0  0  0  0  0  0  0  0  0
    8.2213    2.6066    2.0058 C   0  0  0  0  0  0  0  0  0  0  0  0
    6.1772    3.0378   -0.2839 N   0  0  0  0  0  0  0  0  0  0  0  0
    6.7295    4.0826   -1.0697 C   0  0  0  0  0  0  0  0  0  0  0  0
    6.4931    5.5086   -0.7336 C   0  0  0  0  0  0  0  0  0  0  0  0
    7.4318    3.8046   -2.0685 O   0  0  0  0  0  0  0  0  0  0  0  0
   -9.7557    2.1702    0.1553 C   0  0  0  0  0  0  0  0  0  0  0  0
  -10.9339    2.4586    0.8915 N   0  0  0  0  0  0  0  0  0  0  0  0
   -9.4159    0.9531    0.0526 O   0  0  0  0  0  0  0  0  0  0  0  0
   -9.6570    3.6424   -2.4544 H   0  0  0  0  0  0  0  0  0  0  0  0
   -9.7322    5.0806   -1.3050 H   0  0  0  0  0  0  0  0  0  0  0  0
  -10.9441    3.7786   -1.1405 H   0  0  0  0  0  0  0  0  0  0  0  0
   -8.7085    3.9925    0.3349 H   0  0  0  0  0  0  0  0  0  0  0  0
   -7.9225    2.0336   -1.8024 H   0  0  0  0  0  0  0  0  0  0  0  0
   -4.4683    3.6661   -1.1633 H   0  0  0  0  0  0  0  0  0  0  0  0
   -6.3230    3.8372   -3.2469 H   0  0  0  0  0  0  0  0  0  0  0  0
   -4.5104    3.5915   -3.4678 H   0  0  0  0  0  0  0  0  0  0  0  0
   -5.0654    1.6040   -4.4822 H   0  0  0  0  0  0  0  0  0  0  0  0
   -6.7997    1.7608   -3.9715 H   0  0  0  0  0  0  0  0  0  0  0  0
   -4.8293    0.0080   -2.8327 H   0  0  0  0  0  0  0  0  0  0  0  0
   -6.4801    0.3886   -2.2322 H   0  0  0  0  0  0  0  0  0  0  0  0
   -3.2110   -0.6307   -1.5328 H   0  0  0  0  0  0  0  0  0  0  0  0
   -4.3265   -2.3709   -0.1598 H   0  0  0  0  0  0  0  0  0  0  0  0
   -5.5053   -1.2582   -0.8405 H   0  0  0  0  0  0  0  0  0  0  0  0
   -6.6581    0.3779    0.6446 H   0  0  0  0  0  0  0  0  0  0  0  0
   -7.5460    0.8096    2.8615 H   0  0  0  0  0  0  0  0  0  0  0  0
   -6.6145   -0.3552    4.8109 H   0  0  0  0  0  0  0  0  0  0  0  0
   -4.7884   -1.9436    4.4840 H   0  0  0  0  0  0  0  0  0  0  0  0
   -3.8770   -2.3904    2.2424 H   0  0  0  0  0  0  0  0  0  0  0  0
   -2.5429   -0.4771    1.3755 H   0  0  0  0  0  0  0  0  0  0  0  0
    0.3554   -0.1066    1.0609 H   0  0  0  0  0  0  0  0  0  0  0  0
   -0.7047   -1.3477    2.5683 H   0  0  0  0  0  0  0  0  0  0  0  0
    0.9598   -1.8822    2.4167 H   0  0  0  0  0  0  0  0  0  0  0  0
   -0.5595   -3.7677    2.9143 H   0  0  0  0  0  0  0  0  0  0  0  0
   -1.6307   -3.4005    1.5651 H   0  0  0  0  0  0  0  0  0  0  0  0
    1.3089   -4.3001    1.3480 H   0  0  0  0  0  0  0  0  0  0  0  0
    0.2560   -3.9405   -0.0479 H   0  0  0  0  0  0  0  0  0  0  0  0
   -0.7653   -6.0226    0.2684 H   0  0  0  0  0  0  0  0  0  0  0  0
    1.1541   -6.5023    4.0164 H   0  0  0  0  0  0  0  0  0  0  0  0
    1.9246   -6.3853    2.4202 H   0  0  0  0  0  0  0  0  0  0  0  0
   -1.2476   -7.1796    3.8871 H   0  0  0  0  0  0  0  0  0  0  0  0
    1.1459   -2.0789   -0.9983 H   0  0  0  0  0  0  0  0  0  0  0  0
    3.3272   -0.5093   -1.9216 H   0  0  0  0  0  0  0  0  0  0  0  0
    3.7872   -3.1401   -0.3834 H   0  0  0  0  0  0  0  0  0  0  0  0
    2.8453   -2.8224   -1.8601 H   0  0  0  0  0  0  0  0  0  0  0  0
    3.7922   -2.5687   -4.0235 H   0  0  0  0  0  0  0  0  0  0  0  0
    5.6823   -3.0311   -5.4843 H   0  0  0  0  0  0  0  0  0  0  0  0
    7.9328   -3.5332   -4.5517 H   0  0  0  0  0  0  0  0  0  0  0  0
    8.2166   -3.5561   -2.1506 H   0  0  0  0  0  0  0  0  0  0  0  0
    6.2745   -3.0804   -0.6156 H   0  0  0  0  0  0  0  0  0  0  0  0
    5.5099   -0.9122    0.0691 H   0  0  0  0  0  0  0  0  0  0  0  0
    7.0739    1.5990   -1.4243 H   0  0  0  0  0  0  0  0  0  0  0  0
    6.3825    0.8656    1.4391 H   0  0  0  0  0  0  0  0  0  0  0  0
    7.3423   -0.1049    0.2790 H   0  0  0  0  0  0  0  0  0  0  0  0
    9.5874    0.7368   -0.4313 H   0  0  0  0  0  0  0  0  0  0  0  0
   11.5893    1.9929    0.3036 H   0  0  0  0  0  0  0  0  0  0  0  0
   11.4444    3.6471    2.1264 H   0  0  0  0  0  0  0  0  0  0  0  0
    9.2975    4.0062    3.1812 H   0  0  0  0  0  0  0  0  0  0  0  0
    7.2871    2.8128    2.5165 H   0  0  0  0  0  0  0  0  0  0  0  0
    5.5985    3.3101    0.5429 H   0  0  0  0  0  0  0  0  0  0  0  0
    6.1374    5.5561    0.3269 H   0  0  0  0  0  0  0  0  0  0  0  0
    5.6938    5.9557   -1.3490 H   0  0  0  0  0  0  0  0  0  0  0  0
    7.4103    6.1219   -0.7691 H   0  0  0  0  0  0  0  0  0  0  0  0
  -10.9267    3.1826    1.6348 H   0  0  0  0  0  0  0  0  0  0  0  0
  -11.8635    1.9711    0.7350 H   0  0  0  0  0  0  0  0  0  0  0  0
  1  2  1  0
  2  3  1  0
  3  4  1  0
  4  5  2  0
  4  6  1  0
  6  7  1  0
  7  8  1  0
  8  9  1  0
  9 10  1  0
 10 11  1  0
 11 12  2  0
 11 13  1  0
 13 14  1  0
 14 15  1  0
 15 16  2  0
 16 17  1  0
 17 18  2  0
 18 19  1  0
 19 20  2  0
 13 21  1  0
 21 22  1  0
 22 23  2  0
 22 24  1  0
 24 25  1  0
 25 26  1  0
 26 27  1  0
 27 28  1  0
 28 29  1  0
 29 30  1  0
 29 31  2  3
 24 32  1  0
 32 33  1  0
 33 34  2  0
 33 35  1  0
 35 36  1  0
 36 37  1  0
 37 38  2  0
 38 39  1  0
 39 40  2  0
 40 41  1  0
 41 42  2  0
 35 43  1  0
 43 44  1  0
 44 45  2  0
 44 46  1  0
 46 47  1  0
 47 48  1  0
 48 49  2  0
 49 50  1  0
 50 51  2  0
 51 52  1  0
 52 53  2  0
 46 54  1  0
 54 55  1  0
 55 56  1  0
 55 57  2  0
  2 58  1  0
 58 59  1  0
 58 60  2  0
 10  6  1  0
 20 15  1  0
 42 37  1  0
 53 48  1  0
  1 61  1  0
  1 62  1  0
  1 63  1  0
  2 64  1  1
  3 65  1  0
  6 66  1  1
  7 67  1  0
  7 68  1  0
  8 69  1  0
  8 70  1  0
  9 71  1  0
  9 72  1  0
 13 73  1  6
 14 74  1  0
 14 75  1  0
 16 76  1  0
 17 77  1  0
 18 78  1  0
 19 79  1  0
 20 80  1  0
 21 81  1  0
 24 82  1  1
 25 83  1  0
 25 84  1  0
 26 85  1  0
 26 86  1  0
 27 87  1  0
 27 88  1  0
 28 89  1  0
 30 90  1  0
 30 91  1  0
 31 92  1  0
 32 93  1  0
 35 94  1  6
 36 95  1  0
 36 96  1  0
 38 97  1  0
 39 98  1  0
 40 99  1  0
 41100  1  0
 42101  1  0
 43102  1  0
 46103  1  6
 47104  1  0
 47105  1  0
 49106  1  0
 50107  1  0
 51108  1  0
 52109  1  0
 53110  1  0
 54111  1  0
 56112  1  0
 56113  1  0
 56114  1  0
 59115  1  0
 59116  1  0
M  END
$$$$
[H]OC(=O)[C@@]([H])(N([H])C(=O)[C@@]([H])(N([H])C(=O)[C@@]([H])(N([H])C(=O)[C@@]([H])(N([H])C(=O)[C@@]([H])(N([H])[H])C([H])([H])c1c([H])c([H])c([H])c([H])c1[H])C([H])([H])C([H])(C([H])([H])[H])C([H])([H])[H])C([H])([H])c1c([H])c([H])c([H])c([H])c1[H])C([H])([H])c1c([H])c([H])c([H])c([H])c1[H])C([H])([H])C([H])(C([H])([H])[H])C([H])([H])[H]
     RDKit          3D

101103  0  0  0  0  0  0  0  0999 V2000
   -9.2165    0.3734   -0.9783 C   0  0  0  0  0  0  0  0  0  0  0  0
   -7.8846    0.5231   -1.6553 C   0  0  0  0  0  0  0  0  0  0  0  0
   -7.7638    1.9083   -2.2926 C   0  0  0  0  0  0  0  0  0  0  0  0
   -6.6812    0.0858   -0.9589 C   0  0  0  0  0  0  0  0  0  0  0  0
   -6.2202    0.6535    0.3179 C   0  0  2  0  0  0  0  0  0  0  0  0
   -4.9411   -0.0957    0.6081 N   0  0  0  0  0  0  0  0  0  0  0  0
   -3.7204    0.4500    0.1943 C   0  0  0  0  0  0  0  0  0  0  0  0
   -3.7271    1.5582   -0.4244 O   0  0  0  0  0  0  0  0  0  0  0  0
   -2.4215   -0.1752    0.4266 C   0  0  2  0  0  0  0  0  0  0  0  0
   -1.6927    0.5011    1.6053 C   0  0  0  0  0  0  0  0  0  0  0  0
   -2.4448    0.3987    2.8687 C   0  0  0  0  0  0  0  0  0  0  0  0
   -3.3378    1.3901    3.2295 C   0  0  0  0  0  0  0  0  0  0  0  0
   -4.0486    1.3280    4.4242 C   0  0  0  0  0  0  0  0  0  0  0  0
   -3.8419    0.2587    5.2358 C   0  0  0  0  0  0  0  0  0  0  0  0
   -2.9568   -0.7391    4.8936 C   0  0  0  0  0  0  0  0  0  0  0  0
   -2.2529   -0.6845    3.7175 C   0  0  0  0  0  0  0  0  0  0  0  0
   -1.5373    0.0072   -0.7289 N   0  0  0  0  0  0  0  0  0  0  0  0
   -0.5415   -0.8750   -1.1558 C   0  0  0  0  0  0  0  0  0  0  0  0
   -0.2571   -1.9364   -0.6133 O   0  0  0  0  0  0  0  0  0  0  0  0
    0.2447   -0.4640   -2.3989 C   0  0  2  0  0  0  0  0  0  0  0  0
   -0.4822   -1.0691   -3.5306 C   0  0  0  0  0  0  0  0  0  0  0  0
    0.0168   -0.8368   -4.8788 C   0  0  0  0  0  0  0  0  0  0  0  0
   -0.4440    0.2633   -5.6115 C   0  0  0  0  0  0  0  0  0  0  0  0
    0.0547    0.4181   -6.8832 C   0  0  0  0  0  0  0  0  0  0  0  0
    0.9602   -0.4334   -7.4532 C   0  0  0  0  0  0  0  0  0  0  0  0
    1.4233   -1.5244   -6.7378 C   0  0  0  0  0  0  0  0  0  0  0  0
    0.9248   -1.6954   -5.4446 C   0  0  0  0  0  0  0  0  0  0  0  0
    1.6223   -0.8745   -2.2663 N   0  0  0  0  0  0  0  0  0  0  0  0
    2.4043   -0.4968   -1.1265 C   0  0  0  0  0  0  0  0  0  0  0  0
    1.7766    0.1460   -0.2420 O   0  0  0  0  0  0  0  0  0  0  0  0
    3.8097   -0.7966   -0.9706 C   0  0  2  0  0  0  0  0  0  0  0  0
    4.4445   -2.0272   -1.4004 C   0  0  0  0  0  0  0  0  0  0  0  0
    4.1272   -3.3588   -0.8792 C   0  0  0  0  0  0  0  0  0  0  0  0
    2.7276   -3.8385   -1.0668 C   0  0  0  0  0  0  0  0  0  0  0  0
    5.0064   -4.3628   -1.6747 C   0  0  0  0  0  0  0  0  0  0  0  0
    4.2319   -0.3959    0.3832 N   0  0  0  0  0  0  0  0  0  0  0  0
    4.7262    0.9027    0.6484 C   0  0  0  0  0  0  0  0  0  0  0  0
    4.8036    1.7290   -0.2855 O   0  0  0  0  0  0  0  0  0  0  0  0
    5.1563    1.3308    2.0018 C   0  0  1  0  0  0  0  0  0  0  0  0
    5.3954    0.2251    2.8907 N   0  0  0  0  0  0  0  0  0  0  0  0
    6.3566    2.2428    2.0036 C   0  0  0  0  0  0  0  0  0  0  0  0
    6.6569    2.5712    3.4127 C   0  0  0  0  0  0  0  0  0  0  0  0
    7.5693    1.8402    4.1598 C   0  0  0  0  0  0  0  0  0  0  0  0
    7.8166    2.1516    5.4791 C   0  0  0  0  0  0  0  0  0  0  0  0
    7.1525    3.2011    6.0694 C   0  0  0  0  0  0  0  0  0  0  0  0
    6.2491    3.9362    5.3526 C   0  0  0  0  0  0  0  0  0  0  0  0
    6.0168    3.6083    4.0342 C   0  0  0  0  0  0  0  0  0  0  0  0
   -7.0201    0.5439    1.5092 C   0  0  0  0  0  0  0  0  0  0  0  0
   -8.1862    1.2160    1.7877 O   0  0  0  0  0  0  0  0  0  0  0  0
   -6.6412   -0.2531    2.4412 O   0  0  0  0  0  0  0  0  0  0  0  0
   -9.6129    1.3485   -0.6157 H   0  0  0  0  0  0  0  0  0  0  0  0
   -9.2248   -0.4459   -0.2639 H   0  0  0  0  0  0  0  0  0  0  0  0
  -10.0168    0.0707   -1.7440 H   0  0  0  0  0  0  0  0  0  0  0  0
   -7.9661   -0.1565   -2.5739 H   0  0  0  0  0  0  0  0  0  0  0  0
   -8.3943    1.9391   -3.2321 H   0  0  0  0  0  0  0  0  0  0  0  0
   -8.2674    2.6092   -1.5933 H   0  0  0  0  0  0  0  0  0  0  0  0
   -6.7575    2.1762   -2.5922 H   0  0  0  0  0  0  0  0  0  0  0  0
   -5.8319    0.1046   -1.7214 H   0  0  0  0  0  0  0  0  0  0  0  0
   -6.8011   -1.0505   -0.8240 H   0  0  0  0  0  0  0  0  0  0  0  0
   -5.8375    1.6931    0.0789 H   0  0  0  0  0  0  0  0  0  0  0  0
   -4.9623   -1.0010    1.1061 H   0  0  0  0  0  0  0  0  0  0  0  0
   -2.4122   -1.2372    0.6830 H   0  0  0  0  0  0  0  0  0  0  0  0
   -0.6638    0.1606    1.6341 H   0  0  0  0  0  0  0  0  0  0  0  0
   -1.6751    1.5878    1.2978 H   0  0  0  0  0  0  0  0  0  0  0  0
   -3.5157    2.2446    2.6063 H   0  0  0  0  0  0  0  0  0  0  0  0
   -4.7525    2.0912    4.7332 H   0  0  0  0  0  0  0  0  0  0  0  0
   -4.3852    0.2002    6.1709 H   0  0  0  0  0  0  0  0  0  0  0  0
   -2.8313   -1.5664    5.5741 H   0  0  0  0  0  0  0  0  0  0  0  0
   -1.5573   -1.4450    3.4096 H   0  0  0  0  0  0  0  0  0  0  0  0
   -1.6906    0.9097   -1.2594 H   0  0  0  0  0  0  0  0  0  0  0  0
    0.2505    0.6473   -2.3152 H   0  0  0  0  0  0  0  0  0  0  0  0
   -0.4649   -2.1948   -3.3664 H   0  0  0  0  0  0  0  0  0  0  0  0
   -1.5704   -0.8007   -3.4968 H   0  0  0  0  0  0  0  0  0  0  0  0
   -1.1664    0.9443   -5.1582 H   0  0  0  0  0  0  0  0  0  0  0  0
   -0.2955    1.2686   -7.4728 H   0  0  0  0  0  0  0  0  0  0  0  0
    1.3584   -0.3120   -8.4657 H   0  0  0  0  0  0  0  0  0  0  0  0
    2.1383   -2.2333   -7.1278 H   0  0  0  0  0  0  0  0  0  0  0  0
    1.3204   -2.5839   -4.9231 H   0  0  0  0  0  0  0  0  0  0  0  0
    2.0813   -1.4446   -2.9908 H   0  0  0  0  0  0  0  0  0  0  0  0
    4.3211    0.0411   -1.6149 H   0  0  0  0  0  0  0  0  0  0  0  0
    4.3789   -2.0648   -2.5501 H   0  0  0  0  0  0  0  0  0  0  0  0
    5.5871   -1.8408   -1.2887 H   0  0  0  0  0  0  0  0  0  0  0  0
    4.3817   -3.4857    0.2111 H   0  0  0  0  0  0  0  0  0  0  0  0
    2.7011   -4.9717   -0.8878 H   0  0  0  0  0  0  0  0  0  0  0  0
    2.0765   -3.4469   -0.2717 H   0  0  0  0  0  0  0  0  0  0  0  0
    2.3438   -3.7330   -2.0994 H   0  0  0  0  0  0  0  0  0  0  0  0
    5.5971   -4.9481   -0.9594 H   0  0  0  0  0  0  0  0  0  0  0  0
    5.6801   -3.7831   -2.3691 H   0  0  0  0  0  0  0  0  0  0  0  0
    4.3723   -4.9724   -2.3464 H   0  0  0  0  0  0  0  0  0  0  0  0
    4.1695   -1.0756    1.1668 H   0  0  0  0  0  0  0  0  0  0  0  0
    4.2915    1.9506    2.3830 H   0  0  0  0  0  0  0  0  0  0  0  0
    4.5590   -0.3489    3.1099 H   0  0  0  0  0  0  0  0  0  0  0  0
    6.1985   -0.3572    2.5465 H   0  0  0  0  0  0  0  0  0  0  0  0
    7.2610    1.7010    1.6182 H   0  0  0  0  0  0  0  0  0  0  0  0
    6.1724    3.1585    1.4079 H   0  0  0  0  0  0  0  0  0  0  0  0
    8.0984    1.0167    3.6957 H   0  0  0  0  0  0  0  0  0  0  0  0
    8.5216    1.5988    6.0798 H   0  0  0  0  0  0  0  0  0  0  0  0
    7.3476    3.4494    7.1219 H   0  0  0  0  0  0  0  0  0  0  0  0
    5.7301    4.7504    5.8117 H   0  0  0  0  0  0  0  0  0  0  0  0
    5.3098    4.1760    3.4540 H   0  0  0  0  0  0  0  0  0  0  0  0
   -9.0072    0.8326    2.1868 H   0  0  0  0  0  0  0  0  0  0  0  0
  1  2  1  0
  2  3  1  0
  2  4  1  0
  4  5  1  0
  5  6  1  0
  6  7  1  0
  7  8  2  0
  7  9  1  0
  9 10  1  0
 10 11  1  0
 11 12  2  0
 12 13  1  0
 13 14  2  0
 14 15  1  0
 15 16  2  0
  9 17  1  0
 17 18  1  0
 18 19  2  0
 18 20  1  0
 20 21  1  0
 21 22  1  0
 22 23  2  0
 23 24  1  0
 24 25  2  0
 25 26  1  0
 26 27  2  0
 20 28  1  0
 28 29  1  0
 29 30  2  0
 29 31  1  0
 31 32  1  0
 32 33  1  0
 33 34  1  0
 33 35  1  0
 31 36  1  0
 36 37  1  0
 37 38  2  0
 37 39  1  0
 39 40  1  0
 39 41  1  0
 41 42  1  0
 42 43  2  0
 43 44  1  0
 44 45  2  0
 45 46  1  0
 46 47  2  0
  5 48  1  0
 48 49  1  0
 48 50  2  0
 16 11  1  0
 27 22  1  0
 47 42  1  0
  1 51  1  0
  1 52  1  0
  1 53  1  0
  2 54  1  0
  3 55  1  0
  3 56  1  0
  3 57  1  0
  4 58  1  0
  4 59  1  0
  5 60  1  6
  6 61  1  0
  9 62  1  1
 10 63  1  0
 10 64  1  0
 12 65  1  0
 13 66  1  0
 14 67  1  0
 15 68  1  0
 16 69  1  0
 17 70  1  0
 20 71  1  6
 21 72  1  0
 21 73  1  0
 23 74  1  0
 24 75  1  0
 25 76  1  0
 26 77  1  0
 27 78  1  0
 28 79  1  0
 31 80  1  6
 32 81  1  0
 32 82  1  0
 33 83  1  0
 34 84  1  0
 34 85  1  0
 34 86  1  0
 35 87  1  0
 35 88  1  0
 35 89  1  0
 36 90  1  0
 39 91  1  1
 40 92  1  0
 40 93  1  0
 41 94  1  0
 41 95  1  0
 43 96  1  0
 44 97  1  0
 45 98  1  0
 46 99  1  0
 47100  1  0
 49101  1  0
M  END
$$$$
[H]c1nc(N([H])c2c([H])c([H])c(N3C([H])([H])C([H])([H])C(F)(F)C3([H])[H])c([H])c2OC([H])([H])[H])nc(N([H])c2c([H])c([H])c([H])c([H])c2C(=O)N([H])[H])c1Cl
     RDKit          3D

 54 57  0  0  0  0  0  0  0  0999 V2000
   -1.8796    2.6155    2.6662 C   0  0  0  0  0  0  0  0  0  0  0  0
   -1.2078    1.7616    1.7574 O   0  0  0  0  0  0  0  0  0  0  0  0
   -1.9872    1.1312    0.7872 C   0  0  0  0  0  0  0  0  0  0  0  0
   -3.3292    1.3039    0.6880 C   0  0  0  0  0  0  0  0  0  0  0  0
   -4.1203    0.6968   -0.2557 C   0  0  0  0  0  0  0  0  0  0  0  0
   -3.4774   -0.1323   -1.1403 C   0  0  0  0  0  0  0  0  0  0  0  0
   -2.0986   -0.3396   -1.0757 C   0  0  0  0  0  0  0  0  0  0  0  0
   -1.3214    0.2732   -0.1281 C   0  0  0  0  0  0  0  0  0  0  0  0
    0.0575    0.1150   -0.0020 N   0  0  0  0  0  0  0  0  0  0  0  0
    0.9063   -0.6815   -0.7978 C   0  0  0  0  0  0  0  0  0  0  0  0
    0.5505   -1.4436   -1.8337 N   0  0  0  0  0  0  0  0  0  0  0  0
    1.3906   -2.1735   -2.5480 C   0  0  0  0  0  0  0  0  0  0  0  0
    2.7218   -2.1564   -2.2134 C   0  0  0  0  0  0  0  0  0  0  0  0
    3.8226   -3.1089   -3.1448 Cl  0  0  0  0  0  0  0  0  0  0  0  0
    3.1852   -1.3782   -1.1322 C   0  0  0  0  0  0  0  0  0  0  0  0
    4.5683   -1.4314   -0.8269 N   0  0  0  0  0  0  0  0  0  0  0  0
    5.2700   -0.7240    0.1832 C   0  0  0  0  0  0  0  0  0  0  0  0
    4.7335    0.4425    0.6828 C   0  0  0  0  0  0  0  0  0  0  0  0
    5.4378    1.2007    1.5905 C   0  0  0  0  0  0  0  0  0  0  0  0
    6.6764    0.8086    2.0075 C   0  0  0  0  0  0  0  0  0  0  0  0
    7.2059   -0.3512    1.5094 C   0  0  0  0  0  0  0  0  0  0  0  0
    6.5165   -1.1499    0.5846 C   0  0  0  0  0  0  0  0  0  0  0  0
    7.1467   -2.4167    0.1724 C   0  0  0  0  0  0  0  0  0  0  0  0
    8.4896   -2.6692    0.6574 N   0  0  0  0  0  0  0  0  0  0  0  0
    6.6184   -3.2663   -0.5477 O   0  0  0  0  0  0  0  0  0  0  0  0
    2.2481   -0.7004   -0.5058 N   0  0  0  0  0  0  0  0  0  0  0  0
   -5.5085    0.8965   -0.3311 N   0  0  0  0  0  0  0  0  0  0  0  0
   -6.3041    1.7241    0.5380 C   0  0  0  0  0  0  0  0  0  0  0  0
   -7.5428    0.8418    0.7487 C   0  0  0  0  0  0  0  0  0  0  0  0
   -7.7900    0.3944   -0.6980 C   0  0  0  0  0  0  0  0  0  0  0  0
   -8.5514    1.3887   -1.2827 F   0  0  0  0  0  0  0  0  0  0  0  0
   -8.4864   -0.7731   -0.7630 F   0  0  0  0  0  0  0  0  0  0  0  0
   -6.4057    0.3106   -1.2968 C   0  0  0  0  0  0  0  0  0  0  0  0
   -1.1640    3.0967    3.3569 H   0  0  0  0  0  0  0  0  0  0  0  0
   -2.6710    2.0428    3.1908 H   0  0  0  0  0  0  0  0  0  0  0  0
   -2.3878    3.4264    2.1076 H   0  0  0  0  0  0  0  0  0  0  0  0
   -3.7997    1.9651    1.4027 H   0  0  0  0  0  0  0  0  0  0  0  0
   -4.0716   -0.6407   -1.9147 H   0  0  0  0  0  0  0  0  0  0  0  0
   -1.7149   -1.0067   -1.8189 H   0  0  0  0  0  0  0  0  0  0  0  0
    0.5436    0.6568    0.7890 H   0  0  0  0  0  0  0  0  0  0  0  0
    1.0688   -2.7955   -3.4009 H   0  0  0  0  0  0  0  0  0  0  0  0
    5.1720   -2.0454   -1.4615 H   0  0  0  0  0  0  0  0  0  0  0  0
    3.7491    0.8389    0.3853 H   0  0  0  0  0  0  0  0  0  0  0  0
    4.9986    2.1272    1.9810 H   0  0  0  0  0  0  0  0  0  0  0  0
    7.2243    1.3971    2.7114 H   0  0  0  0  0  0  0  0  0  0  0  0
    8.2044   -0.6893    1.8299 H   0  0  0  0  0  0  0  0  0  0  0  0
    9.2867   -2.1405    0.2818 H   0  0  0  0  0  0  0  0  0  0  0  0
    8.6241   -3.3857    1.3817 H   0  0  0  0  0  0  0  0  0  0  0  0
   -6.6050    2.6148   -0.0559 H   0  0  0  0  0  0  0  0  0  0  0  0
   -5.8262    1.9735    1.4840 H   0  0  0  0  0  0  0  0  0  0  0  0
   -8.3818    1.4255    1.1360 H   0  0  0  0  0  0  0  0  0  0  0  0
   -7.2428   -0.0180    1.3508 H   0  0  0  0  0  0  0  0  0  0  0  0
   -6.4180    0.8949   -2.2409 H   0  0  0  0  0  0  0  0  0  0  0  0
   -6.1239   -0.7467   -1.5302 H   0  0  0  0  0  0  0  0  0  0  0  0
  1  2  1  0
  2  3  1  0
  3  4  2  0
  4  5  1  0
  5  6  2  0
  6  7  1  0
  7  8  2  0
  8  9  1  0
  9 10  1  0
 10 11  2  0
 11 12  1  0
 12 13  2  0
 13 14  1  0
 13 15  1  0
 15 16  1  0
 16 17  1  0
 17 18  2  0
 18 19  1  0
 19 20  2  0
 20 21  1  0
 21 22  2  0
 22 23  1  0
 23 24  1  0
 23 25  2  0
 15 26  2  0
  5 27  1  0
 27 28  1  0
 28 29  1  0
 29 30  1  0
 30 31  1  0
 30 32  1  0
 30 33  1  0
  8  3  1  0
 26 10  1  0
 33 27  1  0
 22 17  1  0
  1 34  1  0
  1 35  1  0
  1 36  1  0
  4 37  1  0
  6 38  1  0
  7 39  1  0
  9 40  1  0
 12 41  1  0
 16 42  1  0
 18 43  1  0
 19 44  1  0
 20 45  1  0
 21 46  1  0
 24 47  1  0
 24 48  1  0
 28 49  1  0
 28 50  1  0
 29 51  1  0
 29 52  1  0
 33 53  1  0
 33 54  1  0
M  END
$$$$
[H]C1=C2C([H])([H])C([H])([H])[C@@]3([H])[C@]4([H])C([H])([H])C([H])([H])[C@]([H])(OC(=O)c5c([H])c([H])c(C#N)c([H])c5[H])[C@@]4(C([H])([H])[H])C([H])([H])C([H])([H])[C@]3([H])[C@@]2(C([H])([H])[H])C([H])([H])C([H])([H])C1=O
     RDKit          3D

 62 66  0  0  0  0  0  0  0  0999 V2000
    0.5908   -0.5267    1.4126 C   0  0  0  0  0  0  0  0  0  0  0  0
    0.5463   -0.4963   -0.0745 C   0  0  2  0  0  0  0  0  0  0  0  0
    0.2826    0.8457   -0.6710 C   0  0  0  0  0  0  0  0  0  0  0  0
   -1.1333    1.2857   -0.6584 C   0  0  0  0  0  0  0  0  0  0  0  0
   -2.1731    0.2489   -0.6466 C   0  0  1  0  0  0  0  0  0  0  0  0
   -1.7936   -1.0502   -0.0036 C   0  0  1  0  0  0  0  0  0  0  0  0
   -2.8025   -2.1209   -0.0888 C   0  0  0  0  0  0  0  0  0  0  0  0
   -4.2216   -1.7305   -0.2386 C   0  0  0  0  0  0  0  0  0  0  0  0
   -4.4920   -0.2964   -0.3340 C   0  0  0  0  0  0  0  0  0  0  0  0
   -5.7155    0.0634   -0.7541 C   0  0  0  0  0  0  0  0  0  0  0  0
   -6.0785    1.4623   -0.8811 C   0  0  0  0  0  0  0  0  0  0  0  0
   -7.0586    1.8617   -1.5474 O   0  0  0  0  0  0  0  0  0  0  0  0
   -5.2420    2.4657   -0.1836 C   0  0  0  0  0  0  0  0  0  0  0  0
   -3.7978    2.0960   -0.4443 C   0  0  0  0  0  0  0  0  0  0  0  0
   -3.4652    0.7176    0.0160 C   0  0  2  0  0  0  0  0  0  0  0  0
   -3.2425    0.7764    1.5202 C   0  0  0  0  0  0  0  0  0  0  0  0
   -0.4958   -1.4599   -0.6539 C   0  0  2  0  0  0  0  0  0  0  0  0
    0.0253   -2.7745   -0.2315 C   0  0  0  0  0  0  0  0  0  0  0  0
    1.5311   -2.6143   -0.2200 C   0  0  0  0  0  0  0  0  0  0  0  0
    1.7985   -1.1560   -0.6104 C   0  0  2  0  0  0  0  0  0  0  0  0
    2.9634   -0.6702    0.0002 O   0  0  0  0  0  0  0  0  0  0  0  0
    3.9937   -0.2163   -0.8362 C   0  0  0  0  0  0  0  0  0  0  0  0
    3.8370   -0.2612   -2.0805 O   0  0  0  0  0  0  0  0  0  0  0  0
    5.2351    0.3034   -0.2963 C   0  0  0  0  0  0  0  0  0  0  0  0
    6.2162    0.7365   -1.1513 C   0  0  0  0  0  0  0  0  0  0  0  0
    7.4237    1.2426   -0.6605 C   0  0  0  0  0  0  0  0  0  0  0  0
    7.5971    1.2925    0.7077 C   0  0  0  0  0  0  0  0  0  0  0  0
    6.6064    0.8551    1.5724 C   0  0  0  0  0  0  0  0  0  0  0  0
    5.4117    0.3548    1.0641 C   0  0  0  0  0  0  0  0  0  0  0  0
    8.8424    1.8138    1.2507 C   0  0  0  0  0  0  0  0  0  0  0  0
    9.8228    2.2353    1.6986 N   0  0  0  0  0  0  0  0  0  0  0  0
    1.6790   -0.4935    1.7140 H   0  0  0  0  0  0  0  0  0  0  0  0
    0.0997    0.3076    1.9186 H   0  0  0  0  0  0  0  0  0  0  0  0
    0.2070   -1.4684    1.8642 H   0  0  0  0  0  0  0  0  0  0  0  0
    0.8750    1.5942   -0.0794 H   0  0  0  0  0  0  0  0  0  0  0  0
    0.7566    0.8565   -1.6867 H   0  0  0  0  0  0  0  0  0  0  0  0
   -1.2883    1.9269   -1.5780 H   0  0  0  0  0  0  0  0  0  0  0  0
   -1.3277    2.0093    0.1883 H   0  0  0  0  0  0  0  0  0  0  0  0
   -2.4639    0.0086   -1.7055 H   0  0  0  0  0  0  0  0  0  0  0  0
   -1.5645   -0.8402    1.0714 H   0  0  0  0  0  0  0  0  0  0  0  0
   -2.6612   -2.8436    0.7705 H   0  0  0  0  0  0  0  0  0  0  0  0
   -2.5334   -2.7584   -0.9852 H   0  0  0  0  0  0  0  0  0  0  0  0
   -4.7219   -2.2516   -1.0905 H   0  0  0  0  0  0  0  0  0  0  0  0
   -4.7777   -2.0937    0.6771 H   0  0  0  0  0  0  0  0  0  0  0  0
   -6.4554   -0.7028   -1.0064 H   0  0  0  0  0  0  0  0  0  0  0  0
   -5.4439    3.4904   -0.4989 H   0  0  0  0  0  0  0  0  0  0  0  0
   -5.4114    2.4255    0.9219 H   0  0  0  0  0  0  0  0  0  0  0  0
   -3.1885    2.8286    0.1240 H   0  0  0  0  0  0  0  0  0  0  0  0
   -3.6421    2.1513   -1.5346 H   0  0  0  0  0  0  0  0  0  0  0  0
   -3.5564   -0.1360    2.0318 H   0  0  0  0  0  0  0  0  0  0  0  0
   -3.8331    1.6139    1.9687 H   0  0  0  0  0  0  0  0  0  0  0  0
   -2.1938    0.9865    1.7225 H   0  0  0  0  0  0  0  0  0  0  0  0
   -0.5158   -1.2937   -1.7385 H   0  0  0  0  0  0  0  0  0  0  0  0
   -0.2047   -3.5178   -1.0473 H   0  0  0  0  0  0  0  0  0  0  0  0
   -0.3746   -3.1439    0.7138 H   0  0  0  0  0  0  0  0  0  0  0  0
    2.0346   -3.2514   -0.9711 H   0  0  0  0  0  0  0  0  0  0  0  0
    1.8995   -2.7997    0.8189 H   0  0  0  0  0  0  0  0  0  0  0  0
    1.8153   -1.1294   -1.7085 H   0  0  0  0  0  0  0  0  0  0  0  0
    6.1225    0.7157   -2.2391 H   0  0  0  0  0  0  0  0  0  0  0  0
    8.2090    1.5892   -1.3390 H   0  0  0  0  0  0  0  0  0  0  0  0
    6.7911    0.9152    2.6342 H   0  0  0  0  0  0  0  0  0  0  0  0
    4.6569    0.0208    1.7605 H   0  0  0  0  0  0  0  0  0  0  0  0
  2  1  1  1
  2  3  1  0
  3  4  1  0
  4  5  1  0
  5  6  1  0
  6  7  1  0
  7  8  1  0
  8  9  1  0
  9 10  2  0
 10 11  1  0
 11 12  2  0
 11 13  1  0
 13 14  1  0
 14 15  1  0
 15 16  1  1
  6 17  1  0
 17 18  1  0
 18 19  1  0
 19 20  1  0
 20 21  1  0
 21 22  1  0
 22 23  2  0
 22 24  1  0
 24 25  2  0
 25 26  1  0
 26 27  2  0
 27 28  1  0
 28 29  2  0
 27 30  1  0
 30 31  3  0
 17  2  1  0
 29 24  1  0
 20  2  1  0
 15  5  1  0
 15  9  1  0
  1 32  1  0
  1 33  1  0
  1 34  1  0
  3 35  1  0
  3 36  1  0
  4 37  1  0
  4 38  1  0
  5 39  1  6
  6 40  1  1
  7 41  1  0
  7 42  1  0
  8 43  1  0
  8 44  1  0
 10 45  1  0
 13 46  1  0
 13 47  1  0
 14 48  1  0
 14 49  1  0
 16 50  1  0
 16 51  1  0
 16 52  1  0
 17 53  1  6
 18 54  1  0
 18 55  1  0
 19 56  1  0
 19 57  1  0
 20 58  1  6
 25 59  1  0
 26 60  1  0
 28 61  1  0
 29 62  1  0
M  END
$$$$
[H][C](C(=O)N([H])[C@@]([H])(C(=O)N([H])[C@@]([H])(C(=O)N([H])[C@]([H])(C(=O)N([H])[C@]([H])(C(=O)N([H])[C@]([H])(C(=O)N([H])[C@]([H])(C(=O)N([H])[C@]([H])(C(=O)N([H])[C@]([H])(C(=O)N([H])C([H])([H])[H])C([H])([H])c1c([H])c([H])c([H])c([H])c1[H])C([H])([H])c1c([H])c([H])c([H])c([H])c1[H])C([H])([H])C([H])(C([H])([H])[H])C([H])([H])[H])C([H])([H])C([H])(C([H])([H])[H])C([H])([H])[H])C([H])([H])C([H])(C([H])([H])[H])C([H])([H])[H])C([H])([H])C([H])(C([H])([H])[H])C([H])([H])[H])C([H])([H])C([H])(C([H])([H])[H])C([H])([H])[H])C([H])([H])C([H])(C([H])([H])[H])C([H])([H])[H])C([H])([H])C([H])(C([H])([H])[H])C([H])([H])[H]
     RDKit          2D

177178  0  0  0  0  0  0  0  0999 V2000
   -0.7500   -1.2990    0.0000 C   0  0  0  0  0  0  0  0  0  0  0  0
    0.0000   -2.5981    0.0000 N   0  0  0  0  0  0  0  0  0  0  0  0
    1.5000   -2.5981    0.0000 C   0  0  0  0  0  0  0  0  0  0  0  0
    2.2500   -1.2990    0.0000 O   0  0  0  0  0  0  0  0  0  0  0  0
    2.2500   -3.8971    0.0000 C   0  0  0  0  0  0  0  0  0  0  0  0
    3.0000   -5.1962    0.0000 C   0  0  0  0  0  0  0  0  0  0  0  0
    3.7500   -6.4952    0.0000 C   0  0  0  0  0  0  0  0  0  0  0  0
    5.2500   -6.4952    0.0000 C   0  0  0  0  0  0  0  0  0  0  0  0
    6.0000   -7.7942    0.0000 C   0  0  0  0  0  0  0  0  0  0  0  0
    5.2500   -9.0933    0.0000 C   0  0  0  0  0  0  0  0  0  0  0  0
    3.7500   -9.0933    0.0000 C   0  0  0  0  0  0  0  0  0  0  0  0
    3.0000   -7.7942    0.0000 C   0  0  0  0  0  0  0  0  0  0  0  0
    0.9510   -4.6471    0.0000 N   0  0  0  0  0  0  0  0  0  0  0  0
    0.9510   -6.1471    0.0000 C   0  0  0  0  0  0  0  0  0  0  0  0
    1.7180   -6.5900    0.0000 O   0  0  0  0  0  0  0  0  0  0  0  0
   -0.3481   -6.8971    0.0000 C   0  0  0  0  0  0  0  0  0  0  0  0
   -1.6471   -7.6471    0.0000 C   0  0  0  0  0  0  0  0  0  0  0  0
   -2.9462   -8.3971    0.0000 C   0  0  0  0  0  0  0  0  0  0  0  0
   -4.2452   -7.6471    0.0000 C   0  0  0  0  0  0  0  0  0  0  0  0
   -5.5442   -8.3971    0.0000 C   0  0  0  0  0  0  0  0  0  0  0  0
   -5.5442   -9.8971    0.0000 C   0  0  0  0  0  0  0  0  0  0  0  0
   -4.2452  -10.6471    0.0000 C   0  0  0  0  0  0  0  0  0  0  0  0
   -2.9462   -9.8971    0.0000 C   0  0  0  0  0  0  0  0  0  0  0  0
    0.4019   -8.1962    0.0000 N   0  0  0  0  0  0  0  0  0  0  0  0
   -0.3481   -9.4952    0.0000 C   0  0  0  0  0  0  0  0  0  0  0  0
   -1.2338   -9.4952    0.0000 O   0  0  0  0  0  0  0  0  0  0  0  0
    0.4019  -10.7942    0.0000 C   0  0  0  0  0  0  0  0  0  0  0  0
    1.1519  -12.0933    0.0000 C   0  0  0  0  0  0  0  0  0  0  0  0
    1.9019  -13.3923    0.0000 C   0  0  0  0  0  0  0  0  0  0  0  0
    2.6519  -14.6913    0.0000 C   0  0  0  0  0  0  0  0  0  0  0  0
    3.2010  -12.6423    0.0000 C   0  0  0  0  0  0  0  0  0  0  0  0
   -0.8971  -11.5442    0.0000 N   0  0  0  0  0  0  0  0  0  0  0  0
   -0.8971  -13.0442    0.0000 C   0  0  0  0  0  0  0  0  0  0  0  0
    0.3008  -13.9470    0.0000 O   0  0  0  0  0  0  0  0  0  0  0  0
   -2.1962  -13.7942    0.0000 C   0  0  0  0  0  0  0  0  0  0  0  0
   -3.4952  -14.5442    0.0000 C   0  0  0  0  0  0  0  0  0  0  0  0
   -4.7942  -15.2942    0.0000 C   0  0  0  0  0  0  0  0  0  0  0  0
   -6.0933  -16.0442    0.0000 C   0  0  0  0  0  0  0  0  0  0  0  0
   -5.5442  -13.9952    0.0000 C   0  0  0  0  0  0  0  0  0  0  0  0
   -1.4462  -15.0933    0.0000 N   0  0  0  0  0  0  0  0  0  0  0  0
   -2.1962  -16.3923    0.0000 C   0  0  0  0  0  0  0  0  0  0  0  0
   -3.6850  -16.5751    0.0000 O   0  0  0  0  0  0  0  0  0  0  0  0
   -1.4462  -17.6913    0.0000 C   0  0  0  0  0  0  0  0  0  0  0  0
   -0.6962  -18.9904    0.0000 C   0  0  0  0  0  0  0  0  0  0  0  0
    0.0538  -20.2894    0.0000 C   0  0  0  0  0  0  0  0  0  0  0  0
    0.8038  -21.5885    0.0000 C   0  0  0  0  0  0  0  0  0  0  0  0
    1.3529  -19.5394    0.0000 C   0  0  0  0  0  0  0  0  0  0  0  0
   -2.7452  -18.4413    0.0000 N   0  0  0  0  0  0  0  0  0  0  0  0
   -2.7452  -19.9413    0.0000 C   0  0  0  0  0  0  0  0  0  0  0  0
   -1.5473  -20.8441    0.0000 O   0  0  0  0  0  0  0  0  0  0  0  0
   -4.0442  -20.6913    0.0000 C   0  0  0  0  0  0  0  0  0  0  0  0
   -5.3433  -21.4413    0.0000 C   0  0  0  0  0  0  0  0  0  0  0  0
   -6.6423  -22.1913    0.0000 C   0  0  0  0  0  0  0  0  0  0  0  0
   -7.9413  -22.9413    0.0000 C   0  0  0  0  0  0  0  0  0  0  0  0
   -7.3923  -20.8923    0.0000 C   0  0  0  0  0  0  0  0  0  0  0  0
   -3.2942  -21.9904    0.0000 N   0  0  0  0  0  0  0  0  0  0  0  0
   -4.0442  -23.2894    0.0000 C   0  0  0  0  0  0  0  0  0  0  0  0
   -5.5330  -23.4723    0.0000 O   0  0  0  0  0  0  0  0  0  0  0  0
   -3.2942  -24.5885    0.0000 C   0  0  0  0  0  0  0  0  0  0  0  0
   -2.5442  -25.8875    0.0000 C   0  0  0  0  0  0  0  0  0  0  0  0
   -1.7942  -27.1865    0.0000 C   0  0  0  0  0  0  0  0  0  0  0  0
   -1.0442  -28.4856    0.0000 C   0  0  0  0  0  0  0  0  0  0  0  0
   -0.4952  -26.4365    0.0000 C   0  0  0  0  0  0  0  0  0  0  0  0
   -4.5933  -25.3385    0.0000 N   0  0  0  0  0  0  0  0  0  0  0  0
   -4.5933  -26.8385    0.0000 C   0  0  0  0  0  0  0  0  0  0  0  0
   -3.3953  -27.7412    0.0000 O   0  0  0  0  0  0  0  0  0  0  0  0
   -5.8923  -27.5885    0.0000 C   0  0  0  0  0  0  0  0  0  0  0  0
   -7.1913  -28.3385    0.0000 C   0  0  0  0  0  0  0  0  0  0  0  0
   -8.4904  -29.0885    0.0000 C   0  0  0  0  0  0  0  0  0  0  0  0
   -9.7894  -29.8385    0.0000 C   0  0  0  0  0  0  0  0  0  0  0  0
   -9.2404  -27.7894    0.0000 C   0  0  0  0  0  0  0  0  0  0  0  0
   -5.1423  -28.8875    0.0000 N   0  0  0  0  0  0  0  0  0  0  0  0
   -5.8923  -30.1865    0.0000 C   0  0  0  0  0  0  0  0  0  0  0  0
   -7.3811  -30.3694    0.0000 O   0  0  0  0  0  0  0  0  0  0  0  0
   -5.1423  -31.4856    0.0000 C   0  0  0  0  0  3  0  0  0  0  0  0
   -5.8923  -32.7846    0.0000 C   0  0  0  0  0  0  0  0  0  0  0  0
   -6.6423  -34.0836    0.0000 C   0  0  0  0  0  0  0  0  0  0  0  0
   -7.3923  -35.3827    0.0000 C   0  0  0  0  0  0  0  0  0  0  0  0
   -7.9413  -33.3336    0.0000 C   0  0  0  0  0  0  0  0  0  0  0  0
   -1.5000    0.0000    0.0000 H   0  0  0  0  0  0  0  0  0  0  0  0
   -2.0490   -2.0490    0.0000 H   0  0  0  0  0  0  0  0  0  0  0  0
    0.5490   -0.5490    0.0000 H   0  0  0  0  0  0  0  0  0  0  0  0
   -0.6581   -3.4714    0.0000 H   0  0  0  0  0  0  0  0  0  0  0  0
    3.5490   -3.1471    0.0000 H   0  0  0  0  0  0  0  0  0  0  0  0
    2.3629   -5.8115    0.0000 H   0  0  0  0  0  0  0  0  0  0  0  0
    4.2990   -4.4462    0.0000 H   0  0  0  0  0  0  0  0  0  0  0  0
    6.0000   -5.1962    0.0000 H   0  0  0  0  0  0  0  0  0  0  0  0
    7.5000   -7.7942    0.0000 H   0  0  0  0  0  0  0  0  0  0  0  0
    6.0000  -10.3923    0.0000 H   0  0  0  0  0  0  0  0  0  0  0  0
    3.0000  -10.3923    0.0000 H   0  0  0  0  0  0  0  0  0  0  0  0
    1.7941   -7.9423    0.0000 H   0  0  0  0  0  0  0  0  0  0  0  0
   -0.0556   -4.2199    0.0000 H   0  0  0  0  0  0  0  0  0  0  0  0
   -1.0981   -5.5981    0.0000 H   0  0  0  0  0  0  0  0  0  0  0  0
   -1.4030   -8.4986    0.0000 H   0  0  0  0  0  0  0  0  0  0  0  0
   -2.3971   -6.3481    0.0000 H   0  0  0  0  0  0  0  0  0  0  0  0
   -4.2452   -6.1471    0.0000 H   0  0  0  0  0  0  0  0  0  0  0  0
   -6.8433   -7.6471    0.0000 H   0  0  0  0  0  0  0  0  0  0  0  0
   -6.8433  -10.6471    0.0000 H   0  0  0  0  0  0  0  0  0  0  0  0
   -4.2452  -12.1471    0.0000 H   0  0  0  0  0  0  0  0  0  0  0  0
   -1.7482  -10.7999    0.0000 H   0  0  0  0  0  0  0  0  0  0  0  0
    1.6079   -8.3443    0.0000 H   0  0  0  0  0  0  0  0  0  0  0  0
    1.7010  -10.0442    0.0000 H   0  0  0  0  0  0  0  0  0  0  0  0
    0.0730  -13.1353    0.0000 H   0  0  0  0  0  0  0  0  0  0  0  0
    2.3499  -11.1905    0.0000 H   0  0  0  0  0  0  0  0  0  0  0  0
    0.7040  -14.2951    0.0000 H   0  0  0  0  0  0  0  0  0  0  0  0
    3.4019  -15.9904    0.0000 H   0  0  0  0  0  0  0  0  0  0  0  0
    1.3529  -15.4413    0.0000 H   0  0  0  0  0  0  0  0  0  0  0  0
    4.0327  -14.1053    0.0000 H   0  0  0  0  0  0  0  0  0  0  0  0
    4.5000  -11.8923    0.0000 H   0  0  0  0  0  0  0  0  0  0  0  0
    4.1037  -13.8402    0.0000 H   0  0  0  0  0  0  0  0  0  0  0  0
    2.6149  -11.2615    0.0000 H   0  0  0  0  0  0  0  0  0  0  0  0
   -2.2779  -10.9582    0.0000 H   0  0  0  0  0  0  0  0  0  0  0  0
   -2.9462  -12.4952    0.0000 H   0  0  0  0  0  0  0  0  0  0  0  0
   -3.0818  -15.9861    0.0000 H   0  0  0  0  0  0  0  0  0  0  0  0
   -4.0813  -13.1635    0.0000 H   0  0  0  0  0  0  0  0  0  0  0  0
   -4.2082  -16.6750    0.0000 H   0  0  0  0  0  0  0  0  0  0  0  0
   -7.3923  -16.7942    0.0000 H   0  0  0  0  0  0  0  0  0  0  0  0
   -5.3433  -17.3433    0.0000 H   0  0  0  0  0  0  0  0  0  0  0  0
   -6.9960  -14.8463    0.0000 H   0  0  0  0  0  0  0  0  0  0  0  0
   -6.2942  -12.6962    0.0000 H   0  0  0  0  0  0  0  0  0  0  0  0
   -6.9250  -14.5813    0.0000 H   0  0  0  0  0  0  0  0  0  0  0  0
   -4.3463  -13.0924    0.0000 H   0  0  0  0  0  0  0  0  0  0  0  0
    0.0538  -15.0933    0.0000 H   0  0  0  0  0  0  0  0  0  0  0  0
   -0.1471  -16.9413    0.0000 H   0  0  0  0  0  0  0  0  0  0  0  0
   -1.7751  -20.0324    0.0000 H   0  0  0  0  0  0  0  0  0  0  0  0
    0.5018  -18.0876    0.0000 H   0  0  0  0  0  0  0  0  0  0  0  0
   -1.1441  -21.1922    0.0000 H   0  0  0  0  0  0  0  0  0  0  0  0
    1.5538  -22.8875    0.0000 H   0  0  0  0  0  0  0  0  0  0  0  0
   -0.4952  -22.3385    0.0000 H   0  0  0  0  0  0  0  0  0  0  0  0
    2.1846  -21.0024    0.0000 H   0  0  0  0  0  0  0  0  0  0  0  0
    2.6519  -18.7894    0.0000 H   0  0  0  0  0  0  0  0  0  0  0  0
    2.2556  -20.7373    0.0000 H   0  0  0  0  0  0  0  0  0  0  0  0
    0.7668  -18.1586    0.0000 H   0  0  0  0  0  0  0  0  0  0  0  0
   -4.0442  -17.6913    0.0000 H   0  0  0  0  0  0  0  0  0  0  0  0
   -4.7942  -19.3923    0.0000 H   0  0  0  0  0  0  0  0  0  0  0  0
   -5.9293  -20.0606    0.0000 H   0  0  0  0  0  0  0  0  0  0  0  0
   -4.9299  -22.8833    0.0000 H   0  0  0  0  0  0  0  0  0  0  0  0
   -6.0562  -23.5721    0.0000 H   0  0  0  0  0  0  0  0  0  0  0  0
   -9.2404  -23.6913    0.0000 H   0  0  0  0  0  0  0  0  0  0  0  0
   -8.8441  -21.7434    0.0000 H   0  0  0  0  0  0  0  0  0  0  0  0
   -7.1913  -24.2404    0.0000 H   0  0  0  0  0  0  0  0  0  0  0  0
   -8.1423  -19.5933    0.0000 H   0  0  0  0  0  0  0  0  0  0  0  0
   -8.7731  -21.4784    0.0000 H   0  0  0  0  0  0  0  0  0  0  0  0
   -6.1944  -19.9896    0.0000 H   0  0  0  0  0  0  0  0  0  0  0  0
   -1.7942  -21.9904    0.0000 H   0  0  0  0  0  0  0  0  0  0  0  0
   -1.9952  -23.8385    0.0000 H   0  0  0  0  0  0  0  0  0  0  0  0
   -3.6232  -26.9295    0.0000 H   0  0  0  0  0  0  0  0  0  0  0  0
   -1.3463  -24.9847    0.0000 H   0  0  0  0  0  0  0  0  0  0  0  0
   -2.9922  -28.0893    0.0000 H   0  0  0  0  0  0  0  0  0  0  0  0
   -0.2942  -29.7846    0.0000 H   0  0  0  0  0  0  0  0  0  0  0  0
   -2.3433  -29.2356    0.0000 H   0  0  0  0  0  0  0  0  0  0  0  0
    0.3365  -27.8995    0.0000 H   0  0  0  0  0  0  0  0  0  0  0  0
    0.8038  -25.6865    0.0000 H   0  0  0  0  0  0  0  0  0  0  0  0
    0.4076  -27.6345    0.0000 H   0  0  0  0  0  0  0  0  0  0  0  0
   -1.0813  -25.0558    0.0000 H   0  0  0  0  0  0  0  0  0  0  0  0
   -5.8923  -24.5885    0.0000 H   0  0  0  0  0  0  0  0  0  0  0  0
   -6.6423  -26.2894    0.0000 H   0  0  0  0  0  0  0  0  0  0  0  0
   -7.7774  -26.9577    0.0000 H   0  0  0  0  0  0  0  0  0  0  0  0
   -6.7780  -29.7804    0.0000 H   0  0  0  0  0  0  0  0  0  0  0  0
   -7.9043  -30.4692    0.0000 H   0  0  0  0  0  0  0  0  0  0  0  0
  -11.0885  -30.5885    0.0000 H   0  0  0  0  0  0  0  0  0  0  0  0
  -10.6922  -28.6405    0.0000 H   0  0  0  0  0  0  0  0  0  0  0  0
   -9.0394  -31.1375    0.0000 H   0  0  0  0  0  0  0  0  0  0  0  0
   -9.9904  -26.4904    0.0000 H   0  0  0  0  0  0  0  0  0  0  0  0
  -10.6212  -28.3755    0.0000 H   0  0  0  0  0  0  0  0  0  0  0  0
   -8.0425  -26.8867    0.0000 H   0  0  0  0  0  0  0  0  0  0  0  0
   -3.6423  -28.8875    0.0000 H   0  0  0  0  0  0  0  0  0  0  0  0
   -3.6423  -31.4856    0.0000 H   0  0  0  0  0  0  0  0  0  0  0  0
   -4.5933  -33.5346    0.0000 H   0  0  0  0  0  0  0  0  0  0  0  0
   -7.0902  -31.8819    0.0000 H   0  0  0  0  0  0  0  0  0  0  0  0
   -5.3433  -34.8336    0.0000 H   0  0  0  0  0  0  0  0  0  0  0  0
   -8.1423  -36.6817    0.0000 H   0  0  0  0  0  0  0  0  0  0  0  0
   -6.0933  -36.1327    0.0000 H   0  0  0  0  0  0  0  0  0  0  0  0
   -8.7731  -34.7966    0.0000 H   0  0  0  0  0  0  0  0  0  0  0  0
   -9.2404  -32.5836    0.0000 H   0  0  0  0  0  0  0  0  0  0  0  0
   -8.8441  -34.5316    0.0000 H   0  0  0  0  0  0  0  0  0  0  0  0
   -7.3553  -31.9529    0.0000 H   0  0  0  0  0  0  0  0  0  0  0  0
  1  2  1  0
  2  3  1  0
  3  4  2  0
  3  5  1  0
  5  6  1  0
  6  7  1  0
  7  8  2  0
  8  9  1  0
  9 10  2  0
 10 11  1  0
 11 12  2  0
  5 13  1  0
 13 14  1  0
 14 15  2  0
 14 16  1  0
 16 17  1  0
 17 18  1  0
 18 19  2  0
 19 20  1  0
 20 21  2  0
 21 22  1  0
 22 23  2  0
 16 24  1  0
 24 25  1  0
 25 26  2  0
 25 27  1  0
 27 28  1  0
 28 29  1  0
 29 30  1  0
 29 31  1  0
 27 32  1  0
 32 33  1  0
 33 34  2  0
 33 35  1  0
 35 36  1  0
 36 37  1  0
 37 38  1  0
 37 39  1  0
 35 40  1  0
 40 41  1  0
 41 42  2  0
 41 43  1  0
 43 44  1  0
 44 45  1  0
 45 46  1  0
 45 47  1  0
 43 48  1  0
 48 49  1  0
 49 50  2  0
 49 51  1  0
 51 52  1  0
 52 53  1  0
 53 54  1  0
 53 55  1  0
 51 56  1  0
 56 57  1  0
 57 58  2  0
 57 59  1  0
 59 60  1  0
 60 61  1  0
 61 62  1  0
 61 63  1  0
 59 64  1  0
 64 65  1  0
 65 66  2  0
 65 67  1  0
 67 68  1  0
 68 69  1  0
 69 70  1  0
 69 71  1  0
 67 72  1  0
 72 73  1  0
 73 74  2  0
 73 75  1  0
 75 76  1  0
 76 77  1  0
 77 78  1  0
 77 79  1  0
 12  7  1  0
 23 18  1  0
  1 80  1  0
  1 81  1  0
  1 82  1  0
  2 83  1  0
  5 84  1  1
  6 85  1  0
  6 86  1  0
  8 87  1  0
  9 88  1  0
 10 89  1  0
 11 90  1  0
 12 91  1  0
 13 92  1  0
 16 93  1  6
 17 94  1  0
 17 95  1  0
 19 96  1  0
 20 97  1  0
 21 98  1  0
 22 99  1  0
 23100  1  0
 24101  1  0
 27102  1  1
 28103  1  0
 28104  1  0
 29105  1  0
 30106  1  0
 30107  1  0
 30108  1  0
 31109  1  0
 31110  1  0
 31111  1  0
 32112  1  0
 35113  1  6
 36114  1  0
 36115  1  0
 37116  1  0
 38117  1  0
 38118  1  0
 38119  1  0
 39120  1  0
 39121  1  0
 39122  1  0
 40123  1  0
 43124  1  1
 44125  1  0
 44126  1  0
 45127  1  0
 46128  1  0
 46129  1  0
 46130  1  0
 47131  1  0
 47132  1  0
 47133  1  0
 48134  1  0
 51135  1  6
 52136  1  0
 52137  1  0
 53138  1  0
 54139  1  0
 54140  1  0
 54141  1  0
 55142  1  0
 55143  1  0
 55144  1  0
 56145  1  0
 59146  1  6
 60147  1  0
 60148  1  0
 61149  1  0
 62150  1  0
 62151  1  0
 62152  1  0
 63153  1  0
 63154  1  0
 63155  1  0
 64156  1  0
 67157  1  1
 68158  1  0
 68159  1  0
 69160  1  0
 70161  1  0
 70162  1  0
 70163  1  0
 71164  1  0
 71165  1  0
 71166  1  0
 72167  1  0
 75168  1  0
 76169  1  0
 76170  1  0
 77171  1  0
 78172  1  0
 78173  1  0
 78174  1  0
 79175  1  0
 79176  1  0
 79177  1  0
M  RAD  1  75   2
M  END
$$$$
[H]N(C(=O)[C@@]([H])(N([H])C(=O)[C@@]([H])(N([H])C(=O)[C@@]([H])(N([H])C(=O)[C@@]([H])(C(=O)C([H])([H])[H])C([H])([H])[H])C([H])([H])[H])C([H])([H])[H])C([H])([H])[H])[C@]([H])(C(=O)N([H])[C@]([H])(C(=O)N([H])[C@]([H])(C(=O)N([H])[C@]([H])(C(=O)N([H])[C@]([H])(C(=O)N1C([H])([H])C([H])([H])C([H])([H])[C@@]1([H])C(=O)N1C(=O)C([H])([H])C([H])([H])C1([H])[H])C([H])([H])C([H])(C([H])([H])[H])C([H])([H])[H])C([H])([H])[H])C([H])([H])[H])C([H])([H])[H])C([H])([H])[H]
     RDKit          3D

129130  0  0  0  0  0  0  0  0999 V2000
   11.5833   -4.2302    1.0467 C   0  0  0  0  0  0  0  0  0  0  0  0
   10.6799   -4.3842   -0.1365 C   0  0  0  0  0  0  0  0  0  0  0  0
   11.4313   -4.1908   -1.4432 C   0  0  0  0  0  0  0  0  0  0  0  0
    9.3623   -3.7484   -0.0618 C   0  0  0  0  0  0  0  0  0  0  0  0
    9.1839   -2.2900    0.1144 C   0  0  2  0  0  0  0  0  0  0  0  0
    7.6997   -2.1387    0.1283 N   0  0  0  0  0  0  0  0  0  0  0  0
    6.9869   -1.2732    0.9700 C   0  0  0  0  0  0  0  0  0  0  0  0
    7.6554   -0.5558    1.7805 O   0  0  0  0  0  0  0  0  0  0  0  0
    5.5404   -1.1598    0.9542 C   0  0  2  0  0  0  0  0  0  0  0  0
    5.1152   -0.9391   -0.5241 C   0  0  0  0  0  0  0  0  0  0  0  0
    4.9049   -0.1500    1.7208 N   0  0  0  0  0  0  0  0  0  0  0  0
    3.7060   -0.2742    2.4160 C   0  0  0  0  0  0  0  0  0  0  0  0
    3.1145   -1.4126    2.3994 O   0  0  0  0  0  0  0  0  0  0  0  0
    3.0392    0.8076    3.1660 C   0  0  2  0  0  0  0  0  0  0  0  0
    3.8545    1.3399    4.2803 C   0  0  0  0  0  0  0  0  0  0  0  0
    1.6948    0.3476    3.5877 N   0  0  0  0  0  0  0  0  0  0  0  0
    0.6253    0.4032    2.6870 C   0  0  0  0  0  0  0  0  0  0  0  0
    0.8339    0.8621    1.5186 O   0  0  0  0  0  0  0  0  0  0  0  0
   -0.7547   -0.0361    2.9657 C   0  0  2  0  0  0  0  0  0  0  0  0
   -0.7220   -1.5359    3.3802 C   0  0  0  0  0  0  0  0  0  0  0  0
   -1.5675    0.0061    1.7916 N   0  0  0  0  0  0  0  0  0  0  0  0
   -2.9792   -0.0971    1.7842 C   0  0  0  0  0  0  0  0  0  0  0  0
   -3.6440   -0.2497    2.8227 O   0  0  0  0  0  0  0  0  0  0  0  0
   -3.6937   -0.0250    0.4694 C   0  0  2  0  0  0  0  0  0  0  0  0
   -3.5933    1.4382    0.0135 C   0  0  0  0  0  0  0  0  0  0  0  0
   -5.0381   -0.4077    0.4311 N   0  0  0  0  0  0  0  0  0  0  0  0
   -6.1624    0.0926    1.1004 C   0  0  0  0  0  0  0  0  0  0  0  0
   -6.0665    1.0328    1.9095 O   0  0  0  0  0  0  0  0  0  0  0  0
   -7.4782   -0.5183    0.8169 C   0  0  2  0  0  0  0  0  0  0  0  0
   -7.7863   -0.2616   -0.6916 C   0  0  0  0  0  0  0  0  0  0  0  0
   -8.5847    0.0727    1.4974 N   0  0  0  0  0  0  0  0  0  0  0  0
   -9.7783   -0.6892    1.7520 C   0  0  0  0  0  0  0  0  0  0  0  0
   -9.8160   -1.8724    1.3740 O   0  0  0  0  0  0  0  0  0  0  0  0
  -10.9576   -0.0841    2.4435 C   0  0  2  0  0  0  0  0  0  0  0  0
  -10.9000   -0.4215    3.9036 C   0  0  0  0  0  0  0  0  0  0  0  0
  -12.1570   -0.6135    1.7936 N   0  0  0  0  0  0  0  0  0  0  0  0
  -12.9176    0.2020    0.9503 C   0  0  0  0  0  0  0  0  0  0  0  0
  -12.5528    1.4095    0.7704 O   0  0  0  0  0  0  0  0  0  0  0  0
  -14.1527   -0.2185    0.2116 C   0  0  2  0  0  0  0  0  0  0  0  0
  -13.7296   -1.3935   -0.6646 C   0  0  0  0  0  0  0  0  0  0  0  0
  -14.6649    0.8492   -0.5815 N   0  0  0  0  0  0  0  0  0  0  0  0
  -15.9920    1.3097   -0.5058 C   0  0  0  0  0  0  0  0  0  0  0  0
  -16.8510    0.8186    0.2612 O   0  0  0  0  0  0  0  0  0  0  0  0
  -16.3926    2.4598   -1.3965 C   0  0  2  0  0  0  0  0  0  0  0  0
  -16.1344    2.1113   -2.8500 C   0  0  0  0  0  0  0  0  0  0  0  0
  -15.6672    3.6797   -1.0191 C   0  0  0  0  0  0  0  0  0  0  0  0
  -15.8875    4.9363   -1.8093 C   0  0  0  0  0  0  0  0  0  0  0  0
  -14.8854    3.7572   -0.0954 O   0  0  0  0  0  0  0  0  0  0  0  0
    9.5943   -1.4600   -1.0745 C   0  0  0  0  0  0  0  0  0  0  0  0
    8.8288   -1.6626   -2.0817 O   0  0  0  0  0  0  0  0  0  0  0  0
   10.6752   -0.5880   -1.0353 N   0  0  0  0  0  0  0  0  0  0  0  0
   11.5164   -0.4409    0.1871 C   0  0  0  0  0  0  0  0  0  0  0  0
   12.9158   -0.5304   -0.4266 C   0  0  0  0  0  0  0  0  0  0  0  0
   12.7122   -0.2814   -1.9380 C   0  0  0  0  0  0  0  0  0  0  0  0
   11.3360    0.3607   -1.8775 C   0  0  1  0  0  0  0  0  0  0  0  0
   10.7656    0.8013   -3.1034 C   0  0  0  0  0  0  0  0  0  0  0  0
    9.7239    0.3500   -3.6057 O   0  0  0  0  0  0  0  0  0  0  0  0
   11.3946    1.8474   -3.8593 N   0  0  0  0  0  0  0  0  0  0  0  0
   12.6269    2.5164   -3.4830 C   0  0  0  0  0  0  0  0  0  0  0  0
   12.5110    3.9027   -4.0494 C   0  0  0  0  0  0  0  0  0  0  0  0
   11.4777    3.8535   -5.1318 C   0  0  0  0  0  0  0  0  0  0  0  0
   10.9898    2.4570   -5.0769 C   0  0  0  0  0  0  0  0  0  0  0  0
   10.3053    1.8495   -5.9668 O   0  0  0  0  0  0  0  0  0  0  0  0
   11.0275   -3.8270    1.8903 H   0  0  0  0  0  0  0  0  0  0  0  0
   12.0911   -5.1958    1.2682 H   0  0  0  0  0  0  0  0  0  0  0  0
   12.3756   -3.4863    0.7254 H   0  0  0  0  0  0  0  0  0  0  0  0
   10.4513   -5.5189   -0.1517 H   0  0  0  0  0  0  0  0  0  0  0  0
   10.7255   -4.2560   -2.2750 H   0  0  0  0  0  0  0  0  0  0  0  0
   12.0991   -5.0994   -1.5433 H   0  0  0  0  0  0  0  0  0  0  0  0
   12.1139   -3.3441   -1.4461 H   0  0  0  0  0  0  0  0  0  0  0  0
    8.8383   -4.2219    0.8391 H   0  0  0  0  0  0  0  0  0  0  0  0
    8.7660   -4.1264   -0.9450 H   0  0  0  0  0  0  0  0  0  0  0  0
    9.5325   -1.9159    1.0430 H   0  0  0  0  0  0  0  0  0  0  0  0
    7.1451   -2.7286   -0.5540 H   0  0  0  0  0  0  0  0  0  0  0  0
    5.0195   -2.1312    1.1895 H   0  0  0  0  0  0  0  0  0  0  0  0
    5.4272    0.0196   -0.9116 H   0  0  0  0  0  0  0  0  0  0  0  0
    4.0097   -1.0749   -0.4957 H   0  0  0  0  0  0  0  0  0  0  0  0
    5.5090   -1.7864   -1.0898 H   0  0  0  0  0  0  0  0  0  0  0  0
    5.3952    0.7851    1.7695 H   0  0  0  0  0  0  0  0  0  0  0  0
    2.7911    1.6506    2.4574 H   0  0  0  0  0  0  0  0  0  0  0  0
    4.8723    1.5651    3.8693 H   0  0  0  0  0  0  0  0  0  0  0  0
    3.4689    2.3308    4.6285 H   0  0  0  0  0  0  0  0  0  0  0  0
    3.9915    0.6439    5.1259 H   0  0  0  0  0  0  0  0  0  0  0  0
    1.5679   -0.0050    4.5411 H   0  0  0  0  0  0  0  0  0  0  0  0
   -1.2256    0.4461    3.8253 H   0  0  0  0  0  0  0  0  0  0  0  0
    0.0659   -2.0632    2.8192 H   0  0  0  0  0  0  0  0  0  0  0  0
   -1.7043   -1.9788    3.1910 H   0  0  0  0  0  0  0  0  0  0  0  0
   -0.4909   -1.5883    4.4534 H   0  0  0  0  0  0  0  0  0  0  0  0
   -1.0772    0.1240    0.8779 H   0  0  0  0  0  0  0  0  0  0  0  0
   -3.0872   -0.6506   -0.2496 H   0  0  0  0  0  0  0  0  0  0  0  0
   -4.2373    1.6464   -0.8503 H   0  0  0  0  0  0  0  0  0  0  0  0
   -3.8252    2.0577    0.9083 H   0  0  0  0  0  0  0  0  0  0  0  0
   -2.5335    1.6037   -0.2340 H   0  0  0  0  0  0  0  0  0  0  0  0
   -5.2582   -1.2455   -0.2455 H   0  0  0  0  0  0  0  0  0  0  0  0
   -7.4469   -1.6140    0.8872 H   0  0  0  0  0  0  0  0  0  0  0  0
   -7.0891   -0.8956   -1.2534 H   0  0  0  0  0  0  0  0  0  0  0  0
   -8.8517   -0.5121   -0.8688 H   0  0  0  0  0  0  0  0  0  0  0  0
   -7.5700    0.8103   -0.8823 H   0  0  0  0  0  0  0  0  0  0  0  0
   -8.5817    1.0486    1.8310 H   0  0  0  0  0  0  0  0  0  0  0  0
  -10.8902    1.0048    2.3144 H   0  0  0  0  0  0  0  0  0  0  0  0
  -10.5324    0.4452    4.4984 H   0  0  0  0  0  0  0  0  0  0  0  0
  -11.8900   -0.7487    4.3129 H   0  0  0  0  0  0  0  0  0  0  0  0
  -10.1575   -1.2460    4.0724 H   0  0  0  0  0  0  0  0  0  0  0  0
  -12.4008   -1.6006    1.9932 H   0  0  0  0  0  0  0  0  0  0  0  0
  -14.8960   -0.5917    0.9401 H   0  0  0  0  0  0  0  0  0  0  0  0
  -12.7469   -1.7854   -0.3858 H   0  0  0  0  0  0  0  0  0  0  0  0
  -14.4804   -2.1985   -0.6069 H   0  0  0  0  0  0  0  0  0  0  0  0
  -13.6607   -1.0202   -1.7210 H   0  0  0  0  0  0  0  0  0  0  0  0
  -13.9789    1.2981   -1.2556 H   0  0  0  0  0  0  0  0  0  0  0  0
  -17.4753    2.6391   -1.3062 H   0  0  0  0  0  0  0  0  0  0  0  0
  -17.0230    2.3602   -3.4895 H   0  0  0  0  0  0  0  0  0  0  0  0
  -15.2983    2.7390   -3.2614 H   0  0  0  0  0  0  0  0  0  0  0  0
  -15.8843    1.0416   -2.9781 H   0  0  0  0  0  0  0  0  0  0  0  0
  -16.0682    5.7922   -1.1424 H   0  0  0  0  0  0  0  0  0  0  0  0
  -14.9575    5.1172   -2.4211 H   0  0  0  0  0  0  0  0  0  0  0  0
  -16.7189    4.8113   -2.5140 H   0  0  0  0  0  0  0  0  0  0  0  0
   11.3015    0.5960    0.5357 H   0  0  0  0  0  0  0  0  0  0  0  0
   11.3609   -1.2051    0.9174 H   0  0  0  0  0  0  0  0  0  0  0  0
   13.4097   -1.4766   -0.2266 H   0  0  0  0  0  0  0  0  0  0  0  0
   13.4794    0.3070    0.0244 H   0  0  0  0  0  0  0  0  0  0  0  0
   12.7230   -1.2611   -2.4198 H   0  0  0  0  0  0  0  0  0  0  0  0
   13.5220    0.3835   -2.2183 H   0  0  0  0  0  0  0  0  0  0  0  0
   11.5313    1.2963   -1.2264 H   0  0  0  0  0  0  0  0  0  0  0  0
   12.6429    2.5809   -2.3818 H   0  0  0  0  0  0  0  0  0  0  0  0
   13.5111    2.0132   -3.9335 H   0  0  0  0  0  0  0  0  0  0  0  0
   12.2089    4.6672   -3.3085 H   0  0  0  0  0  0  0  0  0  0  0  0
   13.5114    4.2102   -4.4259 H   0  0  0  0  0  0  0  0  0  0  0  0
   12.0142    4.0286   -6.1054 H   0  0  0  0  0  0  0  0  0  0  0  0
   10.6602    4.5964   -4.9767 H   0  0  0  0  0  0  0  0  0  0  0  0
  1  2  1  0
  2  3  1  0
  2  4  1  0
  4  5  1  0
  5  6  1  0
  6  7  1  0
  7  8  2  0
  7  9  1  0
  9 10  1  0
  9 11  1  0
 11 12  1  0
 12 13  2  0
 12 14  1  0
 14 15  1  0
 14 16  1  0
 16 17  1  0
 17 18  2  0
 17 19  1  0
 19 20  1  0
 19 21  1  0
 21 22  1  0
 22 23  2  0
 22 24  1  0
 24 25  1  0
 24 26  1  0
 26 27  1  0
 27 28  2  0
 27 29  1  0
 29 30  1  0
 29 31  1  0
 31 32  1  0
 32 33  2  0
 32 34  1  0
 34 35  1  0
 34 36  1  0
 36 37  1  0
 37 38  2  0
 37 39  1  0
 39 40  1  0
 39 41  1  0
 41 42  1  0
 42 43  2  0
 42 44  1  0
 44 45  1  0
 44 46  1  0
 46 47  1  0
 46 48  2  0
  5 49  1  0
 49 50  2  0
 49 51  1  0
 51 52  1  0
 52 53  1  0
 53 54  1  0
 54 55  1  0
 55 56  1  0
 56 57  2  0
 56 58  1  0
 58 59  1  0
 59 60  1  0
 60 61  1  0
 61 62  1  0
 62 63  2  0
 55 51  1  0
 62 58  1  0
  1 64  1  0
  1 65  1  0
  1 66  1  0
  2 67  1  0
  3 68  1  0
  3 69  1  0
  3 70  1  0
  4 71  1  0
  4 72  1  0
  5 73  1  1
  6 74  1  0
  9 75  1  1
 10 76  1  0
 10 77  1  0
 10 78  1  0
 11 79  1  0
 14 80  1  6
 15 81  1  0
 15 82  1  0
 15 83  1  0
 16 84  1  0
 19 85  1  1
 20 86  1  0
 20 87  1  0
 20 88  1  0
 21 89  1  0
 24 90  1  6
 25 91  1  0
 25 92  1  0
 25 93  1  0
 26 94  1  0
 29 95  1  6
 30 96  1  0
 30 97  1  0
 30 98  1  0
 31 99  1  0
 34100  1  1
 35101  1  0
 35102  1  0
 35103  1  0
 36104  1  0
 39105  1  1
 40106  1  0
 40107  1  0
 40108  1  0
 41109  1  0
 44110  1  6
 45111  1  0
 45112  1  0
 45113  1  0
 47114  1  0
 47115  1  0
 47116  1  0
 52117  1  0
 52118  1  0
 53119  1  0
 53120  1  0
 54121  1  0
 54122  1  0
 55123  1  1
 59124  1  0
 59125  1  0
 60126  1  0
 60127  1  0
 61128  1  0
 61129  1  0
M  END
$$$$
[H]N=C(N([H])[H])N([H])C([H])([H])C([H])([H])C([H])([H])[C@@]([H])(C(=O)N([H])[C@]([H])(C(=O)N([H])[H])C([H])([H])c1c([H])c([H])c([H])c([H])c1[H])N([H])C(=O)[C@@]([H])(N([H])C(=O)[C@@]([H])(N([H])C(=O)[C@@]([H])(N([H])[H])C([H])([H])C([H])(C([H])([H])[H])C([H])([H])[H])C([H])([H])c1c([H])c([H])c(O[H])c([H])c1[H])C([H])([H])c1c([H])c([H])c([H])c([H])c1[H]
     RDKit          3D

107109  0  0  0  0  0  0  0  0999 V2000
    9.0205   -0.6636    2.5566 C   0  0  0  0  0  0  0  0  0  0  0  0
    7.9087   -1.5649    1.9881 C   0  0  0  0  0  0  0  0  0  0  0  0
    7.8634   -1.3142    0.5366 C   0  0  0  0  0  0  0  0  0  0  0  0
    6.6740   -1.4895    2.7635 C   0  0  0  0  0  0  0  0  0  0  0  0
    5.4769   -2.2438    2.4303 C   0  0  2  0  0  0  0  0  0  0  0  0
    5.6511   -3.7097    2.4170 N   0  0  0  0  0  0  0  0  0  0  0  0
    4.5498   -1.7914    1.4066 C   0  0  0  0  0  0  0  0  0  0  0  0
    3.8801   -2.6462    0.7889 O   0  0  0  0  0  0  0  0  0  0  0  0
    4.3345   -0.4430    1.0474 N   0  0  0  0  0  0  0  0  0  0  0  0
    3.4741    0.1240    0.0996 C   0  0  1  0  0  0  0  0  0  0  0  0
    3.2665   -0.4773   -1.2344 C   0  0  0  0  0  0  0  0  0  0  0  0
    4.4817   -0.5208   -2.0693 C   0  0  0  0  0  0  0  0  0  0  0  0
    4.8806    0.6422   -2.7619 C   0  0  0  0  0  0  0  0  0  0  0  0
    5.9727    0.6718   -3.5917 C   0  0  0  0  0  0  0  0  0  0  0  0
    6.7458   -0.4508   -3.7916 C   0  0  0  0  0  0  0  0  0  0  0  0
    7.8623   -0.4246   -4.6371 O   0  0  0  0  0  0  0  0  0  0  0  0
    6.3868   -1.6050   -3.1321 C   0  0  0  0  0  0  0  0  0  0  0  0
    5.2733   -1.6092   -2.2959 C   0  0  0  0  0  0  0  0  0  0  0  0
    2.2142    0.5900    0.7438 C   0  0  0  0  0  0  0  0  0  0  0  0
    2.0990    0.3653    1.9828 O   0  0  0  0  0  0  0  0  0  0  0  0
    1.1878    1.2459    0.0598 N   0  0  0  0  0  0  0  0  0  0  0  0
    0.0011    1.6723    0.7438 C   0  0  1  0  0  0  0  0  0  0  0  0
    0.0209    3.1728    0.9588 C   0  0  0  0  0  0  0  0  0  0  0  0
    0.1459    3.9501   -0.2601 C   0  0  0  0  0  0  0  0  0  0  0  0
    1.4664    4.2176   -0.6775 C   0  0  0  0  0  0  0  0  0  0  0  0
    1.7219    4.9452   -1.8208 C   0  0  0  0  0  0  0  0  0  0  0  0
    0.6946    5.4372   -2.5966 C   0  0  0  0  0  0  0  0  0  0  0  0
   -0.6090    5.1958   -2.2201 C   0  0  0  0  0  0  0  0  0  0  0  0
   -0.8271    4.4593   -1.0628 C   0  0  0  0  0  0  0  0  0  0  0  0
   -1.2726    1.2164    0.1735 C   0  0  0  0  0  0  0  0  0  0  0  0
   -1.3517    0.6927   -0.9750 O   0  0  0  0  0  0  0  0  0  0  0  0
   -2.4536    1.3686    0.9581 N   0  0  0  0  0  0  0  0  0  0  0  0
   -3.7520    0.9533    0.5580 C   0  0  1  0  0  0  0  0  0  0  0  0
   -4.4312    1.8272   -0.4199 C   0  0  0  0  0  0  0  0  0  0  0  0
   -4.6425    3.2096    0.1193 C   0  0  0  0  0  0  0  0  0  0  0  0
   -5.5473    3.1769    1.3540 C   0  0  0  0  0  0  0  0  0  0  0  0
   -5.7261    4.5665    1.8117 N   0  0  0  0  0  0  0  0  0  0  0  0
   -6.4543    5.5063    1.0366 C   0  0  0  0  0  0  0  0  0  0  0  0
   -7.8436    5.2903    0.7785 N   0  0  0  0  0  0  0  0  0  0  0  0
   -5.8478    6.5475    0.5730 N   0  0  0  0  0  0  0  0  0  0  0  0
   -3.7511   -0.5024    0.2134 C   0  0  0  0  0  0  0  0  0  0  0  0
   -2.7131   -1.1638    0.4184 O   0  0  0  0  0  0  0  0  0  0  0  0
   -4.8966   -1.1175   -0.3317 N   0  0  0  0  0  0  0  0  0  0  0  0
   -4.8770   -2.5423   -0.6673 C   0  0  1  0  0  0  0  0  0  0  0  0
   -5.9267   -3.1835    0.1790 C   0  0  0  0  0  0  0  0  0  0  0  0
   -6.0682   -4.6345   -0.0074 C   0  0  0  0  0  0  0  0  0  0  0  0
   -5.2567   -5.5119    0.6912 C   0  0  0  0  0  0  0  0  0  0  0  0
   -5.4187   -6.8599    0.5327 C   0  0  0  0  0  0  0  0  0  0  0  0
   -6.3824   -7.3862   -0.3171 C   0  0  0  0  0  0  0  0  0  0  0  0
   -7.2057   -6.5128   -1.0260 C   0  0  0  0  0  0  0  0  0  0  0  0
   -7.0334   -5.1548   -0.8581 C   0  0  0  0  0  0  0  0  0  0  0  0
   -5.0239   -2.6867   -2.1141 C   0  0  0  0  0  0  0  0  0  0  0  0
   -4.9399   -3.9199   -2.7993 N   0  0  0  0  0  0  0  0  0  0  0  0
   -5.2367   -1.6563   -2.8192 O   0  0  0  0  0  0  0  0  0  0  0  0
    9.2055   -0.8690    3.6083 H   0  0  0  0  0  0  0  0  0  0  0  0
    8.6667    0.4027    2.4414 H   0  0  0  0  0  0  0  0  0  0  0  0
    9.9081   -0.8093    1.9439 H   0  0  0  0  0  0  0  0  0  0  0  0
    8.3405   -2.6051    2.1244 H   0  0  0  0  0  0  0  0  0  0  0  0
    7.2852   -0.3868    0.3414 H   0  0  0  0  0  0  0  0  0  0  0  0
    8.8491   -1.1609    0.0570 H   0  0  0  0  0  0  0  0  0  0  0  0
    7.2775   -2.1285    0.0142 H   0  0  0  0  0  0  0  0  0  0  0  0
    6.3886   -0.3988    2.8576 H   0  0  0  0  0  0  0  0  0  0  0  0
    6.9215   -1.7372    3.8551 H   0  0  0  0  0  0  0  0  0  0  0  0
    4.8295   -2.1658    3.4037 H   0  0  0  0  0  0  0  0  0  0  0  0
    5.2155   -4.1284    1.5658 H   0  0  0  0  0  0  0  0  0  0  0  0
    6.6604   -3.9490    2.5178 H   0  0  0  0  0  0  0  0  0  0  0  0
    4.9513    0.2457    1.6257 H   0  0  0  0  0  0  0  0  0  0  0  0
    3.9889    1.1450   -0.1813 H   0  0  0  0  0  0  0  0  0  0  0  0
    2.4704    0.0439   -1.8289 H   0  0  0  0  0  0  0  0  0  0  0  0
    2.9003   -1.5443   -1.1791 H   0  0  0  0  0  0  0  0  0  0  0  0
    4.2672    1.5203   -2.5982 H   0  0  0  0  0  0  0  0  0  0  0  0
    6.2788    1.5587   -4.1227 H   0  0  0  0  0  0  0  0  0  0  0  0
    8.7583   -0.1827   -4.2340 H   0  0  0  0  0  0  0  0  0  0  0  0
    6.9893   -2.4861   -3.2863 H   0  0  0  0  0  0  0  0  0  0  0  0
    5.0143   -2.5441   -1.7960 H   0  0  0  0  0  0  0  0  0  0  0  0
    1.2802    1.4329   -0.9593 H   0  0  0  0  0  0  0  0  0  0  0  0
    0.0588    1.2564    1.7813 H   0  0  0  0  0  0  0  0  0  0  0  0
    0.8656    3.3929    1.6359 H   0  0  0  0  0  0  0  0  0  0  0  0
   -0.9128    3.4174    1.5082 H   0  0  0  0  0  0  0  0  0  0  0  0
    2.2902    3.8473   -0.0944 H   0  0  0  0  0  0  0  0  0  0  0  0
    2.7223    5.1720   -2.1760 H   0  0  0  0  0  0  0  0  0  0  0  0
    0.8565    6.0080   -3.4949 H   0  0  0  0  0  0  0  0  0  0  0  0
   -1.4618    5.5643   -2.8002 H   0  0  0  0  0  0  0  0  0  0  0  0
   -1.8333    4.2906   -0.7983 H   0  0  0  0  0  0  0  0  0  0  0  0
   -2.3530    1.8313    1.9172 H   0  0  0  0  0  0  0  0  0  0  0  0
   -4.4144    0.9557    1.4893 H   0  0  0  0  0  0  0  0  0  0  0  0
   -5.4328    1.4230   -0.6839 H   0  0  0  0  0  0  0  0  0  0  0  0
   -3.7822    1.9240   -1.3214 H   0  0  0  0  0  0  0  0  0  0  0  0
   -5.1388    3.8816   -0.6069 H   0  0  0  0  0  0  0  0  0  0  0  0
   -3.6849    3.6823    0.4452 H   0  0  0  0  0  0  0  0  0  0  0  0
   -6.5288    2.7446    1.0928 H   0  0  0  0  0  0  0  0  0  0  0  0
   -5.0407    2.6538    2.1876 H   0  0  0  0  0  0  0  0  0  0  0  0
   -5.3171    4.8718    2.7142 H   0  0  0  0  0  0  0  0  0  0  0  0
   -8.1872    5.1271   -0.1954 H   0  0  0  0  0  0  0  0  0  0  0  0
   -8.5031    5.3018    1.5991 H   0  0  0  0  0  0  0  0  0  0  0  0
   -4.8357    6.6938    0.7670 H   0  0  0  0  0  0  0  0  0  0  0  0
   -5.7553   -0.5874   -0.5019 H   0  0  0  0  0  0  0  0  0  0  0  0
   -3.8596   -2.9536   -0.4100 H   0  0  0  0  0  0  0  0  0  0  0  0
   -6.9365   -2.7455    0.0135 H   0  0  0  0  0  0  0  0  0  0  0  0
   -5.7250   -2.9607    1.2712 H   0  0  0  0  0  0  0  0  0  0  0  0
   -4.5142   -5.0968    1.3452 H   0  0  0  0  0  0  0  0  0  0  0  0
   -4.8069   -7.5943    1.0586 H   0  0  0  0  0  0  0  0  0  0  0  0
   -6.5320   -8.4381   -0.4614 H   0  0  0  0  0  0  0  0  0  0  0  0
   -7.9741   -6.8666   -1.7032 H   0  0  0  0  0  0  0  0  0  0  0  0
   -7.6707   -4.4779   -1.4071 H   0  0  0  0  0  0  0  0  0  0  0  0
   -4.2195   -4.6254   -2.5543 H   0  0  0  0  0  0  0  0  0  0  0  0
   -5.5858   -4.2049   -3.5873 H   0  0  0  0  0  0  0  0  0  0  0  0
  1  2  1  0
  2  3  1  0
  2  4  1  0
  4  5  1  0
  5  6  1  0
  5  7  1  0
  7  8  2  0
  7  9  1  0
  9 10  1  0
 10 11  1  0
 11 12  1  0
 12 13  2  0
 13 14  1  0
 14 15  2  0
 15 16  1  0
 15 17  1  0
 17 18  2  0
 10 19  1  0
 19 20  2  0
 19 21  1  0
 21 22  1  0
 22 23  1  0
 23 24  1  0
 24 25  2  0
 25 26  1  0
 26 27  2  0
 27 28  1  0
 28 29  2  0
 22 30  1  0
 30 31  2  0
 30 32  1  0
 32 33  1  0
 33 34  1  0
 34 35  1  0
 35 36  1  0
 36 37  1  0
 37 38  1  0
 38 39  1  0
 38 40  2  3
 33 41  1  0
 41 42  2  0
 41 43  1  0
 43 44  1  0
 44 45  1  0
 45 46  1  0
 46 47  2  0
 47 48  1  0
 48 49  2  0
 49 50  1  0
 50 51  2  0
 44 52  1  0
 52 53  1  0
 52 54  2  0
 18 12  1  0
 29 24  1  0
 51 46  1  0
  1 55  1  0
  1 56  1  0
  1 57  1  0
  2 58  1  0
  3 59  1  0
  3 60  1  0
  3 61  1  0
  4 62  1  0
  4 63  1  0
  5 64  1  1
  6 65  1  0
  6 66  1  0
  9 67  1  0
 10 68  1  6
 11 69  1  0
 11 70  1  0
 13 71  1  0
 14 72  1  0
 16 73  1  0
 17 74  1  0
 18 75  1  0
 21 76  1  0
 22 77  1  1
 23 78  1  0
 23 79  1  0
 25 80  1  0
 26 81  1  0
 27 82  1  0
 28 83  1  0
 29 84  1  0
 32 85  1  0
 33 86  1  1
 34 87  1  0
 34 88  1  0
 35 89  1  0
 35 90  1  0
 36 91  1  0
 36 92  1  0
 37 93  1  0
 39 94  1  0
 39 95  1  0
 40 96  1  0
 43 97  1  0
 44 98  1  1
 45 99  1  0
 45100  1  0
 47101  1  0
 48102  1  0
 49103  1  0
 50104  1  0
 51105  1  0
 53106  1  0
 53107  1  0
M  END
$$$$
[H]c1c([H])c(C(=O)N2C([H])([H])C([H])([H])N(S(=O)(=O)c3c([H])c([H])c(Cl)c([H])c3Cl)C([H])([H])[C@@]2([H])C([H])([H])[H])c([H])c([H])c1Cl
     RDKit          3D

 44 46  0  0  0  0  0  0  0  0999 V2000
   -1.1436    0.5775   -1.6920 C   0  0  0  0  0  0  0  0  0  0  0  0
   -0.6084    0.8782   -0.3636 C   0  0  2  0  0  0  0  0  0  0  0  0
    0.5767   -0.0504   -0.0407 C   0  0  0  0  0  0  0  0  0  0  0  0
    1.3432    0.5024    1.0257 N   0  0  0  0  0  0  0  0  0  0  0  0
    0.6213    0.9732    2.1291 C   0  0  0  0  0  0  0  0  0  0  0  0
   -0.6038    1.8072    1.8536 C   0  0  0  0  0  0  0  0  0  0  0  0
   -1.4043    1.0689    0.7787 N   0  0  0  0  0  0  0  0  0  0  0  0
   -2.6413    0.6534    1.1550 C   0  0  0  0  0  0  0  0  0  0  0  0
   -3.0535    1.2204    2.3066 O   0  0  0  0  0  0  0  0  0  0  0  0
   -3.6401   -0.2407    0.6469 C   0  0  0  0  0  0  0  0  0  0  0  0
   -3.4396   -1.2925   -0.2040 C   0  0  0  0  0  0  0  0  0  0  0  0
   -4.4944   -2.0555   -0.7272 C   0  0  0  0  0  0  0  0  0  0  0  0
   -5.7741   -1.7418   -0.3743 C   0  0  0  0  0  0  0  0  0  0  0  0
   -7.1089   -2.6662   -1.0037 Cl  0  0  0  0  0  0  0  0  0  0  0  0
   -6.0325   -0.7033    0.4741 C   0  0  0  0  0  0  0  0  0  0  0  0
   -4.9871    0.0154    0.9611 C   0  0  0  0  0  0  0  0  0  0  0  0
    2.7876    1.2631    0.6189 S   0  0  0  0  0  0  0  0  0  0  0  0
    3.5081    1.8550    1.7964 O   0  0  0  0  0  0  0  0  0  0  0  0
    2.5993    2.3781   -0.4009 O   0  0  0  0  0  0  0  0  0  0  0  0
    3.8938    0.1336   -0.1224 C   0  0  0  0  0  0  0  0  0  0  0  0
    3.5733   -1.1858   -0.2260 C   0  0  0  0  0  0  0  0  0  0  0  0
    4.4974   -2.0392   -0.8100 C   0  0  0  0  0  0  0  0  0  0  0  0
    5.7082   -1.5788   -1.2757 C   0  0  0  0  0  0  0  0  0  0  0  0
    6.8522   -2.6572   -2.0029 Cl  0  0  0  0  0  0  0  0  0  0  0  0
    5.9970   -0.2330   -1.1522 C   0  0  0  0  0  0  0  0  0  0  0  0
    5.1095    0.6333   -0.5827 C   0  0  0  0  0  0  0  0  0  0  0  0
    5.4628    2.3538   -0.4176 Cl  0  0  0  0  0  0  0  0  0  0  0  0
   -0.5016    1.1089   -2.4734 H   0  0  0  0  0  0  0  0  0  0  0  0
   -2.1614    0.9765   -1.8952 H   0  0  0  0  0  0  0  0  0  0  0  0
   -1.0243   -0.4955   -1.9999 H   0  0  0  0  0  0  0  0  0  0  0  0
   -0.1111    1.9406   -0.5099 H   0  0  0  0  0  0  0  0  0  0  0  0
    1.1115   -0.1620   -0.9830 H   0  0  0  0  0  0  0  0  0  0  0  0
    0.1281   -1.0060    0.2901 H   0  0  0  0  0  0  0  0  0  0  0  0
    1.2839    1.6224    2.7643 H   0  0  0  0  0  0  0  0  0  0  0  0
    0.3208    0.0860    2.7601 H   0  0  0  0  0  0  0  0  0  0  0  0
   -1.2111    1.9362    2.7281 H   0  0  0  0  0  0  0  0  0  0  0  0
   -0.3066    2.7331    1.3497 H   0  0  0  0  0  0  0  0  0  0  0  0
   -2.4377   -1.6045   -0.4551 H   0  0  0  0  0  0  0  0  0  0  0  0
   -4.2651   -2.8754   -1.3991 H   0  0  0  0  0  0  0  0  0  0  0  0
   -7.0493   -0.4604    0.7509 H   0  0  0  0  0  0  0  0  0  0  0  0
   -5.2208    0.8432    1.6351 H   0  0  0  0  0  0  0  0  0  0  0  0
    2.6488   -1.6101    0.1265 H   0  0  0  0  0  0  0  0  0  0  0  0
    4.2605   -3.0788   -0.8991 H   0  0  0  0  0  0  0  0  0  0  0  0
    6.9366    0.1767   -1.5034 H   0  0  0  0  0  0  0  0  0  0  0  0
  1  2  1  0
  2  3  1  0
  3  4  1  0
  4  5  1  0
  5  6  1  0
  6  7  1  0
  7  8  1  0
  8  9  2  0
  8 10  1  0
 10 11  2  0
 11 12  1  0
 12 13  2  0
 13 14  1  0
 13 15  1  0
 15 16  2  0
  4 17  1  0
 17 18  2  0
 17 19  2  0
 17 20  1  0
 20 21  2  0
 21 22  1  0
 22 23  2  0
 23 24  1  0
 23 25  1  0
 25 26  2  0
 26 27  1  0
  7  2  1  0
 16 10  1  0
 26 20  1  0
  1 28  1  0
  1 29  1  0
  1 30  1  0
  2 31  1  6
  3 32  1  0
  3 33  1  0
  5 34  1  0
  5 35  1  0
  6 36  1  0
  6 37  1  0
 11 38  1  0
 12 39  1  0
 15 40  1  0
 16 41  1  0
 21 42  1  0
 22 43  1  0
 25 44  1  0
M  END
$$$$
[H]c1c([H])c(C(F)(F)F)c([H])c(S(=O)(=O)N2C([H])([H])C([H])([H])N(C(=O)c3c([H])c([H])c(-c4c([H])c([H])c(C#N)c([H])c4[H])c([H])c3[H])[C@]([H])(C([H])([H])[H])C2([H])[H])c1[H]
     RDKit          3D

 58 61  0  0  0  0  0  0  0  0999 V2000
   -1.4328   -2.7820    2.3900 C   0  0  0  0  0  0  0  0  0  0  0  0
   -1.6042   -1.3174    2.0840 C   0  0  2  0  0  0  0  0  0  0  0  0
   -2.8756   -1.0838    1.3314 C   0  0  0  0  0  0  0  0  0  0  0  0
   -2.8676   -1.7823    0.0994 N   0  0  0  0  0  0  0  0  0  0  0  0
   -1.7404   -1.6153   -0.7382 C   0  0  0  0  0  0  0  0  0  0  0  0
   -0.7572   -0.6271   -0.1270 C   0  0  0  0  0  0  0  0  0  0  0  0
   -0.4642   -0.8803    1.2428 N   0  0  0  0  0  0  0  0  0  0  0  0
    0.7549   -0.6402    1.8957 C   0  0  0  0  0  0  0  0  0  0  0  0
    0.7165   -0.7023    3.1979 O   0  0  0  0  0  0  0  0  0  0  0  0
    2.0146   -0.3395    1.2699 C   0  0  0  0  0  0  0  0  0  0  0  0
    2.8923    0.4588    2.0247 C   0  0  0  0  0  0  0  0  0  0  0  0
    4.1386    0.7254    1.5514 C   0  0  0  0  0  0  0  0  0  0  0  0
    4.6085    0.2514    0.3529 C   0  0  0  0  0  0  0  0  0  0  0  0
    3.7500   -0.5289   -0.3750 C   0  0  0  0  0  0  0  0  0  0  0  0
    2.4740   -0.8187    0.0785 C   0  0  0  0  0  0  0  0  0  0  0  0
    5.9396    0.6271   -0.1399 C   0  0  0  0  0  0  0  0  0  0  0  0
    6.1680    0.6691   -1.5109 C   0  0  0  0  0  0  0  0  0  0  0  0
    7.3911    1.0579   -2.0271 C   0  0  0  0  0  0  0  0  0  0  0  0
    8.4377    1.4219   -1.2034 C   0  0  0  0  0  0  0  0  0  0  0  0
    8.2068    1.3792    0.1550 C   0  0  0  0  0  0  0  0  0  0  0  0
    6.9707    0.9863    0.6854 C   0  0  0  0  0  0  0  0  0  0  0  0
    9.7113    1.8598   -1.7314 C   0  0  0  0  0  0  0  0  0  0  0  0
   10.7395    2.2364   -2.1661 N   0  0  0  0  0  0  0  0  0  0  0  0
   -4.3777   -1.8948   -0.6878 S   0  0  0  0  0  0  0  0  0  0  0  0
   -4.2821   -2.7344   -1.9194 O   0  0  0  0  0  0  0  0  0  0  0  0
   -5.3667   -2.5223    0.2583 O   0  0  0  0  0  0  0  0  0  0  0  0
   -5.0010   -0.2922   -1.0762 C   0  0  0  0  0  0  0  0  0  0  0  0
   -4.6935    0.3553   -2.2259 C   0  0  0  0  0  0  0  0  0  0  0  0
   -5.2017    1.6161   -2.4656 C   0  0  0  0  0  0  0  0  0  0  0  0
   -6.0276    2.2589   -1.5664 C   0  0  0  0  0  0  0  0  0  0  0  0
   -6.3401    1.6014   -0.4044 C   0  0  0  0  0  0  0  0  0  0  0  0
   -5.8380    0.3462   -0.1564 C   0  0  0  0  0  0  0  0  0  0  0  0
   -7.2056    2.2057    0.6271 C   0  0  0  0  0  0  0  0  0  0  0  0
   -7.2470    3.5625    0.5234 F   0  0  0  0  0  0  0  0  0  0  0  0
   -6.7250    1.8077    1.8545 F   0  0  0  0  0  0  0  0  0  0  0  0
   -8.4704    1.6474    0.4876 F   0  0  0  0  0  0  0  0  0  0  0  0
   -1.5347   -3.3473    1.4444 H   0  0  0  0  0  0  0  0  0  0  0  0
   -0.3867   -2.9325    2.7452 H   0  0  0  0  0  0  0  0  0  0  0  0
   -2.1711   -3.1396    3.1114 H   0  0  0  0  0  0  0  0  0  0  0  0
   -1.6179   -0.7595    3.0442 H   0  0  0  0  0  0  0  0  0  0  0  0
   -3.7753   -1.4170    1.9065 H   0  0  0  0  0  0  0  0  0  0  0  0
   -2.9299    0.0381    1.1570 H   0  0  0  0  0  0  0  0  0  0  0  0
   -1.2462   -2.6156   -0.8618 H   0  0  0  0  0  0  0  0  0  0  0  0
   -1.9453   -1.2362   -1.7678 H   0  0  0  0  0  0  0  0  0  0  0  0
   -1.2823    0.4085   -0.1262 H   0  0  0  0  0  0  0  0  0  0  0  0
    0.0529   -0.4786   -0.8232 H   0  0  0  0  0  0  0  0  0  0  0  0
    2.5226    0.8338    2.9753 H   0  0  0  0  0  0  0  0  0  0  0  0
    4.7704    1.3485    2.1815 H   0  0  0  0  0  0  0  0  0  0  0  0
    4.0583   -0.9369   -1.3242 H   0  0  0  0  0  0  0  0  0  0  0  0
    1.8452   -1.4934   -0.5313 H   0  0  0  0  0  0  0  0  0  0  0  0
    5.3540    0.3861   -2.1410 H   0  0  0  0  0  0  0  0  0  0  0  0
    7.5582    1.0873   -3.1109 H   0  0  0  0  0  0  0  0  0  0  0  0
    9.0347    1.6707    0.7801 H   0  0  0  0  0  0  0  0  0  0  0  0
    6.8229    0.9647    1.7663 H   0  0  0  0  0  0  0  0  0  0  0  0
   -4.0585   -0.0969   -2.9684 H   0  0  0  0  0  0  0  0  0  0  0  0
   -4.9710    2.1617   -3.3897 H   0  0  0  0  0  0  0  0  0  0  0  0
   -6.4359    3.2467   -1.7178 H   0  0  0  0  0  0  0  0  0  0  0  0
   -6.0598   -0.2054    0.7541 H   0  0  0  0  0  0  0  0  0  0  0  0
  1  2  1  0
  2  3  1  0
  3  4  1  0
  4  5  1  0
  5  6  1  0
  6  7  1  0
  7  8  1  0
  8  9  2  0
  8 10  1  0
 10 11  2  0
 11 12  1  0
 12 13  2  0
 13 14  1  0
 14 15  2  0
 13 16  1  0
 16 17  2  0
 17 18  1  0
 18 19  2  0
 19 20  1  0
 20 21  2  0
 19 22  1  0
 22 23  3  0
  4 24  1  0
 24 25  2  0
 24 26  2  0
 24 27  1  0
 27 28  2  0
 28 29  1  0
 29 30  2  0
 30 31  1  0
 31 32  2  0
 31 33  1  0
 33 34  1  0
 33 35  1  0
 33 36  1  0
  7  2  1  0
 15 10  1  0
 21 16  1  0
 32 27  1  0
  1 37  1  0
  1 38  1  0
  1 39  1  0
  2 40  1  1
  3 41  1  0
  3 42  1  0
  5 43  1  0
  5 44  1  0
  6 45  1  0
  6 46  1  0
 11 47  1  0
 12 48  1  0
 14 49  1  0
 15 50  1  0
 17 51  1  0
 18 52  1  0
 20 53  1  0
 21 54  1  0
 28 55  1  0
 29 56  1  0
 30 57  1  0
 32 58  1  0
M  END
$$$$
[H]c1nc([H])c([C@@]2([H])C([H])([H])C([H])([H])[C@@]3([H])[C@]4([H])C([H])([H])C([H])([H])c5c([H])c(F)c([H])c([H])c5[C@@]4([H])C([H])([H])C([H])([H])[C@@]23C([H])([H])[H])c([H])c1C(F)(F)F
     RDKit          3D

 54 58  0  0  0  0  0  0  0  0999 V2000
    0.6393   -2.0215    0.7817 C   0  0  0  0  0  0  0  0  0  0  0  0
    0.7302   -0.5202    0.5345 C   0  0  1  0  0  0  0  0  0  0  0  0
    0.4023   -0.2421   -0.8777 C   0  0  0  0  0  0  0  0  0  0  0  0
   -0.9567   -0.7806   -1.2766 C   0  0  0  0  0  0  0  0  0  0  0  0
   -1.9800   -0.6828   -0.1976 C   0  0  1  0  0  0  0  0  0  0  0  0
   -1.5873    0.4812    0.6802 C   0  0  1  0  0  0  0  0  0  0  0  0
   -2.6287    0.8459    1.7005 C   0  0  0  0  0  0  0  0  0  0  0  0
   -3.7838    1.4406    0.9406 C   0  0  0  0  0  0  0  0  0  0  0  0
   -4.2215    0.4466   -0.0830 C   0  0  0  0  0  0  0  0  0  0  0  0
   -5.5745    0.5791   -0.4511 C   0  0  0  0  0  0  0  0  0  0  0  0
   -6.1151   -0.2705   -1.3745 C   0  0  0  0  0  0  0  0  0  0  0  0
   -7.4256   -0.1478   -1.7424 F   0  0  0  0  0  0  0  0  0  0  0  0
   -5.2816   -1.2284   -1.9044 C   0  0  0  0  0  0  0  0  0  0  0  0
   -3.9526   -1.3753   -1.5559 C   0  0  0  0  0  0  0  0  0  0  0  0
   -3.3851   -0.5100   -0.6096 C   0  0  0  0  0  0  0  0  0  0  0  0
   -0.3183    0.2079    1.4238 C   0  0  2  0  0  0  0  0  0  0  0  0
    0.3051    1.5660    1.7268 C   0  0  0  0  0  0  0  0  0  0  0  0
    1.6601    1.5422    1.0481 C   0  0  0  0  0  0  0  0  0  0  0  0
    1.9508    0.0514    1.1241 C   0  0  2  0  0  0  0  0  0  0  0  0
    3.2749   -0.2947    0.7085 C   0  0  0  0  0  0  0  0  0  0  0  0
    3.9612   -1.3517    1.2629 C   0  0  0  0  0  0  0  0  0  0  0  0
    5.2578   -1.6227    0.9089 N   0  0  0  0  0  0  0  0  0  0  0  0
    5.9230   -0.8830    0.0146 C   0  0  0  0  0  0  0  0  0  0  0  0
    5.2743    0.1864   -0.5617 C   0  0  0  0  0  0  0  0  0  0  0  0
    3.9719    0.4721   -0.2178 C   0  0  0  0  0  0  0  0  0  0  0  0
    6.0368    1.0219   -1.5305 C   0  0  0  0  0  0  0  0  0  0  0  0
    6.1734    2.2954   -0.9568 F   0  0  0  0  0  0  0  0  0  0  0  0
    7.3069    0.5268   -1.6857 F   0  0  0  0  0  0  0  0  0  0  0  0
    5.4411    1.1004   -2.7701 F   0  0  0  0  0  0  0  0  0  0  0  0
    0.0432   -2.5518    0.0058 H   0  0  0  0  0  0  0  0  0  0  0  0
    0.1617   -2.2357    1.7561 H   0  0  0  0  0  0  0  0  0  0  0  0
    1.6488   -2.4786    0.6981 H   0  0  0  0  0  0  0  0  0  0  0  0
    1.1145   -0.8173   -1.5476 H   0  0  0  0  0  0  0  0  0  0  0  0
    0.4882    0.7886   -1.2050 H   0  0  0  0  0  0  0  0  0  0  0  0
   -0.9009   -1.8310   -1.6800 H   0  0  0  0  0  0  0  0  0  0  0  0
   -1.3040   -0.1808   -2.1539 H   0  0  0  0  0  0  0  0  0  0  0  0
   -1.9843   -1.5895    0.4763 H   0  0  0  0  0  0  0  0  0  0  0  0
   -1.4311    1.3629    0.0152 H   0  0  0  0  0  0  0  0  0  0  0  0
   -2.1554    1.6503    2.3416 H   0  0  0  0  0  0  0  0  0  0  0  0
   -2.9664   -0.0020    2.3043 H   0  0  0  0  0  0  0  0  0  0  0  0
   -3.5269    2.3882    0.4410 H   0  0  0  0  0  0  0  0  0  0  0  0
   -4.6081    1.6281    1.6580 H   0  0  0  0  0  0  0  0  0  0  0  0
   -6.2224    1.3294   -0.0188 H   0  0  0  0  0  0  0  0  0  0  0  0
   -5.7179   -1.8989   -2.6355 H   0  0  0  0  0  0  0  0  0  0  0  0
   -3.3051   -2.1296   -1.9636 H   0  0  0  0  0  0  0  0  0  0  0  0
   -0.4591   -0.3493    2.3650 H   0  0  0  0  0  0  0  0  0  0  0  0
    0.4973    1.6755    2.8118 H   0  0  0  0  0  0  0  0  0  0  0  0
   -0.2583    2.4037    1.2871 H   0  0  0  0  0  0  0  0  0  0  0  0
    1.6427    1.9168    0.0244 H   0  0  0  0  0  0  0  0  0  0  0  0
    2.3948    2.0664    1.6599 H   0  0  0  0  0  0  0  0  0  0  0  0
    1.8128   -0.1600    2.2581 H   0  0  0  0  0  0  0  0  0  0  0  0
    3.4985   -2.0026    2.0060 H   0  0  0  0  0  0  0  0  0  0  0  0
    6.9648   -1.1072   -0.2765 H   0  0  0  0  0  0  0  0  0  0  0  0
    3.4740    1.2918   -0.6729 H   0  0  0  0  0  0  0  0  0  0  0  0
  2  1  1  6
  2  3  1  0
  3  4  1  0
  4  5  1  0
  5  6  1  0
  6  7  1  0
  7  8  1  0
  8  9  1  0
  9 10  2  0
 10 11  1  0
 11 12  1  0
 11 13  2  0
 13 14  1  0
 14 15  2  0
  6 16  1  0
 16 17  1  0
 17 18  1  0
 18 19  1  0
 19 20  1  0
 20 21  2  0
 21 22  1  0
 22 23  2  0
 23 24  1  0
 24 25  2  0
 24 26  1  0
 26 27  1  0
 26 28  1  0
 26 29  1  0
 16  2  1  0
 25 20  1  0
 19  2  1  0
 15  5  1  0
 15  9  1  0
  1 30  1  0
  1 31  1  0
  1 32  1  0
  3 33  1  0
  3 34  1  0
  4 35  1  0
  4 36  1  0
  5 37  1  1
  6 38  1  6
  7 39  1  0
  7 40  1  0
  8 41  1  0
  8 42  1  0
 10 43  1  0
 13 44  1  0
 14 45  1  0
 16 46  1  1
 17 47  1  0
 17 48  1  0
 18 49  1  0
 18 50  1  0
 19 51  1  1
 21 52  1  0
 23 53  1  0
 25 54  1  0
M  END
$$$$
[H]N=C(N([H])[H])N([H])C([H])([H])C([H])([H])C([H])([H])[C@@]1([H])C(=O)N([H])[C@@]([H])(C([H])([H])c2c([H])n([H])c3c([H])c([H])c([H])c([H])c23)C(=O)N([H])[C@@]([H])(C([H])(C([H])([H])[H])C([H])([H])[H])C(=O)N([H])[C@@]([H])(C([H])([H])c2c([H])c([H])c([H])c([H])c2[H])C(=O)N1[H]
     RDKit          3D

 83 86  0  0  0  0  0  0  0  0999 V2000
   -1.5285   -4.7074    0.8531 C   0  0  0  0  0  0  0  0  0  0  0  0
   -0.4343   -4.1935   -0.0166 C   0  0  0  0  0  0  0  0  0  0  0  0
   -0.4737   -4.8874   -1.3494 C   0  0  0  0  0  0  0  0  0  0  0  0
   -0.3378   -2.6885   -0.1052 C   0  0  2  0  0  0  0  0  0  0  0  0
   -0.0941   -2.2156    1.2290 N   0  0  0  0  0  0  0  0  0  0  0  0
    1.1157   -1.5457    1.5996 C   0  0  0  0  0  0  0  0  0  0  0  0
    1.1638   -1.1265    2.7856 O   0  0  0  0  0  0  0  0  0  0  0  0
    2.2746   -1.3105    0.7454 C   0  0  2  0  0  0  0  0  0  0  0  0
    3.5289   -1.1952    1.5666 C   0  0  0  0  0  0  0  0  0  0  0  0
    4.7840   -0.9521    0.8677 C   0  0  0  0  0  0  0  0  0  0  0  0
    5.5756   -2.0264    0.4125 C   0  0  0  0  0  0  0  0  0  0  0  0
    6.6220   -1.4914   -0.2237 N   0  0  0  0  0  0  0  0  0  0  0  0
    6.5526   -0.1525   -0.2045 C   0  0  0  0  0  0  0  0  0  0  0  0
    7.3724    0.8368   -0.6950 C   0  0  0  0  0  0  0  0  0  0  0  0
    7.0551    2.1697   -0.5076 C   0  0  0  0  0  0  0  0  0  0  0  0
    5.9046    2.5190    0.1782 C   0  0  0  0  0  0  0  0  0  0  0  0
    5.0783    1.5353    0.6718 C   0  0  0  0  0  0  0  0  0  0  0  0
    5.4219    0.2044    0.4673 C   0  0  0  0  0  0  0  0  0  0  0  0
    2.2289   -0.3685   -0.3019 N   0  0  0  0  0  0  0  0  0  0  0  0
    1.3149    0.4787   -0.8820 C   0  0  0  0  0  0  0  0  0  0  0  0
    1.1518    0.2724   -2.1675 O   0  0  0  0  0  0  0  0  0  0  0  0
    0.4685    1.5772   -0.3838 C   0  0  2  0  0  0  0  0  0  0  0  0
    1.3212    2.8270   -0.0999 C   0  0  0  0  0  0  0  0  0  0  0  0
    0.4873    3.9358    0.3968 C   0  0  0  0  0  0  0  0  0  0  0  0
   -0.5365    4.3630   -0.6008 C   0  0  0  0  0  0  0  0  0  0  0  0
   -1.2911    5.4899   -0.0334 N   0  0  0  0  0  0  0  0  0  0  0  0
   -2.3094    6.0550   -0.8401 C   0  0  0  0  0  0  0  0  0  0  0  0
   -3.6367    6.1207   -0.3133 N   0  0  0  0  0  0  0  0  0  0  0  0
   -2.0108    6.4867   -2.0067 N   0  0  0  0  0  0  0  0  0  0  0  0
   -0.3584    1.3050    0.7426 N   0  0  0  0  0  0  0  0  0  0  0  0
   -1.6748    0.9484    0.8985 C   0  0  0  0  0  0  0  0  0  0  0  0
   -2.2779    1.4287    1.9417 O   0  0  0  0  0  0  0  0  0  0  0  0
   -2.5909    0.0915    0.0853 C   0  0  2  0  0  0  0  0  0  0  0  0
   -3.7524   -0.3368    0.9356 C   0  0  0  0  0  0  0  0  0  0  0  0
   -4.7832   -1.1640    0.3459 C   0  0  0  0  0  0  0  0  0  0  0  0
   -5.8173   -0.6545   -0.4505 C   0  0  0  0  0  0  0  0  0  0  0  0
   -6.8163   -1.4223   -0.9603 C   0  0  0  0  0  0  0  0  0  0  0  0
   -6.8598   -2.7583   -0.7140 C   0  0  0  0  0  0  0  0  0  0  0  0
   -5.8752   -3.3211    0.0605 C   0  0  0  0  0  0  0  0  0  0  0  0
   -4.8738   -2.5189    0.5652 C   0  0  0  0  0  0  0  0  0  0  0  0
   -2.0169   -0.8088   -0.8156 N   0  0  0  0  0  0  0  0  0  0  0  0
   -1.4946   -2.1094   -0.8049 C   0  0  0  0  0  0  0  0  0  0  0  0
   -2.1098   -2.9823   -1.5321 O   0  0  0  0  0  0  0  0  0  0  0  0
   -2.5400   -4.6047    0.3870 H   0  0  0  0  0  0  0  0  0  0  0  0
   -1.5587   -4.2738    1.8699 H   0  0  0  0  0  0  0  0  0  0  0  0
   -1.3547   -5.7958    0.9933 H   0  0  0  0  0  0  0  0  0  0  0  0
    0.5276   -4.5008    0.5077 H   0  0  0  0  0  0  0  0  0  0  0  0
   -1.4589   -5.3337   -1.5977 H   0  0  0  0  0  0  0  0  0  0  0  0
   -0.1000   -4.2278   -2.1585 H   0  0  0  0  0  0  0  0  0  0  0  0
    0.2537   -5.7496   -1.3327 H   0  0  0  0  0  0  0  0  0  0  0  0
    0.6169   -2.5298   -0.6922 H   0  0  0  0  0  0  0  0  0  0  0  0
   -0.8483   -2.3804    1.9293 H   0  0  0  0  0  0  0  0  0  0  0  0
    2.4304   -2.3614    0.2383 H   0  0  0  0  0  0  0  0  0  0  0  0
    3.6205   -2.0913    2.2631 H   0  0  0  0  0  0  0  0  0  0  0  0
    3.4205   -0.3460    2.3194 H   0  0  0  0  0  0  0  0  0  0  0  0
    5.3532   -3.0850    0.5642 H   0  0  0  0  0  0  0  0  0  0  0  0
    7.3813   -2.0447   -0.6697 H   0  0  0  0  0  0  0  0  0  0  0  0
    8.2709    0.5533   -1.2303 H   0  0  0  0  0  0  0  0  0  0  0  0
    7.6693    2.9606   -0.8755 H   0  0  0  0  0  0  0  0  0  0  0  0
    5.6610    3.5758    0.3224 H   0  0  0  0  0  0  0  0  0  0  0  0
    4.1830    1.7903    1.2165 H   0  0  0  0  0  0  0  0  0  0  0  0
    3.2093   -0.3613   -0.7905 H   0  0  0  0  0  0  0  0  0  0  0  0
   -0.2250    1.9421   -1.2047 H   0  0  0  0  0  0  0  0  0  0  0  0
    1.9384    3.0628   -0.9768 H   0  0  0  0  0  0  0  0  0  0  0  0
    2.0116    2.4664    0.7238 H   0  0  0  0  0  0  0  0  0  0  0  0
    0.0190    3.6953    1.3806 H   0  0  0  0  0  0  0  0  0  0  0  0
    1.1796    4.8033    0.6340 H   0  0  0  0  0  0  0  0  0  0  0  0
   -1.2380    3.5273   -0.8104 H   0  0  0  0  0  0  0  0  0  0  0  0
   -0.1037    4.7165   -1.5495 H   0  0  0  0  0  0  0  0  0  0  0  0
   -1.0570    5.8240    0.9145 H   0  0  0  0  0  0  0  0  0  0  0  0
   -4.1859    5.2645   -0.1414 H   0  0  0  0  0  0  0  0  0  0  0  0
   -4.0047    7.0778   -0.1179 H   0  0  0  0  0  0  0  0  0  0  0  0
   -1.0382    6.4187   -2.3443 H   0  0  0  0  0  0  0  0  0  0  0  0
    0.1889    1.4159    1.6724 H   0  0  0  0  0  0  0  0  0  0  0  0
   -3.1143    0.9456   -0.5401 H   0  0  0  0  0  0  0  0  0  0  0  0
   -4.1914    0.5456    1.4816 H   0  0  0  0  0  0  0  0  0  0  0  0
   -3.2845   -0.9530    1.7690 H   0  0  0  0  0  0  0  0  0  0  0  0
   -5.8096    0.4027   -0.6633 H   0  0  0  0  0  0  0  0  0  0  0  0
   -7.5908   -0.9430   -1.5766 H   0  0  0  0  0  0  0  0  0  0  0  0
   -7.6759   -3.3371   -1.1402 H   0  0  0  0  0  0  0  0  0  0  0  0
   -5.9318   -4.3841    0.2413 H   0  0  0  0  0  0  0  0  0  0  0  0
   -4.1355   -3.0208    1.1720 H   0  0  0  0  0  0  0  0  0  0  0  0
   -1.9559   -0.3723   -1.8352 H   0  0  0  0  0  0  0  0  0  0  0  0
  1  2  1  0
  2  3  1  0
  2  4  1  0
  4  5  1  0
  5  6  1  0
  6  7  2  0
  6  8  1  0
  8  9  1  0
  9 10  1  0
 10 11  2  0
 11 12  1  0
 12 13  1  0
 13 14  2  0
 14 15  1  0
 15 16  2  0
 16 17  1  0
 17 18  2  0
  8 19  1  0
 19 20  1  0
 20 21  2  0
 20 22  1  0
 22 23  1  0
 23 24  1  0
 24 25  1  0
 25 26  1  0
 26 27  1  0
 27 28  1  0
 27 29  2  3
 22 30  1  0
 30 31  1  0
 31 32  2  0
 31 33  1  0
 33 34  1  0
 34 35  1  0
 35 36  2  0
 36 37  1  0
 37 38  2  0
 38 39  1  0
 39 40  2  0
 33 41  1  0
 41 42  1  0
 42 43  2  0
 42  4  1  0
 18 10  1  0
 40 35  1  0
 18 13  1  0
  1 44  1  0
  1 45  1  0
  1 46  1  0
  2 47  1  0
  3 48  1  0
  3 49  1  0
  3 50  1  0
  4 51  1  6
  5 52  1  0
  8 53  1  6
  9 54  1  0
  9 55  1  0
 11 56  1  0
 12 57  1  0
 14 58  1  0
 15 59  1  0
 16 60  1  0
 17 61  1  0
 19 62  1  0
 22 63  1  6
 23 64  1  0
 23 65  1  0
 24 66  1  0
 24 67  1  0
 25 68  1  0
 25 69  1  0
 26 70  1  0
 28 71  1  0
 28 72  1  0
 29 73  1  0
 30 74  1  0
 33 75  1  6
 34 76  1  0
 34 77  1  0
 36 78  1  0
 37 79  1  0
 38 80  1  0
 39 81  1  0
 40 82  1  0
 41 83  1  0
M  END
$$$$
[H]c1c([H])c([H])c(C2([H])C([H])([H])C([H])([H])N([C@]3([H])C([H])([H])[C@@]4([H])O[C@@]([H])(N([H])S(=O)(=O)c5c([H])c([H])c(OC([H])([H])[H])c([H])c5[H])C([H])([H])[C@]43[H])C([H])([H])C2([H])[H])c([H])c1[H]
     RDKit          3D

 61 65  0  0  0  0  0  0  0  0999 V2000
   -9.4099    0.3975    1.7201 C   0  0  0  0  0  0  0  0  0  0  0  0
   -8.7961   -0.3858    0.7294 O   0  0  0  0  0  0  0  0  0  0  0  0
   -7.6369    0.0363    0.0996 C   0  0  0  0  0  0  0  0  0  0  0  0
   -7.0310    1.2321    0.4075 C   0  0  0  0  0  0  0  0  0  0  0  0
   -5.8600    1.6298   -0.2477 C   0  0  0  0  0  0  0  0  0  0  0  0
   -5.2640    0.8551   -1.2196 C   0  0  0  0  0  0  0  0  0  0  0  0
   -5.8688   -0.3385   -1.5270 C   0  0  0  0  0  0  0  0  0  0  0  0
   -7.0235   -0.7383   -0.8858 C   0  0  0  0  0  0  0  0  0  0  0  0
   -3.8086    1.3579   -2.0335 S   0  0  0  0  0  0  0  0  0  0  0  0
   -3.7433    0.7722   -3.4373 O   0  0  0  0  0  0  0  0  0  0  0  0
   -3.7760    2.8690   -2.1360 O   0  0  0  0  0  0  0  0  0  0  0  0
   -2.3945    0.8690   -1.2203 N   0  0  0  0  0  0  0  0  0  0  0  0
   -2.2328   -0.5447   -1.0875 C   0  0  1  0  0  0  0  0  0  0  0  0
   -0.9623   -1.0807   -1.6431 C   0  0  0  0  0  0  0  0  0  0  0  0
   -0.1554   -1.5095   -0.4647 C   0  0  1  0  0  0  0  0  0  0  0  0
    0.7767   -0.4402    0.0875 C   0  0  1  0  0  0  0  0  0  0  0  0
   -0.1357   -0.3056    1.2644 C   0  0  0  0  0  0  0  0  0  0  0  0
   -1.0727   -1.3133    0.6851 C   0  0  1  0  0  0  0  0  0  0  0  0
   -2.2901   -0.8643    0.2571 O   0  0  0  0  0  0  0  0  0  0  0  0
    2.1098   -0.8117    0.2941 N   0  0  0  0  0  0  0  0  0  0  0  0
    2.8340   -1.2013   -0.8469 C   0  0  0  0  0  0  0  0  0  0  0  0
    4.2390   -0.7174   -0.9556 C   0  0  0  0  0  0  0  0  0  0  0  0
    4.9775   -0.6259    0.3358 C   0  0  0  0  0  0  0  0  0  0  0  0
    4.1193    0.1517    1.3275 C   0  0  0  0  0  0  0  0  0  0  0  0
    2.7728   -0.5703    1.4888 C   0  0  0  0  0  0  0  0  0  0  0  0
    6.2674    0.0920    0.2229 C   0  0  0  0  0  0  0  0  0  0  0  0
    7.4512   -0.4926    0.6423 C   0  0  0  0  0  0  0  0  0  0  0  0
    8.6304    0.2002    0.5224 C   0  0  0  0  0  0  0  0  0  0  0  0
    8.6970    1.4632   -0.0006 C   0  0  0  0  0  0  0  0  0  0  0  0
    7.5200    2.0465   -0.4183 C   0  0  0  0  0  0  0  0  0  0  0  0
    6.3385    1.3604   -0.3015 C   0  0  0  0  0  0  0  0  0  0  0  0
   -8.9285    0.2518    2.7297 H   0  0  0  0  0  0  0  0  0  0  0  0
  -10.4747    0.1276    1.8792 H   0  0  0  0  0  0  0  0  0  0  0  0
   -9.3998    1.4590    1.4375 H   0  0  0  0  0  0  0  0  0  0  0  0
   -7.4404    1.8865    1.1554 H   0  0  0  0  0  0  0  0  0  0  0  0
   -5.3742    2.5674   -0.0153 H   0  0  0  0  0  0  0  0  0  0  0  0
   -5.4150   -0.9717   -2.2954 H   0  0  0  0  0  0  0  0  0  0  0  0
   -7.5067   -1.6795   -1.1224 H   0  0  0  0  0  0  0  0  0  0  0  0
   -2.2077    1.3758   -0.3441 H   0  0  0  0  0  0  0  0  0  0  0  0
   -3.0986   -1.0925   -1.5658 H   0  0  0  0  0  0  0  0  0  0  0  0
   -0.4299   -0.3264   -2.2548 H   0  0  0  0  0  0  0  0  0  0  0  0
   -1.1556   -1.9916   -2.2825 H   0  0  0  0  0  0  0  0  0  0  0  0
    0.3214   -2.5075   -0.5618 H   0  0  0  0  0  0  0  0  0  0  0  0
    0.7211    0.4571   -0.5979 H   0  0  0  0  0  0  0  0  0  0  0  0
   -0.6165    0.6943    1.3118 H   0  0  0  0  0  0  0  0  0  0  0  0
    0.2765   -0.5382    2.2634 H   0  0  0  0  0  0  0  0  0  0  0  0
   -1.2356   -2.2291    1.3226 H   0  0  0  0  0  0  0  0  0  0  0  0
    2.2743   -0.8455   -1.7620 H   0  0  0  0  0  0  0  0  0  0  0  0
    2.8460   -2.3140   -0.9759 H   0  0  0  0  0  0  0  0  0  0  0  0
    4.2170    0.3108   -1.4251 H   0  0  0  0  0  0  0  0  0  0  0  0
    4.7945   -1.3326   -1.7085 H   0  0  0  0  0  0  0  0  0  0  0  0
    5.1663   -1.6577    0.7194 H   0  0  0  0  0  0  0  0  0  0  0  0
    4.6007    0.1822    2.3165 H   0  0  0  0  0  0  0  0  0  0  0  0
    3.9193    1.1512    0.8906 H   0  0  0  0  0  0  0  0  0  0  0  0
    3.0627   -1.5595    1.9533 H   0  0  0  0  0  0  0  0  0  0  0  0
    2.2356   -0.0287    2.2735 H   0  0  0  0  0  0  0  0  0  0  0  0
    7.4400   -1.4964    1.0629 H   0  0  0  0  0  0  0  0  0  0  0  0
    9.5715   -0.2413    0.8471 H   0  0  0  0  0  0  0  0  0  0  0  0
    9.6024    2.0184   -0.1019 H   0  0  0  0  0  0  0  0  0  0  0  0
    7.5199    3.0604   -0.8461 H   0  0  0  0  0  0  0  0  0  0  0  0
    5.4420    1.8768   -0.6498 H   0  0  0  0  0  0  0  0  0  0  0  0
  1  2  1  0
  2  3  1  0
  3  4  2  0
  4  5  1  0
  5  6  2  0
  6  7  1  0
  7  8  2  0
  6  9  1  0
  9 10  2  0
  9 11  2  0
  9 12  1  0
 12 13  1  0
 13 14  1  0
 14 15  1  0
 15 16  1  0
 16 17  1  0
 17 18  1  0
 18 19  1  0
 16 20  1  0
 20 21  1  0
 21 22  1  0
 22 23  1  0
 23 24  1  0
 24 25  1  0
 23 26  1  0
 26 27  2  0
 27 28  1  0
 28 29  2  0
 29 30  1  0
 30 31  2  0
  8  3  1  0
 19 13  1  0
 25 20  1  0
 31 26  1  0
 18 15  1  0
  1 32  1  0
  1 33  1  0
  1 34  1  0
  4 35  1  0
  5 36  1  0
  7 37  1  0
  8 38  1  0
 12 39  1  0
 13 40  1  6
 14 41  1  0
 14 42  1  0
 15 43  1  6
 16 44  1  6
 17 45  1  0
 17 46  1  0
 18 47  1  1
 21 48  1  0
 21 49  1  0
 22 50  1  0
 22 51  1  0
 23 52  1  0
 24 53  1  0
 24 54  1  0
 25 55  1  0
 25 56  1  0
 27 57  1  0
 28 58  1  0
 29 59  1  0
 30 60  1  0
 31 61  1  0
M  END
$$$$
[H]c1c([H])c(C(=O)N([H])c2c([H])c([H])c(S(=O)(=O)N([H])[H])c([H])c2[H])c([H])c(C(F)(F)F)c1[H]
     RDKit          3D

 34 35  0  0  0  0  0  0  0  0999 V2000
    6.3605    1.0346    0.9563 N   0  0  0  0  0  0  0  0  0  0  0  0
    5.6640    0.5688   -0.5256 S   0  0  0  0  0  0  0  0  0  0  0  0
    6.2944   -0.6664   -1.0551 O   0  0  0  0  0  0  0  0  0  0  0  0
    5.8448    1.7551   -1.4727 O   0  0  0  0  0  0  0  0  0  0  0  0
    3.9142    0.3438   -0.3809 C   0  0  0  0  0  0  0  0  0  0  0  0
    3.4240   -0.6897    0.3588 C   0  0  0  0  0  0  0  0  0  0  0  0
    2.0537   -0.9294    0.4629 C   0  0  0  0  0  0  0  0  0  0  0  0
    1.1505   -0.1211   -0.1897 C   0  0  0  0  0  0  0  0  0  0  0  0
   -0.2284   -0.2873   -0.1700 N   0  0  0  0  0  0  0  0  0  0  0  0
   -1.0260   -1.2637    0.4623 C   0  0  0  0  0  0  0  0  0  0  0  0
   -0.5972   -2.1986    1.1400 O   0  0  0  0  0  0  0  0  0  0  0  0
   -2.5001   -1.1551    0.2941 C   0  0  0  0  0  0  0  0  0  0  0  0
   -3.2788   -2.2611    0.1621 C   0  0  0  0  0  0  0  0  0  0  0  0
   -4.6463   -2.0184   -0.0385 C   0  0  0  0  0  0  0  0  0  0  0  0
   -5.1535   -0.7350   -0.0927 C   0  0  0  0  0  0  0  0  0  0  0  0
   -4.3568    0.3713    0.0473 C   0  0  0  0  0  0  0  0  0  0  0  0
   -3.0086    0.1192    0.2437 C   0  0  0  0  0  0  0  0  0  0  0  0
   -4.8448    1.7797   -0.0011 C   0  0  0  0  0  0  0  0  0  0  0  0
   -5.6347    1.9978   -1.1076 F   0  0  0  0  0  0  0  0  0  0  0  0
   -3.7365    2.6279   -0.1794 F   0  0  0  0  0  0  0  0  0  0  0  0
   -5.4970    2.1530    1.1358 F   0  0  0  0  0  0  0  0  0  0  0  0
    1.7081    0.9371   -0.9405 C   0  0  0  0  0  0  0  0  0  0  0  0
    3.0427    1.1629   -1.0350 C   0  0  0  0  0  0  0  0  0  0  0  0
    6.2401    0.3036    1.7056 H   0  0  0  0  0  0  0  0  0  0  0  0
    6.1358    1.9819    1.2916 H   0  0  0  0  0  0  0  0  0  0  0  0
    4.0923   -1.3842    0.9019 H   0  0  0  0  0  0  0  0  0  0  0  0
    1.7180   -1.7614    1.0759 H   0  0  0  0  0  0  0  0  0  0  0  0
   -0.7932    0.4468   -0.7414 H   0  0  0  0  0  0  0  0  0  0  0  0
   -2.8985   -3.2756    0.2028 H   0  0  0  0  0  0  0  0  0  0  0  0
   -5.2901   -2.8714   -0.1416 H   0  0  0  0  0  0  0  0  0  0  0  0
   -6.2087   -0.5556   -0.2609 H   0  0  0  0  0  0  0  0  0  0  0  0
   -2.3799    1.0158    0.3885 H   0  0  0  0  0  0  0  0  0  0  0  0
    0.9876    1.5850   -1.4663 H   0  0  0  0  0  0  0  0  0  0  0  0
    3.4486    1.9895   -1.6299 H   0  0  0  0  0  0  0  0  0  0  0  0
  1  2  1  0
  2  3  2  0
  2  4  2  0
  2  5  1  0
  5  6  2  0
  6  7  1  0
  7  8  2  0
  8  9  1  0
  9 10  1  0
 10 11  2  0
 10 12  1  0
 12 13  2  0
 13 14  1  0
 14 15  2  0
 15 16  1  0
 16 17  2  0
 16 18  1  0
 18 19  1  0
 18 20  1  0
 18 21  1  0
  8 22  1  0
 22 23  2  0
 23  5  1  0
 17 12  1  0
  1 24  1  0
  1 25  1  0
  6 26  1  0
  7 27  1  0
  9 28  1  0
 13 29  1  0
 14 30  1  0
 15 31  1  0
 17 32  1  0
 22 33  1  0
 23 34  1  0
M  END
$$$$
[H]c1c(C(=O)N([H])c2c([H])c([H])c(C(F)(F)F)c([H])c2[H])nc(C(F)(F)F)nc1N1C([H])([H])C([H])([H])N(C(C([H])([H])[H])(C([H])([H])[H])C([H])([H])[H])C([H])([H])[C@@]1([H])C([H])([H])[H]
     RDKit          3D

 59 61  0  0  0  0  0  0  0  0999 V2000
   -1.8460   -1.7825    1.7260 C   0  0  0  0  0  0  0  0  0  0  0  0
   -1.9654   -0.3814    1.1360 C   0  0  2  0  0  0  0  0  0  0  0  0
   -3.2924    0.1815    1.5790 C   0  0  0  0  0  0  0  0  0  0  0  0
   -4.4206   -0.2561    0.8555 N   0  0  0  0  0  0  0  0  0  0  0  0
   -4.2322   -1.0540   -0.2678 C   0  0  0  0  0  0  0  0  0  0  0  0
   -3.0790   -0.5136   -1.0775 C   0  0  0  0  0  0  0  0  0  0  0  0
   -1.8841   -0.3521   -0.2828 N   0  0  0  0  0  0  0  0  0  0  0  0
   -0.6575   -0.1808   -0.9759 C   0  0  0  0  0  0  0  0  0  0  0  0
    0.5726   -0.2432   -0.3273 C   0  0  0  0  0  0  0  0  0  0  0  0
    1.7733   -0.0716   -0.9732 C   0  0  0  0  0  0  0  0  0  0  0  0
    1.7232    0.1699   -2.3056 N   0  0  0  0  0  0  0  0  0  0  0  0
    0.5562    0.2376   -2.9672 C   0  0  0  0  0  0  0  0  0  0  0  0
   -0.6010    0.0647   -2.3083 N   0  0  0  0  0  0  0  0  0  0  0  0
    0.5467    0.5008   -4.4231 C   0  0  0  0  0  0  0  0  0  0  0  0
    1.2472   -0.4906   -5.1205 F   0  0  0  0  0  0  0  0  0  0  0  0
   -0.7428    0.4446   -4.9405 F   0  0  0  0  0  0  0  0  0  0  0  0
    1.0908    1.7102   -4.7667 F   0  0  0  0  0  0  0  0  0  0  0  0
    3.0571   -0.1691   -0.2463 C   0  0  0  0  0  0  0  0  0  0  0  0
    3.0185   -0.4487    0.9463 O   0  0  0  0  0  0  0  0  0  0  0  0
    4.2250    0.0644   -0.9782 N   0  0  0  0  0  0  0  0  0  0  0  0
    5.5115   -0.0176   -0.4175 C   0  0  0  0  0  0  0  0  0  0  0  0
    6.5620    0.7265   -0.9739 C   0  0  0  0  0  0  0  0  0  0  0  0
    7.8539    0.6693   -0.5107 C   0  0  0  0  0  0  0  0  0  0  0  0
    8.1721   -0.1444    0.5466 C   0  0  0  0  0  0  0  0  0  0  0  0
    7.1712   -0.8938    1.1247 C   0  0  0  0  0  0  0  0  0  0  0  0
    5.8524   -0.8213    0.6353 C   0  0  0  0  0  0  0  0  0  0  0  0
    9.5339   -0.2909    1.1217 C   0  0  0  0  0  0  0  0  0  0  0  0
    9.4957    0.0717    2.4347 F   0  0  0  0  0  0  0  0  0  0  0  0
    9.8128   -1.6633    1.0532 F   0  0  0  0  0  0  0  0  0  0  0  0
   10.4753    0.4019    0.3973 F   0  0  0  0  0  0  0  0  0  0  0  0
   -5.6127    0.4822    1.0139 C   0  0  0  0  0  0  0  0  0  0  0  0
   -5.4206    1.9058    0.5195 C   0  0  0  0  0  0  0  0  0  0  0  0
   -5.9887    0.5044    2.4837 C   0  0  0  0  0  0  0  0  0  0  0  0
   -6.7433   -0.1938    0.2756 C   0  0  0  0  0  0  0  0  0  0  0  0
   -0.8518   -1.9370    2.2144 H   0  0  0  0  0  0  0  0  0  0  0  0
   -2.5878   -1.9125    2.5411 H   0  0  0  0  0  0  0  0  0  0  0  0
   -1.9121   -2.5749    0.9476 H   0  0  0  0  0  0  0  0  0  0  0  0
   -1.1436    0.2098    1.6211 H   0  0  0  0  0  0  0  0  0  0  0  0
   -3.2392    1.2918    1.5270 H   0  0  0  0  0  0  0  0  0  0  0  0
   -3.4239   -0.0433    2.6797 H   0  0  0  0  0  0  0  0  0  0  0  0
   -5.1127   -1.0238   -0.9375 H   0  0  0  0  0  0  0  0  0  0  0  0
   -4.0255   -2.1300   -0.0935 H   0  0  0  0  0  0  0  0  0  0  0  0
   -3.3069    0.4626   -1.5437 H   0  0  0  0  0  0  0  0  0  0  0  0
   -2.8020   -1.1922   -1.9122 H   0  0  0  0  0  0  0  0  0  0  0  0
    0.5566   -0.4368    0.7275 H   0  0  0  0  0  0  0  0  0  0  0  0
    4.1971    0.3168   -2.0128 H   0  0  0  0  0  0  0  0  0  0  0  0
    6.2914    1.3692   -1.8126 H   0  0  0  0  0  0  0  0  0  0  0  0
    8.6505    1.2584   -0.9571 H   0  0  0  0  0  0  0  0  0  0  0  0
    7.3922   -1.5489    1.9648 H   0  0  0  0  0  0  0  0  0  0  0  0
    5.1004   -1.4409    1.1116 H   0  0  0  0  0  0  0  0  0  0  0  0
   -5.2645    2.5416    1.4247 H   0  0  0  0  0  0  0  0  0  0  0  0
   -6.3259    2.2371   -0.0238 H   0  0  0  0  0  0  0  0  0  0  0  0
   -4.4996    1.9740   -0.1227 H   0  0  0  0  0  0  0  0  0  0  0  0
   -5.4946    1.3606    2.9491 H   0  0  0  0  0  0  0  0  0  0  0  0
   -5.7019   -0.4442    2.9419 H   0  0  0  0  0  0  0  0  0  0  0  0
   -7.0903    0.6591    2.5135 H   0  0  0  0  0  0  0  0  0  0  0  0
   -6.6746   -1.2988    0.3236 H   0  0  0  0  0  0  0  0  0  0  0  0
   -6.7669    0.1344   -0.8032 H   0  0  0  0  0  0  0  0  0  0  0  0
   -7.7294    0.0523    0.7454 H   0  0  0  0  0  0  0  0  0  0  0  0
  1  2  1  0
  2  3  1  0
  3  4  1  0
  4  5  1  0
  5  6  1  0
  6  7  1  0
  7  8  1  0
  8  9  2  0
  9 10  1  0
 10 11  2  0
 11 12  1  0
 12 13  2  0
 12 14  1  0
 14 15  1  0
 14 16  1  0
 14 17  1  0
 10 18  1  0
 18 19  2  0
 18 20  1  0
 20 21  1  0
 21 22  2  0
 22 23  1  0
 23 24  2  0
 24 25  1  0
 25 26  2  0
 24 27  1  0
 27 28  1  0
 27 29  1  0
 27 30  1  0
  4 31  1  0
 31 32  1  0
 31 33  1  0
 31 34  1  0
  7  2  1  0
 13  8  1  0
 26 21  1  0
  1 35  1  0
  1 36  1  0
  1 37  1  0
  2 38  1  1
  3 39  1  0
  3 40  1  0
  5 41  1  0
  5 42  1  0
  6 43  1  0
  6 44  1  0
  9 45  1  0
 20 46  1  0
 22 47  1  0
 23 48  1  0
 25 49  1  0
 26 50  1  0
 32 51  1  0
 32 52  1  0
 32 53  1  0
 33 54  1  0
 33 55  1  0
 33 56  1  0
 34 57  1  0
 34 58  1  0
 34 59  1  0
M  END
$$$$
[H]N=C(N([H])[H])N([H])C([H])([H])C([H])([H])C([H])([H])[C@@]1([H])C(=O)c2c([H])c([H])c([H])c([H])c2[C@]([H])(N([H])C(=O)OC(C([H])([H])[H])(C([H])([H])[H])C([H])([H])[H])[C@@]([H])(C([H])([H])C([H])([H])C([H])([H])N=C(N([H])[H])N([H])[H])C(=O)N([H])[C@@]([H])(C([H])([H])C([H])([H])C([H])([H])N([H])C(=N[H])N([H])[H])C(=O)N([H])[C@@]([H])(C([H])([H])C([H])([H])C([H])([H])N([H])C(=N[H])N([H])[H])C(=O)N1[H]
     RDKit          3D

120121  0  0  0  0  0  0  0  0999 V2000
   -4.8213    0.6158    3.7291 C   0  0  0  0  0  0  0  0  0  0  0  0
   -3.3436    0.5266    3.5259 C   0  0  0  0  0  0  0  0  0  0  0  0
   -2.8606   -0.8470    3.9427 C   0  0  0  0  0  0  0  0  0  0  0  0
   -2.7385    1.4850    4.5791 C   0  0  0  0  0  0  0  0  0  0  0  0
   -2.8605    0.9599    2.2929 O   0  0  0  0  0  0  0  0  0  0  0  0
   -3.3276    0.3513    1.0714 C   0  0  0  0  0  0  0  0  0  0  0  0
   -4.1669   -0.5493    1.3497 O   0  0  0  0  0  0  0  0  0  0  0  0
   -2.8630    0.7739   -0.1369 N   0  0  0  0  0  0  0  0  0  0  0  0
   -2.4015    1.1907   -1.4005 C   0  0  2  0  0  0  0  0  0  0  0  0
   -1.7337    0.0900   -2.1718 C   0  0  1  0  0  0  0  0  0  0  0  0
   -2.7060   -0.7452   -3.0233 C   0  0  0  0  0  0  0  0  0  0  0  0
   -3.4499   -0.0643   -4.0747 C   0  0  0  0  0  0  0  0  0  0  0  0
   -4.3894   -0.9690   -4.8223 C   0  0  0  0  0  0  0  0  0  0  0  0
   -3.8015   -2.0724   -5.5230 N   0  0  0  0  0  0  0  0  0  0  0  0
   -4.4416   -2.6025   -6.5443 C   0  0  0  0  0  0  0  0  0  0  0  0
   -5.6766   -2.0463   -6.8884 N   0  0  0  0  0  0  0  0  0  0  0  0
   -3.8773   -3.6727   -7.2333 N   0  0  0  0  0  0  0  0  0  0  0  0
   -0.4646    0.2491   -2.8018 C   0  0  0  0  0  0  0  0  0  0  0  0
   -0.0357    1.2915   -3.4150 O   0  0  0  0  0  0  0  0  0  0  0  0
    0.5187   -0.7970   -2.8135 N   0  0  0  0  0  0  0  0  0  0  0  0
    0.9090   -1.6034   -1.6827 C   0  0  1  0  0  0  0  0  0  0  0  0
    0.1425   -2.8755   -1.6705 C   0  0  0  0  0  0  0  0  0  0  0  0
    0.5622   -3.7298   -0.4854 C   0  0  0  0  0  0  0  0  0  0  0  0
   -0.4206   -4.9039   -0.4878 C   0  0  0  0  0  0  0  0  0  0  0  0
   -1.7300   -4.3119   -0.2492 N   0  0  0  0  0  0  0  0  0  0  0  0
   -2.8697   -5.1349   -0.2284 C   0  0  0  0  0  0  0  0  0  0  0  0
   -4.0084   -4.7795   -0.9892 N   0  0  0  0  0  0  0  0  0  0  0  0
   -2.8560   -6.1967    0.4948 N   0  0  0  0  0  0  0  0  0  0  0  0
    2.3770   -1.8453   -1.8006 C   0  0  0  0  0  0  0  0  0  0  0  0
    2.7186   -2.5158   -2.8246 O   0  0  0  0  0  0  0  0  0  0  0  0
    3.3461   -1.3921   -0.8814 N   0  0  0  0  0  0  0  0  0  0  0  0
    3.1317   -0.3332    0.0993 C   0  0  1  0  0  0  0  0  0  0  0  0
    4.4572   -0.2135    0.8761 C   0  0  0  0  0  0  0  0  0  0  0  0
    4.7968   -1.4823    1.5722 C   0  0  0  0  0  0  0  0  0  0  0  0
    6.1243   -1.3036    2.3226 C   0  0  0  0  0  0  0  0  0  0  0  0
    6.4885   -2.5284    3.0037 N   0  0  0  0  0  0  0  0  0  0  0  0
    7.6762   -2.5798    3.7585 C   0  0  0  0  0  0  0  0  0  0  0  0
    7.6792   -2.8521    5.1321 N   0  0  0  0  0  0  0  0  0  0  0  0
    8.8409   -2.3635    3.1789 N   0  0  0  0  0  0  0  0  0  0  0  0
    2.8407    0.9747   -0.5144 C   0  0  0  0  0  0  0  0  0  0  0  0
    3.8090    1.3883   -1.2829 O   0  0  0  0  0  0  0  0  0  0  0  0
    1.7500    1.7954   -0.4061 N   0  0  0  0  0  0  0  0  0  0  0  0
    0.7648    1.7450    0.6493 C   0  0  1  0  0  0  0  0  0  0  0  0
    1.6051    2.0397    1.9105 C   0  0  0  0  0  0  0  0  0  0  0  0
    2.2982    3.3595    1.8135 C   0  0  0  0  0  0  0  0  0  0  0  0
    3.2318    3.6738    2.9350 C   0  0  0  0  0  0  0  0  0  0  0  0
    3.8105    4.9843    2.6841 N   0  0  0  0  0  0  0  0  0  0  0  0
    2.9256    6.1363    2.8226 C   0  0  0  0  0  0  0  0  0  0  0  0
    2.5402    6.6095    4.0797 N   0  0  0  0  0  0  0  0  0  0  0  0
    2.5545    6.6543    1.7348 N   0  0  0  0  0  0  0  0  0  0  0  0
   -0.2923    2.7568    0.5246 C   0  0  0  0  0  0  0  0  0  0  0  0
   -0.6220    3.3425    1.6309 O   0  0  0  0  0  0  0  0  0  0  0  0
   -1.0501    3.2472   -0.6193 C   0  0  0  0  0  0  0  0  0  0  0  0
   -0.8030    4.6338   -0.8653 C   0  0  0  0  0  0  0  0  0  0  0  0
   -1.3506    5.2995   -1.9155 C   0  0  0  0  0  0  0  0  0  0  0  0
   -2.1701    4.6517   -2.7856 C   0  0  0  0  0  0  0  0  0  0  0  0
   -2.4227    3.3204   -2.5601 C   0  0  0  0  0  0  0  0  0  0  0  0
   -1.8827    2.5739   -1.4788 C   0  0  0  0  0  0  0  0  0  0  0  0
   -5.3143    0.8799    2.7715 H   0  0  0  0  0  0  0  0  0  0  0  0
   -5.2637   -0.3488    4.0919 H   0  0  0  0  0  0  0  0  0  0  0  0
   -5.1252    1.4028    4.4726 H   0  0  0  0  0  0  0  0  0  0  0  0
   -2.7805   -1.5472    3.0937 H   0  0  0  0  0  0  0  0  0  0  0  0
   -1.8940   -0.7777    4.5073 H   0  0  0  0  0  0  0  0  0  0  0  0
   -3.5967   -1.2839    4.6526 H   0  0  0  0  0  0  0  0  0  0  0  0
   -3.5196    2.2381    4.8736 H   0  0  0  0  0  0  0  0  0  0  0  0
   -2.4971    0.9162    5.4766 H   0  0  0  0  0  0  0  0  0  0  0  0
   -1.8602    2.0058    4.1975 H   0  0  0  0  0  0  0  0  0  0  0  0
   -3.6231   -0.1606   -0.7408 H   0  0  0  0  0  0  0  0  0  0  0  0
   -3.4361    1.2217   -1.9996 H   0  0  0  0  0  0  0  0  0  0  0  0
   -1.5222   -0.6616   -1.3125 H   0  0  0  0  0  0  0  0  0  0  0  0
   -3.3580   -1.2919   -2.3159 H   0  0  0  0  0  0  0  0  0  0  0  0
   -2.1002   -1.5902   -3.5005 H   0  0  0  0  0  0  0  0  0  0  0  0
   -2.8240    0.5430   -4.7777 H   0  0  0  0  0  0  0  0  0  0  0  0
   -4.1322    0.7227   -3.6306 H   0  0  0  0  0  0  0  0  0  0  0  0
   -5.0781   -0.3786   -5.4951 H   0  0  0  0  0  0  0  0  0  0  0  0
   -5.1130   -1.4198   -4.0806 H   0  0  0  0  0  0  0  0  0  0  0  0
   -5.8333   -1.6102   -7.8093 H   0  0  0  0  0  0  0  0  0  0  0  0
   -6.4510   -2.0754   -6.1922 H   0  0  0  0  0  0  0  0  0  0  0  0
   -3.3516   -3.5552   -8.1324 H   0  0  0  0  0  0  0  0  0  0  0  0
   -3.9883   -4.6397   -6.8325 H   0  0  0  0  0  0  0  0  0  0  0  0
    1.0271   -1.0258   -3.7313 H   0  0  0  0  0  0  0  0  0  0  0  0
    0.7896   -1.0423   -0.7080 H   0  0  0  0  0  0  0  0  0  0  0  0
    0.4920   -3.4435   -2.6069 H   0  0  0  0  0  0  0  0  0  0  0  0
   -0.9194   -2.8014   -1.6967 H   0  0  0  0  0  0  0  0  0  0  0  0
    0.4650   -3.1276    0.4220 H   0  0  0  0  0  0  0  0  0  0  0  0
    1.5649   -4.1553   -0.6166 H   0  0  0  0  0  0  0  0  0  0  0  0
   -0.1227   -5.6584    0.2355 H   0  0  0  0  0  0  0  0  0  0  0  0
   -0.4554   -5.3396   -1.5056 H   0  0  0  0  0  0  0  0  0  0  0  0
   -1.8704   -3.2865   -0.0796 H   0  0  0  0  0  0  0  0  0  0  0  0
   -4.7161   -4.1016   -0.6252 H   0  0  0  0  0  0  0  0  0  0  0  0
   -4.1411   -5.1982   -1.9328 H   0  0  0  0  0  0  0  0  0  0  0  0
   -3.7225   -6.7899    0.4906 H   0  0  0  0  0  0  0  0  0  0  0  0
    4.2851   -1.8988   -0.9567 H   0  0  0  0  0  0  0  0  0  0  0  0
    2.3713   -0.6503    0.8466 H   0  0  0  0  0  0  0  0  0  0  0  0
    5.2341    0.0030    0.1316 H   0  0  0  0  0  0  0  0  0  0  0  0
    4.4100    0.6043    1.6201 H   0  0  0  0  0  0  0  0  0  0  0  0
    4.0559   -1.7514    2.3698 H   0  0  0  0  0  0  0  0  0  0  0  0
    4.9428   -2.3420    0.9229 H   0  0  0  0  0  0  0  0  0  0  0  0
    6.9037   -1.0459    1.6042 H   0  0  0  0  0  0  0  0  0  0  0  0
    6.0551   -0.4502    3.0608 H   0  0  0  0  0  0  0  0  0  0  0  0
    5.8768   -3.3562    2.9274 H   0  0  0  0  0  0  0  0  0  0  0  0
    6.7662   -3.1112    5.5982 H   0  0  0  0  0  0  0  0  0  0  0  0
    8.5631   -2.8036    5.6830 H   0  0  0  0  0  0  0  0  0  0  0  0
    8.8058   -2.1573    2.1361 H   0  0  0  0  0  0  0  0  0  0  0  0
    1.5999    2.5498   -1.1662 H   0  0  0  0  0  0  0  0  0  0  0  0
    0.3171    0.7619    0.8086 H   0  0  0  0  0  0  0  0  0  0  0  0
    0.7860    2.2049    2.7009 H   0  0  0  0  0  0  0  0  0  0  0  0
    2.1610    1.2060    2.2842 H   0  0  0  0  0  0  0  0  0  0  0  0
    1.5909    4.2349    1.7362 H   0  0  0  0  0  0  0  0  0  0  0  0
    2.8652    3.4162    0.8368 H   0  0  0  0  0  0  0  0  0  0  0  0
    4.0672    2.9345    3.0212 H   0  0  0  0  0  0  0  0  0  0  0  0
    2.6643    3.7903    3.8940 H   0  0  0  0  0  0  0  0  0  0  0  0
    4.7820    5.1679    2.4182 H   0  0  0  0  0  0  0  0  0  0  0  0
    1.6759    6.2494    4.5562 H   0  0  0  0  0  0  0  0  0  0  0  0
    3.1504    7.3485    4.5368 H   0  0  0  0  0  0  0  0  0  0  0  0
    1.9503    7.4532    1.5602 H   0  0  0  0  0  0  0  0  0  0  0  0
   -0.1919    5.2403   -0.1953 H   0  0  0  0  0  0  0  0  0  0  0  0
   -1.1593    6.3695   -2.1033 H   0  0  0  0  0  0  0  0  0  0  0  0
   -2.6266    5.1545   -3.6479 H   0  0  0  0  0  0  0  0  0  0  0  0
   -3.0920    2.8490   -3.2849 H   0  0  0  0  0  0  0  0  0  0  0  0
  1  2  1  0
  2  3  1  0
  2  4  1  0
  2  5  1  0
  5  6  1  0
  6  7  2  0
  6  8  1  0
  8  9  1  0
  9 10  1  0
 10 11  1  0
 11 12  1  0
 12 13  1  0
 13 14  1  0
 14 15  2  3
 15 16  1  0
 15 17  1  0
 10 18  1  0
 18 19  2  0
 18 20  1  0
 20 21  1  0
 21 22  1  0
 22 23  1  0
 23 24  1  0
 24 25  1  0
 25 26  1  0
 26 27  1  0
 26 28  2  3
 21 29  1  0
 29 30  2  0
 29 31  1  0
 31 32  1  0
 32 33  1  0
 33 34  1  0
 34 35  1  0
 35 36  1  0
 36 37  1  0
 37 38  1  0
 37 39  2  3
 32 40  1  0
 40 41  2  0
 40 42  1  0
 42 43  1  0
 43 44  1  0
 44 45  1  0
 45 46  1  0
 46 47  1  0
 47 48  1  0
 48 49  1  0
 48 50  2  3
 43 51  1  0
 51 52  2  0
 51 53  1  0
 53 54  2  0
 54 55  1  0
 55 56  2  0
 56 57  1  0
 57 58  2  0
 58  9  1  0
 58 53  1  0
  1 59  1  0
  1 60  1  0
  1 61  1  0
  3 62  1  0
  3 63  1  0
  3 64  1  0
  4 65  1  0
  4 66  1  0
  4 67  1  0
  8 68  1  0
  9 69  1  6
 10 70  1  1
 11 71  1  0
 11 72  1  0
 12 73  1  0
 12 74  1  0
 13 75  1  0
 13 76  1  0
 16 77  1  0
 16 78  1  0
 17 79  1  0
 17 80  1  0
 20 81  1  0
 21 82  1  1
 22 83  1  0
 22 84  1  0
 23 85  1  0
 23 86  1  0
 24 87  1  0
 24 88  1  0
 25 89  1  0
 27 90  1  0
 27 91  1  0
 28 92  1  0
 31 93  1  0
 32 94  1  1
 33 95  1  0
 33 96  1  0
 34 97  1  0
 34 98  1  0
 35 99  1  0
 35100  1  0
 36101  1  0
 38102  1  0
 38103  1  0
 39104  1  0
 42105  1  0
 43106  1  1
 44107  1  0
 44108  1  0
 45109  1  0
 45110  1  0
 46111  1  0
 46112  1  0
 47113  1  0
 49114  1  0
 49115  1  0
 50116  1  0
 54117  1  0
 55118  1  0
 56119  1  0
 57120  1  0
M  END
$$$$
[H]c1nc(N([H])c2c([H])c([H])c(N3C([H])([H])C([H])([H])C([H])(N4C([H])([H])C([H])([H])OC([H])([H])C4([H])[H])C([H])([H])C3([H])[H])c([H])c2OC([H])([H])[H])nc(N([H])c2c([H])c([H])c([H])c([H])c2S(=O)(=O)C2([H])C([H])([H])C2([H])[H])c1Cl
     RDKit          3D

 76 81  0  0  0  0  0  0  0  0999 V2000
   -0.6784   -0.8650    3.4925 C   0  0  0  0  0  0  0  0  0  0  0  0
    0.0145   -0.6295    2.2887 O   0  0  0  0  0  0  0  0  0  0  0  0
   -0.6994   -0.5591    1.1043 C   0  0  0  0  0  0  0  0  0  0  0  0
   -2.0497   -0.7202    1.1491 C   0  0  0  0  0  0  0  0  0  0  0  0
   -2.8220   -0.6613    0.0059 C   0  0  0  0  0  0  0  0  0  0  0  0
   -2.1574   -0.4322   -1.1752 C   0  0  0  0  0  0  0  0  0  0  0  0
   -0.7639   -0.2671   -1.2142 C   0  0  0  0  0  0  0  0  0  0  0  0
    0.0101   -0.3225   -0.0953 C   0  0  0  0  0  0  0  0  0  0  0  0
    1.3807   -0.1886   -0.0446 N   0  0  0  0  0  0  0  0  0  0  0  0
    2.2670    0.1120   -1.0884 C   0  0  0  0  0  0  0  0  0  0  0  0
    1.9226    0.3390   -2.3520 N   0  0  0  0  0  0  0  0  0  0  0  0
    2.7978    0.6186   -3.3163 C   0  0  0  0  0  0  0  0  0  0  0  0
    4.1437    0.6779   -2.9924 C   0  0  0  0  0  0  0  0  0  0  0  0
    5.3181    1.0380   -4.2045 Cl  0  0  0  0  0  0  0  0  0  0  0  0
    4.5702    0.4485   -1.6817 C   0  0  0  0  0  0  0  0  0  0  0  0
    5.9215    0.5128   -1.3794 N   0  0  0  0  0  0  0  0  0  0  0  0
    6.6324    0.3255   -0.1954 C   0  0  0  0  0  0  0  0  0  0  0  0
    6.0302   -0.0031    0.9792 C   0  0  0  0  0  0  0  0  0  0  0  0
    6.7723   -0.1875    2.1321 C   0  0  0  0  0  0  0  0  0  0  0  0
    8.1299   -0.0563    2.1716 C   0  0  0  0  0  0  0  0  0  0  0  0
    8.7499    0.2772    0.9837 C   0  0  0  0  0  0  0  0  0  0  0  0
    8.0262    0.4652   -0.1742 C   0  0  0  0  0  0  0  0  0  0  0  0
    8.9115    0.9007   -1.6378 S   0  0  0  0  0  0  0  0  0  0  0  0
    8.4703    2.2598   -2.0389 O   0  0  0  0  0  0  0  0  0  0  0  0
    8.7581   -0.1398   -2.7001 O   0  0  0  0  0  0  0  0  0  0  0  0
   10.6531    0.9837   -1.2708 C   0  0  0  0  0  0  0  0  0  0  0  0
   11.5159    0.8372   -2.5178 C   0  0  0  0  0  0  0  0  0  0  0  0
   11.4714   -0.2580   -1.4672 C   0  0  0  0  0  0  0  0  0  0  0  0
    3.6044    0.1810   -0.8162 N   0  0  0  0  0  0  0  0  0  0  0  0
   -4.2324   -0.8272    0.0693 N   0  0  0  0  0  0  0  0  0  0  0  0
   -4.8446   -0.8722    1.4089 C   0  0  0  0  0  0  0  0  0  0  0  0
   -6.3495   -0.8572    1.2568 C   0  0  0  0  0  0  0  0  0  0  0  0
   -6.7071    0.3102    0.3745 C   0  0  0  0  0  0  0  0  0  0  0  0
   -6.1537    0.1366   -1.0050 C   0  0  0  0  0  0  0  0  0  0  0  0
   -5.1041   -0.9623   -1.0505 C   0  0  0  0  0  0  0  0  0  0  0  0
   -8.0875    0.6293    0.3281 N   0  0  0  0  0  0  0  0  0  0  0  0
   -8.6575    1.0387    1.5951 C   0  0  0  0  0  0  0  0  0  0  0  0
  -10.1229    1.3748    1.3267 C   0  0  0  0  0  0  0  0  0  0  0  0
  -10.7863    0.2139    1.0487 O   0  0  0  0  0  0  0  0  0  0  0  0
  -10.0650   -0.8065    0.5008 C   0  0  0  0  0  0  0  0  0  0  0  0
   -8.9117   -0.3561   -0.3352 C   0  0  0  0  0  0  0  0  0  0  0  0
    0.0480   -0.7876    4.3131 H   0  0  0  0  0  0  0  0  0  0  0  0
   -1.4661   -0.0707    3.6434 H   0  0  0  0  0  0  0  0  0  0  0  0
   -1.1953   -1.8538    3.4772 H   0  0  0  0  0  0  0  0  0  0  0  0
   -2.5854   -0.9026    2.0855 H   0  0  0  0  0  0  0  0  0  0  0  0
   -2.6751   -0.3693   -2.1102 H   0  0  0  0  0  0  0  0  0  0  0  0
   -0.3746   -0.0984   -2.1964 H   0  0  0  0  0  0  0  0  0  0  0  0
    1.8366   -0.3344    0.9207 H   0  0  0  0  0  0  0  0  0  0  0  0
    2.4775    0.7992   -4.3432 H   0  0  0  0  0  0  0  0  0  0  0  0
    6.5622    0.7584   -2.2248 H   0  0  0  0  0  0  0  0  0  0  0  0
    4.9390   -0.1374    1.0740 H   0  0  0  0  0  0  0  0  0  0  0  0
    6.2460   -0.4469    3.0372 H   0  0  0  0  0  0  0  0  0  0  0  0
    8.7164   -0.2000    3.0726 H   0  0  0  0  0  0  0  0  0  0  0  0
    9.8346    0.3903    0.9862 H   0  0  0  0  0  0  0  0  0  0  0  0
   11.0067    1.6813   -0.5001 H   0  0  0  0  0  0  0  0  0  0  0  0
   12.4247    1.4818   -2.5393 H   0  0  0  0  0  0  0  0  0  0  0  0
   11.0340    0.6718   -3.4945 H   0  0  0  0  0  0  0  0  0  0  0  0
   12.4048   -0.4079   -0.9180 H   0  0  0  0  0  0  0  0  0  0  0  0
   10.9289   -1.1663   -1.8276 H   0  0  0  0  0  0  0  0  0  0  0  0
   -4.5405    0.0382    1.9653 H   0  0  0  0  0  0  0  0  0  0  0  0
   -4.5016   -1.7785    1.9356 H   0  0  0  0  0  0  0  0  0  0  0  0
   -6.6311   -1.8401    0.8276 H   0  0  0  0  0  0  0  0  0  0  0  0
   -6.7748   -0.7058    2.2633 H   0  0  0  0  0  0  0  0  0  0  0  0
   -6.1800    1.2025    0.8200 H   0  0  0  0  0  0  0  0  0  0  0  0
   -6.9201   -0.1381   -1.7516 H   0  0  0  0  0  0  0  0  0  0  0  0
   -5.6592    1.0637   -1.4026 H   0  0  0  0  0  0  0  0  0  0  0  0
   -5.6026   -1.9692   -1.0898 H   0  0  0  0  0  0  0  0  0  0  0  0
   -4.5817   -0.8673   -2.0090 H   0  0  0  0  0  0  0  0  0  0  0  0
   -8.1751    1.9843    1.9212 H   0  0  0  0  0  0  0  0  0  0  0  0
   -8.5720    0.2956    2.3882 H   0  0  0  0  0  0  0  0  0  0  0  0
  -10.1897    2.1522    0.5411 H   0  0  0  0  0  0  0  0  0  0  0  0
  -10.6079    1.8280    2.2355 H   0  0  0  0  0  0  0  0  0  0  0  0
  -10.7542   -1.3682   -0.1850 H   0  0  0  0  0  0  0  0  0  0  0  0
   -9.7829   -1.5290    1.2931 H   0  0  0  0  0  0  0  0  0  0  0  0
   -9.3049    0.1058   -1.2623 H   0  0  0  0  0  0  0  0  0  0  0  0
   -8.2634   -1.1903   -0.6384 H   0  0  0  0  0  0  0  0  0  0  0  0
  1  2  1  0
  2  3  1  0
  3  4  2  0
  4  5  1  0
  5  6  2  0
  6  7  1  0
  7  8  2  0
  8  9  1  0
  9 10  1  0
 10 11  2  0
 11 12  1  0
 12 13  2  0
 13 14  1  0
 13 15  1  0
 15 16  1  0
 16 17  1  0
 17 18  2  0
 18 19  1  0
 19 20  2  0
 20 21  1  0
 21 22  2  0
 22 23  1  0
 23 24  2  0
 23 25  2  0
 23 26  1  0
 26 27  1  0
 27 28  1  0
 15 29  2  0
  5 30  1  0
 30 31  1  0
 31 32  1  0
 32 33  1  0
 33 34  1  0
 34 35  1  0
 33 36  1  0
 36 37  1  0
 37 38  1  0
 38 39  1  0
 39 40  1  0
 40 41  1  0
  8  3  1  0
 29 10  1  0
 35 30  1  0
 41 36  1  0
 22 17  1  0
 28 26  1  0
  1 42  1  0
  1 43  1  0
  1 44  1  0
  4 45  1  0
  6 46  1  0
  7 47  1  0
  9 48  1  0
 12 49  1  0
 16 50  1  0
 18 51  1  0
 19 52  1  0
 20 53  1  0
 21 54  1  0
 26 55  1  0
 27 56  1  0
 27 57  1  0
 28 58  1  0
 28 59  1  0
 31 60  1  0
 31 61  1  0
 32 62  1  0
 32 63  1  0
 33 64  1  0
 34 65  1  0
 34 66  1  0
 35 67  1  0
 35 68  1  0
 37 69  1  0
 37 70  1  0
 38 71  1  0
 38 72  1  0
 40 73  1  0
 40 74  1  0
 41 75  1  0
 41 76  1  0
M  END
$$$$
[H]N=C(N([H])[H])N([H])C([H])([H])C([H])([H])C([H])([H])[C@@]([H])(C(=O)N([H])[C@]([H])(C(=O)N([H])[H])C([H])([H])c1c([H])n([H])c2c([H])c([H])c([H])c([H])c12)N([H])C(=O)[C@@]([H])(N([H])C(=O)[C@@]([H])(N([H])C(=O)[C@@]([H])(N([H])[H])C([H])([H])c1c([H])c([H])c([H])c([H])c1[H])C([H])([H])[H])C([H])([H])C([H])([H])C([H])([H])N([H])C(=N[H])N([H])[H]
     RDKit          3D

104106  0  0  0  0  0  0  0  0999 V2000
    5.7914   -2.5501    0.7201 C   0  0  0  0  0  0  0  0  0  0  0  0
    5.5326   -1.4564   -0.2283 C   0  0  2  0  0  0  0  0  0  0  0  0
    6.2899   -0.2325   -0.0132 N   0  0  0  0  0  0  0  0  0  0  0  0
    6.5795    0.6937   -1.0154 C   0  0  0  0  0  0  0  0  0  0  0  0
    6.2208    0.5056   -2.2279 O   0  0  0  0  0  0  0  0  0  0  0  0
    7.3310    1.9775   -0.7320 C   0  0  1  0  0  0  0  0  0  0  0  0
    7.7365    1.9398    0.6445 N   0  0  0  0  0  0  0  0  0  0  0  0
    8.5428    1.9533   -1.6521 C   0  0  0  0  0  0  0  0  0  0  0  0
    9.3744    3.1441   -1.5126 C   0  0  0  0  0  0  0  0  0  0  0  0
   10.3288    3.3272   -0.5370 C   0  0  0  0  0  0  0  0  0  0  0  0
   11.0825    4.4431   -0.4734 C   0  0  0  0  0  0  0  0  0  0  0  0
   10.9327    5.4919   -1.4079 C   0  0  0  0  0  0  0  0  0  0  0  0
   10.0001    5.3269   -2.3792 C   0  0  0  0  0  0  0  0  0  0  0  0
    9.2039    4.1596   -2.4591 C   0  0  0  0  0  0  0  0  0  0  0  0
    4.0802   -1.0312   -0.3195 C   0  0  0  0  0  0  0  0  0  0  0  0
    3.9386    0.0886   -0.9912 O   0  0  0  0  0  0  0  0  0  0  0  0
    2.9606   -1.6094    0.1616 N   0  0  0  0  0  0  0  0  0  0  0  0
    1.7852   -2.2133    0.6648 C   0  0  1  0  0  0  0  0  0  0  0  0
    1.7861   -2.0573    2.1364 C   0  0  0  0  0  0  0  0  0  0  0  0
    0.6432   -2.5262    2.9159 C   0  0  0  0  0  0  0  0  0  0  0  0
    0.3016   -3.9822    2.8504 C   0  0  0  0  0  0  0  0  0  0  0  0
   -0.9103   -4.1719    3.6410 N   0  0  0  0  0  0  0  0  0  0  0  0
   -0.9630   -3.9636    5.0107 C   0  0  0  0  0  0  0  0  0  0  0  0
   -2.0637   -3.2548    5.5912 N   0  0  0  0  0  0  0  0  0  0  0  0
   -0.0558   -4.3844    5.7784 N   0  0  0  0  0  0  0  0  0  0  0  0
    0.5952   -1.7255   -0.0779 C   0  0  0  0  0  0  0  0  0  0  0  0
    0.8835   -0.9622   -1.1108 O   0  0  0  0  0  0  0  0  0  0  0  0
   -0.7706   -1.9010    0.0921 N   0  0  0  0  0  0  0  0  0  0  0  0
   -1.7307   -1.2326   -0.8510 C   0  0  1  0  0  0  0  0  0  0  0  0
   -2.2536   -2.3529   -1.7402 C   0  0  0  0  0  0  0  0  0  0  0  0
   -3.1817   -1.8496   -2.7923 C   0  0  0  0  0  0  0  0  0  0  0  0
   -3.6306   -3.0617   -3.6382 C   0  0  0  0  0  0  0  0  0  0  0  0
   -4.5304   -2.5604   -4.6105 N   0  0  0  0  0  0  0  0  0  0  0  0
   -5.1621   -3.5147   -5.4654 C   0  0  0  0  0  0  0  0  0  0  0  0
   -6.5304   -3.3476   -5.7389 N   0  0  0  0  0  0  0  0  0  0  0  0
   -4.4781   -4.4653   -5.9381 N   0  0  0  0  0  0  0  0  0  0  0  0
   -2.7755   -0.6271   -0.0456 C   0  0  0  0  0  0  0  0  0  0  0  0
   -2.8318   -0.9810    1.2177 O   0  0  0  0  0  0  0  0  0  0  0  0
   -3.7389    0.2860   -0.4429 N   0  0  0  0  0  0  0  0  0  0  0  0
   -4.7632    0.7870    0.4860 C   0  0  1  0  0  0  0  0  0  0  0  0
   -4.4953    2.2592    0.5900 C   0  0  0  0  0  0  0  0  0  0  0  0
   -5.4064    3.0507    1.4021 C   0  0  0  0  0  0  0  0  0  0  0  0
   -5.3733    3.3545    2.7693 C   0  0  0  0  0  0  0  0  0  0  0  0
   -6.4599    4.0754    3.0881 N   0  0  0  0  0  0  0  0  0  0  0  0
   -7.2226    4.2761    2.0124 C   0  0  0  0  0  0  0  0  0  0  0  0
   -8.4265    4.9749    1.8698 C   0  0  0  0  0  0  0  0  0  0  0  0
   -8.9635    5.0097    0.6107 C   0  0  0  0  0  0  0  0  0  0  0  0
   -8.3518    4.3920   -0.4711 C   0  0  0  0  0  0  0  0  0  0  0  0
   -7.1691    3.7145   -0.2983 C   0  0  0  0  0  0  0  0  0  0  0  0
   -6.5963    3.6532    0.9574 C   0  0  0  0  0  0  0  0  0  0  0  0
   -6.0994    0.3691    0.1218 C   0  0  0  0  0  0  0  0  0  0  0  0
   -7.1437    0.3836    1.0948 N   0  0  0  0  0  0  0  0  0  0  0  0
   -6.4108   -0.0200   -1.0258 O   0  0  0  0  0  0  0  0  0  0  0  0
    4.8807   -2.9741    1.1985 H   0  0  0  0  0  0  0  0  0  0  0  0
    6.4328   -3.3453    0.2326 H   0  0  0  0  0  0  0  0  0  0  0  0
    6.4345   -2.1575    1.5625 H   0  0  0  0  0  0  0  0  0  0  0  0
    5.7862   -1.7990   -1.2766 H   0  0  0  0  0  0  0  0  0  0  0  0
    6.6208   -0.1006    0.9908 H   0  0  0  0  0  0  0  0  0  0  0  0
    6.6198    2.7834   -0.9527 H   0  0  0  0  0  0  0  0  0  0  0  0
    6.9095    1.8943    1.2989 H   0  0  0  0  0  0  0  0  0  0  0  0
    8.3622    1.1145    0.7959 H   0  0  0  0  0  0  0  0  0  0  0  0
    8.1925    1.8185   -2.7191 H   0  0  0  0  0  0  0  0  0  0  0  0
    9.1482    1.0696   -1.4030 H   0  0  0  0  0  0  0  0  0  0  0  0
   10.4470    2.5350    0.1710 H   0  0  0  0  0  0  0  0  0  0  0  0
   11.8442    4.5759    0.3152 H   0  0  0  0  0  0  0  0  0  0  0  0
   11.5485    6.3533   -1.2909 H   0  0  0  0  0  0  0  0  0  0  0  0
    9.8850    6.1085   -3.1038 H   0  0  0  0  0  0  0  0  0  0  0  0
    8.4960    4.1438   -3.2558 H   0  0  0  0  0  0  0  0  0  0  0  0
    2.2499   -0.4857   -0.0441 H   0  0  0  0  0  0  0  0  0  0  0  0
    1.8576   -3.3145    0.3213 H   0  0  0  0  0  0  0  0  0  0  0  0
    2.7295   -2.5615    2.5157 H   0  0  0  0  0  0  0  0  0  0  0  0
    1.9603   -0.9648    2.3908 H   0  0  0  0  0  0  0  0  0  0  0  0
   -0.2549   -1.8498    2.8406 H   0  0  0  0  0  0  0  0  0  0  0  0
    0.9174   -2.3663    4.0149 H   0  0  0  0  0  0  0  0  0  0  0  0
    0.1372   -4.3708    1.8121 H   0  0  0  0  0  0  0  0  0  0  0  0
    1.1298   -4.5628    3.2816 H   0  0  0  0  0  0  0  0  0  0  0  0
   -1.8129   -4.4827    3.1768 H   0  0  0  0  0  0  0  0  0  0  0  0
   -1.9036   -2.6898    6.4517 H   0  0  0  0  0  0  0  0  0  0  0  0
   -3.0169   -3.2986    5.1576 H   0  0  0  0  0  0  0  0  0  0  0  0
   -0.0807   -4.2373    6.8308 H   0  0  0  0  0  0  0  0  0  0  0  0
   -1.2103   -2.4631    0.8193 H   0  0  0  0  0  0  0  0  0  0  0  0
   -1.2218   -0.4998   -1.4749 H   0  0  0  0  0  0  0  0  0  0  0  0
   -2.7443   -3.1413   -1.0962 H   0  0  0  0  0  0  0  0  0  0  0  0
   -1.3935   -2.8701   -2.2104 H   0  0  0  0  0  0  0  0  0  0  0  0
   -2.5527   -1.1832   -3.4598 H   0  0  0  0  0  0  0  0  0  0  0  0
   -4.0360   -1.2798   -2.4540 H   0  0  0  0  0  0  0  0  0  0  0  0
   -4.0951   -3.8214   -2.9831 H   0  0  0  0  0  0  0  0  0  0  0  0
   -2.7119   -3.5161   -4.1065 H   0  0  0  0  0  0  0  0  0  0  0  0
   -4.7192   -1.5302   -4.7080 H   0  0  0  0  0  0  0  0  0  0  0  0
   -7.0934   -4.2005   -5.9460 H   0  0  0  0  0  0  0  0  0  0  0  0
   -7.0058   -2.4190   -5.7379 H   0  0  0  0  0  0  0  0  0  0  0  0
   -3.4450   -4.5402   -5.6990 H   0  0  0  0  0  0  0  0  0  0  0  0
   -3.7722    0.7112   -1.4336 H   0  0  0  0  0  0  0  0  0  0  0  0
   -4.4842    0.3175    1.4916 H   0  0  0  0  0  0  0  0  0  0  0  0
   -4.4105    2.7247   -0.4410 H   0  0  0  0  0  0  0  0  0  0  0  0
   -3.4489    2.3977    1.0079 H   0  0  0  0  0  0  0  0  0  0  0  0
   -4.5695    3.0236    3.4221 H   0  0  0  0  0  0  0  0  0  0  0  0
   -6.7035    4.4355    4.0291 H   0  0  0  0  0  0  0  0  0  0  0  0
   -8.9168    5.4561    2.6847 H   0  0  0  0  0  0  0  0  0  0  0  0
   -9.8884    5.5262    0.4269 H   0  0  0  0  0  0  0  0  0  0  0  0
   -8.7449    4.4091   -1.4858 H   0  0  0  0  0  0  0  0  0  0  0  0
   -6.6904    3.2334   -1.1606 H   0  0  0  0  0  0  0  0  0  0  0  0
   -6.9912    0.7890    2.0346 H   0  0  0  0  0  0  0  0  0  0  0  0
   -8.1037    0.0029    0.9356 H   0  0  0  0  0  0  0  0  0  0  0  0
  1  2  1  0
  2  3  1  0
  3  4  1  0
  4  5  2  0
  4  6  1  0
  6  7  1  0
  6  8  1  0
  8  9  1  0
  9 10  2  0
 10 11  1  0
 11 12  2  0
 12 13  1  0
 13 14  2  0
  2 15  1  0
 15 16  2  0
 15 17  1  0
 17 18  1  0
 18 19  1  0
 19 20  1  0
 20 21  1  0
 21 22  1  0
 22 23  1  0
 23 24  1  0
 23 25  2  3
 18 26  1  0
 26 27  2  0
 26 28  1  0
 28 29  1  0
 29 30  1  0
 30 31  1  0
 31 32  1  0
 32 33  1  0
 33 34  1  0
 34 35  1  0
 34 36  2  3
 29 37  1  0
 37 38  2  0
 37 39  1  0
 39 40  1  0
 40 41  1  0
 41 42  1  0
 42 43  2  0
 43 44  1  0
 44 45  1  0
 45 46  2  0
 46 47  1  0
 47 48  2  0
 48 49  1  0
 49 50  2  0
 40 51  1  0
 51 52  1  0
 51 53  2  0
 14  9  1  0
 50 42  1  0
 50 45  1  0
  1 54  1  0
  1 55  1  0
  1 56  1  0
  2 57  1  6
  3 58  1  0
  6 59  1  1
  7 60  1  0
  7 61  1  0
  8 62  1  0
  8 63  1  0
 10 64  1  0
 11 65  1  0
 12 66  1  0
 13 67  1  0
 14 68  1  0
 17 69  1  0
 18 70  1  1
 19 71  1  0
 19 72  1  0
 20 73  1  0
 20 74  1  0
 21 75  1  0
 21 76  1  0
 22 77  1  0
 24 78  1  0
 24 79  1  0
 25 80  1  0
 28 81  1  0
 29 82  1  6
 30 83  1  0
 30 84  1  0
 31 85  1  0
 31 86  1  0
 32 87  1  0
 32 88  1  0
 33 89  1  0
 35 90  1  0
 35 91  1  0
 36 92  1  0
 39 93  1  0
 40 94  1  1
 41 95  1  0
 41 96  1  0
 43 97  1  0
 44 98  1  0
 46 99  1  0
 47100  1  0
 48101  1  0
 49102  1  0
 52103  1  0
 52104  1  0
M  END
$$$$
[H]OC(=O)c1c([H])c([H])c(-c2c([H])nc3c(c2[H])c([H])c([H])n3[H])c([H])c1[H]
     RDKit          3D

 28 30  0  0  0  0  0  0  0  0999 V2000
   -5.5256   -1.4833    0.2489 O   0  0  0  0  0  0  0  0  0  0  0  0
   -4.9378   -0.3530   -0.2771 C   0  0  0  0  0  0  0  0  0  0  0  0
   -5.6555    0.5059   -0.8240 O   0  0  0  0  0  0  0  0  0  0  0  0
   -3.5039   -0.1856   -0.1850 C   0  0  0  0  0  0  0  0  0  0  0  0
   -2.9270    0.9454   -0.7114 C   0  0  0  0  0  0  0  0  0  0  0  0
   -1.5630    1.1258   -0.6352 C   0  0  0  0  0  0  0  0  0  0  0  0
   -0.7457    0.1761   -0.0295 C   0  0  0  0  0  0  0  0  0  0  0  0
   -1.3231   -0.9605    0.4996 C   0  0  0  0  0  0  0  0  0  0  0  0
   -2.6900   -1.1406    0.4230 C   0  0  0  0  0  0  0  0  0  0  0  0
    0.6860    0.4248    0.0181 C   0  0  0  0  0  0  0  0  0  0  0  0
    1.1968    1.7026    0.1104 C   0  0  0  0  0  0  0  0  0  0  0  0
    2.5217    1.9365    0.1539 N   0  0  0  0  0  0  0  0  0  0  0  0
    3.4229    0.9143    0.1083 C   0  0  0  0  0  0  0  0  0  0  0  0
    4.7653    0.8863    0.1357 N   0  0  0  0  0  0  0  0  0  0  0  0
    5.1206   -0.3972    0.0616 C   0  0  0  0  0  0  0  0  0  0  0  0
    4.0250   -1.2182   -0.0143 C   0  0  0  0  0  0  0  0  0  0  0  0
    2.9310   -0.3700    0.0160 C   0  0  0  0  0  0  0  0  0  0  0  0
    1.5559   -0.6359   -0.0306 C   0  0  0  0  0  0  0  0  0  0  0  0
   -6.1847   -1.4620    1.0076 H   0  0  0  0  0  0  0  0  0  0  0  0
   -3.5156    1.7188   -1.1950 H   0  0  0  0  0  0  0  0  0  0  0  0
   -1.1031    2.0134   -1.0464 H   0  0  0  0  0  0  0  0  0  0  0  0
   -0.6739   -1.7014    0.9728 H   0  0  0  0  0  0  0  0  0  0  0  0
   -3.1457   -2.0265    0.8357 H   0  0  0  0  0  0  0  0  0  0  0  0
    0.4806    2.5193    0.1469 H   0  0  0  0  0  0  0  0  0  0  0  0
    5.3869    1.7434    0.2040 H   0  0  0  0  0  0  0  0  0  0  0  0
    6.1716   -0.7231    0.0636 H   0  0  0  0  0  0  0  0  0  0  0  0
    3.9966   -2.2980   -0.0833 H   0  0  0  0  0  0  0  0  0  0  0  0
    1.2338   -1.6576   -0.1031 H   0  0  0  0  0  0  0  0  0  0  0  0
  1  2  1  0
  2  3  2  0
  2  4  1  0
  4  5  2  0
  5  6  1  0
  6  7  2  0
  7  8  1  0
  8  9  2  0
  7 10  1  0
 10 11  2  0
 11 12  1  0
 12 13  2  0
 13 14  1  0
 14 15  1  0
 15 16  2  0
 16 17  1  0
 17 18  2  0
  9  4  1  0
 18 10  1  0
 17 13  1  0
  1 19  1  0
  5 20  1  0
  6 21  1  0
  8 22  1  0
  9 23  1  0
 11 24  1  0
 14 25  1  0
 15 26  1  0
 16 27  1  0
 18 28  1  0
M  END
$$$$
[H]c1c([H])c([H])c(C([H])([H])N([H])C(=O)[C@@]([H])(N([H])C(=O)[C@@]([H])(N([H])C(=O)[C@@]([H])(N([H])C(=O)[C@@]([H])(N([H])[H])C([H])([H])c2c([H])c([H])c([H])c([H])c2[H])C([H])([H])C([H])(C([H])([H])[H])C([H])([H])[H])C([H])([H])C([H])(C([H])([H])[H])C([H])([H])[H])C([H])([H])c2c([H])c([H])c([H])c([H])c2[H])c([H])c1[H]
     RDKit          3D

 95 97  0  0  0  0  0  0  0  0999 V2000
   -4.5754   -4.4086   -0.7986 C   0  0  0  0  0  0  0  0  0  0  0  0
   -3.8823   -3.3466    0.1044 C   0  0  0  0  0  0  0  0  0  0  0  0
   -4.8000   -3.1408    1.3231 C   0  0  0  0  0  0  0  0  0  0  0  0
   -3.8836   -2.0991   -0.6985 C   0  0  0  0  0  0  0  0  0  0  0  0
   -3.2759   -0.8891   -0.0584 C   0  0  2  0  0  0  0  0  0  0  0  0
   -3.4766    0.2231   -1.0628 N   0  0  0  0  0  0  0  0  0  0  0  0
   -4.1574    1.3950   -0.6616 C   0  0  0  0  0  0  0  0  0  0  0  0
   -4.5478    1.4803    0.5115 O   0  0  0  0  0  0  0  0  0  0  0  0
   -4.3951    2.4755   -1.6268 C   0  0  1  0  0  0  0  0  0  0  0  0
   -3.7310    2.1883   -2.9032 N   0  0  0  0  0  0  0  0  0  0  0  0
   -5.8330    2.7154   -1.9290 C   0  0  0  0  0  0  0  0  0  0  0  0
   -6.6862    3.1060   -0.7986 C   0  0  0  0  0  0  0  0  0  0  0  0
   -7.3767    2.1348   -0.0963 C   0  0  0  0  0  0  0  0  0  0  0  0
   -8.1717    2.5041    0.9616 C   0  0  0  0  0  0  0  0  0  0  0  0
   -8.2677    3.8280    1.3084 C   0  0  0  0  0  0  0  0  0  0  0  0
   -7.5693    4.8125    0.5961 C   0  0  0  0  0  0  0  0  0  0  0  0
   -6.7748    4.4578   -0.4620 C   0  0  0  0  0  0  0  0  0  0  0  0
   -1.8140   -1.0189    0.0948 C   0  0  0  0  0  0  0  0  0  0  0  0
   -1.1264   -0.3204   -0.7327 O   0  0  0  0  0  0  0  0  0  0  0  0
   -1.2135   -1.8298    1.0640 N   0  0  0  0  0  0  0  0  0  0  0  0
    0.1626   -2.0005    1.3236 C   0  0  1  0  0  0  0  0  0  0  0  0
    0.8203   -3.2283    0.9243 C   0  0  0  0  0  0  0  0  0  0  0  0
    0.9546   -3.7103   -0.4455 C   0  0  0  0  0  0  0  0  0  0  0  0
   -0.2778   -3.9739   -1.2511 C   0  0  0  0  0  0  0  0  0  0  0  0
    1.6071   -5.1271   -0.3272 C   0  0  0  0  0  0  0  0  0  0  0  0
    0.9222   -0.7308    1.2136 C   0  0  0  0  0  0  0  0  0  0  0  0
    0.3272    0.3442    1.4382 O   0  0  0  0  0  0  0  0  0  0  0  0
    2.2941   -0.6568    0.8704 N   0  0  0  0  0  0  0  0  0  0  0  0
    2.9966    0.6135    0.8029 C   0  0  1  0  0  0  0  0  0  0  0  0
    3.8523    0.6421    2.0830 C   0  0  0  0  0  0  0  0  0  0  0  0
    4.8277   -0.4644    2.1094 C   0  0  0  0  0  0  0  0  0  0  0  0
    4.4904   -1.7155    2.5530 C   0  0  0  0  0  0  0  0  0  0  0  0
    5.4301   -2.7320    2.5674 C   0  0  0  0  0  0  0  0  0  0  0  0
    6.7307   -2.4970    2.1344 C   0  0  0  0  0  0  0  0  0  0  0  0
    7.0361   -1.2273    1.6965 C   0  0  0  0  0  0  0  0  0  0  0  0
    6.1054   -0.2229    1.6822 C   0  0  0  0  0  0  0  0  0  0  0  0
    3.8499    0.7346   -0.4150 C   0  0  0  0  0  0  0  0  0  0  0  0
    4.3080   -0.3151   -0.8682 O   0  0  0  0  0  0  0  0  0  0  0  0
    4.0976    2.0339   -1.0071 N   0  0  0  0  0  0  0  0  0  0  0  0
    4.3197    3.1957   -1.5372 C   0  0  0  0  0  0  0  0  0  0  0  0
    5.6925    3.8157   -1.4362 C   0  0  0  0  0  0  0  0  0  0  0  0
    5.8654    5.1289   -1.8882 C   0  0  0  0  0  0  0  0  0  0  0  0
    7.0812    5.7604   -1.8406 C   0  0  0  0  0  0  0  0  0  0  0  0
    8.1973    5.0996   -1.3335 C   0  0  0  0  0  0  0  0  0  0  0  0
    8.0358    3.8175   -0.8894 C   0  0  0  0  0  0  0  0  0  0  0  0
    6.7908    3.1808   -0.9422 C   0  0  0  0  0  0  0  0  0  0  0  0
   -5.6126   -4.0343   -0.8724 H   0  0  0  0  0  0  0  0  0  0  0  0
   -4.0774   -4.3798   -1.7733 H   0  0  0  0  0  0  0  0  0  0  0  0
   -4.4760   -5.4163   -0.3868 H   0  0  0  0  0  0  0  0  0  0  0  0
   -2.9304   -3.7861    0.3607 H   0  0  0  0  0  0  0  0  0  0  0  0
   -4.8748   -4.0380    1.9439 H   0  0  0  0  0  0  0  0  0  0  0  0
   -4.3697   -2.2617    1.8710 H   0  0  0  0  0  0  0  0  0  0  0  0
   -5.7597   -2.7989    0.9060 H   0  0  0  0  0  0  0  0  0  0  0  0
   -4.9411   -1.7934   -0.9885 H   0  0  0  0  0  0  0  0  0  0  0  0
   -3.3908   -2.2703   -1.7048 H   0  0  0  0  0  0  0  0  0  0  0  0
   -3.7309   -0.6030    0.8938 H   0  0  0  0  0  0  0  0  0  0  0  0
   -3.0832    0.0210   -1.9963 H   0  0  0  0  0  0  0  0  0  0  0  0
   -3.8910    3.3868   -1.2369 H   0  0  0  0  0  0  0  0  0  0  0  0
   -2.7496    1.8661   -2.7841 H   0  0  0  0  0  0  0  0  0  0  0  0
   -4.3076    1.5605   -3.4869 H   0  0  0  0  0  0  0  0  0  0  0  0
   -5.9872    3.4587   -2.7493 H   0  0  0  0  0  0  0  0  0  0  0  0
   -6.2420    1.7495   -2.3479 H   0  0  0  0  0  0  0  0  0  0  0  0
   -7.2882    1.0919   -0.3842 H   0  0  0  0  0  0  0  0  0  0  0  0
   -8.7061    1.7185    1.5093 H   0  0  0  0  0  0  0  0  0  0  0  0
   -8.8823    4.1371    2.1383 H   0  0  0  0  0  0  0  0  0  0  0  0
   -7.6388    5.8652    0.8596 H   0  0  0  0  0  0  0  0  0  0  0  0
   -6.2249    5.2014   -1.0391 H   0  0  0  0  0  0  0  0  0  0  0  0
   -1.8924   -2.3631    1.7041 H   0  0  0  0  0  0  0  0  0  0  0  0
    0.1682   -2.0441    2.5432 H   0  0  0  0  0  0  0  0  0  0  0  0
    0.3466   -4.0937    1.5206 H   0  0  0  0  0  0  0  0  0  0  0  0
    1.8668   -3.2271    1.4335 H   0  0  0  0  0  0  0  0  0  0  0  0
    1.6159   -3.0925   -1.0982 H   0  0  0  0  0  0  0  0  0  0  0  0
   -0.7374   -3.1163   -1.7392 H   0  0  0  0  0  0  0  0  0  0  0  0
   -0.9952   -4.6607   -0.7274 H   0  0  0  0  0  0  0  0  0  0  0  0
    0.0896   -4.6363   -2.1145 H   0  0  0  0  0  0  0  0  0  0  0  0
    0.7580   -5.8638   -0.1633 H   0  0  0  0  0  0  0  0  0  0  0  0
    2.0671   -5.3971   -1.2770 H   0  0  0  0  0  0  0  0  0  0  0  0
    2.2296   -5.1759    0.5675 H   0  0  0  0  0  0  0  0  0  0  0  0
    2.8018   -1.5249    0.6399 H   0  0  0  0  0  0  0  0  0  0  0  0
    2.2747    1.4296    0.8083 H   0  0  0  0  0  0  0  0  0  0  0  0
    4.3594    1.6209    2.2275 H   0  0  0  0  0  0  0  0  0  0  0  0
    3.1740    0.4971    2.9607 H   0  0  0  0  0  0  0  0  0  0  0  0
    3.4735   -1.9508    2.9045 H   0  0  0  0  0  0  0  0  0  0  0  0
    5.1717   -3.7221    2.9140 H   0  0  0  0  0  0  0  0  0  0  0  0
    7.4810   -3.2910    2.1410 H   0  0  0  0  0  0  0  0  0  0  0  0
    8.0433   -1.0173    1.3566 H   0  0  0  0  0  0  0  0  0  0  0  0
    6.4154    0.7743    1.3292 H   0  0  0  0  0  0  0  0  0  0  0  0
    4.9308    1.4313   -1.9178 H   0  0  0  0  0  0  0  0  0  0  0  0
    3.6118    4.0108   -1.0451 H   0  0  0  0  0  0  0  0  0  0  0  0
    3.9999    3.2644   -2.6413 H   0  0  0  0  0  0  0  0  0  0  0  0
    4.9994    5.6078   -2.2678 H   0  0  0  0  0  0  0  0  0  0  0  0
    7.2370    6.7792   -2.1863 H   0  0  0  0  0  0  0  0  0  0  0  0
    9.1471    5.6287   -1.3091 H   0  0  0  0  0  0  0  0  0  0  0  0
    8.8733    3.2698   -0.4940 H   0  0  0  0  0  0  0  0  0  0  0  0
    6.6936    2.1550   -0.5851 H   0  0  0  0  0  0  0  0  0  0  0  0
  1  2  1  0
  2  3  1  0
  2  4  1  0
  4  5  1  0
  5  6  1  0
  6  7  1  0
  7  8  2  0
  7  9  1  0
  9 10  1  0
  9 11  1  0
 11 12  1  0
 12 13  2  0
 13 14  1  0
 14 15  2  0
 15 16  1  0
 16 17  2  0
  5 18  1  0
 18 19  2  0
 18 20  1  0
 20 21  1  0
 21 22  1  0
 22 23  1  0
 23 24  1  0
 23 25  1  0
 21 26  1  0
 26 27  2  0
 26 28  1  0
 28 29  1  0
 29 30  1  0
 30 31  1  0
 31 32  2  0
 32 33  1  0
 33 34  2  0
 34 35  1  0
 35 36  2  0
 29 37  1  0
 37 38  2  0
 37 39  1  0
 39 40  1  0
 40 41  1  0
 41 42  2  0
 42 43  1  0
 43 44  2  0
 44 45  1  0
 45 46  2  0
 17 12  1  0
 36 31  1  0
 46 41  1  0
  1 47  1  0
  1 48  1  0
  1 49  1  0
  2 50  1  0
  3 51  1  0
  3 52  1  0
  3 53  1  0
  4 54  1  0
  4 55  1  0
  5 56  1  1
  6 57  1  0
  9 58  1  1
 10 59  1  0
 10 60  1  0
 11 61  1  0
 11 62  1  0
 13 63  1  0
 14 64  1  0
 15 65  1  0
 16 66  1  0
 17 67  1  0
 20 68  1  0
 21 69  1  1
 22 70  1  0
 22 71  1  0
 23 72  1  0
 24 73  1  0
 24 74  1  0
 24 75  1  0
 25 76  1  0
 25 77  1  0
 25 78  1  0
 28 79  1  0
 29 80  1  1
 30 81  1  0
 30 82  1  0
 32 83  1  0
 33 84  1  0
 34 85  1  0
 35 86  1  0
 36 87  1  0
 39 88  1  0
 40 89  1  0
 40 90  1  0
 42 91  1  0
 43 92  1  0
 44 93  1  0
 45 94  1  0
 46 95  1  0
M  END
$$$$
[H]c1c([H])c([H])c(C([H])([H])[C@@]([H])(C(=O)N([H])[C@]([H])(C(=O)N([H])[C@]([H])(C(=O)N([H])[H])C([H])([H])c2c([H])n([H])c3c([H])c([H])c([H])c([H])c23)C([H])([H])c2c([H])c([H])c([H])c([H])c2[H])N([H])[H])c([H])c1[H]
     RDKit          3D

 68 71  0  0  0  0  0  0  0  0999 V2000
    4.1166    1.6515   -0.8929 N   0  0  0  0  0  0  0  0  0  0  0  0
    3.4626    1.0067    0.2226 C   0  0  1  0  0  0  0  0  0  0  0  0
    3.3778    1.9940    1.3637 C   0  0  0  0  0  0  0  0  0  0  0  0
    4.7134    2.4318    1.7718 C   0  0  0  0  0  0  0  0  0  0  0  0
    5.4038    1.7665    2.7626 C   0  0  0  0  0  0  0  0  0  0  0  0
    6.6821    2.1616    3.1672 C   0  0  0  0  0  0  0  0  0  0  0  0
    7.2322    3.2613    2.5243 C   0  0  0  0  0  0  0  0  0  0  0  0
    6.5728    3.9530    1.5285 C   0  0  0  0  0  0  0  0  0  0  0  0
    5.3054    3.5220    1.1615 C   0  0  0  0  0  0  0  0  0  0  0  0
    2.1576    0.4958   -0.2110 C   0  0  0  0  0  0  0  0  0  0  0  0
    1.7833    0.7112   -1.3886 O   0  0  0  0  0  0  0  0  0  0  0  0
    1.2737   -0.2392    0.6246 N   0  0  0  0  0  0  0  0  0  0  0  0
   -0.0043   -0.7339    0.1842 C   0  0  1  0  0  0  0  0  0  0  0  0
   -0.0686   -2.2483    0.2014 C   0  0  0  0  0  0  0  0  0  0  0  0
    0.9524   -2.8509   -0.6879 C   0  0  0  0  0  0  0  0  0  0  0  0
    0.7195   -3.1522   -2.0171 C   0  0  0  0  0  0  0  0  0  0  0  0
    1.6881   -3.7096   -2.8238 C   0  0  0  0  0  0  0  0  0  0  0  0
    2.9301   -3.9833   -2.3161 C   0  0  0  0  0  0  0  0  0  0  0  0
    3.2034   -3.6942   -0.9832 C   0  0  0  0  0  0  0  0  0  0  0  0
    2.2079   -3.1336   -0.1962 C   0  0  0  0  0  0  0  0  0  0  0  0
   -1.0473   -0.2182    1.1067 C   0  0  0  0  0  0  0  0  0  0  0  0
   -0.7363    0.5142    2.0884 O   0  0  0  0  0  0  0  0  0  0  0  0
   -2.4175   -0.5427    0.8979 N   0  0  0  0  0  0  0  0  0  0  0  0
   -3.4263   -0.0498    1.7867 C   0  0  1  0  0  0  0  0  0  0  0  0
   -4.2874    1.0022    1.1847 C   0  0  0  0  0  0  0  0  0  0  0  0
   -5.0233    0.6187   -0.0245 C   0  0  0  0  0  0  0  0  0  0  0  0
   -6.3316    0.1087   -0.0360 C   0  0  0  0  0  0  0  0  0  0  0  0
   -6.6702   -0.1696   -1.3011 N   0  0  0  0  0  0  0  0  0  0  0  0
   -5.6344    0.1394   -2.1225 C   0  0  0  0  0  0  0  0  0  0  0  0
   -5.5172    0.0431   -3.4910 C   0  0  0  0  0  0  0  0  0  0  0  0
   -4.3508    0.4457   -4.0918 C   0  0  0  0  0  0  0  0  0  0  0  0
   -3.3430    0.9317   -3.2946 C   0  0  0  0  0  0  0  0  0  0  0  0
   -3.4469    1.0330   -1.9270 C   0  0  0  0  0  0  0  0  0  0  0  0
   -4.6139    0.6293   -1.3214 C   0  0  0  0  0  0  0  0  0  0  0  0
   -4.2235   -1.2088    2.3001 C   0  0  0  0  0  0  0  0  0  0  0  0
   -5.2898   -1.0105    3.2034 N   0  0  0  0  0  0  0  0  0  0  0  0
   -3.9781   -2.3954    1.9526 O   0  0  0  0  0  0  0  0  0  0  0  0
    5.1384    1.5214   -0.7441 H   0  0  0  0  0  0  0  0  0  0  0  0
    3.7817    1.3106   -1.8192 H   0  0  0  0  0  0  0  0  0  0  0  0
    4.0489    0.1304    0.5982 H   0  0  0  0  0  0  0  0  0  0  0  0
    2.8839    1.5136    2.2324 H   0  0  0  0  0  0  0  0  0  0  0  0
    2.7149    2.8259    1.0485 H   0  0  0  0  0  0  0  0  0  0  0  0
    4.8973    0.9121    3.2171 H   0  0  0  0  0  0  0  0  0  0  0  0
    7.1798    1.6112    3.9465 H   0  0  0  0  0  0  0  0  0  0  0  0
    8.2315    3.5685    2.8414 H   0  0  0  0  0  0  0  0  0  0  0  0
    7.0497    4.8038    1.0638 H   0  0  0  0  0  0  0  0  0  0  0  0
    4.7800    4.0600    0.3808 H   0  0  0  0  0  0  0  0  0  0  0  0
    1.5844   -0.4194    1.6031 H   0  0  0  0  0  0  0  0  0  0  0  0
   -0.2372   -0.4345   -0.8560 H   0  0  0  0  0  0  0  0  0  0  0  0
   -1.0561   -2.5367   -0.2180 H   0  0  0  0  0  0  0  0  0  0  0  0
   -0.0335   -2.6611    1.2245 H   0  0  0  0  0  0  0  0  0  0  0  0
   -0.2830   -2.9196   -2.3809 H   0  0  0  0  0  0  0  0  0  0  0  0
    1.4433   -3.9214   -3.8478 H   0  0  0  0  0  0  0  0  0  0  0  0
    3.7328   -4.4250   -2.9172 H   0  0  0  0  0  0  0  0  0  0  0  0
    4.1894   -3.9164   -0.5948 H   0  0  0  0  0  0  0  0  0  0  0  0
    2.4311   -2.9143    0.8323 H   0  0  0  0  0  0  0  0  0  0  0  0
   -2.7098   -1.1620    0.0942 H   0  0  0  0  0  0  0  0  0  0  0  0
   -2.9326    0.4323    2.6859 H   0  0  0  0  0  0  0  0  0  0  0  0
   -5.0237    1.3829    1.9553 H   0  0  0  0  0  0  0  0  0  0  0  0
   -3.6465    1.9181    0.9978 H   0  0  0  0  0  0  0  0  0  0  0  0
   -6.9498   -0.0307    0.8434 H   0  0  0  0  0  0  0  0  0  0  0  0
   -7.5892   -0.5593   -1.5700 H   0  0  0  0  0  0  0  0  0  0  0  0
   -6.3450   -0.3461   -4.0532 H   0  0  0  0  0  0  0  0  0  0  0  0
   -4.2227    0.3834   -5.1792 H   0  0  0  0  0  0  0  0  0  0  0  0
   -2.4318    1.2449   -3.7994 H   0  0  0  0  0  0  0  0  0  0  0  0
   -2.6337    1.4274   -1.3466 H   0  0  0  0  0  0  0  0  0  0  0  0
   -5.4646   -1.7014    3.9517 H   0  0  0  0  0  0  0  0  0  0  0  0
   -5.9003   -0.1800    3.1276 H   0  0  0  0  0  0  0  0  0  0  0  0
  1  2  1  0
  2  3  1  0
  3  4  1  0
  4  5  2  0
  5  6  1  0
  6  7  2  0
  7  8  1  0
  8  9  2  0
  2 10  1  0
 10 11  2  0
 10 12  1  0
 12 13  1  0
 13 14  1  0
 14 15  1  0
 15 16  2  0
 16 17  1  0
 17 18  2  0
 18 19  1  0
 19 20  2  0
 13 21  1  0
 21 22  2  0
 21 23  1  0
 23 24  1  0
 24 25  1  0
 25 26  1  0
 26 27  2  0
 27 28  1  0
 28 29  1  0
 29 30  2  0
 30 31  1  0
 31 32  2  0
 32 33  1  0
 33 34  2  0
 24 35  1  0
 35 36  1  0
 35 37  2  0
  9  4  1  0
 20 15  1  0
 34 26  1  0
 34 29  1  0
  1 38  1  0
  1 39  1  0
  2 40  1  1
  3 41  1  0
  3 42  1  0
  5 43  1  0
  6 44  1  0
  7 45  1  0
  8 46  1  0
  9 47  1  0
 12 48  1  0
 13 49  1  6
 14 50  1  0
 14 51  1  0
 16 52  1  0
 17 53  1  0
 18 54  1  0
 19 55  1  0
 20 56  1  0
 23 57  1  0
 24 58  1  1
 25 59  1  0
 25 60  1  0
 27 61  1  0
 28 62  1  0
 30 63  1  0
 31 64  1  0
 32 65  1  0
 33 66  1  0
 36 67  1  0
 36 68  1  0
M  END
$$$$
[H]C1=C2C([H])([H])C([H])([H])[C@@]3([H])[C@]4([H])C([H])([H])C([H])([H])[C@](C(=O)C(C([H])([H])[H])(C([H])([H])[H])C([H])([H])[H])(C([H])([H])[H])[C@@]4(C([H])([H])[H])C([H])([H])C([H])([H])[C@]3([H])[C@@]2(C([H])([H])[H])C([H])([H])C([H])([H])C1=O
     RDKit          3D

 65 68  0  0  0  0  0  0  0  0999 V2000
    0.2934   -0.6842    2.1165 C   0  0  0  0  0  0  0  0  0  0  0  0
    0.7823    0.0894    0.8794 C   0  0  2  0  0  0  0  0  0  0  0  0
    0.2014    1.4226    0.9633 C   0  0  0  0  0  0  0  0  0  0  0  0
   -1.2869    1.3591    0.8386 C   0  0  0  0  0  0  0  0  0  0  0  0
   -1.8433    0.4082   -0.1362 C   0  0  1  0  0  0  0  0  0  0  0  0
   -1.2170   -0.9379   -0.2196 C   0  0  1  0  0  0  0  0  0  0  0  0
   -1.6423   -1.5333   -1.5694 C   0  0  0  0  0  0  0  0  0  0  0  0
   -3.1378   -1.5879   -1.6992 C   0  0  0  0  0  0  0  0  0  0  0  0
   -3.8477   -0.4190   -1.1413 C   0  0  0  0  0  0  0  0  0  0  0  0
   -4.9173    0.0129   -1.7890 C   0  0  0  0  0  0  0  0  0  0  0  0
   -5.6719    1.1739   -1.2865 C   0  0  0  0  0  0  0  0  0  0  0  0
   -6.4111    1.8905   -1.9655 O   0  0  0  0  0  0  0  0  0  0  0  0
   -5.4877    1.4600    0.1771 C   0  0  0  0  0  0  0  0  0  0  0  0
   -4.0270    1.4774    0.4573 C   0  0  0  0  0  0  0  0  0  0  0  0
   -3.3224    0.1944    0.1013 C   0  0  2  0  0  0  0  0  0  0  0  0
   -3.5769   -0.7855    1.2291 C   0  0  0  0  0  0  0  0  0  0  0  0
    0.2815   -0.7427   -0.2938 C   0  0  2  0  0  0  0  0  0  0  0  0
    1.0706   -2.0031   -0.0996 C   0  0  0  0  0  0  0  0  0  0  0  0
    2.2711   -1.6141    0.7863 C   0  0  0  0  0  0  0  0  0  0  0  0
    2.2500   -0.1066    0.8261 C   0  0  2  0  0  0  0  0  0  0  0  0
    2.8194    0.4929    2.0966 C   0  0  0  0  0  0  0  0  0  0  0  0
    2.9732    0.5237   -0.2915 C   0  0  0  0  0  0  0  0  0  0  0  0
    2.2869    1.2246   -1.0645 O   0  0  0  0  0  0  0  0  0  0  0  0
    4.3727    0.4599   -0.6419 C   0  0  0  0  0  0  0  0  0  0  0  0
    5.4003    0.8645    0.3544 C   0  0  0  0  0  0  0  0  0  0  0  0
    4.6092    1.4631   -1.8075 C   0  0  0  0  0  0  0  0  0  0  0  0
    4.8150   -0.8603   -1.2400 C   0  0  0  0  0  0  0  0  0  0  0  0
   -0.0476   -1.7003    1.8810 H   0  0  0  0  0  0  0  0  0  0  0  0
   -0.5491   -0.1721    2.6163 H   0  0  0  0  0  0  0  0  0  0  0  0
    1.0688   -0.8164    2.8884 H   0  0  0  0  0  0  0  0  0  0  0  0
    0.3786    1.8107    2.0162 H   0  0  0  0  0  0  0  0  0  0  0  0
    0.5720    2.2224    0.3220 H   0  0  0  0  0  0  0  0  0  0  0  0
   -1.8018    1.2222    1.8364 H   0  0  0  0  0  0  0  0  0  0  0  0
   -1.6410    2.3923    0.5380 H   0  0  0  0  0  0  0  0  0  0  0  0
   -1.7687    0.8731   -1.1626 H   0  0  0  0  0  0  0  0  0  0  0  0
   -1.5503   -1.6540    0.5286 H   0  0  0  0  0  0  0  0  0  0  0  0
   -1.2593   -0.9186   -2.4098 H   0  0  0  0  0  0  0  0  0  0  0  0
   -1.2458   -2.5530   -1.7052 H   0  0  0  0  0  0  0  0  0  0  0  0
   -3.4669   -1.8364   -2.7265 H   0  0  0  0  0  0  0  0  0  0  0  0
   -3.4689   -2.4711   -1.0756 H   0  0  0  0  0  0  0  0  0  0  0  0
   -5.2988   -0.4371   -2.6980 H   0  0  0  0  0  0  0  0  0  0  0  0
   -6.0430    0.6670    0.7081 H   0  0  0  0  0  0  0  0  0  0  0  0
   -5.9301    2.4192    0.4606 H   0  0  0  0  0  0  0  0  0  0  0  0
   -3.8816    1.6274    1.5579 H   0  0  0  0  0  0  0  0  0  0  0  0
   -3.5901    2.3580   -0.0576 H   0  0  0  0  0  0  0  0  0  0  0  0
   -3.6063   -1.8315    0.8567 H   0  0  0  0  0  0  0  0  0  0  0  0
   -4.5844   -0.5951    1.6665 H   0  0  0  0  0  0  0  0  0  0  0  0
   -2.8561   -0.6556    2.0613 H   0  0  0  0  0  0  0  0  0  0  0  0
    0.4587   -0.3131   -1.2742 H   0  0  0  0  0  0  0  0  0  0  0  0
    1.4313   -2.3357   -1.1177 H   0  0  0  0  0  0  0  0  0  0  0  0
    0.5157   -2.8489    0.3019 H   0  0  0  0  0  0  0  0  0  0  0  0
    3.1295   -2.0801    0.3291 H   0  0  0  0  0  0  0  0  0  0  0  0
    2.1602   -2.0786    1.7911 H   0  0  0  0  0  0  0  0  0  0  0  0
    3.3754    1.4598    1.8825 H   0  0  0  0  0  0  0  0  0  0  0  0
    2.0130    0.8887    2.7874 H   0  0  0  0  0  0  0  0  0  0  0  0
    3.4128   -0.2121    2.6902 H   0  0  0  0  0  0  0  0  0  0  0  0
    6.3998    0.7203   -0.1095 H   0  0  0  0  0  0  0  0  0  0  0  0
    5.4025    0.3224    1.2963 H   0  0  0  0  0  0  0  0  0  0  0  0
    5.3356    1.9483    0.5912 H   0  0  0  0  0  0  0  0  0  0  0  0
    3.8471    1.1978   -2.5638 H   0  0  0  0  0  0  0  0  0  0  0  0
    4.5321    2.4855   -1.4258 H   0  0  0  0  0  0  0  0  0  0  0  0
    5.6091    1.2147   -2.2287 H   0  0  0  0  0  0  0  0  0  0  0  0
    5.2915   -1.5190   -0.4848 H   0  0  0  0  0  0  0  0  0  0  0  0
    5.6125   -0.6666   -1.9870 H   0  0  0  0  0  0  0  0  0  0  0  0
    4.0063   -1.3773   -1.7880 H   0  0  0  0  0  0  0  0  0  0  0  0
  2  1  1  1
  2  3  1  0
  3  4  1  0
  4  5  1  0
  5  6  1  0
  6  7  1  0
  7  8  1  0
  8  9  1  0
  9 10  2  0
 10 11  1  0
 11 12  2  0
 11 13  1  0
 13 14  1  0
 14 15  1  0
 15 16  1  1
  6 17  1  0
 17 18  1  0
 18 19  1  0
 19 20  1  0
 20 21  1  0
 20 22  1  6
 22 23  2  0
 22 24  1  0
 24 25  1  0
 24 26  1  0
 24 27  1  0
 17  2  1  0
 20  2  1  0
 15  5  1  0
 15  9  1  0
  1 28  1  0
  1 29  1  0
  1 30  1  0
  3 31  1  0
  3 32  1  0
  4 33  1  0
  4 34  1  0
  5 35  1  6
  6 36  1  1
  7 37  1  0
  7 38  1  0
  8 39  1  0
  8 40  1  0
 10 41  1  0
 13 42  1  0
 13 43  1  0
 14 44  1  0
 14 45  1  0
 16 46  1  0
 16 47  1  0
 16 48  1  0
 17 49  1  6
 18 50  1  0
 18 51  1  0
 19 52  1  0
 19 53  1  0
 21 54  1  0
 21 55  1  0
 21 56  1  0
 25 57  1  0
 25 58  1  0
 25 59  1  0
 26 60  1  0
 26 61  1  0
 26 62  1  0
 27 63  1  0
 27 64  1  0
 27 65  1  0
M  END
$$$$
[H]OC(=O)[C@@]([H])(N([H])C(=O)[C@@]([H])(N([H])C(=O)[C@@]([H])(N([H])C(=O)[C@@]([H])(N([H])C(=O)[C@@]([H])(N([H])[H])C([H])([H])C([H])([H])C([H])([H])N=C(N([H])[H])N([H])[H])C([H])([H])c1c([H])c([H])c([H])c([H])c1[H])C([H])([H])c1c([H])c([H])c([H])c([H])c1[H])C([H])([H])C([H])(C([H])([H])[H])C([H])([H])[H])C([H])([H])c1c([H])c([H])c([H])c([H])c1[H]
     RDKit          3D

105107  0  0  0  0  0  0  0  0999 V2000
   -2.6974   -3.3882   -3.8137 C   0  0  0  0  0  0  0  0  0  0  0  0
   -3.4826   -4.0107   -2.6782 C   0  0  0  0  0  0  0  0  0  0  0  0
   -2.5474   -4.8301   -1.8332 C   0  0  0  0  0  0  0  0  0  0  0  0
   -4.3518   -3.0606   -1.9520 C   0  0  0  0  0  0  0  0  0  0  0  0
   -3.7330   -1.8860   -1.2852 C   0  0  2  0  0  0  0  0  0  0  0  0
   -2.7768   -2.2461   -0.2259 N   0  0  0  0  0  0  0  0  0  0  0  0
   -1.4358   -1.8402   -0.2876 C   0  0  0  0  0  0  0  0  0  0  0  0
   -1.1863   -1.1163   -1.3515 O   0  0  0  0  0  0  0  0  0  0  0  0
   -0.3444   -2.1015    0.6037 C   0  0  2  0  0  0  0  0  0  0  0  0
   -0.5408   -1.5692    1.9945 C   0  0  0  0  0  0  0  0  0  0  0  0
   -1.6569   -1.9984    2.7927 C   0  0  0  0  0  0  0  0  0  0  0  0
   -1.7053   -3.2440    3.3730 C   0  0  0  0  0  0  0  0  0  0  0  0
   -2.7255   -3.6250    4.2373 C   0  0  0  0  0  0  0  0  0  0  0  0
   -3.7069   -2.7289    4.5117 C   0  0  0  0  0  0  0  0  0  0  0  0
   -3.7260   -1.4712    3.9694 C   0  0  0  0  0  0  0  0  0  0  0  0
   -2.6841   -1.1477    3.1162 C   0  0  0  0  0  0  0  0  0  0  0  0
    0.8832   -1.5347    0.0234 N   0  0  0  0  0  0  0  0  0  0  0  0
    2.1476   -1.4354    0.5377 C   0  0  0  0  0  0  0  0  0  0  0  0
    2.4357   -1.8439    1.6906 O   0  0  0  0  0  0  0  0  0  0  0  0
    3.1986   -0.8004   -0.3225 C   0  0  2  0  0  0  0  0  0  0  0  0
    4.2556   -1.7614   -0.7986 C   0  0  0  0  0  0  0  0  0  0  0  0
    5.0417   -2.4302    0.2233 C   0  0  0  0  0  0  0  0  0  0  0  0
    6.1868   -1.8422    0.6895 C   0  0  0  0  0  0  0  0  0  0  0  0
    6.9962   -2.3862    1.6712 C   0  0  0  0  0  0  0  0  0  0  0  0
    6.6546   -3.5968    2.2348 C   0  0  0  0  0  0  0  0  0  0  0  0
    5.5119   -4.2120    1.7868 C   0  0  0  0  0  0  0  0  0  0  0  0
    4.7062   -3.6642    0.8048 C   0  0  0  0  0  0  0  0  0  0  0  0
    3.8264    0.2569    0.5085 N   0  0  0  0  0  0  0  0  0  0  0  0
    3.7836    1.5972    0.0912 C   0  0  0  0  0  0  0  0  0  0  0  0
    3.2190    1.9302   -1.0217 O   0  0  0  0  0  0  0  0  0  0  0  0
    4.3411    2.7286    0.8352 C   0  0  1  0  0  0  0  0  0  0  0  0
    4.8388    2.4016    2.1382 N   0  0  0  0  0  0  0  0  0  0  0  0
    5.4631    3.4555    0.0701 C   0  0  0  0  0  0  0  0  0  0  0  0
    6.6323    2.5555   -0.2206 C   0  0  0  0  0  0  0  0  0  0  0  0
    7.6527    3.3969   -0.9800 C   0  0  0  0  0  0  0  0  0  0  0  0
    8.0106    4.5431   -0.1328 N   0  0  0  0  0  0  0  0  0  0  0  0
    9.0131    5.2565   -0.4622 C   0  0  0  0  0  0  0  0  0  0  0  0
    9.3842    6.3658    0.3281 N   0  0  0  0  0  0  0  0  0  0  0  0
    9.7746    4.9408   -1.6217 N   0  0  0  0  0  0  0  0  0  0  0  0
   -4.6897   -0.9041   -0.8133 C   0  0  0  0  0  0  0  0  0  0  0  0
   -4.6717   -0.5668    0.4240 O   0  0  0  0  0  0  0  0  0  0  0  0
   -5.6653   -0.2595   -1.5846 N   0  0  0  0  0  0  0  0  0  0  0  0
   -6.6308    0.7320   -1.0953 C   0  0  1  0  0  0  0  0  0  0  0  0
   -6.1672    2.1104   -1.5340 C   0  0  0  0  0  0  0  0  0  0  0  0
   -7.0803    3.1505   -1.0817 C   0  0  0  0  0  0  0  0  0  0  0  0
   -6.9648    3.6578    0.2219 C   0  0  0  0  0  0  0  0  0  0  0  0
   -7.7697    4.6642    0.6882 C   0  0  0  0  0  0  0  0  0  0  0  0
   -8.7508    5.2431   -0.1101 C   0  0  0  0  0  0  0  0  0  0  0  0
   -8.8872    4.7638   -1.3983 C   0  0  0  0  0  0  0  0  0  0  0  0
   -8.0740    3.7671   -1.8261 C   0  0  0  0  0  0  0  0  0  0  0  0
   -7.9031    0.4137   -1.7392 C   0  0  0  0  0  0  0  0  0  0  0  0
   -9.0696    1.0613   -1.4089 O   0  0  0  0  0  0  0  0  0  0  0  0
   -7.9929   -0.4782   -2.6310 O   0  0  0  0  0  0  0  0  0  0  0  0
   -3.3293   -2.7258   -4.4461 H   0  0  0  0  0  0  0  0  0  0  0  0
   -1.7410   -2.9439   -3.5087 H   0  0  0  0  0  0  0  0  0  0  0  0
   -2.4168   -4.2490   -4.4996 H   0  0  0  0  0  0  0  0  0  0  0  0
   -4.1466   -4.7778   -3.2114 H   0  0  0  0  0  0  0  0  0  0  0  0
   -1.4950   -4.4870   -1.9191 H   0  0  0  0  0  0  0  0  0  0  0  0
   -2.9033   -4.7853   -0.7835 H   0  0  0  0  0  0  0  0  0  0  0  0
   -2.6439   -5.9025   -2.1310 H   0  0  0  0  0  0  0  0  0  0  0  0
   -5.2409   -2.8125   -2.5652 H   0  0  0  0  0  0  0  0  0  0  0  0
   -4.8072   -3.6690   -1.0955 H   0  0  0  0  0  0  0  0  0  0  0  0
   -3.0666   -1.3956   -2.0785 H   0  0  0  0  0  0  0  0  0  0  0  0
   -3.1143   -2.8199    0.5659 H   0  0  0  0  0  0  0  0  0  0  0  0
   -0.1028   -3.2020    0.6719 H   0  0  0  0  0  0  0  0  0  0  0  0
    0.4208   -1.8129    2.5692 H   0  0  0  0  0  0  0  0  0  0  0  0
   -0.4987   -0.4376    1.9844 H   0  0  0  0  0  0  0  0  0  0  0  0
   -0.9565   -4.0201    3.2086 H   0  0  0  0  0  0  0  0  0  0  0  0
   -2.7449   -4.6211    4.6932 H   0  0  0  0  0  0  0  0  0  0  0  0
   -4.5079   -2.9913    5.1872 H   0  0  0  0  0  0  0  0  0  0  0  0
   -4.5241   -0.7685    4.2038 H   0  0  0  0  0  0  0  0  0  0  0  0
   -2.7242   -0.1276    2.6910 H   0  0  0  0  0  0  0  0  0  0  0  0
    0.7306   -1.1456   -0.9687 H   0  0  0  0  0  0  0  0  0  0  0  0
    2.7281   -0.3176   -1.1618 H   0  0  0  0  0  0  0  0  0  0  0  0
    4.9111   -1.1693   -1.5062 H   0  0  0  0  0  0  0  0  0  0  0  0
    3.8142   -2.5335   -1.4537 H   0  0  0  0  0  0  0  0  0  0  0  0
    6.4889   -0.8897    0.2646 H   0  0  0  0  0  0  0  0  0  0  0  0
    7.8905   -1.8873    2.0154 H   0  0  0  0  0  0  0  0  0  0  0  0
    7.2633   -4.0793    3.0229 H   0  0  0  0  0  0  0  0  0  0  0  0
    5.2720   -5.1642    2.2471 H   0  0  0  0  0  0  0  0  0  0  0  0
    3.8144   -4.1580    0.4626 H   0  0  0  0  0  0  0  0  0  0  0  0
    4.3095    0.0401    1.4073 H   0  0  0  0  0  0  0  0  0  0  0  0
    3.5348    3.5080    1.0139 H   0  0  0  0  0  0  0  0  0  0  0  0
    4.8280    3.1755    2.8223 H   0  0  0  0  0  0  0  0  0  0  0  0
    5.7354    1.8771    2.1010 H   0  0  0  0  0  0  0  0  0  0  0  0
    5.0075    3.8138   -0.8780 H   0  0  0  0  0  0  0  0  0  0  0  0
    5.8196    4.2541    0.7202 H   0  0  0  0  0  0  0  0  0  0  0  0
    7.1393    2.2190    0.7176 H   0  0  0  0  0  0  0  0  0  0  0  0
    6.4043    1.6600   -0.7925 H   0  0  0  0  0  0  0  0  0  0  0  0
    8.5626    2.7394   -1.1438 H   0  0  0  0  0  0  0  0  0  0  0  0
    7.3261    3.7443   -1.9516 H   0  0  0  0  0  0  0  0  0  0  0  0
   10.1862    6.9522    0.0579 H   0  0  0  0  0  0  0  0  0  0  0  0
    8.8525    6.6030    1.1926 H   0  0  0  0  0  0  0  0  0  0  0  0
   10.7983    4.9855   -1.6371 H   0  0  0  0  0  0  0  0  0  0  0  0
    9.2473    4.6532   -2.4803 H   0  0  0  0  0  0  0  0  0  0  0  0
   -5.7376   -0.4830   -2.6033 H   0  0  0  0  0  0  0  0  0  0  0  0
   -6.6462    0.7775    0.0157 H   0  0  0  0  0  0  0  0  0  0  0  0
   -5.1711    2.3208   -1.0745 H   0  0  0  0  0  0  0  0  0  0  0  0
   -6.1056    2.1755   -2.6479 H   0  0  0  0  0  0  0  0  0  0  0  0
   -6.2369    3.2673    0.9057 H   0  0  0  0  0  0  0  0  0  0  0  0
   -7.6892    5.0662    1.7082 H   0  0  0  0  0  0  0  0  0  0  0  0
   -9.3747    6.0308    0.2586 H   0  0  0  0  0  0  0  0  0  0  0  0
   -9.6527    5.2029   -2.0408 H   0  0  0  0  0  0  0  0  0  0  0  0
   -8.1866    3.3968   -2.8552 H   0  0  0  0  0  0  0  0  0  0  0  0
   -9.6604    0.9013   -0.6309 H   0  0  0  0  0  0  0  0  0  0  0  0
  1  2  1  0
  2  3  1  0
  2  4  1  0
  4  5  1  0
  5  6  1  0
  6  7  1  0
  7  8  2  0
  7  9  1  0
  9 10  1  0
 10 11  1  0
 11 12  2  0
 12 13  1  0
 13 14  2  0
 14 15  1  0
 15 16  2  0
  9 17  1  0
 17 18  1  0
 18 19  2  0
 18 20  1  0
 20 21  1  0
 21 22  1  0
 22 23  2  0
 23 24  1  0
 24 25  2  0
 25 26  1  0
 26 27  2  0
 20 28  1  0
 28 29  1  0
 29 30  2  0
 29 31  1  0
 31 32  1  0
 31 33  1  0
 33 34  1  0
 34 35  1  0
 35 36  1  0
 36 37  2  3
 37 38  1  0
 37 39  1  0
  5 40  1  0
 40 41  2  0
 40 42  1  0
 42 43  1  0
 43 44  1  0
 44 45  1  0
 45 46  2  0
 46 47  1  0
 47 48  2  0
 48 49  1  0
 49 50  2  0
 43 51  1  0
 51 52  1  0
 51 53  2  0
 16 11  1  0
 27 22  1  0
 50 45  1  0
  1 54  1  0
  1 55  1  0
  1 56  1  0
  2 57  1  0
  3 58  1  0
  3 59  1  0
  3 60  1  0
  4 61  1  0
  4 62  1  0
  5 63  1  6
  6 64  1  0
  9 65  1  1
 10 66  1  0
 10 67  1  0
 12 68  1  0
 13 69  1  0
 14 70  1  0
 15 71  1  0
 16 72  1  0
 17 73  1  0
 20 74  1  6
 21 75  1  0
 21 76  1  0
 23 77  1  0
 24 78  1  0
 25 79  1  0
 26 80  1  0
 27 81  1  0
 28 82  1  0
 31 83  1  1
 32 84  1  0
 32 85  1  0
 33 86  1  0
 33 87  1  0
 34 88  1  0
 34 89  1  0
 35 90  1  0
 35 91  1  0
 38 92  1  0
 38 93  1  0
 39 94  1  0
 39 95  1  0
 42 96  1  0
 43 97  1  1
 44 98  1  0
 44 99  1  0
 46100  1  0
 47101  1  0
 48102  1  0
 49103  1  0
 50104  1  0
 52105  1  0
M  END
$$$$
[H]OC(=O)C([H])([H])[C@@]([H])(C(=O)N([H])[C@]([H])(C(=O)N([H])[H])C([H])([H])c1c([H])c([H])c([H])c([H])c1[H])N([H])C(=O)[C@@]([H])(N([H])C(=O)[C@@]([H])(N([H])C(=O)[C@@]([H])(N([H])[H])C([H])([H])c1c([H])c([H])c(O[H])c([H])c1[H])C([H])([H])c1c([H])c([H])c([H])c([H])c1[H])C([H])([H])C([H])(C([H])([H])[H])C([H])([H])[H]
     RDKit          3D

 97 99  0  0  0  0  0  0  0  0999 V2000
    1.5477   -1.4317    2.9529 C   0  0  0  0  0  0  0  0  0  0  0  0
    0.1040   -1.2147    2.9634 C   0  0  0  0  0  0  0  0  0  0  0  0
   -0.5758   -2.5579    3.2996 C   0  0  0  0  0  0  0  0  0  0  0  0
   -0.5672   -0.5162    1.8827 C   0  0  0  0  0  0  0  0  0  0  0  0
   -0.5893   -0.9109    0.4804 C   0  0  2  0  0  0  0  0  0  0  0  0
    0.5050   -0.9579   -0.3956 N   0  0  0  0  0  0  0  0  0  0  0  0
    1.7079   -0.2326   -0.4655 C   0  0  0  0  0  0  0  0  0  0  0  0
    1.9605    0.6616    0.3533 O   0  0  0  0  0  0  0  0  0  0  0  0
    2.7335   -0.4921   -1.5125 C   0  0  2  0  0  0  0  0  0  0  0  0
    2.9656   -1.8860   -1.9310 C   0  0  0  0  0  0  0  0  0  0  0  0
    3.4163   -2.8401   -0.9051 C   0  0  0  0  0  0  0  0  0  0  0  0
    4.7653   -2.8883   -0.5553 C   0  0  0  0  0  0  0  0  0  0  0  0
    5.2308   -3.7784    0.3681 C   0  0  0  0  0  0  0  0  0  0  0  0
    4.3854   -4.6673    0.9925 C   0  0  0  0  0  0  0  0  0  0  0  0
    3.0311   -4.6465    0.6678 C   0  0  0  0  0  0  0  0  0  0  0  0
    2.6117   -3.7452   -0.2584 C   0  0  0  0  0  0  0  0  0  0  0  0
    4.0021    0.1498   -1.2298 N   0  0  0  0  0  0  0  0  0  0  0  0
    4.6316    1.1025   -2.0502 C   0  0  0  0  0  0  0  0  0  0  0  0
    4.0881    1.4659   -3.1335 O   0  0  0  0  0  0  0  0  0  0  0  0
    5.9222    1.6799   -1.6514 C   0  0  1  0  0  0  0  0  0  0  0  0
    6.4312    2.5094   -2.7443 N   0  0  0  0  0  0  0  0  0  0  0  0
    5.8337    2.4919   -0.3832 C   0  0  0  0  0  0  0  0  0  0  0  0
    7.1789    3.0265   -0.0563 C   0  0  0  0  0  0  0  0  0  0  0  0
    7.6105    4.2040   -0.6306 C   0  0  0  0  0  0  0  0  0  0  0  0
    8.8461    4.7543   -0.3198 C   0  0  0  0  0  0  0  0  0  0  0  0
    9.6938    4.1419    0.5759 C   0  0  0  0  0  0  0  0  0  0  0  0
   10.9434    4.6989    0.8939 O   0  0  0  0  0  0  0  0  0  0  0  0
    9.2651    2.9690    1.1482 C   0  0  0  0  0  0  0  0  0  0  0  0
    8.0372    2.4232    0.8411 C   0  0  0  0  0  0  0  0  0  0  0  0
   -1.8396   -0.3257   -0.1533 C   0  0  0  0  0  0  0  0  0  0  0  0
   -1.6270    0.6637   -0.8701 O   0  0  0  0  0  0  0  0  0  0  0  0
   -3.1130   -0.9008    0.0749 N   0  0  0  0  0  0  0  0  0  0  0  0
   -4.3019   -1.4140    0.2702 C   0  0  1  0  0  0  0  0  0  0  0  0
   -4.3778   -2.6854    1.1351 C   0  0  0  0  0  0  0  0  0  0  0  0
   -3.6474   -3.8281    0.6154 C   0  0  0  0  0  0  0  0  0  0  0  0
   -3.5952   -5.0468    1.3029 O   0  0  0  0  0  0  0  0  0  0  0  0
   -3.0304   -3.7788   -0.4763 O   0  0  0  0  0  0  0  0  0  0  0  0
   -5.3859   -0.5334    0.9331 C   0  0  0  0  0  0  0  0  0  0  0  0
   -5.0367    0.0575    1.9716 O   0  0  0  0  0  0  0  0  0  0  0  0
   -6.6335   -0.4498    0.3716 N   0  0  0  0  0  0  0  0  0  0  0  0
   -7.8715    0.1628    0.6448 C   0  0  1  0  0  0  0  0  0  0  0  0
   -7.8840    1.6537    0.6417 C   0  0  0  0  0  0  0  0  0  0  0  0
   -7.3936    2.3426   -0.5430 C   0  0  0  0  0  0  0  0  0  0  0  0
   -6.1068    2.9249   -0.4779 C   0  0  0  0  0  0  0  0  0  0  0  0
   -5.6431    3.6121   -1.5731 C   0  0  0  0  0  0  0  0  0  0  0  0
   -6.3606    3.7707   -2.7362 C   0  0  0  0  0  0  0  0  0  0  0  0
   -7.6523    3.1859   -2.8065 C   0  0  0  0  0  0  0  0  0  0  0  0
   -8.0927    2.5075   -1.7101 C   0  0  0  0  0  0  0  0  0  0  0  0
   -9.0017   -0.3812   -0.1294 C   0  0  0  0  0  0  0  0  0  0  0  0
  -10.2965    0.0953    0.0852 N   0  0  0  0  0  0  0  0  0  0  0  0
   -8.7597   -1.2680   -0.9728 O   0  0  0  0  0  0  0  0  0  0  0  0
    1.9248   -1.9742    2.0798 H   0  0  0  0  0  0  0  0  0  0  0  0
    2.0790   -0.4192    2.9755 H   0  0  0  0  0  0  0  0  0  0  0  0
    1.8340   -1.9789    3.9032 H   0  0  0  0  0  0  0  0  0  0  0  0
   -0.0875   -0.6384    3.9704 H   0  0  0  0  0  0  0  0  0  0  0  0
    0.0909   -3.0443    4.0290 H   0  0  0  0  0  0  0  0  0  0  0  0
   -1.5301   -2.3490    3.8239 H   0  0  0  0  0  0  0  0  0  0  0  0
   -0.6927   -3.1825    2.4168 H   0  0  0  0  0  0  0  0  0  0  0  0
   -1.6697   -0.3961    2.2458 H   0  0  0  0  0  0  0  0  0  0  0  0
   -0.2612    0.5908    1.9201 H   0  0  0  0  0  0  0  0  0  0  0  0
   -0.9227   -2.0682    0.4866 H   0  0  0  0  0  0  0  0  0  0  0  0
    0.4679   -1.6947   -1.2350 H   0  0  0  0  0  0  0  0  0  0  0  0
    2.3971    0.0574   -2.4864 H   0  0  0  0  0  0  0  0  0  0  0  0
    3.8007   -1.8782   -2.7091 H   0  0  0  0  0  0  0  0  0  0  0  0
    2.1120   -2.3095   -2.5361 H   0  0  0  0  0  0  0  0  0  0  0  0
    5.4588   -2.1933   -1.0418 H   0  0  0  0  0  0  0  0  0  0  0  0
    6.2966   -3.8253    0.6445 H   0  0  0  0  0  0  0  0  0  0  0  0
    4.7929   -5.3449    1.7050 H   0  0  0  0  0  0  0  0  0  0  0  0
    2.3786   -5.3670    1.1827 H   0  0  0  0  0  0  0  0  0  0  0  0
    1.5352   -3.7364   -0.5210 H   0  0  0  0  0  0  0  0  0  0  0  0
    4.4651   -0.1320   -0.3496 H   0  0  0  0  0  0  0  0  0  0  0  0
    6.6983    0.9021   -1.5041 H   0  0  0  0  0  0  0  0  0  0  0  0
    5.7791    3.2355   -3.0572 H   0  0  0  0  0  0  0  0  0  0  0  0
    6.8030    1.9196   -3.5015 H   0  0  0  0  0  0  0  0  0  0  0  0
    5.1552    3.3454   -0.5940 H   0  0  0  0  0  0  0  0  0  0  0  0
    5.4285    1.8416    0.4233 H   0  0  0  0  0  0  0  0  0  0  0  0
    6.9781    4.7179   -1.3506 H   0  0  0  0  0  0  0  0  0  0  0  0
    9.1680    5.6752   -0.7945 H   0  0  0  0  0  0  0  0  0  0  0  0
   11.7124    4.3877    0.3050 H   0  0  0  0  0  0  0  0  0  0  0  0
    9.8836    2.4517    1.8590 H   0  0  0  0  0  0  0  0  0  0  0  0
    7.6679    1.4873    1.2831 H   0  0  0  0  0  0  0  0  0  0  0  0
   -3.6421    0.0985   -0.6828 H   0  0  0  0  0  0  0  0  0  0  0  0
   -4.8557   -1.6864   -0.6966 H   0  0  0  0  0  0  0  0  0  0  0  0
   -5.4747   -2.9347    1.1367 H   0  0  0  0  0  0  0  0  0  0  0  0
   -4.1552   -2.4163    2.1931 H   0  0  0  0  0  0  0  0  0  0  0  0
   -3.4987   -5.0933    2.3283 H   0  0  0  0  0  0  0  0  0  0  0  0
   -6.6832   -1.0164   -0.5954 H   0  0  0  0  0  0  0  0  0  0  0  0
   -8.1546   -0.0529    1.7650 H   0  0  0  0  0  0  0  0  0  0  0  0
   -8.9514    1.9861    0.8497 H   0  0  0  0  0  0  0  0  0  0  0  0
   -7.3119    2.0585    1.5240 H   0  0  0  0  0  0  0  0  0  0  0  0
   -5.5243    2.7950    0.4269 H   0  0  0  0  0  0  0  0  0  0  0  0
   -4.6399    4.0574   -1.4723 H   0  0  0  0  0  0  0  0  0  0  0  0
   -6.0034    4.3134   -3.5774 H   0  0  0  0  0  0  0  0  0  0  0  0
   -8.2157    3.3078   -3.7380 H   0  0  0  0  0  0  0  0  0  0  0  0
   -9.0825    2.0503   -1.7580 H   0  0  0  0  0  0  0  0  0  0  0  0
  -10.6262    0.4197    1.0232 H   0  0  0  0  0  0  0  0  0  0  0  0
  -10.9900    0.1558   -0.6879 H   0  0  0  0  0  0  0  0  0  0  0  0
  1  2  1  0
  2  3  1  0
  2  4  1  0
  4  5  1  0
  5  6  1  0
  6  7  1  0
  7  8  2  0
  7  9  1  0
  9 10  1  0
 10 11  1  0
 11 12  2  0
 12 13  1  0
 13 14  2  0
 14 15  1  0
 15 16  2  0
  9 17  1  0
 17 18  1  0
 18 19  2  0
 18 20  1  0
 20 21  1  0
 20 22  1  0
 22 23  1  0
 23 24  2  0
 24 25  1  0
 25 26  2  0
 26 27  1  0
 26 28  1  0
 28 29  2  0
  5 30  1  0
 30 31  2  0
 30 32  1  0
 32 33  1  0
 33 34  1  0
 34 35  1  0
 35 36  1  0
 35 37  2  0
 33 38  1  0
 38 39  2  0
 38 40  1  0
 40 41  1  0
 41 42  1  0
 42 43  1  0
 43 44  2  0
 44 45  1  0
 45 46  2  0
 46 47  1  0
 47 48  2  0
 41 49  1  0
 49 50  1  0
 49 51  2  0
 16 11  1  0
 29 23  1  0
 48 43  1  0
  1 52  1  0
  1 53  1  0
  1 54  1  0
  2 55  1  0
  3 56  1  0
  3 57  1  0
  3 58  1  0
  4 59  1  0
  4 60  1  0
  5 61  1  1
  6 62  1  0
  9 63  1  6
 10 64  1  0
 10 65  1  0
 12 66  1  0
 13 67  1  0
 14 68  1  0
 15 69  1  0
 16 70  1  0
 17 71  1  0
 20 72  1  1
 21 73  1  0
 21 74  1  0
 22 75  1  0
 22 76  1  0
 24 77  1  0
 25 78  1  0
 27 79  1  0
 28 80  1  0
 29 81  1  0
 32 82  1  0
 33 83  1  6
 34 84  1  0
 34 85  1  0
 36 86  1  0
 40 87  1  0
 41 88  1  1
 42 89  1  0
 42 90  1  0
 44 91  1  0
 45 92  1  0
 46 93  1  0
 47 94  1  0
 48 95  1  0
 50 96  1  0
 50 97  1  0
M  END
$$$$
[H]c1c([H])c(C(=O)N2C([H])([H])C([H])([H])N(C(=O)[C@]3([H])C([H])([H])N(C(F)(F)F)C([H])([H])[C@@]3([H])c3c([H])c([H])c(Cl)c(Cl)c3[H])[C@]([H])(C([H])([H])[H])C2([H])[H])c([H])c(C(F)(F)F)c1[H]
     RDKit          3D

 61 64  0  0  0  0  0  0  0  0999 V2000
    0.7322    0.6089    1.8905 C   0  0  0  0  0  0  0  0  0  0  0  0
    0.1916   -0.5447    1.0524 C   0  0  2  0  0  0  0  0  0  0  0  0
    1.3155   -1.4875    0.7679 C   0  0  0  0  0  0  0  0  0  0  0  0
    2.4838   -0.7145    0.2373 N   0  0  0  0  0  0  0  0  0  0  0  0
    2.1574    0.3878   -0.5784 C   0  0  0  0  0  0  0  0  0  0  0  0
    0.7567    0.4722   -1.1088 C   0  0  0  0  0  0  0  0  0  0  0  0
   -0.2709   -0.0284   -0.2226 N   0  0  0  0  0  0  0  0  0  0  0  0
   -1.5936    0.0037   -0.6743 C   0  0  0  0  0  0  0  0  0  0  0  0
   -1.8664    0.5296   -1.7995 O   0  0  0  0  0  0  0  0  0  0  0  0
   -2.7102   -0.5436    0.0814 C   0  0  2  0  0  0  0  0  0  0  0  0
   -2.7005   -2.0735    0.0013 C   0  0  0  0  0  0  0  0  0  0  0  0
   -3.9556   -2.3553    0.6770 N   0  0  0  0  0  0  0  0  0  0  0  0
   -4.8825   -1.3204    0.3625 C   0  0  0  0  0  0  0  0  0  0  0  0
   -4.0767   -0.2687   -0.4506 C   0  0  1  0  0  0  0  0  0  0  0  0
   -4.6078    1.0716   -0.2152 C   0  0  0  0  0  0  0  0  0  0  0  0
   -5.5975    1.5276   -1.0512 C   0  0  0  0  0  0  0  0  0  0  0  0
   -6.1622    2.7796   -0.9347 C   0  0  0  0  0  0  0  0  0  0  0  0
   -5.7190    3.6204    0.0683 C   0  0  0  0  0  0  0  0  0  0  0  0
   -6.4042    5.2357    0.2727 Cl  0  0  0  0  0  0  0  0  0  0  0  0
   -4.7295    3.1835    0.9167 C   0  0  0  0  0  0  0  0  0  0  0  0
   -4.1560    4.2506    2.1867 Cl  0  0  0  0  0  0  0  0  0  0  0  0
   -4.1783    1.9208    0.7766 C   0  0  0  0  0  0  0  0  0  0  0  0
   -4.4158   -3.6894    0.4636 C   0  0  0  0  0  0  0  0  0  0  0  0
   -3.4871   -4.5927    0.9473 F   0  0  0  0  0  0  0  0  0  0  0  0
   -5.5745   -3.8737    1.1825 F   0  0  0  0  0  0  0  0  0  0  0  0
   -4.6565   -3.9847   -0.8679 F   0  0  0  0  0  0  0  0  0  0  0  0
    3.7740   -1.1565    0.5690 C   0  0  0  0  0  0  0  0  0  0  0  0
    3.7351   -2.2442    1.3067 O   0  0  0  0  0  0  0  0  0  0  0  0
    5.0822   -0.6915    0.2817 C   0  0  0  0  0  0  0  0  0  0  0  0
    6.1557   -1.4909    0.6777 C   0  0  0  0  0  0  0  0  0  0  0  0
    7.4484   -1.0988    0.4511 C   0  0  0  0  0  0  0  0  0  0  0  0
    7.7405    0.0810   -0.1673 C   0  0  0  0  0  0  0  0  0  0  0  0
    6.6891    0.8676   -0.5569 C   0  0  0  0  0  0  0  0  0  0  0  0
    5.3579    0.4885   -0.3362 C   0  0  0  0  0  0  0  0  0  0  0  0
    6.9418    2.1713   -1.2338 C   0  0  0  0  0  0  0  0  0  0  0  0
    8.0502    2.0341   -2.0551 F   0  0  0  0  0  0  0  0  0  0  0  0
    7.2192    3.0961   -0.2409 F   0  0  0  0  0  0  0  0  0  0  0  0
    5.8405    2.4967   -1.9814 F   0  0  0  0  0  0  0  0  0  0  0  0
    1.8146    0.5004    2.0552 H   0  0  0  0  0  0  0  0  0  0  0  0
    0.2581    0.6119    2.9218 H   0  0  0  0  0  0  0  0  0  0  0  0
    0.5292    1.5459    1.3763 H   0  0  0  0  0  0  0  0  0  0  0  0
   -0.5721   -1.0396    1.6565 H   0  0  0  0  0  0  0  0  0  0  0  0
    1.6350   -2.0241    1.6858 H   0  0  0  0  0  0  0  0  0  0  0  0
    1.0695   -2.2226   -0.0139 H   0  0  0  0  0  0  0  0  0  0  0  0
    2.7934    0.3007   -1.5173 H   0  0  0  0  0  0  0  0  0  0  0  0
    2.4190    1.3535   -0.0801 H   0  0  0  0  0  0  0  0  0  0  0  0
    0.6678   -0.0796   -2.0903 H   0  0  0  0  0  0  0  0  0  0  0  0
    0.5193    1.5448   -1.3121 H   0  0  0  0  0  0  0  0  0  0  0  0
   -2.6686   -0.3252    1.1702 H   0  0  0  0  0  0  0  0  0  0  0  0
   -1.8447   -2.5369    0.4549 H   0  0  0  0  0  0  0  0  0  0  0  0
   -2.7583   -2.3127   -1.0894 H   0  0  0  0  0  0  0  0  0  0  0  0
   -5.1544   -0.8132    1.3093 H   0  0  0  0  0  0  0  0  0  0  0  0
   -5.7795   -1.6394   -0.1874 H   0  0  0  0  0  0  0  0  0  0  0  0
   -4.1766   -0.6035   -1.5060 H   0  0  0  0  0  0  0  0  0  0  0  0
   -6.0126    0.9252   -1.8741 H   0  0  0  0  0  0  0  0  0  0  0  0
   -6.9392    3.1411   -1.5923 H   0  0  0  0  0  0  0  0  0  0  0  0
   -3.3856    1.5767    1.4563 H   0  0  0  0  0  0  0  0  0  0  0  0
    6.0056   -2.4557    1.1786 H   0  0  0  0  0  0  0  0  0  0  0  0
    8.2898   -1.7252    0.7611 H   0  0  0  0  0  0  0  0  0  0  0  0
    8.7416    0.4172   -0.3583 H   0  0  0  0  0  0  0  0  0  0  0  0
    4.6214    1.1918   -0.6684 H   0  0  0  0  0  0  0  0  0  0  0  0
  1  2  1  0
  2  3  1  0
  3  4  1  0
  4  5  1  0
  5  6  1  0
  6  7  1  0
  7  8  1  0
  8  9  2  0
  8 10  1  0
 10 11  1  0
 11 12  1  0
 12 13  1  0
 13 14  1  0
 14 15  1  0
 15 16  2  0
 16 17  1  0
 17 18  2  0
 18 19  1  0
 18 20  1  0
 20 21  1  0
 20 22  2  0
 12 23  1  0
 23 24  1  0
 23 25  1  0
 23 26  1  0
  4 27  1  0
 27 28  2  0
 27 29  1  0
 29 30  2  0
 30 31  1  0
 31 32  2  0
 32 33  1  0
 33 34  2  0
 33 35  1  0
 35 36  1  0
 35 37  1  0
 35 38  1  0
  7  2  1  0
 14 10  1  0
 22 15  1  0
 34 29  1  0
  1 39  1  0
  1 40  1  0
  1 41  1  0
  2 42  1  1
  3 43  1  0
  3 44  1  0
  5 45  1  0
  5 46  1  0
  6 47  1  0
  6 48  1  0
 10 49  1  1
 11 50  1  0
 11 51  1  0
 13 52  1  0
 13 53  1  0
 14 54  1  6
 16 55  1  0
 17 56  1  0
 22 57  1  0
 30 58  1  0
 31 59  1  0
 32 60  1  0
 34 61  1  0
M  END
$$$$
[H]C#C[C@]1(O[H])C([H])([H])C([H])([H])[C@]2([H])[C@]1(C([H])([H])[H])C([H])([H])C([H])([H])[C@]1([H])[C@]3(C([H])([H])[H])C(=C([H])C(=O)C([H])([H])C3([H])[H])C([H])([H])C([H])([H])[C@@]21[H]
     RDKit          3D

 51 54  0  0  0  0  0  0  0  0999 V2000
    1.7493   -1.1265    1.6536 C   0  0  0  0  0  0  0  0  0  0  0  0
    2.1216   -0.0430    0.6736 C   0  0  2  0  0  0  0  0  0  0  0  0
    1.5590    1.2708    1.0868 C   0  0  0  0  0  0  0  0  0  0  0  0
    0.0714    1.2108    1.1615 C   0  0  0  0  0  0  0  0  0  0  0  0
   -0.6048    0.5500    0.0237 C   0  0  1  0  0  0  0  0  0  0  0  0
    0.1105   -0.7046   -0.4686 C   0  0  1  0  0  0  0  0  0  0  0  0
   -0.6300   -1.1902   -1.6834 C   0  0  0  0  0  0  0  0  0  0  0  0
   -1.9229   -1.8329   -1.1650 C   0  0  0  0  0  0  0  0  0  0  0  0
   -2.6812   -0.7168   -0.5104 C   0  0  0  0  0  0  0  0  0  0  0  0
   -4.0053   -0.6894   -0.7194 C   0  0  0  0  0  0  0  0  0  0  0  0
   -4.8523    0.3426   -0.1393 C   0  0  0  0  0  0  0  0  0  0  0  0
   -6.1042    0.2470   -0.1595 O   0  0  0  0  0  0  0  0  0  0  0  0
   -4.2299    1.5290    0.4874 C   0  0  0  0  0  0  0  0  0  0  0  0
   -2.7863    1.6262    0.0430 C   0  0  0  0  0  0  0  0  0  0  0  0
   -2.0471    0.3125    0.3232 C   0  0  2  0  0  0  0  0  0  0  0  0
   -2.2726    0.0127    1.7943 C   0  0  0  0  0  0  0  0  0  0  0  0
    1.5159   -0.3239   -0.7108 C   0  0  2  0  0  0  0  0  0  0  0  0
    2.4222   -1.3609   -1.2349 C   0  0  0  0  0  0  0  0  0  0  0  0
    3.7773   -0.6924   -0.9823 C   0  0  0  0  0  0  0  0  0  0  0  0
    3.5717   -0.0645    0.3799 C   0  0  2  0  0  0  0  0  0  0  0  0
    4.2070   -0.9294    1.3013 O   0  0  0  0  0  0  0  0  0  0  0  0
    4.2254    1.2351    0.4984 C   0  0  0  0  0  0  0  0  0  0  0  0
    4.7766    2.2855    0.5929 C   0  0  0  0  0  0  0  0  0  0  0  0
    0.8070   -0.9627    2.1721 H   0  0  0  0  0  0  0  0  0  0  0  0
    2.5478   -1.1364    2.4523 H   0  0  0  0  0  0  0  0  0  0  0  0
    1.7435   -2.1333    1.2280 H   0  0  0  0  0  0  0  0  0  0  0  0
    1.9225    2.0512    0.3653 H   0  0  0  0  0  0  0  0  0  0  0  0
    1.9425    1.5565    2.0942 H   0  0  0  0  0  0  0  0  0  0  0  0
   -0.2956    2.2797    1.1965 H   0  0  0  0  0  0  0  0  0  0  0  0
   -0.2221    0.7983    2.1654 H   0  0  0  0  0  0  0  0  0  0  0  0
   -0.5681    1.2609   -0.8535 H   0  0  0  0  0  0  0  0  0  0  0  0
   -0.0001   -1.4813    0.3146 H   0  0  0  0  0  0  0  0  0  0  0  0
   -0.9514   -0.2882   -2.2533 H   0  0  0  0  0  0  0  0  0  0  0  0
   -0.0490   -1.8921   -2.3002 H   0  0  0  0  0  0  0  0  0  0  0  0
   -1.6397   -2.5297   -0.3501 H   0  0  0  0  0  0  0  0  0  0  0  0
   -2.5054   -2.2869   -1.9641 H   0  0  0  0  0  0  0  0  0  0  0  0
   -4.4808   -1.4472   -1.3346 H   0  0  0  0  0  0  0  0  0  0  0  0
   -4.2968    1.5060    1.5953 H   0  0  0  0  0  0  0  0  0  0  0  0
   -4.7334    2.4499    0.1289 H   0  0  0  0  0  0  0  0  0  0  0  0
   -2.2840    2.4811    0.5330 H   0  0  0  0  0  0  0  0  0  0  0  0
   -2.8003    1.7395   -1.0570 H   0  0  0  0  0  0  0  0  0  0  0  0
   -1.5823   -0.7373    2.1945 H   0  0  0  0  0  0  0  0  0  0  0  0
   -2.2471    0.9860    2.3297 H   0  0  0  0  0  0  0  0  0  0  0  0
   -3.3006   -0.3990    1.9132 H   0  0  0  0  0  0  0  0  0  0  0  0
    1.5742    0.5835   -1.3255 H   0  0  0  0  0  0  0  0  0  0  0  0
    2.3387   -1.5444   -2.3263 H   0  0  0  0  0  0  0  0  0  0  0  0
    2.4351   -2.2992   -0.6838 H   0  0  0  0  0  0  0  0  0  0  0  0
    4.5959   -1.4085   -1.0210 H   0  0  0  0  0  0  0  0  0  0  0  0
    3.8705    0.1378   -1.7176 H   0  0  0  0  0  0  0  0  0  0  0  0
    4.9214   -1.4528    0.8583 H   0  0  0  0  0  0  0  0  0  0  0  0
    5.2863    3.2205    0.6846 H   0  0  0  0  0  0  0  0  0  0  0  0
  2  1  1  1
  2  3  1  0
  3  4  1  0
  4  5  1  0
  5  6  1  0
  6  7  1  0
  7  8  1  0
  8  9  1  0
  9 10  2  0
 10 11  1  0
 11 12  2  0
 11 13  1  0
 13 14  1  0
 14 15  1  0
 15 16  1  1
  6 17  1  0
 17 18  1  0
 18 19  1  0
 19 20  1  0
 20 21  1  0
 20 22  1  6
 22 23  3  0
 17  2  1  0
 20  2  1  0
 15  5  1  0
 15  9  1  0
  1 24  1  0
  1 25  1  0
  1 26  1  0
  3 27  1  0
  3 28  1  0
  4 29  1  0
  4 30  1  0
  5 31  1  6
  6 32  1  1
  7 33  1  0
  7 34  1  0
  8 35  1  0
  8 36  1  0
 10 37  1  0
 13 38  1  0
 13 39  1  0
 14 40  1  0
 14 41  1  0
 16 42  1  0
 16 43  1  0
 16 44  1  0
 17 45  1  6
 18 46  1  0
 18 47  1  0
 19 48  1  0
 19 49  1  0
 21 50  1  0
 23 51  1  0
M  END
$$$$
[H]c1c([H])c(C(=O)N2C([H])([H])C([H])([H])N(C(=O)c3c([H])c([H])c(-c4c([H])c([H])c(S(=O)(=O)C([H])([H])[H])c([H])c4[H])c([H])c3[H])C([H])([H])C2([H])[H])c([H])c([H])c1Cl
     RDKit          3D

 56 59  0  0  0  0  0  0  0  0999 V2000
    9.3695    1.8759    0.5586 C   0  0  0  0  0  0  0  0  0  0  0  0
    8.6265    0.6977    1.6533 S   0  0  0  0  0  0  0  0  0  0  0  0
    8.5607    1.3354    3.0273 O   0  0  0  0  0  0  0  0  0  0  0  0
    9.4738   -0.5272    1.7714 O   0  0  0  0  0  0  0  0  0  0  0  0
    7.0226    0.3323    1.0588 C   0  0  0  0  0  0  0  0  0  0  0  0
    5.9213    1.0601    1.4592 C   0  0  0  0  0  0  0  0  0  0  0  0
    4.6716    0.7479    0.9725 C   0  0  0  0  0  0  0  0  0  0  0  0
    4.4671   -0.2841    0.0818 C   0  0  0  0  0  0  0  0  0  0  0  0
    5.5454   -1.0171   -0.3270 C   0  0  0  0  0  0  0  0  0  0  0  0
    6.7950   -0.7014    0.1625 C   0  0  0  0  0  0  0  0  0  0  0  0
    3.1050   -0.5233   -0.3681 C   0  0  0  0  0  0  0  0  0  0  0  0
    2.1752    0.4781   -0.5102 C   0  0  0  0  0  0  0  0  0  0  0  0
    0.8614    0.2232   -0.9489 C   0  0  0  0  0  0  0  0  0  0  0  0
    0.4467   -1.0337   -1.2549 C   0  0  0  0  0  0  0  0  0  0  0  0
    1.3993   -2.0578   -1.1090 C   0  0  0  0  0  0  0  0  0  0  0  0
    2.6810   -1.7957   -0.6791 C   0  0  0  0  0  0  0  0  0  0  0  0
   -0.8517   -1.4059   -1.7037 C   0  0  0  0  0  0  0  0  0  0  0  0
   -1.0332   -2.6796   -1.9556 O   0  0  0  0  0  0  0  0  0  0  0  0
   -1.9764   -0.6244   -1.9215 N   0  0  0  0  0  0  0  0  0  0  0  0
   -2.1513    0.7908   -1.7496 C   0  0  0  0  0  0  0  0  0  0  0  0
   -3.5725    1.2109   -2.0680 C   0  0  0  0  0  0  0  0  0  0  0  0
   -4.4357    0.3451   -1.1862 N   0  0  0  0  0  0  0  0  0  0  0  0
   -4.2676   -1.0587   -1.3624 C   0  0  0  0  0  0  0  0  0  0  0  0
   -3.1953   -1.3255   -2.4102 C   0  0  0  0  0  0  0  0  0  0  0  0
   -5.2974    0.9924   -0.3143 C   0  0  0  0  0  0  0  0  0  0  0  0
   -5.2331    2.3136   -0.3984 O   0  0  0  0  0  0  0  0  0  0  0  0
   -6.2332    0.4845    0.6485 C   0  0  0  0  0  0  0  0  0  0  0  0
   -6.4468   -0.8344    0.9426 C   0  0  0  0  0  0  0  0  0  0  0  0
   -7.3842   -1.2450    1.8851 C   0  0  0  0  0  0  0  0  0  0  0  0
   -8.1327   -0.3154    2.5567 C   0  0  0  0  0  0  0  0  0  0  0  0
   -9.3000   -0.8806    3.7339 Cl  0  0  0  0  0  0  0  0  0  0  0  0
   -7.9407    1.0011    2.2843 C   0  0  0  0  0  0  0  0  0  0  0  0
   -7.0283    1.4009    1.3667 C   0  0  0  0  0  0  0  0  0  0  0  0
    9.4502    1.4532   -0.4769 H   0  0  0  0  0  0  0  0  0  0  0  0
   10.3720    2.1827    0.9458 H   0  0  0  0  0  0  0  0  0  0  0  0
    8.7078    2.7600    0.4866 H   0  0  0  0  0  0  0  0  0  0  0  0
    6.0432    1.8740    2.1548 H   0  0  0  0  0  0  0  0  0  0  0  0
    3.8397    1.3645    1.3300 H   0  0  0  0  0  0  0  0  0  0  0  0
    5.4028   -1.8202   -1.0171 H   0  0  0  0  0  0  0  0  0  0  0  0
    7.6834   -1.2653   -0.1417 H   0  0  0  0  0  0  0  0  0  0  0  0
    2.4931    1.4892   -0.2692 H   0  0  0  0  0  0  0  0  0  0  0  0
    0.2583    1.0932   -1.0124 H   0  0  0  0  0  0  0  0  0  0  0  0
    1.1313   -3.0932   -1.3384 H   0  0  0  0  0  0  0  0  0  0  0  0
    3.4279   -2.5866   -0.5632 H   0  0  0  0  0  0  0  0  0  0  0  0
   -1.9946    1.0230   -0.6636 H   0  0  0  0  0  0  0  0  0  0  0  0
   -1.5126    1.3993   -2.4285 H   0  0  0  0  0  0  0  0  0  0  0  0
   -3.8833    0.9900   -3.0800 H   0  0  0  0  0  0  0  0  0  0  0  0
   -3.6979    2.2753   -1.7823 H   0  0  0  0  0  0  0  0  0  0  0  0
   -5.2071   -1.5795   -1.6669 H   0  0  0  0  0  0  0  0  0  0  0  0
   -3.8320   -1.5042   -0.4227 H   0  0  0  0  0  0  0  0  0  0  0  0
   -3.5124   -0.9034   -3.3576 H   0  0  0  0  0  0  0  0  0  0  0  0
   -3.0113   -2.4074   -2.5359 H   0  0  0  0  0  0  0  0  0  0  0  0
   -5.8984   -1.6157    0.4656 H   0  0  0  0  0  0  0  0  0  0  0  0
   -7.4959   -2.3101    2.0628 H   0  0  0  0  0  0  0  0  0  0  0  0
   -8.5372    1.7398    2.8198 H   0  0  0  0  0  0  0  0  0  0  0  0
   -6.8691    2.4615    1.1419 H   0  0  0  0  0  0  0  0  0  0  0  0
  1  2  1  0
  2  3  2  0
  2  4  2  0
  2  5  1  0
  5  6  2  0
  6  7  1  0
  7  8  2  0
  8  9  1  0
  9 10  2  0
  8 11  1  0
 11 12  2  0
 12 13  1  0
 13 14  2  0
 14 15  1  0
 15 16  2  0
 14 17  1  0
 17 18  2  0
 17 19  1  0
 19 20  1  0
 20 21  1  0
 21 22  1  0
 22 23  1  0
 23 24  1  0
 22 25  1  0
 25 26  2  0
 25 27  1  0
 27 28  2  0
 28 29  1  0
 29 30  2  0
 30 31  1  0
 30 32  1  0
 32 33  2  0
 10  5  1  0
 16 11  1  0
 24 19  1  0
 33 27  1  0
  1 34  1  0
  1 35  1  0
  1 36  1  0
  6 37  1  0
  7 38  1  0
  9 39  1  0
 10 40  1  0
 12 41  1  0
 13 42  1  0
 15 43  1  0
 16 44  1  0
 20 45  1  0
 20 46  1  0
 21 47  1  0
 21 48  1  0
 23 49  1  0
 23 50  1  0
 24 51  1  0
 24 52  1  0
 28 53  1  0
 29 54  1  0
 32 55  1  0
 33 56  1  0
M  END
$$$$
[H]c1c([H])c(Cl)c([H])c(S(=O)(=O)N([H])[C@]2([H])C([H])([H])C([H])([H])[C@@]([H])(c3c([H])c([H])c(N4C([H])([H])C([H])([H])N(C([H])([H])[H])C([H])([H])C4([H])[H])c([H])c3[H])C([H])([H])C2([H])[H])c1[H]
     RDKit          3D

 60 63  0  0  0  0  0  0  0  0999 V2000
   -8.3497    1.7373    0.5075 C   0  0  0  0  0  0  0  0  0  0  0  0
   -7.1628    1.1645    1.1060 N   0  0  0  0  0  0  0  0  0  0  0  0
   -6.7897   -0.0858    0.5255 C   0  0  0  0  0  0  0  0  0  0  0  0
   -5.6338   -0.6176    1.3987 C   0  0  0  0  0  0  0  0  0  0  0  0
   -4.5358    0.2450    1.0924 N   0  0  0  0  0  0  0  0  0  0  0  0
   -4.7349    1.6679    1.1740 C   0  0  0  0  0  0  0  0  0  0  0  0
   -6.1354    2.1384    1.2279 C   0  0  0  0  0  0  0  0  0  0  0  0
   -3.2790   -0.2758    0.7128 C   0  0  0  0  0  0  0  0  0  0  0  0
   -3.0183   -1.6001    0.4820 C   0  0  0  0  0  0  0  0  0  0  0  0
   -1.7348   -2.0324    0.1099 C   0  0  0  0  0  0  0  0  0  0  0  0
   -0.6889   -1.1681   -0.0408 C   0  0  0  0  0  0  0  0  0  0  0  0
   -0.9349    0.1647    0.1875 C   0  0  0  0  0  0  0  0  0  0  0  0
   -2.1858    0.5952    0.5515 C   0  0  0  0  0  0  0  0  0  0  0  0
    0.6383   -1.6757   -0.4351 C   0  0  1  0  0  0  0  0  0  0  0  0
    1.1106   -1.1090   -1.7581 C   0  0  0  0  0  0  0  0  0  0  0  0
    2.4744   -1.7035   -2.0387 C   0  0  0  0  0  0  0  0  0  0  0  0
    3.4588   -1.0053   -1.0957 C   0  0  1  0  0  0  0  0  0  0  0  0
    2.7679   -0.5008    0.1538 C   0  0  0  0  0  0  0  0  0  0  0  0
    1.6932   -1.4534    0.6299 C   0  0  0  0  0  0  0  0  0  0  0  0
    4.5062   -1.9355   -0.8111 N   0  0  0  0  0  0  0  0  0  0  0  0
    6.0070   -1.3487   -1.4153 S   0  0  0  0  0  0  0  0  0  0  0  0
    7.0869   -2.3752   -1.2073 O   0  0  0  0  0  0  0  0  0  0  0  0
    5.8654   -1.1162   -2.9078 O   0  0  0  0  0  0  0  0  0  0  0  0
    6.4087    0.1513   -0.6339 C   0  0  0  0  0  0  0  0  0  0  0  0
    6.0626    1.3416   -1.2193 C   0  0  0  0  0  0  0  0  0  0  0  0
    6.3974    2.5159   -0.5575 C   0  0  0  0  0  0  0  0  0  0  0  0
    7.0576    2.4931    0.6513 C   0  0  0  0  0  0  0  0  0  0  0  0
    7.3991    1.2955    1.2274 C   0  0  0  0  0  0  0  0  0  0  0  0
    8.2469    1.2468    2.7786 Cl  0  0  0  0  0  0  0  0  0  0  0  0
    7.0615    0.1418    0.5613 C   0  0  0  0  0  0  0  0  0  0  0  0
   -8.7202    1.1180   -0.3403 H   0  0  0  0  0  0  0  0  0  0  0  0
   -9.1439    1.7339    1.2834 H   0  0  0  0  0  0  0  0  0  0  0  0
   -8.1632    2.7822    0.1928 H   0  0  0  0  0  0  0  0  0  0  0  0
   -6.4369    0.0008   -0.5268 H   0  0  0  0  0  0  0  0  0  0  0  0
   -7.6207   -0.7898    0.6349 H   0  0  0  0  0  0  0  0  0  0  0  0
   -5.5137   -1.6769    1.2123 H   0  0  0  0  0  0  0  0  0  0  0  0
   -6.0140   -0.4185    2.4521 H   0  0  0  0  0  0  0  0  0  0  0  0
   -4.1035    2.0413    2.0289 H   0  0  0  0  0  0  0  0  0  0  0  0
   -4.2614    2.1299    0.2576 H   0  0  0  0  0  0  0  0  0  0  0  0
   -6.3094    3.0052    0.5217 H   0  0  0  0  0  0  0  0  0  0  0  0
   -6.2774    2.6250    2.2412 H   0  0  0  0  0  0  0  0  0  0  0  0
   -3.8074   -2.3217    0.5861 H   0  0  0  0  0  0  0  0  0  0  0  0
   -1.6208   -3.0916   -0.0517 H   0  0  0  0  0  0  0  0  0  0  0  0
   -0.0941    0.8373    0.0638 H   0  0  0  0  0  0  0  0  0  0  0  0
   -2.3455    1.6585    0.7263 H   0  0  0  0  0  0  0  0  0  0  0  0
    0.5668   -2.7725   -0.5695 H   0  0  0  0  0  0  0  0  0  0  0  0
    0.3975   -1.3943   -2.5536 H   0  0  0  0  0  0  0  0  0  0  0  0
    1.2470   -0.0177   -1.6719 H   0  0  0  0  0  0  0  0  0  0  0  0
    2.7908   -1.5238   -3.0867 H   0  0  0  0  0  0  0  0  0  0  0  0
    2.4866   -2.7713   -1.7780 H   0  0  0  0  0  0  0  0  0  0  0  0
    3.8000   -0.1049   -1.6412 H   0  0  0  0  0  0  0  0  0  0  0  0
    2.3325    0.5062    0.0096 H   0  0  0  0  0  0  0  0  0  0  0  0
    3.5188   -0.4257    0.9553 H   0  0  0  0  0  0  0  0  0  0  0  0
    2.1516   -2.3868    0.9876 H   0  0  0  0  0  0  0  0  0  0  0  0
    1.1943   -0.9771    1.4994 H   0  0  0  0  0  0  0  0  0  0  0  0
    4.5809   -2.1524    0.2025 H   0  0  0  0  0  0  0  0  0  0  0  0
    5.5406    1.4167   -2.1791 H   0  0  0  0  0  0  0  0  0  0  0  0
    6.1105    3.4437   -1.0451 H   0  0  0  0  0  0  0  0  0  0  0  0
    7.3085    3.4309    1.1506 H   0  0  0  0  0  0  0  0  0  0  0  0
    7.3468   -0.8001    1.0463 H   0  0  0  0  0  0  0  0  0  0  0  0
  1  2  1  0
  2  3  1  0
  3  4  1  0
  4  5  1  0
  5  6  1  0
  6  7  1  0
  5  8  1  0
  8  9  2  0
  9 10  1  0
 10 11  2  0
 11 12  1  0
 12 13  2  0
 11 14  1  0
 14 15  1  0
 15 16  1  0
 16 17  1  0
 17 18  1  0
 18 19  1  0
 17 20  1  0
 20 21  1  0
 21 22  2  0
 21 23  2  0
 21 24  1  0
 24 25  2  0
 25 26  1  0
 26 27  2  0
 27 28  1  0
 28 29  1  0
 28 30  2  0
  7  2  1  0
 13  8  1  0
 19 14  1  0
 30 24  1  0
  1 31  1  0
  1 32  1  0
  1 33  1  0
  3 34  1  0
  3 35  1  0
  4 36  1  0
  4 37  1  0
  6 38  1  0
  6 39  1  0
  7 40  1  0
  7 41  1  0
  9 42  1  0
 10 43  1  0
 12 44  1  0
 13 45  1  0
 14 46  1  6
 15 47  1  0
 15 48  1  0
 16 49  1  0
 16 50  1  0
 17 51  1  6
 18 52  1  0
 18 53  1  0
 19 54  1  0
 19 55  1  0
 20 56  1  0
 25 57  1  0
 26 58  1  0
 27 59  1  0
 30 60  1  0
M  END
$$$$
[H]c1c([H])c(-c2c([H])c([H])c(C(=O)N3C([H])([H])C([H])([H])N(S(=O)(=O)c4c([H])c([H])c(N5C([H])([H])C([H])([H])OC([H])([H])C5([H])[H])c([H])c4[H])C([H])([H])[C@@]3([H])C([H])([H])[H])c([H])c2[H])c([H])c([H])c1C#N
     RDKit          3D

 68 72  0  0  0  0  0  0  0  0999 V2000
    0.9106    2.2876    0.1262 C   0  0  0  0  0  0  0  0  0  0  0  0
    0.7169    0.9875    0.9157 C   0  0  2  0  0  0  0  0  0  0  0  0
   -0.7248    1.0805    1.4460 C   0  0  0  0  0  0  0  0  0  0  0  0
   -1.0069    0.1864    2.5095 N   0  0  0  0  0  0  0  0  0  0  0  0
    0.0105    0.1465    3.5367 C   0  0  0  0  0  0  0  0  0  0  0  0
    1.0146    1.2762    3.3475 C   0  0  0  0  0  0  0  0  0  0  0  0
    1.6461    0.9708    2.0005 N   0  0  0  0  0  0  0  0  0  0  0  0
    3.0065    0.7179    2.0489 C   0  0  0  0  0  0  0  0  0  0  0  0
    3.4986    0.8386    3.2763 O   0  0  0  0  0  0  0  0  0  0  0  0
    3.9536    0.3600    1.0341 C   0  0  0  0  0  0  0  0  0  0  0  0
    5.3176    0.3307    1.4404 C   0  0  0  0  0  0  0  0  0  0  0  0
    6.3177   -0.0237    0.5669 C   0  0  0  0  0  0  0  0  0  0  0  0
    6.0428   -0.3668   -0.7426 C   0  0  0  0  0  0  0  0  0  0  0  0
    4.7248   -0.3302   -1.1042 C   0  0  0  0  0  0  0  0  0  0  0  0
    3.6773    0.0212   -0.2584 C   0  0  0  0  0  0  0  0  0  0  0  0
    7.1094   -0.7402   -1.6655 C   0  0  0  0  0  0  0  0  0  0  0  0
    8.3557   -0.1703   -1.5317 C   0  0  0  0  0  0  0  0  0  0  0  0
    9.3921   -0.5210   -2.4038 C   0  0  0  0  0  0  0  0  0  0  0  0
    9.1335   -1.4399   -3.3862 C   0  0  0  0  0  0  0  0  0  0  0  0
    7.9029   -2.0297   -3.5509 C   0  0  0  0  0  0  0  0  0  0  0  0
    6.9043   -1.6568   -2.6691 C   0  0  0  0  0  0  0  0  0  0  0  0
   10.1930   -1.8037   -4.2848 C   0  0  0  0  0  0  0  0  0  0  0  0
   11.0440   -2.0958   -5.0094 N   0  0  0  0  0  0  0  0  0  0  0  0
   -2.5578    0.4639    3.2061 S   0  0  0  0  0  0  0  0  0  0  0  0
   -2.7930   -0.4622    4.3595 O   0  0  0  0  0  0  0  0  0  0  0  0
   -2.6746    1.8896    3.7122 O   0  0  0  0  0  0  0  0  0  0  0  0
   -3.7632    0.2037    1.9660 C   0  0  0  0  0  0  0  0  0  0  0  0
   -4.2174    1.2137    1.1560 C   0  0  0  0  0  0  0  0  0  0  0  0
   -5.1696    0.9692    0.1997 C   0  0  0  0  0  0  0  0  0  0  0  0
   -5.7367   -0.2970   -0.0184 C   0  0  0  0  0  0  0  0  0  0  0  0
   -5.2696   -1.2945    0.8008 C   0  0  0  0  0  0  0  0  0  0  0  0
   -4.2985   -1.0502    1.7777 C   0  0  0  0  0  0  0  0  0  0  0  0
   -6.7148   -0.4792   -1.0196 N   0  0  0  0  0  0  0  0  0  0  0  0
   -7.3891   -1.7318   -1.1853 C   0  0  0  0  0  0  0  0  0  0  0  0
   -8.8842   -1.4372   -1.3214 C   0  0  0  0  0  0  0  0  0  0  0  0
   -9.1605   -0.4227   -2.2036 O   0  0  0  0  0  0  0  0  0  0  0  0
   -8.0758    0.0673   -2.8999 C   0  0  0  0  0  0  0  0  0  0  0  0
   -7.0473    0.6186   -1.9046 C   0  0  0  0  0  0  0  0  0  0  0  0
    0.2086    3.0707    0.4625 H   0  0  0  0  0  0  0  0  0  0  0  0
    0.7929    2.1439   -0.9541 H   0  0  0  0  0  0  0  0  0  0  0  0
    1.9311    2.6920    0.2856 H   0  0  0  0  0  0  0  0  0  0  0  0
    0.6969    0.1601    0.2253 H   0  0  0  0  0  0  0  0  0  0  0  0
   -1.4339    0.9155    0.6165 H   0  0  0  0  0  0  0  0  0  0  0  0
   -0.8514    2.1200    1.7940 H   0  0  0  0  0  0  0  0  0  0  0  0
   -0.4897    0.3506    4.5047 H   0  0  0  0  0  0  0  0  0  0  0  0
    0.5061   -0.8227    3.6137 H   0  0  0  0  0  0  0  0  0  0  0  0
    1.7696    1.2347    4.1095 H   0  0  0  0  0  0  0  0  0  0  0  0
    0.5405    2.2531    3.3098 H   0  0  0  0  0  0  0  0  0  0  0  0
    5.5711    0.5910    2.4409 H   0  0  0  0  0  0  0  0  0  0  0  0
    7.3583   -0.0429    0.8870 H   0  0  0  0  0  0  0  0  0  0  0  0
    4.4316   -0.5910   -2.1286 H   0  0  0  0  0  0  0  0  0  0  0  0
    2.6704    0.0114   -0.6117 H   0  0  0  0  0  0  0  0  0  0  0  0
    8.4953    0.5544   -0.7298 H   0  0  0  0  0  0  0  0  0  0  0  0
   10.3635   -0.0495   -2.2660 H   0  0  0  0  0  0  0  0  0  0  0  0
    7.7826   -2.7447   -4.3501 H   0  0  0  0  0  0  0  0  0  0  0  0
    5.9371   -2.1167   -2.7938 H   0  0  0  0  0  0  0  0  0  0  0  0
   -3.8077    2.2222    1.2841 H   0  0  0  0  0  0  0  0  0  0  0  0
   -5.5459    1.7620   -0.4568 H   0  0  0  0  0  0  0  0  0  0  0  0
   -5.6549   -2.3157    0.6971 H   0  0  0  0  0  0  0  0  0  0  0  0
   -3.9631   -1.8868    2.4033 H   0  0  0  0  0  0  0  0  0  0  0  0
   -7.3133   -2.4336   -0.3406 H   0  0  0  0  0  0  0  0  0  0  0  0
   -7.0406   -2.2930   -2.0826 H   0  0  0  0  0  0  0  0  0  0  0  0
   -9.2387   -1.1732   -0.3094 H   0  0  0  0  0  0  0  0  0  0  0  0
   -9.4058   -2.3947   -1.5807 H   0  0  0  0  0  0  0  0  0  0  0  0
   -7.5978   -0.7534   -3.5013 H   0  0  0  0  0  0  0  0  0  0  0  0
   -8.4203    0.8355   -3.5980 H   0  0  0  0  0  0  0  0  0  0  0  0
   -6.1698    0.9512   -2.5115 H   0  0  0  0  0  0  0  0  0  0  0  0
   -7.5116    1.4728   -1.3806 H   0  0  0  0  0  0  0  0  0  0  0  0
  1  2  1  0
  2  3  1  0
  3  4  1  0
  4  5  1  0
  5  6  1  0
  6  7  1  0
  7  8  1  0
  8  9  2  0
  8 10  1  0
 10 11  2  0
 11 12  1  0
 12 13  2  0
 13 14  1  0
 14 15  2  0
 13 16  1  0
 16 17  2  0
 17 18  1  0
 18 19  2  0
 19 20  1  0
 20 21  2  0
 19 22  1  0
 22 23  3  0
  4 24  1  0
 24 25  2  0
 24 26  2  0
 24 27  1  0
 27 28  2  0
 28 29  1  0
 29 30  2  0
 30 31  1  0
 31 32  2  0
 30 33  1  0
 33 34  1  0
 34 35  1  0
 35 36  1  0
 36 37  1  0
 37 38  1  0
  7  2  1  0
 15 10  1  0
 21 16  1  0
 32 27  1  0
 38 33  1  0
  1 39  1  0
  1 40  1  0
  1 41  1  0
  2 42  1  6
  3 43  1  0
  3 44  1  0
  5 45  1  0
  5 46  1  0
  6 47  1  0
  6 48  1  0
 11 49  1  0
 12 50  1  0
 14 51  1  0
 15 52  1  0
 17 53  1  0
 18 54  1  0
 20 55  1  0
 21 56  1  0
 28 57  1  0
 29 58  1  0
 31 59  1  0
 32 60  1  0
 34 61  1  0
 34 62  1  0
 35 63  1  0
 35 64  1  0
 37 65  1  0
 37 66  1  0
 38 67  1  0
 38 68  1  0
M  END
$$$$
[H]c1c(Cl)c([H])c(C(=O)N([H])[C@]([H])(c2c([H])c([H])c(OC([H])([H])[H])c(OC([H])([H])[H])c2[H])C([H])([H])c2c([H])n([H])c3c([H])c([H])c([H])c([H])c23)c([H])c1Cl
     RDKit          3D

 54 57  0  0  0  0  0  0  0  0999 V2000
    5.2901    0.0260   -2.5429 C   0  0  0  0  0  0  0  0  0  0  0  0
    4.6253   -0.1923   -1.3232 O   0  0  0  0  0  0  0  0  0  0  0  0
    3.2352   -0.1127   -1.2933 C   0  0  0  0  0  0  0  0  0  0  0  0
    2.5157    0.1748   -2.4348 C   0  0  0  0  0  0  0  0  0  0  0  0
    1.1402    0.2557   -2.4148 C   0  0  0  0  0  0  0  0  0  0  0  0
    0.4001    0.0553   -1.2578 C   0  0  0  0  0  0  0  0  0  0  0  0
    1.1343   -0.2333   -0.1158 C   0  0  0  0  0  0  0  0  0  0  0  0
    2.5124   -0.3143   -0.1363 C   0  0  0  0  0  0  0  0  0  0  0  0
    3.2558   -0.6045    1.0109 O   0  0  0  0  0  0  0  0  0  0  0  0
    2.5425   -0.8166    2.2148 C   0  0  0  0  0  0  0  0  0  0  0  0
   -1.0478    0.1081   -1.1918 C   0  0  2  0  0  0  0  0  0  0  0  0
   -1.7376    1.3714   -0.9450 C   0  0  0  0  0  0  0  0  0  0  0  0
   -1.4977    2.1361    0.2620 C   0  0  0  0  0  0  0  0  0  0  0  0
   -2.1769    2.1121    1.4736 C   0  0  0  0  0  0  0  0  0  0  0  0
   -1.5755    2.9578    2.3168 N   0  0  0  0  0  0  0  0  0  0  0  0
   -0.5258    3.5512    1.7338 C   0  0  0  0  0  0  0  0  0  0  0  0
    0.3945    4.4919    2.1589 C   0  0  0  0  0  0  0  0  0  0  0  0
    1.3883    4.9494    1.3161 C   0  0  0  0  0  0  0  0  0  0  0  0
    1.4705    4.4645    0.0263 C   0  0  0  0  0  0  0  0  0  0  0  0
    0.5490    3.5324   -0.3742 C   0  0  0  0  0  0  0  0  0  0  0  0
   -0.4699    3.0417    0.4438 C   0  0  0  0  0  0  0  0  0  0  0  0
   -1.5328   -0.9869   -0.3431 N   0  0  0  0  0  0  0  0  0  0  0  0
   -2.2107   -2.0770   -0.9208 C   0  0  0  0  0  0  0  0  0  0  0  0
   -2.3850   -2.0822   -2.1799 O   0  0  0  0  0  0  0  0  0  0  0  0
   -2.7082   -3.1767   -0.1360 C   0  0  0  0  0  0  0  0  0  0  0  0
   -2.6092   -3.2019    1.2303 C   0  0  0  0  0  0  0  0  0  0  0  0
   -3.0990   -4.2816    1.9787 C   0  0  0  0  0  0  0  0  0  0  0  0
   -2.9354   -4.2390    3.7184 Cl  0  0  0  0  0  0  0  0  0  0  0  0
   -3.6814   -5.3126    1.2922 C   0  0  0  0  0  0  0  0  0  0  0  0
   -3.8002   -5.3243   -0.0873 C   0  0  0  0  0  0  0  0  0  0  0  0
   -4.5524   -6.6606   -0.9493 Cl  0  0  0  0  0  0  0  0  0  0  0  0
   -3.3038   -4.2417   -0.7724 C   0  0  0  0  0  0  0  0  0  0  0  0
    6.3765   -0.2124   -2.4608 H   0  0  0  0  0  0  0  0  0  0  0  0
    4.8964   -0.5884   -3.3756 H   0  0  0  0  0  0  0  0  0  0  0  0
    5.1610    1.1203   -2.7774 H   0  0  0  0  0  0  0  0  0  0  0  0
    3.0740    0.3370   -3.3586 H   0  0  0  0  0  0  0  0  0  0  0  0
    0.5916    0.4781   -3.3009 H   0  0  0  0  0  0  0  0  0  0  0  0
    0.6017   -0.4013    0.8332 H   0  0  0  0  0  0  0  0  0  0  0  0
    3.2837   -1.0631    3.0036 H   0  0  0  0  0  0  0  0  0  0  0  0
    2.0594    0.1322    2.5297 H   0  0  0  0  0  0  0  0  0  0  0  0
    1.7595   -1.5851    2.1111 H   0  0  0  0  0  0  0  0  0  0  0  0
   -1.3978   -0.2062   -2.2413 H   0  0  0  0  0  0  0  0  0  0  0  0
   -2.8490    1.1493   -0.9674 H   0  0  0  0  0  0  0  0  0  0  0  0
   -1.6062    2.0181   -1.8581 H   0  0  0  0  0  0  0  0  0  0  0  0
   -3.0439    1.4822    1.6279 H   0  0  0  0  0  0  0  0  0  0  0  0
   -1.8693    3.1510    3.3159 H   0  0  0  0  0  0  0  0  0  0  0  0
    0.3436    4.8808    3.1633 H   0  0  0  0  0  0  0  0  0  0  0  0
    2.1209    5.6839    1.6217 H   0  0  0  0  0  0  0  0  0  0  0  0
    2.2461    4.8070   -0.6669 H   0  0  0  0  0  0  0  0  0  0  0  0
    0.6157    3.1584   -1.4104 H   0  0  0  0  0  0  0  0  0  0  0  0
   -1.3524   -0.9129    0.6893 H   0  0  0  0  0  0  0  0  0  0  0  0
   -2.1491   -2.3870    1.7767 H   0  0  0  0  0  0  0  0  0  0  0  0
   -4.0597   -6.1437    1.8568 H   0  0  0  0  0  0  0  0  0  0  0  0
   -3.4070   -4.2683   -1.8694 H   0  0  0  0  0  0  0  0  0  0  0  0
  1  2  1  0
  2  3  1  0
  3  4  2  0
  4  5  1  0
  5  6  2  0
  6  7  1  0
  7  8  2  0
  8  9  1  0
  9 10  1  0
  6 11  1  0
 11 12  1  0
 12 13  1  0
 13 14  2  0
 14 15  1  0
 15 16  1  0
 16 17  2  0
 17 18  1  0
 18 19  2  0
 19 20  1  0
 20 21  2  0
 11 22  1  0
 22 23  1  0
 23 24  2  0
 23 25  1  0
 25 26  2  0
 26 27  1  0
 27 28  1  0
 27 29  2  0
 29 30  1  0
 30 31  1  0
 30 32  2  0
  8  3  1  0
 21 13  1  0
 32 25  1  0
 21 16  1  0
  1 33  1  0
  1 34  1  0
  1 35  1  0
  4 36  1  0
  5 37  1  0
  7 38  1  0
 10 39  1  0
 10 40  1  0
 10 41  1  0
 11 42  1  6
 12 43  1  0
 12 44  1  0
 14 45  1  0
 15 46  1  0
 17 47  1  0
 18 48  1  0
 19 49  1  0
 20 50  1  0
 22 51  1  0
 26 52  1  0
 29 53  1  0
 32 54  1  0
M  END
$$$$
[H]N=C(N([H])[H])N([H])C([H])([H])C([H])([H])C([H])([H])[C@@]([H])(C(=O)N([H])[C@]([H])(C(=O)N([H])[H])C([H])([H])c1c([H])c([H])c([H])c([H])c1[H])N([H])C(=O)[C@@]([H])(N([H])C(=O)[C@@]([H])(N([H])C(=O)OC([H])([H])c1c([H])c([H])c([H])c([H])c1[H])C([H])([H])c1c([H])c([H])c([H])c([H])c1[H])C([H])([H])C([H])(C([H])([H])[H])C([H])([H])[H]
     RDKit          3D

102104  0  0  0  0  0  0  0  0999 V2000
   -0.5249   -2.4560   -3.3404 C   0  0  0  0  0  0  0  0  0  0  0  0
    0.4619   -1.4944   -3.9049 C   0  0  0  0  0  0  0  0  0  0  0  0
    0.0105   -1.2613   -5.3644 C   0  0  0  0  0  0  0  0  0  0  0  0
    0.5380   -0.1512   -3.2884 C   0  0  0  0  0  0  0  0  0  0  0  0
    0.8809   -0.0400   -1.8744 C   0  0  2  0  0  0  0  0  0  0  0  0
    2.1620   -0.6037   -1.5555 N   0  0  0  0  0  0  0  0  0  0  0  0
    3.0404   -0.1595   -0.5828 C   0  0  0  0  0  0  0  0  0  0  0  0
    2.7972    0.8131    0.1325 O   0  0  0  0  0  0  0  0  0  0  0  0
    4.3371   -0.8907   -0.3844 C   0  0  2  0  0  0  0  0  0  0  0  0
    4.1338   -2.3568   -0.3545 C   0  0  0  0  0  0  0  0  0  0  0  0
    5.3849   -3.1159   -0.1609 C   0  0  0  0  0  0  0  0  0  0  0  0
    5.8536   -3.4916    1.0788 C   0  0  0  0  0  0  0  0  0  0  0  0
    7.0260   -4.2274    1.2323 C   0  0  0  0  0  0  0  0  0  0  0  0
    7.7531   -4.5990    0.1206 C   0  0  0  0  0  0  0  0  0  0  0  0
    7.3008   -4.2341   -1.1298 C   0  0  0  0  0  0  0  0  0  0  0  0
    6.1388   -3.5067   -1.2636 C   0  0  0  0  0  0  0  0  0  0  0  0
    4.9246   -0.3388    0.7916 N   0  0  0  0  0  0  0  0  0  0  0  0
    5.9289    0.6354    0.8958 C   0  0  0  0  0  0  0  0  0  0  0  0
    6.4095    1.1269   -0.1503 O   0  0  0  0  0  0  0  0  0  0  0  0
    6.3950    1.0649    2.1200 O   0  0  0  0  0  0  0  0  0  0  0  0
    7.3684    2.0511    2.3016 C   0  0  0  0  0  0  0  0  0  0  0  0
    6.9545    3.3887    1.7617 C   0  0  0  0  0  0  0  0  0  0  0  0
    6.0051    4.0478    2.5395 C   0  0  0  0  0  0  0  0  0  0  0  0
    5.5913    5.3050    2.0830 C   0  0  0  0  0  0  0  0  0  0  0  0
    6.0949    5.8507    0.9410 C   0  0  0  0  0  0  0  0  0  0  0  0
    7.0329    5.1750    0.1928 C   0  0  0  0  0  0  0  0  0  0  0  0
    7.4603    3.9334    0.6152 C   0  0  0  0  0  0  0  0  0  0  0  0
   -0.1741   -0.5056   -0.8949 C   0  0  0  0  0  0  0  0  0  0  0  0
    0.2556   -1.2445   -0.0100 O   0  0  0  0  0  0  0  0  0  0  0  0
   -1.4899   -0.0679   -1.0773 N   0  0  0  0  0  0  0  0  0  0  0  0
   -2.7517    0.3455   -1.2430 C   0  0  1  0  0  0  0  0  0  0  0  0
   -3.8262   -0.6804   -1.6103 C   0  0  0  0  0  0  0  0  0  0  0  0
   -3.9839   -1.7475   -0.5885 C   0  0  0  0  0  0  0  0  0  0  0  0
   -5.0631   -2.7204   -0.9988 C   0  0  0  0  0  0  0  0  0  0  0  0
   -4.7736   -3.3829   -2.2335 N   0  0  0  0  0  0  0  0  0  0  0  0
   -5.6752   -4.3810   -2.7102 C   0  0  0  0  0  0  0  0  0  0  0  0
   -5.8356   -5.5142   -1.8866 N   0  0  0  0  0  0  0  0  0  0  0  0
   -6.3068   -4.2425   -3.8366 N   0  0  0  0  0  0  0  0  0  0  0  0
   -3.2635    1.0193    0.0426 C   0  0  0  0  0  0  0  0  0  0  0  0
   -2.4329    1.0364    0.9695 O   0  0  0  0  0  0  0  0  0  0  0  0
   -4.5298    1.5408    0.1260 N   0  0  0  0  0  0  0  0  0  0  0  0
   -5.2110    2.1941    1.2394 C   0  0  1  0  0  0  0  0  0  0  0  0
   -4.8861    1.4721    2.4986 C   0  0  0  0  0  0  0  0  0  0  0  0
   -5.5481    2.0495    3.6652 C   0  0  0  0  0  0  0  0  0  0  0  0
   -4.8694    2.8662    4.5380 C   0  0  0  0  0  0  0  0  0  0  0  0
   -5.5298    3.3834    5.6239 C   0  0  0  0  0  0  0  0  0  0  0  0
   -6.8545    3.0767    5.8175 C   0  0  0  0  0  0  0  0  0  0  0  0
   -7.5484    2.2667    4.9590 C   0  0  0  0  0  0  0  0  0  0  0  0
   -6.8997    1.7466    3.8755 C   0  0  0  0  0  0  0  0  0  0  0  0
   -5.0121    3.6360    1.1928 C   0  0  0  0  0  0  0  0  0  0  0  0
   -5.5824    4.5989    2.0567 N   0  0  0  0  0  0  0  0  0  0  0  0
   -4.2485    4.1415    0.2840 O   0  0  0  0  0  0  0  0  0  0  0  0
   -1.5620   -2.0970   -3.5233 H   0  0  0  0  0  0  0  0  0  0  0  0
   -0.3354   -2.7636   -2.2955 H   0  0  0  0  0  0  0  0  0  0  0  0
   -0.5016   -3.4465   -3.9108 H   0  0  0  0  0  0  0  0  0  0  0  0
    1.4413   -2.0084   -4.0062 H   0  0  0  0  0  0  0  0  0  0  0  0
    0.3741   -0.3031   -5.7348 H   0  0  0  0  0  0  0  0  0  0  0  0
   -1.1119   -1.2107   -5.3829 H   0  0  0  0  0  0  0  0  0  0  0  0
    0.3518   -2.0821   -6.0096 H   0  0  0  0  0  0  0  0  0  0  0  0
   -0.3908    0.4055   -3.5864 H   0  0  0  0  0  0  0  0  0  0  0  0
    1.3436    0.4061   -3.8668 H   0  0  0  0  0  0  0  0  0  0  0  0
    0.9843    1.0524   -1.5864 H   0  0  0  0  0  0  0  0  0  0  0  0
    2.4275   -1.4469   -2.1484 H   0  0  0  0  0  0  0  0  0  0  0  0
    5.0358   -0.6072   -1.2381 H   0  0  0  0  0  0  0  0  0  0  0  0
    3.4386   -2.6565    0.4812 H   0  0  0  0  0  0  0  0  0  0  0  0
    3.6389   -2.7653   -1.2685 H   0  0  0  0  0  0  0  0  0  0  0  0
    5.2967   -3.2130    1.9450 H   0  0  0  0  0  0  0  0  0  0  0  0
    7.4032   -4.5273    2.2197 H   0  0  0  0  0  0  0  0  0  0  0  0
    8.6877   -5.1810    0.2060 H   0  0  0  0  0  0  0  0  0  0  0  0
    7.8982   -4.5428   -2.0001 H   0  0  0  0  0  0  0  0  0  0  0  0
    5.7761   -3.2124   -2.2443 H   0  0  0  0  0  0  0  0  0  0  0  0
    4.5437   -0.7280    1.7187 H   0  0  0  0  0  0  0  0  0  0  0  0
    8.3368    1.7887    1.8034 H   0  0  0  0  0  0  0  0  0  0  0  0
    7.5795    2.1479    3.3865 H   0  0  0  0  0  0  0  0  0  0  0  0
    5.6144    3.6150    3.4393 H   0  0  0  0  0  0  0  0  0  0  0  0
    4.8477    5.8335    2.6797 H   0  0  0  0  0  0  0  0  0  0  0  0
    5.7682    6.8453    0.5851 H   0  0  0  0  0  0  0  0  0  0  0  0
    7.4244    5.6449   -0.7294 H   0  0  0  0  0  0  0  0  0  0  0  0
    8.2150    3.3729    0.0318 H   0  0  0  0  0  0  0  0  0  0  0  0
   -1.8847   -0.7965    0.0100 H   0  0  0  0  0  0  0  0  0  0  0  0
   -2.9379    1.1851   -1.9831 H   0  0  0  0  0  0  0  0  0  0  0  0
   -4.8048   -0.2101   -1.8127 H   0  0  0  0  0  0  0  0  0  0  0  0
   -3.5341   -1.1374   -2.6066 H   0  0  0  0  0  0  0  0  0  0  0  0
   -3.0399   -2.3191   -0.4377 H   0  0  0  0  0  0  0  0  0  0  0  0
   -4.2678   -1.2772    0.3629 H   0  0  0  0  0  0  0  0  0  0  0  0
   -6.0177   -2.1448   -1.0666 H   0  0  0  0  0  0  0  0  0  0  0  0
   -5.1864   -3.5042   -0.1976 H   0  0  0  0  0  0  0  0  0  0  0  0
   -3.9239   -3.1517   -2.7945 H   0  0  0  0  0  0  0  0  0  0  0  0
   -6.5075   -5.4935   -1.1029 H   0  0  0  0  0  0  0  0  0  0  0  0
   -5.2815   -6.3628   -2.0611 H   0  0  0  0  0  0  0  0  0  0  0  0
   -6.1116   -3.3595   -4.3692 H   0  0  0  0  0  0  0  0  0  0  0  0
   -5.1337    1.4754   -0.7601 H   0  0  0  0  0  0  0  0  0  0  0  0
   -6.3177    1.9751    1.0784 H   0  0  0  0  0  0  0  0  0  0  0  0
   -5.3105    0.4318    2.3748 H   0  0  0  0  0  0  0  0  0  0  0  0
   -3.7972    1.3807    2.7318 H   0  0  0  0  0  0  0  0  0  0  0  0
   -3.8284    3.0886    4.3611 H   0  0  0  0  0  0  0  0  0  0  0  0
   -4.9895    4.0403    6.3309 H   0  0  0  0  0  0  0  0  0  0  0  0
   -7.3682    3.4908    6.6740 H   0  0  0  0  0  0  0  0  0  0  0  0
   -8.5751    2.0470    5.1321 H   0  0  0  0  0  0  0  0  0  0  0  0
   -7.4594    1.1034    3.1961 H   0  0  0  0  0  0  0  0  0  0  0  0
   -6.6385    4.5344    2.1580 H   0  0  0  0  0  0  0  0  0  0  0  0
   -5.0282    5.3318    2.5665 H   0  0  0  0  0  0  0  0  0  0  0  0
  1  2  1  0
  2  3  1  0
  2  4  1  0
  4  5  1  0
  5  6  1  0
  6  7  1  0
  7  8  2  0
  7  9  1  0
  9 10  1  0
 10 11  1  0
 11 12  2  0
 12 13  1  0
 13 14  2  0
 14 15  1  0
 15 16  2  0
  9 17  1  0
 17 18  1  0
 18 19  2  0
 18 20  1  0
 20 21  1  0
 21 22  1  0
 22 23  2  0
 23 24  1  0
 24 25  2  0
 25 26  1  0
 26 27  2  0
  5 28  1  0
 28 29  2  0
 28 30  1  0
 30 31  1  0
 31 32  1  0
 32 33  1  0
 33 34  1  0
 34 35  1  0
 35 36  1  0
 36 37  1  0
 36 38  2  3
 31 39  1  0
 39 40  2  0
 39 41  1  0
 41 42  1  0
 42 43  1  0
 43 44  1  0
 44 45  2  0
 45 46  1  0
 46 47  2  0
 47 48  1  0
 48 49  2  0
 42 50  1  0
 50 51  1  0
 50 52  2  0
 16 11  1  0
 27 22  1  0
 49 44  1  0
  1 53  1  0
  1 54  1  0
  1 55  1  0
  2 56  1  0
  3 57  1  0
  3 58  1  0
  3 59  1  0
  4 60  1  0
  4 61  1  0
  5 62  1  1
  6 63  1  0
  9 64  1  6
 10 65  1  0
 10 66  1  0
 12 67  1  0
 13 68  1  0
 14 69  1  0
 15 70  1  0
 16 71  1  0
 17 72  1  0
 21 73  1  0
 21 74  1  0
 23 75  1  0
 24 76  1  0
 25 77  1  0
 26 78  1  0
 27 79  1  0
 30 80  1  0
 31 81  1  6
 32 82  1  0
 32 83  1  0
 33 84  1  0
 33 85  1  0
 34 86  1  0
 34 87  1  0
 35 88  1  0
 37 89  1  0
 37 90  1  0
 38 91  1  0
 41 92  1  0
 42 93  1  6
 43 94  1  0
 43 95  1  0
 45 96  1  0
 46 97  1  0
 47 98  1  0
 48 99  1  0
 49100  1  0
 51101  1  0
 51102  1  0
M  END
$$$$
[H]c1nc(N([H])[H])c(C(=O)N([H])c2c([H])c([H])c(-c3c([H])c([H])c([H])c([H])c3[H])c([H])c2[H])nc1-c1c([H])nn(C([H])([H])[H])c1[H]
     RDKit          3D

 46 49  0  0  0  0  0  0  0  0999 V2000
   -6.1750   -1.7602   -2.9494 C   0  0  0  0  0  0  0  0  0  0  0  0
   -6.0354   -0.9431   -1.7616 N   0  0  0  0  0  0  0  0  0  0  0  0
   -4.8883   -0.5807   -1.1555 C   0  0  0  0  0  0  0  0  0  0  0  0
   -5.2218    0.1915   -0.0671 C   0  0  0  0  0  0  0  0  0  0  0  0
   -6.6000    0.2547   -0.0767 C   0  0  0  0  0  0  0  0  0  0  0  0
   -7.0709   -0.4403   -1.1127 N   0  0  0  0  0  0  0  0  0  0  0  0
   -4.3358    0.8245    0.9098 C   0  0  0  0  0  0  0  0  0  0  0  0
   -4.8738    1.5673    1.9415 C   0  0  0  0  0  0  0  0  0  0  0  0
   -4.1149    2.1726    2.8696 N   0  0  0  0  0  0  0  0  0  0  0  0
   -2.7742    2.0546    2.7971 C   0  0  0  0  0  0  0  0  0  0  0  0
   -1.9216    2.6816    3.7625 N   0  0  0  0  0  0  0  0  0  0  0  0
   -2.2117    1.3235    1.7841 C   0  0  0  0  0  0  0  0  0  0  0  0
   -3.0004    0.7189    0.8550 N   0  0  0  0  0  0  0  0  0  0  0  0
   -0.7331    1.1769    1.6828 C   0  0  0  0  0  0  0  0  0  0  0  0
   -0.1021    1.7612    2.5749 O   0  0  0  0  0  0  0  0  0  0  0  0
   -0.1690    0.4268    0.6406 N   0  0  0  0  0  0  0  0  0  0  0  0
    1.1913    0.1708    0.3742 C   0  0  0  0  0  0  0  0  0  0  0  0
    1.5311   -0.5828   -0.7754 C   0  0  0  0  0  0  0  0  0  0  0  0
    2.8468   -0.8545   -1.0652 C   0  0  0  0  0  0  0  0  0  0  0  0
    3.8755   -0.4162   -0.2689 C   0  0  0  0  0  0  0  0  0  0  0  0
    3.5667    0.3065    0.8352 C   0  0  0  0  0  0  0  0  0  0  0  0
    2.2371    0.6013    1.1603 C   0  0  0  0  0  0  0  0  0  0  0  0
    5.2523   -0.7181   -0.6000 C   0  0  0  0  0  0  0  0  0  0  0  0
    6.1874   -0.8747    0.4083 C   0  0  0  0  0  0  0  0  0  0  0  0
    7.4895   -1.1606    0.0779 C   0  0  0  0  0  0  0  0  0  0  0  0
    7.9220   -1.3020   -1.2163 C   0  0  0  0  0  0  0  0  0  0  0  0
    6.9681   -1.1407   -2.2086 C   0  0  0  0  0  0  0  0  0  0  0  0
    5.6670   -0.8561   -1.9051 C   0  0  0  0  0  0  0  0  0  0  0  0
   -6.7705   -2.6754   -2.6926 H   0  0  0  0  0  0  0  0  0  0  0  0
   -5.1967   -2.0483   -3.3756 H   0  0  0  0  0  0  0  0  0  0  0  0
   -6.7736   -1.1867   -3.6813 H   0  0  0  0  0  0  0  0  0  0  0  0
   -3.8912   -0.8432   -1.4608 H   0  0  0  0  0  0  0  0  0  0  0  0
   -7.2526    0.7759    0.6268 H   0  0  0  0  0  0  0  0  0  0  0  0
   -5.9598    1.6485    1.9795 H   0  0  0  0  0  0  0  0  0  0  0  0
   -1.5777    3.6428    3.5732 H   0  0  0  0  0  0  0  0  0  0  0  0
   -1.6762    2.1506    4.6215 H   0  0  0  0  0  0  0  0  0  0  0  0
   -0.8717   -0.0039   -0.0351 H   0  0  0  0  0  0  0  0  0  0  0  0
    0.7437   -0.9358   -1.4124 H   0  0  0  0  0  0  0  0  0  0  0  0
    3.0922   -1.4331   -1.9496 H   0  0  0  0  0  0  0  0  0  0  0  0
    4.3169    0.6802    1.5009 H   0  0  0  0  0  0  0  0  0  0  0  0
    2.0468    1.1859    2.0626 H   0  0  0  0  0  0  0  0  0  0  0  0
    5.8789   -0.7689    1.4641 H   0  0  0  0  0  0  0  0  0  0  0  0
    8.2158   -1.2812    0.8871 H   0  0  0  0  0  0  0  0  0  0  0  0
    8.9493   -1.5275   -1.4775 H   0  0  0  0  0  0  0  0  0  0  0  0
    7.2894   -1.2491   -3.2576 H   0  0  0  0  0  0  0  0  0  0  0  0
    4.9301   -0.7333   -2.7155 H   0  0  0  0  0  0  0  0  0  0  0  0
  1  2  1  0
  2  3  1  0
  3  4  2  0
  4  5  1  0
  5  6  2  0
  4  7  1  0
  7  8  2  0
  8  9  1  0
  9 10  2  0
 10 11  1  0
 10 12  1  0
 12 13  2  0
 12 14  1  0
 14 15  2  0
 14 16  1  0
 16 17  1  0
 17 18  2  0
 18 19  1  0
 19 20  2  0
 20 21  1  0
 21 22  2  0
 20 23  1  0
 23 24  2  0
 24 25  1  0
 25 26  2  0
 26 27  1  0
 27 28  2  0
  6  2  1  0
 13  7  1  0
 22 17  1  0
 28 23  1  0
  1 29  1  0
  1 30  1  0
  1 31  1  0
  3 32  1  0
  5 33  1  0
  8 34  1  0
 11 35  1  0
 11 36  1  0
 16 37  1  0
 18 38  1  0
 19 39  1  0
 21 40  1  0
 22 41  1  0
 24 42  1  0
 25 43  1  0
 26 44  1  0
 27 45  1  0
 28 46  1  0
M  END
$$$$
[H]OC(=O)[C@@]([H])(N([H])C(=O)[C@@]([H])(N([H])C(=O)[C@@]([H])(N([H])C(=O)[C@@]([H])(N([H])C(=O)[C@@]([H])(N([H])C(=O)[C@@]([H])(N([H])C(=O)C([H])([H])[H])C([H])([H])c1c([H])c([H])c([H])c([H])c1[H])C([H])([H])C([H])(C([H])([H])[H])C([H])([H])[H])C([H])([H])C([H])(C([H])([H])[H])C([H])([H])[H])C([H])([H])C([H])(C([H])([H])[H])C([H])([H])[H])C([H])([H])C([H])(C([H])([H])[H])C([H])([H])[H])C([H])([H])C([H])(C([H])([H])[H])C([H])([H])[H]
     RDKit          3D

123123  0  0  0  0  0  0  0  0999 V2000
   11.4183    0.8491    1.8444 C   0  0  0  0  0  0  0  0  0  0  0  0
   10.1201    1.4506    1.4450 C   0  0  0  0  0  0  0  0  0  0  0  0
    9.7560    2.5064    1.9952 O   0  0  0  0  0  0  0  0  0  0  0  0
    9.3347    0.8325    0.4693 N   0  0  0  0  0  0  0  0  0  0  0  0
    8.0465    1.3825    0.0408 C   0  0  1  0  0  0  0  0  0  0  0  0
    8.0567    1.5804   -1.4705 C   0  0  0  0  0  0  0  0  0  0  0  0
    9.1033    2.4948   -1.9204 C   0  0  0  0  0  0  0  0  0  0  0  0
    8.9692    3.8528   -2.0860 C   0  0  0  0  0  0  0  0  0  0  0  0
    9.9822    4.6667   -2.5025 C   0  0  0  0  0  0  0  0  0  0  0  0
   11.2343    4.1316   -2.7849 C   0  0  0  0  0  0  0  0  0  0  0  0
   11.4041    2.7652   -2.6282 C   0  0  0  0  0  0  0  0  0  0  0  0
   10.3656    1.9636   -2.2062 C   0  0  0  0  0  0  0  0  0  0  0  0
    7.0474    0.3226    0.3060 C   0  0  0  0  0  0  0  0  0  0  0  0
    7.3360   -0.9093    0.1532 O   0  0  0  0  0  0  0  0  0  0  0  0
    5.7354    0.6442    0.7414 N   0  0  0  0  0  0  0  0  0  0  0  0
    4.7507   -0.4301    0.9883 C   0  0  1  0  0  0  0  0  0  0  0  0
    4.8707   -0.6586    2.4998 C   0  0  0  0  0  0  0  0  0  0  0  0
    3.9532   -1.6983    3.0301 C   0  0  0  0  0  0  0  0  0  0  0  0
    4.1226   -3.0534    2.4407 C   0  0  0  0  0  0  0  0  0  0  0  0
    4.1312   -1.8179    4.5534 C   0  0  0  0  0  0  0  0  0  0  0  0
    3.4223    0.0927    0.6532 C   0  0  0  0  0  0  0  0  0  0  0  0
    3.1452    1.2553    1.0392 O   0  0  0  0  0  0  0  0  0  0  0  0
    2.4638   -0.6442   -0.0711 N   0  0  0  0  0  0  0  0  0  0  0  0
    1.1593   -0.0877   -0.3541 C   0  0  1  0  0  0  0  0  0  0  0  0
    0.9291    0.0354   -1.8611 C   0  0  0  0  0  0  0  0  0  0  0  0
    1.8749    0.9107   -2.5821 C   0  0  0  0  0  0  0  0  0  0  0  0
    1.8229    2.3399   -2.0903 C   0  0  0  0  0  0  0  0  0  0  0  0
    1.4988    0.9368   -4.0594 C   0  0  0  0  0  0  0  0  0  0  0  0
    0.0915   -1.0848    0.0634 C   0  0  0  0  0  0  0  0  0  0  0  0
    0.3907   -2.2600    0.3745 O   0  0  0  0  0  0  0  0  0  0  0  0
   -1.2387   -0.6497    0.0896 N   0  0  0  0  0  0  0  0  0  0  0  0
   -2.3394   -1.6291    0.4766 C   0  0  1  0  0  0  0  0  0  0  0  0
   -2.5961   -1.4427    1.9221 C   0  0  0  0  0  0  0  0  0  0  0  0
   -3.5360   -2.3676    2.5996 C   0  0  0  0  0  0  0  0  0  0  0  0
   -3.5839   -1.9230    4.0859 C   0  0  0  0  0  0  0  0  0  0  0  0
   -2.8995   -3.7881    2.5973 C   0  0  0  0  0  0  0  0  0  0  0  0
   -3.4124   -1.2737   -0.4322 C   0  0  0  0  0  0  0  0  0  0  0  0
   -2.9965   -0.8555   -1.6071 O   0  0  0  0  0  0  0  0  0  0  0  0
   -4.7587   -1.2934   -0.2767 N   0  0  0  0  0  0  0  0  0  0  0  0
   -5.6898   -0.8576   -1.3760 C   0  0  1  0  0  0  0  0  0  0  0  0
   -6.5980   -2.0304   -1.6650 C   0  0  0  0  0  0  0  0  0  0  0  0
   -5.8673   -3.2653   -2.1147 C   0  0  0  0  0  0  0  0  0  0  0  0
   -6.9477   -4.3338   -2.3297 C   0  0  0  0  0  0  0  0  0  0  0  0
   -5.2239   -3.0669   -3.4780 C   0  0  0  0  0  0  0  0  0  0  0  0
   -6.5235    0.2359   -0.8153 C   0  0  0  0  0  0  0  0  0  0  0  0
   -6.3192    0.5892    0.3674 O   0  0  0  0  0  0  0  0  0  0  0  0
   -7.5309    0.8856   -1.5591 N   0  0  0  0  0  0  0  0  0  0  0  0
   -8.3735    1.9717   -1.0003 C   0  0  1  0  0  0  0  0  0  0  0  0
   -9.2386    1.3510    0.0024 C   0  0  0  0  0  0  0  0  0  0  0  0
  -10.2195    2.0790    0.8156 C   0  0  0  0  0  0  0  0  0  0  0  0
   -9.7270    3.1291    1.7570 C   0  0  0  0  0  0  0  0  0  0  0  0
  -10.9432    1.0138    1.6722 C   0  0  0  0  0  0  0  0  0  0  0  0
   -7.6017    3.1599   -0.7734 C   0  0  0  0  0  0  0  0  0  0  0  0
   -8.0291    4.4144   -0.3941 O   0  0  0  0  0  0  0  0  0  0  0  0
   -6.3169    3.1088   -0.9404 O   0  0  0  0  0  0  0  0  0  0  0  0
   11.9700    0.4600    0.9762 H   0  0  0  0  0  0  0  0  0  0  0  0
   12.0289    1.5734    2.4556 H   0  0  0  0  0  0  0  0  0  0  0  0
   11.2712   -0.0287    2.5229 H   0  0  0  0  0  0  0  0  0  0  0  0
    9.6455   -0.0371    0.0153 H   0  0  0  0  0  0  0  0  0  0  0  0
    7.8265    2.2573    0.6216 H   0  0  0  0  0  0  0  0  0  0  0  0
    7.0609    1.8461   -1.8606 H   0  0  0  0  0  0  0  0  0  0  0  0
    8.2661    0.5553   -1.8997 H   0  0  0  0  0  0  0  0  0  0  0  0
    8.0029    4.2904   -1.8719 H   0  0  0  0  0  0  0  0  0  0  0  0
    9.8649    5.7284   -2.6321 H   0  0  0  0  0  0  0  0  0  0  0  0
   12.0522    4.7535   -3.1173 H   0  0  0  0  0  0  0  0  0  0  0  0
   12.3889    2.3684   -2.8526 H   0  0  0  0  0  0  0  0  0  0  0  0
   10.5608    0.9046   -2.1012 H   0  0  0  0  0  0  0  0  0  0  0  0
    5.4390    1.6260    0.8925 H   0  0  0  0  0  0  0  0  0  0  0  0
    5.0649   -1.2982    0.4304 H   0  0  0  0  0  0  0  0  0  0  0  0
    5.9116   -0.9144    2.7627 H   0  0  0  0  0  0  0  0  0  0  0  0
    4.6511    0.3128    2.9837 H   0  0  0  0  0  0  0  0  0  0  0  0
    2.8843   -1.3915    2.9060 H   0  0  0  0  0  0  0  0  0  0  0  0
    4.5116   -3.7460    3.2130 H   0  0  0  0  0  0  0  0  0  0  0  0
    3.1475   -3.4985    2.1187 H   0  0  0  0  0  0  0  0  0  0  0  0
    4.8927   -3.0785    1.6272 H   0  0  0  0  0  0  0  0  0  0  0  0
    4.0354   -0.8369    5.0482 H   0  0  0  0  0  0  0  0  0  0  0  0
    5.1312   -2.2627    4.7766 H   0  0  0  0  0  0  0  0  0  0  0  0
    3.3640   -2.5338    4.9001 H   0  0  0  0  0  0  0  0  0  0  0  0
    2.6478   -1.6044   -0.4290 H   0  0  0  0  0  0  0  0  0  0  0  0
    0.9421    0.8545    0.1069 H   0  0  0  0  0  0  0  0  0  0  0  0
   -0.1128    0.4553   -1.9616 H   0  0  0  0  0  0  0  0  0  0  0  0
    0.9322   -0.9860   -2.3055 H   0  0  0  0  0  0  0  0  0  0  0  0
    2.9287    0.5434   -2.5258 H   0  0  0  0  0  0  0  0  0  0  0  0
    1.3696    2.4288   -1.0969 H   0  0  0  0  0  0  0  0  0  0  0  0
    1.2537    2.9896   -2.7962 H   0  0  0  0  0  0  0  0  0  0  0  0
    2.8640    2.7627   -2.1023 H   0  0  0  0  0  0  0  0  0  0  0  0
    0.4164    0.8019   -4.1846 H   0  0  0  0  0  0  0  0  0  0  0  0
    1.7646    1.9356   -4.4691 H   0  0  0  0  0  0  0  0  0  0  0  0
    2.0909    0.1943   -4.6476 H   0  0  0  0  0  0  0  0  0  0  0  0
   -1.5077    0.3186   -0.1409 H   0  0  0  0  0  0  0  0  0  0  0  0
   -1.9004   -2.6303    0.2636 H   0  0  0  0  0  0  0  0  0  0  0  0
   -3.0128   -0.3935    2.0938 H   0  0  0  0  0  0  0  0  0  0  0  0
   -1.6244   -1.3973    2.5178 H   0  0  0  0  0  0  0  0  0  0  0  0
   -4.5111   -2.4296    2.1943 H   0  0  0  0  0  0  0  0  0  0  0  0
   -4.1704   -0.9858    4.1533 H   0  0  0  0  0  0  0  0  0  0  0  0
   -2.5827   -1.8230    4.5054 H   0  0  0  0  0  0  0  0  0  0  0  0
   -4.1601   -2.7325    4.6091 H   0  0  0  0  0  0  0  0  0  0  0  0
   -2.7945   -4.1645    1.5725 H   0  0  0  0  0  0  0  0  0  0  0  0
   -3.6118   -4.4400    3.1172 H   0  0  0  0  0  0  0  0  0  0  0  0
   -1.9800   -3.7154    3.1852 H   0  0  0  0  0  0  0  0  0  0  0  0
   -5.2776   -1.5812    0.5587 H   0  0  0  0  0  0  0  0  0  0  0  0
   -5.0375   -0.5624   -2.1986 H   0  0  0  0  0  0  0  0  0  0  0  0
   -7.2667   -1.7130   -2.5113 H   0  0  0  0  0  0  0  0  0  0  0  0
   -7.2377   -2.2351   -0.7924 H   0  0  0  0  0  0  0  0  0  0  0  0
   -5.1083   -3.6339   -1.4338 H   0  0  0  0  0  0  0  0  0  0  0  0
   -7.1543   -4.8343   -1.3550 H   0  0  0  0  0  0  0  0  0  0  0  0
   -6.6729   -5.0316   -3.1423 H   0  0  0  0  0  0  0  0  0  0  0  0
   -7.8937   -3.8299   -2.6451 H   0  0  0  0  0  0  0  0  0  0  0  0
   -4.1791   -2.7674   -3.4299 H   0  0  0  0  0  0  0  0  0  0  0  0
   -5.2694   -4.0600   -3.9986 H   0  0  0  0  0  0  0  0  0  0  0  0
   -5.8463   -2.4007   -4.1153 H   0  0  0  0  0  0  0  0  0  0  0  0
   -7.6714    0.5787   -2.5412 H   0  0  0  0  0  0  0  0  0  0  0  0
   -9.0679    2.2210   -1.8888 H   0  0  0  0  0  0  0  0  0  0  0  0
   -8.6585    0.6943    0.7419 H   0  0  0  0  0  0  0  0  0  0  0  0
   -9.8592    0.5117   -0.5131 H   0  0  0  0  0  0  0  0  0  0  0  0
  -11.0749    2.4784    0.1772 H   0  0  0  0  0  0  0  0  0  0  0  0
  -10.1518    2.9654    2.8110 H   0  0  0  0  0  0  0  0  0  0  0  0
  -10.0645    4.1548    1.5266 H   0  0  0  0  0  0  0  0  0  0  0  0
   -8.6409    3.0119    1.9319 H   0  0  0  0  0  0  0  0  0  0  0  0
  -10.1838    0.2527    1.9265 H   0  0  0  0  0  0  0  0  0  0  0  0
  -11.7268    0.5021    1.0730 H   0  0  0  0  0  0  0  0  0  0  0  0
  -11.3228    1.4479    2.6113 H   0  0  0  0  0  0  0  0  0  0  0  0
   -7.8729    5.2681   -0.8820 H   0  0  0  0  0  0  0  0  0  0  0  0
  1  2  1  0
  2  3  2  0
  2  4  1  0
  4  5  1  0
  5  6  1  0
  6  7  1  0
  7  8  2  0
  8  9  1  0
  9 10  2  0
 10 11  1  0
 11 12  2  0
  5 13  1  0
 13 14  2  0
 13 15  1  0
 15 16  1  0
 16 17  1  0
 17 18  1  0
 18 19  1  0
 18 20  1  0
 16 21  1  0
 21 22  2  0
 21 23  1  0
 23 24  1  0
 24 25  1  0
 25 26  1  0
 26 27  1  0
 26 28  1  0
 24 29  1  0
 29 30  2  0
 29 31  1  0
 31 32  1  0
 32 33  1  0
 33 34  1  0
 34 35  1  0
 34 36  1  0
 32 37  1  0
 37 38  2  0
 37 39  1  0
 39 40  1  0
 40 41  1  0
 41 42  1  0
 42 43  1  0
 42 44  1  0
 40 45  1  0
 45 46  2  0
 45 47  1  0
 47 48  1  0
 48 49  1  0
 49 50  1  0
 50 51  1  0
 50 52  1  0
 48 53  1  0
 53 54  1  0
 53 55  2  0
 12  7  1  0
  1 56  1  0
  1 57  1  0
  1 58  1  0
  4 59  1  0
  5 60  1  1
  6 61  1  0
  6 62  1  0
  8 63  1  0
  9 64  1  0
 10 65  1  0
 11 66  1  0
 12 67  1  0
 15 68  1  0
 16 69  1  6
 17 70  1  0
 17 71  1  0
 18 72  1  0
 19 73  1  0
 19 74  1  0
 19 75  1  0
 20 76  1  0
 20 77  1  0
 20 78  1  0
 23 79  1  0
 24 80  1  1
 25 81  1  0
 25 82  1  0
 26 83  1  0
 27 84  1  0
 27 85  1  0
 27 86  1  0
 28 87  1  0
 28 88  1  0
 28 89  1  0
 31 90  1  0
 32 91  1  1
 33 92  1  0
 33 93  1  0
 34 94  1  0
 35 95  1  0
 35 96  1  0
 35 97  1  0
 36 98  1  0
 36 99  1  0
 36100  1  0
 39101  1  0
 40102  1  6
 41103  1  0
 41104  1  0
 42105  1  0
 43106  1  0
 43107  1  0
 43108  1  0
 44109  1  0
 44110  1  0
 44111  1  0
 47112  1  0
 48113  1  6
 49114  1  0
 49115  1  0
 50116  1  0
 51117  1  0
 51118  1  0
 51119  1  0
 52120  1  0
 52121  1  0
 52122  1  0
 54123  1  0
M  END
$$$$
[H]ON([H])C(=O)[C@]1([H])N(S(=O)(=O)c2c([H])c([H])c(OC([H])([H])[H])c([H])c2[H])C([H])([H])[C@]([H])(c2c([H])c([H])c([H])c([H])c2[H])C1([H])[H]
     RDKit          3D

 46 48  0  0  0  0  0  0  0  0999 V2000
    5.9933   -1.3181    2.4818 C   0  0  0  0  0  0  0  0  0  0  0  0
    5.6021   -0.1550    1.8222 O   0  0  0  0  0  0  0  0  0  0  0  0
    4.4904   -0.1200    0.9679 C   0  0  0  0  0  0  0  0  0  0  0  0
    4.1381    1.0497    0.3320 C   0  0  0  0  0  0  0  0  0  0  0  0
    3.0338    1.0781   -0.5176 C   0  0  0  0  0  0  0  0  0  0  0  0
    2.2584   -0.0214   -0.7608 C   0  0  0  0  0  0  0  0  0  0  0  0
    2.6252   -1.2050   -0.1082 C   0  0  0  0  0  0  0  0  0  0  0  0
    3.7200   -1.2252    0.7304 C   0  0  0  0  0  0  0  0  0  0  0  0
    0.8760   -0.0091   -1.8292 S   0  0  0  0  0  0  0  0  0  0  0  0
    1.1967    0.6198   -3.1336 O   0  0  0  0  0  0  0  0  0  0  0  0
    0.7089   -1.5160   -2.2225 O   0  0  0  0  0  0  0  0  0  0  0  0
   -0.5689    0.4081   -1.0967 N   0  0  0  0  0  0  0  0  0  0  0  0
   -0.8387   -0.6241   -0.0623 C   0  0  0  0  0  0  0  0  0  0  0  0
   -1.9641   -0.0771    0.7523 C   0  0  1  0  0  0  0  0  0  0  0  0
   -2.0965    1.3460    0.3183 C   0  0  0  0  0  0  0  0  0  0  0  0
   -0.7995    1.5799   -0.4263 C   0  0  2  0  0  0  0  0  0  0  0  0
   -0.7490    2.9143   -1.0552 C   0  0  0  0  0  0  0  0  0  0  0  0
   -1.4007    3.7805   -0.3129 O   0  0  0  0  0  0  0  0  0  0  0  0
   -0.1620    3.3335   -2.2067 N   0  0  0  0  0  0  0  0  0  0  0  0
    0.3849    3.7298   -3.2820 O   0  0  0  0  0  0  0  0  0  0  0  0
   -3.2149   -0.8592    0.5643 C   0  0  0  0  0  0  0  0  0  0  0  0
   -3.9146   -1.3090    1.6573 C   0  0  0  0  0  0  0  0  0  0  0  0
   -5.0808   -2.0611    1.5226 C   0  0  0  0  0  0  0  0  0  0  0  0
   -5.5100   -2.3392    0.2508 C   0  0  0  0  0  0  0  0  0  0  0  0
   -4.8126   -1.8899   -0.8598 C   0  0  0  0  0  0  0  0  0  0  0  0
   -3.6606   -1.1463   -0.7055 C   0  0  0  0  0  0  0  0  0  0  0  0
    5.4189   -1.4728    3.4260 H   0  0  0  0  0  0  0  0  0  0  0  0
    7.0966   -1.2340    2.7088 H   0  0  0  0  0  0  0  0  0  0  0  0
    5.8500   -2.1999    1.8445 H   0  0  0  0  0  0  0  0  0  0  0  0
    4.7097    1.9348    0.4871 H   0  0  0  0  0  0  0  0  0  0  0  0
    2.7469    1.9945   -1.0318 H   0  0  0  0  0  0  0  0  0  0  0  0
    2.0234   -2.0813   -0.2968 H   0  0  0  0  0  0  0  0  0  0  0  0
    3.9574   -2.1537    1.2067 H   0  0  0  0  0  0  0  0  0  0  0  0
   -1.0643   -1.5834   -0.5423 H   0  0  0  0  0  0  0  0  0  0  0  0
    0.1114   -0.7040    0.4882 H   0  0  0  0  0  0  0  0  0  0  0  0
   -1.6850   -0.1124    1.8183 H   0  0  0  0  0  0  0  0  0  0  0  0
   -2.1015    1.9845    1.2442 H   0  0  0  0  0  0  0  0  0  0  0  0
   -2.9961    1.5782   -0.2374 H   0  0  0  0  0  0  0  0  0  0  0  0
   -0.0378    1.6328    0.4310 H   0  0  0  0  0  0  0  0  0  0  0  0
   -0.6420    4.5868   -2.0515 H   0  0  0  0  0  0  0  0  0  0  0  0
    0.2562    3.2028   -4.1128 H   0  0  0  0  0  0  0  0  0  0  0  0
   -3.6097   -1.1073    2.6686 H   0  0  0  0  0  0  0  0  0  0  0  0
   -5.6363   -2.4168    2.3995 H   0  0  0  0  0  0  0  0  0  0  0  0
   -6.4243   -2.9340    0.1233 H   0  0  0  0  0  0  0  0  0  0  0  0
   -5.1538   -2.1117   -1.8575 H   0  0  0  0  0  0  0  0  0  0  0  0
   -3.0745   -0.7673   -1.5367 H   0  0  0  0  0  0  0  0  0  0  0  0
  1  2  1  0
  2  3  1  0
  3  4  2  0
  4  5  1  0
  5  6  2  0
  6  7  1  0
  7  8  2  0
  6  9  1  0
  9 10  2  0
  9 11  2  0
  9 12  1  0
 12 13  1  0
 13 14  1  0
 14 15  1  0
 15 16  1  0
 16 17  1  0
 17 18  2  0
 17 19  1  0
 19 20  1  0
 14 21  1  0
 21 22  2  0
 22 23  1  0
 23 24  2  0
 24 25  1  0
 25 26  2  0
  8  3  1  0
 16 12  1  0
 26 21  1  0
  1 27  1  0
  1 28  1  0
  1 29  1  0
  4 30  1  0
  5 31  1  0
  7 32  1  0
  8 33  1  0
 13 34  1  0
 13 35  1  0
 14 36  1  1
 15 37  1  0
 15 38  1  0
 16 39  1  1
 19 40  1  0
 20 41  1  0
 22 42  1  0
 23 43  1  0
 24 44  1  0
 25 45  1  0
 26 46  1  0
M  END
$$$$
[H]c1c([H])c([H])c2c(c1[H])C([H])([H])N(C1([H])C([H])([H])C([H])([H])N(S(=O)(=O)c3c([H])c([H])c(OC(F)(F)F)c([H])c3[H])C([H])([H])C1([H])[H])C([H])([H])C2([H])[H]
     RDKit          3D

 53 56  0  0  0  0  0  0  0  0999 V2000
    9.8316   -0.9445   -0.8762 F   0  0  0  0  0  0  0  0  0  0  0  0
    8.6825   -0.6053   -0.2149 C   0  0  0  0  0  0  0  0  0  0  0  0
    8.4368   -1.5463    0.7669 F   0  0  0  0  0  0  0  0  0  0  0  0
    8.8893    0.6028    0.4264 F   0  0  0  0  0  0  0  0  0  0  0  0
    7.5490   -0.5578   -1.0828 O   0  0  0  0  0  0  0  0  0  0  0  0
    6.3300   -0.2166   -0.4890 C   0  0  0  0  0  0  0  0  0  0  0  0
    5.9254    1.1036   -0.4057 C   0  0  0  0  0  0  0  0  0  0  0  0
    4.7175    1.4646    0.1805 C   0  0  0  0  0  0  0  0  0  0  0  0
    3.8758    0.5058    0.7032 C   0  0  0  0  0  0  0  0  0  0  0  0
    4.2777   -0.8154    0.6214 C   0  0  0  0  0  0  0  0  0  0  0  0
    5.4792   -1.1657    0.0375 C   0  0  0  0  0  0  0  0  0  0  0  0
    2.3441    0.9322    1.4482 S   0  0  0  0  0  0  0  0  0  0  0  0
    2.4351    2.2572    2.1492 O   0  0  0  0  0  0  0  0  0  0  0  0
    1.9901   -0.1064    2.5007 O   0  0  0  0  0  0  0  0  0  0  0  0
    1.0971    0.9260    0.2391 N   0  0  0  0  0  0  0  0  0  0  0  0
    1.0014   -0.4080   -0.2974 C   0  0  0  0  0  0  0  0  0  0  0  0
   -0.1749   -0.5898   -1.2279 C   0  0  0  0  0  0  0  0  0  0  0  0
   -1.3931    0.1366   -0.7466 C   0  0  0  0  0  0  0  0  0  0  0  0
   -1.2406    0.3816    0.7395 C   0  0  0  0  0  0  0  0  0  0  0  0
   -0.1148    1.3770    0.8940 C   0  0  0  0  0  0  0  0  0  0  0  0
   -2.6356   -0.4449   -1.0080 N   0  0  0  0  0  0  0  0  0  0  0  0
   -2.9642   -1.6962   -0.4618 C   0  0  0  0  0  0  0  0  0  0  0  0
   -4.4219   -1.8880   -0.2504 C   0  0  0  0  0  0  0  0  0  0  0  0
   -5.2441   -0.6547   -0.4279 C   0  0  0  0  0  0  0  0  0  0  0  0
   -6.4527   -0.4975    0.2316 C   0  0  0  0  0  0  0  0  0  0  0  0
   -7.1741    0.6575    0.0302 C   0  0  0  0  0  0  0  0  0  0  0  0
   -6.7318    1.6633   -0.8068 C   0  0  0  0  0  0  0  0  0  0  0  0
   -5.5234    1.4983   -1.4617 C   0  0  0  0  0  0  0  0  0  0  0  0
   -4.8113    0.3467   -1.2565 C   0  0  0  0  0  0  0  0  0  0  0  0
   -3.5114    0.1482   -1.9417 C   0  0  0  0  0  0  0  0  0  0  0  0
    6.5857    1.8746   -0.8171 H   0  0  0  0  0  0  0  0  0  0  0  0
    4.3958    2.5005    0.2476 H   0  0  0  0  0  0  0  0  0  0  0  0
    3.6084   -1.5805    1.0375 H   0  0  0  0  0  0  0  0  0  0  0  0
    5.7776   -2.2017   -0.0184 H   0  0  0  0  0  0  0  0  0  0  0  0
    1.0331   -1.1725    0.5106 H   0  0  0  0  0  0  0  0  0  0  0  0
    1.9281   -0.5734   -0.8990 H   0  0  0  0  0  0  0  0  0  0  0  0
   -0.3308   -1.6740   -1.3911 H   0  0  0  0  0  0  0  0  0  0  0  0
    0.1451   -0.1737   -2.2278 H   0  0  0  0  0  0  0  0  0  0  0  0
   -1.3786    1.1611   -1.2147 H   0  0  0  0  0  0  0  0  0  0  0  0
   -1.0170   -0.5482    1.2925 H   0  0  0  0  0  0  0  0  0  0  0  0
   -2.1675    0.8451    1.0913 H   0  0  0  0  0  0  0  0  0  0  0  0
    0.0522    1.6665    1.9602 H   0  0  0  0  0  0  0  0  0  0  0  0
   -0.4217    2.3082    0.3774 H   0  0  0  0  0  0  0  0  0  0  0  0
   -2.4777   -1.7662    0.5568 H   0  0  0  0  0  0  0  0  0  0  0  0
   -2.5609   -2.5538   -1.0743 H   0  0  0  0  0  0  0  0  0  0  0  0
   -4.6678   -2.2500    0.7899 H   0  0  0  0  0  0  0  0  0  0  0  0
   -4.8477   -2.6662   -0.9360 H   0  0  0  0  0  0  0  0  0  0  0  0
   -6.7711   -1.2993    0.8781 H   0  0  0  0  0  0  0  0  0  0  0  0
   -8.1250    0.7927    0.5425 H   0  0  0  0  0  0  0  0  0  0  0  0
   -7.2952    2.5837   -0.9748 H   0  0  0  0  0  0  0  0  0  0  0  0
   -5.1538    2.2896   -2.1346 H   0  0  0  0  0  0  0  0  0  0  0  0
   -3.6991   -0.5251   -2.8295 H   0  0  0  0  0  0  0  0  0  0  0  0
   -3.0810    1.0986   -2.3098 H   0  0  0  0  0  0  0  0  0  0  0  0
  1  2  1  0
  2  3  1  0
  2  4  1  0
  2  5  1  0
  5  6  1  0
  6  7  2  0
  7  8  1  0
  8  9  2  0
  9 10  1  0
 10 11  2  0
  9 12  1  0
 12 13  2  0
 12 14  2  0
 12 15  1  0
 15 16  1  0
 16 17  1  0
 17 18  1  0
 18 19  1  0
 19 20  1  0
 18 21  1  0
 21 22  1  0
 22 23  1  0
 23 24  1  0
 24 25  2  0
 25 26  1  0
 26 27  2  0
 27 28  1  0
 28 29  2  0
 29 30  1  0
 11  6  1  0
 20 15  1  0
 30 21  1  0
 29 24  1  0
  7 31  1  0
  8 32  1  0
 10 33  1  0
 11 34  1  0
 16 35  1  0
 16 36  1  0
 17 37  1  0
 17 38  1  0
 18 39  1  0
 19 40  1  0
 19 41  1  0
 20 42  1  0
 20 43  1  0
 22 44  1  0
 22 45  1  0
 23 46  1  0
 23 47  1  0
 25 48  1  0
 26 49  1  0
 27 50  1  0
 28 51  1  0
 30 52  1  0
 30 53  1  0
M  END
$$$$
[H]c1nc(C([H])([H])[H])c([H])c([H])c1-c1c([H])c([H])c(S(=O)(=O)N2C([H])([H])C([H])([H])N(C(=O)c3c([H])c([H])c([H])c(C(F)(F)F)c3[H])[C@]([H])(C([H])([H])[H])C2([H])[H])c([H])c1[H]
     RDKit          3D

 59 62  0  0  0  0  0  0  0  0999 V2000
   -3.2478    1.0013    1.1880 C   0  0  0  0  0  0  0  0  0  0  0  0
   -2.6215   -0.1723    0.5726 C   0  0  2  0  0  0  0  0  0  0  0  0
   -1.2908    0.2431   -0.1004 C   0  0  0  0  0  0  0  0  0  0  0  0
   -0.3870   -0.8710    0.0955 N   0  0  0  0  0  0  0  0  0  0  0  0
   -1.1174   -2.1201    0.0536 C   0  0  0  0  0  0  0  0  0  0  0  0
   -2.2718   -2.0368   -0.8981 C   0  0  0  0  0  0  0  0  0  0  0  0
   -3.2940   -1.0636   -0.2811 N   0  0  0  0  0  0  0  0  0  0  0  0
   -4.5845   -1.2952   -0.7297 C   0  0  0  0  0  0  0  0  0  0  0  0
   -4.6631   -2.4012   -1.4938 O   0  0  0  0  0  0  0  0  0  0  0  0
   -5.8606   -0.6635   -0.5802 C   0  0  0  0  0  0  0  0  0  0  0  0
   -7.0030   -1.5133   -0.6092 C   0  0  0  0  0  0  0  0  0  0  0  0
   -8.2698   -1.0147   -0.5537 C   0  0  0  0  0  0  0  0  0  0  0  0
   -8.5031    0.3439   -0.4672 C   0  0  0  0  0  0  0  0  0  0  0  0
   -7.4348    1.2054   -0.4388 C   0  0  0  0  0  0  0  0  0  0  0  0
   -6.1549    0.6662   -0.4979 C   0  0  0  0  0  0  0  0  0  0  0  0
   -7.6844    2.6567   -0.3420 C   0  0  0  0  0  0  0  0  0  0  0  0
   -9.0443    2.9147   -0.2697 F   0  0  0  0  0  0  0  0  0  0  0  0
   -7.0960    3.1394    0.8134 F   0  0  0  0  0  0  0  0  0  0  0  0
   -7.1160    3.2641   -1.4362 F   0  0  0  0  0  0  0  0  0  0  0  0
    0.6022   -0.6212    1.4294 S   0  0  0  0  0  0  0  0  0  0  0  0
    0.5187   -1.7209    2.4575 O   0  0  0  0  0  0  0  0  0  0  0  0
    0.1602    0.6310    2.1592 O   0  0  0  0  0  0  0  0  0  0  0  0
    2.2923   -0.3889    1.0188 C   0  0  0  0  0  0  0  0  0  0  0  0
    2.7871    0.8681    0.7215 C   0  0  0  0  0  0  0  0  0  0  0  0
    4.0989    1.0914    0.4136 C   0  0  0  0  0  0  0  0  0  0  0  0
    5.0207    0.0381    0.3839 C   0  0  0  0  0  0  0  0  0  0  0  0
    4.5358   -1.2123    0.6770 C   0  0  0  0  0  0  0  0  0  0  0  0
    3.1906   -1.4300    0.9916 C   0  0  0  0  0  0  0  0  0  0  0  0
    6.4180    0.2984    0.0600 C   0  0  0  0  0  0  0  0  0  0  0  0
    7.2231   -0.6145   -0.5781 C   0  0  0  0  0  0  0  0  0  0  0  0
    8.5587   -0.3098   -0.8603 C   0  0  0  0  0  0  0  0  0  0  0  0
    9.0918    0.9117   -0.5047 C   0  0  0  0  0  0  0  0  0  0  0  0
   10.5136    1.2403   -0.8064 C   0  0  0  0  0  0  0  0  0  0  0  0
    8.2859    1.7949    0.1208 N   0  0  0  0  0  0  0  0  0  0  0  0
    6.9882    1.5009    0.3963 C   0  0  0  0  0  0  0  0  0  0  0  0
   -4.1401    0.7481    1.7957 H   0  0  0  0  0  0  0  0  0  0  0  0
   -3.3753    1.8646    0.5075 H   0  0  0  0  0  0  0  0  0  0  0  0
   -2.5260    1.4073    1.9709 H   0  0  0  0  0  0  0  0  0  0  0  0
   -2.3145   -0.8458    1.4735 H   0  0  0  0  0  0  0  0  0  0  0  0
   -1.5264    0.3859   -1.1630 H   0  0  0  0  0  0  0  0  0  0  0  0
   -0.9284    1.1614    0.3671 H   0  0  0  0  0  0  0  0  0  0  0  0
   -1.3452   -2.4636    1.0523 H   0  0  0  0  0  0  0  0  0  0  0  0
   -0.4517   -2.9381   -0.3844 H   0  0  0  0  0  0  0  0  0  0  0  0
   -1.9761   -1.4986   -1.7989 H   0  0  0  0  0  0  0  0  0  0  0  0
   -2.7511   -3.0021   -1.0165 H   0  0  0  0  0  0  0  0  0  0  0  0
   -6.8274   -2.5713   -0.6737 H   0  0  0  0  0  0  0  0  0  0  0  0
   -9.1433   -1.6780   -0.5731 H   0  0  0  0  0  0  0  0  0  0  0  0
   -9.5157    0.6889   -0.4238 H   0  0  0  0  0  0  0  0  0  0  0  0
   -5.3802    1.3955   -0.5346 H   0  0  0  0  0  0  0  0  0  0  0  0
    2.0561    1.6719    0.7511 H   0  0  0  0  0  0  0  0  0  0  0  0
    4.4742    2.0896    0.1817 H   0  0  0  0  0  0  0  0  0  0  0  0
    5.2134   -2.0555    0.6649 H   0  0  0  0  0  0  0  0  0  0  0  0
    2.8218   -2.4151    1.2167 H   0  0  0  0  0  0  0  0  0  0  0  0
    6.7729   -1.5619   -0.8421 H   0  0  0  0  0  0  0  0  0  0  0  0
    9.1578   -1.0457   -1.3605 H   0  0  0  0  0  0  0  0  0  0  0  0
   10.9797    1.6842    0.1016 H   0  0  0  0  0  0  0  0  0  0  0  0
   10.6219    2.0120   -1.5960 H   0  0  0  0  0  0  0  0  0  0  0  0
   11.0711    0.3496   -1.1121 H   0  0  0  0  0  0  0  0  0  0  0  0
    6.3917    2.2562    0.9026 H   0  0  0  0  0  0  0  0  0  0  0  0
  1  2  1  0
  2  3  1  0
  3  4  1  0
  4  5  1  0
  5  6  1  0
  6  7  1  0
  7  8  1  0
  8  9  2  0
  8 10  1  0
 10 11  2  0
 11 12  1  0
 12 13  2  0
 13 14  1  0
 14 15  2  0
 14 16  1  0
 16 17  1  0
 16 18  1  0
 16 19  1  0
  4 20  1  0
 20 21  2  0
 20 22  2  0
 20 23  1  0
 23 24  2  0
 24 25  1  0
 25 26  2  0
 26 27  1  0
 27 28  2  0
 26 29  1  0
 29 30  2  0
 30 31  1  0
 31 32  2  0
 32 33  1  0
 32 34  1  0
 34 35  2  0
  7  2  1  0
 15 10  1  0
 28 23  1  0
 35 29  1  0
  1 36  1  0
  1 37  1  0
  1 38  1  0
  2 39  1  1
  3 40  1  0
  3 41  1  0
  5 42  1  0
  5 43  1  0
  6 44  1  0
  6 45  1  0
 11 46  1  0
 12 47  1  0
 13 48  1  0
 15 49  1  0
 24 50  1  0
 25 51  1  0
 27 52  1  0
 28 53  1  0
 30 54  1  0
 31 55  1  0
 33 56  1  0
 33 57  1  0
 33 58  1  0
 35 59  1  0
M  END
$$$$
[H]c1c([H])c(N2C([H])([H])C([H])([H])N(c3c([H])c([H])c(Cl)c(Cl)c3[H])[C@]([H])(C([H])([H])[H])C2([H])[H])c([H])c([H])c1F
     RDKit          3D

 39 41  0  0  0  0  0  0  0  0999 V2000
    0.9355    2.4256    0.9812 C   0  0  0  0  0  0  0  0  0  0  0  0
    0.3764    1.3248    0.1746 C   0  0  2  0  0  0  0  0  0  0  0  0
   -0.8585    0.8306    0.9600 C   0  0  0  0  0  0  0  0  0  0  0  0
   -1.4656   -0.2866    0.2673 N   0  0  0  0  0  0  0  0  0  0  0  0
   -0.5069   -1.3751   -0.0069 C   0  0  0  0  0  0  0  0  0  0  0  0
    0.4647   -0.7878   -0.9839 C   0  0  0  0  0  0  0  0  0  0  0  0
    1.2024    0.2525   -0.2208 N   0  0  0  0  0  0  0  0  0  0  0  0
    2.5635    0.0024   -0.0542 C   0  0  0  0  0  0  0  0  0  0  0  0
    2.9901   -1.3231    0.0398 C   0  0  0  0  0  0  0  0  0  0  0  0
    4.3267   -1.6497    0.1882 C   0  0  0  0  0  0  0  0  0  0  0  0
    5.2820   -0.6680    0.2479 C   0  0  0  0  0  0  0  0  0  0  0  0
    6.9736   -1.1071    0.4370 Cl  0  0  0  0  0  0  0  0  0  0  0  0
    4.8683    0.6368    0.1557 C   0  0  0  0  0  0  0  0  0  0  0  0
    6.1153    1.8829    0.2349 Cl  0  0  0  0  0  0  0  0  0  0  0  0
    3.5424    0.9580    0.0083 C   0  0  0  0  0  0  0  0  0  0  0  0
   -2.8219   -0.3695   -0.1090 C   0  0  0  0  0  0  0  0  0  0  0  0
   -3.7258    0.4782    0.4802 C   0  0  0  0  0  0  0  0  0  0  0  0
   -5.0536    0.4075    0.1031 C   0  0  0  0  0  0  0  0  0  0  0  0
   -5.4562   -0.4968   -0.8447 C   0  0  0  0  0  0  0  0  0  0  0  0
   -6.7505   -0.5893   -1.2345 F   0  0  0  0  0  0  0  0  0  0  0  0
   -4.5443   -1.3384   -1.4262 C   0  0  0  0  0  0  0  0  0  0  0  0
   -3.2076   -1.2764   -1.0555 C   0  0  0  0  0  0  0  0  0  0  0  0
    1.7138    2.1879    1.6943 H   0  0  0  0  0  0  0  0  0  0  0  0
    0.1227    2.9271    1.5929 H   0  0  0  0  0  0  0  0  0  0  0  0
    1.2967    3.2491    0.3266 H   0  0  0  0  0  0  0  0  0  0  0  0
   -0.0796    1.7582   -0.7668 H   0  0  0  0  0  0  0  0  0  0  0  0
   -0.4194    0.4550    1.9306 H   0  0  0  0  0  0  0  0  0  0  0  0
   -1.5478    1.6506    1.1305 H   0  0  0  0  0  0  0  0  0  0  0  0
   -0.0222   -1.5534    1.0049 H   0  0  0  0  0  0  0  0  0  0  0  0
   -0.9903   -2.2996   -0.2962 H   0  0  0  0  0  0  0  0  0  0  0  0
    1.1235   -1.4760   -1.4925 H   0  0  0  0  0  0  0  0  0  0  0  0
   -0.1369   -0.2569   -1.7620 H   0  0  0  0  0  0  0  0  0  0  0  0
    2.3098   -2.1643    0.0041 H   0  0  0  0  0  0  0  0  0  0  0  0
    4.6485   -2.6932    0.2608 H   0  0  0  0  0  0  0  0  0  0  0  0
    3.2979    2.0298   -0.0701 H   0  0  0  0  0  0  0  0  0  0  0  0
   -3.4789    1.2012    1.2257 H   0  0  0  0  0  0  0  0  0  0  0  0
   -5.7820    1.0690    0.5573 H   0  0  0  0  0  0  0  0  0  0  0  0
   -4.8089   -2.0757   -2.1841 H   0  0  0  0  0  0  0  0  0  0  0  0
   -2.4971   -1.9403   -1.5241 H   0  0  0  0  0  0  0  0  0  0  0  0
  1  2  1  0
  2  3  1  0
  3  4  1  0
  4  5  1  0
  5  6  1  0
  6  7  1  0
  7  8  1  0
  8  9  2  0
  9 10  1  0
 10 11  2  0
 11 12  1  0
 11 13  1  0
 13 14  1  0
 13 15  2  0
  4 16  1  0
 16 17  2  0
 17 18  1  0
 18 19  2  0
 19 20  1  0
 19 21  1  0
 21 22  2  0
  7  2  1  0
 15  8  1  0
 22 16  1  0
  1 23  1  0
  1 24  1  0
  1 25  1  0
  2 26  1  6
  3 27  1  0
  3 28  1  0
  5 29  1  0
  5 30  1  0
  6 31  1  0
  6 32  1  0
  9 33  1  0
 10 34  1  0
 15 35  1  0
 17 36  1  0
 18 37  1  0
 21 38  1  0
 22 39  1  0
M  END
$$$$
[H]c1c([H])c([C@]2([H])N(S(=O)(=O)c3c([H])c([H])c(OC([H])([H])[H])c([H])c3[H])C([H])([H])[C@@]([H])(c3c([H])c([H])c(Cl)c([H])c3[H])C2([H])[H])c([H])c([H])c1Cl
     RDKit          3D

 51 54  0  0  0  0  0  0  0  0999 V2000
    6.1185   -3.0034   -1.4213 C   0  0  0  0  0  0  0  0  0  0  0  0
    6.0331   -1.6117   -1.1756 O   0  0  0  0  0  0  0  0  0  0  0  0
    4.8780   -1.1158   -0.5781 C   0  0  0  0  0  0  0  0  0  0  0  0
    3.8335   -1.9453   -0.2279 C   0  0  0  0  0  0  0  0  0  0  0  0
    2.6796   -1.4764    0.3650 C   0  0  0  0  0  0  0  0  0  0  0  0
    2.5206   -0.1336    0.6368 C   0  0  0  0  0  0  0  0  0  0  0  0
    3.5648    0.6974    0.2870 C   0  0  0  0  0  0  0  0  0  0  0  0
    4.7180    0.2265   -0.3059 C   0  0  0  0  0  0  0  0  0  0  0  0
    1.0591    0.4830    1.3912 S   0  0  0  0  0  0  0  0  0  0  0  0
    1.3648    1.6850    2.2078 O   0  0  0  0  0  0  0  0  0  0  0  0
    0.4319   -0.5477    2.2871 O   0  0  0  0  0  0  0  0  0  0  0  0
   -0.1139    0.9158    0.2004 N   0  0  0  0  0  0  0  0  0  0  0  0
   -0.4432   -0.2907   -0.5326 C   0  0  0  0  0  0  0  0  0  0  0  0
   -1.8918   -0.1332   -0.8890 C   0  0  2  0  0  0  0  0  0  0  0  0
   -2.4601    0.6081    0.2791 C   0  0  0  0  0  0  0  0  0  0  0  0
   -1.3014    1.3576    0.8672 C   0  0  2  0  0  0  0  0  0  0  0  0
   -1.5429    2.8146    0.7065 C   0  0  0  0  0  0  0  0  0  0  0  0
   -1.9110    3.6288    1.7623 C   0  0  0  0  0  0  0  0  0  0  0  0
   -2.1315    4.9752    1.6010 C   0  0  0  0  0  0  0  0  0  0  0  0
   -1.9889    5.5733    0.3471 C   0  0  0  0  0  0  0  0  0  0  0  0
   -2.2682    7.2914    0.1303 Cl  0  0  0  0  0  0  0  0  0  0  0  0
   -1.6221    4.7692   -0.7118 C   0  0  0  0  0  0  0  0  0  0  0  0
   -1.4051    3.4116   -0.5228 C   0  0  0  0  0  0  0  0  0  0  0  0
   -2.4786   -1.4980   -1.0036 C   0  0  0  0  0  0  0  0  0  0  0  0
   -3.0805   -1.9505   -2.1587 C   0  0  0  0  0  0  0  0  0  0  0  0
   -3.6137   -3.2161   -2.2347 C   0  0  0  0  0  0  0  0  0  0  0  0
   -3.5433   -4.0440   -1.1350 C   0  0  0  0  0  0  0  0  0  0  0  0
   -4.2096   -5.6730   -1.1781 Cl  0  0  0  0  0  0  0  0  0  0  0  0
   -2.9432   -3.6183    0.0445 C   0  0  0  0  0  0  0  0  0  0  0  0
   -2.4112   -2.3366    0.0996 C   0  0  0  0  0  0  0  0  0  0  0  0
    6.9922   -3.2843   -2.0075 H   0  0  0  0  0  0  0  0  0  0  0  0
    5.1975   -3.2554   -2.0246 H   0  0  0  0  0  0  0  0  0  0  0  0
    5.9970   -3.5460   -0.4699 H   0  0  0  0  0  0  0  0  0  0  0  0
    3.9400   -3.0111   -0.4347 H   0  0  0  0  0  0  0  0  0  0  0  0
    1.8560   -2.1448    0.6390 H   0  0  0  0  0  0  0  0  0  0  0  0
    3.4372    1.7551    0.5021 H   0  0  0  0  0  0  0  0  0  0  0  0
    5.5263    0.8979   -0.5726 H   0  0  0  0  0  0  0  0  0  0  0  0
    0.2025   -0.4167   -1.4256 H   0  0  0  0  0  0  0  0  0  0  0  0
   -0.3456   -1.1503    0.1690 H   0  0  0  0  0  0  0  0  0  0  0  0
   -2.0472    0.3681   -1.8634 H   0  0  0  0  0  0  0  0  0  0  0  0
   -3.2425    1.3029   -0.0870 H   0  0  0  0  0  0  0  0  0  0  0  0
   -2.9470   -0.0825    0.9875 H   0  0  0  0  0  0  0  0  0  0  0  0
   -1.2482    1.1552    1.9520 H   0  0  0  0  0  0  0  0  0  0  0  0
   -2.0219    3.1704    2.7316 H   0  0  0  0  0  0  0  0  0  0  0  0
   -2.4190    5.6327    2.4055 H   0  0  0  0  0  0  0  0  0  0  0  0
   -1.5110    5.2261   -1.6805 H   0  0  0  0  0  0  0  0  0  0  0  0
   -1.1177    2.7927   -1.3629 H   0  0  0  0  0  0  0  0  0  0  0  0
   -3.1366   -1.3064   -3.0181 H   0  0  0  0  0  0  0  0  0  0  0  0
   -4.0940   -3.6034   -3.1277 H   0  0  0  0  0  0  0  0  0  0  0  0
   -2.9015   -4.2901    0.8947 H   0  0  0  0  0  0  0  0  0  0  0  0
   -1.9581   -2.0535    1.0323 H   0  0  0  0  0  0  0  0  0  0  0  0
  1  2  1  0
  2  3  1  0
  3  4  2  0
  4  5  1  0
  5  6  2  0
  6  7  1  0
  7  8  2  0
  6  9  1  0
  9 10  2  0
  9 11  2  0
  9 12  1  0
 12 13  1  0
 13 14  1  0
 14 15  1  0
 15 16  1  0
 16 17  1  0
 17 18  2  0
 18 19  1  0
 19 20  2  0
 20 21  1  0
 20 22  1  0
 22 23  2  0
 14 24  1  0
 24 25  2  0
 25 26  1  0
 26 27  2  0
 27 28  1  0
 27 29  1  0
 29 30  2  0
  8  3  1  0
 16 12  1  0
 23 17  1  0
 30 24  1  0
  1 31  1  0
  1 32  1  0
  1 33  1  0
  4 34  1  0
  5 35  1  0
  7 36  1  0
  8 37  1  0
 13 38  1  0
 13 39  1  0
 14 40  1  6
 15 41  1  0
 15 42  1  0
 16 43  1  1
 18 44  1  0
 19 45  1  0
 22 46  1  0
 23 47  1  0
 25 48  1  0
 26 49  1  0
 29 50  1  0
 30 51  1  0
M  END
$$$$
[H]c1nc(N([H])c2c([H])c([H])c(N3C([H])([H])C([H])([H])C([H])(N4C([H])([H])C([H])([H])C([H])([H])C4([H])[H])C([H])([H])C3([H])[H])c([H])c2OC([H])([H])[H])nc(N([H])c2c([H])c([H])c([H])c([H])c2S(=O)(=O)C([H])(C([H])([H])[H])C([H])([H])[H])c1Cl
     RDKit          3D

 77 81  0  0  0  0  0  0  0  0999 V2000
    0.8444    1.1735   -3.4882 C   0  0  0  0  0  0  0  0  0  0  0  0
    0.1439    0.9247   -2.3025 O   0  0  0  0  0  0  0  0  0  0  0  0
    0.7822    0.3868   -1.2119 C   0  0  0  0  0  0  0  0  0  0  0  0
    2.1247    0.0964   -1.3057 C   0  0  0  0  0  0  0  0  0  0  0  0
    2.8153   -0.4444   -0.2422 C   0  0  0  0  0  0  0  0  0  0  0  0
    2.1684   -0.7054    0.9431 C   0  0  0  0  0  0  0  0  0  0  0  0
    0.8041   -0.4045    1.0222 C   0  0  0  0  0  0  0  0  0  0  0  0
    0.0946    0.1289   -0.0087 C   0  0  0  0  0  0  0  0  0  0  0  0
   -1.2782    0.4436    0.0285 N   0  0  0  0  0  0  0  0  0  0  0  0
   -2.2158    0.2947    1.0523 C   0  0  0  0  0  0  0  0  0  0  0  0
   -1.9079   -0.2100    2.2386 N   0  0  0  0  0  0  0  0  0  0  0  0
   -2.7961   -0.3635    3.2240 C   0  0  0  0  0  0  0  0  0  0  0  0
   -4.0813    0.0263    2.9742 C   0  0  0  0  0  0  0  0  0  0  0  0
   -5.2951   -0.1412    4.2182 Cl  0  0  0  0  0  0  0  0  0  0  0  0
   -4.4529    0.5671    1.7291 C   0  0  0  0  0  0  0  0  0  0  0  0
   -5.7836    0.9344    1.4634 N   0  0  0  0  0  0  0  0  0  0  0  0
   -6.3139    1.5195    0.2955 C   0  0  0  0  0  0  0  0  0  0  0  0
   -5.5606    2.1541   -0.6571 C   0  0  0  0  0  0  0  0  0  0  0  0
   -6.0806    2.8280   -1.7613 C   0  0  0  0  0  0  0  0  0  0  0  0
   -7.4338    2.8623   -1.9097 C   0  0  0  0  0  0  0  0  0  0  0  0
   -8.2187    2.2364   -0.9751 C   0  0  0  0  0  0  0  0  0  0  0  0
   -7.6979    1.5567    0.1348 C   0  0  0  0  0  0  0  0  0  0  0  0
   -8.8110    0.7276    1.1504 S   0  0  0  0  0  0  0  0  0  0  0  0
   -8.7176    1.1212    2.6121 O   0  0  0  0  0  0  0  0  0  0  0  0
  -10.2307    1.2112    0.7746 O   0  0  0  0  0  0  0  0  0  0  0  0
   -8.8787   -1.0165    0.9527 C   0  0  0  0  0  0  0  0  0  0  0  0
   -7.6434   -1.7952    1.1622 C   0  0  0  0  0  0  0  0  0  0  0  0
   -9.4496   -1.2951   -0.4370 C   0  0  0  0  0  0  0  0  0  0  0  0
   -3.4913    0.6665    0.8456 N   0  0  0  0  0  0  0  0  0  0  0  0
    4.1960   -0.7607   -0.3178 N   0  0  0  0  0  0  0  0  0  0  0  0
    4.9336   -1.1733    0.8819 C   0  0  0  0  0  0  0  0  0  0  0  0
    6.4199   -1.1596    0.6163 C   0  0  0  0  0  0  0  0  0  0  0  0
    6.8115    0.1552   -0.0512 C   0  0  0  0  0  0  0  0  0  0  0  0
    6.0206    0.3973   -1.2880 C   0  0  0  0  0  0  0  0  0  0  0  0
    4.9953   -0.7223   -1.5248 C   0  0  0  0  0  0  0  0  0  0  0  0
    8.2232    0.2736   -0.2312 N   0  0  0  0  0  0  0  0  0  0  0  0
    8.8279   -0.6885   -1.0738 C   0  0  0  0  0  0  0  0  0  0  0  0
    9.5633   -1.6898   -0.2068 C   0  0  0  0  0  0  0  0  0  0  0  0
    9.6882   -0.9817    1.1154 C   0  0  0  0  0  0  0  0  0  0  0  0
    8.9705    0.3394    0.9746 C   0  0  0  0  0  0  0  0  0  0  0  0
    1.2786    0.2534   -3.9436 H   0  0  0  0  0  0  0  0  0  0  0  0
    0.2521    1.7597   -4.2252 H   0  0  0  0  0  0  0  0  0  0  0  0
    1.7405    1.8297   -3.2721 H   0  0  0  0  0  0  0  0  0  0  0  0
    2.6405    0.3088   -2.2572 H   0  0  0  0  0  0  0  0  0  0  0  0
    2.7020   -1.1359    1.8005 H   0  0  0  0  0  0  0  0  0  0  0  0
    0.3661   -0.6318    1.9705 H   0  0  0  0  0  0  0  0  0  0  0  0
   -1.7003    0.8770   -0.8818 H   0  0  0  0  0  0  0  0  0  0  0  0
   -2.5090   -0.7756    4.1686 H   0  0  0  0  0  0  0  0  0  0  0  0
   -6.4448    0.7483    2.2946 H   0  0  0  0  0  0  0  0  0  0  0  0
   -4.4875    2.1799   -0.5950 H   0  0  0  0  0  0  0  0  0  0  0  0
   -5.4582    3.3165   -2.4921 H   0  0  0  0  0  0  0  0  0  0  0  0
   -7.9369    3.3599   -2.7309 H   0  0  0  0  0  0  0  0  0  0  0  0
   -9.3145    2.2697   -1.1049 H   0  0  0  0  0  0  0  0  0  0  0  0
   -9.6419   -1.3897    1.6818 H   0  0  0  0  0  0  0  0  0  0  0  0
   -6.8736   -1.6188    0.3769 H   0  0  0  0  0  0  0  0  0  0  0  0
   -7.8590   -2.9107    1.0478 H   0  0  0  0  0  0  0  0  0  0  0  0
   -7.1554   -1.6284    2.1419 H   0  0  0  0  0  0  0  0  0  0  0  0
   -8.6222   -1.3689   -1.1571 H   0  0  0  0  0  0  0  0  0  0  0  0
  -10.1824   -0.5193   -0.6655 H   0  0  0  0  0  0  0  0  0  0  0  0
   -9.9573   -2.2694   -0.3724 H   0  0  0  0  0  0  0  0  0  0  0  0
    4.6355   -2.2205    1.0843 H   0  0  0  0  0  0  0  0  0  0  0  0
    4.6564   -0.5745    1.7660 H   0  0  0  0  0  0  0  0  0  0  0  0
    6.9138   -1.2598    1.6106 H   0  0  0  0  0  0  0  0  0  0  0  0
    6.7068   -2.0371    0.0389 H   0  0  0  0  0  0  0  0  0  0  0  0
    6.5190    0.9496    0.6967 H   0  0  0  0  0  0  0  0  0  0  0  0
    5.4138    1.3290   -1.2316 H   0  0  0  0  0  0  0  0  0  0  0  0
    6.6594    0.5251   -2.2015 H   0  0  0  0  0  0  0  0  0  0  0  0
    5.5071   -1.7091   -1.5693 H   0  0  0  0  0  0  0  0  0  0  0  0
    4.4546   -0.5000   -2.4387 H   0  0  0  0  0  0  0  0  0  0  0  0
    9.5960   -0.1824   -1.6990 H   0  0  0  0  0  0  0  0  0  0  0  0
    8.1431   -1.1934   -1.7799 H   0  0  0  0  0  0  0  0  0  0  0  0
    9.0162   -2.6556   -0.1333 H   0  0  0  0  0  0  0  0  0  0  0  0
   10.5501   -1.9363   -0.6537 H   0  0  0  0  0  0  0  0  0  0  0  0
    9.3099   -1.5809    1.9603 H   0  0  0  0  0  0  0  0  0  0  0  0
   10.7892   -0.8438    1.3002 H   0  0  0  0  0  0  0  0  0  0  0  0
    9.7787    1.1139    0.8224 H   0  0  0  0  0  0  0  0  0  0  0  0
    8.4248    0.6477    1.8661 H   0  0  0  0  0  0  0  0  0  0  0  0
  1  2  1  0
  2  3  1  0
  3  4  2  0
  4  5  1  0
  5  6  2  0
  6  7  1  0
  7  8  2  0
  8  9  1  0
  9 10  1  0
 10 11  2  0
 11 12  1  0
 12 13  2  0
 13 14  1  0
 13 15  1  0
 15 16  1  0
 16 17  1  0
 17 18  2  0
 18 19  1  0
 19 20  2  0
 20 21  1  0
 21 22  2  0
 22 23  1  0
 23 24  2  0
 23 25  2  0
 23 26  1  0
 26 27  1  0
 26 28  1  0
 15 29  2  0
  5 30  1  0
 30 31  1  0
 31 32  1  0
 32 33  1  0
 33 34  1  0
 34 35  1  0
 33 36  1  0
 36 37  1  0
 37 38  1  0
 38 39  1  0
 39 40  1  0
  8  3  1  0
 29 10  1  0
 35 30  1  0
 40 36  1  0
 22 17  1  0
  1 41  1  0
  1 42  1  0
  1 43  1  0
  4 44  1  0
  6 45  1  0
  7 46  1  0
  9 47  1  0
 12 48  1  0
 16 49  1  0
 18 50  1  0
 19 51  1  0
 20 52  1  0
 21 53  1  0
 26 54  1  0
 27 55  1  0
 27 56  1  0
 27 57  1  0
 28 58  1  0
 28 59  1  0
 28 60  1  0
 31 61  1  0
 31 62  1  0
 32 63  1  0
 32 64  1  0
 33 65  1  0
 34 66  1  0
 34 67  1  0
 35 68  1  0
 35 69  1  0
 37 70  1  0
 37 71  1  0
 38 72  1  0
 38 73  1  0
 39 74  1  0
 39 75  1  0
 40 76  1  0
 40 77  1  0
M  END
$$$$
[H]c1c([H])c([H])c(C(=O)N([H])[C@]2([H])C([H])([H])C([H])([H])[C@@]([H])(C(=O)N3C([H])([H])C([H])([H])N(S(=O)(=O)c4c([H])c([H])c(OC([H])([H])[H])c([H])c4[H])C([H])([H])C3([H])[H])C([H])([H])C2([H])[H])c([H])c1[H]
     RDKit          3D

 65 68  0  0  0  0  0  0  0  0999 V2000
    9.7716    1.8447   -2.3923 C   0  0  0  0  0  0  0  0  0  0  0  0
    9.2418    1.6325   -1.0988 O   0  0  0  0  0  0  0  0  0  0  0  0
    8.1290    0.8102   -0.9853 C   0  0  0  0  0  0  0  0  0  0  0  0
    7.5402    0.2083   -2.0760 C   0  0  0  0  0  0  0  0  0  0  0  0
    6.4331   -0.6039   -1.9204 C   0  0  0  0  0  0  0  0  0  0  0  0
    5.8802   -0.8410   -0.6798 C   0  0  0  0  0  0  0  0  0  0  0  0
    6.4793   -0.2325    0.4032 C   0  0  0  0  0  0  0  0  0  0  0  0
    7.5960    0.5876    0.2525 C   0  0  0  0  0  0  0  0  0  0  0  0
    4.4774   -1.8703   -0.4829 S   0  0  0  0  0  0  0  0  0  0  0  0
    4.5904   -2.6152    0.8168 O   0  0  0  0  0  0  0  0  0  0  0  0
    4.4363   -2.9281   -1.5774 O   0  0  0  0  0  0  0  0  0  0  0  0
    3.0066   -0.9727   -0.5959 N   0  0  0  0  0  0  0  0  0  0  0  0
    2.8852    0.0246    0.4136 C   0  0  0  0  0  0  0  0  0  0  0  0
    1.4560    0.3185    0.8088 C   0  0  0  0  0  0  0  0  0  0  0  0
    0.7265   -0.8943    1.0967 N   0  0  0  0  0  0  0  0  0  0  0  0
    1.3521   -2.1323    0.6886 C   0  0  0  0  0  0  0  0  0  0  0  0
    1.9209   -1.8909   -0.6930 C   0  0  0  0  0  0  0  0  0  0  0  0
   -0.5339   -0.9153    1.7421 C   0  0  0  0  0  0  0  0  0  0  0  0
   -1.1320   -2.0132    1.9717 O   0  0  0  0  0  0  0  0  0  0  0  0
   -1.2315    0.3209    2.1871 C   0  0  1  0  0  0  0  0  0  0  0  0
   -1.5289    1.2274    1.0178 C   0  0  0  0  0  0  0  0  0  0  0  0
   -2.9986    1.6208    1.0752 C   0  0  0  0  0  0  0  0  0  0  0  0
   -3.7881    0.3343    0.9464 C   0  0  1  0  0  0  0  0  0  0  0  0
   -3.6072   -0.4879    2.2040 C   0  0  0  0  0  0  0  0  0  0  0  0
   -2.4357    0.0049    3.0258 C   0  0  0  0  0  0  0  0  0  0  0  0
   -5.1514    0.5875    0.6256 N   0  0  0  0  0  0  0  0  0  0  0  0
   -5.7039    0.1342   -0.5927 C   0  0  0  0  0  0  0  0  0  0  0  0
   -4.9247   -0.5066   -1.3807 O   0  0  0  0  0  0  0  0  0  0  0  0
   -7.0821    0.3519   -0.9918 C   0  0  0  0  0  0  0  0  0  0  0  0
   -7.9316    1.0222   -0.1505 C   0  0  0  0  0  0  0  0  0  0  0  0
   -9.2631    1.2273   -0.5474 C   0  0  0  0  0  0  0  0  0  0  0  0
   -9.7102    0.7671   -1.7540 C   0  0  0  0  0  0  0  0  0  0  0  0
   -8.8632    0.1020   -2.5864 C   0  0  0  0  0  0  0  0  0  0  0  0
   -7.5460   -0.1004   -2.1927 C   0  0  0  0  0  0  0  0  0  0  0  0
    9.9514    0.8311   -2.8455 H   0  0  0  0  0  0  0  0  0  0  0  0
   10.7494    2.3557   -2.2910 H   0  0  0  0  0  0  0  0  0  0  0  0
    9.0709    2.3850   -3.0624 H   0  0  0  0  0  0  0  0  0  0  0  0
    7.9490    0.3747   -3.0550 H   0  0  0  0  0  0  0  0  0  0  0  0
    5.9694   -1.0772   -2.7754 H   0  0  0  0  0  0  0  0  0  0  0  0
    6.0586   -0.4065    1.3902 H   0  0  0  0  0  0  0  0  0  0  0  0
    8.0684    1.0686    1.1143 H   0  0  0  0  0  0  0  0  0  0  0  0
    3.2958    0.9873   -0.0025 H   0  0  0  0  0  0  0  0  0  0  0  0
    3.4740   -0.2500    1.2959 H   0  0  0  0  0  0  0  0  0  0  0  0
    1.5028    0.8951    1.7561 H   0  0  0  0  0  0  0  0  0  0  0  0
    0.9558    0.9661    0.0620 H   0  0  0  0  0  0  0  0  0  0  0  0
    0.6468   -2.9863    0.7055 H   0  0  0  0  0  0  0  0  0  0  0  0
    2.2139   -2.2899    1.3780 H   0  0  0  0  0  0  0  0  0  0  0  0
    1.0870   -1.5061   -1.3485 H   0  0  0  0  0  0  0  0  0  0  0  0
    2.2747   -2.8502   -1.1603 H   0  0  0  0  0  0  0  0  0  0  0  0
   -0.5015    0.8260    2.8865 H   0  0  0  0  0  0  0  0  0  0  0  0
   -0.9436    2.1472    1.0114 H   0  0  0  0  0  0  0  0  0  0  0  0
   -1.4153    0.6105    0.1009 H   0  0  0  0  0  0  0  0  0  0  0  0
   -3.2406    2.1970    1.9734 H   0  0  0  0  0  0  0  0  0  0  0  0
   -3.1846    2.2578    0.1791 H   0  0  0  0  0  0  0  0  0  0  0  0
   -3.3048   -0.2386    0.1239 H   0  0  0  0  0  0  0  0  0  0  0  0
   -3.5570   -1.5772    2.0016 H   0  0  0  0  0  0  0  0  0  0  0  0
   -4.5188   -0.3260    2.8336 H   0  0  0  0  0  0  0  0  0  0  0  0
   -2.7425    0.8208    3.6809 H   0  0  0  0  0  0  0  0  0  0  0  0
   -2.1457   -0.8477    3.6921 H   0  0  0  0  0  0  0  0  0  0  0  0
   -5.7561    1.1096    1.2853 H   0  0  0  0  0  0  0  0  0  0  0  0
   -7.6703    1.4171    0.8106 H   0  0  0  0  0  0  0  0  0  0  0  0
   -9.9296    1.7523    0.1107 H   0  0  0  0  0  0  0  0  0  0  0  0
  -10.7525    0.9446   -2.0302 H   0  0  0  0  0  0  0  0  0  0  0  0
   -9.2230   -0.2591   -3.5380 H   0  0  0  0  0  0  0  0  0  0  0  0
   -6.8725   -0.6324   -2.8611 H   0  0  0  0  0  0  0  0  0  0  0  0
  1  2  1  0
  2  3  1  0
  3  4  2  0
  4  5  1  0
  5  6  2  0
  6  7  1  0
  7  8  2  0
  6  9  1  0
  9 10  2  0
  9 11  2  0
  9 12  1  0
 12 13  1  0
 13 14  1  0
 14 15  1  0
 15 16  1  0
 16 17  1  0
 15 18  1  0
 18 19  2  0
 18 20  1  0
 20 21  1  0
 21 22  1  0
 22 23  1  0
 23 24  1  0
 24 25  1  0
 23 26  1  0
 26 27  1  0
 27 28  2  0
 27 29  1  0
 29 30  2  0
 30 31  1  0
 31 32  2  0
 32 33  1  0
 33 34  2  0
  8  3  1  0
 17 12  1  0
 25 20  1  0
 34 29  1  0
  1 35  1  0
  1 36  1  0
  1 37  1  0
  4 38  1  0
  5 39  1  0
  7 40  1  0
  8 41  1  0
 13 42  1  0
 13 43  1  0
 14 44  1  0
 14 45  1  0
 16 46  1  0
 16 47  1  0
 17 48  1  0
 17 49  1  0
 20 50  1  1
 21 51  1  0
 21 52  1  0
 22 53  1  0
 22 54  1  0
 23 55  1  6
 24 56  1  0
 24 57  1  0
 25 58  1  0
 25 59  1  0
 26 60  1  0
 30 61  1  0
 31 62  1  0
 32 63  1  0
 33 64  1  0
 34 65  1  0
M  END
$$$$
[H]Oc1c([H])c([H])c2c3c1O[C@@]1([H])c4c(c5c([H])c([H])c([H])c([H])c5n4[H])C([H])([H])[C@@]4(O[H])C([H])(N(C([H])([H])C5([H])C([H])([H])C5([H])[H])C([H])([H])C([H])([H])[C@@]341)C2([H])[H]
     RDKit          3D

 57 64  0  0  0  0  0  0  0  0999 V2000
    1.8707    4.6664    1.5136 O   0  0  0  0  0  0  0  0  0  0  0  0
    0.9174    3.6768    1.3970 C   0  0  0  0  0  0  0  0  0  0  0  0
   -0.1064    3.5616    2.3351 C   0  0  0  0  0  0  0  0  0  0  0  0
   -1.0700    2.5595    2.2165 C   0  0  0  0  0  0  0  0  0  0  0  0
   -1.0016    1.6862    1.1658 C   0  0  0  0  0  0  0  0  0  0  0  0
   -1.9575    0.5753    0.9679 C   0  0  0  0  0  0  0  0  0  0  0  0
   -1.5700   -0.4434   -0.0461 C   0  0  0  0  0  0  0  0  0  0  0  0
   -2.3677   -0.3065   -1.1826 N   0  0  0  0  0  0  0  0  0  0  0  0
   -3.3711   -1.1780   -1.5531 C   0  0  0  0  0  0  0  0  0  0  0  0
   -4.6037   -1.1791   -0.7153 C   0  0  0  0  0  0  0  0  0  0  0  0
   -4.6219   -1.5339    0.7316 C   0  0  0  0  0  0  0  0  0  0  0  0
   -5.1851   -2.4754   -0.2983 C   0  0  0  0  0  0  0  0  0  0  0  0
   -2.0579    0.7719   -2.0586 C   0  0  0  0  0  0  0  0  0  0  0  0
   -0.7041    1.3392   -2.0256 C   0  0  0  0  0  0  0  0  0  0  0  0
    0.1893    0.9693   -0.9087 C   0  0  1  0  0  0  0  0  0  0  0  0
    1.6287    1.2656   -1.2454 C   0  0  1  0  0  0  0  0  0  0  0  0
    1.8443    2.6036   -0.7647 O   0  0  0  0  0  0  0  0  0  0  0  0
    0.9832    2.7899    0.3335 C   0  0  0  0  0  0  0  0  0  0  0  0
    0.0137    1.8445    0.2819 C   0  0  0  0  0  0  0  0  0  0  0  0
    2.5551    0.3246   -0.6148 C   0  0  0  0  0  0  0  0  0  0  0  0
    3.9008    0.2590   -0.7753 N   0  0  0  0  0  0  0  0  0  0  0  0
    4.4061   -0.7432   -0.0401 C   0  0  0  0  0  0  0  0  0  0  0  0
    5.6881   -1.2293    0.1475 C   0  0  0  0  0  0  0  0  0  0  0  0
    5.9242   -2.3121    0.9879 C   0  0  0  0  0  0  0  0  0  0  0  0
    4.8861   -2.9284    1.6542 C   0  0  0  0  0  0  0  0  0  0  0  0
    3.6090   -2.4478    1.4707 C   0  0  0  0  0  0  0  0  0  0  0  0
    3.3770   -1.3577    0.6239 C   0  0  0  0  0  0  0  0  0  0  0  0
    2.2201   -0.6678    0.2467 C   0  0  0  0  0  0  0  0  0  0  0  0
    0.8071   -0.8845    0.6527 C   0  0  0  0  0  0  0  0  0  0  0  0
   -0.0848   -0.4149   -0.4408 C   0  0  1  0  0  0  0  0  0  0  0  0
    0.0781   -1.2743   -1.5118 O   0  0  0  0  0  0  0  0  0  0  0  0
    2.6179    4.7615    0.8413 H   0  0  0  0  0  0  0  0  0  0  0  0
   -0.1389    4.2708    3.1648 H   0  0  0  0  0  0  0  0  0  0  0  0
   -1.8626    2.4836    2.9621 H   0  0  0  0  0  0  0  0  0  0  0  0
   -2.2277    0.0983    1.9536 H   0  0  0  0  0  0  0  0  0  0  0  0
   -2.9221    1.0845    0.6627 H   0  0  0  0  0  0  0  0  0  0  0  0
   -1.6985   -1.4560    0.4035 H   0  0  0  0  0  0  0  0  0  0  0  0
   -2.9609   -2.2354   -1.5290 H   0  0  0  0  0  0  0  0  0  0  0  0
   -3.6522   -1.0034   -2.6300 H   0  0  0  0  0  0  0  0  0  0  0  0
   -5.3850   -0.3976   -1.0480 H   0  0  0  0  0  0  0  0  0  0  0  0
   -5.3748   -0.9753    1.3683 H   0  0  0  0  0  0  0  0  0  0  0  0
   -3.7614   -1.9274    1.2567 H   0  0  0  0  0  0  0  0  0  0  0  0
   -6.2825   -2.5829   -0.2790 H   0  0  0  0  0  0  0  0  0  0  0  0
   -4.6486   -3.4314   -0.4886 H   0  0  0  0  0  0  0  0  0  0  0  0
   -2.8147    1.5701   -1.8855 H   0  0  0  0  0  0  0  0  0  0  0  0
   -2.2824    0.4115   -3.1081 H   0  0  0  0  0  0  0  0  0  0  0  0
   -0.7815    2.4741   -2.0374 H   0  0  0  0  0  0  0  0  0  0  0  0
   -0.1524    1.1162   -2.9817 H   0  0  0  0  0  0  0  0  0  0  0  0
    1.7272    1.3095   -2.3442 H   0  0  0  0  0  0  0  0  0  0  0  0
    4.5057    0.8744   -1.3739 H   0  0  0  0  0  0  0  0  0  0  0  0
    6.4895   -0.7326   -0.3858 H   0  0  0  0  0  0  0  0  0  0  0  0
    6.9510   -2.6866    1.1265 H   0  0  0  0  0  0  0  0  0  0  0  0
    5.1429   -3.7649    2.2897 H   0  0  0  0  0  0  0  0  0  0  0  0
    2.7829   -2.9180    1.9829 H   0  0  0  0  0  0  0  0  0  0  0  0
    0.6259   -0.3591    1.6068 H   0  0  0  0  0  0  0  0  0  0  0  0
    0.6255   -1.9752    0.7887 H   0  0  0  0  0  0  0  0  0  0  0  0
   -0.7194   -1.5259   -1.9948 H   0  0  0  0  0  0  0  0  0  0  0  0
  1  2  1  0
  2  3  2  0
  3  4  1  0
  4  5  2  0
  5  6  1  0
  6  7  1  0
  7  8  1  0
  8  9  1  0
  9 10  1  0
 10 11  1  0
 11 12  1  0
  8 13  1  0
 13 14  1  0
 15 14  1  6
 15 16  1  0
 16 17  1  0
 17 18  1  0
 18 19  2  0
 16 20  1  0
 20 21  1  0
 21 22  1  0
 22 23  2  0
 23 24  1  0
 24 25  2  0
 25 26  1  0
 26 27  2  0
 27 28  1  0
 28 29  1  0
 29 30  1  0
 30 31  1  6
 18  2  1  0
 28 20  2  0
 19  5  1  0
 27 22  1  0
 30  7  1  0
 12 10  1  0
 19 15  1  0
 30 15  1  0
  1 32  1  0
  3 33  1  0
  4 34  1  0
  6 35  1  0
  6 36  1  0
  7 37  1  0
  9 38  1  0
  9 39  1  0
 10 40  1  0
 11 41  1  0
 11 42  1  0
 12 43  1  0
 12 44  1  0
 13 45  1  0
 13 46  1  0
 14 47  1  0
 14 48  1  0
 16 49  1  6
 21 50  1  0
 23 51  1  0
 24 52  1  0
 25 53  1  0
 26 54  1  0
 29 55  1  0
 29 56  1  0
 31 57  1  0
M  END
$$$$
[H]OC(=O)C([H])([H])[C@@]([H])(C(=O)N([H])[C@@]([H])(C(=O)N1C([H])([H])C([H])([H])C([H])([H])[C@@]1([H])C(=O)N([H])[C@@]([H])(C(=O)N([H])[C@]([H])(C(=O)N([H])[H])C([H])([H])C([H])(C([H])([H])[H])C([H])([H])[H])C([H])([H])c1c([H])c([H])c(O[H])c([H])c1[H])C([H])([H])c1c([H])c([H])c([H])c([H])c1[H])N([H])C(=O)[C@]([H])(N([H])C(=O)[C@@]([H])(N([H])C(=O)OC([H])([H])c1c([H])c([H])c([H])c([H])c1[H])C([H])([H])c1c([H])c([H])c([H])c([H])c1[H])C([H])([H])c1c([H])c([H])c([H])c([H])c1[H]
     RDKit          3D

147152  0  0  0  0  0  0  0  0999 V2000
  -11.2828   -1.3640   -1.4073 C   0  0  0  0  0  0  0  0  0  0  0  0
  -11.3979   -0.0356   -0.7488 C   0  0  0  0  0  0  0  0  0  0  0  0
  -12.8317    0.4351   -0.8510 C   0  0  0  0  0  0  0  0  0  0  0  0
  -10.9540    0.0807    0.6554 C   0  0  0  0  0  0  0  0  0  0  0  0
   -9.5362   -0.2048    0.9345 C   0  0  2  0  0  0  0  0  0  0  0  0
   -8.6027    0.6418    0.2453 N   0  0  0  0  0  0  0  0  0  0  0  0
   -7.5611    1.3287    0.9060 C   0  0  0  0  0  0  0  0  0  0  0  0
   -7.5256    1.1199    2.1806 O   0  0  0  0  0  0  0  0  0  0  0  0
   -6.5631    2.2148    0.2829 C   0  0  1  0  0  0  0  0  0  0  0  0
   -6.9510    3.6492    0.5053 C   0  0  0  0  0  0  0  0  0  0  0  0
   -8.2488    4.0161   -0.1213 C   0  0  0  0  0  0  0  0  0  0  0  0
   -8.3096    4.4990   -1.4124 C   0  0  0  0  0  0  0  0  0  0  0  0
   -9.5334    4.8398   -1.9438 C   0  0  0  0  0  0  0  0  0  0  0  0
  -10.7170    4.7242   -1.2523 C   0  0  0  0  0  0  0  0  0  0  0  0
  -11.9594    5.0670   -1.7887 O   0  0  0  0  0  0  0  0  0  0  0  0
  -10.6437    4.2321    0.0572 C   0  0  0  0  0  0  0  0  0  0  0  0
   -9.4035    3.8918    0.5860 C   0  0  0  0  0  0  0  0  0  0  0  0
   -5.3109    1.9640    0.9782 N   0  0  0  0  0  0  0  0  0  0  0  0
   -4.0691    1.9585    0.2735 C   0  0  0  0  0  0  0  0  0  0  0  0
   -4.0693    2.2281   -0.9379 O   0  0  0  0  0  0  0  0  0  0  0  0
   -2.8576    1.6123    1.0366 C   0  0  2  0  0  0  0  0  0  0  0  0
   -2.4937    2.6714    2.0762 C   0  0  0  0  0  0  0  0  0  0  0  0
   -1.5206    3.5864    1.3547 C   0  0  0  0  0  0  0  0  0  0  0  0
   -1.1857    2.9225    0.0558 C   0  0  0  0  0  0  0  0  0  0  0  0
   -1.6563    1.5518    0.2512 N   0  0  0  0  0  0  0  0  0  0  0  0
   -1.0105    0.3971   -0.2356 C   0  0  0  0  0  0  0  0  0  0  0  0
    0.0404    0.4362   -0.9339 O   0  0  0  0  0  0  0  0  0  0  0  0
   -1.5904   -0.9587    0.0919 C   0  0  1  0  0  0  0  0  0  0  0  0
   -2.6628   -1.2600   -0.9096 C   0  0  0  0  0  0  0  0  0  0  0  0
   -3.3283   -2.5842   -0.6961 C   0  0  0  0  0  0  0  0  0  0  0  0
   -4.3850   -2.7073    0.1897 C   0  0  0  0  0  0  0  0  0  0  0  0
   -5.0228   -3.9051    0.3843 C   0  0  0  0  0  0  0  0  0  0  0  0
   -4.6392   -5.0366   -0.2934 C   0  0  0  0  0  0  0  0  0  0  0  0
   -3.5879   -4.9265   -1.1764 C   0  0  0  0  0  0  0  0  0  0  0  0
   -2.9344   -3.6918   -1.3746 C   0  0  0  0  0  0  0  0  0  0  0  0
   -0.5339   -1.9159    0.0222 N   0  0  0  0  0  0  0  0  0  0  0  0
    0.5491   -2.0725    0.9396 C   0  0  0  0  0  0  0  0  0  0  0  0
    0.6632   -1.2966    1.8927 O   0  0  0  0  0  0  0  0  0  0  0  0
    1.4770   -3.1789    0.6900 C   0  0  2  0  0  0  0  0  0  0  0  0
    0.9396   -4.4914    1.2276 C   0  0  0  0  0  0  0  0  0  0  0  0
    0.6986   -4.5165    2.6643 C   0  0  0  0  0  0  0  0  0  0  0  0
    1.1624   -3.5207    3.4950 O   0  0  0  0  0  0  0  0  0  0  0  0
    0.0535   -5.4674    3.1781 O   0  0  0  0  0  0  0  0  0  0  0  0
    2.8381   -2.9435    1.0460 N   0  0  0  0  0  0  0  0  0  0  0  0
    3.8256   -2.6282    0.1039 C   0  0  0  0  0  0  0  0  0  0  0  0
    3.4417   -2.5275   -1.1118 O   0  0  0  0  0  0  0  0  0  0  0  0
    5.2849   -2.3935    0.3473 C   0  0  1  0  0  0  0  0  0  0  0  0
    5.9421   -3.6990    0.6223 C   0  0  0  0  0  0  0  0  0  0  0  0
    7.3632   -3.7487    0.9162 C   0  0  0  0  0  0  0  0  0  0  0  0
    7.8326   -3.5507    2.1998 C   0  0  0  0  0  0  0  0  0  0  0  0
    9.1782   -3.6293    2.5397 C   0  0  0  0  0  0  0  0  0  0  0  0
   10.0789   -3.9157    1.5317 C   0  0  0  0  0  0  0  0  0  0  0  0
    9.6588   -4.1143    0.2588 C   0  0  0  0  0  0  0  0  0  0  0  0
    8.2896   -4.0303   -0.0433 C   0  0  0  0  0  0  0  0  0  0  0  0
    5.7815   -1.6670   -0.8333 N   0  0  0  0  0  0  0  0  0  0  0  0
    6.4345   -0.4442   -0.7371 C   0  0  0  0  0  0  0  0  0  0  0  0
    6.6452   -0.0318    0.4741 O   0  0  0  0  0  0  0  0  0  0  0  0
    6.8991    0.4461   -1.7746 C   0  0  2  0  0  0  0  0  0  0  0  0
    7.2808    0.0247   -3.1064 C   0  0  0  0  0  0  0  0  0  0  0  0
    8.3666   -0.9055   -3.3391 C   0  0  0  0  0  0  0  0  0  0  0  0
    8.2030   -2.2560   -3.4546 C   0  0  0  0  0  0  0  0  0  0  0  0
    9.2531   -3.1159   -3.6991 C   0  0  0  0  0  0  0  0  0  0  0  0
   10.5237   -2.6494   -3.8389 C   0  0  0  0  0  0  0  0  0  0  0  0
   10.7167   -1.2693   -3.7252 C   0  0  0  0  0  0  0  0  0  0  0  0
    9.6903   -0.4144   -3.4841 C   0  0  0  0  0  0  0  0  0  0  0  0
    7.8846    1.3554   -1.2392 N   0  0  0  0  0  0  0  0  0  0  0  0
    7.7259    2.6630   -0.7884 C   0  0  0  0  0  0  0  0  0  0  0  0
    6.6185    3.2557   -0.8058 O   0  0  0  0  0  0  0  0  0  0  0  0
    8.7881    3.4055   -0.2807 O   0  0  0  0  0  0  0  0  0  0  0  0
    8.7137    4.7255    0.1970 C   0  0  0  0  0  0  0  0  0  0  0  0
   10.0632    5.1664    0.6823 C   0  0  0  0  0  0  0  0  0  0  0  0
   10.4452    4.9727    1.9975 C   0  0  0  0  0  0  0  0  0  0  0  0
   11.7034    5.3602    2.4363 C   0  0  0  0  0  0  0  0  0  0  0  0
   12.6026    5.9523    1.5565 C   0  0  0  0  0  0  0  0  0  0  0  0
   12.2250    6.1438    0.2595 C   0  0  0  0  0  0  0  0  0  0  0  0
   10.9678    5.7575   -0.1812 C   0  0  0  0  0  0  0  0  0  0  0  0
   -9.2154   -1.6575    0.8618 C   0  0  0  0  0  0  0  0  0  0  0  0
  -10.0998   -2.5259    1.5489 N   0  0  0  0  0  0  0  0  0  0  0  0
   -8.2506   -2.1485    0.2620 O   0  0  0  0  0  0  0  0  0  0  0  0
  -11.8101   -2.1904   -0.8871 H   0  0  0  0  0  0  0  0  0  0  0  0
  -11.8366   -1.2770   -2.3883 H   0  0  0  0  0  0  0  0  0  0  0  0
  -10.2556   -1.6344   -1.7323 H   0  0  0  0  0  0  0  0  0  0  0  0
  -10.8302    0.6940   -1.4140 H   0  0  0  0  0  0  0  0  0  0  0  0
  -13.4037   -0.0948   -0.0472 H   0  0  0  0  0  0  0  0  0  0  0  0
  -13.3137    0.1995   -1.8080 H   0  0  0  0  0  0  0  0  0  0  0  0
  -12.9270    1.5150   -0.5843 H   0  0  0  0  0  0  0  0  0  0  0  0
  -11.1498    1.1476    0.9782 H   0  0  0  0  0  0  0  0  0  0  0  0
  -11.5996   -0.5184    1.3196 H   0  0  0  0  0  0  0  0  0  0  0  0
   -9.3741    0.0269    2.0430 H   0  0  0  0  0  0  0  0  0  0  0  0
   -8.6879    0.7589   -0.7823 H   0  0  0  0  0  0  0  0  0  0  0  0
   -6.4317    2.0180   -0.8174 H   0  0  0  0  0  0  0  0  0  0  0  0
   -6.9784    3.8241    1.6046 H   0  0  0  0  0  0  0  0  0  0  0  0
   -6.1230    4.2825    0.1284 H   0  0  0  0  0  0  0  0  0  0  0  0
   -7.3721    4.5848   -1.9409 H   0  0  0  0  0  0  0  0  0  0  0  0
   -9.5909    5.2202   -2.9602 H   0  0  0  0  0  0  0  0  0  0  0  0
  -12.4373    4.2991   -2.2722 H   0  0  0  0  0  0  0  0  0  0  0  0
  -11.5435    4.1328    0.6293 H   0  0  0  0  0  0  0  0  0  0  0  0
   -9.3470    3.5024    1.6206 H   0  0  0  0  0  0  0  0  0  0  0  0
   -5.3670    1.7920    2.0006 H   0  0  0  0  0  0  0  0  0  0  0  0
   -3.0277    0.6825    1.6394 H   0  0  0  0  0  0  0  0  0  0  0  0
   -3.3791    3.2037    2.4236 H   0  0  0  0  0  0  0  0  0  0  0  0
   -1.9811    2.2592    2.9555 H   0  0  0  0  0  0  0  0  0  0  0  0
   -2.0440    4.5770    1.2105 H   0  0  0  0  0  0  0  0  0  0  0  0
   -0.6397    3.8341    1.9733 H   0  0  0  0  0  0  0  0  0  0  0  0
   -0.0806    2.9473   -0.0789 H   0  0  0  0  0  0  0  0  0  0  0  0
   -1.5972    3.4011   -0.8426 H   0  0  0  0  0  0  0  0  0  0  0  0
   -2.0018   -0.9319    1.1100 H   0  0  0  0  0  0  0  0  0  0  0  0
   -2.2128   -1.3418   -1.9440 H   0  0  0  0  0  0  0  0  0  0  0  0
   -3.4670   -0.5390   -1.0161 H   0  0  0  0  0  0  0  0  0  0  0  0
   -4.7179   -1.8369    0.7346 H   0  0  0  0  0  0  0  0  0  0  0  0
   -5.8653   -4.0300    1.0805 H   0  0  0  0  0  0  0  0  0  0  0  0
   -5.1145   -6.0168   -0.1760 H   0  0  0  0  0  0  0  0  0  0  0  0
   -3.2480   -5.7933   -1.7287 H   0  0  0  0  0  0  0  0  0  0  0  0
   -2.1328   -3.6820   -2.0851 H   0  0  0  0  0  0  0  0  0  0  0  0
   -0.5733   -2.5740   -0.8247 H   0  0  0  0  0  0  0  0  0  0  0  0
    1.4861   -3.3071   -0.4431 H   0  0  0  0  0  0  0  0  0  0  0  0
    1.6628   -5.2771    0.9063 H   0  0  0  0  0  0  0  0  0  0  0  0
   -0.0036   -4.7103    0.6330 H   0  0  0  0  0  0  0  0  0  0  0  0
    0.9006   -3.4887    4.4694 H   0  0  0  0  0  0  0  0  0  0  0  0
    3.1044   -3.0019    2.0495 H   0  0  0  0  0  0  0  0  0  0  0  0
    5.3811   -1.7186    1.1969 H   0  0  0  0  0  0  0  0  0  0  0  0
    5.7893   -4.4115   -0.2746 H   0  0  0  0  0  0  0  0  0  0  0  0
    5.3469   -4.2517    1.4216 H   0  0  0  0  0  0  0  0  0  0  0  0
    7.1500   -3.3253    3.0027 H   0  0  0  0  0  0  0  0  0  0  0  0
    9.5653   -3.4776    3.5365 H   0  0  0  0  0  0  0  0  0  0  0  0
   11.1394   -3.9841    1.7534 H   0  0  0  0  0  0  0  0  0  0  0  0
   10.3761   -4.3372   -0.5263 H   0  0  0  0  0  0  0  0  0  0  0  0
    8.0252   -4.2247   -1.0718 H   0  0  0  0  0  0  0  0  0  0  0  0
    5.6089   -2.1222   -1.7390 H   0  0  0  0  0  0  0  0  0  0  0  0
    5.9929    1.1998   -1.9331 H   0  0  0  0  0  0  0  0  0  0  0  0
    6.3769   -0.3682   -3.7021 H   0  0  0  0  0  0  0  0  0  0  0  0
    7.5140    0.9602   -3.7191 H   0  0  0  0  0  0  0  0  0  0  0  0
    7.2323   -2.7334   -3.3589 H   0  0  0  0  0  0  0  0  0  0  0  0
    9.0871   -4.1939   -3.7862 H   0  0  0  0  0  0  0  0  0  0  0  0
   11.3481   -3.3132   -4.0255 H   0  0  0  0  0  0  0  0  0  0  0  0
   11.7345   -0.9002   -3.8373 H   0  0  0  0  0  0  0  0  0  0  0  0
    9.8550    0.6457   -3.3979 H   0  0  0  0  0  0  0  0  0  0  0  0
    8.8758    0.9373   -1.1878 H   0  0  0  0  0  0  0  0  0  0  0  0
    7.9337    4.8580    0.9423 H   0  0  0  0  0  0  0  0  0  0  0  0
    8.4537    5.3827   -0.6692 H   0  0  0  0  0  0  0  0  0  0  0  0
    9.7353    4.4982    2.6731 H   0  0  0  0  0  0  0  0  0  0  0  0
   12.0304    5.2130    3.4548 H   0  0  0  0  0  0  0  0  0  0  0  0
   13.5773    6.2492    1.9245 H   0  0  0  0  0  0  0  0  0  0  0  0
   12.9378    6.6078   -0.4426 H   0  0  0  0  0  0  0  0  0  0  0  0
   10.6847    5.9237   -1.2209 H   0  0  0  0  0  0  0  0  0  0  0  0
  -10.4625   -3.3860    1.0957 H   0  0  0  0  0  0  0  0  0  0  0  0
  -10.3820   -2.2811    2.5185 H   0  0  0  0  0  0  0  0  0  0  0  0
  1  2  1  0
  2  3  1  0
  2  4  1  0
  4  5  1  0
  5  6  1  0
  6  7  1  0
  7  8  2  0
  7  9  1  0
  9 10  1  0
 10 11  1  0
 11 12  2  0
 12 13  1  0
 13 14  2  0
 14 15  1  0
 14 16  1  0
 16 17  2  0
  9 18  1  0
 18 19  1  0
 19 20  2  0
 19 21  1  0
 21 22  1  0
 22 23  1  0
 23 24  1  0
 24 25  1  0
 25 26  1  0
 26 27  2  0
 26 28  1  0
 28 29  1  0
 29 30  1  0
 30 31  2  0
 31 32  1  0
 32 33  2  0
 33 34  1  0
 34 35  2  0
 28 36  1  0
 36 37  1  0
 37 38  2  0
 37 39  1  0
 39 40  1  0
 40 41  1  0
 41 42  1  0
 41 43  2  0
 39 44  1  0
 44 45  1  0
 45 46  2  0
 45 47  1  0
 47 48  1  0
 48 49  1  0
 49 50  2  0
 50 51  1  0
 51 52  2  0
 52 53  1  0
 53 54  2  0
 47 55  1  0
 55 56  1  0
 56 57  2  0
 56 58  1  0
 58 59  1  0
 59 60  1  0
 60 61  2  0
 61 62  1  0
 62 63  2  0
 63 64  1  0
 64 65  2  0
 58 66  1  0
 66 67  1  0
 67 68  2  0
 67 69  1  0
 69 70  1  0
 70 71  1  0
 71 72  2  0
 72 73  1  0
 73 74  2  0
 74 75  1  0
 75 76  2  0
  5 77  1  0
 77 78  1  0
 77 79  2  0
 17 11  1  0
 25 21  1  0
 35 30  1  0
 54 49  1  0
 65 60  1  0
 76 71  1  0
  1 80  1  0
  1 81  1  0
  1 82  1  0
  2 83  1  0
  3 84  1  0
  3 85  1  0
  3 86  1  0
  4 87  1  0
  4 88  1  0
  5 89  1  1
  6 90  1  0
  9 91  1  6
 10 92  1  0
 10 93  1  0
 12 94  1  0
 13 95  1  0
 15 96  1  0
 16 97  1  0
 17 98  1  0
 18 99  1  0
 21100  1  1
 22101  1  0
 22102  1  0
 23103  1  0
 23104  1  0
 24105  1  0
 24106  1  0
 28107  1  1
 29108  1  0
 29109  1  0
 31110  1  0
 32111  1  0
 33112  1  0
 34113  1  0
 35114  1  0
 36115  1  0
 39116  1  6
 40117  1  0
 40118  1  0
 42119  1  0
 44120  1  0
 47121  1  1
 48122  1  0
 48123  1  0
 50124  1  0
 51125  1  0
 52126  1  0
 53127  1  0
 54128  1  0
 55129  1  0
 58130  1  6
 59131  1  0
 59132  1  0
 61133  1  0
 62134  1  0
 63135  1  0
 64136  1  0
 65137  1  0
 66138  1  0
 70139  1  0
 70140  1  0
 72141  1  0
 73142  1  0
 74143  1  0
 75144  1  0
 76145  1  0
 78146  1  0
 78147  1  0
M  END
$$$$
[H]c1nc(N([H])c2c([H])c([H])c(N3C([H])([H])C([H])([H])OC([H])([H])C3([H])[H])c([H])c2OC([H])([H])[H])nc(N([H])c2c([H])c([H])c([H])c([H])c2S(=O)(=O)C2([H])C([H])([H])C2([H])[H])c1Cl
     RDKit          3D

 61 65  0  0  0  0  0  0  0  0999 V2000
    2.9059    3.1560    1.6524 C   0  0  0  0  0  0  0  0  0  0  0  0
    2.1378    2.0814    1.1685 O   0  0  0  0  0  0  0  0  0  0  0  0
    2.7718    1.0002    0.5375 C   0  0  0  0  0  0  0  0  0  0  0  0
    4.1375    1.0259    0.4115 C   0  0  0  0  0  0  0  0  0  0  0  0
    4.8379    0.0096   -0.1923 C   0  0  0  0  0  0  0  0  0  0  0  0
    4.0917   -1.0383   -0.6649 C   0  0  0  0  0  0  0  0  0  0  0  0
    2.7098   -1.0859   -0.5486 C   0  0  0  0  0  0  0  0  0  0  0  0
    2.0285   -0.0757    0.0502 C   0  0  0  0  0  0  0  0  0  0  0  0
    0.6379   -0.0173    0.2240 N   0  0  0  0  0  0  0  0  0  0  0  0
   -0.3657   -0.9211   -0.1425 C   0  0  0  0  0  0  0  0  0  0  0  0
   -0.1601   -2.0800   -0.7675 N   0  0  0  0  0  0  0  0  0  0  0  0
   -1.1708   -2.9033   -1.0891 C   0  0  0  0  0  0  0  0  0  0  0  0
   -2.4600   -2.5875   -0.7884 C   0  0  0  0  0  0  0  0  0  0  0  0
   -3.7967   -3.6732   -1.2115 Cl  0  0  0  0  0  0  0  0  0  0  0  0
   -2.7170   -1.3673   -0.1261 C   0  0  0  0  0  0  0  0  0  0  0  0
   -4.0533   -1.0448    0.1684 N   0  0  0  0  0  0  0  0  0  0  0  0
   -4.5207    0.0839    0.8193 C   0  0  0  0  0  0  0  0  0  0  0  0
   -3.7036    1.0107    1.4568 C   0  0  0  0  0  0  0  0  0  0  0  0
   -4.2198    2.1145    2.1386 C   0  0  0  0  0  0  0  0  0  0  0  0
   -5.5863    2.2611    2.1622 C   0  0  0  0  0  0  0  0  0  0  0  0
   -6.4153    1.3566    1.5384 C   0  0  0  0  0  0  0  0  0  0  0  0
   -5.9151    0.2593    0.8591 C   0  0  0  0  0  0  0  0  0  0  0  0
   -6.9805   -0.8332    0.0622 S   0  0  0  0  0  0  0  0  0  0  0  0
   -8.4191   -0.3599    0.3398 O   0  0  0  0  0  0  0  0  0  0  0  0
   -6.9572   -2.2378    0.6265 O   0  0  0  0  0  0  0  0  0  0  0  0
   -6.8113   -0.9202   -1.6794 C   0  0  0  0  0  0  0  0  0  0  0  0
   -7.7226   -0.1601   -2.5760 C   0  0  0  0  0  0  0  0  0  0  0  0
   -7.9950   -1.6407   -2.3633 C   0  0  0  0  0  0  0  0  0  0  0  0
   -1.6396   -0.6362    0.1405 N   0  0  0  0  0  0  0  0  0  0  0  0
    6.2625    0.0390   -0.3218 N   0  0  0  0  0  0  0  0  0  0  0  0
    6.9631    1.1812    0.1958 C   0  0  0  0  0  0  0  0  0  0  0  0
    8.4081    1.2684   -0.1397 C   0  0  0  0  0  0  0  0  0  0  0  0
    8.8411    0.3843   -1.0936 O   0  0  0  0  0  0  0  0  0  0  0  0
    8.4577   -0.9119   -0.7220 C   0  0  0  0  0  0  0  0  0  0  0  0
    6.9810   -1.0361   -0.9479 C   0  0  0  0  0  0  0  0  0  0  0  0
    3.3970    3.7161    0.8086 H   0  0  0  0  0  0  0  0  0  0  0  0
    3.6980    2.8027    2.3576 H   0  0  0  0  0  0  0  0  0  0  0  0
    2.2546    3.8306    2.2304 H   0  0  0  0  0  0  0  0  0  0  0  0
    4.6928    1.8672    0.7956 H   0  0  0  0  0  0  0  0  0  0  0  0
    4.5748   -1.8702   -1.1501 H   0  0  0  0  0  0  0  0  0  0  0  0
    2.1723   -1.9435   -0.9434 H   0  0  0  0  0  0  0  0  0  0  0  0
    0.2627    0.8662    0.7217 H   0  0  0  0  0  0  0  0  0  0  0  0
   -0.9918   -3.8489   -1.6003 H   0  0  0  0  0  0  0  0  0  0  0  0
   -4.7657   -1.7719   -0.1393 H   0  0  0  0  0  0  0  0  0  0  0  0
   -2.6286    0.9306    1.4728 H   0  0  0  0  0  0  0  0  0  0  0  0
   -3.5519    2.8138    2.6218 H   0  0  0  0  0  0  0  0  0  0  0  0
   -5.9644    3.1354    2.7045 H   0  0  0  0  0  0  0  0  0  0  0  0
   -7.5005    1.5011    1.5755 H   0  0  0  0  0  0  0  0  0  0  0  0
   -5.8509   -1.2222   -2.0858 H   0  0  0  0  0  0  0  0  0  0  0  0
   -8.4552    0.5610   -2.1947 H   0  0  0  0  0  0  0  0  0  0  0  0
   -7.3274    0.0966   -3.5868 H   0  0  0  0  0  0  0  0  0  0  0  0
   -7.7628   -2.3246   -3.2074 H   0  0  0  0  0  0  0  0  0  0  0  0
   -8.8994   -1.8466   -1.7598 H   0  0  0  0  0  0  0  0  0  0  0  0
    6.4329    2.0802   -0.2444 H   0  0  0  0  0  0  0  0  0  0  0  0
    6.7544    1.2615    1.2856 H   0  0  0  0  0  0  0  0  0  0  0  0
    9.0472    1.1728    0.7688 H   0  0  0  0  0  0  0  0  0  0  0  0
    8.6470    2.2996   -0.5386 H   0  0  0  0  0  0  0  0  0  0  0  0
    9.0031   -1.6058   -1.4077 H   0  0  0  0  0  0  0  0  0  0  0  0
    8.7700   -1.1737    0.2997 H   0  0  0  0  0  0  0  0  0  0  0  0
    6.8074   -1.0050   -2.0638 H   0  0  0  0  0  0  0  0  0  0  0  0
    6.6216   -2.0244   -0.5850 H   0  0  0  0  0  0  0  0  0  0  0  0
  1  2  1  0
  2  3  1  0
  3  4  2  0
  4  5  1  0
  5  6  2  0
  6  7  1  0
  7  8  2  0
  8  9  1  0
  9 10  1  0
 10 11  2  0
 11 12  1  0
 12 13  2  0
 13 14  1  0
 13 15  1  0
 15 16  1  0
 16 17  1  0
 17 18  2  0
 18 19  1  0
 19 20  2  0
 20 21  1  0
 21 22  2  0
 22 23  1  0
 23 24  2  0
 23 25  2  0
 23 26  1  0
 26 27  1  0
 27 28  1  0
 15 29  2  0
  5 30  1  0
 30 31  1  0
 31 32  1  0
 32 33  1  0
 33 34  1  0
 34 35  1  0
  8  3  1  0
 29 10  1  0
 35 30  1  0
 22 17  1  0
 28 26  1  0
  1 36  1  0
  1 37  1  0
  1 38  1  0
  4 39  1  0
  6 40  1  0
  7 41  1  0
  9 42  1  0
 12 43  1  0
 16 44  1  0
 18 45  1  0
 19 46  1  0
 20 47  1  0
 21 48  1  0
 26 49  1  0
 27 50  1  0
 27 51  1  0
 28 52  1  0
 28 53  1  0
 31 54  1  0
 31 55  1  0
 32 56  1  0
 32 57  1  0
 34 58  1  0
 34 59  1  0
 35 60  1  0
 35 61  1  0
M  END
$$$$
[H]c1c([H])c(Cl)c(C(=O)N([H])[C@@]([H])(c2c([H])c([H])c(OC([H])([H])[H])c(OC([H])([H])[H])c2[H])C([H])([H])c2c([H])n([H])c3c([H])c([H])c([H])c([H])c23)c(Cl)c1[H]
     RDKit          3D

 54 57  0  0  0  0  0  0  0  0999 V2000
    5.6233    0.1131   -1.9233 C   0  0  0  0  0  0  0  0  0  0  0  0
    5.2903   -0.2188   -0.5941 O   0  0  0  0  0  0  0  0  0  0  0  0
    3.9757   -0.2051   -0.1284 C   0  0  0  0  0  0  0  0  0  0  0  0
    2.9148    0.1312   -0.9277 C   0  0  0  0  0  0  0  0  0  0  0  0
    1.6191    0.1336   -0.4276 C   0  0  0  0  0  0  0  0  0  0  0  0
    1.3372   -0.1973    0.8796 C   0  0  0  0  0  0  0  0  0  0  0  0
    2.4160   -0.5333    1.6706 C   0  0  0  0  0  0  0  0  0  0  0  0
    3.7110   -0.5412    1.1905 C   0  0  0  0  0  0  0  0  0  0  0  0
    4.8085   -0.8817    1.9896 O   0  0  0  0  0  0  0  0  0  0  0  0
    4.5310   -1.2247    3.3341 C   0  0  0  0  0  0  0  0  0  0  0  0
   -0.0639   -0.1797    1.3698 C   0  0  1  0  0  0  0  0  0  0  0  0
   -0.5326    1.1593    1.7928 C   0  0  0  0  0  0  0  0  0  0  0  0
   -0.5330    2.2260    0.7835 C   0  0  0  0  0  0  0  0  0  0  0  0
    0.5139    3.1384    0.5657 C   0  0  0  0  0  0  0  0  0  0  0  0
    0.1961    3.9432   -0.4565 N   0  0  0  0  0  0  0  0  0  0  0  0
   -1.0048    3.6186   -0.9317 C   0  0  0  0  0  0  0  0  0  0  0  0
   -1.7419    4.1668   -1.9554 C   0  0  0  0  0  0  0  0  0  0  0  0
   -2.9852    3.6185   -2.2103 C   0  0  0  0  0  0  0  0  0  0  0  0
   -3.4819    2.5665   -1.4795 C   0  0  0  0  0  0  0  0  0  0  0  0
   -2.7259    2.0397   -0.4658 C   0  0  0  0  0  0  0  0  0  0  0  0
   -1.4750    2.5439   -0.1639 C   0  0  0  0  0  0  0  0  0  0  0  0
   -0.9556   -0.8363    0.3987 N   0  0  0  0  0  0  0  0  0  0  0  0
   -1.7732   -1.9105    0.7683 C   0  0  0  0  0  0  0  0  0  0  0  0
   -1.6790   -2.2534    2.0129 O   0  0  0  0  0  0  0  0  0  0  0  0
   -2.6975   -2.6765   -0.0307 C   0  0  0  0  0  0  0  0  0  0  0  0
   -2.6942   -2.7272   -1.4041 C   0  0  0  0  0  0  0  0  0  0  0  0
   -1.4603   -1.9324   -2.3821 Cl  0  0  0  0  0  0  0  0  0  0  0  0
   -3.6546   -3.4528   -2.1175 C   0  0  0  0  0  0  0  0  0  0  0  0
   -4.6189   -4.1279   -1.4021 C   0  0  0  0  0  0  0  0  0  0  0  0
   -4.6300   -4.0847   -0.0273 C   0  0  0  0  0  0  0  0  0  0  0  0
   -3.6919   -3.3755    0.6572 C   0  0  0  0  0  0  0  0  0  0  0  0
   -3.7522   -3.3510    2.4298 Cl  0  0  0  0  0  0  0  0  0  0  0  0
    6.6227   -0.2716   -2.2110 H   0  0  0  0  0  0  0  0  0  0  0  0
    4.8994   -0.4506   -2.5797 H   0  0  0  0  0  0  0  0  0  0  0  0
    5.5148    1.1986   -2.0599 H   0  0  0  0  0  0  0  0  0  0  0  0
    3.1168    0.3939   -1.9566 H   0  0  0  0  0  0  0  0  0  0  0  0
    0.8434    0.4103   -1.1239 H   0  0  0  0  0  0  0  0  0  0  0  0
    2.2357   -0.8032    2.7173 H   0  0  0  0  0  0  0  0  0  0  0  0
    4.1272   -0.2951    3.8170 H   0  0  0  0  0  0  0  0  0  0  0  0
    5.4542   -1.5375    3.8766 H   0  0  0  0  0  0  0  0  0  0  0  0
    3.7515   -2.0021    3.3666 H   0  0  0  0  0  0  0  0  0  0  0  0
   -0.1293   -0.8363    2.2937 H   0  0  0  0  0  0  0  0  0  0  0  0
   -1.5819    1.0059    2.2081 H   0  0  0  0  0  0  0  0  0  0  0  0
    0.0197    1.4973    2.7266 H   0  0  0  0  0  0  0  0  0  0  0  0
    1.4230    3.1506    1.1614 H   0  0  0  0  0  0  0  0  0  0  0  0
    0.8042    4.7192   -0.8315 H   0  0  0  0  0  0  0  0  0  0  0  0
   -1.4087    4.9937   -2.5664 H   0  0  0  0  0  0  0  0  0  0  0  0
   -3.5827    4.0361   -3.0137 H   0  0  0  0  0  0  0  0  0  0  0  0
   -4.4696    2.1262   -1.6765 H   0  0  0  0  0  0  0  0  0  0  0  0
   -3.0940    1.2160    0.1367 H   0  0  0  0  0  0  0  0  0  0  0  0
   -0.9314   -0.4468   -0.5417 H   0  0  0  0  0  0  0  0  0  0  0  0
   -3.6350   -3.4786   -3.1981 H   0  0  0  0  0  0  0  0  0  0  0  0
   -5.3714   -4.6946   -1.9105 H   0  0  0  0  0  0  0  0  0  0  0  0
   -5.3938   -4.6200    0.5506 H   0  0  0  0  0  0  0  0  0  0  0  0
  1  2  1  0
  2  3  1  0
  3  4  2  0
  4  5  1  0
  5  6  2  0
  6  7  1  0
  7  8  2  0
  8  9  1  0
  9 10  1  0
  6 11  1  0
 11 12  1  0
 12 13  1  0
 13 14  2  0
 14 15  1  0
 15 16  1  0
 16 17  2  0
 17 18  1  0
 18 19  2  0
 19 20  1  0
 20 21  2  0
 11 22  1  0
 22 23  1  0
 23 24  2  0
 23 25  1  0
 25 26  2  0
 26 27  1  0
 26 28  1  0
 28 29  2  0
 29 30  1  0
 30 31  2  0
 31 32  1  0
  8  3  1  0
 21 13  1  0
 31 25  1  0
 21 16  1  0
  1 33  1  0
  1 34  1  0
  1 35  1  0
  4 36  1  0
  5 37  1  0
  7 38  1  0
 10 39  1  0
 10 40  1  0
 10 41  1  0
 11 42  1  1
 12 43  1  0
 12 44  1  0
 14 45  1  0
 15 46  1  0
 17 47  1  0
 18 48  1  0
 19 49  1  0
 20 50  1  0
 22 51  1  0
 28 52  1  0
 29 53  1  0
 30 54  1  0
M  END
$$$$
[H]c1nc(N([H])c2c([H])c([H])c(N3C([H])([H])C([H])([H])N(C([H])([H])[H])C([H])([H])C3([H])[H])c([H])c2[H])nc(C2([H])C([H])([H])C([H])([H])N(C(=O)C([H])(C([H])([H])[H])C([H])([H])[H])C([H])([H])C2([H])[H])c1C(F)(F)F
     RDKit          3D

 68 71  0  0  0  0  0  0  0  0999 V2000
   -7.2913    1.7406    0.6185 C   0  0  0  0  0  0  0  0  0  0  0  0
   -8.0497    0.5059    0.1411 C   0  0  0  0  0  0  0  0  0  0  0  0
   -8.7638    0.7393   -1.1648 C   0  0  0  0  0  0  0  0  0  0  0  0
   -7.2363   -0.7214    0.1728 C   0  0  0  0  0  0  0  0  0  0  0  0
   -7.6395   -1.7103    0.8828 O   0  0  0  0  0  0  0  0  0  0  0  0
   -6.0237   -0.8967   -0.5325 N   0  0  0  0  0  0  0  0  0  0  0  0
   -5.3926    0.0893   -1.3799 C   0  0  0  0  0  0  0  0  0  0  0  0
   -4.0185    0.4476   -0.8040 C   0  0  0  0  0  0  0  0  0  0  0  0
   -3.7794   -0.4108    0.4467 C   0  0  0  0  0  0  0  0  0  0  0  0
   -3.8846   -1.8423   -0.1721 C   0  0  0  0  0  0  0  0  0  0  0  0
   -5.3099   -2.1841   -0.4289 C   0  0  0  0  0  0  0  0  0  0  0  0
   -2.3700   -0.3312    0.8866 C   0  0  0  0  0  0  0  0  0  0  0  0
   -1.4122   -0.0218   -0.0416 N   0  0  0  0  0  0  0  0  0  0  0  0
   -0.0836    0.0097    0.2456 C   0  0  0  0  0  0  0  0  0  0  0  0
    0.8605    0.3207   -0.7659 N   0  0  0  0  0  0  0  0  0  0  0  0
    2.2364    0.4126   -0.6813 C   0  0  0  0  0  0  0  0  0  0  0  0
    2.9535    0.5086    0.4627 C   0  0  0  0  0  0  0  0  0  0  0  0
    4.3502    0.5754    0.4761 C   0  0  0  0  0  0  0  0  0  0  0  0
    5.0391    0.5440   -0.7070 C   0  0  0  0  0  0  0  0  0  0  0  0
    4.3423    0.4457   -1.9199 C   0  0  0  0  0  0  0  0  0  0  0  0
    2.9765    0.3838   -1.8673 C   0  0  0  0  0  0  0  0  0  0  0  0
    6.4557    0.6136   -0.6803 N   0  0  0  0  0  0  0  0  0  0  0  0
    7.3181    0.4929   -1.8256 C   0  0  0  0  0  0  0  0  0  0  0  0
    8.5739   -0.3079   -1.5541 C   0  0  0  0  0  0  0  0  0  0  0  0
    9.1789   -0.0190   -0.2919 N   0  0  0  0  0  0  0  0  0  0  0  0
    9.0961   -1.1292    0.6429 C   0  0  0  0  0  0  0  0  0  0  0  0
    8.5925    1.1356    0.3636 C   0  0  0  0  0  0  0  0  0  0  0  0
    7.1267    0.8297    0.6052 C   0  0  0  0  0  0  0  0  0  0  0  0
    0.2172   -0.2873    1.5153 N   0  0  0  0  0  0  0  0  0  0  0  0
   -0.6402   -0.5964    2.4784 C   0  0  0  0  0  0  0  0  0  0  0  0
   -2.0183   -0.6258    2.1730 C   0  0  0  0  0  0  0  0  0  0  0  0
   -2.9922   -0.8933    3.2170 C   0  0  0  0  0  0  0  0  0  0  0  0
   -3.8689    0.1952    3.4225 F   0  0  0  0  0  0  0  0  0  0  0  0
   -2.2800   -0.8714    4.4554 F   0  0  0  0  0  0  0  0  0  0  0  0
   -3.6220   -2.0835    3.2470 F   0  0  0  0  0  0  0  0  0  0  0  0
   -7.2060    2.5089   -0.2001 H   0  0  0  0  0  0  0  0  0  0  0  0
   -6.3286    1.4607    1.0628 H   0  0  0  0  0  0  0  0  0  0  0  0
   -7.8623    2.2906    1.4206 H   0  0  0  0  0  0  0  0  0  0  0  0
   -8.8789    0.3908    0.9080 H   0  0  0  0  0  0  0  0  0  0  0  0
   -8.9860    1.8459   -1.2065 H   0  0  0  0  0  0  0  0  0  0  0  0
   -9.7779    0.2428   -1.1115 H   0  0  0  0  0  0  0  0  0  0  0  0
   -8.2262    0.3820   -2.0519 H   0  0  0  0  0  0  0  0  0  0  0  0
   -5.9842    0.9828   -1.5740 H   0  0  0  0  0  0  0  0  0  0  0  0
   -5.2307   -0.4186   -2.3575 H   0  0  0  0  0  0  0  0  0  0  0  0
   -4.0801    1.5237   -0.5492 H   0  0  0  0  0  0  0  0  0  0  0  0
   -3.2287    0.1929   -1.5251 H   0  0  0  0  0  0  0  0  0  0  0  0
   -4.5477   -0.3575    1.1713 H   0  0  0  0  0  0  0  0  0  0  0  0
   -3.4258   -2.5219    0.5303 H   0  0  0  0  0  0  0  0  0  0  0  0
   -3.2896   -1.8279   -1.1292 H   0  0  0  0  0  0  0  0  0  0  0  0
   -5.3722   -2.6214   -1.4695 H   0  0  0  0  0  0  0  0  0  0  0  0
   -5.7741   -2.8626    0.2885 H   0  0  0  0  0  0  0  0  0  0  0  0
    0.3904    0.5087   -1.7212 H   0  0  0  0  0  0  0  0  0  0  0  0
    2.4791    0.5493    1.4204 H   0  0  0  0  0  0  0  0  0  0  0  0
    4.8786    0.6502    1.4005 H   0  0  0  0  0  0  0  0  0  0  0  0
    4.8752    0.4221   -2.8613 H   0  0  0  0  0  0  0  0  0  0  0  0
    2.4167    0.3057   -2.8077 H   0  0  0  0  0  0  0  0  0  0  0  0
    6.8542    0.0663   -2.7219 H   0  0  0  0  0  0  0  0  0  0  0  0
    7.6499    1.5196   -2.1025 H   0  0  0  0  0  0  0  0  0  0  0  0
    8.4093   -1.4002   -1.6435 H   0  0  0  0  0  0  0  0  0  0  0  0
    9.3078    0.0080   -2.3484 H   0  0  0  0  0  0  0  0  0  0  0  0
    8.2575   -1.7826    0.2840 H   0  0  0  0  0  0  0  0  0  0  0  0
    8.9092   -0.7634    1.6796 H   0  0  0  0  0  0  0  0  0  0  0  0
   10.0221   -1.7155    0.6339 H   0  0  0  0  0  0  0  0  0  0  0  0
    9.0957    1.2595    1.3321 H   0  0  0  0  0  0  0  0  0  0  0  0
    8.7190    2.0632   -0.2011 H   0  0  0  0  0  0  0  0  0  0  0  0
    7.0233   -0.1037    1.1787 H   0  0  0  0  0  0  0  0  0  0  0  0
    6.6406    1.6619    1.1426 H   0  0  0  0  0  0  0  0  0  0  0  0
   -0.3707   -0.8327    3.4929 H   0  0  0  0  0  0  0  0  0  0  0  0
  1  2  1  0
  2  3  1  0
  2  4  1  0
  4  5  2  0
  4  6  1  0
  6  7  1  0
  7  8  1  0
  8  9  1  0
  9 10  1  0
 10 11  1  0
  9 12  1  0
 12 13  2  0
 13 14  1  0
 14 15  1  0
 15 16  1  0
 16 17  2  0
 17 18  1  0
 18 19  2  0
 19 20  1  0
 20 21  2  0
 19 22  1  0
 22 23  1  0
 23 24  1  0
 24 25  1  0
 25 26  1  0
 25 27  1  0
 27 28  1  0
 14 29  2  0
 29 30  1  0
 30 31  2  0
 31 32  1  0
 32 33  1  0
 32 34  1  0
 32 35  1  0
 11  6  1  0
 31 12  1  0
 21 16  1  0
 28 22  1  0
  1 36  1  0
  1 37  1  0
  1 38  1  0
  2 39  1  0
  3 40  1  0
  3 41  1  0
  3 42  1  0
  7 43  1  0
  7 44  1  0
  8 45  1  0
  8 46  1  0
  9 47  1  0
 10 48  1  0
 10 49  1  0
 11 50  1  0
 11 51  1  0
 15 52  1  0
 17 53  1  0
 18 54  1  0
 20 55  1  0
 21 56  1  0
 23 57  1  0
 23 58  1  0
 24 59  1  0
 24 60  1  0
 26 61  1  0
 26 62  1  0
 26 63  1  0
 27 64  1  0
 27 65  1  0
 28 66  1  0
 28 67  1  0
 30 68  1  0
M  END
$$$$
[H]C([H])=C([H])C(=O)N1C([H])([H])C([H])([H])C([H])([H])[C@@]([H])(n2c([H])c(-c3c([H])c([H])c(Oc4c([H])c([H])c([H])c([H])c4[H])c([H])c3[H])c3c(N([H])[H])nc([H])nc32)C1([H])[H]
     RDKit          3D

 58 62  0  0  0  0  0  0  0  0999 V2000
    2.0021    3.0683   -0.5502 N   0  0  0  0  0  0  0  0  0  0  0  0
    0.5912    3.0303   -0.3929 C   0  0  0  0  0  0  0  0  0  0  0  0
   -0.1453    4.1552   -0.3381 N   0  0  0  0  0  0  0  0  0  0  0  0
   -1.4789    4.1697   -0.1685 C   0  0  0  0  0  0  0  0  0  0  0  0
   -2.1083    2.9879   -0.0471 N   0  0  0  0  0  0  0  0  0  0  0  0
   -1.4811    1.8102   -0.0864 C   0  0  0  0  0  0  0  0  0  0  0  0
   -1.9092    0.5243    0.0230 N   0  0  0  0  0  0  0  0  0  0  0  0
   -0.8382   -0.2552   -0.0821 C   0  0  0  0  0  0  0  0  0  0  0  0
    0.3146    0.5268   -0.2642 C   0  0  0  0  0  0  0  0  0  0  0  0
    1.6324   -0.0097   -0.4542 C   0  0  0  0  0  0  0  0  0  0  0  0
    2.4203    0.1525   -1.5672 C   0  0  0  0  0  0  0  0  0  0  0  0
    3.6784   -0.3937   -1.6458 C   0  0  0  0  0  0  0  0  0  0  0  0
    4.2043   -1.1261   -0.6160 C   0  0  0  0  0  0  0  0  0  0  0  0
    5.4796   -1.6932   -0.6674 O   0  0  0  0  0  0  0  0  0  0  0  0
    6.5608   -0.9495   -0.2102 C   0  0  0  0  0  0  0  0  0  0  0  0
    7.1975   -0.1546   -1.1549 C   0  0  0  0  0  0  0  0  0  0  0  0
    8.2750    0.5950   -0.7275 C   0  0  0  0  0  0  0  0  0  0  0  0
    8.7317    0.5832    0.5742 C   0  0  0  0  0  0  0  0  0  0  0  0
    8.0784   -0.2172    1.4919 C   0  0  0  0  0  0  0  0  0  0  0  0
    6.9896   -0.9840    1.0921 C   0  0  0  0  0  0  0  0  0  0  0  0
    3.4316   -1.3026    0.5112 C   0  0  0  0  0  0  0  0  0  0  0  0
    2.1753   -0.7583    0.5923 C   0  0  0  0  0  0  0  0  0  0  0  0
   -0.0932    1.8168   -0.2645 C   0  0  0  0  0  0  0  0  0  0  0  0
   -3.2674    0.1106    0.2154 C   0  0  2  0  0  0  0  0  0  0  0  0
   -3.3743   -0.7049    1.5168 C   0  0  0  0  0  0  0  0  0  0  0  0
   -4.8056   -0.6762    1.8982 C   0  0  0  0  0  0  0  0  0  0  0  0
   -5.7326   -0.9973    0.7774 C   0  0  0  0  0  0  0  0  0  0  0  0
   -5.2038   -1.0945   -0.5294 N   0  0  0  0  0  0  0  0  0  0  0  0
   -3.7855   -0.7868   -0.8503 C   0  0  0  0  0  0  0  0  0  0  0  0
   -5.9741   -1.4912   -1.6369 C   0  0  0  0  0  0  0  0  0  0  0  0
   -5.3658   -1.5424   -2.8030 O   0  0  0  0  0  0  0  0  0  0  0  0
   -7.3572   -1.8657   -1.7333 C   0  0  0  0  0  0  0  0  0  0  0  0
   -8.2917   -1.9472   -0.8380 C   0  0  0  0  0  0  0  0  0  0  0  0
    2.6874    2.8010    0.1889 H   0  0  0  0  0  0  0  0  0  0  0  0
    2.3976    3.3833   -1.4627 H   0  0  0  0  0  0  0  0  0  0  0  0
   -2.0193    5.1279   -0.1331 H   0  0  0  0  0  0  0  0  0  0  0  0
   -0.8013   -1.3499   -0.0403 H   0  0  0  0  0  0  0  0  0  0  0  0
    2.0375    0.7160   -2.4059 H   0  0  0  0  0  0  0  0  0  0  0  0
    4.2902   -0.2501   -2.5465 H   0  0  0  0  0  0  0  0  0  0  0  0
    6.8714   -0.1158   -2.1877 H   0  0  0  0  0  0  0  0  0  0  0  0
    8.8129    1.2406   -1.4373 H   0  0  0  0  0  0  0  0  0  0  0  0
    9.5968    1.2032    0.8557 H   0  0  0  0  0  0  0  0  0  0  0  0
    8.4122   -0.2493    2.5233 H   0  0  0  0  0  0  0  0  0  0  0  0
    6.4822   -1.6107    1.8218 H   0  0  0  0  0  0  0  0  0  0  0  0
    3.8291   -1.8895    1.3590 H   0  0  0  0  0  0  0  0  0  0  0  0
    1.5953   -0.9220    1.5043 H   0  0  0  0  0  0  0  0  0  0  0  0
   -3.9711    0.9603    0.3250 H   0  0  0  0  0  0  0  0  0  0  0  0
   -2.6907   -0.2399    2.2247 H   0  0  0  0  0  0  0  0  0  0  0  0
   -3.0851   -1.7533    1.2572 H   0  0  0  0  0  0  0  0  0  0  0  0
   -5.0436    0.3719    2.2561 H   0  0  0  0  0  0  0  0  0  0  0  0
   -4.9691   -1.3048    2.8014 H   0  0  0  0  0  0  0  0  0  0  0  0
   -6.6185   -0.2938    0.8083 H   0  0  0  0  0  0  0  0  0  0  0  0
   -6.1476   -2.0219    1.0318 H   0  0  0  0  0  0  0  0  0  0  0  0
   -3.6786   -0.4266   -1.8729 H   0  0  0  0  0  0  0  0  0  0  0  0
   -3.2774   -1.7912   -0.8056 H   0  0  0  0  0  0  0  0  0  0  0  0
   -7.7311   -2.1471   -2.7690 H   0  0  0  0  0  0  0  0  0  0  0  0
   -8.2287   -1.7481    0.1868 H   0  0  0  0  0  0  0  0  0  0  0  0
   -9.3011   -2.2706   -1.1891 H   0  0  0  0  0  0  0  0  0  0  0  0
  1  2  1  0
  2  3  2  0
  3  4  1  0
  4  5  2  0
  5  6  1  0
  6  7  1  0
  7  8  1  0
  8  9  2  0
  9 10  1  0
 10 11  2  0
 11 12  1  0
 12 13  2  0
 13 14  1  0
 14 15  1  0
 15 16  2  0
 16 17  1  0
 17 18  2  0
 18 19  1  0
 19 20  2  0
 13 21  1  0
 21 22  2  0
  9 23  1  0
  7 24  1  0
 24 25  1  0
 25 26  1  0
 26 27  1  0
 27 28  1  0
 28 29  1  0
 28 30  1  0
 30 31  2  0
 30 32  1  0
 32 33  2  3
 23  2  1  0
 29 24  1  0
 23  6  2  0
 22 10  1  0
 20 15  1  0
  1 34  1  0
  1 35  1  0
  4 36  1  0
  8 37  1  0
 11 38  1  0
 12 39  1  0
 16 40  1  0
 17 41  1  0
 18 42  1  0
 19 43  1  0
 20 44  1  0
 21 45  1  0
 22 46  1  0
 24 47  1  1
 25 48  1  0
 25 49  1  0
 26 50  1  0
 26 51  1  0
 27 52  1  0
 27 53  1  0
 29 54  1  0
 29 55  1  0
 32 56  1  0
 33 57  1  0
 33 58  1  0
M  END
$$$$
[H]Oc1c([H])c([H])c(C([H])([H])[C@]([H])(C(=O)N2C([H])([H])C([H])([H])C([H])([H])[C@@]2([H])C(=O)N([H])[C@]([H])(C([H])([H])[H])C(C([H])([H])[H])(C([H])([H])[H])C([H])([H])[H])N([H])C(=O)[C@@]2([H])N(C(=O)[C@@]([H])(N([H])[H])C([H])([H])c3c([H])c([H])c(C(F)(F)F)c([H])c3[H])C([H])([H])C([H])([H])C2([H])[H])c([H])c1[H]
     RDKit          3D

 94 97  0  0  0  0  0  0  0  0999 V2000
   -6.8400   -0.0487    2.2215 C   0  0  0  0  0  0  0  0  0  0  0  0
   -6.7022   -0.7599    0.8663 C   0  0  1  0  0  0  0  0  0  0  0  0
   -5.6043   -0.2397    0.0994 N   0  0  0  0  0  0  0  0  0  0  0  0
   -5.8558    0.7824   -0.8151 C   0  0  0  0  0  0  0  0  0  0  0  0
   -7.0808    1.2240   -0.9355 O   0  0  0  0  0  0  0  0  0  0  0  0
   -4.9252    1.4809   -1.7088 C   0  0  2  0  0  0  0  0  0  0  0  0
   -5.4769    1.4237   -3.1049 C   0  0  0  0  0  0  0  0  0  0  0  0
   -4.7877    0.2628   -3.7421 C   0  0  0  0  0  0  0  0  0  0  0  0
   -3.5121    0.1024   -2.9777 C   0  0  0  0  0  0  0  0  0  0  0  0
   -3.5972    0.9973   -1.8213 N   0  0  0  0  0  0  0  0  0  0  0  0
   -2.4557    1.2144   -0.9824 C   0  0  0  0  0  0  0  0  0  0  0  0
   -2.6722    1.8335    0.0889 O   0  0  0  0  0  0  0  0  0  0  0  0
   -1.0995    0.7718   -1.3064 C   0  0  1  0  0  0  0  0  0  0  0  0
   -0.4083    1.8035   -2.2220 C   0  0  0  0  0  0  0  0  0  0  0  0
   -0.2902    3.1153   -1.6219 C   0  0  0  0  0  0  0  0  0  0  0  0
    0.8443    3.4388   -0.9117 C   0  0  0  0  0  0  0  0  0  0  0  0
    1.0318    4.6451   -0.2983 C   0  0  0  0  0  0  0  0  0  0  0  0
    0.0410    5.6013   -0.3878 C   0  0  0  0  0  0  0  0  0  0  0  0
    0.2104    6.8536    0.2405 O   0  0  0  0  0  0  0  0  0  0  0  0
   -1.1189    5.3193   -1.0949 C   0  0  0  0  0  0  0  0  0  0  0  0
   -1.2599    4.0904   -1.6925 C   0  0  0  0  0  0  0  0  0  0  0  0
   -0.2504    0.5583   -0.1552 N   0  0  0  0  0  0  0  0  0  0  0  0
    0.7854   -0.4062   -0.0732 C   0  0  0  0  0  0  0  0  0  0  0  0
    0.9493   -1.1094   -1.0811 O   0  0  0  0  0  0  0  0  0  0  0  0
    1.5875   -0.5259    1.1264 C   0  0  2  0  0  0  0  0  0  0  0  0
    1.8187    0.8483    1.7574 C   0  0  0  0  0  0  0  0  0  0  0  0
    2.7279    0.4428    2.8967 C   0  0  0  0  0  0  0  0  0  0  0  0
    3.5238   -0.7131    2.3750 C   0  0  0  0  0  0  0  0  0  0  0  0
    2.8990   -1.0717    1.0643 N   0  0  0  0  0  0  0  0  0  0  0  0
    3.6427   -1.8624    0.1373 C   0  0  0  0  0  0  0  0  0  0  0  0
    3.1904   -2.3761   -0.8860 O   0  0  0  0  0  0  0  0  0  0  0  0
    5.1170   -2.1229    0.3696 C   0  0  1  0  0  0  0  0  0  0  0  0
    5.4747   -3.2921   -0.4326 N   0  0  0  0  0  0  0  0  0  0  0  0
    5.9106   -0.9309   -0.1461 C   0  0  0  0  0  0  0  0  0  0  0  0
    7.3519   -1.1495    0.0829 C   0  0  0  0  0  0  0  0  0  0  0  0
    7.8987   -0.6713    1.2718 C   0  0  0  0  0  0  0  0  0  0  0  0
    9.2396   -0.8352    1.5455 C   0  0  0  0  0  0  0  0  0  0  0  0
   10.0877   -1.4691    0.6724 C   0  0  0  0  0  0  0  0  0  0  0  0
    9.5650   -1.9470   -0.5061 C   0  0  0  0  0  0  0  0  0  0  0  0
    8.2110   -1.7844   -0.7889 C   0  0  0  0  0  0  0  0  0  0  0  0
   11.5294   -1.5966    1.0300 C   0  0  0  0  0  0  0  0  0  0  0  0
   11.6556   -2.2548    2.2419 F   0  0  0  0  0  0  0  0  0  0  0  0
   12.0062   -0.2968    1.2655 F   0  0  0  0  0  0  0  0  0  0  0  0
   12.2633   -2.1993    0.0330 F   0  0  0  0  0  0  0  0  0  0  0  0
   -6.7082   -2.2293    1.1009 C   0  0  0  0  0  0  0  0  0  0  0  0
   -5.5664   -2.6111    2.0155 C   0  0  0  0  0  0  0  0  0  0  0  0
   -8.0575   -2.5776    1.7315 C   0  0  0  0  0  0  0  0  0  0  0  0
   -6.6276   -3.0115   -0.2099 C   0  0  0  0  0  0  0  0  0  0  0  0
   -7.4614   -0.6488    2.9214 H   0  0  0  0  0  0  0  0  0  0  0  0
   -7.3759    0.9303    2.1047 H   0  0  0  0  0  0  0  0  0  0  0  0
   -5.8614    0.1133    2.7137 H   0  0  0  0  0  0  0  0  0  0  0  0
   -7.6545   -0.4649    0.3068 H   0  0  0  0  0  0  0  0  0  0  0  0
   -4.6403   -0.6063    0.2119 H   0  0  0  0  0  0  0  0  0  0  0  0
   -4.9353    2.5601   -1.3308 H   0  0  0  0  0  0  0  0  0  0  0  0
   -6.5636    1.1587   -3.0481 H   0  0  0  0  0  0  0  0  0  0  0  0
   -5.3130    2.3459   -3.6868 H   0  0  0  0  0  0  0  0  0  0  0  0
   -5.3980   -0.6753   -3.6960 H   0  0  0  0  0  0  0  0  0  0  0  0
   -4.6050    0.4779   -4.8255 H   0  0  0  0  0  0  0  0  0  0  0  0
   -2.6687    0.3511   -3.6387 H   0  0  0  0  0  0  0  0  0  0  0  0
   -3.3556   -0.9516   -2.6356 H   0  0  0  0  0  0  0  0  0  0  0  0
   -1.1205   -0.1304   -1.8947 H   0  0  0  0  0  0  0  0  0  0  0  0
   -0.9644    1.8238   -3.1544 H   0  0  0  0  0  0  0  0  0  0  0  0
    0.5906    1.3604   -2.4259 H   0  0  0  0  0  0  0  0  0  0  0  0
    1.6689    2.7210   -0.8104 H   0  0  0  0  0  0  0  0  0  0  0  0
    1.9490    4.8800    0.2662 H   0  0  0  0  0  0  0  0  0  0  0  0
    0.6356    7.6269   -0.2430 H   0  0  0  0  0  0  0  0  0  0  0  0
   -1.9303    6.0676   -1.1909 H   0  0  0  0  0  0  0  0  0  0  0  0
   -2.1646    3.9177   -2.2262 H   0  0  0  0  0  0  0  0  0  0  0  0
   -0.4271    1.1678    0.6622 H   0  0  0  0  0  0  0  0  0  0  0  0
    1.0474   -1.1003    1.9327 H   0  0  0  0  0  0  0  0  0  0  0  0
    0.8941    1.3161    2.1204 H   0  0  0  0  0  0  0  0  0  0  0  0
    2.4184    1.4268    1.0526 H   0  0  0  0  0  0  0  0  0  0  0  0
    2.1482    0.0594    3.7773 H   0  0  0  0  0  0  0  0  0  0  0  0
    3.3792    1.2804    3.2403 H   0  0  0  0  0  0  0  0  0  0  0  0
    4.5575   -0.3994    2.2221 H   0  0  0  0  0  0  0  0  0  0  0  0
    3.5341   -1.6030    3.0443 H   0  0  0  0  0  0  0  0  0  0  0  0
    5.3541   -2.2919    1.4069 H   0  0  0  0  0  0  0  0  0  0  0  0
    5.4665   -4.1710    0.1462 H   0  0  0  0  0  0  0  0  0  0  0  0
    4.9538   -3.3616   -1.3191 H   0  0  0  0  0  0  0  0  0  0  0  0
    5.5622    0.0410    0.2243 H   0  0  0  0  0  0  0  0  0  0  0  0
    5.7791   -0.9240   -1.2772 H   0  0  0  0  0  0  0  0  0  0  0  0
    7.2443   -0.1704    1.9729 H   0  0  0  0  0  0  0  0  0  0  0  0
    9.6362   -0.4506    2.4864 H   0  0  0  0  0  0  0  0  0  0  0  0
   10.2576   -2.4428   -1.1807 H   0  0  0  0  0  0  0  0  0  0  0  0
    7.8080   -2.1586   -1.7131 H   0  0  0  0  0  0  0  0  0  0  0  0
   -4.9352   -3.3746    1.5443 H   0  0  0  0  0  0  0  0  0  0  0  0
   -5.0183   -1.7040    2.3625 H   0  0  0  0  0  0  0  0  0  0  0  0
   -6.0141   -3.0750    2.9344 H   0  0  0  0  0  0  0  0  0  0  0  0
   -7.9228   -2.7120    2.8266 H   0  0  0  0  0  0  0  0  0  0  0  0
   -8.7879   -1.7484    1.5945 H   0  0  0  0  0  0  0  0  0  0  0  0
   -8.4702   -3.5143    1.3316 H   0  0  0  0  0  0  0  0  0  0  0  0
   -7.5979   -2.8675   -0.7272 H   0  0  0  0  0  0  0  0  0  0  0  0
   -6.6089   -4.0879    0.0954 H   0  0  0  0  0  0  0  0  0  0  0  0
   -5.7558   -2.7092   -0.8099 H   0  0  0  0  0  0  0  0  0  0  0  0
  1  2  1  0
  2  3  1  0
  3  4  1  0
  4  5  2  0
  4  6  1  0
  6  7  1  0
  7  8  1  0
  8  9  1  0
  9 10  1  0
 10 11  1  0
 11 12  2  0
 11 13  1  0
 13 14  1  0
 14 15  1  0
 15 16  2  0
 16 17  1  0
 17 18  2  0
 18 19  1  0
 18 20  1  0
 20 21  2  0
 13 22  1  0
 22 23  1  0
 23 24  2  0
 23 25  1  0
 25 26  1  0
 26 27  1  0
 27 28  1  0
 28 29  1  0
 29 30  1  0
 30 31  2  0
 30 32  1  0
 32 33  1  0
 32 34  1  0
 34 35  1  0
 35 36  2  0
 36 37  1  0
 37 38  2  0
 38 39  1  0
 39 40  2  0
 38 41  1  0
 41 42  1  0
 41 43  1  0
 41 44  1  0
  2 45  1  0
 45 46  1  0
 45 47  1  0
 45 48  1  0
 10  6  1  0
 21 15  1  0
 29 25  1  0
 40 35  1  0
  1 49  1  0
  1 50  1  0
  1 51  1  0
  2 52  1  6
  3 53  1  0
  6 54  1  1
  7 55  1  0
  7 56  1  0
  8 57  1  0
  8 58  1  0
  9 59  1  0
  9 60  1  0
 13 61  1  6
 14 62  1  0
 14 63  1  0
 16 64  1  0
 17 65  1  0
 19 66  1  0
 20 67  1  0
 21 68  1  0
 22 69  1  0
 25 70  1  1
 26 71  1  0
 26 72  1  0
 27 73  1  0
 27 74  1  0
 28 75  1  0
 28 76  1  0
 32 77  1  1
 33 78  1  0
 33 79  1  0
 34 80  1  0
 34 81  1  0
 36 82  1  0
 37 83  1  0
 39 84  1  0
 40 85  1  0
 46 86  1  0
 46 87  1  0
 46 88  1  0
 47 89  1  0
 47 90  1  0
 47 91  1  0
 48 92  1  0
 48 93  1  0
 48 94  1  0
M  END
$$$$
[H]c1c([H])c(C(=O)N2C([H])([H])C([H])([H])N(S(=O)(=O)c3c([H])c([H])c(C#N)c([H])c3[H])C([H])([H])[C@@]2([H])C([H])([H])[H])c([H])c([H])c1F
     RDKit          3D

 45 47  0  0  0  0  0  0  0  0999 V2000
   -1.0233   -2.1569   -0.6262 C   0  0  0  0  0  0  0  0  0  0  0  0
   -0.4892   -0.7955   -0.7648 C   0  0  2  0  0  0  0  0  0  0  0  0
    0.2068   -0.1908    0.4332 C   0  0  0  0  0  0  0  0  0  0  0  0
    0.5874    1.1502    0.0352 N   0  0  0  0  0  0  0  0  0  0  0  0
    0.8243    1.2971   -1.3837 C   0  0  0  0  0  0  0  0  0  0  0  0
   -0.4256    1.1137   -2.2264 C   0  0  0  0  0  0  0  0  0  0  0  0
   -1.2979    0.2221   -1.3403 N   0  0  0  0  0  0  0  0  0  0  0  0
   -2.6119    0.6196   -1.2447 C   0  0  0  0  0  0  0  0  0  0  0  0
   -2.9298    1.6007   -2.0770 O   0  0  0  0  0  0  0  0  0  0  0  0
   -3.7256    0.2070   -0.4419 C   0  0  0  0  0  0  0  0  0  0  0  0
   -5.0309    0.5706   -0.8323 C   0  0  0  0  0  0  0  0  0  0  0  0
   -6.1580    0.2897   -0.1097 C   0  0  0  0  0  0  0  0  0  0  0  0
   -6.0553   -0.3863    1.0741 C   0  0  0  0  0  0  0  0  0  0  0  0
   -7.1598   -0.6676    1.7917 F   0  0  0  0  0  0  0  0  0  0  0  0
   -4.8127   -0.7645    1.5047 C   0  0  0  0  0  0  0  0  0  0  0  0
   -3.6629   -0.4687    0.7532 C   0  0  0  0  0  0  0  0  0  0  0  0
    1.8438    1.7989    0.9810 S   0  0  0  0  0  0  0  0  0  0  0  0
    1.4517    1.8627    2.4225 O   0  0  0  0  0  0  0  0  0  0  0  0
    2.2082    3.1754    0.5356 O   0  0  0  0  0  0  0  0  0  0  0  0
    3.2759    0.7939    0.7971 C   0  0  0  0  0  0  0  0  0  0  0  0
    3.5163   -0.2698    1.6417 C   0  0  0  0  0  0  0  0  0  0  0  0
    4.6399   -1.0688    1.5075 C   0  0  0  0  0  0  0  0  0  0  0  0
    5.5700   -0.8300    0.5160 C   0  0  0  0  0  0  0  0  0  0  0  0
    5.3225    0.2377   -0.3268 C   0  0  0  0  0  0  0  0  0  0  0  0
    4.2038    1.0356   -0.1956 C   0  0  0  0  0  0  0  0  0  0  0  0
    6.7375   -1.6577    0.3741 C   0  0  0  0  0  0  0  0  0  0  0  0
    7.6820   -2.3150    0.2452 N   0  0  0  0  0  0  0  0  0  0  0  0
   -0.3370   -2.9016   -1.0531 H   0  0  0  0  0  0  0  0  0  0  0  0
   -1.2548   -2.4649    0.4166 H   0  0  0  0  0  0  0  0  0  0  0  0
   -1.9668   -2.2361   -1.2115 H   0  0  0  0  0  0  0  0  0  0  0  0
    0.3909   -0.9231   -1.5244 H   0  0  0  0  0  0  0  0  0  0  0  0
    1.0924   -0.7993    0.6486 H   0  0  0  0  0  0  0  0  0  0  0  0
   -0.4296   -0.1926    1.3292 H   0  0  0  0  0  0  0  0  0  0  0  0
    1.1546    2.3454   -1.5356 H   0  0  0  0  0  0  0  0  0  0  0  0
    1.6631    0.6583   -1.7358 H   0  0  0  0  0  0  0  0  0  0  0  0
   -0.1531    0.5021   -3.0975 H   0  0  0  0  0  0  0  0  0  0  0  0
   -0.9168    2.0497   -2.4199 H   0  0  0  0  0  0  0  0  0  0  0  0
   -5.1261    1.0979   -1.7635 H   0  0  0  0  0  0  0  0  0  0  0  0
   -7.1261    0.6186   -0.5046 H   0  0  0  0  0  0  0  0  0  0  0  0
   -4.7068   -1.3001    2.4378 H   0  0  0  0  0  0  0  0  0  0  0  0
   -2.7256   -0.7535    1.1664 H   0  0  0  0  0  0  0  0  0  0  0  0
    2.8035   -0.4747    2.4229 H   0  0  0  0  0  0  0  0  0  0  0  0
    4.8392   -1.9124    2.1702 H   0  0  0  0  0  0  0  0  0  0  0  0
    6.0703    0.4172   -1.1117 H   0  0  0  0  0  0  0  0  0  0  0  0
    4.0414    1.8656   -0.8750 H   0  0  0  0  0  0  0  0  0  0  0  0
  1  2  1  0
  2  3  1  0
  3  4  1  0
  4  5  1  0
  5  6  1  0
  6  7  1  0
  7  8  1  0
  8  9  2  0
  8 10  1  0
 10 11  2  0
 11 12  1  0
 12 13  2  0
 13 14  1  0
 13 15  1  0
 15 16  2  0
  4 17  1  0
 17 18  2  0
 17 19  2  0
 17 20  1  0
 20 21  2  0
 21 22  1  0
 22 23  2  0
 23 24  1  0
 24 25  2  0
 23 26  1  0
 26 27  3  0
  7  2  1  0
 16 10  1  0
 25 20  1  0
  1 28  1  0
  1 29  1  0
  1 30  1  0
  2 31  1  6
  3 32  1  0
  3 33  1  0
  5 34  1  0
  5 35  1  0
  6 36  1  0
  6 37  1  0
 11 38  1  0
 12 39  1  0
 15 40  1  0
 16 41  1  0
 21 42  1  0
 22 43  1  0
 24 44  1  0
 25 45  1  0
M  END
$$$$
[H]N=C(N([H])[H])N([H])C([H])([H])C([H])([H])C([H])([H])[C@@]([H])(C(=O)N([H])[C@]([H])(C(=O)N([H])[H])C([H])([H])c1c([H])c([H])c([H])c([H])c1[H])N([H])C(=O)[C@@]([H])(N([H])C(=O)[C@@]([H])(N([H])C(=O)C([H])(C([H])([H])[H])C([H])([H])[H])C([H])([H])c1c([H])c([H])c([H])c([H])c1[H])C([H])([H])c1c([H])c([H])c([H])c([H])c1[H]
     RDKit          3D

 98100  0  0  0  0  0  0  0  0999 V2000
   -6.0140    4.1617   -0.4203 C   0  0  0  0  0  0  0  0  0  0  0  0
   -4.6459    3.9480    0.1717 C   0  0  0  0  0  0  0  0  0  0  0  0
   -4.2611    5.0705    1.1032 C   0  0  0  0  0  0  0  0  0  0  0  0
   -4.4803    2.6665    0.8632 C   0  0  0  0  0  0  0  0  0  0  0  0
   -4.2032    2.6629    2.0897 O   0  0  0  0  0  0  0  0  0  0  0  0
   -4.6153    1.4050    0.2199 N   0  0  0  0  0  0  0  0  0  0  0  0
   -4.4544    0.1218    0.8700 C   0  0  1  0  0  0  0  0  0  0  0  0
   -5.6562   -0.6943    1.0107 C   0  0  0  0  0  0  0  0  0  0  0  0
   -6.4194   -1.1079   -0.1406 C   0  0  0  0  0  0  0  0  0  0  0  0
   -6.3047   -2.2435   -0.8879 C   0  0  0  0  0  0  0  0  0  0  0  0
   -7.0979   -2.5367   -1.9673 C   0  0  0  0  0  0  0  0  0  0  0  0
   -8.0906   -1.6480   -2.3551 C   0  0  0  0  0  0  0  0  0  0  0  0
   -8.2333   -0.4975   -1.6271 C   0  0  0  0  0  0  0  0  0  0  0  0
   -7.4309   -0.2205   -0.5503 C   0  0  0  0  0  0  0  0  0  0  0  0
   -3.1651   -0.5281    0.5711 C   0  0  0  0  0  0  0  0  0  0  0  0
   -2.3859    0.1735   -0.1608 O   0  0  0  0  0  0  0  0  0  0  0  0
   -2.7316   -1.7805    1.0005 N   0  0  0  0  0  0  0  0  0  0  0  0
   -1.4824   -2.4357    0.7856 C   0  0  1  0  0  0  0  0  0  0  0  0
   -1.3237   -3.2120   -0.4548 C   0  0  0  0  0  0  0  0  0  0  0  0
   -1.4871   -2.5553   -1.7495 C   0  0  0  0  0  0  0  0  0  0  0  0
   -0.4305   -1.9251   -2.3564 C   0  0  0  0  0  0  0  0  0  0  0  0
   -0.5812   -1.3385   -3.5888 C   0  0  0  0  0  0  0  0  0  0  0  0
   -1.7785   -1.3508   -4.2702 C   0  0  0  0  0  0  0  0  0  0  0  0
   -2.8287   -1.9867   -3.6492 C   0  0  0  0  0  0  0  0  0  0  0  0
   -2.7177   -2.5832   -2.4210 C   0  0  0  0  0  0  0  0  0  0  0  0
   -0.3608   -1.6155    1.2474 C   0  0  0  0  0  0  0  0  0  0  0  0
   -0.6388   -0.5136    1.8226 O   0  0  0  0  0  0  0  0  0  0  0  0
    1.0268   -1.8910    1.1471 N   0  0  0  0  0  0  0  0  0  0  0  0
    1.9865   -0.9807    1.6866 C   0  0  1  0  0  0  0  0  0  0  0  0
    2.7376   -1.5021    2.8565 C   0  0  0  0  0  0  0  0  0  0  0  0
    3.5401   -2.7271    2.7039 C   0  0  0  0  0  0  0  0  0  0  0  0
    4.6628   -2.6862    1.7308 C   0  0  0  0  0  0  0  0  0  0  0  0
    5.3194   -3.9846    1.7424 N   0  0  0  0  0  0  0  0  0  0  0  0
    6.0410   -4.4174    2.8710 C   0  0  0  0  0  0  0  0  0  0  0  0
    7.3859   -4.0228    3.1387 N   0  0  0  0  0  0  0  0  0  0  0  0
    5.4992   -5.2170    3.7401 N   0  0  0  0  0  0  0  0  0  0  0  0
    2.7897   -0.2919    0.6641 C   0  0  0  0  0  0  0  0  0  0  0  0
    2.6404   -0.5643   -0.5332 O   0  0  0  0  0  0  0  0  0  0  0  0
    3.7490    0.6999    1.0148 N   0  0  0  0  0  0  0  0  0  0  0  0
    4.5540    1.3973    0.0071 C   0  0  1  0  0  0  0  0  0  0  0  0
    3.8911    2.6979   -0.3520 C   0  0  0  0  0  0  0  0  0  0  0  0
    4.5714    3.5218   -1.3541 C   0  0  0  0  0  0  0  0  0  0  0  0
    5.3890    4.5943   -1.0233 C   0  0  0  0  0  0  0  0  0  0  0  0
    5.9944    5.3150   -2.0084 C   0  0  0  0  0  0  0  0  0  0  0  0
    5.8595    5.0602   -3.3597 C   0  0  0  0  0  0  0  0  0  0  0  0
    5.0442    3.9898   -3.6897 C   0  0  0  0  0  0  0  0  0  0  0  0
    4.4197    3.2441   -2.7249 C   0  0  0  0  0  0  0  0  0  0  0  0
    5.9479    1.4535    0.4166 C   0  0  0  0  0  0  0  0  0  0  0  0
    6.9688    1.9951   -0.3927 N   0  0  0  0  0  0  0  0  0  0  0  0
    6.2636    0.9861    1.5663 O   0  0  0  0  0  0  0  0  0  0  0  0
   -5.9908    4.8387   -1.3023 H   0  0  0  0  0  0  0  0  0  0  0  0
   -6.7306    4.5855    0.3186 H   0  0  0  0  0  0  0  0  0  0  0  0
   -6.4571    3.2154   -0.7834 H   0  0  0  0  0  0  0  0  0  0  0  0
   -3.9285    4.0283   -0.6996 H   0  0  0  0  0  0  0  0  0  0  0  0
   -4.5781    4.7533    2.1419 H   0  0  0  0  0  0  0  0  0  0  0  0
   -4.6533    6.0491    0.8120 H   0  0  0  0  0  0  0  0  0  0  0  0
   -3.1447    5.1760    1.1794 H   0  0  0  0  0  0  0  0  0  0  0  0
   -4.8491    1.4190   -0.7954 H   0  0  0  0  0  0  0  0  0  0  0  0
   -4.2513    0.4720    1.9772 H   0  0  0  0  0  0  0  0  0  0  0  0
   -5.3647   -1.6299    1.5718 H   0  0  0  0  0  0  0  0  0  0  0  0
   -6.3532   -0.1844    1.7200 H   0  0  0  0  0  0  0  0  0  0  0  0
   -5.5266   -2.9367   -0.5786 H   0  0  0  0  0  0  0  0  0  0  0  0
   -6.9082   -3.4794   -2.4876 H   0  0  0  0  0  0  0  0  0  0  0  0
   -8.7215   -1.8818   -3.2122 H   0  0  0  0  0  0  0  0  0  0  0  0
   -9.0209    0.2023   -1.9380 H   0  0  0  0  0  0  0  0  0  0  0  0
   -7.6045    0.7203   -0.0166 H   0  0  0  0  0  0  0  0  0  0  0  0
   -3.4626   -2.3198    1.5769 H   0  0  0  0  0  0  0  0  0  0  0  0
   -1.4497   -3.2847    1.6465 H   0  0  0  0  0  0  0  0  0  0  0  0
   -2.1162   -4.0397   -0.4411 H   0  0  0  0  0  0  0  0  0  0  0  0
   -0.3763   -3.8301   -0.4456 H   0  0  0  0  0  0  0  0  0  0  0  0
    0.5459   -1.9055   -1.8408 H   0  0  0  0  0  0  0  0  0  0  0  0
    0.2914   -0.8383   -4.0447 H   0  0  0  0  0  0  0  0  0  0  0  0
   -1.8489   -0.8734   -5.2433 H   0  0  0  0  0  0  0  0  0  0  0  0
   -3.7631   -1.9926   -4.1916 H   0  0  0  0  0  0  0  0  0  0  0  0
   -3.5449   -3.0880   -1.9478 H   0  0  0  0  0  0  0  0  0  0  0  0
    1.3305   -2.7559    0.6785 H   0  0  0  0  0  0  0  0  0  0  0  0
    1.3664   -0.1043    2.1444 H   0  0  0  0  0  0  0  0  0  0  0  0
    2.0572   -1.5387    3.7638 H   0  0  0  0  0  0  0  0  0  0  0  0
    3.4623   -0.6776    3.1533 H   0  0  0  0  0  0  0  0  0  0  0  0
    4.0010   -2.9465    3.7181 H   0  0  0  0  0  0  0  0  0  0  0  0
    2.9392   -3.6403    2.4733 H   0  0  0  0  0  0  0  0  0  0  0  0
    4.3598   -2.4143    0.7241 H   0  0  0  0  0  0  0  0  0  0  0  0
    5.4185   -1.9449    2.1300 H   0  0  0  0  0  0  0  0  0  0  0  0
    5.2529   -4.5937    0.9121 H   0  0  0  0  0  0  0  0  0  0  0  0
    7.5990   -3.2270    3.7640 H   0  0  0  0  0  0  0  0  0  0  0  0
    8.1702   -4.5617    2.6834 H   0  0  0  0  0  0  0  0  0  0  0  0
    4.5226   -5.5552    3.6231 H   0  0  0  0  0  0  0  0  0  0  0  0
    3.8895    0.9430    2.0023 H   0  0  0  0  0  0  0  0  0  0  0  0
    4.4785    0.7651   -0.9289 H   0  0  0  0  0  0  0  0  0  0  0  0
    2.8409    2.4992   -0.7224 H   0  0  0  0  0  0  0  0  0  0  0  0
    3.7306    3.2968    0.5720 H   0  0  0  0  0  0  0  0  0  0  0  0
    5.5078    4.8150    0.0485 H   0  0  0  0  0  0  0  0  0  0  0  0
    6.6235    6.1447   -1.7117 H   0  0  0  0  0  0  0  0  0  0  0  0
    6.3554    5.6536   -4.1178 H   0  0  0  0  0  0  0  0  0  0  0  0
    4.8757    3.7093   -4.7391 H   0  0  0  0  0  0  0  0  0  0  0  0
    3.7807    2.4026   -3.0161 H   0  0  0  0  0  0  0  0  0  0  0  0
    7.0691    1.8201   -1.4299 H   0  0  0  0  0  0  0  0  0  0  0  0
    7.7139    2.6288    0.0160 H   0  0  0  0  0  0  0  0  0  0  0  0
  1  2  1  0
  2  3  1  0
  2  4  1  0
  4  5  2  0
  4  6  1  0
  6  7  1  0
  7  8  1  0
  8  9  1  0
  9 10  2  0
 10 11  1  0
 11 12  2  0
 12 13  1  0
 13 14  2  0
  7 15  1  0
 15 16  2  0
 15 17  1  0
 17 18  1  0
 18 19  1  0
 19 20  1  0
 20 21  2  0
 21 22  1  0
 22 23  2  0
 23 24  1  0
 24 25  2  0
 18 26  1  0
 26 27  2  0
 26 28  1  0
 28 29  1  0
 29 30  1  0
 30 31  1  0
 31 32  1  0
 32 33  1  0
 33 34  1  0
 34 35  1  0
 34 36  2  3
 29 37  1  0
 37 38  2  0
 37 39  1  0
 39 40  1  0
 40 41  1  0
 41 42  1  0
 42 43  2  0
 43 44  1  0
 44 45  2  0
 45 46  1  0
 46 47  2  0
 40 48  1  0
 48 49  1  0
 48 50  2  0
 14  9  1  0
 25 20  1  0
 47 42  1  0
  1 51  1  0
  1 52  1  0
  1 53  1  0
  2 54  1  0
  3 55  1  0
  3 56  1  0
  3 57  1  0
  6 58  1  0
  7 59  1  1
  8 60  1  0
  8 61  1  0
 10 62  1  0
 11 63  1  0
 12 64  1  0
 13 65  1  0
 14 66  1  0
 17 67  1  0
 18 68  1  1
 19 69  1  0
 19 70  1  0
 21 71  1  0
 22 72  1  0
 23 73  1  0
 24 74  1  0
 25 75  1  0
 28 76  1  0
 29 77  1  1
 30 78  1  0
 30 79  1  0
 31 80  1  0
 31 81  1  0
 32 82  1  0
 32 83  1  0
 33 84  1  0
 35 85  1  0
 35 86  1  0
 36 87  1  0
 39 88  1  0
 40 89  1  6
 41 90  1  0
 41 91  1  0
 43 92  1  0
 44 93  1  0
 45 94  1  0
 46 95  1  0
 47 96  1  0
 49 97  1  0
 49 98  1  0
M  END
$$$$
[H]OC(=O)[C@@]([H])(N([H])C(=O)[C@@]([H])(N([H])C(=O)[C@@]([H])(N([H])S(=O)(=O)c1c([H])c([H])c([H])c([H])c1[H])C([H])(C([H])([H])[H])C([H])([H])[H])C([H])([H])c1c([H])c([H])c([H])c([H])c1[H])C([H])([H])c1c([H])n([H])c2c([H])c([H])c([H])c([H])c12
     RDKit          3D

 76 79  0  0  0  0  0  0  0  0999 V2000
    1.7767    2.4664   -1.8204 C   0  0  0  0  0  0  0  0  0  0  0  0
    2.8252    1.8188   -0.9174 C   0  0  0  0  0  0  0  0  0  0  0  0
    2.6850    2.2231    0.5209 C   0  0  0  0  0  0  0  0  0  0  0  0
    2.9193    0.3328   -1.1599 C   0  0  2  0  0  0  0  0  0  0  0  0
    3.3070    0.2216   -2.5816 N   0  0  0  0  0  0  0  0  0  0  0  0
    4.8145   -0.5035   -2.8069 S   0  0  0  0  0  0  0  0  0  0  0  0
    4.8468   -1.8998   -2.2527 O   0  0  0  0  0  0  0  0  0  0  0  0
    5.1616   -0.5325   -4.2800 O   0  0  0  0  0  0  0  0  0  0  0  0
    6.0402    0.4764   -2.0262 C   0  0  0  0  0  0  0  0  0  0  0  0
    6.6440    1.5532   -2.6648 C   0  0  0  0  0  0  0  0  0  0  0  0
    7.6050    2.3094   -2.0623 C   0  0  0  0  0  0  0  0  0  0  0  0
    8.0310    2.0381   -0.7728 C   0  0  0  0  0  0  0  0  0  0  0  0
    7.4511    0.9850   -0.1280 C   0  0  0  0  0  0  0  0  0  0  0  0
    6.4736    0.2135   -0.7328 C   0  0  0  0  0  0  0  0  0  0  0  0
    1.6592   -0.4006   -0.9349 C   0  0  0  0  0  0  0  0  0  0  0  0
    1.0952   -0.9102   -1.9408 O   0  0  0  0  0  0  0  0  0  0  0  0
    1.0189   -0.5926    0.3046 N   0  0  0  0  0  0  0  0  0  0  0  0
   -0.2028   -1.3085    0.4994 C   0  0  1  0  0  0  0  0  0  0  0  0
   -0.0749   -2.5810    1.3014 C   0  0  0  0  0  0  0  0  0  0  0  0
    0.8458   -3.5356    0.6419 C   0  0  0  0  0  0  0  0  0  0  0  0
    2.1811   -3.5302    0.9575 C   0  0  0  0  0  0  0  0  0  0  0  0
    3.0821   -4.4090    0.3603 C   0  0  0  0  0  0  0  0  0  0  0  0
    2.6139   -5.3018   -0.5681 C   0  0  0  0  0  0  0  0  0  0  0  0
    1.2688   -5.3075   -0.8863 C   0  0  0  0  0  0  0  0  0  0  0  0
    0.3796   -4.4225   -0.2809 C   0  0  0  0  0  0  0  0  0  0  0  0
   -1.3679   -0.4743    0.8781 C   0  0  0  0  0  0  0  0  0  0  0  0
   -1.3021    0.7840    0.9758 O   0  0  0  0  0  0  0  0  0  0  0  0
   -2.6402   -1.0100    1.1584 N   0  0  0  0  0  0  0  0  0  0  0  0
   -3.8229   -0.2476    1.5253 C   0  0  1  0  0  0  0  0  0  0  0  0
   -4.9829   -0.5959    0.6685 C   0  0  0  0  0  0  0  0  0  0  0  0
   -6.1751    0.1803    1.0191 C   0  0  0  0  0  0  0  0  0  0  0  0
   -7.3452   -0.2107    1.6852 C   0  0  0  0  0  0  0  0  0  0  0  0
   -8.2027    0.8275    1.7638 N   0  0  0  0  0  0  0  0  0  0  0  0
   -7.6388    1.8995    1.1691 C   0  0  0  0  0  0  0  0  0  0  0  0
   -8.1319    3.1726    0.9988 C   0  0  0  0  0  0  0  0  0  0  0  0
   -7.3252    4.0905    0.3313 C   0  0  0  0  0  0  0  0  0  0  0  0
   -6.0906    3.7231   -0.1306 C   0  0  0  0  0  0  0  0  0  0  0  0
   -5.6120    2.4435    0.0492 C   0  0  0  0  0  0  0  0  0  0  0  0
   -6.3979    1.5222    0.7072 C   0  0  0  0  0  0  0  0  0  0  0  0
   -4.0709   -0.5447    2.9587 C   0  0  0  0  0  0  0  0  0  0  0  0
   -5.0884    0.0968    3.6239 O   0  0  0  0  0  0  0  0  0  0  0  0
   -3.3523   -1.3736    3.5554 O   0  0  0  0  0  0  0  0  0  0  0  0
    0.7800    2.0751   -1.5851 H   0  0  0  0  0  0  0  0  0  0  0  0
    2.0935    2.3215   -2.8654 H   0  0  0  0  0  0  0  0  0  0  0  0
    1.8248    3.5580   -1.5834 H   0  0  0  0  0  0  0  0  0  0  0  0
    3.7929    2.3123   -1.2589 H   0  0  0  0  0  0  0  0  0  0  0  0
    1.6060    2.1749    0.8080 H   0  0  0  0  0  0  0  0  0  0  0  0
    3.0743    3.2607    0.6966 H   0  0  0  0  0  0  0  0  0  0  0  0
    3.2130    1.4874    1.1588 H   0  0  0  0  0  0  0  0  0  0  0  0
    3.7347   -0.0844   -0.5525 H   0  0  0  0  0  0  0  0  0  0  0  0
    2.5485   -0.1286   -3.1775 H   0  0  0  0  0  0  0  0  0  0  0  0
    6.3453    1.8114   -3.6825 H   0  0  0  0  0  0  0  0  0  0  0  0
    8.0563    3.1398   -2.5823 H   0  0  0  0  0  0  0  0  0  0  0  0
    8.7964    2.6682   -0.3435 H   0  0  0  0  0  0  0  0  0  0  0  0
    7.7835    0.7690    0.8926 H   0  0  0  0  0  0  0  0  0  0  0  0
    6.0417   -0.6231   -0.1717 H   0  0  0  0  0  0  0  0  0  0  0  0
    1.5277   -0.1608    1.1385 H   0  0  0  0  0  0  0  0  0  0  0  0
   -0.4799   -1.6867   -0.5387 H   0  0  0  0  0  0  0  0  0  0  0  0
   -1.0571   -3.0780    1.3339 H   0  0  0  0  0  0  0  0  0  0  0  0
    0.2298   -2.3606    2.3462 H   0  0  0  0  0  0  0  0  0  0  0  0
    2.6099   -2.8518    1.6806 H   0  0  0  0  0  0  0  0  0  0  0  0
    4.1359   -4.4031    0.6103 H   0  0  0  0  0  0  0  0  0  0  0  0
    3.2952   -5.9839   -1.0329 H   0  0  0  0  0  0  0  0  0  0  0  0
    0.8652   -6.0007   -1.6182 H   0  0  0  0  0  0  0  0  0  0  0  0
   -0.6655   -4.4780   -0.5754 H   0  0  0  0  0  0  0  0  0  0  0  0
   -2.7717   -2.0252    1.1063 H   0  0  0  0  0  0  0  0  0  0  0  0
   -3.6092    0.8471    1.4090 H   0  0  0  0  0  0  0  0  0  0  0  0
   -4.7215   -0.3985   -0.3954 H   0  0  0  0  0  0  0  0  0  0  0  0
   -5.2795   -1.6737    0.7534 H   0  0  0  0  0  0  0  0  0  0  0  0
   -7.4631   -1.2255    2.0559 H   0  0  0  0  0  0  0  0  0  0  0  0
   -9.1381    0.7549    2.2216 H   0  0  0  0  0  0  0  0  0  0  0  0
   -9.0904    3.5155    1.3377 H   0  0  0  0  0  0  0  0  0  0  0  0
   -7.6673    5.1241    0.1616 H   0  0  0  0  0  0  0  0  0  0  0  0
   -5.4397    4.4355   -0.6596 H   0  0  0  0  0  0  0  0  0  0  0  0
   -4.6414    2.1295   -0.3081 H   0  0  0  0  0  0  0  0  0  0  0  0
   -5.2316    1.0914    3.6712 H   0  0  0  0  0  0  0  0  0  0  0  0
  1  2  1  0
  2  3  1  0
  2  4  1  0
  4  5  1  0
  5  6  1  0
  6  7  2  0
  6  8  2  0
  6  9  1  0
  9 10  2  0
 10 11  1  0
 11 12  2  0
 12 13  1  0
 13 14  2  0
  4 15  1  0
 15 16  2  0
 15 17  1  0
 17 18  1  0
 18 19  1  0
 19 20  1  0
 20 21  2  0
 21 22  1  0
 22 23  2  0
 23 24  1  0
 24 25  2  0
 18 26  1  0
 26 27  2  0
 26 28  1  0
 28 29  1  0
 29 30  1  0
 30 31  1  0
 31 32  2  0
 32 33  1  0
 33 34  1  0
 34 35  2  0
 35 36  1  0
 36 37  2  0
 37 38  1  0
 38 39  2  0
 29 40  1  0
 40 41  1  0
 40 42  2  0
 14  9  1  0
 25 20  1  0
 39 31  1  0
 39 34  1  0
  1 43  1  0
  1 44  1  0
  1 45  1  0
  2 46  1  0
  3 47  1  0
  3 48  1  0
  3 49  1  0
  4 50  1  1
  5 51  1  0
 10 52  1  0
 11 53  1  0
 12 54  1  0
 13 55  1  0
 14 56  1  0
 17 57  1  0
 18 58  1  6
 19 59  1  0
 19 60  1  0
 21 61  1  0
 22 62  1  0
 23 63  1  0
 24 64  1  0
 25 65  1  0
 28 66  1  0
 29 67  1  1
 30 68  1  0
 30 69  1  0
 32 70  1  0
 33 71  1  0
 35 72  1  0
 36 73  1  0
 37 74  1  0
 38 75  1  0
 41 76  1  0
M  END
$$$$
[H]c1nc2c([H])c(OC([H])([H])C([H])([H])C([H])([H])N3C([H])([H])C([H])([H])OC([H])([H])C3([H])[H])c(OC([H])([H])[H])c([H])c2c(Oc2c([H])c([H])c(N([H])C(=O)c3nn(C([H])([H])[H])c(=O)c4c([H])c([H])c([H])c([H])c4c3=O)c([H])c2F)c1[H]
     RDKit          3D

 79 84  0  0  0  0  0  0  0  0999 V2000
    3.5306    3.6658    0.1718 C   0  0  0  0  0  0  0  0  0  0  0  0
    4.3908    2.6791    0.6848 O   0  0  0  0  0  0  0  0  0  0  0  0
    3.9526    1.4234    1.0486 C   0  0  0  0  0  0  0  0  0  0  0  0
    2.6365    1.1070    0.9129 C   0  0  0  0  0  0  0  0  0  0  0  0
    2.1746   -0.1478    1.2718 C   0  0  0  0  0  0  0  0  0  0  0  0
    0.8212   -0.4699    1.1316 C   0  0  0  0  0  0  0  0  0  0  0  0
   -0.0114    0.4980    0.6273 O   0  0  0  0  0  0  0  0  0  0  0  0
   -1.3583    0.3692    0.3592 C   0  0  0  0  0  0  0  0  0  0  0  0
   -2.2765    1.1535    1.0677 C   0  0  0  0  0  0  0  0  0  0  0  0
   -3.6182    1.0241    0.7972 C   0  0  0  0  0  0  0  0  0  0  0  0
   -4.1268    0.1442   -0.1559 C   0  0  0  0  0  0  0  0  0  0  0  0
   -5.5090    0.0845   -0.3946 N   0  0  0  0  0  0  0  0  0  0  0  0
   -6.2450   -0.9626   -0.9864 C   0  0  0  0  0  0  0  0  0  0  0  0
   -5.6712   -2.0288   -1.3663 O   0  0  0  0  0  0  0  0  0  0  0  0
   -7.6887   -0.8395   -1.1703 C   0  0  0  0  0  0  0  0  0  0  0  0
   -8.3730   -1.9969   -1.4649 N   0  0  0  0  0  0  0  0  0  0  0  0
   -9.5862   -2.3122   -0.9809 N   0  0  0  0  0  0  0  0  0  0  0  0
   -9.9301   -3.6975   -1.1764 C   0  0  0  0  0  0  0  0  0  0  0  0
  -10.5109   -1.5736   -0.3604 C   0  0  0  0  0  0  0  0  0  0  0  0
  -11.5272   -2.1457    0.1241 O   0  0  0  0  0  0  0  0  0  0  0  0
  -10.5178   -0.1907   -0.1593 C   0  0  0  0  0  0  0  0  0  0  0  0
  -11.6569    0.3003    0.4257 C   0  0  0  0  0  0  0  0  0  0  0  0
  -11.8210    1.6496    0.6918 C   0  0  0  0  0  0  0  0  0  0  0  0
  -10.8185    2.5286    0.3635 C   0  0  0  0  0  0  0  0  0  0  0  0
   -9.6704    2.0611   -0.2223 C   0  0  0  0  0  0  0  0  0  0  0  0
   -9.5183    0.7199   -0.4818 C   0  0  0  0  0  0  0  0  0  0  0  0
   -8.3039    0.3853   -1.0808 C   0  0  0  0  0  0  0  0  0  0  0  0
   -7.7069    1.3337   -1.6032 O   0  0  0  0  0  0  0  0  0  0  0  0
   -3.2293   -0.6117   -0.8388 C   0  0  0  0  0  0  0  0  0  0  0  0
   -1.8725   -0.4822   -0.5668 C   0  0  0  0  0  0  0  0  0  0  0  0
   -1.0324   -1.2586   -1.3103 F   0  0  0  0  0  0  0  0  0  0  0  0
    0.3667   -1.7178    1.4911 C   0  0  0  0  0  0  0  0  0  0  0  0
    1.2620   -2.6408    1.9881 C   0  0  0  0  0  0  0  0  0  0  0  0
    2.5563   -2.3121    2.1144 N   0  0  0  0  0  0  0  0  0  0  0  0
    3.0128   -1.1040    1.7702 C   0  0  0  0  0  0  0  0  0  0  0  0
    4.3487   -0.7789    1.9069 C   0  0  0  0  0  0  0  0  0  0  0  0
    4.8379    0.4668    1.5556 C   0  0  0  0  0  0  0  0  0  0  0  0
    6.1302    0.8577    1.6568 O   0  0  0  0  0  0  0  0  0  0  0  0
    7.2827    0.2507    2.0542 C   0  0  0  0  0  0  0  0  0  0  0  0
    7.6425   -0.8997    1.1426 C   0  0  0  0  0  0  0  0  0  0  0  0
    7.8116   -0.2865   -0.2462 C   0  0  0  0  0  0  0  0  0  0  0  0
    8.8378    0.7065   -0.2196 N   0  0  0  0  0  0  0  0  0  0  0  0
    9.0218    1.3284   -1.5291 C   0  0  0  0  0  0  0  0  0  0  0  0
    9.6217    0.3366   -2.5038 C   0  0  0  0  0  0  0  0  0  0  0  0
   10.7458   -0.2806   -2.0154 O   0  0  0  0  0  0  0  0  0  0  0  0
   10.5888   -0.8623   -0.7574 C   0  0  0  0  0  0  0  0  0  0  0  0
   10.1084    0.2104    0.2121 C   0  0  0  0  0  0  0  0  0  0  0  0
    3.9686    4.6658    0.1713 H   0  0  0  0  0  0  0  0  0  0  0  0
    3.1516    3.3936   -0.8518 H   0  0  0  0  0  0  0  0  0  0  0  0
    2.6066    3.7088    0.8114 H   0  0  0  0  0  0  0  0  0  0  0  0
    1.9187    1.8035    0.5299 H   0  0  0  0  0  0  0  0  0  0  0  0
   -1.9115    1.8374    1.8052 H   0  0  0  0  0  0  0  0  0  0  0  0
   -4.3526    1.6326    1.3467 H   0  0  0  0  0  0  0  0  0  0  0  0
   -6.0445    0.9579   -0.0597 H   0  0  0  0  0  0  0  0  0  0  0  0
   -9.5277   -4.1010   -2.1188 H   0  0  0  0  0  0  0  0  0  0  0  0
   -9.4555   -4.2612   -0.3313 H   0  0  0  0  0  0  0  0  0  0  0  0
  -11.0190   -3.8269   -1.0696 H   0  0  0  0  0  0  0  0  0  0  0  0
  -12.4265   -0.4230    0.6706 H   0  0  0  0  0  0  0  0  0  0  0  0
  -12.7491    1.9908    1.1603 H   0  0  0  0  0  0  0  0  0  0  0  0
  -10.9003    3.5878    0.5510 H   0  0  0  0  0  0  0  0  0  0  0  0
   -8.8760    2.7394   -0.4867 H   0  0  0  0  0  0  0  0  0  0  0  0
   -3.5159   -1.3175   -1.6104 H   0  0  0  0  0  0  0  0  0  0  0  0
   -0.6696   -2.0068    1.4128 H   0  0  0  0  0  0  0  0  0  0  0  0
    0.9120   -3.6392    2.2776 H   0  0  0  0  0  0  0  0  0  0  0  0
    4.9741   -1.5440    2.3162 H   0  0  0  0  0  0  0  0  0  0  0  0
    8.1223    0.9879    2.0506 H   0  0  0  0  0  0  0  0  0  0  0  0
    7.2680   -0.1368    3.1048 H   0  0  0  0  0  0  0  0  0  0  0  0
    6.8752   -1.6797    1.0825 H   0  0  0  0  0  0  0  0  0  0  0  0
    8.5703   -1.4171    1.4847 H   0  0  0  0  0  0  0  0  0  0  0  0
    8.0161   -1.1288   -0.9383 H   0  0  0  0  0  0  0  0  0  0  0  0
    6.8483    0.1432   -0.5336 H   0  0  0  0  0  0  0  0  0  0  0  0
    9.7421    2.1476   -1.3971 H   0  0  0  0  0  0  0  0  0  0  0  0
    8.0796    1.7044   -1.9337 H   0  0  0  0  0  0  0  0  0  0  0  0
    8.8186   -0.3580   -2.8153 H   0  0  0  0  0  0  0  0  0  0  0  0
    9.9318    0.9260   -3.3934 H   0  0  0  0  0  0  0  0  0  0  0  0
   11.6067   -1.1713   -0.4325 H   0  0  0  0  0  0  0  0  0  0  0  0
    9.9532   -1.7492   -0.7572 H   0  0  0  0  0  0  0  0  0  0  0  0
   10.1309   -0.1993    1.2169 H   0  0  0  0  0  0  0  0  0  0  0  0
   10.8523    1.0490    0.0842 H   0  0  0  0  0  0  0  0  0  0  0  0
  1  2  1  0
  2  3  1  0
  3  4  2  0
  4  5  1  0
  5  6  2  0
  6  7  1  0
  7  8  1  0
  8  9  2  0
  9 10  1  0
 10 11  2  0
 11 12  1  0
 12 13  1  0
 13 14  2  0
 13 15  1  0
 15 16  2  0
 16 17  1  0
 17 18  1  0
 17 19  1  0
 19 20  2  0
 19 21  1  0
 21 22  2  0
 22 23  1  0
 23 24  2  0
 24 25  1  0
 25 26  2  0
 26 27  1  0
 27 28  2  0
 11 29  1  0
 29 30  2  0
 30 31  1  0
  6 32  1  0
 32 33  2  0
 33 34  1  0
 34 35  2  0
 35 36  1  0
 36 37  2  0
 37 38  1  0
 38 39  1  0
 39 40  1  0
 40 41  1  0
 41 42  1  0
 42 43  1  0
 43 44  1  0
 44 45  1  0
 45 46  1  0
 46 47  1  0
 37  3  1  0
 47 42  1  0
 35  5  1  0
 30  8  1  0
 27 15  1  0
 26 21  1  0
  1 48  1  0
  1 49  1  0
  1 50  1  0
  4 51  1  0
  9 52  1  0
 10 53  1  0
 12 54  1  0
 18 55  1  0
 18 56  1  0
 18 57  1  0
 22 58  1  0
 23 59  1  0
 24 60  1  0
 25 61  1  0
 29 62  1  0
 32 63  1  0
 33 64  1  0
 36 65  1  0
 39 66  1  0
 39 67  1  0
 40 68  1  0
 40 69  1  0
 41 70  1  0
 41 71  1  0
 43 72  1  0
 43 73  1  0
 44 74  1  0
 44 75  1  0
 46 76  1  0
 46 77  1  0
 47 78  1  0
 47 79  1  0
M  END
$$$$
