[H]c1oc(C([H])([H])N([H])C(=O)c2c([H])c([H])c(C(=O)N([H])[H])c([H])c2[H])nc1C([H])(C([H])([H])[H])C([H])([H])[H]


 24 25  0  0  0  0  0  0  0  0999 V2000
   24.8859    7.6689   53.3650 N   0  0  0  0  0  0  0  0  0  0  0  0
   23.5341    8.0225   53.1662 C   0  0  0  0  0  0  0  0  0  0  0  0
   23.2715    9.2218   52.8615 O   0  0  0  0  0  0  0  0  0  0  0  0
   25.1147    6.6894   53.6149 H   0  0  0  0  0  0  0  0  0  0  0  0
   22.4633    7.0629   53.3002 C   0  0  0  0  0  0  0  0  0  0  0  0
   21.1883    7.4387   52.8979 C   0  0  0  0  0  0  0  0  0  0  0  0
   20.1249    6.5727   52.9990 C   0  0  0  0  0  0  0  0  0  0  0  0
   20.2857    5.3018   53.5026 C   0  0  0  0  0  0  0  0  0  0  0  0
   21.5436    4.9279   53.9005 C   0  0  0  0  0  0  0  0  0  0  0  0
   22.6181    5.8089   53.7963 C   0  0  0  0  0  0  0  0  0  0  0  0
   19.1652    4.3739   53.6147 C   0  0  0  0  0  0  0  0  0  0  0  0
   17.9161    4.8429   54.0938 N   0  0  0  0  0  0  0  0  0  0  0  0
   19.2582    3.1663   53.3027 O   0  0  0  0  0  0  0  0  0  0  0  0
   17.2342    5.3244   53.4351 H   0  0  0  0  0  0  0  0  0  0  0  0
   17.6209    4.7366   55.0930 H   0  0  0  0  0  0  0  0  0  0  0  0
   25.9100    8.6895   53.2127 C   0  0  0  0  0  0  0  0  0  0  0  0
   27.6000    9.0628   56.3976 C   0  0  0  0  0  0  0  0  0  0  0  0
   28.5445    8.3729   55.6641 C   0  0  0  0  0  0  0  0  0  0  0  0
   28.0391    8.1738   54.4667 O   0  0  0  0  0  0  0  0  0  0  0  0
   26.8362    8.6858   54.3756 C   0  0  0  0  0  0  0  0  0  0  0  0
   26.5623    9.2356   55.5664 N   0  0  0  0  0  0  0  0  0  0  0  0
   28.4905    8.5739   58.6386 C   0  0  0  0  0  0  0  0  0  0  0  0
   27.6719    9.5326   57.8028 C   0  0  0  0  0  0  0  0  0  0  0  0
   28.3902   10.8850   57.8648 C   0  0  0  0  0  0  0  0  0  0  0  0
 22 23  1  0  0  0
 23 24  1  0  0  0
 23 17  1  0  0  0
 17 18  2  0  0  0
 18 19  1  0  0  0
 19 20  1  0  0  0
 20 16  1  0  0  0
 16  1  1  0  0  0
  1  2  1  0  0  0
  2  3  2  0  0  0
  2  5  1  0  0  0
  5  6  2  0  0  0
  6  7  1  0  0  0
  7  8  2  0  0  0
  8  9  1  0  0  0
  9 10  2  0  0  0
  8 11  1  0  0  0
 11 12  1  0  0  0
 11 13  2  0  0  0
 20 21  2  0  0  0
 21 17  1  0  0  0
 10  5  1  0  0  0
  1  4  1  0  0  0
 12 14  1  0  0  0
 12 15  1  0  0  0
M  END
> <minimizedAffinity>
9.11004

> <CNNscore>
0.6310299039

> <CNNaffinity>
5.1737604141

> <CNN_VS>
3.2647974491

> <CNNaffinity_variance>
0.0904282480

$$$$
[H]c1oc(C([H])([H])N([H])C(=O)c2c([H])c([H])c(C(=O)N([H])[H])c([H])c2[H])nc1C([H])(C([H])([H])[H])C([H])([H])[H]


 24 25  0  0  0  0  0  0  0  0999 V2000
   21.3971    6.8682   53.3405 N   0  0  0  0  0  0  0  0  0  0  0  0
   21.9562    8.1336   53.6201 C   0  0  0  0  0  0  0  0  0  0  0  0
   21.2090    9.1494   53.5200 O   0  0  0  0  0  0  0  0  0  0  0  0
   21.9985    6.0278   53.4189 H   0  0  0  0  0  0  0  0  0  0  0  0
   23.3373    8.2918   54.0111 C   0  0  0  0  0  0  0  0  0  0  0  0
   23.6178    9.0297   55.1537 C   0  0  0  0  0  0  0  0  0  0  0  0
   24.9112    9.2183   55.5806 C   0  0  0  0  0  0  0  0  0  0  0  0
   25.9751    8.6825   54.8908 C   0  0  0  0  0  0  0  0  0  0  0  0
   25.7012    7.9533   53.7623 C   0  0  0  0  0  0  0  0  0  0  0  0
   24.3889    7.7648   53.3335 C   0  0  0  0  0  0  0  0  0  0  0  0
   27.3519    8.8756   55.3339 C   0  0  0  0  0  0  0  0  0  0  0  0
   27.6024    9.3567   56.6436 N   0  0  0  0  0  0  0  0  0  0  0  0
   28.3349    8.6323   54.5999 O   0  0  0  0  0  0  0  0  0  0  0  0
   27.6071    8.6878   57.4702 H   0  0  0  0  0  0  0  0  0  0  0  0
   27.7888   10.3673   56.8457 H   0  0  0  0  0  0  0  0  0  0  0  0
   19.9984    6.7870   52.9524 C   0  0  0  0  0  0  0  0  0  0  0  0
   17.9417    3.9870   53.9862 C   0  0  0  0  0  0  0  0  0  0  0  0
   19.1582    3.3704   53.7713 C   0  0  0  0  0  0  0  0  0  0  0  0
   20.0037    4.3002   53.3849 O   0  0  0  0  0  0  0  0  0  0  0  0
   19.4197    5.4722   53.3352 C   0  0  0  0  0  0  0  0  0  0  0  0
   18.1463    5.2821   53.7061 N   0  0  0  0  0  0  0  0  0  0  0  0
   16.4522    3.6228   55.9105 C   0  0  0  0  0  0  0  0  0  0  0  0
   16.6591    3.3888   54.4306 C   0  0  0  0  0  0  0  0  0  0  0  0
   15.4889    4.0725   53.7151 C   0  0  0  0  0  0  0  0  0  0  0  0
 22 23  1  0  0  0
 23 24  1  0  0  0
 23 17  1  0  0  0
 17 18  2  0  0  0
 18 19  1  0  0  0
 19 20  1  0  0  0
 20 16  1  0  0  0
 16  1  1  0  0  0
  1  2  1  0  0  0
  2  3  2  0  0  0
  2  5  1  0  0  0
  5  6  2  0  0  0
  6  7  1  0  0  0
  7  8  2  0  0  0
  8  9  1  0  0  0
  9 10  2  0  0  0
  8 11  1  0  0  0
 11 12  1  0  0  0
 11 13  2  0  0  0
 20 21  2  0  0  0
 21 17  1  0  0  0
 10  5  1  0  0  0
  1  4  1  0  0  0
 12 14  1  0  0  0
 12 15  1  0  0  0
M  END
> <minimizedAffinity>
9.40297

> <CNNscore>
0.6301634908

> <CNNaffinity>
5.6287374496

> <CNN_VS>
3.5470247269

> <CNNaffinity_variance>
0.2217853516

$$$$
[H]c1oc(C([H])([H])N([H])C(=O)c2c([H])c([H])c(C(=O)N([H])[H])c([H])c2[H])nc1C([H])(C([H])([H])[H])C([H])([H])[H]


 24 25  0  0  0  0  0  0  0  0999 V2000
   21.3477    6.3704   53.1560 N   0  0  0  0  0  0  0  0  0  0  0  0
   21.6550    7.4743   53.9799 C   0  0  0  0  0  0  0  0  0  0  0  0
   21.9616    7.2491   55.1863 O   0  0  0  0  0  0  0  0  0  0  0  0
   21.0950    6.5411   52.1654 H   0  0  0  0  0  0  0  0  0  0  0  0
   21.6281    8.8308   53.4853 C   0  0  0  0  0  0  0  0  0  0  0  0
   21.4924    9.0304   52.1176 C   0  0  0  0  0  0  0  0  0  0  0  0
   21.4598   10.2964   51.5819 C   0  0  0  0  0  0  0  0  0  0  0  0
   21.5606   11.4120   52.3820 C   0  0  0  0  0  0  0  0  0  0  0  0
   21.6945   11.2180   53.7328 C   0  0  0  0  0  0  0  0  0  0  0  0
   21.7271    9.9332   54.2711 C   0  0  0  0  0  0  0  0  0  0  0  0
   21.5273   12.7604   51.8254 C   0  0  0  0  0  0  0  0  0  0  0  0
   20.5724   13.6908   52.3073 N   0  0  0  0  0  0  0  0  0  0  0  0
   22.3143   13.1379   50.9297 O   0  0  0  0  0  0  0  0  0  0  0  0
   20.7610   14.2430   53.1963 H   0  0  0  0  0  0  0  0  0  0  0  0
   19.6632   13.8681   51.8186 H   0  0  0  0  0  0  0  0  0  0  0  0
   21.3959    5.0331   53.7242 C   0  0  0  0  0  0  0  0  0  0  0  0
   17.9440    3.9292   53.7916 C   0  0  0  0  0  0  0  0  0  0  0  0
   18.5279    2.9585   53.0023 C   0  0  0  0  0  0  0  0  0  0  0  0
   19.8051    3.2542   52.9016 O   0  0  0  0  0  0  0  0  0  0  0  0
   20.0866    4.3461   53.5695 C   0  0  0  0  0  0  0  0  0  0  0  0
   18.9393    4.7652   54.1202 N   0  0  0  0  0  0  0  0  0  0  0  0
   15.6419    3.1692   53.3705 C   0  0  0  0  0  0  0  0  0  0  0  0
   16.5275    4.0608   54.2122 C   0  0  0  0  0  0  0  0  0  0  0  0
   16.3675    3.5884   55.6614 C   0  0  0  0  0  0  0  0  0  0  0  0
 22 23  1  0  0  0
 23 24  1  0  0  0
 23 17  1  0  0  0
 17 18  2  0  0  0
 18 19  1  0  0  0
 19 20  1  0  0  0
 20 16  1  0  0  0
 16  1  1  0  0  0
  1  2  1  0  0  0
  2  3  2  0  0  0
  2  5  1  0  0  0
  5  6  2  0  0  0
  6  7  1  0  0  0
  7  8  2  0  0  0
  8  9  1  0  0  0
  9 10  2  0  0  0
  8 11  1  0  0  0
 11 12  1  0  0  0
 11 13  2  0  0  0
 20 21  2  0  0  0
 21 17  1  0  0  0
 10  5  1  0  0  0
  1  4  1  0  0  0
 12 14  1  0  0  0
 12 15  1  0  0  0
M  END
> <minimizedAffinity>
13.77301

> <CNNscore>
0.6092495918

> <CNNaffinity>
5.7332930565

> <CNN_VS>
3.4930064678

> <CNNaffinity_variance>
0.1665895730

$$$$
[H]c1oc(C([H])([H])N([H])C(=O)c2c([H])c([H])c(C(=O)N([H])[H])c([H])c2[H])nc1C([H])(C([H])([H])[H])C([H])([H])[H]


 24 25  0  0  0  0  0  0  0  0999 V2000
   24.6393    6.7815   54.0356 N   0  0  0  0  0  0  0  0  0  0  0  0
   25.4892    7.8919   53.8442 C   0  0  0  0  0  0  0  0  0  0  0  0
   25.5263    8.4219   52.6962 O   0  0  0  0  0  0  0  0  0  0  0  0
   24.5994    6.3381   54.9715 H   0  0  0  0  0  0  0  0  0  0  0  0
   26.3026    8.4272   54.9107 C   0  0  0  0  0  0  0  0  0  0  0  0
   25.6632    8.9837   56.0107 C   0  0  0  0  0  0  0  0  0  0  0  0
   26.3790    9.5107   57.0599 C   0  0  0  0  0  0  0  0  0  0  0  0
   27.7555    9.5058   57.0579 C   0  0  0  0  0  0  0  0  0  0  0  0
   28.3896    8.9568   55.9730 C   0  0  0  0  0  0  0  0  0  0  0  0
   27.6601    8.4240   54.9121 C   0  0  0  0  0  0  0  0  0  0  0  0
   28.5260   10.0618   58.1651 C   0  0  0  0  0  0  0  0  0  0  0  0
   28.9227    9.2175   59.2326 N   0  0  0  0  0  0  0  0  0  0  0  0
   28.8572   11.2668   58.2158 O   0  0  0  0  0  0  0  0  0  0  0  0
   29.7957    8.6166   59.1467 H   0  0  0  0  0  0  0  0  0  0  0  0
   28.3843    9.1528   60.1287 H   0  0  0  0  0  0  0  0  0  0  0  0
   23.8498    6.2982   52.9146 C   0  0  0  0  0  0  0  0  0  0  0  0
   21.4964    9.0431   52.6576 C   0  0  0  0  0  0  0  0  0  0  0  0
   20.8999    8.0931   51.8528 C   0  0  0  0  0  0  0  0  0  0  0  0
   21.6738    7.0301   51.8653 O   0  0  0  0  0  0  0  0  0  0  0  0
   22.7266    7.2268   52.6205 C   0  0  0  0  0  0  0  0  0  0  0  0
   22.6199    8.4690   53.1112 N   0  0  0  0  0  0  0  0  0  0  0  0
   21.4945   10.8158   54.3641 C   0  0  0  0  0  0  0  0  0  0  0  0
   21.0332   10.4149   52.9806 C   0  0  0  0  0  0  0  0  0  0  0  0
   21.6580   11.4195   52.0063 C   0  0  0  0  0  0  0  0  0  0  0  0
 22 23  1  0  0  0
 23 24  1  0  0  0
 23 17  1  0  0  0
 17 18  2  0  0  0
 18 19  1  0  0  0
 19 20  1  0  0  0
 20 16  1  0  0  0
 16  1  1  0  0  0
  1  2  1  0  0  0
  2  3  2  0  0  0
  2  5  1  0  0  0
  5  6  2  0  0  0
  6  7  1  0  0  0
  7  8  2  0  0  0
  8  9  1  0  0  0
  9 10  2  0  0  0
  8 11  1  0  0  0
 11 12  1  0  0  0
 11 13  2  0  0  0
 20 21  2  0  0  0
 21 17  1  0  0  0
 10  5  1  0  0  0
  1  4  1  0  0  0
 12 14  1  0  0  0
 12 15  1  0  0  0
M  END
> <minimizedAffinity>
0.91382

> <CNNscore>
0.5950196981

> <CNNaffinity>
5.3636922836

> <CNN_VS>
3.1915025711

> <CNNaffinity_variance>
0.1487124860

$$$$
[H]c1oc(C([H])([H])N([H])C(=O)c2c([H])c([H])c(C(=O)N([H])[H])c([H])c2[H])nc1C([H])(C([H])([H])[H])C([H])([H])[H]


 24 25  0  0  0  0  0  0  0  0999 V2000
   25.5159    8.7647   53.2850 N   0  0  0  0  0  0  0  0  0  0  0  0
   26.5533    8.3901   54.1656 C   0  0  0  0  0  0  0  0  0  0  0  0
   27.1039    7.2647   53.9917 O   0  0  0  0  0  0  0  0  0  0  0  0
   25.0565    9.6844   53.4164 H   0  0  0  0  0  0  0  0  0  0  0  0
   26.9924    9.2478   55.2413 C   0  0  0  0  0  0  0  0  0  0  0  0
   26.0327    9.9576   55.9511 C   0  0  0  0  0  0  0  0  0  0  0  0
   26.3840   10.7915   56.9865 C   0  0  0  0  0  0  0  0  0  0  0  0
   27.6998   10.9530   57.3571 C   0  0  0  0  0  0  0  0  0  0  0  0
   28.6496   10.2532   56.6580 C   0  0  0  0  0  0  0  0  0  0  0  0
   28.2889    9.4094   55.6095 C   0  0  0  0  0  0  0  0  0  0  0  0
   28.0850   11.8348   58.4539 C   0  0  0  0  0  0  0  0  0  0  0  0
   29.4307   11.8472   58.8997 N   0  0  0  0  0  0  0  0  0  0  0  0
   27.2700   12.5911   59.0267 O   0  0  0  0  0  0  0  0  0  0  0  0
   30.1590   12.4341   58.3940 H   0  0  0  0  0  0  0  0  0  0  0  0
   29.7547   11.2915   59.7262 H   0  0  0  0  0  0  0  0  0  0  0  0
   25.1277    7.8487   52.2249 C   0  0  0  0  0  0  0  0  0  0  0  0
   21.9217    6.4162   53.1242 C   0  0  0  0  0  0  0  0  0  0  0  0
   22.7706    5.3493   53.3419 C   0  0  0  0  0  0  0  0  0  0  0  0
   23.9867    5.7519   53.0453 O   0  0  0  0  0  0  0  0  0  0  0  0
   23.9827    7.0019   52.6518 C   0  0  0  0  0  0  0  0  0  0  0  0
   22.7090    7.4149   52.6995 N   0  0  0  0  0  0  0  0  0  0  0  0
   20.0198    7.9194   53.5455 C   0  0  0  0  0  0  0  0  0  0  0  0
   20.4514    6.4896   53.3063 C   0  0  0  0  0  0  0  0  0  0  0  0
   19.7436    6.0307   52.0268 C   0  0  0  0  0  0  0  0  0  0  0  0
 22 23  1  0  0  0
 23 24  1  0  0  0
 23 17  1  0  0  0
 17 18  2  0  0  0
 18 19  1  0  0  0
 19 20  1  0  0  0
 20 16  1  0  0  0
 16  1  1  0  0  0
  1  2  1  0  0  0
  2  3  2  0  0  0
  2  5  1  0  0  0
  5  6  2  0  0  0
  6  7  1  0  0  0
  7  8  2  0  0  0
  8  9  1  0  0  0
  9 10  2  0  0  0
  8 11  1  0  0  0
 11 12  1  0  0  0
 11 13  2  0  0  0
 20 21  2  0  0  0
 21 17  1  0  0  0
 10  5  1  0  0  0
  1  4  1  0  0  0
 12 14  1  0  0  0
 12 15  1  0  0  0
M  END
> <minimizedAffinity>
21.98037

> <CNNscore>
0.5824625492

> <CNNaffinity>
4.9890313148

> <CNN_VS>
2.9059238434

> <CNNaffinity_variance>
0.2661488652

$$$$
[H]c1oc(C([H])([H])N([H])C(=O)c2c([H])c([H])c(C(=O)N([H])[H])c([H])c2[H])nc1C([H])(C([H])([H])[H])C([H])([H])[H]


 24 25  0  0  0  0  0  0  0  0999 V2000
   24.8707    6.5956   54.4845 N   0  0  0  0  0  0  0  0  0  0  0  0
   25.6148    7.7588   54.1928 C   0  0  0  0  0  0  0  0  0  0  0  0
   25.6695    8.1438   52.9891 O   0  0  0  0  0  0  0  0  0  0  0  0
   24.8177    6.2694   55.4668 H   0  0  0  0  0  0  0  0  0  0  0  0
   26.3027    8.5060   55.2195 C   0  0  0  0  0  0  0  0  0  0  0  0
   27.6908    8.5374   55.1927 C   0  0  0  0  0  0  0  0  0  0  0  0
   28.4064    9.2301   56.1408 C   0  0  0  0  0  0  0  0  0  0  0  0
   27.7727    9.9177   57.1510 C   0  0  0  0  0  0  0  0  0  0  0  0
   26.4021    9.8885   57.1799 C   0  0  0  0  0  0  0  0  0  0  0  0
   25.6811    9.1852   56.2170 C   0  0  0  0  0  0  0  0  0  0  0  0
   28.5210   10.6563   58.1627 C   0  0  0  0  0  0  0  0  0  0  0  0
   29.1639    9.9493   59.2098 N   0  0  0  0  0  0  0  0  0  0  0  0
   28.6225   11.9028   58.1474 O   0  0  0  0  0  0  0  0  0  0  0  0
   30.1232    9.5169   59.0566 H   0  0  0  0  0  0  0  0  0  0  0  0
   28.7301    9.8270   60.1552 H   0  0  0  0  0  0  0  0  0  0  0  0
   24.2047    5.8955   53.3983 C   0  0  0  0  0  0  0  0  0  0  0  0
   21.5116    7.9927   52.1786 C   0  0  0  0  0  0  0  0  0  0  0  0
   20.8164    7.0482   52.9071 C   0  0  0  0  0  0  0  0  0  0  0  0
   21.7008    6.2148   53.4093 O   0  0  0  0  0  0  0  0  0  0  0  0
   22.9165    6.5542   53.0567 C   0  0  0  0  0  0  0  0  0  0  0  0
   22.8029    7.6519   52.2967 N   0  0  0  0  0  0  0  0  0  0  0  0
   19.5023    8.9976   51.1749 C   0  0  0  0  0  0  0  0  0  0  0  0
   20.9878    9.1512   51.4143 C   0  0  0  0  0  0  0  0  0  0  0  0
   21.1656   10.4371   52.2290 C   0  0  0  0  0  0  0  0  0  0  0  0
 22 23  1  0  0  0
 23 24  1  0  0  0
 23 17  1  0  0  0
 17 18  2  0  0  0
 18 19  1  0  0  0
 19 20  1  0  0  0
 20 16  1  0  0  0
 16  1  1  0  0  0
  1  2  1  0  0  0
  2  3  2  0  0  0
  2  5  1  0  0  0
  5  6  2  0  0  0
  6  7  1  0  0  0
  7  8  2  0  0  0
  8  9  1  0  0  0
  9 10  2  0  0  0
  8 11  1  0  0  0
 11 12  1  0  0  0
 11 13  2  0  0  0
 20 21  2  0  0  0
 21 17  1  0  0  0
 10  5  1  0  0  0
  1  4  1  0  0  0
 12 14  1  0  0  0
 12 15  1  0  0  0
M  END
> <minimizedAffinity>
7.84272

> <CNNscore>
0.5754399896

> <CNNaffinity>
5.2448034286

> <CNN_VS>
3.0180697441

> <CNNaffinity_variance>
0.1025263444

$$$$
[H]c1oc(C([H])([H])N([H])C(=O)c2c([H])c([H])c(C(=O)N([H])[H])c([H])c2[H])nc1C([H])(C([H])([H])[H])C([H])([H])[H]


 24 25  0  0  0  0  0  0  0  0999 V2000
   23.2352    8.3860   53.0187 N   0  0  0  0  0  0  0  0  0  0  0  0
   24.4069    7.7200   53.4374 C   0  0  0  0  0  0  0  0  0  0  0  0
   24.6889    6.6134   52.8934 O   0  0  0  0  0  0  0  0  0  0  0  0
   22.9927    9.2937   53.4564 H   0  0  0  0  0  0  0  0  0  0  0  0
   25.2758    8.2640   54.4546 C   0  0  0  0  0  0  0  0  0  0  0  0
   26.6474    8.1117   54.2993 C   0  0  0  0  0  0  0  0  0  0  0  0
   27.5294    8.6060   55.2313 C   0  0  0  0  0  0  0  0  0  0  0  0
   27.0846    9.2698   56.3522 C   0  0  0  0  0  0  0  0  0  0  0  0
   25.7308    9.4218   56.5081 C   0  0  0  0  0  0  0  0  0  0  0  0
   24.8408    8.9192   55.5611 C   0  0  0  0  0  0  0  0  0  0  0  0
   28.0106    9.7988   57.3481 C   0  0  0  0  0  0  0  0  0  0  0  0
   28.3779    8.9945   58.4562 N   0  0  0  0  0  0  0  0  0  0  0  0
   28.5021   10.9460   57.2670 O   0  0  0  0  0  0  0  0  0  0  0  0
   29.1532    8.2728   58.3631 H   0  0  0  0  0  0  0  0  0  0  0  0
   27.9112    9.0766   59.3902 H   0  0  0  0  0  0  0  0  0  0  0  0
   22.4092    7.7768   51.9891 C   0  0  0  0  0  0  0  0  0  0  0  0
   20.0004    5.4653   53.4010 C   0  0  0  0  0  0  0  0  0  0  0  0
   19.3015    6.6550   53.4501 C   0  0  0  0  0  0  0  0  0  0  0  0
   20.0850    7.5880   52.9556 O   0  0  0  0  0  0  0  0  0  0  0  0
   21.2391    7.0852   52.5914 C   0  0  0  0  0  0  0  0  0  0  0  0
   21.1898    5.7745   52.8650 N   0  0  0  0  0  0  0  0  0  0  0  0
   18.0886    4.1016   54.1357 C   0  0  0  0  0  0  0  0  0  0  0  0
   19.5708    4.1133   53.8349 C   0  0  0  0  0  0  0  0  0  0  0  0
   19.7917    3.1066   52.7007 C   0  0  0  0  0  0  0  0  0  0  0  0
 22 23  1  0  0  0
 23 24  1  0  0  0
 23 17  1  0  0  0
 17 18  2  0  0  0
 18 19  1  0  0  0
 19 20  1  0  0  0
 20 16  1  0  0  0
 16  1  1  0  0  0
  1  2  1  0  0  0
  2  3  2  0  0  0
  2  5  1  0  0  0
  5  6  2  0  0  0
  6  7  1  0  0  0
  7  8  2  0  0  0
  8  9  1  0  0  0
  9 10  2  0  0  0
  8 11  1  0  0  0
 11 12  1  0  0  0
 11 13  2  0  0  0
 20 21  2  0  0  0
 21 17  1  0  0  0
 10  5  1  0  0  0
  1  4  1  0  0  0
 12 14  1  0  0  0
 12 15  1  0  0  0
M  END
> <minimizedAffinity>
8.04937

> <CNNscore>
0.5705746412

> <CNNaffinity>
5.4871673584

> <CNN_VS>
3.1308386326

> <CNNaffinity_variance>
0.0975634307

$$$$
[H]c1oc(C([H])([H])N([H])C(=O)c2c([H])c([H])c(C(=O)N([H])[H])c([H])c2[H])nc1C([H])(C([H])([H])[H])C([H])([H])[H]


 24 25  0  0  0  0  0  0  0  0999 V2000
   23.2695    8.3717   52.9956 N   0  0  0  0  0  0  0  0  0  0  0  0
   24.4372    7.6751   53.3738 C   0  0  0  0  0  0  0  0  0  0  0  0
   24.6693    6.5601   52.8234 O   0  0  0  0  0  0  0  0  0  0  0  0
   23.0676    9.2866   53.4389 H   0  0  0  0  0  0  0  0  0  0  0  0
   25.3565    8.1975   54.3574 C   0  0  0  0  0  0  0  0  0  0  0  0
   24.8341    8.8596   55.4608 C   0  0  0  0  0  0  0  0  0  0  0  0
   25.6545    9.3808   56.4335 C   0  0  0  0  0  0  0  0  0  0  0  0
   27.0236    9.2651   56.3488 C   0  0  0  0  0  0  0  0  0  0  0  0
   27.5422    8.6118   55.2604 C   0  0  0  0  0  0  0  0  0  0  0  0
   26.7069    8.0853   54.2772 C   0  0  0  0  0  0  0  0  0  0  0  0
   27.9044    9.8138   57.3745 C   0  0  0  0  0  0  0  0  0  0  0  0
   28.3392    8.9834   58.4380 N   0  0  0  0  0  0  0  0  0  0  0  0
   28.2990   11.0005   57.3575 O   0  0  0  0  0  0  0  0  0  0  0  0
   29.1715    8.3345   58.3077 H   0  0  0  0  0  0  0  0  0  0  0  0
   27.8690    8.9754   59.3739 H   0  0  0  0  0  0  0  0  0  0  0  0
   22.3907    7.7830   51.9983 C   0  0  0  0  0  0  0  0  0  0  0  0
   19.9609    5.5373   53.4787 C   0  0  0  0  0  0  0  0  0  0  0  0
   19.3172    6.7533   53.5932 C   0  0  0  0  0  0  0  0  0  0  0  0
   20.1135    7.6656   53.0809 O   0  0  0  0  0  0  0  0  0  0  0  0
   21.2246    7.1250   52.6444 C   0  0  0  0  0  0  0  0  0  0  0  0
   21.1333    5.8108   52.8886 N   0  0  0  0  0  0  0  0  0  0  0  0
   17.9925    4.1801   54.0599 C   0  0  0  0  0  0  0  0  0  0  0  0
   19.4967    4.1934   53.9020 C   0  0  0  0  0  0  0  0  0  0  0  0
   19.8287    3.1616   52.8185 C   0  0  0  0  0  0  0  0  0  0  0  0
 22 23  1  0  0  0
 23 24  1  0  0  0
 23 17  1  0  0  0
 17 18  2  0  0  0
 18 19  1  0  0  0
 19 20  1  0  0  0
 20 16  1  0  0  0
 16  1  1  0  0  0
  1  2  1  0  0  0
  2  3  2  0  0  0
  2  5  1  0  0  0
  5  6  2  0  0  0
  6  7  1  0  0  0
  7  8  2  0  0  0
  8  9  1  0  0  0
  9 10  2  0  0  0
  8 11  1  0  0  0
 11 12  1  0  0  0
 11 13  2  0  0  0
 20 21  2  0  0  0
 21 17  1  0  0  0
 10  5  1  0  0  0
  1  4  1  0  0  0
 12 14  1  0  0  0
 12 15  1  0  0  0
M  END
> <minimizedAffinity>
7.96159

> <CNNscore>
0.5596511960

> <CNNaffinity>
5.4795179367

> <CNN_VS>
3.0666186810

> <CNNaffinity_variance>
0.0836920291

$$$$
[H]c1oc(C([H])([H])N([H])C(=O)c2c([H])c([H])c(C(=O)N([H])[H])c([H])c2[H])nc1C([H])(C([H])([H])[H])C([H])([H])[H]


 24 25  0  0  0  0  0  0  0  0999 V2000
   24.0961    6.9509   53.1548 N   0  0  0  0  0  0  0  0  0  0  0  0
   23.9139    7.7659   54.2926 C   0  0  0  0  0  0  0  0  0  0  0  0
   22.7301    8.0250   54.6554 O   0  0  0  0  0  0  0  0  0  0  0  0
   25.0610    6.7309   52.8470 H   0  0  0  0  0  0  0  0  0  0  0  0
   25.0287    8.3009   55.0385 C   0  0  0  0  0  0  0  0  0  0  0  0
   24.7610    9.1505   56.1039 C   0  0  0  0  0  0  0  0  0  0  0  0
   25.7768    9.6940   56.8547 C   0  0  0  0  0  0  0  0  0  0  0  0
   27.0961    9.4157   56.5773 C   0  0  0  0  0  0  0  0  0  0  0  0
   27.3634    8.5769   55.5259 C   0  0  0  0  0  0  0  0  0  0  0  0
   26.3308    8.0285   54.7680 C   0  0  0  0  0  0  0  0  0  0  0  0
   28.1825    9.9862   57.3667 C   0  0  0  0  0  0  0  0  0  0  0  0
   28.8953    9.1605   58.2722 N   0  0  0  0  0  0  0  0  0  0  0  0
   28.5183   11.1878   57.2791 O   0  0  0  0  0  0  0  0  0  0  0  0
   29.6923    8.5470   57.9270 H   0  0  0  0  0  0  0  0  0  0  0  0
   28.6710    9.1221   59.2945 H   0  0  0  0  0  0  0  0  0  0  0  0
   22.9254    6.4485   52.4543 C   0  0  0  0  0  0  0  0  0  0  0  0
   21.1795    9.5864   51.9603 C   0  0  0  0  0  0  0  0  0  0  0  0
   20.4565    8.7381   51.1457 C   0  0  0  0  0  0  0  0  0  0  0  0
   21.0032    7.5461   51.2410 O   0  0  0  0  0  0  0  0  0  0  0  0
   22.0271    7.5651   52.0587 C   0  0  0  0  0  0  0  0  0  0  0  0
   22.1384    8.8237   52.5046 N   0  0  0  0  0  0  0  0  0  0  0  0
   21.4510   11.4006   53.6003 C   0  0  0  0  0  0  0  0  0  0  0  0
   20.9775   11.0345   52.2113 C   0  0  0  0  0  0  0  0  0  0  0  0
   21.8240   11.8565   51.2332 C   0  0  0  0  0  0  0  0  0  0  0  0
 22 23  1  0  0  0
 23 24  1  0  0  0
 23 17  1  0  0  0
 17 18  2  0  0  0
 18 19  1  0  0  0
 19 20  1  0  0  0
 20 16  1  0  0  0
 16  1  1  0  0  0
  1  2  1  0  0  0
  2  3  2  0  0  0
  2  5  1  0  0  0
  5  6  2  0  0  0
  6  7  1  0  0  0
  7  8  2  0  0  0
  8  9  1  0  0  0
  9 10  2  0  0  0
  8 11  1  0  0  0
 11 12  1  0  0  0
 11 13  2  0  0  0
 20 21  2  0  0  0
 21 17  1  0  0  0
 10  5  1  0  0  0
  1  4  1  0  0  0
 12 14  1  0  0  0
 12 15  1  0  0  0
M  END
> <minimizedAffinity>
7.76397

> <CNNscore>
0.5596076250

> <CNNaffinity>
5.2804422379

> <CNN_VS>
2.9549758434

> <CNNaffinity_variance>
0.0429660939

$$$$
[H]OC(=O)c1c([H])c(C([H])([H])C([H])([H])[H])c(-c2nc(-c3c([H])c([H])c([H])c([H])c3Cl)c(Cl)c([H])c2[H])c([H])c1C([H])([H])[H]


 27 29  0  0  0  0  0  0  0  0999 V2000
   22.5367    8.2200   53.2163 C   0  0  0  0  0  0  0  0  0  0  0  0
   22.0405    7.0932   53.7637 C   0  0  0  0  0  0  0  0  0  0  0  0
   22.7887    6.2328   54.5774 C   0  0  0  0  0  0  0  0  0  0  0  0
   24.0998    6.5199   54.8563 C   0  0  0  0  0  0  0  0  0  0  0  0
   25.0568    5.4648   55.8681 Cl  0  0  0  0  0  0  0  0  0  0  0  0
   24.6143    7.6856   54.2932 C   0  0  0  0  0  0  0  0  0  0  0  0
   23.8631    8.4655   53.5290 N   0  0  0  0  0  0  0  0  0  0  0  0
   20.9310    9.0094   51.4225 C   0  0  0  0  0  0  0  0  0  0  0  0
   20.4261   10.0938   50.6775 C   0  0  0  0  0  0  0  0  0  0  0  0
   20.8131   11.3904   50.8811 C   0  0  0  0  0  0  0  0  0  0  0  0
   21.7424   11.6027   51.8710 C   0  0  0  0  0  0  0  0  0  0  0  0
   22.2003   13.0023   52.1351 C   0  0  0  0  0  0  0  0  0  0  0  0
   22.2448   10.5616   52.6067 C   0  0  0  0  0  0  0  0  0  0  0  0
   21.8532    9.2151   52.4078 C   0  0  0  0  0  0  0  0  0  0  0  0
   20.2665   12.4904   50.0867 C   0  0  0  0  0  0  0  0  0  0  0  0
   19.7117   12.3331   48.8501 O   0  0  0  0  0  0  0  0  0  0  0  0
   20.2875   13.6879   50.5357 O   0  0  0  0  0  0  0  0  0  0  0  0
   20.1313   12.7621   48.0360 H   0  0  0  0  0  0  0  0  0  0  0  0
   19.7134    7.0149   52.2630 C   0  0  0  0  0  0  0  0  0  0  0  0
   20.4715    7.6454   51.0974 C   0  0  0  0  0  0  0  0  0  0  0  0
   26.0100    7.9587   54.6112 C   0  0  0  0  0  0  0  0  0  0  0  0
   27.0618    7.3592   53.9606 C   0  0  0  0  0  0  0  0  0  0  0  0
   28.3866    7.6557   54.2906 C   0  0  0  0  0  0  0  0  0  0  0  0
   28.6559    8.5645   55.2852 C   0  0  0  0  0  0  0  0  0  0  0  0
   27.6253    9.1668   55.9390 C   0  0  0  0  0  0  0  0  0  0  0  0
   26.3026    8.8627   55.6010 C   0  0  0  0  0  0  0  0  0  0  0  0
   25.0749    9.6965   56.5228 Cl  0  0  0  0  0  0  0  0  0  0  0  0
 19 20  1  0  0  0
 20  8  1  0  0  0
  8  9  2  0  0  0
  9 10  1  0  0  0
 10 11  2  0  0  0
 11 12  1  0  0  0
 11 13  1  0  0  0
 13 14  2  0  0  0
 14  1  1  0  0  0
  1  2  2  0  0  0
  2  3  1  0  0  0
  3  4  2  0  0  0
  4  5  1  0  0  0
  4  6  1  0  0  0
  6  7  2  0  0  0
  6 21  1  0  0  0
 21 22  2  0  0  0
 22 23  1  0  0  0
 23 24  2  0  0  0
 24 25  1  0  0  0
 25 26  2  0  0  0
 26 27  1  0  0  0
 10 15  1  0  0  0
 15 16  1  0  0  0
 15 17  2  0  0  0
 14  8  1  0  0  0
  7  1  1  0  0  0
 26 21  1  0  0  0
 16 18  1  0  0  0
M  END
> <minimizedAffinity>
28.94347

> <CNNscore>
0.5414022207

> <CNNaffinity>
6.0444569588

> <CNN_VS>
3.2724823952

> <CNNaffinity_variance>
0.5106217861

$$$$
[H]OC(=O)c1c([H])c(C([H])([H])C([H])([H])[H])c(-c2nc(-c3c([H])c([H])c([H])c([H])c3Cl)c(Cl)c([H])c2[H])c([H])c1C([H])([H])[H]


 27 29  0  0  0  0  0  0  0  0999 V2000
   25.0232    8.1807   54.1565 C   0  0  0  0  0  0  0  0  0  0  0  0
   26.0598    7.5983   53.5225 C   0  0  0  0  0  0  0  0  0  0  0  0
   27.4007    7.8331   53.8528 C   0  0  0  0  0  0  0  0  0  0  0  0
   27.7154    8.6943   54.8720 C   0  0  0  0  0  0  0  0  0  0  0  0
   29.3790    9.0060   55.3056 Cl  0  0  0  0  0  0  0  0  0  0  0  0
   26.6452    9.2958   55.5304 C   0  0  0  0  0  0  0  0  0  0  0  0
   25.3936    9.0395   55.1776 N   0  0  0  0  0  0  0  0  0  0  0  0
   22.8275    6.9340   54.3652 C   0  0  0  0  0  0  0  0  0  0  0  0
   21.4686    6.8574   53.9998 C   0  0  0  0  0  0  0  0  0  0  0  0
   20.8456    7.7950   53.2218 C   0  0  0  0  0  0  0  0  0  0  0  0
   21.6191    8.8481   52.7963 C   0  0  0  0  0  0  0  0  0  0  0  0
   20.9873    9.9018   51.9426 C   0  0  0  0  0  0  0  0  0  0  0  0
   22.9421    8.9408   53.1414 C   0  0  0  0  0  0  0  0  0  0  0  0
   23.5998    7.9788   53.9463 C   0  0  0  0  0  0  0  0  0  0  0  0
   19.4322    7.6809   52.8628 C   0  0  0  0  0  0  0  0  0  0  0  0
   18.4474    7.3473   53.7464 O   0  0  0  0  0  0  0  0  0  0  0  0
   19.0482    7.8969   51.6619 O   0  0  0  0  0  0  0  0  0  0  0  0
   17.9162    6.4943   53.6320 H   0  0  0  0  0  0  0  0  0  0  0  0
   23.8357    4.6652   54.3161 C   0  0  0  0  0  0  0  0  0  0  0  0
   23.4092    5.8498   55.1796 C   0  0  0  0  0  0  0  0  0  0  0  0
   27.0172   10.2042   56.6074 C   0  0  0  0  0  0  0  0  0  0  0  0
   26.7778   11.5570   56.5681 C   0  0  0  0  0  0  0  0  0  0  0  0
   27.1430   12.3924   57.6267 C   0  0  0  0  0  0  0  0  0  0  0  0
   27.7554   11.8614   58.7360 C   0  0  0  0  0  0  0  0  0  0  0  0
   27.9996   10.5236   58.7903 C   0  0  0  0  0  0  0  0  0  0  0  0
   27.6301    9.6960   57.7249 C   0  0  0  0  0  0  0  0  0  0  0  0
   28.0092    8.0014   57.9159 Cl  0  0  0  0  0  0  0  0  0  0  0  0
 19 20  1  0  0  0
 20  8  1  0  0  0
  8  9  2  0  0  0
  9 10  1  0  0  0
 10 11  2  0  0  0
 11 12  1  0  0  0
 11 13  1  0  0  0
 13 14  2  0  0  0
 14  1  1  0  0  0
  1  2  2  0  0  0
  2  3  1  0  0  0
  3  4  2  0  0  0
  4  5  1  0  0  0
  4  6  1  0  0  0
  6  7  2  0  0  0
  6 21  1  0  0  0
 21 22  2  0  0  0
 22 23  1  0  0  0
 23 24  2  0  0  0
 24 25  1  0  0  0
 25 26  2  0  0  0
 26 27  1  0  0  0
 10 15  1  0  0  0
 15 16  1  0  0  0
 15 17  2  0  0  0
 14  8  1  0  0  0
  7  1  1  0  0  0
 26 21  1  0  0  0
 16 18  1  0  0  0
M  END
> <minimizedAffinity>
23.55629

> <CNNscore>
0.5284831524

> <CNNaffinity>
6.0134572983

> <CNN_VS>
3.1780109406

> <CNNaffinity_variance>
0.3578347564

$$$$
[H]OC(=O)c1c([H])c(C([H])([H])C([H])([H])[H])c(-c2nc(-c3c([H])c([H])c([H])c([H])c3Cl)c(Cl)c([H])c2[H])c([H])c1C([H])([H])[H]


 27 29  0  0  0  0  0  0  0  0999 V2000
   24.9665    8.2666   54.2929 C   0  0  0  0  0  0  0  0  0  0  0  0
   25.9753    7.8190   53.5198 C   0  0  0  0  0  0  0  0  0  0  0  0
   27.3238    8.1123   53.7595 C   0  0  0  0  0  0  0  0  0  0  0  0
   27.6763    8.8925   54.8303 C   0  0  0  0  0  0  0  0  0  0  0  0
   29.3504    9.2743   55.1534 Cl  0  0  0  0  0  0  0  0  0  0  0  0
   26.6352    9.3543   55.6323 C   0  0  0  0  0  0  0  0  0  0  0  0
   25.3746    9.0480   55.3608 N   0  0  0  0  0  0  0  0  0  0  0  0
   22.5009    8.7750   54.5775 C   0  0  0  0  0  0  0  0  0  0  0  0
   21.1747    8.3109   54.4690 C   0  0  0  0  0  0  0  0  0  0  0  0
   20.8484    7.0767   53.9764 C   0  0  0  0  0  0  0  0  0  0  0  0
   21.8957    6.2809   53.5785 C   0  0  0  0  0  0  0  0  0  0  0  0
   21.5945    4.9211   53.0321 C   0  0  0  0  0  0  0  0  0  0  0  0
   23.1920    6.7143   53.6755 C   0  0  0  0  0  0  0  0  0  0  0  0
   23.5447    7.9889   54.1824 C   0  0  0  0  0  0  0  0  0  0  0  0
   19.4590    6.6296   53.8795 C   0  0  0  0  0  0  0  0  0  0  0  0
   18.3854    7.4714   53.9063 O   0  0  0  0  0  0  0  0  0  0  0  0
   19.1842    5.3860   53.7616 O   0  0  0  0  0  0  0  0  0  0  0  0
   17.7085    7.4236   54.6561 H   0  0  0  0  0  0  0  0  0  0  0  0
   21.5603   11.0468   54.9256 C   0  0  0  0  0  0  0  0  0  0  0  0
   22.7440   10.1105   55.1560 C   0  0  0  0  0  0  0  0  0  0  0  0
   27.0470   10.1798   56.7605 C   0  0  0  0  0  0  0  0  0  0  0  0
   26.8435   11.5380   56.8138 C   0  0  0  0  0  0  0  0  0  0  0  0
   27.2462   12.2920   57.9189 C   0  0  0  0  0  0  0  0  0  0  0  0
   27.8601   11.6733   58.9809 C   0  0  0  0  0  0  0  0  0  0  0  0
   28.0689   10.3289   58.9434 C   0  0  0  0  0  0  0  0  0  0  0  0
   27.6620    9.5833   57.8322 C   0  0  0  0  0  0  0  0  0  0  0  0
   27.9981    7.8705   57.9055 Cl  0  0  0  0  0  0  0  0  0  0  0  0
 19 20  1  0  0  0
 20  8  1  0  0  0
  8  9  2  0  0  0
  9 10  1  0  0  0
 10 11  2  0  0  0
 11 12  1  0  0  0
 11 13  1  0  0  0
 13 14  2  0  0  0
 14  1  1  0  0  0
  1  2  2  0  0  0
  2  3  1  0  0  0
  3  4  2  0  0  0
  4  5  1  0  0  0
  4  6  1  0  0  0
  6  7  2  0  0  0
  6 21  1  0  0  0
 21 22  2  0  0  0
 22 23  1  0  0  0
 23 24  2  0  0  0
 24 25  1  0  0  0
 25 26  2  0  0  0
 26 27  1  0  0  0
 10 15  1  0  0  0
 15 16  1  0  0  0
 15 17  2  0  0  0
 14  8  1  0  0  0
  7  1  1  0  0  0
 26 21  1  0  0  0
 16 18  1  0  0  0
M  END
> <minimizedAffinity>
23.78418

> <CNNscore>
0.4812135994

> <CNNaffinity>
6.0121440887

> <CNN_VS>
2.8931255341

> <CNNaffinity_variance>
0.1840333045

$$$$
[H]OC(=O)c1c([H])c(C([H])([H])C([H])([H])[H])c(-c2nc(-c3c([H])c([H])c([H])c([H])c3Cl)c(Cl)c([H])c2[H])c([H])c1C([H])([H])[H]


 27 29  0  0  0  0  0  0  0  0999 V2000
   24.9641    8.3424   53.8977 C   0  0  0  0  0  0  0  0  0  0  0  0
   25.8433    8.3535   52.8767 C   0  0  0  0  0  0  0  0  0  0  0  0
   27.1979    8.6781   53.0244 C   0  0  0  0  0  0  0  0  0  0  0  0
   27.6939    9.0060   54.2597 C   0  0  0  0  0  0  0  0  0  0  0  0
   29.3790    9.4151   54.4734 Cl  0  0  0  0  0  0  0  0  0  0  0  0
   26.7871    8.9930   55.3171 C   0  0  0  0  0  0  0  0  0  0  0  0
   25.5142    8.6790   55.1231 N   0  0  0  0  0  0  0  0  0  0  0  0
   22.4838    8.7396   54.2289 C   0  0  0  0  0  0  0  0  0  0  0  0
   21.1858    8.1908   54.2340 C   0  0  0  0  0  0  0  0  0  0  0  0
   20.9187    6.8899   53.9045 C   0  0  0  0  0  0  0  0  0  0  0  0
   21.9979    6.1133   53.5570 C   0  0  0  0  0  0  0  0  0  0  0  0
   21.7615    4.6828   53.1877 C   0  0  0  0  0  0  0  0  0  0  0  0
   23.2676    6.6286   53.5454 C   0  0  0  0  0  0  0  0  0  0  0  0
   23.5590    7.9728   53.8832 C   0  0  0  0  0  0  0  0  0  0  0  0
   19.5570    6.3557   53.9219 C   0  0  0  0  0  0  0  0  0  0  0  0
   18.4352    7.1325   53.9236 O   0  0  0  0  0  0  0  0  0  0  0  0
   19.3556    5.0927   53.9369 O   0  0  0  0  0  0  0  0  0  0  0  0
   17.7974    7.1192   54.7083 H   0  0  0  0  0  0  0  0  0  0  0  0
   21.7122   11.0750   53.8864 C   0  0  0  0  0  0  0  0  0  0  0  0
   22.6649   10.1464   54.6354 C   0  0  0  0  0  0  0  0  0  0  0  0
   27.3494    9.3463   56.6143 C   0  0  0  0  0  0  0  0  0  0  0  0
   28.0011    8.4463   57.4230 C   0  0  0  0  0  0  0  0  0  0  0  0
   28.5336    8.8284   58.6569 C   0  0  0  0  0  0  0  0  0  0  0  0
   28.4090   10.1291   59.0814 C   0  0  0  0  0  0  0  0  0  0  0  0
   27.7662   11.0325   58.2922 C   0  0  0  0  0  0  0  0  0  0  0  0
   27.2365   10.6396   57.0587 C   0  0  0  0  0  0  0  0  0  0  0  0
   26.4275   11.8923   56.1486 Cl  0  0  0  0  0  0  0  0  0  0  0  0
 19 20  1  0  0  0
 20  8  1  0  0  0
  8  9  2  0  0  0
  9 10  1  0  0  0
 10 11  2  0  0  0
 11 12  1  0  0  0
 11 13  1  0  0  0
 13 14  2  0  0  0
 14  1  1  0  0  0
  1  2  2  0  0  0
  2  3  1  0  0  0
  3  4  2  0  0  0
  4  5  1  0  0  0
  4  6  1  0  0  0
  6  7  2  0  0  0
  6 21  1  0  0  0
 21 22  2  0  0  0
 22 23  1  0  0  0
 23 24  2  0  0  0
 24 25  1  0  0  0
 25 26  2  0  0  0
 26 27  1  0  0  0
 10 15  1  0  0  0
 15 16  1  0  0  0
 15 17  2  0  0  0
 14  8  1  0  0  0
  7  1  1  0  0  0
 26 21  1  0  0  0
 16 18  1  0  0  0
M  END
> <minimizedAffinity>
22.13735

> <CNNscore>
0.4464914203

> <CNNaffinity>
5.9048261642

> <CNN_VS>
2.6364541054

> <CNNaffinity_variance>
0.1667462140

$$$$
[H]OC(=O)c1c([H])c(C([H])([H])C([H])([H])[H])c(-c2nc(-c3c([H])c([H])c([H])c([H])c3Cl)c(Cl)c([H])c2[H])c([H])c1C([H])([H])[H]


 27 29  0  0  0  0  0  0  0  0999 V2000
   23.1546    8.0074   52.8793 C   0  0  0  0  0  0  0  0  0  0  0  0
   22.2327    7.0834   52.5449 C   0  0  0  0  0  0  0  0  0  0  0  0
   21.0096    7.3942   51.9370 C   0  0  0  0  0  0  0  0  0  0  0  0
   20.6983    8.6979   51.6492 C   0  0  0  0  0  0  0  0  0  0  0  0
   19.1803    9.1147   50.8912 Cl  0  0  0  0  0  0  0  0  0  0  0  0
   21.6511    9.6547   51.9919 C   0  0  0  0  0  0  0  0  0  0  0  0
   22.7936    9.3072   52.5668 N   0  0  0  0  0  0  0  0  0  0  0  0
   24.8158    7.0168   54.5159 C   0  0  0  0  0  0  0  0  0  0  0  0
   26.1389    7.0053   55.0008 C   0  0  0  0  0  0  0  0  0  0  0  0
   27.1428    7.7643   54.4637 C   0  0  0  0  0  0  0  0  0  0  0  0
   26.8020    8.5640   53.3994 C   0  0  0  0  0  0  0  0  0  0  0  0
   27.8622    9.4146   52.7744 C   0  0  0  0  0  0  0  0  0  0  0  0
   25.5211    8.5888   52.9129 C   0  0  0  0  0  0  0  0  0  0  0  0
   24.4724    7.8084   53.4580 C   0  0  0  0  0  0  0  0  0  0  0  0
   28.5051    7.7258   54.9951 C   0  0  0  0  0  0  0  0  0  0  0  0
   28.9731    8.5795   55.9511 O   0  0  0  0  0  0  0  0  0  0  0  0
   29.3434    6.8585   54.5695 O   0  0  0  0  0  0  0  0  0  0  0  0
   29.7241    9.2251   55.7460 H   0  0  0  0  0  0  0  0  0  0  0  0
   23.3223    5.0451   54.2958 C   0  0  0  0  0  0  0  0  0  0  0  0
   23.8014    6.1850   55.1913 C   0  0  0  0  0  0  0  0  0  0  0  0
   21.2865   11.0287   51.6712 C   0  0  0  0  0  0  0  0  0  0  0  0
   21.0091   11.4559   50.3948 C   0  0  0  0  0  0  0  0  0  0  0  0
   20.6547   12.7814   50.1312 C   0  0  0  0  0  0  0  0  0  0  0  0
   20.5789   13.6862   51.1623 C   0  0  0  0  0  0  0  0  0  0  0  0
   20.8507   13.2788   52.4321 C   0  0  0  0  0  0  0  0  0  0  0  0
   21.2047   11.9495   52.6851 C   0  0  0  0  0  0  0  0  0  0  0  0
   21.5382   11.5597   54.3552 Cl  0  0  0  0  0  0  0  0  0  0  0  0
 19 20  1  0  0  0
 20  8  1  0  0  0
  8  9  2  0  0  0
  9 10  1  0  0  0
 10 11  2  0  0  0
 11 12  1  0  0  0
 11 13  1  0  0  0
 13 14  2  0  0  0
 14  1  1  0  0  0
  1  2  2  0  0  0
  2  3  1  0  0  0
  3  4  2  0  0  0
  4  5  1  0  0  0
  4  6  1  0  0  0
  6  7  2  0  0  0
  6 21  1  0  0  0
 21 22  2  0  0  0
 22 23  1  0  0  0
 23 24  2  0  0  0
 24 25  1  0  0  0
 25 26  2  0  0  0
 26 27  1  0  0  0
 10 15  1  0  0  0
 15 16  1  0  0  0
 15 17  2  0  0  0
 14  8  1  0  0  0
  7  1  1  0  0  0
 26 21  1  0  0  0
 16 18  1  0  0  0
M  END
> <minimizedAffinity>
30.76811

> <CNNscore>
0.4255877435

> <CNNaffinity>
5.8741102219

> <CNN_VS>
2.4999492168

> <CNNaffinity_variance>
0.4372161031

$$$$
[H]OC(=O)c1c([H])c(C([H])([H])C([H])([H])[H])c(-c2nc(-c3c([H])c([H])c([H])c([H])c3Cl)c(Cl)c([H])c2[H])c([H])c1C([H])([H])[H]


 27 29  0  0  0  0  0  0  0  0999 V2000
   22.0550    8.4019   54.6620 C   0  0  0  0  0  0  0  0  0  0  0  0
   21.6009    9.6177   55.0241 C   0  0  0  0  0  0  0  0  0  0  0  0
   22.4321   10.6546   55.4670 C   0  0  0  0  0  0  0  0  0  0  0  0
   23.7868   10.4607   55.5483 C   0  0  0  0  0  0  0  0  0  0  0  0
   24.8473   11.7361   56.0972 Cl  0  0  0  0  0  0  0  0  0  0  0  0
   24.2587    9.2052   55.1721 C   0  0  0  0  0  0  0  0  0  0  0  0
   23.4287    8.2574   54.7605 N   0  0  0  0  0  0  0  0  0  0  0  0
   20.6109    7.1943   52.9662 C   0  0  0  0  0  0  0  0  0  0  0  0
   19.8692    6.0386   52.6499 C   0  0  0  0  0  0  0  0  0  0  0  0
   19.7953    4.9454   53.4696 C   0  0  0  0  0  0  0  0  0  0  0  0
   20.4938    5.0187   54.6508 C   0  0  0  0  0  0  0  0  0  0  0  0
   20.4469    3.8503   55.5842 C   0  0  0  0  0  0  0  0  0  0  0  0
   21.2212    6.1334   54.9762 C   0  0  0  0  0  0  0  0  0  0  0  0
   21.3075    7.2716   54.1377 C   0  0  0  0  0  0  0  0  0  0  0  0
   19.0141    3.7631   53.1069 C   0  0  0  0  0  0  0  0  0  0  0  0
   19.4794    2.7597   52.3077 O   0  0  0  0  0  0  0  0  0  0  0  0
   17.8195    3.6167   53.5399 O   0  0  0  0  0  0  0  0  0  0  0  0
   19.0474    2.5673   51.4137 H   0  0  0  0  0  0  0  0  0  0  0  0
   21.9667    8.9927   51.9201 C   0  0  0  0  0  0  0  0  0  0  0  0
   20.5947    8.3316   52.0262 C   0  0  0  0  0  0  0  0  0  0  0  0
   25.7027    9.0354   55.2711 C   0  0  0  0  0  0  0  0  0  0  0  0
   26.4227    9.3520   56.3981 C   0  0  0  0  0  0  0  0  0  0  0  0
   27.8061    9.1657   56.4548 C   0  0  0  0  0  0  0  0  0  0  0  0
   28.4719    8.6559   55.3665 C   0  0  0  0  0  0  0  0  0  0  0  0
   27.7732    8.3374   54.2428 C   0  0  0  0  0  0  0  0  0  0  0  0
   26.3883    8.5280   54.1964 C   0  0  0  0  0  0  0  0  0  0  0  0
   25.6138    8.0893   52.6931 Cl  0  0  0  0  0  0  0  0  0  0  0  0
 19 20  1  0  0  0
 20  8  1  0  0  0
  8  9  2  0  0  0
  9 10  1  0  0  0
 10 11  2  0  0  0
 11 12  1  0  0  0
 11 13  1  0  0  0
 13 14  2  0  0  0
 14  1  1  0  0  0
  1  2  2  0  0  0
  2  3  1  0  0  0
  3  4  2  0  0  0
  4  5  1  0  0  0
  4  6  1  0  0  0
  6  7  2  0  0  0
  6 21  1  0  0  0
 21 22  2  0  0  0
 22 23  1  0  0  0
 23 24  2  0  0  0
 24 25  1  0  0  0
 25 26  2  0  0  0
 26 27  1  0  0  0
 10 15  1  0  0  0
 15 16  1  0  0  0
 15 17  2  0  0  0
 14  8  1  0  0  0
  7  1  1  0  0  0
 26 21  1  0  0  0
 16 18  1  0  0  0
M  END
> <minimizedAffinity>
29.23915

> <CNNscore>
0.4096866250

> <CNNaffinity>
6.0858688354

> <CNN_VS>
2.4932990074

> <CNNaffinity_variance>
0.3373820186

$$$$
[H]OC(=O)c1c([H])c(C([H])([H])C([H])([H])[H])c(-c2nc(-c3c([H])c([H])c([H])c([H])c3Cl)c(Cl)c([H])c2[H])c([H])c1C([H])([H])[H]


 27 29  0  0  0  0  0  0  0  0999 V2000
   23.6353    8.3870   53.9298 C   0  0  0  0  0  0  0  0  0  0  0  0
   23.1338    7.2042   53.5238 C   0  0  0  0  0  0  0  0  0  0  0  0
   22.1334    7.0797   52.5512 C   0  0  0  0  0  0  0  0  0  0  0  0
   21.6127    8.1994   51.9557 C   0  0  0  0  0  0  0  0  0  0  0  0
   20.3644    8.0741   50.7396 Cl  0  0  0  0  0  0  0  0  0  0  0  0
   22.1315    9.4233   52.3721 C   0  0  0  0  0  0  0  0  0  0  0  0
   23.0780    9.4858   53.2977 N   0  0  0  0  0  0  0  0  0  0  0  0
   24.6185    9.2640   56.0939 C   0  0  0  0  0  0  0  0  0  0  0  0
   25.7784    9.5032   56.8577 C   0  0  0  0  0  0  0  0  0  0  0  0
   27.0340    9.1427   56.4504 C   0  0  0  0  0  0  0  0  0  0  0  0
   27.1249    8.5185   55.2295 C   0  0  0  0  0  0  0  0  0  0  0  0
   28.4749    8.1032   54.7363 C   0  0  0  0  0  0  0  0  0  0  0  0
   26.0088    8.2764   54.4723 C   0  0  0  0  0  0  0  0  0  0  0  0
   24.7032    8.6430   54.8811 C   0  0  0  0  0  0  0  0  0  0  0  0
   28.2151    9.4085   57.2713 C   0  0  0  0  0  0  0  0  0  0  0  0
   28.8059    8.4796   58.0774 O   0  0  0  0  0  0  0  0  0  0  0  0
   28.7618   10.5649   57.2666 O   0  0  0  0  0  0  0  0  0  0  0  0
   28.8331    8.6066   59.0804 H   0  0  0  0  0  0  0  0  0  0  0  0
   22.1579    8.9433   55.9967 C   0  0  0  0  0  0  0  0  0  0  0  0
   23.3160    9.7255   56.6114 C   0  0  0  0  0  0  0  0  0  0  0  0
   21.5548   10.5908   51.7179 C   0  0  0  0  0  0  0  0  0  0  0  0
   21.0612   10.5683   50.4354 C   0  0  0  0  0  0  0  0  0  0  0  0
   20.5082   11.7089   49.8477 C   0  0  0  0  0  0  0  0  0  0  0  0
   20.4515   12.8839   50.5574 C   0  0  0  0  0  0  0  0  0  0  0  0
   20.9362   12.9226   51.8286 C   0  0  0  0  0  0  0  0  0  0  0  0
   21.4880   11.7751   52.4076 C   0  0  0  0  0  0  0  0  0  0  0  0
   22.0831   11.9619   54.0395 Cl  0  0  0  0  0  0  0  0  0  0  0  0
 19 20  1  0  0  0
 20  8  1  0  0  0
  8  9  2  0  0  0
  9 10  1  0  0  0
 10 11  2  0  0  0
 11 12  1  0  0  0
 11 13  1  0  0  0
 13 14  2  0  0  0
 14  1  1  0  0  0
  1  2  2  0  0  0
  2  3  1  0  0  0
  3  4  2  0  0  0
  4  5  1  0  0  0
  4  6  1  0  0  0
  6  7  2  0  0  0
  6 21  1  0  0  0
 21 22  2  0  0  0
 22 23  1  0  0  0
 23 24  2  0  0  0
 24 25  1  0  0  0
 25 26  2  0  0  0
 26 27  1  0  0  0
 10 15  1  0  0  0
 15 16  1  0  0  0
 15 17  2  0  0  0
 14  8  1  0  0  0
  7  1  1  0  0  0
 26 21  1  0  0  0
 16 18  1  0  0  0
M  END
> <minimizedAffinity>
27.79266

> <CNNscore>
0.3977940083

> <CNNaffinity>
6.1630783081

> <CNN_VS>
2.4516355991

> <CNNaffinity_variance>
0.2490451038

$$$$
[H]OC(=O)c1c([H])c(C([H])([H])C([H])([H])[H])c(-c2nc(-c3c([H])c([H])c([H])c([H])c3Cl)c(Cl)c([H])c2[H])c([H])c1C([H])([H])[H]


 27 29  0  0  0  0  0  0  0  0999 V2000
   25.2190    7.9849   53.7239 C   0  0  0  0  0  0  0  0  0  0  0  0
   25.9758    8.2124   54.8153 C   0  0  0  0  0  0  0  0  0  0  0  0
   27.2507    8.7906   54.7671 C   0  0  0  0  0  0  0  0  0  0  0  0
   27.7911    9.1603   53.5626 C   0  0  0  0  0  0  0  0  0  0  0  0
   29.3790    9.8837   53.4726 Cl  0  0  0  0  0  0  0  0  0  0  0  0
   27.0095    8.9283   52.4332 C   0  0  0  0  0  0  0  0  0  0  0  0
   25.8084    8.3769   52.5338 N   0  0  0  0  0  0  0  0  0  0  0  0
   23.4554    6.3017   53.0343 C   0  0  0  0  0  0  0  0  0  0  0  0
   22.0863    5.9712   52.9879 C   0  0  0  0  0  0  0  0  0  0  0  0
   21.1057    6.7519   53.5368 C   0  0  0  0  0  0  0  0  0  0  0  0
   21.5188    7.9075   54.1550 C   0  0  0  0  0  0  0  0  0  0  0  0
   20.4868    8.7979   54.7720 C   0  0  0  0  0  0  0  0  0  0  0  0
   22.8454    8.2462   54.2112 C   0  0  0  0  0  0  0  0  0  0  0  0
   23.8711    7.4479   53.6484 C   0  0  0  0  0  0  0  0  0  0  0  0
   19.6938    6.3755   53.4681 C   0  0  0  0  0  0  0  0  0  0  0  0
   19.2469    5.0871   53.5154 O   0  0  0  0  0  0  0  0  0  0  0  0
   18.7880    7.2717   53.3566 O   0  0  0  0  0  0  0  0  0  0  0  0
   18.7648    4.6769   52.7267 H   0  0  0  0  0  0  0  0  0  0  0  0
   24.6891    4.1540   53.2134 C   0  0  0  0  0  0  0  0  0  0  0  0
   24.4280    5.4059   52.3795 C   0  0  0  0  0  0  0  0  0  0  0  0
   27.6155    9.3337   51.1714 C   0  0  0  0  0  0  0  0  0  0  0  0
   27.5144   10.6061   50.6619 C   0  0  0  0  0  0  0  0  0  0  0  0
   28.1183   10.9562   49.4517 C   0  0  0  0  0  0  0  0  0  0  0  0
   28.8309   10.0166   48.7468 C   0  0  0  0  0  0  0  0  0  0  0  0
   28.9402    8.7520   49.2379 C   0  0  0  0  0  0  0  0  0  0  0  0
   28.3316    8.4118   50.4504 C   0  0  0  0  0  0  0  0  0  0  0  0
   28.5394    6.7546   50.9630 Cl  0  0  0  0  0  0  0  0  0  0  0  0
 19 20  1  0  0  0
 20  8  1  0  0  0
  8  9  2  0  0  0
  9 10  1  0  0  0
 10 11  2  0  0  0
 11 12  1  0  0  0
 11 13  1  0  0  0
 13 14  2  0  0  0
 14  1  1  0  0  0
  1  2  2  0  0  0
  2  3  1  0  0  0
  3  4  2  0  0  0
  4  5  1  0  0  0
  4  6  1  0  0  0
  6  7  2  0  0  0
  6 21  1  0  0  0
 21 22  2  0  0  0
 22 23  1  0  0  0
 23 24  2  0  0  0
 24 25  1  0  0  0
 25 26  2  0  0  0
 26 27  1  0  0  0
 10 15  1  0  0  0
 15 16  1  0  0  0
 15 17  2  0  0  0
 14  8  1  0  0  0
  7  1  1  0  0  0
 26 21  1  0  0  0
 16 18  1  0  0  0
M  END
> <minimizedAffinity>
39.04583

> <CNNscore>
0.3965471089

> <CNNaffinity>
5.7502346039

> <CNN_VS>
2.2802388668

> <CNNaffinity_variance>
0.3146049082

$$$$
[H]OC(=O)c1c([H])c(C([H])([H])C([H])([H])[H])c(-c2nc(-c3c([H])c([H])c([H])c([H])c3Cl)c(Cl)c([H])c2[H])c([H])c1C([H])([H])[H]


 27 29  0  0  0  0  0  0  0  0999 V2000
   21.4728    7.6982   54.4213 C   0  0  0  0  0  0  0  0  0  0  0  0
   21.9491    8.1106   55.6123 C   0  0  0  0  0  0  0  0  0  0  0  0
   22.3141    9.4355   55.8839 C   0  0  0  0  0  0  0  0  0  0  0  0
   22.1927   10.3936   54.9110 C   0  0  0  0  0  0  0  0  0  0  0  0
   22.6403   12.0537   55.2217 Cl  0  0  0  0  0  0  0  0  0  0  0  0
   21.6982    9.9699   53.6795 C   0  0  0  0  0  0  0  0  0  0  0  0
   21.3678    8.7029   53.4742 N   0  0  0  0  0  0  0  0  0  0  0  0
   21.7418    5.3506   53.5073 C   0  0  0  0  0  0  0  0  0  0  0  0
   21.1125    4.1534   53.1116 C   0  0  0  0  0  0  0  0  0  0  0  0
   19.7656    3.9396   53.2239 C   0  0  0  0  0  0  0  0  0  0  0  0
   19.0254    4.9690   53.7540 C   0  0  0  0  0  0  0  0  0  0  0  0
   17.5474    4.7876   53.8988 C   0  0  0  0  0  0  0  0  0  0  0  0
   19.6188    6.1406   54.1451 C   0  0  0  0  0  0  0  0  0  0  0  0
   21.0112    6.3756   54.0356 C   0  0  0  0  0  0  0  0  0  0  0  0
   19.1482    2.6826   52.8016 C   0  0  0  0  0  0  0  0  0  0  0  0
   17.8004    2.4746   52.7566 O   0  0  0  0  0  0  0  0  0  0  0  0
   19.8733    1.6913   52.4445 O   0  0  0  0  0  0  0  0  0  0  0  0
   17.3631    1.7824   53.3503 H   0  0  0  0  0  0  0  0  0  0  0  0
   23.9111    5.8336   54.6152 C   0  0  0  0  0  0  0  0  0  0  0  0
   23.1974    5.4902   53.3100 C   0  0  0  0  0  0  0  0  0  0  0  0
   21.5826   11.0148   52.6703 C   0  0  0  0  0  0  0  0  0  0  0  0
   21.8760   12.3348   52.9158 C   0  0  0  0  0  0  0  0  0  0  0  0
   21.7600   13.3047   51.9169 C   0  0  0  0  0  0  0  0  0  0  0  0
   21.3445   12.9429   50.6584 C   0  0  0  0  0  0  0  0  0  0  0  0
   21.0500   11.6397   50.3992 C   0  0  0  0  0  0  0  0  0  0  0  0
   21.1692   10.6765   51.4064 C   0  0  0  0  0  0  0  0  0  0  0  0
   20.7510    9.0439   50.9460 Cl  0  0  0  0  0  0  0  0  0  0  0  0
 19 20  1  0  0  0
 20  8  1  0  0  0
  8  9  2  0  0  0
  9 10  1  0  0  0
 10 11  2  0  0  0
 11 12  1  0  0  0
 11 13  1  0  0  0
 13 14  2  0  0  0
 14  1  1  0  0  0
  1  2  2  0  0  0
  2  3  1  0  0  0
  3  4  2  0  0  0
  4  5  1  0  0  0
  4  6  1  0  0  0
  6  7  2  0  0  0
  6 21  1  0  0  0
 21 22  2  0  0  0
 22 23  1  0  0  0
 23 24  2  0  0  0
 24 25  1  0  0  0
 25 26  2  0  0  0
 26 27  1  0  0  0
 10 15  1  0  0  0
 15 16  1  0  0  0
 15 17  2  0  0  0
 14  8  1  0  0  0
  7  1  1  0  0  0
 26 21  1  0  0  0
 16 18  1  0  0  0
M  END
> <minimizedAffinity>
36.45336

> <CNNscore>
0.3821282387

> <CNNaffinity>
5.7881650925

> <CNN_VS>
2.2118213177

> <CNNaffinity_variance>
0.6686955690

$$$$
[H]c1nc(N([H])c2c([H])c([H])c(OS(=O)(=O)N([H])C([H])([H])[H])c(Cl)c2[H])nc([H])c1-c1nn(C([H])([H])c2c([H])c([H])c([H])c([H])c2[H])c([H])c1[H]


 34 37  0  0  0  0  0  0  0  0999 V2000
   27.6082    9.0211   52.3432 C   0  0  0  0  0  0  0  0  0  0  0  0
   26.3822    8.9310   51.7296 N   0  0  0  0  0  0  0  0  0  0  0  0
   25.3377    8.4131   52.3857 C   0  0  0  0  0  0  0  0  0  0  0  0
   25.4764    7.9704   53.6656 C   0  0  0  0  0  0  0  0  0  0  0  0
   26.6901    8.0537   54.2888 C   0  0  0  0  0  0  0  0  0  0  0  0
   27.7043    8.5799   53.5893 N   0  0  0  0  0  0  0  0  0  0  0  0
   24.3212    7.4037   54.3750 C   0  0  0  0  0  0  0  0  0  0  0  0
   24.2133    6.0860   54.8125 C   0  0  0  0  0  0  0  0  0  0  0  0
   22.9902    5.9434   55.4294 C   0  0  0  0  0  0  0  0  0  0  0  0
   22.3780    7.1555   55.3613 N   0  0  0  0  0  0  0  0  0  0  0  0
   23.1886    7.9936   54.7341 N   0  0  0  0  0  0  0  0  0  0  0  0
   21.0604    7.3779   55.9154 C   0  0  0  0  0  0  0  0  0  0  0  0
   20.6346    8.7919   55.7989 C   0  0  0  0  0  0  0  0  0  0  0  0
   21.3410    9.6688   54.9862 C   0  0  0  0  0  0  0  0  0  0  0  0
   20.9553   11.0024   54.8642 C   0  0  0  0  0  0  0  0  0  0  0  0
   19.8558   11.4791   55.5547 C   0  0  0  0  0  0  0  0  0  0  0  0
   19.1472   10.6132   56.3657 C   0  0  0  0  0  0  0  0  0  0  0  0
   19.5423    9.2937   56.4760 C   0  0  0  0  0  0  0  0  0  0  0  0
   28.6889    9.5974   51.6551 N   0  0  0  0  0  0  0  0  0  0  0  0
   29.5396    9.9481   52.2055 H   0  0  0  0  0  0  0  0  0  0  0  0
   28.8363    9.8718   47.4686 C   0  0  0  0  0  0  0  0  0  0  0  0
   28.7968    8.6390   48.1130 C   0  0  0  0  0  0  0  0  0  0  0  0
   28.7366    8.5743   49.4790 C   0  0  0  0  0  0  0  0  0  0  0  0
   28.7140    9.7421   50.2493 C   0  0  0  0  0  0  0  0  0  0  0  0
   28.7528   10.9664   49.6449 C   0  0  0  0  0  0  0  0  0  0  0  0
   28.8138   11.0028   48.2402 C   0  0  0  0  0  0  0  0  0  0  0  0
   28.8617   12.5956   47.4848 Cl  0  0  0  0  0  0  0  0  0  0  0  0
   28.8971    9.9836   46.0858 O   0  0  0  0  0  0  0  0  0  0  0  0
   28.2715    8.7039   45.1595 S   0  0  0  0  0  0  0  0  0  0  0  0
   28.5380    9.0290   43.7066 O   0  0  0  0  0  0  0  0  0  0  0  0
   26.7806    8.5791   45.3051 O   0  0  0  0  0  0  0  0  0  0  0  0
   29.7544    7.3820   46.8437 C   0  0  0  0  0  0  0  0  0  0  0  0
   29.0053    7.2297   45.6226 N   0  0  0  0  0  0  0  0  0  0  0  0
   29.5555    6.8152   44.8498 H   0  0  0  0  0  0  0  0  0  0  0  0
 32 33  1  0  0  0
 33 29  1  0  0  0
 29 30  2  0  0  0
 29 31  2  0  0  0
 29 28  1  0  0  0
 28 21  1  0  0  0
 21 22  2  0  0  0
 22 23  1  0  0  0
 23 24  2  0  0  0
 24 19  1  0  0  0
 19  1  1  0  0  0
  1  2  2  0  0  0
  2  3  1  0  0  0
  3  4  2  0  0  0
  4  5  1  0  0  0
  5  6  2  0  0  0
  4  7  1  0  0  0
  7  8  1  0  0  0
  8  9  2  0  0  0
  9 10  1  0  0  0
 10 12  1  0  0  0
 12 13  1  0  0  0
 13 14  2  0  0  0
 14 15  1  0  0  0
 15 16  2  0  0  0
 16 17  1  0  0  0
 17 18  2  0  0  0
 10 11  1  0  0  0
 24 25  1  0  0  0
 25 26  2  0  0  0
 26 27  1  0  0  0
 26 21  1  0  0  0
  6  1  1  0  0  0
 11  7  2  0  0  0
 18 13  1  0  0  0
 33 34  1  0  0  0
 19 20  1  0  0  0
M  END
> <minimizedAffinity>
44.87247

> <CNNscore>
0.6593773961

> <CNNaffinity>
6.2688274384

> <CNN_VS>
4.1335229874

> <CNNaffinity_variance>
0.1910788119

$$$$
[H]c1nc(N([H])c2c([H])c([H])c(OS(=O)(=O)N([H])C([H])([H])[H])c(Cl)c2[H])nc([H])c1-c1nn(C([H])([H])c2c([H])c([H])c([H])c([H])c2[H])c([H])c1[H]


 34 37  0  0  0  0  0  0  0  0999 V2000
   24.9771    8.4932   55.3300 C   0  0  0  0  0  0  0  0  0  0  0  0
   24.6828    9.3184   56.3884 N   0  0  0  0  0  0  0  0  0  0  0  0
   25.6426    9.6790   57.2477 C   0  0  0  0  0  0  0  0  0  0  0  0
   26.9189    9.2341   57.0844 C   0  0  0  0  0  0  0  0  0  0  0  0
   27.2263    8.4126   56.0361 C   0  0  0  0  0  0  0  0  0  0  0  0
   26.2303    8.0806   55.2039 N   0  0  0  0  0  0  0  0  0  0  0  0
   27.9637    9.6376   58.0354 C   0  0  0  0  0  0  0  0  0  0  0  0
   28.7900    8.7658   58.7401 C   0  0  0  0  0  0  0  0  0  0  0  0
   29.6328    9.5220   59.5242 C   0  0  0  0  0  0  0  0  0  0  0  0
   29.3150   10.8234   59.2917 N   0  0  0  0  0  0  0  0  0  0  0  0
   28.3280   10.8570   58.4099 N   0  0  0  0  0  0  0  0  0  0  0  0
   30.0061   11.9084   59.9533 C   0  0  0  0  0  0  0  0  0  0  0  0
   29.0696   12.8792   60.5653 C   0  0  0  0  0  0  0  0  0  0  0  0
   29.1094   14.2166   60.1936 C   0  0  0  0  0  0  0  0  0  0  0  0
   28.2363   15.1445   60.7585 C   0  0  0  0  0  0  0  0  0  0  0  0
   27.3093   14.7473   61.7050 C   0  0  0  0  0  0  0  0  0  0  0  0
   27.2630   13.4184   62.0807 C   0  0  0  0  0  0  0  0  0  0  0  0
   28.1355   12.5106   61.5113 C   0  0  0  0  0  0  0  0  0  0  0  0
   23.9675    8.1488   54.4158 N   0  0  0  0  0  0  0  0  0  0  0  0
   23.8803    7.1337   54.0821 H   0  0  0  0  0  0  0  0  0  0  0  0
   21.3238   10.9555   52.7552 C   0  0  0  0  0  0  0  0  0  0  0  0
   22.1609   10.1856   51.9533 C   0  0  0  0  0  0  0  0  0  0  0  0
   23.0061    9.2678   52.5164 C   0  0  0  0  0  0  0  0  0  0  0  0
   23.0437    9.0878   53.9034 C   0  0  0  0  0  0  0  0  0  0  0  0
   22.2345    9.8297   54.7161 C   0  0  0  0  0  0  0  0  0  0  0  0
   21.3759   10.7647   54.1102 C   0  0  0  0  0  0  0  0  0  0  0  0
   20.3409   11.7085   55.1815 Cl  0  0  0  0  0  0  0  0  0  0  0  0
   20.4510   11.8971   52.2262 O   0  0  0  0  0  0  0  0  0  0  0  0
   21.0631   12.9846   51.0731 S   0  0  0  0  0  0  0  0  0  0  0  0
   20.8052   12.3847   49.7088 O   0  0  0  0  0  0  0  0  0  0  0  0
   22.5519   13.1543   51.1930 O   0  0  0  0  0  0  0  0  0  0  0  0
   21.0995   15.3914   52.0673 C   0  0  0  0  0  0  0  0  0  0  0  0
   20.3093   14.5104   51.2459 N   0  0  0  0  0  0  0  0  0  0  0  0
   19.3279   14.4202   51.5628 H   0  0  0  0  0  0  0  0  0  0  0  0
 32 33  1  0  0  0
 33 29  1  0  0  0
 29 30  2  0  0  0
 29 31  2  0  0  0
 29 28  1  0  0  0
 28 21  1  0  0  0
 21 22  2  0  0  0
 22 23  1  0  0  0
 23 24  2  0  0  0
 24 19  1  0  0  0
 19  1  1  0  0  0
  1  2  2  0  0  0
  2  3  1  0  0  0
  3  4  2  0  0  0
  4  5  1  0  0  0
  5  6  2  0  0  0
  4  7  1  0  0  0
  7  8  1  0  0  0
  8  9  2  0  0  0
  9 10  1  0  0  0
 10 12  1  0  0  0
 12 13  1  0  0  0
 13 14  2  0  0  0
 14 15  1  0  0  0
 15 16  2  0  0  0
 16 17  1  0  0  0
 17 18  2  0  0  0
 10 11  1  0  0  0
 24 25  1  0  0  0
 25 26  2  0  0  0
 26 27  1  0  0  0
 26 21  1  0  0  0
  6  1  1  0  0  0
 11  7  2  0  0  0
 18 13  1  0  0  0
 33 34  1  0  0  0
 19 20  1  0  0  0
M  END
> <minimizedAffinity>
23.58350

> <CNNscore>
0.6297324300

> <CNNaffinity>
6.1342873573

> <CNN_VS>
3.8629596233

> <CNNaffinity_variance>
0.3077138960

$$$$
[H]c1nc(N([H])c2c([H])c([H])c(OS(=O)(=O)N([H])C([H])([H])[H])c(Cl)c2[H])nc([H])c1-c1nn(C([H])([H])c2c([H])c([H])c([H])c([H])c2[H])c([H])c1[H]


 34 37  0  0  0  0  0  0  0  0999 V2000
   25.8557    8.3180   52.9033 C   0  0  0  0  0  0  0  0  0  0  0  0
   24.7488    8.7744   52.2295 N   0  0  0  0  0  0  0  0  0  0  0  0
   23.5524    8.2157   52.4444 C   0  0  0  0  0  0  0  0  0  0  0  0
   23.4175    7.1913   53.3308 C   0  0  0  0  0  0  0  0  0  0  0  0
   24.5100    6.7268   54.0083 C   0  0  0  0  0  0  0  0  0  0  0  0
   25.6851    7.3194   53.7579 N   0  0  0  0  0  0  0  0  0  0  0  0
   22.0977    6.5864   53.5576 C   0  0  0  0  0  0  0  0  0  0  0  0
   20.9310    7.2882   53.8502 C   0  0  0  0  0  0  0  0  0  0  0  0
   19.9111    6.3737   53.9921 C   0  0  0  0  0  0  0  0  0  0  0  0
   20.4595    5.1465   53.7878 N   0  0  0  0  0  0  0  0  0  0  0  0
   21.7491    5.3067   53.5341 N   0  0  0  0  0  0  0  0  0  0  0  0
   19.6711    3.9358   53.8599 C   0  0  0  0  0  0  0  0  0  0  0  0
   18.2169    4.2151   53.8966 C   0  0  0  0  0  0  0  0  0  0  0  0
   17.3062    3.1680   53.9459 C   0  0  0  0  0  0  0  0  0  0  0  0
   15.9344    3.4113   53.9809 C   0  0  0  0  0  0  0  0  0  0  0  0
   15.4529    4.7078   53.9669 C   0  0  0  0  0  0  0  0  0  0  0  0
   16.3523    5.7557   53.9179 C   0  0  0  0  0  0  0  0  0  0  0  0
   17.7094    5.4979   53.8836 C   0  0  0  0  0  0  0  0  0  0  0  0
   27.1002    8.9351   52.6935 N   0  0  0  0  0  0  0  0  0  0  0  0
   27.6715    9.2727   53.5356 H   0  0  0  0  0  0  0  0  0  0  0  0
   28.6279    9.6758   48.8540 C   0  0  0  0  0  0  0  0  0  0  0  0
   28.0931   10.6990   49.6310 C   0  0  0  0  0  0  0  0  0  0  0  0
   27.6119   10.4359   50.8851 C   0  0  0  0  0  0  0  0  0  0  0  0
   27.6487    9.1382   51.4068 C   0  0  0  0  0  0  0  0  0  0  0  0
   28.1667    8.1133   50.6672 C   0  0  0  0  0  0  0  0  0  0  0  0
   28.6544    8.4127   49.3823 C   0  0  0  0  0  0  0  0  0  0  0  0
   29.3190    7.0723   48.4489 Cl  0  0  0  0  0  0  0  0  0  0  0  0
   29.1274    9.8981   47.5775 O   0  0  0  0  0  0  0  0  0  0  0  0
   28.7787    8.7455   46.3789 S   0  0  0  0  0  0  0  0  0  0  0  0
   29.2395    7.4023   46.8998 O   0  0  0  0  0  0  0  0  0  0  0  0
   29.5458    9.0006   45.1115 O   0  0  0  0  0  0  0  0  0  0  0  0
   26.8565    8.3755   44.6610 C   0  0  0  0  0  0  0  0  0  0  0  0
   27.1039    8.7479   46.0305 N   0  0  0  0  0  0  0  0  0  0  0  0
   26.6564    9.6408   46.3027 H   0  0  0  0  0  0  0  0  0  0  0  0
 32 33  1  0  0  0
 33 29  1  0  0  0
 29 30  2  0  0  0
 29 31  2  0  0  0
 29 28  1  0  0  0
 28 21  1  0  0  0
 21 22  2  0  0  0
 22 23  1  0  0  0
 23 24  2  0  0  0
 24 19  1  0  0  0
 19  1  1  0  0  0
  1  2  2  0  0  0
  2  3  1  0  0  0
  3  4  2  0  0  0
  4  5  1  0  0  0
  5  6  2  0  0  0
  4  7  1  0  0  0
  7  8  1  0  0  0
  8  9  2  0  0  0
  9 10  1  0  0  0
 10 12  1  0  0  0
 12 13  1  0  0  0
 13 14  2  0  0  0
 14 15  1  0  0  0
 15 16  2  0  0  0
 16 17  1  0  0  0
 17 18  2  0  0  0
 10 11  1  0  0  0
 24 25  1  0  0  0
 25 26  2  0  0  0
 26 27  1  0  0  0
 26 21  1  0  0  0
  6  1  1  0  0  0
 11  7  2  0  0  0
 18 13  1  0  0  0
 33 34  1  0  0  0
 19 20  1  0  0  0
M  END
> <minimizedAffinity>
41.76134

> <CNNscore>
0.5320054293

> <CNNaffinity>
6.3106431961

> <CNN_VS>
3.3572964668

> <CNNaffinity_variance>
0.3319603801

$$$$
[H]c1nc(N([H])c2c([H])c([H])c(OS(=O)(=O)N([H])C([H])([H])[H])c(Cl)c2[H])nc([H])c1-c1nn(C([H])([H])c2c([H])c([H])c([H])c([H])c2[H])c([H])c1[H]


 34 37  0  0  0  0  0  0  0  0999 V2000
   26.1984    8.2831   53.6223 C   0  0  0  0  0  0  0  0  0  0  0  0
   25.2183    8.8666   52.8563 N   0  0  0  0  0  0  0  0  0  0  0  0
   23.9742    8.3750   52.8665 C   0  0  0  0  0  0  0  0  0  0  0  0
   23.6649    7.2937   53.6337 C   0  0  0  0  0  0  0  0  0  0  0  0
   24.6297    6.7028   54.4008 C   0  0  0  0  0  0  0  0  0  0  0  0
   25.8593    7.2325   54.3558 N   0  0  0  0  0  0  0  0  0  0  0  0
   22.2945    6.7636   53.6358 C   0  0  0  0  0  0  0  0  0  0  0  0
   21.9414    5.4484   53.9274 C   0  0  0  0  0  0  0  0  0  0  0  0
   20.5719    5.3449   53.8243 C   0  0  0  0  0  0  0  0  0  0  0  0
   20.1150    6.5774   53.4770 N   0  0  0  0  0  0  0  0  0  0  0  0
   21.1550    7.3903   53.3740 N   0  0  0  0  0  0  0  0  0  0  0  0
   18.7067    6.8423   53.2793 C   0  0  0  0  0  0  0  0  0  0  0  0
   17.8610    5.6835   53.6484 C   0  0  0  0  0  0  0  0  0  0  0  0
   16.5078    5.8606   53.9049 C   0  0  0  0  0  0  0  0  0  0  0  0
   15.6965    4.7824   54.2535 C   0  0  0  0  0  0  0  0  0  0  0  0
   16.2281    3.5092   54.3509 C   0  0  0  0  0  0  0  0  0  0  0  0
   17.5738    3.3241   54.0975 C   0  0  0  0  0  0  0  0  0  0  0  0
   18.3649    4.4034   53.7529 C   0  0  0  0  0  0  0  0  0  0  0  0
   27.4927    8.8291   53.6285 N   0  0  0  0  0  0  0  0  0  0  0  0
   28.0859    8.7728   54.5197 H   0  0  0  0  0  0  0  0  0  0  0  0
   29.1882   10.8532   50.3646 C   0  0  0  0  0  0  0  0  0  0  0  0
   29.3426   11.3201   51.6665 C   0  0  0  0  0  0  0  0  0  0  0  0
   28.7909   10.6366   52.7164 C   0  0  0  0  0  0  0  0  0  0  0  0
   28.0644    9.4606   52.5005 C   0  0  0  0  0  0  0  0  0  0  0  0
   27.8952    8.9785   51.2337 C   0  0  0  0  0  0  0  0  0  0  0  0
   28.4734    9.7008   50.1743 C   0  0  0  0  0  0  0  0  0  0  0  0
   28.2413    9.0566   48.5493 Cl  0  0  0  0  0  0  0  0  0  0  0  0
   29.7311   11.5144   49.2709 O   0  0  0  0  0  0  0  0  0  0  0  0
   28.6639   12.0677   48.0701 S   0  0  0  0  0  0  0  0  0  0  0  0
   28.0651   10.8484   47.4050 O   0  0  0  0  0  0  0  0  0  0  0  0
   29.3767   12.8375   46.9936 O   0  0  0  0  0  0  0  0  0  0  0  0
   26.1400   12.5625   48.4797 C   0  0  0  0  0  0  0  0  0  0  0  0
   27.4599   13.0630   48.7673 N   0  0  0  0  0  0  0  0  0  0  0  0
   27.5888   14.0579   48.5118 H   0  0  0  0  0  0  0  0  0  0  0  0
 32 33  1  0  0  0
 33 29  1  0  0  0
 29 30  2  0  0  0
 29 31  2  0  0  0
 29 28  1  0  0  0
 28 21  1  0  0  0
 21 22  2  0  0  0
 22 23  1  0  0  0
 23 24  2  0  0  0
 24 19  1  0  0  0
 19  1  1  0  0  0
  1  2  2  0  0  0
  2  3  1  0  0  0
  3  4  2  0  0  0
  4  5  1  0  0  0
  5  6  2  0  0  0
  4  7  1  0  0  0
  7  8  1  0  0  0
  8  9  2  0  0  0
  9 10  1  0  0  0
 10 12  1  0  0  0
 12 13  1  0  0  0
 13 14  2  0  0  0
 14 15  1  0  0  0
 15 16  2  0  0  0
 16 17  1  0  0  0
 17 18  2  0  0  0
 10 11  1  0  0  0
 24 25  1  0  0  0
 25 26  2  0  0  0
 26 27  1  0  0  0
 26 21  1  0  0  0
  6  1  1  0  0  0
 11  7  2  0  0  0
 18 13  1  0  0  0
 33 34  1  0  0  0
 19 20  1  0  0  0
M  END
> <minimizedAffinity>
44.13935

> <CNNscore>
0.4863080084

> <CNNaffinity>
6.0900650024

> <CNN_VS>
2.9616472721

> <CNNaffinity_variance>
0.3880060315

$$$$
[H]c1nc(N([H])c2c([H])c([H])c(OS(=O)(=O)N([H])C([H])([H])[H])c(Cl)c2[H])nc([H])c1-c1nn(C([H])([H])c2c([H])c([H])c([H])c([H])c2[H])c([H])c1[H]


 34 37  0  0  0  0  0  0  0  0999 V2000
   24.8884    7.7736   54.5809 C   0  0  0  0  0  0  0  0  0  0  0  0
   24.4148    8.4204   55.6967 N   0  0  0  0  0  0  0  0  0  0  0  0
   25.2680    8.9504   56.5803 C   0  0  0  0  0  0  0  0  0  0  0  0
   26.6120    8.8557   56.3852 C   0  0  0  0  0  0  0  0  0  0  0  0
   27.0977    8.2151   55.2797 C   0  0  0  0  0  0  0  0  0  0  0  0
   26.2027    7.7016   54.4253 N   0  0  0  0  0  0  0  0  0  0  0  0
   27.5383    9.4422   57.3634 C   0  0  0  0  0  0  0  0  0  0  0  0
   28.1258    8.7586   58.4250 C   0  0  0  0  0  0  0  0  0  0  0  0
   28.9255    9.6465   59.1098 C   0  0  0  0  0  0  0  0  0  0  0  0
   28.8171   10.8403   58.4681 N   0  0  0  0  0  0  0  0  0  0  0  0
   27.9926   10.6860   57.4438 N   0  0  0  0  0  0  0  0  0  0  0  0
   29.5295   12.0164   58.9174 C   0  0  0  0  0  0  0  0  0  0  0  0
   28.8126   12.7259   60.0022 C   0  0  0  0  0  0  0  0  0  0  0  0
   29.0669   14.0693   60.2446 C   0  0  0  0  0  0  0  0  0  0  0  0
   28.4022   14.7534   61.2607 C   0  0  0  0  0  0  0  0  0  0  0  0
   27.4720   14.1023   62.0505 C   0  0  0  0  0  0  0  0  0  0  0  0
   27.2129   12.7654   61.8161 C   0  0  0  0  0  0  0  0  0  0  0  0
   27.8803   12.1012   60.8047 C   0  0  0  0  0  0  0  0  0  0  0  0
   23.9820    7.2506   53.6437 N   0  0  0  0  0  0  0  0  0  0  0  0
   23.9938    6.2009   53.4256 H   0  0  0  0  0  0  0  0  0  0  0  0
   21.2264    9.7596   51.7109 C   0  0  0  0  0  0  0  0  0  0  0  0
   22.3800   10.2681   52.3003 C   0  0  0  0  0  0  0  0  0  0  0  0
   23.2703    9.4291   52.9144 C   0  0  0  0  0  0  0  0  0  0  0  0
   23.0376    8.0503   52.9607 C   0  0  0  0  0  0  0  0  0  0  0  0
   21.9136    7.5223   52.3919 C   0  0  0  0  0  0  0  0  0  0  0  0
   21.0166    8.4076   51.7674 C   0  0  0  0  0  0  0  0  0  0  0  0
   19.5743    7.7005   51.0399 Cl  0  0  0  0  0  0  0  0  0  0  0  0
   20.2971   10.5740   51.0773 O   0  0  0  0  0  0  0  0  0  0  0  0
   20.8325   12.0731   50.4833 S   0  0  0  0  0  0  0  0  0  0  0  0
   19.9056   12.4659   49.3544 O   0  0  0  0  0  0  0  0  0  0  0  0
   22.2129   11.9857   49.8947 O   0  0  0  0  0  0  0  0  0  0  0  0
   22.1417   13.3804   52.3162 C   0  0  0  0  0  0  0  0  0  0  0  0
   20.8305   13.2368   51.7371 N   0  0  0  0  0  0  0  0  0  0  0  0
   20.0895   13.0481   52.4350 H   0  0  0  0  0  0  0  0  0  0  0  0
 32 33  1  0  0  0
 33 29  1  0  0  0
 29 30  2  0  0  0
 29 31  2  0  0  0
 29 28  1  0  0  0
 28 21  1  0  0  0
 21 22  2  0  0  0
 22 23  1  0  0  0
 23 24  2  0  0  0
 24 19  1  0  0  0
 19  1  1  0  0  0
  1  2  2  0  0  0
  2  3  1  0  0  0
  3  4  2  0  0  0
  4  5  1  0  0  0
  5  6  2  0  0  0
  4  7  1  0  0  0
  7  8  1  0  0  0
  8  9  2  0  0  0
  9 10  1  0  0  0
 10 12  1  0  0  0
 12 13  1  0  0  0
 13 14  2  0  0  0
 14 15  1  0  0  0
 15 16  2  0  0  0
 16 17  1  0  0  0
 17 18  2  0  0  0
 10 11  1  0  0  0
 24 25  1  0  0  0
 25 26  2  0  0  0
 26 27  1  0  0  0
 26 21  1  0  0  0
  6  1  1  0  0  0
 11  7  2  0  0  0
 18 13  1  0  0  0
 33 34  1  0  0  0
 19 20  1  0  0  0
M  END
> <minimizedAffinity>
23.41970

> <CNNscore>
0.4811213613

> <CNNaffinity>
6.0791997910

> <CNN_VS>
2.9248328209

> <CNNaffinity_variance>
0.6956113577

$$$$
[H]c1nc(N([H])c2c([H])c([H])c(OS(=O)(=O)N([H])C([H])([H])[H])c(Cl)c2[H])nc([H])c1-c1nn(C([H])([H])c2c([H])c([H])c([H])c([H])c2[H])c([H])c1[H]


 34 37  0  0  0  0  0  0  0  0999 V2000
   26.2945    8.7890   54.8893 C   0  0  0  0  0  0  0  0  0  0  0  0
   25.6577    9.4631   55.9031 N   0  0  0  0  0  0  0  0  0  0  0  0
   26.3088    9.7435   57.0376 C   0  0  0  0  0  0  0  0  0  0  0  0
   27.6065    9.3656   57.2009 C   0  0  0  0  0  0  0  0  0  0  0  0
   28.2528    8.6944   56.2009 C   0  0  0  0  0  0  0  0  0  0  0  0
   27.5574    8.4377   55.0850 N   0  0  0  0  0  0  0  0  0  0  0  0
   28.3101    9.6799   58.4520 C   0  0  0  0  0  0  0  0  0  0  0  0
   28.4335    8.8225   59.5424 C   0  0  0  0  0  0  0  0  0  0  0  0
   29.1576    9.4758   60.5149 C   0  0  0  0  0  0  0  0  0  0  0  0
   29.4613   10.7026   60.0137 N   0  0  0  0  0  0  0  0  0  0  0  0
   28.9474   10.7910   58.7967 N   0  0  0  0  0  0  0  0  0  0  0  0
   30.2241   11.6701   60.7718 C   0  0  0  0  0  0  0  0  0  0  0  0
   29.5474   12.9858   60.8435 C   0  0  0  0  0  0  0  0  0  0  0  0
   28.1676   13.0542   60.9846 C   0  0  0  0  0  0  0  0  0  0  0  0
   27.5136   14.2829   61.0539 C   0  0  0  0  0  0  0  0  0  0  0  0
   28.2314   15.4629   60.9826 C   0  0  0  0  0  0  0  0  0  0  0  0
   29.6048   15.4040   60.8421 C   0  0  0  0  0  0  0  0  0  0  0  0
   30.2386   14.1779   60.7749 C   0  0  0  0  0  0  0  0  0  0  0  0
   25.6103    8.5300   53.6901 N   0  0  0  0  0  0  0  0  0  0  0  0
   26.0047    8.9023   52.7652 H   0  0  0  0  0  0  0  0  0  0  0  0
   22.1285    6.1898   53.5326 C   0  0  0  0  0  0  0  0  0  0  0  0
   23.3140    5.6902   54.0632 C   0  0  0  0  0  0  0  0  0  0  0  0
   24.4337    6.4759   54.1153 C   0  0  0  0  0  0  0  0  0  0  0  0
   24.4067    7.7907   53.6377 C   0  0  0  0  0  0  0  0  0  0  0  0
   23.2578    8.3083   53.1104 C   0  0  0  0  0  0  0  0  0  0  0  0
   22.1227    7.4786   53.0700 C   0  0  0  0  0  0  0  0  0  0  0  0
   20.6524    8.1712   52.3858 Cl  0  0  0  0  0  0  0  0  0  0  0  0
   20.9696    5.4281   53.4608 O   0  0  0  0  0  0  0  0  0  0  0  0
   19.4871    6.2504   53.3475 S   0  0  0  0  0  0  0  0  0  0  0  0
   19.4752    6.9738   52.0193 O   0  0  0  0  0  0  0  0  0  0  0  0
   19.3437    7.3030   54.4110 O   0  0  0  0  0  0  0  0  0  0  0  0
   18.6661    3.8131   53.7573 C   0  0  0  0  0  0  0  0  0  0  0  0
   18.1895    5.1432   53.4761 N   0  0  0  0  0  0  0  0  0  0  0  0
   17.5607    5.1914   52.6552 H   0  0  0  0  0  0  0  0  0  0  0  0
 32 33  1  0  0  0
 33 29  1  0  0  0
 29 30  2  0  0  0
 29 31  2  0  0  0
 29 28  1  0  0  0
 28 21  1  0  0  0
 21 22  2  0  0  0
 22 23  1  0  0  0
 23 24  2  0  0  0
 24 19  1  0  0  0
 19  1  1  0  0  0
  1  2  2  0  0  0
  2  3  1  0  0  0
  3  4  2  0  0  0
  4  5  1  0  0  0
  5  6  2  0  0  0
  4  7  1  0  0  0
  7  8  1  0  0  0
  8  9  2  0  0  0
  9 10  1  0  0  0
 10 12  1  0  0  0
 12 13  1  0  0  0
 13 14  2  0  0  0
 14 15  1  0  0  0
 15 16  2  0  0  0
 16 17  1  0  0  0
 17 18  2  0  0  0
 10 11  1  0  0  0
 24 25  1  0  0  0
 25 26  2  0  0  0
 26 27  1  0  0  0
 26 21  1  0  0  0
  6  1  1  0  0  0
 11  7  2  0  0  0
 18 13  1  0  0  0
 33 34  1  0  0  0
 19 20  1  0  0  0
M  END
> <minimizedAffinity>
7.07599

> <CNNscore>
0.4806962311

> <CNNaffinity>
6.0222039223

> <CNN_VS>
2.8948507309

> <CNNaffinity_variance>
0.2969263494

$$$$
[H]c1nc(N([H])c2c([H])c([H])c(OS(=O)(=O)N([H])C([H])([H])[H])c(Cl)c2[H])nc([H])c1-c1nn(C([H])([H])c2c([H])c([H])c([H])c([H])c2[H])c([H])c1[H]


 34 37  0  0  0  0  0  0  0  0999 V2000
   24.5372    8.0444   54.4009 C   0  0  0  0  0  0  0  0  0  0  0  0
   25.8424    7.6342   54.2749 N   0  0  0  0  0  0  0  0  0  0  0  0
   26.7668    8.0539   55.1461 C   0  0  0  0  0  0  0  0  0  0  0  0
   26.4264    8.8900   56.1652 C   0  0  0  0  0  0  0  0  0  0  0  0
   25.1318    9.3063   56.3030 C   0  0  0  0  0  0  0  0  0  0  0  0
   24.2442    8.8580   55.4052 N   0  0  0  0  0  0  0  0  0  0  0  0
   27.4514    9.3435   57.1154 C   0  0  0  0  0  0  0  0  0  0  0  0
   28.1704   10.5320   57.0161 C   0  0  0  0  0  0  0  0  0  0  0  0
   29.0301   10.5978   58.0900 C   0  0  0  0  0  0  0  0  0  0  0  0
   28.8280    9.4676   58.8182 N   0  0  0  0  0  0  0  0  0  0  0  0
   27.8917    8.7501   58.2170 N   0  0  0  0  0  0  0  0  0  0  0  0
   29.5688    9.1976   60.0310 C   0  0  0  0  0  0  0  0  0  0  0  0
   30.0136   10.4396   60.7046 C   0  0  0  0  0  0  0  0  0  0  0  0
   31.1931   10.4521   61.4374 C   0  0  0  0  0  0  0  0  0  0  0  0
   31.6274   11.6111   62.0780 C   0  0  0  0  0  0  0  0  0  0  0  0
   30.8869   12.7763   61.9947 C   0  0  0  0  0  0  0  0  0  0  0  0
   29.7119   12.7726   61.2675 C   0  0  0  0  0  0  0  0  0  0  0  0
   29.2948   11.6153   60.6382 C   0  0  0  0  0  0  0  0  0  0  0  0
   23.5698    7.5701   53.4994 N   0  0  0  0  0  0  0  0  0  0  0  0
   23.5317    6.5242   53.2667 H   0  0  0  0  0  0  0  0  0  0  0  0
   20.7967    9.9958   51.4869 C   0  0  0  0  0  0  0  0  0  0  0  0
   21.0907    8.7098   51.0435 C   0  0  0  0  0  0  0  0  0  0  0  0
   21.9894    7.9325   51.7230 C   0  0  0  0  0  0  0  0  0  0  0  0
   22.6266    8.4149   52.8714 C   0  0  0  0  0  0  0  0  0  0  0  0
   22.3590    9.6735   53.3300 C   0  0  0  0  0  0  0  0  0  0  0  0
   21.4311   10.4496   52.6123 C   0  0  0  0  0  0  0  0  0  0  0  0
   21.1026   12.0699   53.2259 Cl  0  0  0  0  0  0  0  0  0  0  0  0
   19.8916   10.8179   50.8287 O   0  0  0  0  0  0  0  0  0  0  0  0
   20.4943   12.2176   50.0773 S   0  0  0  0  0  0  0  0  0  0  0  0
   19.9810   13.4047   50.8616 O   0  0  0  0  0  0  0  0  0  0  0  0
   19.9753   12.3726   48.6751 O   0  0  0  0  0  0  0  0  0  0  0  0
   22.7681   13.1123   50.9783 C   0  0  0  0  0  0  0  0  0  0  0  0
   22.2040   12.1753   50.0407 N   0  0  0  0  0  0  0  0  0  0  0  0
   22.5702   12.2830   49.0785 H   0  0  0  0  0  0  0  0  0  0  0  0
 32 33  1  0  0  0
 33 29  1  0  0  0
 29 30  2  0  0  0
 29 31  2  0  0  0
 29 28  1  0  0  0
 28 21  1  0  0  0
 21 22  2  0  0  0
 22 23  1  0  0  0
 23 24  2  0  0  0
 24 19  1  0  0  0
 19  1  1  0  0  0
  1  2  2  0  0  0
  2  3  1  0  0  0
  3  4  2  0  0  0
  4  5  1  0  0  0
  5  6  2  0  0  0
  4  7  1  0  0  0
  7  8  1  0  0  0
  8  9  2  0  0  0
  9 10  1  0  0  0
 10 12  1  0  0  0
 12 13  1  0  0  0
 13 14  2  0  0  0
 14 15  1  0  0  0
 15 16  2  0  0  0
 16 17  1  0  0  0
 17 18  2  0  0  0
 10 11  1  0  0  0
 24 25  1  0  0  0
 25 26  2  0  0  0
 26 27  1  0  0  0
 26 21  1  0  0  0
  6  1  1  0  0  0
 11  7  2  0  0  0
 18 13  1  0  0  0
 33 34  1  0  0  0
 19 20  1  0  0  0
M  END
> <minimizedAffinity>
23.08780

> <CNNscore>
0.4775045812

> <CNNaffinity>
6.3283181190

> <CNN_VS>
3.0218009949

> <CNNaffinity_variance>
0.4066457152

$$$$
[H]c1nc(N([H])c2c([H])c([H])c(OS(=O)(=O)N([H])C([H])([H])[H])c(Cl)c2[H])nc([H])c1-c1nn(C([H])([H])c2c([H])c([H])c([H])c([H])c2[H])c([H])c1[H]


 34 37  0  0  0  0  0  0  0  0999 V2000
   21.2004    7.8375   53.2741 C   0  0  0  0  0  0  0  0  0  0  0  0
   21.9148    7.3489   54.3412 N   0  0  0  0  0  0  0  0  0  0  0  0
   23.2384    7.5322   54.4055 C   0  0  0  0  0  0  0  0  0  0  0  0
   23.8917    8.2032   53.4174 C   0  0  0  0  0  0  0  0  0  0  0  0
   23.1940    8.6949   52.3497 C   0  0  0  0  0  0  0  0  0  0  0  0
   21.8709    8.4851   52.3320 N   0  0  0  0  0  0  0  0  0  0  0  0
   25.3457    8.3977   53.5001 C   0  0  0  0  0  0  0  0  0  0  0  0
   26.0883    8.4208   54.6781 C   0  0  0  0  0  0  0  0  0  0  0  0
   27.4083    8.6248   54.3426 C   0  0  0  0  0  0  0  0  0  0  0  0
   27.4533    8.7220   52.9871 N   0  0  0  0  0  0  0  0  0  0  0  0
   26.2217    8.5839   52.5215 N   0  0  0  0  0  0  0  0  0  0  0  0
   28.6949    8.9404   52.2777 C   0  0  0  0  0  0  0  0  0  0  0  0
   28.4795    9.5494   50.9448 C   0  0  0  0  0  0  0  0  0  0  0  0
   28.2927    8.7420   49.8305 C   0  0  0  0  0  0  0  0  0  0  0  0
   28.0886    9.2970   48.5685 C   0  0  0  0  0  0  0  0  0  0  0  0
   28.0685   10.6700   48.4026 C   0  0  0  0  0  0  0  0  0  0  0  0
   28.2535   11.4807   49.5061 C   0  0  0  0  0  0  0  0  0  0  0  0
   28.4547   10.9151   50.7507 C   0  0  0  0  0  0  0  0  0  0  0  0
   19.8065    7.6675   53.2349 N   0  0  0  0  0  0  0  0  0  0  0  0
   19.1761    8.5125   53.0399 H   0  0  0  0  0  0  0  0  0  0  0  0
   17.8420    4.0305   53.9680 C   0  0  0  0  0  0  0  0  0  0  0  0
   17.2093    5.2516   54.1808 C   0  0  0  0  0  0  0  0  0  0  0  0
   17.8657    6.4248   53.9231 C   0  0  0  0  0  0  0  0  0  0  0  0
   19.1798    6.4177   53.4430 C   0  0  0  0  0  0  0  0  0  0  0  0
   19.8270    5.2346   53.2255 C   0  0  0  0  0  0  0  0  0  0  0  0
   19.1282    4.0449   53.4983 C   0  0  0  0  0  0  0  0  0  0  0  0
   19.9857    2.5316   53.2079 Cl  0  0  0  0  0  0  0  0  0  0  0  0
   17.2137    2.8171   54.2156 O   0  0  0  0  0  0  0  0  0  0  0  0
   15.8674    2.4132   53.2609 S   0  0  0  0  0  0  0  0  0  0  0  0
   15.4305    1.0230   53.6659 O   0  0  0  0  0  0  0  0  0  0  0  0
   16.2125    2.3462   51.7994 O   0  0  0  0  0  0  0  0  0  0  0  0
   14.5495    4.4816   52.3848 C   0  0  0  0  0  0  0  0  0  0  0  0
   14.6191    3.5602   53.4900 N   0  0  0  0  0  0  0  0  0  0  0  0
   14.6899    4.0259   54.4118 H   0  0  0  0  0  0  0  0  0  0  0  0
 32 33  1  0  0  0
 33 29  1  0  0  0
 29 30  2  0  0  0
 29 31  2  0  0  0
 29 28  1  0  0  0
 28 21  1  0  0  0
 21 22  2  0  0  0
 22 23  1  0  0  0
 23 24  2  0  0  0
 24 19  1  0  0  0
 19  1  1  0  0  0
  1  2  2  0  0  0
  2  3  1  0  0  0
  3  4  2  0  0  0
  4  5  1  0  0  0
  5  6  2  0  0  0
  4  7  1  0  0  0
  7  8  1  0  0  0
  8  9  2  0  0  0
  9 10  1  0  0  0
 10 12  1  0  0  0
 12 13  1  0  0  0
 13 14  2  0  0  0
 14 15  1  0  0  0
 15 16  2  0  0  0
 16 17  1  0  0  0
 17 18  2  0  0  0
 10 11  1  0  0  0
 24 25  1  0  0  0
 25 26  2  0  0  0
 26 27  1  0  0  0
 26 21  1  0  0  0
  6  1  1  0  0  0
 11  7  2  0  0  0
 18 13  1  0  0  0
 33 34  1  0  0  0
 19 20  1  0  0  0
M  END
> <minimizedAffinity>
39.54753

> <CNNscore>
0.4610259235

> <CNNaffinity>
6.3155255318

> <CNN_VS>
2.9116210938

> <CNNaffinity_variance>
0.4629534781

$$$$
[H]c1nc(N([H])c2c([H])c([H])c(OS(=O)(=O)N([H])C([H])([H])[H])c(Cl)c2[H])nc([H])c1-c1nn(C([H])([H])c2c([H])c([H])c([H])c([H])c2[H])c([H])c1[H]


 34 37  0  0  0  0  0  0  0  0999 V2000
   25.4799    8.0064   53.9532 C   0  0  0  0  0  0  0  0  0  0  0  0
   24.8431    8.5658   55.0345 N   0  0  0  0  0  0  0  0  0  0  0  0
   25.5556    9.0785   56.0440 C   0  0  0  0  0  0  0  0  0  0  0  0
   26.9164    9.0525   56.0122 C   0  0  0  0  0  0  0  0  0  0  0  0
   27.5636    8.4992   54.9429 C   0  0  0  0  0  0  0  0  0  0  0  0
   26.8053    7.9994   53.9581 N   0  0  0  0  0  0  0  0  0  0  0  0
   27.6872    9.6191   57.1275 C   0  0  0  0  0  0  0  0  0  0  0  0
   28.2146   10.9073   57.1681 C   0  0  0  0  0  0  0  0  0  0  0  0
   28.8659   11.0605   58.3719 C   0  0  0  0  0  0  0  0  0  0  0  0
   28.7298    9.8836   59.0389 N   0  0  0  0  0  0  0  0  0  0  0  0
   28.0303    9.0557   58.2784 N   0  0  0  0  0  0  0  0  0  0  0  0
   29.2960    9.6812   60.3546 C   0  0  0  0  0  0  0  0  0  0  0  0
   29.8094   10.9396   60.9436 C   0  0  0  0  0  0  0  0  0  0  0  0
   28.9325   11.9650   61.2722 C   0  0  0  0  0  0  0  0  0  0  0  0
   29.3972   13.1560   61.8272 C   0  0  0  0  0  0  0  0  0  0  0  0
   30.7479   13.3388   62.0618 C   0  0  0  0  0  0  0  0  0  0  0  0
   31.6274   12.3235   61.7377 C   0  0  0  0  0  0  0  0  0  0  0  0
   31.1510   11.1486   61.1881 C   0  0  0  0  0  0  0  0  0  0  0  0
   24.7207    7.5016   52.8845 N   0  0  0  0  0  0  0  0  0  0  0  0
   25.1943    7.3167   51.9405 H   0  0  0  0  0  0  0  0  0  0  0  0
   20.6591    6.5118   53.2687 C   0  0  0  0  0  0  0  0  0  0  0  0
   21.6224    5.9574   54.1062 C   0  0  0  0  0  0  0  0  0  0  0  0
   22.9396    6.3045   53.9701 C   0  0  0  0  0  0  0  0  0  0  0  0
   23.3398    7.2194   52.9902 C   0  0  0  0  0  0  0  0  0  0  0  0
   22.4170    7.7792   52.1530 C   0  0  0  0  0  0  0  0  0  0  0  0
   21.0711    7.4047   52.3158 C   0  0  0  0  0  0  0  0  0  0  0  0
   19.9000    8.1427   51.2233 Cl  0  0  0  0  0  0  0  0  0  0  0  0
   19.3126    6.1885   53.3720 O   0  0  0  0  0  0  0  0  0  0  0  0
   18.9088    4.5670   53.6799 S   0  0  0  0  0  0  0  0  0  0  0  0
   19.9760    4.0038   54.5918 O   0  0  0  0  0  0  0  0  0  0  0  0
   18.9295    3.7337   52.4289 O   0  0  0  0  0  0  0  0  0  0  0  0
   16.5267    3.5146   53.7047 C   0  0  0  0  0  0  0  0  0  0  0  0
   17.3556    4.4728   54.3905 N   0  0  0  0  0  0  0  0  0  0  0  0
   16.9180    5.4064   54.4821 H   0  0  0  0  0  0  0  0  0  0  0  0
 32 33  1  0  0  0
 33 29  1  0  0  0
 29 30  2  0  0  0
 29 31  2  0  0  0
 29 28  1  0  0  0
 28 21  1  0  0  0
 21 22  2  0  0  0
 22 23  1  0  0  0
 23 24  2  0  0  0
 24 19  1  0  0  0
 19  1  1  0  0  0
  1  2  2  0  0  0
  2  3  1  0  0  0
  3  4  2  0  0  0
  4  5  1  0  0  0
  5  6  2  0  0  0
  4  7  1  0  0  0
  7  8  1  0  0  0
  8  9  2  0  0  0
  9 10  1  0  0  0
 10 12  1  0  0  0
 12 13  1  0  0  0
 13 14  2  0  0  0
 14 15  1  0  0  0
 15 16  2  0  0  0
 16 17  1  0  0  0
 17 18  2  0  0  0
 10 11  1  0  0  0
 24 25  1  0  0  0
 25 26  2  0  0  0
 26 27  1  0  0  0
 26 21  1  0  0  0
  6  1  1  0  0  0
 11  7  2  0  0  0
 18 13  1  0  0  0
 33 34  1  0  0  0
 19 20  1  0  0  0
M  END
> <minimizedAffinity>
7.87181

> <CNNscore>
0.4582966566

> <CNNaffinity>
6.4176001549

> <CNN_VS>
2.9411647320

> <CNNaffinity_variance>
0.1374682486

$$$$
[H]c1nn([H])c([H])c1-c1c([H])c(F)c([H])c(N2C([H])([H])C([H])([H])N(C(=O)c3c([H])c(C([H])([H])N([H])C(=O)N([H])c4c([H])c([H])c([H])c([H])c4[H])c([H])c([H])c3F)C([H])([H])C2([H])[H])c1[H]


 41 45  0  0  0  0  0  0  0  0999 V2000
   23.6410    8.8697   55.0233 C   0  0  0  0  0  0  0  0  0  0  0  0
   23.1162   10.0288   55.0075 O   0  0  0  0  0  0  0  0  0  0  0  0
   22.8204    7.7161   55.0849 N   0  0  0  0  0  0  0  0  0  0  0  0
   21.3834    7.8347   55.1312 C   0  0  0  0  0  0  0  0  0  0  0  0
   20.8319    7.1697   53.8662 C   0  0  0  0  0  0  0  0  0  0  0  0
   21.4452    5.8399   53.7338 N   0  0  0  0  0  0  0  0  0  0  0  0
   22.8673    5.7070   53.8366 C   0  0  0  0  0  0  0  0  0  0  0  0
   23.3841    6.3861   55.1059 C   0  0  0  0  0  0  0  0  0  0  0  0
   25.0186    8.1233   52.7502 F   0  0  0  0  0  0  0  0  0  0  0  0
   25.7822    8.4395   53.8353 C   0  0  0  0  0  0  0  0  0  0  0  0
   27.1620    8.3914   53.7999 C   0  0  0  0  0  0  0  0  0  0  0  0
   27.9182    8.7143   54.9062 C   0  0  0  0  0  0  0  0  0  0  0  0
   27.2506    9.0877   56.0524 C   0  0  0  0  0  0  0  0  0  0  0  0
   25.8686    9.1342   56.0825 C   0  0  0  0  0  0  0  0  0  0  0  0
   25.0962    8.8117   54.9757 C   0  0  0  0  0  0  0  0  0  0  0  0
   28.0288    9.4470   57.2687 C   0  0  0  0  0  0  0  0  0  0  0  0
   27.7448   10.7727   57.7296 N   0  0  0  0  0  0  0  0  0  0  0  0
   28.6106   11.4320   58.7004 C   0  0  0  0  0  0  0  0  0  0  0  0
   29.6104   10.7941   59.1146 O   0  0  0  0  0  0  0  0  0  0  0  0
   28.3336   12.7225   59.1481 N   0  0  0  0  0  0  0  0  0  0  0  0
   26.9300   11.3277   57.4104 H   0  0  0  0  0  0  0  0  0  0  0  0
   27.4535   13.1709   58.7350 H   0  0  0  0  0  0  0  0  0  0  0  0
   29.0600   13.5027   60.0614 C   0  0  0  0  0  0  0  0  0  0  0  0
   28.9659   14.9101   59.9989 C   0  0  0  0  0  0  0  0  0  0  0  0
   29.6605   15.7334   60.8534 C   0  0  0  0  0  0  0  0  0  0  0  0
   30.4837   15.2077   61.8132 C   0  0  0  0  0  0  0  0  0  0  0  0
   30.6071   13.8520   61.9118 C   0  0  0  0  0  0  0  0  0  0  0  0
   29.8961   13.0234   61.0376 C   0  0  0  0  0  0  0  0  0  0  0  0
   20.5746    4.7561   53.4907 C   0  0  0  0  0  0  0  0  0  0  0  0
   21.0500    3.5536   53.0513 C   0  0  0  0  0  0  0  0  0  0  0  0
   20.2082    2.4623   52.7863 C   0  0  0  0  0  0  0  0  0  0  0  0
   20.7421    1.2865   52.3492 F   0  0  0  0  0  0  0  0  0  0  0  0
   18.8513    2.6162   52.9791 C   0  0  0  0  0  0  0  0  0  0  0  0
   18.3396    3.8042   53.4176 C   0  0  0  0  0  0  0  0  0  0  0  0
   19.2014    4.8768   53.6742 C   0  0  0  0  0  0  0  0  0  0  0  0
   16.9053    3.9685   53.6230 C   0  0  0  0  0  0  0  0  0  0  0  0
   15.9477    3.0550   53.2317 C   0  0  0  0  0  0  0  0  0  0  0  0
   14.7717    3.5962   53.6099 N   0  0  0  0  0  0  0  0  0  0  0  0
   14.9695    4.7538   54.1909 N   0  0  0  0  0  0  0  0  0  0  0  0
   16.2765    5.0380   54.2278 C   0  0  0  0  0  0  0  0  0  0  0  0
   14.2131    5.3711   54.5728 H   0  0  0  0  0  0  0  0  0  0  0  0
  9 10  1  0  0  0
 10 11  2  0  0  0
 11 12  1  0  0  0
 12 13  2  0  0  0
 13 16  1  0  0  0
 16 17  1  0  0  0
 17 18  1  0  0  0
 18 19  2  0  0  0
 18 20  1  0  0  0
 20 23  1  0  0  0
 23 24  2  0  0  0
 24 25  1  0  0  0
 25 26  2  0  0  0
 26 27  1  0  0  0
 27 28  2  0  0  0
 13 14  1  0  0  0
 14 15  2  0  0  0
 15  1  1  0  0  0
  1  2  2  0  0  0
  1  3  1  0  0  0
  3  4  1  0  0  0
  4  5  1  0  0  0
  5  6  1  0  0  0
  6  7  1  0  0  0
  7  8  1  0  0  0
  6 29  1  0  0  0
 29 30  2  0  0  0
 30 31  1  0  0  0
 31 32  1  0  0  0
 31 33  2  0  0  0
 33 34  1  0  0  0
 34 35  2  0  0  0
 34 36  1  0  0  0
 36 37  1  0  0  0
 37 38  2  0  0  0
 38 39  1  0  0  0
 39 40  1  0  0  0
 15 10  1  0  0  0
  8  3  1  0  0  0
 35 29  1  0  0  0
 40 36  2  0  0  0
 28 23  1  0  0  0
 17 21  1  0  0  0
 20 22  1  0  0  0
 39 41  1  0  0  0
M  END
> <minimizedAffinity>
22.28673

> <CNNscore>
0.6852366924

> <CNNaffinity>
6.7525262833

> <CNN_VS>
4.6270790100

> <CNNaffinity_variance>
0.2485140264

$$$$
[H]c1nn([H])c([H])c1-c1c([H])c(F)c([H])c(N2C([H])([H])C([H])([H])N(C(=O)c3c([H])c(C([H])([H])N([H])C(=O)N([H])c4c([H])c([H])c([H])c([H])c4[H])c([H])c([H])c3F)C([H])([H])C2([H])[H])c1[H]


 41 45  0  0  0  0  0  0  0  0999 V2000
   23.4565    8.9249   54.8759 C   0  0  0  0  0  0  0  0  0  0  0  0
   22.9347   10.0705   54.6896 O   0  0  0  0  0  0  0  0  0  0  0  0
   22.6358    7.7731   54.9625 N   0  0  0  0  0  0  0  0  0  0  0  0
   21.2019    7.8782   54.8423 C   0  0  0  0  0  0  0  0  0  0  0  0
   20.7915    7.0859   53.5971 C   0  0  0  0  0  0  0  0  0  0  0  0
   21.4175    5.7570   53.6632 N   0  0  0  0  0  0  0  0  0  0  0  0
   22.8203    5.6522   53.9308 C   0  0  0  0  0  0  0  0  0  0  0  0
   23.1958    6.4585   55.1751 C   0  0  0  0  0  0  0  0  0  0  0  0
   25.0566    7.7396   52.9637 F   0  0  0  0  0  0  0  0  0  0  0  0
   25.7060    8.2877   54.0306 C   0  0  0  0  0  0  0  0  0  0  0  0
   27.0817    8.2542   54.1477 C   0  0  0  0  0  0  0  0  0  0  0  0
   27.7217    8.8130   55.2330 C   0  0  0  0  0  0  0  0  0  0  0  0
   26.9418    9.4082   56.2007 C   0  0  0  0  0  0  0  0  0  0  0  0
   25.5645    9.4392   56.0785 C   0  0  0  0  0  0  0  0  0  0  0  0
   24.9084    8.8803   54.9909 C   0  0  0  0  0  0  0  0  0  0  0  0
   27.5925   10.0262   57.3876 C   0  0  0  0  0  0  0  0  0  0  0  0
   28.1364    9.0514   58.2844 N   0  0  0  0  0  0  0  0  0  0  0  0
   29.1234    9.4247   59.2910 C   0  0  0  0  0  0  0  0  0  0  0  0
   29.4762   10.6294   59.3399 O   0  0  0  0  0  0  0  0  0  0  0  0
   29.6519    8.4753   60.1638 N   0  0  0  0  0  0  0  0  0  0  0  0
   27.8692    8.0502   58.2726 H   0  0  0  0  0  0  0  0  0  0  0  0
   29.2863    7.4778   60.0305 H   0  0  0  0  0  0  0  0  0  0  0  0
   30.5918    8.6621   61.1895 C   0  0  0  0  0  0  0  0  0  0  0  0
   31.0432    9.9665   61.4865 C   0  0  0  0  0  0  0  0  0  0  0  0
   31.9721   10.2187   62.4684 C   0  0  0  0  0  0  0  0  0  0  0  0
   32.5022    9.1946   63.2069 C   0  0  0  0  0  0  0  0  0  0  0  0
   32.0964    7.9159   62.9556 C   0  0  0  0  0  0  0  0  0  0  0  0
   31.1511    7.6701   61.9544 C   0  0  0  0  0  0  0  0  0  0  0  0
   20.5798    4.6442   53.4361 C   0  0  0  0  0  0  0  0  0  0  0  0
   21.0916    3.4495   53.0166 C   0  0  0  0  0  0  0  0  0  0  0  0
   20.2830    2.3296   52.7677 C   0  0  0  0  0  0  0  0  0  0  0  0
   20.8524    1.1635   52.3501 F   0  0  0  0  0  0  0  0  0  0  0  0
   18.9218    2.4463   52.9560 C   0  0  0  0  0  0  0  0  0  0  0  0
   18.3742    3.6254   53.3747 C   0  0  0  0  0  0  0  0  0  0  0  0
   19.2034    4.7270   53.6156 C   0  0  0  0  0  0  0  0  0  0  0  0
   16.9353    3.7503   53.5754 C   0  0  0  0  0  0  0  0  0  0  0  0
   16.3402    4.6286   54.4580 C   0  0  0  0  0  0  0  0  0  0  0  0
   15.0153    4.4151   54.3253 N   0  0  0  0  0  0  0  0  0  0  0  0
   14.7919    3.4807   53.4344 N   0  0  0  0  0  0  0  0  0  0  0  0
   15.9481    3.0298   52.9340 C   0  0  0  0  0  0  0  0  0  0  0  0
   13.8436    3.1340   53.1526 H   0  0  0  0  0  0  0  0  0  0  0  0
  9 10  1  0  0  0
 10 11  2  0  0  0
 11 12  1  0  0  0
 12 13  2  0  0  0
 13 16  1  0  0  0
 16 17  1  0  0  0
 17 18  1  0  0  0
 18 19  2  0  0  0
 18 20  1  0  0  0
 20 23  1  0  0  0
 23 24  2  0  0  0
 24 25  1  0  0  0
 25 26  2  0  0  0
 26 27  1  0  0  0
 27 28  2  0  0  0
 13 14  1  0  0  0
 14 15  2  0  0  0
 15  1  1  0  0  0
  1  2  2  0  0  0
  1  3  1  0  0  0
  3  4  1  0  0  0
  4  5  1  0  0  0
  5  6  1  0  0  0
  6  7  1  0  0  0
  7  8  1  0  0  0
  6 29  1  0  0  0
 29 30  2  0  0  0
 30 31  1  0  0  0
 31 32  1  0  0  0
 31 33  2  0  0  0
 33 34  1  0  0  0
 34 35  2  0  0  0
 34 36  1  0  0  0
 36 37  1  0  0  0
 37 38  2  0  0  0
 38 39  1  0  0  0
 39 40  1  0  0  0
 15 10  1  0  0  0
  8  3  1  0  0  0
 35 29  1  0  0  0
 40 36  2  0  0  0
 28 23  1  0  0  0
 17 21  1  0  0  0
 20 22  1  0  0  0
 39 41  1  0  0  0
M  END
> <minimizedAffinity>
19.95387

> <CNNscore>
0.6548221707

> <CNNaffinity>
6.8931946754

> <CNN_VS>
4.5138168335

> <CNNaffinity_variance>
0.2778150737

$$$$
[H]c1nn([H])c([H])c1-c1c([H])c(F)c([H])c(N2C([H])([H])C([H])([H])N(C(=O)c3c([H])c(C([H])([H])N([H])C(=O)N([H])c4c([H])c([H])c([H])c([H])c4[H])c([H])c([H])c3F)C([H])([H])C2([H])[H])c1[H]


 41 45  0  0  0  0  0  0  0  0999 V2000
   28.4064    9.0990   57.8967 C   0  0  0  0  0  0  0  0  0  0  0  0
   29.1359    8.1448   58.3167 O   0  0  0  0  0  0  0  0  0  0  0  0
   28.2086   10.2512   58.6973 N   0  0  0  0  0  0  0  0  0  0  0  0
   28.8268   10.3620   59.9961 C   0  0  0  0  0  0  0  0  0  0  0  0
   29.7861   11.5552   59.9420 C   0  0  0  0  0  0  0  0  0  0  0  0
   29.0648   12.7078   59.3824 N   0  0  0  0  0  0  0  0  0  0  0  0
   28.3274   12.5532   58.1646 C   0  0  0  0  0  0  0  0  0  0  0  0
   27.3854   11.3513   58.2511 C   0  0  0  0  0  0  0  0  0  0  0  0
   29.8893    8.4004   55.6752 F   0  0  0  0  0  0  0  0  0  0  0  0
   28.5528    8.5794   55.4698 C   0  0  0  0  0  0  0  0  0  0  0  0
   27.9743    8.4191   54.2260 C   0  0  0  0  0  0  0  0  0  0  0  0
   26.6217    8.6040   54.0363 C   0  0  0  0  0  0  0  0  0  0  0  0
   25.8628    8.9553   55.1316 C   0  0  0  0  0  0  0  0  0  0  0  0
   26.4471    9.1144   56.3750 C   0  0  0  0  0  0  0  0  0  0  0  0
   27.8074    8.9310   56.5790 C   0  0  0  0  0  0  0  0  0  0  0  0
   24.3980    9.1620   54.9715 C   0  0  0  0  0  0  0  0  0  0  0  0
   23.8229    8.2812   53.9999 N   0  0  0  0  0  0  0  0  0  0  0  0
   22.5697    7.5845   54.2661 C   0  0  0  0  0  0  0  0  0  0  0  0
   22.0173    7.7865   55.3762 O   0  0  0  0  0  0  0  0  0  0  0  0
   22.0105    6.7278   53.3197 N   0  0  0  0  0  0  0  0  0  0  0  0
   24.2504    8.0909   53.0753 H   0  0  0  0  0  0  0  0  0  0  0  0
   22.5674    6.6239   52.4112 H   0  0  0  0  0  0  0  0  0  0  0  0
   20.8169    5.9940   53.4059 C   0  0  0  0  0  0  0  0  0  0  0  0
   20.8718    4.5838   53.4462 C   0  0  0  0  0  0  0  0  0  0  0  0
   19.7414    3.8043   53.5166 C   0  0  0  0  0  0  0  0  0  0  0  0
   18.4988    4.3789   53.5507 C   0  0  0  0  0  0  0  0  0  0  0  0
   18.3955    5.7393   53.5135 C   0  0  0  0  0  0  0  0  0  0  0  0
   19.5517    6.5231   53.4419 C   0  0  0  0  0  0  0  0  0  0  0  0
   29.1617   13.9261   60.0880 C   0  0  0  0  0  0  0  0  0  0  0  0
   28.0607   14.5041   60.6529 C   0  0  0  0  0  0  0  0  0  0  0  0
   28.1223   15.7221   61.3474 C   0  0  0  0  0  0  0  0  0  0  0  0
   26.9882   16.2499   61.8896 F   0  0  0  0  0  0  0  0  0  0  0  0
   29.3431   16.3537   61.4607 C   0  0  0  0  0  0  0  0  0  0  0  0
   30.4657   15.8056   60.9087 C   0  0  0  0  0  0  0  0  0  0  0  0
   30.3764   14.5898   60.2210 C   0  0  0  0  0  0  0  0  0  0  0  0
   31.7575   16.4713   61.0284 C   0  0  0  0  0  0  0  0  0  0  0  0
   32.2812   17.3403   60.0929 C   0  0  0  0  0  0  0  0  0  0  0  0
   33.4750   17.7174   60.5943 N   0  0  0  0  0  0  0  0  0  0  0  0
   33.6878   17.1358   61.7488 N   0  0  0  0  0  0  0  0  0  0  0  0
   32.6543   16.3492   62.0704 C   0  0  0  0  0  0  0  0  0  0  0  0
   34.5449   17.2665   62.3381 H   0  0  0  0  0  0  0  0  0  0  0  0
  9 10  1  0  0  0
 10 11  2  0  0  0
 11 12  1  0  0  0
 12 13  2  0  0  0
 13 16  1  0  0  0
 16 17  1  0  0  0
 17 18  1  0  0  0
 18 19  2  0  0  0
 18 20  1  0  0  0
 20 23  1  0  0  0
 23 24  2  0  0  0
 24 25  1  0  0  0
 25 26  2  0  0  0
 26 27  1  0  0  0
 27 28  2  0  0  0
 13 14  1  0  0  0
 14 15  2  0  0  0
 15  1  1  0  0  0
  1  2  2  0  0  0
  1  3  1  0  0  0
  3  4  1  0  0  0
  4  5  1  0  0  0
  5  6  1  0  0  0
  6  7  1  0  0  0
  7  8  1  0  0  0
  6 29  1  0  0  0
 29 30  2  0  0  0
 30 31  1  0  0  0
 31 32  1  0  0  0
 31 33  2  0  0  0
 33 34  1  0  0  0
 34 35  2  0  0  0
 34 36  1  0  0  0
 36 37  1  0  0  0
 37 38  2  0  0  0
 38 39  1  0  0  0
 39 40  1  0  0  0
 15 10  1  0  0  0
  8  3  1  0  0  0
 35 29  1  0  0  0
 40 36  2  0  0  0
 28 23  1  0  0  0
 17 21  1  0  0  0
 20 22  1  0  0  0
 39 41  1  0  0  0
M  END
> <minimizedAffinity>
20.85579

> <CNNscore>
0.6478782296

> <CNNaffinity>
6.2529635429

> <CNN_VS>
4.0511589050

> <CNNaffinity_variance>
0.3769620657

$$$$
[H]c1nn([H])c([H])c1-c1c([H])c(F)c([H])c(N2C([H])([H])C([H])([H])N(C(=O)c3c([H])c(C([H])([H])N([H])C(=O)N([H])c4c([H])c([H])c([H])c([H])c4[H])c([H])c([H])c3F)C([H])([H])C2([H])[H])c1[H]


 41 45  0  0  0  0  0  0  0  0999 V2000
   28.5735    8.3820   56.7207 C   0  0  0  0  0  0  0  0  0  0  0  0
   29.6203    7.6585   56.7122 O   0  0  0  0  0  0  0  0  0  0  0  0
   28.2648    9.1763   57.8528 N   0  0  0  0  0  0  0  0  0  0  0  0
   29.1267    9.1784   59.0097 C   0  0  0  0  0  0  0  0  0  0  0  0
   29.6707   10.6017   59.1679 C   0  0  0  0  0  0  0  0  0  0  0  0
   28.5419   11.5417   59.1038 N   0  0  0  0  0  0  0  0  0  0  0  0
   27.6015   11.4403   58.0287 C   0  0  0  0  0  0  0  0  0  0  0  0
   27.0838   10.0073   57.8955 C   0  0  0  0  0  0  0  0  0  0  0  0
   29.2352    9.7339   54.4063 F   0  0  0  0  0  0  0  0  0  0  0  0
   28.0764    9.0152   54.3684 C   0  0  0  0  0  0  0  0  0  0  0  0
   27.2818    8.9644   53.2400 C   0  0  0  0  0  0  0  0  0  0  0  0
   26.1137    8.2330   53.2194 C   0  0  0  0  0  0  0  0  0  0  0  0
   25.7632    7.5520   54.3650 C   0  0  0  0  0  0  0  0  0  0  0  0
   26.5627    7.6062   55.4923 C   0  0  0  0  0  0  0  0  0  0  0  0
   27.7408    8.3387   55.5257 C   0  0  0  0  0  0  0  0  0  0  0  0
   24.5114    6.7479   54.3846 C   0  0  0  0  0  0  0  0  0  0  0  0
   23.3359    7.5642   54.4320 N   0  0  0  0  0  0  0  0  0  0  0  0
   23.1502    8.6688   53.4980 C   0  0  0  0  0  0  0  0  0  0  0  0
   24.0580    8.8749   52.6543 O   0  0  0  0  0  0  0  0  0  0  0  0
   22.0056    9.4625   53.5446 N   0  0  0  0  0  0  0  0  0  0  0  0
   22.5681    7.4236   55.1136 H   0  0  0  0  0  0  0  0  0  0  0  0
   21.2996    9.2028   54.3066 H   0  0  0  0  0  0  0  0  0  0  0  0
   21.6633   10.5473   52.7222 C   0  0  0  0  0  0  0  0  0  0  0  0
   21.2201   10.3046   51.4038 C   0  0  0  0  0  0  0  0  0  0  0  0
   20.8823   11.3209   50.5415 C   0  0  0  0  0  0  0  0  0  0  0  0
   20.9653   12.6289   50.9381 C   0  0  0  0  0  0  0  0  0  0  0  0
   21.3891   12.9129   52.2041 C   0  0  0  0  0  0  0  0  0  0  0  0
   21.7304   11.8717   53.0734 C   0  0  0  0  0  0  0  0  0  0  0  0
   28.4649   12.5179   60.1201 C   0  0  0  0  0  0  0  0  0  0  0  0
   28.0055   12.2037   61.3673 C   0  0  0  0  0  0  0  0  0  0  0  0
   27.9030   13.1553   62.3938 C   0  0  0  0  0  0  0  0  0  0  0  0
   27.4365   12.7812   63.6190 F   0  0  0  0  0  0  0  0  0  0  0  0
   28.2823   14.4541   62.1270 C   0  0  0  0  0  0  0  0  0  0  0  0
   28.7464   14.8053   60.8914 C   0  0  0  0  0  0  0  0  0  0  0  0
   28.8385   13.8366   59.8853 C   0  0  0  0  0  0  0  0  0  0  0  0
   29.1489   16.1778   60.6079 C   0  0  0  0  0  0  0  0  0  0  0  0
   28.4149   17.2961   60.9475 C   0  0  0  0  0  0  0  0  0  0  0  0
   29.1431   18.3412   60.5047 N   0  0  0  0  0  0  0  0  0  0  0  0
   30.2440   17.9192   59.9333 N   0  0  0  0  0  0  0  0  0  0  0  0
   30.3026   16.5829   59.9675 C   0  0  0  0  0  0  0  0  0  0  0  0
   30.9759   18.5384   59.5091 H   0  0  0  0  0  0  0  0  0  0  0  0
  9 10  1  0  0  0
 10 11  2  0  0  0
 11 12  1  0  0  0
 12 13  2  0  0  0
 13 16  1  0  0  0
 16 17  1  0  0  0
 17 18  1  0  0  0
 18 19  2  0  0  0
 18 20  1  0  0  0
 20 23  1  0  0  0
 23 24  2  0  0  0
 24 25  1  0  0  0
 25 26  2  0  0  0
 26 27  1  0  0  0
 27 28  2  0  0  0
 13 14  1  0  0  0
 14 15  2  0  0  0
 15  1  1  0  0  0
  1  2  2  0  0  0
  1  3  1  0  0  0
  3  4  1  0  0  0
  4  5  1  0  0  0
  5  6  1  0  0  0
  6  7  1  0  0  0
  7  8  1  0  0  0
  6 29  1  0  0  0
 29 30  2  0  0  0
 30 31  1  0  0  0
 31 32  1  0  0  0
 31 33  2  0  0  0
 33 34  1  0  0  0
 34 35  2  0  0  0
 34 36  1  0  0  0
 36 37  1  0  0  0
 37 38  2  0  0  0
 38 39  1  0  0  0
 39 40  1  0  0  0
 15 10  1  0  0  0
  8  3  1  0  0  0
 35 29  1  0  0  0
 40 36  2  0  0  0
 28 23  1  0  0  0
 17 21  1  0  0  0
 20 22  1  0  0  0
 39 41  1  0  0  0
M  END
> <minimizedAffinity>
21.81004

> <CNNscore>
0.6205123663

> <CNNaffinity>
6.4182677269

> <CNN_VS>
3.9826145172

> <CNNaffinity_variance>
0.3951649368

$$$$
[H]c1nn([H])c([H])c1-c1c([H])c(F)c([H])c(N2C([H])([H])C([H])([H])N(C(=O)c3c([H])c(C([H])([H])N([H])C(=O)N([H])c4c([H])c([H])c([H])c([H])c4[H])c([H])c([H])c3F)C([H])([H])C2([H])[H])c1[H]


 41 45  0  0  0  0  0  0  0  0999 V2000
   23.6869    8.9137   55.0930 C   0  0  0  0  0  0  0  0  0  0  0  0
   23.1461   10.0650   55.1287 O   0  0  0  0  0  0  0  0  0  0  0  0
   22.8842    7.7470   55.1399 N   0  0  0  0  0  0  0  0  0  0  0  0
   21.4475    7.8431   55.2292 C   0  0  0  0  0  0  0  0  0  0  0  0
   20.8703    7.2105   53.9590 C   0  0  0  0  0  0  0  0  0  0  0  0
   21.4978    5.8947   53.7673 N   0  0  0  0  0  0  0  0  0  0  0  0
   22.9239    5.7793   53.8270 C   0  0  0  0  0  0  0  0  0  0  0  0
   23.4663    6.4253   55.1029 C   0  0  0  0  0  0  0  0  0  0  0  0
   25.0102    8.0365   52.8343 F   0  0  0  0  0  0  0  0  0  0  0  0
   25.7996    8.4405   53.8708 C   0  0  0  0  0  0  0  0  0  0  0  0
   27.1784    8.4146   53.7956 C   0  0  0  0  0  0  0  0  0  0  0  0
   27.9609    8.8266   54.8528 C   0  0  0  0  0  0  0  0  0  0  0  0
   27.3208    9.2664   55.9912 C   0  0  0  0  0  0  0  0  0  0  0  0
   25.9397    9.2904   56.0612 C   0  0  0  0  0  0  0  0  0  0  0  0
   25.1409    8.8784   55.0039 C   0  0  0  0  0  0  0  0  0  0  0  0
   28.1278    9.7228   57.1549 C   0  0  0  0  0  0  0  0  0  0  0  0
   28.8732    8.6584   57.7566 N   0  0  0  0  0  0  0  0  0  0  0  0
   28.5660    8.1947   59.1047 C   0  0  0  0  0  0  0  0  0  0  0  0
   27.6263    8.7632   59.7145 O   0  0  0  0  0  0  0  0  0  0  0  0
   29.2919    7.1584   59.6892 N   0  0  0  0  0  0  0  0  0  0  0  0
   29.6539    8.1675   57.2839 H   0  0  0  0  0  0  0  0  0  0  0  0
   30.0746    6.7498   59.0836 H   0  0  0  0  0  0  0  0  0  0  0  0
   29.1239    6.5854   60.9596 C   0  0  0  0  0  0  0  0  0  0  0  0
   28.4430    5.3545   61.0801 C   0  0  0  0  0  0  0  0  0  0  0  0
   28.2318    4.7453   62.2944 C   0  0  0  0  0  0  0  0  0  0  0  0
   28.6827    5.3216   63.4519 C   0  0  0  0  0  0  0  0  0  0  0  0
   29.3465    6.5124   63.3855 C   0  0  0  0  0  0  0  0  0  0  0  0
   29.5560    7.1238   62.1451 C   0  0  0  0  0  0  0  0  0  0  0  0
   20.6357    4.8066   53.5134 C   0  0  0  0  0  0  0  0  0  0  0  0
   21.1183    3.6181   53.0446 C   0  0  0  0  0  0  0  0  0  0  0  0
   20.2848    2.5233   52.7683 C   0  0  0  0  0  0  0  0  0  0  0  0
   20.8255    1.3621   52.3016 F   0  0  0  0  0  0  0  0  0  0  0  0
   18.9288    2.6589   52.9805 C   0  0  0  0  0  0  0  0  0  0  0  0
   18.4101    3.8325   53.4485 C   0  0  0  0  0  0  0  0  0  0  0  0
   19.2637    4.9089   53.7159 C   0  0  0  0  0  0  0  0  0  0  0  0
   16.9768    3.9773   53.6745 C   0  0  0  0  0  0  0  0  0  0  0  0
   16.0190    3.0908   53.2258 C   0  0  0  0  0  0  0  0  0  0  0  0
   14.8442    3.6002   53.6491 N   0  0  0  0  0  0  0  0  0  0  0  0
   15.0428    4.7143   54.3093 N   0  0  0  0  0  0  0  0  0  0  0  0
   16.3492    4.9992   54.3577 C   0  0  0  0  0  0  0  0  0  0  0  0
   14.2874    5.3006   54.7389 H   0  0  0  0  0  0  0  0  0  0  0  0
  9 10  1  0  0  0
 10 11  2  0  0  0
 11 12  1  0  0  0
 12 13  2  0  0  0
 13 16  1  0  0  0
 16 17  1  0  0  0
 17 18  1  0  0  0
 18 19  2  0  0  0
 18 20  1  0  0  0
 20 23  1  0  0  0
 23 24  2  0  0  0
 24 25  1  0  0  0
 25 26  2  0  0  0
 26 27  1  0  0  0
 27 28  2  0  0  0
 13 14  1  0  0  0
 14 15  2  0  0  0
 15  1  1  0  0  0
  1  2  2  0  0  0
  1  3  1  0  0  0
  3  4  1  0  0  0
  4  5  1  0  0  0
  5  6  1  0  0  0
  6  7  1  0  0  0
  7  8  1  0  0  0
  6 29  1  0  0  0
 29 30  2  0  0  0
 30 31  1  0  0  0
 31 32  1  0  0  0
 31 33  2  0  0  0
 33 34  1  0  0  0
 34 35  2  0  0  0
 34 36  1  0  0  0
 36 37  1  0  0  0
 37 38  2  0  0  0
 38 39  1  0  0  0
 39 40  1  0  0  0
 15 10  1  0  0  0
  8  3  1  0  0  0
 35 29  1  0  0  0
 40 36  2  0  0  0
 28 23  1  0  0  0
 17 21  1  0  0  0
 20 22  1  0  0  0
 39 41  1  0  0  0
M  END
> <minimizedAffinity>
26.46960

> <CNNscore>
0.6112410426

> <CNNaffinity>
6.7464447021

> <CNN_VS>
4.1237039566

> <CNNaffinity_variance>
0.3818127215

$$$$
[H]c1nn([H])c([H])c1-c1c([H])c(F)c([H])c(N2C([H])([H])C([H])([H])N(C(=O)c3c([H])c(C([H])([H])N([H])C(=O)N([H])c4c([H])c([H])c([H])c([H])c4[H])c([H])c([H])c3F)C([H])([H])C2([H])[H])c1[H]


 41 45  0  0  0  0  0  0  0  0999 V2000
   28.0241    8.6152   56.1829 C   0  0  0  0  0  0  0  0  0  0  0  0
   29.0861    7.9811   55.8840 O   0  0  0  0  0  0  0  0  0  0  0  0
   27.9248    9.2965   57.4213 N   0  0  0  0  0  0  0  0  0  0  0  0
   29.0199    9.2830   58.3605 C   0  0  0  0  0  0  0  0  0  0  0  0
   29.4953   10.7300   58.5244 C   0  0  0  0  0  0  0  0  0  0  0  0
   28.3238   11.5781   58.7897 N   0  0  0  0  0  0  0  0  0  0  0  0
   27.1768   11.4806   57.9380 C   0  0  0  0  0  0  0  0  0  0  0  0
   26.7331   10.0242   57.7919 C   0  0  0  0  0  0  0  0  0  0  0  0
   28.4889    8.1499   53.5015 F   0  0  0  0  0  0  0  0  0  0  0  0
   27.1881    8.3578   53.8556 C   0  0  0  0  0  0  0  0  0  0  0  0
   26.1638    8.3352   52.9296 C   0  0  0  0  0  0  0  0  0  0  0  0
   24.8546    8.5474   53.3050 C   0  0  0  0  0  0  0  0  0  0  0  0
   24.6002    8.7838   54.6385 C   0  0  0  0  0  0  0  0  0  0  0  0
   25.6298    8.8053   55.5618 C   0  0  0  0  0  0  0  0  0  0  0  0
   26.9517    8.5930   55.1966 C   0  0  0  0  0  0  0  0  0  0  0  0
   23.2005    9.0152   55.0870 C   0  0  0  0  0  0  0  0  0  0  0  0
   22.2359    8.5329   54.1449 N   0  0  0  0  0  0  0  0  0  0  0  0
   21.5950    7.2352   54.3235 C   0  0  0  0  0  0  0  0  0  0  0  0
   21.9210    6.5602   55.3316 O   0  0  0  0  0  0  0  0  0  0  0  0
   20.6561    6.7669   53.4062 N   0  0  0  0  0  0  0  0  0  0  0  0
   21.9436    9.0619   53.3031 H   0  0  0  0  0  0  0  0  0  0  0  0
   20.4575    7.4198   52.5811 H   0  0  0  0  0  0  0  0  0  0  0  0
   19.9411    5.5592   53.4306 C   0  0  0  0  0  0  0  0  0  0  0  0
   18.5985    5.5574   53.8676 C   0  0  0  0  0  0  0  0  0  0  0  0
   17.8455    4.4087   53.9293 C   0  0  0  0  0  0  0  0  0  0  0  0
   18.3810    3.2029   53.5623 C   0  0  0  0  0  0  0  0  0  0  0  0
   19.6758    3.1549   53.1332 C   0  0  0  0  0  0  0  0  0  0  0  0
   20.4332    4.3292   53.0743 C   0  0  0  0  0  0  0  0  0  0  0  0
   28.4131   12.4675   59.8817 C   0  0  0  0  0  0  0  0  0  0  0  0
   27.9196   12.1294   61.1095 C   0  0  0  0  0  0  0  0  0  0  0  0
   27.9798   12.9977   62.2105 C   0  0  0  0  0  0  0  0  0  0  0  0
   27.4695   12.6036   63.4117 F   0  0  0  0  0  0  0  0  0  0  0  0
   28.5605   14.2370   62.0398 C   0  0  0  0  0  0  0  0  0  0  0  0
   29.0647   14.6098   60.8265 C   0  0  0  0  0  0  0  0  0  0  0  0
   28.9916   13.7246   59.7448 C   0  0  0  0  0  0  0  0  0  0  0  0
   29.6799   15.9192   60.6445 C   0  0  0  0  0  0  0  0  0  0  0  0
   29.1767   16.9158   59.8332 C   0  0  0  0  0  0  0  0  0  0  0  0
   30.0444   17.9407   59.9578 N   0  0  0  0  0  0  0  0  0  0  0  0
   31.0139   17.6190   60.7782 N   0  0  0  0  0  0  0  0  0  0  0  0
   30.8408   16.3739   61.2366 C   0  0  0  0  0  0  0  0  0  0  0  0
   31.8125   18.2459   61.0394 H   0  0  0  0  0  0  0  0  0  0  0  0
  9 10  1  0  0  0
 10 11  2  0  0  0
 11 12  1  0  0  0
 12 13  2  0  0  0
 13 16  1  0  0  0
 16 17  1  0  0  0
 17 18  1  0  0  0
 18 19  2  0  0  0
 18 20  1  0  0  0
 20 23  1  0  0  0
 23 24  2  0  0  0
 24 25  1  0  0  0
 25 26  2  0  0  0
 26 27  1  0  0  0
 27 28  2  0  0  0
 13 14  1  0  0  0
 14 15  2  0  0  0
 15  1  1  0  0  0
  1  2  2  0  0  0
  1  3  1  0  0  0
  3  4  1  0  0  0
  4  5  1  0  0  0
  5  6  1  0  0  0
  6  7  1  0  0  0
  7  8  1  0  0  0
  6 29  1  0  0  0
 29 30  2  0  0  0
 30 31  1  0  0  0
 31 32  1  0  0  0
 31 33  2  0  0  0
 33 34  1  0  0  0
 34 35  2  0  0  0
 34 36  1  0  0  0
 36 37  1  0  0  0
 37 38  2  0  0  0
 38 39  1  0  0  0
 39 40  1  0  0  0
 15 10  1  0  0  0
  8  3  1  0  0  0
 35 29  1  0  0  0
 40 36  2  0  0  0
 28 23  1  0  0  0
 17 21  1  0  0  0
 20 22  1  0  0  0
 39 41  1  0  0  0
M  END
> <minimizedAffinity>
22.39578

> <CNNscore>
0.6050404310

> <CNNaffinity>
6.3508749008

> <CNN_VS>
3.8425359726

> <CNNaffinity_variance>
0.6334584951

$$$$
[H]c1nn([H])c([H])c1-c1c([H])c(F)c([H])c(N2C([H])([H])C([H])([H])N(C(=O)c3c([H])c(C([H])([H])N([H])C(=O)N([H])c4c([H])c([H])c([H])c([H])c4[H])c([H])c([H])c3F)C([H])([H])C2([H])[H])c1[H]


 41 45  0  0  0  0  0  0  0  0999 V2000
   28.7013    8.8754   57.3778 C   0  0  0  0  0  0  0  0  0  0  0  0
   29.5595    8.2600   56.6678 O   0  0  0  0  0  0  0  0  0  0  0  0
   27.5451    9.4315   56.7764 N   0  0  0  0  0  0  0  0  0  0  0  0
   27.3219    9.3112   55.3562 C   0  0  0  0  0  0  0  0  0  0  0  0
   26.0403    8.4939   55.1657 C   0  0  0  0  0  0  0  0  0  0  0  0
   24.9896    9.0696   56.0179 N   0  0  0  0  0  0  0  0  0  0  0  0
   25.2654    9.3257   57.3996 C   0  0  0  0  0  0  0  0  0  0  0  0
   26.5525   10.1375   57.5532 C   0  0  0  0  0  0  0  0  0  0  0  0
   29.3222    6.6631   58.9083 F   0  0  0  0  0  0  0  0  0  0  0  0
   29.2925    7.8570   59.5675 C   0  0  0  0  0  0  0  0  0  0  0  0
   29.5588    7.9550   60.9190 C   0  0  0  0  0  0  0  0  0  0  0  0
   29.5242    9.1699   61.5692 C   0  0  0  0  0  0  0  0  0  0  0  0
   29.2143   10.2872   60.8245 C   0  0  0  0  0  0  0  0  0  0  0  0
   28.9485   10.1834   59.4712 C   0  0  0  0  0  0  0  0  0  0  0  0
   28.9802    8.9664   58.8051 C   0  0  0  0  0  0  0  0  0  0  0  0
   29.1688   11.6189   61.4866 C   0  0  0  0  0  0  0  0  0  0  0  0
   28.9334   12.6845   60.5596 N   0  0  0  0  0  0  0  0  0  0  0  0
   29.5549   13.9910   60.7432 C   0  0  0  0  0  0  0  0  0  0  0  0
   30.3013   14.1439   61.7421 O   0  0  0  0  0  0  0  0  0  0  0  0
   29.3255   15.0274   59.8401 N   0  0  0  0  0  0  0  0  0  0  0  0
   28.3244   12.5943   59.7260 H   0  0  0  0  0  0  0  0  0  0  0  0
   28.6684   14.7901   59.0288 H   0  0  0  0  0  0  0  0  0  0  0  0
   29.8470   16.3306   59.8584 C   0  0  0  0  0  0  0  0  0  0  0  0
   30.2222   16.9439   58.6433 C   0  0  0  0  0  0  0  0  0  0  0  0
   30.7519   18.2116   58.5908 C   0  0  0  0  0  0  0  0  0  0  0  0
   30.9378   18.9379   59.7367 C   0  0  0  0  0  0  0  0  0  0  0  0
   30.5901   18.3864   60.9358 C   0  0  0  0  0  0  0  0  0  0  0  0
   30.0522   17.0960   60.9781 C   0  0  0  0  0  0  0  0  0  0  0  0
   23.7414    9.3230   55.4101 C   0  0  0  0  0  0  0  0  0  0  0  0
   22.8514   10.1985   55.9638 C   0  0  0  0  0  0  0  0  0  0  0  0
   21.5968   10.4598   55.3915 C   0  0  0  0  0  0  0  0  0  0  0  0
   20.7506   11.3446   55.9913 F   0  0  0  0  0  0  0  0  0  0  0  0
   21.2561    9.8053   54.2264 C   0  0  0  0  0  0  0  0  0  0  0  0
   22.1206    8.9228   53.6439 C   0  0  0  0  0  0  0  0  0  0  0  0
   23.3656    8.6803   54.2356 C   0  0  0  0  0  0  0  0  0  0  0  0
   21.7626    8.2307   52.4114 C   0  0  0  0  0  0  0  0  0  0  0  0
   22.3566    7.0680   51.9642 C   0  0  0  0  0  0  0  0  0  0  0  0
   21.7323    6.7790   50.8043 N   0  0  0  0  0  0  0  0  0  0  0  0
   20.8210    7.6826   50.5407 N   0  0  0  0  0  0  0  0  0  0  0  0
   20.7938    8.6103   51.5045 C   0  0  0  0  0  0  0  0  0  0  0  0
   20.2006    7.6811   49.6956 H   0  0  0  0  0  0  0  0  0  0  0  0
  9 10  1  0  0  0
 10 11  2  0  0  0
 11 12  1  0  0  0
 12 13  2  0  0  0
 13 16  1  0  0  0
 16 17  1  0  0  0
 17 18  1  0  0  0
 18 19  2  0  0  0
 18 20  1  0  0  0
 20 23  1  0  0  0
 23 24  2  0  0  0
 24 25  1  0  0  0
 25 26  2  0  0  0
 26 27  1  0  0  0
 27 28  2  0  0  0
 13 14  1  0  0  0
 14 15  2  0  0  0
 15  1  1  0  0  0
  1  2  2  0  0  0
  1  3  1  0  0  0
  3  4  1  0  0  0
  4  5  1  0  0  0
  5  6  1  0  0  0
  6  7  1  0  0  0
  7  8  1  0  0  0
  6 29  1  0  0  0
 29 30  2  0  0  0
 30 31  1  0  0  0
 31 32  1  0  0  0
 31 33  2  0  0  0
 33 34  1  0  0  0
 34 35  2  0  0  0
 34 36  1  0  0  0
 36 37  1  0  0  0
 37 38  2  0  0  0
 38 39  1  0  0  0
 39 40  1  0  0  0
 15 10  1  0  0  0
  8  3  1  0  0  0
 35 29  1  0  0  0
 40 36  2  0  0  0
 28 23  1  0  0  0
 17 21  1  0  0  0
 20 22  1  0  0  0
 39 41  1  0  0  0
M  END
> <minimizedAffinity>
20.54013

> <CNNscore>
0.5906479955

> <CNNaffinity>
6.7444467545

> <CNN_VS>
3.9835939407

> <CNNaffinity_variance>
0.4047016203

$$$$
[H]c1nn([H])c([H])c1-c1c([H])c(F)c([H])c(N2C([H])([H])C([H])([H])N(C(=O)c3c([H])c(C([H])([H])N([H])C(=O)N([H])c4c([H])c([H])c([H])c([H])c4[H])c([H])c([H])c3F)C([H])([H])C2([H])[H])c1[H]


 41 45  0  0  0  0  0  0  0  0999 V2000
   23.7683    9.4230   55.2074 C   0  0  0  0  0  0  0  0  0  0  0  0
   23.3509   10.6148   55.0503 O   0  0  0  0  0  0  0  0  0  0  0  0
   22.8464    8.3512   55.3024 N   0  0  0  0  0  0  0  0  0  0  0  0
   21.4259    8.5909   55.2238 C   0  0  0  0  0  0  0  0  0  0  0  0
   20.9101    7.8592   53.9807 C   0  0  0  0  0  0  0  0  0  0  0  0
   21.4109    6.4771   54.0123 N   0  0  0  0  0  0  0  0  0  0  0  0
   22.8045    6.2383   54.2391 C   0  0  0  0  0  0  0  0  0  0  0  0
   23.2868    6.9872   55.4824 C   0  0  0  0  0  0  0  0  0  0  0  0
   25.1743    7.9649   53.3314 F   0  0  0  0  0  0  0  0  0  0  0  0
   25.9127    8.5129   54.3388 C   0  0  0  0  0  0  0  0  0  0  0  0
   27.2820    8.3505   54.4160 C   0  0  0  0  0  0  0  0  0  0  0  0
   28.0128    8.9114   55.4413 C   0  0  0  0  0  0  0  0  0  0  0  0
   27.3306    9.6417   56.3901 C   0  0  0  0  0  0  0  0  0  0  0  0
   25.9592    9.8013   56.3080 C   0  0  0  0  0  0  0  0  0  0  0  0
   25.2123    9.2419   55.2809 C   0  0  0  0  0  0  0  0  0  0  0  0
   28.0815   10.2666   57.5123 C   0  0  0  0  0  0  0  0  0  0  0  0
   28.4531    9.3183   58.5188 N   0  0  0  0  0  0  0  0  0  0  0  0
   29.4656    9.6408   59.5176 C   0  0  0  0  0  0  0  0  0  0  0  0
   29.9965   10.7780   59.4603 O   0  0  0  0  0  0  0  0  0  0  0  0
   29.8264    8.7173   60.4971 N   0  0  0  0  0  0  0  0  0  0  0  0
   28.0370    8.3723   58.5959 H   0  0  0  0  0  0  0  0  0  0  0  0
   29.3160    7.7773   60.4496 H   0  0  0  0  0  0  0  0  0  0  0  0
   30.7636    8.8655   61.5316 C   0  0  0  0  0  0  0  0  0  0  0  0
   31.3544    7.7166   62.1012 C   0  0  0  0  0  0  0  0  0  0  0  0
   32.2683    7.7894   63.1258 C   0  0  0  0  0  0  0  0  0  0  0  0
   32.6450    9.0014   63.6398 C   0  0  0  0  0  0  0  0  0  0  0  0
   32.1003   10.1404   63.1213 C   0  0  0  0  0  0  0  0  0  0  0  0
   31.1713   10.0553   62.0792 C   0  0  0  0  0  0  0  0  0  0  0  0
   20.4673    5.4505   53.7947 C   0  0  0  0  0  0  0  0  0  0  0  0
   19.1261    5.7058   53.8286 C   0  0  0  0  0  0  0  0  0  0  0  0
   18.1635    4.7036   53.6312 C   0  0  0  0  0  0  0  0  0  0  0  0
   16.8383    5.0200   53.6771 F   0  0  0  0  0  0  0  0  0  0  0  0
   18.5945    3.4151   53.3943 C   0  0  0  0  0  0  0  0  0  0  0  0
   19.9279    3.1222   53.3532 C   0  0  0  0  0  0  0  0  0  0  0  0
   20.8670    4.1406   53.5536 C   0  0  0  0  0  0  0  0  0  0  0  0
   20.3854    1.7608   53.1017 C   0  0  0  0  0  0  0  0  0  0  0  0
   20.0541    0.6669   53.8752 C   0  0  0  0  0  0  0  0  0  0  0  0
   20.6824   -0.3759   53.2951 N   0  0  0  0  0  0  0  0  0  0  0  0
   21.3541    0.0250   52.2441 N   0  0  0  0  0  0  0  0  0  0  0  0
   21.2071    1.3440   52.0740 C   0  0  0  0  0  0  0  0  0  0  0  0
   21.9259   -0.5971   51.6236 H   0  0  0  0  0  0  0  0  0  0  0  0
  9 10  1  0  0  0
 10 11  2  0  0  0
 11 12  1  0  0  0
 12 13  2  0  0  0
 13 16  1  0  0  0
 16 17  1  0  0  0
 17 18  1  0  0  0
 18 19  2  0  0  0
 18 20  1  0  0  0
 20 23  1  0  0  0
 23 24  2  0  0  0
 24 25  1  0  0  0
 25 26  2  0  0  0
 26 27  1  0  0  0
 27 28  2  0  0  0
 13 14  1  0  0  0
 14 15  2  0  0  0
 15  1  1  0  0  0
  1  2  2  0  0  0
  1  3  1  0  0  0
  3  4  1  0  0  0
  4  5  1  0  0  0
  5  6  1  0  0  0
  6  7  1  0  0  0
  7  8  1  0  0  0
  6 29  1  0  0  0
 29 30  2  0  0  0
 30 31  1  0  0  0
 31 32  1  0  0  0
 31 33  2  0  0  0
 33 34  1  0  0  0
 34 35  2  0  0  0
 34 36  1  0  0  0
 36 37  1  0  0  0
 37 38  2  0  0  0
 38 39  1  0  0  0
 39 40  1  0  0  0
 15 10  1  0  0  0
  8  3  1  0  0  0
 35 29  1  0  0  0
 40 36  2  0  0  0
 28 23  1  0  0  0
 17 21  1  0  0  0
 20 22  1  0  0  0
 39 41  1  0  0  0
M  END
> <minimizedAffinity>
34.33070

> <CNNscore>
0.5903050900

> <CNNaffinity>
6.6112265587

> <CNN_VS>
3.9026405811

> <CNNaffinity_variance>
0.1313166618

$$$$
[H]c1nn([H])c([H])c1-c1c([H])c(F)c([H])c(N2C([H])([H])C([H])([H])N(C(=O)c3c([H])c(C([H])([H])N([H])C(=O)N([H])c4c([H])c([H])c([H])c([H])c4[H])c([H])c([H])c3F)C([H])([H])C2([H])[H])c1[H]


 41 45  0  0  0  0  0  0  0  0999 V2000
   26.1195    8.3235   53.5033 C   0  0  0  0  0  0  0  0  0  0  0  0
   26.6678    8.7675   52.4443 O   0  0  0  0  0  0  0  0  0  0  0  0
   26.8579    8.2463   54.7101 N   0  0  0  0  0  0  0  0  0  0  0  0
   28.2371    8.6667   54.7592 C   0  0  0  0  0  0  0  0  0  0  0  0
   28.3174    9.8475   55.7317 C   0  0  0  0  0  0  0  0  0  0  0  0
   27.6292    9.4738   56.9762 N   0  0  0  0  0  0  0  0  0  0  0  0
   26.3116    8.9168   56.9121 C   0  0  0  0  0  0  0  0  0  0  0  0
   26.2662    7.7457   55.9293 C   0  0  0  0  0  0  0  0  0  0  0  0
   25.3701    5.6758   53.2788 F   0  0  0  0  0  0  0  0  0  0  0  0
   24.3545    6.5864   53.2831 C   0  0  0  0  0  0  0  0  0  0  0  0
   23.0301    6.2078   53.1832 C   0  0  0  0  0  0  0  0  0  0  0  0
   22.0162    7.1416   53.1891 C   0  0  0  0  0  0  0  0  0  0  0  0
   22.3681    8.4695   53.2981 C   0  0  0  0  0  0  0  0  0  0  0  0
   23.6960    8.8431   53.3980 C   0  0  0  0  0  0  0  0  0  0  0  0
   24.7257    7.9129   53.3934 C   0  0  0  0  0  0  0  0  0  0  0  0
   21.3046    9.5099   53.3112 C   0  0  0  0  0  0  0  0  0  0  0  0
   21.3464   10.3516   52.1535 N   0  0  0  0  0  0  0  0  0  0  0  0
   21.3281   11.8043   52.2798 C   0  0  0  0  0  0  0  0  0  0  0  0
   21.2743   12.2860   53.4388 O   0  0  0  0  0  0  0  0  0  0  0  0
   21.3693   12.6226   51.1523 N   0  0  0  0  0  0  0  0  0  0  0  0
   21.3908    9.9894   51.1835 H   0  0  0  0  0  0  0  0  0  0  0  0
   21.4076   12.1076   50.2144 H   0  0  0  0  0  0  0  0  0  0  0  0
   21.3714   14.0251   51.0931 C   0  0  0  0  0  0  0  0  0  0  0  0
   20.2583   14.7410   51.5849 C   0  0  0  0  0  0  0  0  0  0  0  0
   20.1892   16.1136   51.5450 C   0  0  0  0  0  0  0  0  0  0  0  0
   21.2167   16.8488   51.0169 C   0  0  0  0  0  0  0  0  0  0  0  0
   22.3141   16.2005   50.5286 C   0  0  0  0  0  0  0  0  0  0  0  0
   22.3743   14.8038   50.5739 C   0  0  0  0  0  0  0  0  0  0  0  0
   28.3202    9.7095   58.1840 C   0  0  0  0  0  0  0  0  0  0  0  0
   28.8285    8.6771   58.9194 C   0  0  0  0  0  0  0  0  0  0  0  0
   29.5068    8.8783   60.1315 C   0  0  0  0  0  0  0  0  0  0  0  0
   29.9918    7.8071   60.8213 F   0  0  0  0  0  0  0  0  0  0  0  0
   29.6630   10.1691   60.5915 C   0  0  0  0  0  0  0  0  0  0  0  0
   29.1680   11.2266   59.8829 C   0  0  0  0  0  0  0  0  0  0  0  0
   28.4953   10.9979   58.6769 C   0  0  0  0  0  0  0  0  0  0  0  0
   29.3332   12.5921   60.3670 C   0  0  0  0  0  0  0  0  0  0  0  0
   30.3776   13.0216   61.1602 C   0  0  0  0  0  0  0  0  0  0  0  0
   30.1419   14.3327   61.3707 N   0  0  0  0  0  0  0  0  0  0  0  0
   29.0414   14.7005   60.7622 N   0  0  0  0  0  0  0  0  0  0  0  0
   28.4948   13.6607   60.1216 C   0  0  0  0  0  0  0  0  0  0  0  0
   28.6439   15.6705   60.7743 H   0  0  0  0  0  0  0  0  0  0  0  0
  9 10  1  0  0  0
 10 11  2  0  0  0
 11 12  1  0  0  0
 12 13  2  0  0  0
 13 16  1  0  0  0
 16 17  1  0  0  0
 17 18  1  0  0  0
 18 19  2  0  0  0
 18 20  1  0  0  0
 20 23  1  0  0  0
 23 24  2  0  0  0
 24 25  1  0  0  0
 25 26  2  0  0  0
 26 27  1  0  0  0
 27 28  2  0  0  0
 13 14  1  0  0  0
 14 15  2  0  0  0
 15  1  1  0  0  0
  1  2  2  0  0  0
  1  3  1  0  0  0
  3  4  1  0  0  0
  4  5  1  0  0  0
  5  6  1  0  0  0
  6  7  1  0  0  0
  7  8  1  0  0  0
  6 29  1  0  0  0
 29 30  2  0  0  0
 30 31  1  0  0  0
 31 32  1  0  0  0
 31 33  2  0  0  0
 33 34  1  0  0  0
 34 35  2  0  0  0
 34 36  1  0  0  0
 36 37  1  0  0  0
 37 38  2  0  0  0
 38 39  1  0  0  0
 39 40  1  0  0  0
 15 10  1  0  0  0
  8  3  1  0  0  0
 35 29  1  0  0  0
 40 36  2  0  0  0
 28 23  1  0  0  0
 17 21  1  0  0  0
 20 22  1  0  0  0
 39 41  1  0  0  0
M  END
> <minimizedAffinity>
18.47440

> <CNNscore>
0.5407567024

> <CNNaffinity>
6.2107172012

> <CNN_VS>
3.3584868908

> <CNNaffinity_variance>
0.0694957450

$$$$
[H]c1nc(-c2c([H])c([H])c(OC([H])([H])[H])c([H])c2[H])c([H])c([H])c1C([H])([H])c1c([H])nn([H])c1[H]


 21 23  0  0  0  0  0  0  0  0999 V2000
   25.0183    8.7084   54.7690 C   0  0  0  0  0  0  0  0  0  0  0  0
   23.7648    9.2334   54.9705 C   0  0  0  0  0  0  0  0  0  0  0  0
   22.6893    8.9618   54.1175 C   0  0  0  0  0  0  0  0  0  0  0  0
   22.9186    8.1394   53.0483 C   0  0  0  0  0  0  0  0  0  0  0  0
   24.1579    7.6171   52.8444 C   0  0  0  0  0  0  0  0  0  0  0  0
   25.1563    7.9037   53.6853 N   0  0  0  0  0  0  0  0  0  0  0  0
   28.2942    9.5295   57.4092 C   0  0  0  0  0  0  0  0  0  0  0  0
   28.5136    9.0234   56.1407 C   0  0  0  0  0  0  0  0  0  0  0  0
   27.4626    8.7556   55.2823 C   0  0  0  0  0  0  0  0  0  0  0  0
   26.1549    8.9779   55.6453 C   0  0  0  0  0  0  0  0  0  0  0  0
   25.9574    9.4862   56.9232 C   0  0  0  0  0  0  0  0  0  0  0  0
   26.9900    9.7571   57.7867 C   0  0  0  0  0  0  0  0  0  0  0  0
   29.0639    9.9450   59.6433 C   0  0  0  0  0  0  0  0  0  0  0  0
   29.3429    9.7987   58.2707 O   0  0  0  0  0  0  0  0  0  0  0  0
   21.8071    7.8187   52.1102 C   0  0  0  0  0  0  0  0  0  0  0  0
   20.8522    6.8436   52.6873 C   0  0  0  0  0  0  0  0  0  0  0  0
   21.1448    5.5786   53.1633 C   0  0  0  0  0  0  0  0  0  0  0  0
   19.9734    5.0700   53.5842 N   0  0  0  0  0  0  0  0  0  0  0  0
   18.9931    5.9154   53.4057 N   0  0  0  0  0  0  0  0  0  0  0  0
   19.4976    7.0434   52.8450 C   0  0  0  0  0  0  0  0  0  0  0  0
   17.9836    5.7682   53.6468 H   0  0  0  0  0  0  0  0  0  0  0  0
 13 14  1  0  0  0
 14  7  1  0  0  0
  7  8  2  0  0  0
  8  9  1  0  0  0
  9 10  2  0  0  0
 10 11  1  0  0  0
 11 12  2  0  0  0
 10  1  1  0  0  0
  1  2  2  0  0  0
  2  3  1  0  0  0
  3  4  2  0  0  0
  4 15  1  0  0  0
 15 16  1  0  0  0
 16 17  1  0  0  0
 17 18  2  0  0  0
 18 19  1  0  0  0
 19 20  1  0  0  0
  4  5  1  0  0  0
  5  6  2  0  0  0
 12  7  1  0  0  0
  6  1  1  0  0  0
 20 16  2  0  0  0
 19 21  1  0  0  0
M  END
> <minimizedAffinity>
11.46219

> <CNNscore>
0.6541786790

> <CNNaffinity>
5.5887174606

> <CNN_VS>
3.6560196877

> <CNNaffinity_variance>
0.4048175812

$$$$
[H]c1nc(-c2c([H])c([H])c(OC([H])([H])[H])c([H])c2[H])c([H])c([H])c1C([H])([H])c1c([H])nn([H])c1[H]


 21 23  0  0  0  0  0  0  0  0999 V2000
   25.3067    8.3292   55.0632 C   0  0  0  0  0  0  0  0  0  0  0  0
   25.5265    7.5232   53.9725 C   0  0  0  0  0  0  0  0  0  0  0  0
   24.4824    6.9549   53.2344 C   0  0  0  0  0  0  0  0  0  0  0  0
   23.2018    7.2262   53.6328 C   0  0  0  0  0  0  0  0  0  0  0  0
   22.9789    8.0235   54.7120 C   0  0  0  0  0  0  0  0  0  0  0  0
   24.0071    8.5453   55.3878 N   0  0  0  0  0  0  0  0  0  0  0  0
   28.3923   10.1316   57.4311 C   0  0  0  0  0  0  0  0  0  0  0  0
   28.6956    9.4615   56.2595 C   0  0  0  0  0  0  0  0  0  0  0  0
   27.7064    8.8770   55.4895 C   0  0  0  0  0  0  0  0  0  0  0  0
   26.3799    8.9328   55.8482 C   0  0  0  0  0  0  0  0  0  0  0  0
   26.0978    9.6104   57.0278 C   0  0  0  0  0  0  0  0  0  0  0  0
   27.0684   10.1957   57.8030 C   0  0  0  0  0  0  0  0  0  0  0  0
   29.2266   10.7134   59.6040 C   0  0  0  0  0  0  0  0  0  0  0  0
   29.3790   10.7176   58.2040 O   0  0  0  0  0  0  0  0  0  0  0  0
   22.0547    6.6457   52.8808 C   0  0  0  0  0  0  0  0  0  0  0  0
   21.3169    7.6718   52.1070 C   0  0  0  0  0  0  0  0  0  0  0  0
   20.2559    7.4575   51.2465 C   0  0  0  0  0  0  0  0  0  0  0  0
   19.9169    8.6722   50.7798 N   0  0  0  0  0  0  0  0  0  0  0  0
   20.6793    9.6072   51.2816 N   0  0  0  0  0  0  0  0  0  0  0  0
   21.5734    9.0260   52.1205 C   0  0  0  0  0  0  0  0  0  0  0  0
   20.6268   10.6354   51.0838 H   0  0  0  0  0  0  0  0  0  0  0  0
 13 14  1  0  0  0
 14  7  1  0  0  0
  7  8  2  0  0  0
  8  9  1  0  0  0
  9 10  2  0  0  0
 10 11  1  0  0  0
 11 12  2  0  0  0
 10  1  1  0  0  0
  1  2  2  0  0  0
  2  3  1  0  0  0
  3  4  2  0  0  0
  4 15  1  0  0  0
 15 16  1  0  0  0
 16 17  1  0  0  0
 17 18  2  0  0  0
 18 19  1  0  0  0
 19 20  1  0  0  0
  4  5  1  0  0  0
  5  6  2  0  0  0
 12  7  1  0  0  0
  6  1  1  0  0  0
 20 16  2  0  0  0
 19 21  1  0  0  0
M  END
> <minimizedAffinity>
9.51370

> <CNNscore>
0.6005541682

> <CNNaffinity>
5.5660085678

> <CNN_VS>
3.3426897526

> <CNNaffinity_variance>
0.2416675836

$$$$
[H]c1nc(-c2c([H])c([H])c(OC([H])([H])[H])c([H])c2[H])c([H])c([H])c1C([H])([H])c1c([H])nn([H])c1[H]


 21 23  0  0  0  0  0  0  0  0999 V2000
   23.7273    8.0721   54.2087 C   0  0  0  0  0  0  0  0  0  0  0  0
   23.6102    7.1038   53.2412 C   0  0  0  0  0  0  0  0  0  0  0  0
   22.3755    6.7200   52.7065 C   0  0  0  0  0  0  0  0  0  0  0  0
   21.2554    7.3467   53.1808 C   0  0  0  0  0  0  0  0  0  0  0  0
   21.3660    8.3061   54.1386 C   0  0  0  0  0  0  0  0  0  0  0  0
   22.5666    8.6412   54.6209 N   0  0  0  0  0  0  0  0  0  0  0  0
   27.4294    9.3369   55.9612 C   0  0  0  0  0  0  0  0  0  0  0  0
   27.4118    8.6135   54.7823 C   0  0  0  0  0  0  0  0  0  0  0  0
   26.2221    8.2013   54.2099 C   0  0  0  0  0  0  0  0  0  0  0  0
   25.0045    8.4887   54.7811 C   0  0  0  0  0  0  0  0  0  0  0  0
   25.0453    9.2160   55.9643 C   0  0  0  0  0  0  0  0  0  0  0  0
   26.2180    9.6321   56.5447 C   0  0  0  0  0  0  0  0  0  0  0  0
   28.5900   10.2378   57.8580 C   0  0  0  0  0  0  0  0  0  0  0  0
   28.6176    9.7509   56.5368 O   0  0  0  0  0  0  0  0  0  0  0  0
   19.9167    6.9748   52.6444 C   0  0  0  0  0  0  0  0  0  0  0  0
   19.4342    5.6847   53.1910 C   0  0  0  0  0  0  0  0  0  0  0  0
   20.1512    4.5064   53.2912 C   0  0  0  0  0  0  0  0  0  0  0  0
   19.3090    3.6158   53.8439 N   0  0  0  0  0  0  0  0  0  0  0  0
   18.1417    4.1495   54.0889 N   0  0  0  0  0  0  0  0  0  0  0  0
   18.1735    5.4476   53.6954 C   0  0  0  0  0  0  0  0  0  0  0  0
   17.3099    3.6749   54.5155 H   0  0  0  0  0  0  0  0  0  0  0  0
 13 14  1  0  0  0
 14  7  1  0  0  0
  7  8  2  0  0  0
  8  9  1  0  0  0
  9 10  2  0  0  0
 10 11  1  0  0  0
 11 12  2  0  0  0
 10  1  1  0  0  0
  1  2  2  0  0  0
  2  3  1  0  0  0
  3  4  2  0  0  0
  4 15  1  0  0  0
 15 16  1  0  0  0
 16 17  1  0  0  0
 17 18  2  0  0  0
 18 19  1  0  0  0
 19 20  1  0  0  0
  4  5  1  0  0  0
  5  6  2  0  0  0
 12  7  1  0  0  0
  6  1  1  0  0  0
 20 16  2  0  0  0
 19 21  1  0  0  0
M  END
> <minimizedAffinity>
10.39930

> <CNNscore>
0.5784146190

> <CNNaffinity>
5.5662789345

> <CNN_VS>
3.2196171284

> <CNNaffinity_variance>
0.3353607059

$$$$
[H]c1nc(-c2c([H])c([H])c(OC([H])([H])[H])c([H])c2[H])c([H])c([H])c1C([H])([H])c1c([H])nn([H])c1[H]


 21 23  0  0  0  0  0  0  0  0999 V2000
   22.0781    6.5990   53.7952 C   0  0  0  0  0  0  0  0  0  0  0  0
   20.9468    7.2673   53.3940 C   0  0  0  0  0  0  0  0  0  0  0  0
   19.7551    6.6061   53.0767 C   0  0  0  0  0  0  0  0  0  0  0  0
   19.7396    5.2416   53.1770 C   0  0  0  0  0  0  0  0  0  0  0  0
   20.8571    4.5753   53.5738 C   0  0  0  0  0  0  0  0  0  0  0  0
   21.9740    5.2481   53.8672 N   0  0  0  0  0  0  0  0  0  0  0  0
   25.7096    8.6383   54.8102 C   0  0  0  0  0  0  0  0  0  0  0  0
   25.7359    7.3573   54.2886 C   0  0  0  0  0  0  0  0  0  0  0  0
   24.5691    6.6920   53.9584 C   0  0  0  0  0  0  0  0  0  0  0  0
   23.3321    7.2676   54.1312 C   0  0  0  0  0  0  0  0  0  0  0  0
   23.3288    8.5540   54.6560 C   0  0  0  0  0  0  0  0  0  0  0  0
   24.4783    9.2274   54.9887 C   0  0  0  0  0  0  0  0  0  0  0  0
   28.1036    8.6419   54.9677 C   0  0  0  0  0  0  0  0  0  0  0  0
   26.8746    9.3071   55.1417 O   0  0  0  0  0  0  0  0  0  0  0  0
   18.4958    4.4901   52.8507 C   0  0  0  0  0  0  0  0  0  0  0  0
   17.7182    4.1425   54.0633 C   0  0  0  0  0  0  0  0  0  0  0  0
   18.1850    3.4877   55.1883 C   0  0  0  0  0  0  0  0  0  0  0  0
   17.1306    3.3960   56.0177 N   0  0  0  0  0  0  0  0  0  0  0  0
   16.0626    3.9381   55.4953 N   0  0  0  0  0  0  0  0  0  0  0  0
   16.3838    4.4201   54.2683 C   0  0  0  0  0  0  0  0  0  0  0  0
   15.1114    4.0008   55.9315 H   0  0  0  0  0  0  0  0  0  0  0  0
 13 14  1  0  0  0
 14  7  1  0  0  0
  7  8  2  0  0  0
  8  9  1  0  0  0
  9 10  2  0  0  0
 10 11  1  0  0  0
 11 12  2  0  0  0
 10  1  1  0  0  0
  1  2  2  0  0  0
  2  3  1  0  0  0
  3  4  2  0  0  0
  4 15  1  0  0  0
 15 16  1  0  0  0
 16 17  1  0  0  0
 17 18  2  0  0  0
 18 19  1  0  0  0
 19 20  1  0  0  0
  4  5  1  0  0  0
  5  6  2  0  0  0
 12  7  1  0  0  0
  6  1  1  0  0  0
 20 16  2  0  0  0
 19 21  1  0  0  0
M  END
> <minimizedAffinity>
17.55064

> <CNNscore>
0.5582007170

> <CNNaffinity>
5.5120253563

> <CNN_VS>
3.0768165588

> <CNNaffinity_variance>
0.1456301063

$$$$
[H]c1nc(-c2c([H])c([H])c(OC([H])([H])[H])c([H])c2[H])c([H])c([H])c1C([H])([H])c1c([H])nn([H])c1[H]


 21 23  0  0  0  0  0  0  0  0999 V2000
   20.7689    7.7417   53.0436 C   0  0  0  0  0  0  0  0  0  0  0  0
   21.6553    6.8171   53.5406 C   0  0  0  0  0  0  0  0  0  0  0  0
   21.2982    5.4855   53.7799 C   0  0  0  0  0  0  0  0  0  0  0  0
   20.0116    5.1129   53.5009 C   0  0  0  0  0  0  0  0  0  0  0  0
   19.1302    6.0245   53.0087 C   0  0  0  0  0  0  0  0  0  0  0  0
   19.5151    7.2865   52.7954 N   0  0  0  0  0  0  0  0  0  0  0  0
   21.7809   11.8198   52.1944 C   0  0  0  0  0  0  0  0  0  0  0  0
   21.8060   11.3365   53.4902 C   0  0  0  0  0  0  0  0  0  0  0  0
   21.4809   10.0223   53.7733 C   0  0  0  0  0  0  0  0  0  0  0  0
   21.1189    9.1358   52.7862 C   0  0  0  0  0  0  0  0  0  0  0  0
   21.1004    9.6420   51.4924 C   0  0  0  0  0  0  0  0  0  0  0  0
   21.4204   10.9438   51.1955 C   0  0  0  0  0  0  0  0  0  0  0  0
   21.1543   13.9304   51.2409 C   0  0  0  0  0  0  0  0  0  0  0  0
   22.1055   13.1338   51.9072 O   0  0  0  0  0  0  0  0  0  0  0  0
   19.5809    3.7069   53.7378 C   0  0  0  0  0  0  0  0  0  0  0  0
   18.1055    3.5690   53.7515 C   0  0  0  0  0  0  0  0  0  0  0  0
   17.2228    4.1882   54.6173 C   0  0  0  0  0  0  0  0  0  0  0  0
   15.9999    3.7652   54.2516 N   0  0  0  0  0  0  0  0  0  0  0  0
   16.0616    2.9423   53.2385 N   0  0  0  0  0  0  0  0  0  0  0  0
   17.3640    2.7891   52.8903 C   0  0  0  0  0  0  0  0  0  0  0  0
   15.2562    2.4703   52.7614 H   0  0  0  0  0  0  0  0  0  0  0  0
 13 14  1  0  0  0
 14  7  1  0  0  0
  7  8  2  0  0  0
  8  9  1  0  0  0
  9 10  2  0  0  0
 10 11  1  0  0  0
 11 12  2  0  0  0
 10  1  1  0  0  0
  1  2  2  0  0  0
  2  3  1  0  0  0
  3  4  2  0  0  0
  4 15  1  0  0  0
 15 16  1  0  0  0
 16 17  1  0  0  0
 17 18  2  0  0  0
 18 19  1  0  0  0
 19 20  1  0  0  0
  4  5  1  0  0  0
  5  6  2  0  0  0
 12  7  1  0  0  0
  6  1  1  0  0  0
 20 16  2  0  0  0
 19 21  1  0  0  0
M  END
> <minimizedAffinity>
16.21189

> <CNNscore>
0.5416626930

> <CNNaffinity>
5.5631313324

> <CNN_VS>
3.0133407116

> <CNNaffinity_variance>
0.1276599616

$$$$
[H]c1nc(-c2c([H])c([H])c(OC([H])([H])[H])c([H])c2[H])c([H])c([H])c1C([H])([H])c1c([H])nn([H])c1[H]


 21 23  0  0  0  0  0  0  0  0999 V2000
   24.8618    8.2934   54.5476 C   0  0  0  0  0  0  0  0  0  0  0  0
   26.0276    7.9748   53.8943 C   0  0  0  0  0  0  0  0  0  0  0  0
   27.2830    8.3949   54.3476 C   0  0  0  0  0  0  0  0  0  0  0  0
   27.3265    9.1510   55.4871 C   0  0  0  0  0  0  0  0  0  0  0  0
   26.1751    9.4691   56.1377 C   0  0  0  0  0  0  0  0  0  0  0  0
   24.9974    9.0459   55.6684 N   0  0  0  0  0  0  0  0  0  0  0  0
   20.9601    7.1321   53.2043 C   0  0  0  0  0  0  0  0  0  0  0  0
   21.9056    6.1822   53.5466 C   0  0  0  0  0  0  0  0  0  0  0  0
   23.1668    6.5479   53.9810 C   0  0  0  0  0  0  0  0  0  0  0  0
   23.5412    7.8665   54.0934 C   0  0  0  0  0  0  0  0  0  0  0  0
   22.5765    8.8035   53.7446 C   0  0  0  0  0  0  0  0  0  0  0  0
   21.3206    8.4563   53.3118 C   0  0  0  0  0  0  0  0  0  0  0  0
   19.1868    5.5166   53.1584 C   0  0  0  0  0  0  0  0  0  0  0  0
   19.6974    6.7701   52.7694 O   0  0  0  0  0  0  0  0  0  0  0  0
   28.6381    9.6233   56.0116 C   0  0  0  0  0  0  0  0  0  0  0  0
   28.6131    9.8256   57.4794 C   0  0  0  0  0  0  0  0  0  0  0  0
   28.6321   11.0347   58.1503 C   0  0  0  0  0  0  0  0  0  0  0  0
   28.5966   10.7239   59.4581 N   0  0  0  0  0  0  0  0  0  0  0  0
   28.5577    9.4307   59.6415 N   0  0  0  0  0  0  0  0  0  0  0  0
   28.5663    8.8257   58.4270 C   0  0  0  0  0  0  0  0  0  0  0  0
   28.5249    8.9262   60.5599 H   0  0  0  0  0  0  0  0  0  0  0  0
 13 14  1  0  0  0
 14  7  1  0  0  0
  7  8  2  0  0  0
  8  9  1  0  0  0
  9 10  2  0  0  0
 10 11  1  0  0  0
 11 12  2  0  0  0
 10  1  1  0  0  0
  1  2  2  0  0  0
  2  3  1  0  0  0
  3  4  2  0  0  0
  4 15  1  0  0  0
 15 16  1  0  0  0
 16 17  1  0  0  0
 17 18  2  0  0  0
 18 19  1  0  0  0
 19 20  1  0  0  0
  4  5  1  0  0  0
  5  6  2  0  0  0
 12  7  1  0  0  0
  6  1  1  0  0  0
 20 16  2  0  0  0
 19 21  1  0  0  0
M  END
> <minimizedAffinity>
3.15113

> <CNNscore>
0.5240465403

> <CNNaffinity>
5.3288130760

> <CNN_VS>
2.7925460339

> <CNNaffinity_variance>
0.3813867271

$$$$
[H]c1nc(-c2c([H])c([H])c(OC([H])([H])[H])c([H])c2[H])c([H])c([H])c1C([H])([H])c1c([H])nn([H])c1[H]


 21 23  0  0  0  0  0  0  0  0999 V2000
   23.0024    8.6267   53.9010 C   0  0  0  0  0  0  0  0  0  0  0  0
   23.0143    9.4137   55.0270 C   0  0  0  0  0  0  0  0  0  0  0  0
   24.1256    9.5002   55.8727 C   0  0  0  0  0  0  0  0  0  0  0  0
   25.2315    8.7638   55.5458 C   0  0  0  0  0  0  0  0  0  0  0  0
   25.2248    7.9830   54.4320 C   0  0  0  0  0  0  0  0  0  0  0  0
   24.1404    7.9309   53.6525 N   0  0  0  0  0  0  0  0  0  0  0  0
   19.6160    8.2282   51.3029 C   0  0  0  0  0  0  0  0  0  0  0  0
   20.3849    9.3781   51.2968 C   0  0  0  0  0  0  0  0  0  0  0  0
   21.4791    9.5152   52.1317 C   0  0  0  0  0  0  0  0  0  0  0  0
   21.8548    8.5208   53.0042 C   0  0  0  0  0  0  0  0  0  0  0  0
   21.0691    7.3750   52.9938 C   0  0  0  0  0  0  0  0  0  0  0  0
   19.9801    7.2240   52.1712 C   0  0  0  0  0  0  0  0  0  0  0  0
   17.7541    9.2298   50.1688 C   0  0  0  0  0  0  0  0  0  0  0  0
   18.5207    8.0873   50.4693 O   0  0  0  0  0  0  0  0  0  0  0  0
   26.4409    8.8207   56.4132 C   0  0  0  0  0  0  0  0  0  0  0  0
   27.6614    9.1694   55.6485 C   0  0  0  0  0  0  0  0  0  0  0  0
   28.3484   10.3690   55.6849 C   0  0  0  0  0  0  0  0  0  0  0  0
   29.3790   10.2222   54.8338 N   0  0  0  0  0  0  0  0  0  0  0  0
   29.3790    9.0375   54.2825 N   0  0  0  0  0  0  0  0  0  0  0  0
   28.3186    8.3413   54.7640 C   0  0  0  0  0  0  0  0  0  0  0  0
   30.0697    8.6678   53.5859 H   0  0  0  0  0  0  0  0  0  0  0  0
 13 14  1  0  0  0
 14  7  1  0  0  0
  7  8  2  0  0  0
  8  9  1  0  0  0
  9 10  2  0  0  0
 10 11  1  0  0  0
 11 12  2  0  0  0
 10  1  1  0  0  0
  1  2  2  0  0  0
  2  3  1  0  0  0
  3  4  2  0  0  0
  4 15  1  0  0  0
 15 16  1  0  0  0
 16 17  1  0  0  0
 17 18  2  0  0  0
 18 19  1  0  0  0
 19 20  1  0  0  0
  4  5  1  0  0  0
  5  6  2  0  0  0
 12  7  1  0  0  0
  6  1  1  0  0  0
 20 16  2  0  0  0
 19 21  1  0  0  0
M  END
> <minimizedAffinity>
18.60229

> <CNNscore>
0.5212211013

> <CNNaffinity>
5.2680430412

> <CNN_VS>
2.7458152771

> <CNNaffinity_variance>
0.1756638587

$$$$
[H]c1nc(-c2c([H])c([H])c(OC([H])([H])[H])c([H])c2[H])c([H])c([H])c1C([H])([H])c1c([H])nn([H])c1[H]


 21 23  0  0  0  0  0  0  0  0999 V2000
   21.3230    7.2259   54.0601 C   0  0  0  0  0  0  0  0  0  0  0  0
   21.9366    5.9986   53.9932 C   0  0  0  0  0  0  0  0  0  0  0  0
   21.2501    4.8327   53.6364 C   0  0  0  0  0  0  0  0  0  0  0  0
   19.9173    4.9435   53.3476 C   0  0  0  0  0  0  0  0  0  0  0  0
   19.3051    6.1564   53.4124 C   0  0  0  0  0  0  0  0  0  0  0  0
   20.0004    7.2443   53.7578 N   0  0  0  0  0  0  0  0  0  0  0  0
   23.4385   10.7826   55.1789 C   0  0  0  0  0  0  0  0  0  0  0  0
   22.1918   10.8548   54.5839 C   0  0  0  0  0  0  0  0  0  0  0  0
   21.5022    9.7125   54.2197 C   0  0  0  0  0  0  0  0  0  0  0  0
   22.0188    8.4554   54.4298 C   0  0  0  0  0  0  0  0  0  0  0  0
   23.2716    8.4059   55.0285 C   0  0  0  0  0  0  0  0  0  0  0  0
   23.9684    9.5307   55.3957 C   0  0  0  0  0  0  0  0  0  0  0  0
   25.3439   11.7764   56.2457 C   0  0  0  0  0  0  0  0  0  0  0  0
   24.1313   11.9230   55.5447 O   0  0  0  0  0  0  0  0  0  0  0  0
   19.1409    3.7323   52.9623 C   0  0  0  0  0  0  0  0  0  0  0  0
   17.8243    3.6733   53.6399 C   0  0  0  0  0  0  0  0  0  0  0  0
   16.6090    3.3514   53.0640 C   0  0  0  0  0  0  0  0  0  0  0  0
   15.7057    3.4287   54.0572 N   0  0  0  0  0  0  0  0  0  0  0  0
   16.2657    3.7696   55.1875 N   0  0  0  0  0  0  0  0  0  0  0  0
   17.5955    3.9339   54.9739 C   0  0  0  0  0  0  0  0  0  0  0  0
   15.7886    3.8994   56.1120 H   0  0  0  0  0  0  0  0  0  0  0  0
 13 14  1  0  0  0
 14  7  1  0  0  0
  7  8  2  0  0  0
  8  9  1  0  0  0
  9 10  2  0  0  0
 10 11  1  0  0  0
 11 12  2  0  0  0
 10  1  1  0  0  0
  1  2  2  0  0  0
  2  3  1  0  0  0
  3  4  2  0  0  0
  4 15  1  0  0  0
 15 16  1  0  0  0
 16 17  1  0  0  0
 17 18  2  0  0  0
 18 19  1  0  0  0
 19 20  1  0  0  0
  4  5  1  0  0  0
  5  6  2  0  0  0
 12  7  1  0  0  0
  6  1  1  0  0  0
 20 16  2  0  0  0
 19 21  1  0  0  0
M  END
> <minimizedAffinity>
26.63134

> <CNNscore>
0.5145443678

> <CNNaffinity>
5.5481195450

> <CNN_VS>
2.8547537327

> <CNNaffinity_variance>
0.2260089666

$$$$
[H]c1nc(-c2c([H])c([H])c(OC([H])([H])[H])c([H])c2[H])c([H])c([H])c1C([H])([H])c1c([H])nn([H])c1[H]


 21 23  0  0  0  0  0  0  0  0999 V2000
   25.1241    8.3987   55.2102 C   0  0  0  0  0  0  0  0  0  0  0  0
   23.8221    8.8313   55.2820 C   0  0  0  0  0  0  0  0  0  0  0  0
   22.7764    8.1841   54.6144 C   0  0  0  0  0  0  0  0  0  0  0  0
   23.0864    7.0804   53.8675 C   0  0  0  0  0  0  0  0  0  0  0  0
   24.3738    6.6480   53.7932 C   0  0  0  0  0  0  0  0  0  0  0  0
   25.3413    7.2975   54.4479 N   0  0  0  0  0  0  0  0  0  0  0  0
   28.3126   10.3622   57.2969 C   0  0  0  0  0  0  0  0  0  0  0  0
   28.5482    9.6861   56.1133 C   0  0  0  0  0  0  0  0  0  0  0  0
   27.5255    9.0498   55.4335 C   0  0  0  0  0  0  0  0  0  0  0  0
   26.2310    9.0577   55.8978 C   0  0  0  0  0  0  0  0  0  0  0  0
   26.0168    9.7423   57.0877 C   0  0  0  0  0  0  0  0  0  0  0  0
   27.0214   10.3787   57.7740 C   0  0  0  0  0  0  0  0  0  0  0  0
   29.1360   11.3190   59.3372 C   0  0  0  0  0  0  0  0  0  0  0  0
   29.3331   10.9999   57.9798 O   0  0  0  0  0  0  0  0  0  0  0  0
   22.0096    6.3553   53.1374 C   0  0  0  0  0  0  0  0  0  0  0  0
   21.1721    7.2688   52.3249 C   0  0  0  0  0  0  0  0  0  0  0  0
   19.7906    7.3269   52.3017 C   0  0  0  0  0  0  0  0  0  0  0  0
   19.4836    8.2988   51.4247 N   0  0  0  0  0  0  0  0  0  0  0  0
   20.5581    8.8374   50.9120 N   0  0  0  0  0  0  0  0  0  0  0  0
   21.6424    8.2225   51.4479 C   0  0  0  0  0  0  0  0  0  0  0  0
   20.5984    9.6121   50.2069 H   0  0  0  0  0  0  0  0  0  0  0  0
 13 14  1  0  0  0
 14  7  1  0  0  0
  7  8  2  0  0  0
  8  9  1  0  0  0
  9 10  2  0  0  0
 10 11  1  0  0  0
 11 12  2  0  0  0
 10  1  1  0  0  0
  1  2  2  0  0  0
  2  3  1  0  0  0
  3  4  2  0  0  0
  4 15  1  0  0  0
 15 16  1  0  0  0
 16 17  1  0  0  0
 17 18  2  0  0  0
 18 19  1  0  0  0
 19 20  1  0  0  0
  4  5  1  0  0  0
  5  6  2  0  0  0
 12  7  1  0  0  0
  6  1  1  0  0  0
 20 16  2  0  0  0
 19 21  1  0  0  0
M  END
> <minimizedAffinity>
11.48844

> <CNNscore>
0.5093553662

> <CNNaffinity>
5.4395971298

> <CNN_VS>
2.7706880569

> <CNNaffinity_variance>
0.4028503001

$$$$
[H]c1nc(N2C([H])([H])C([H])([H])N(C(=O)c3c([H])c([H])c([H])c4c3nc(C([H])([H])[H])n4C([H])([H])c3c([H])c([H])c(Cl)c([H])c3[H])C([H])([H])C2([H])[H])n([H])c1-c1c([H])c([H])c([H])c([H])c1[H]


 38 43  0  0  0  0  0  0  0  0999 V2000
   27.3972    8.2385   56.4984 C   0  0  0  0  0  0  0  0  0  0  0  0
   27.7480    7.0750   56.8384 O   0  0  0  0  0  0  0  0  0  0  0  0
   27.5983    9.3538   57.3503 N   0  0  0  0  0  0  0  0  0  0  0  0
   27.1678   10.6554   56.8877 C   0  0  0  0  0  0  0  0  0  0  0  0
   28.2379   11.6679   57.2048 C   0  0  0  0  0  0  0  0  0  0  0  0
   28.6206   11.4951   58.5853 N   0  0  0  0  0  0  0  0  0  0  0  0
   29.1958   10.2378   58.9901 C   0  0  0  0  0  0  0  0  0  0  0  0
   28.2210    9.1388   58.6353 C   0  0  0  0  0  0  0  0  0  0  0  0
   21.9429    7.6683   55.9848 C   0  0  0  0  0  0  0  0  0  0  0  0
   23.2408    7.9432   55.2895 C   0  0  0  0  0  0  0  0  0  0  0  0
   24.4331    7.9707   55.9387 N   0  0  0  0  0  0  0  0  0  0  0  0
   25.3975    8.2494   55.0680 C   0  0  0  0  0  0  0  0  0  0  0  0
   26.7764    8.4029   55.1982 C   0  0  0  0  0  0  0  0  0  0  0  0
   27.5118    8.7070   54.0797 C   0  0  0  0  0  0  0  0  0  0  0  0
   26.9504    8.8676   52.8342 C   0  0  0  0  0  0  0  0  0  0  0  0
   25.5948    8.7134   52.7229 C   0  0  0  0  0  0  0  0  0  0  0  0
   24.8119    8.4041   53.8330 C   0  0  0  0  0  0  0  0  0  0  0  0
   23.4782    8.2085   54.0000 N   0  0  0  0  0  0  0  0  0  0  0  0
   22.5024    8.2919   52.9604 C   0  0  0  0  0  0  0  0  0  0  0  0
   22.0484    9.6443   52.5974 C   0  0  0  0  0  0  0  0  0  0  0  0
   21.6130    9.9644   51.3322 C   0  0  0  0  0  0  0  0  0  0  0  0
   21.2086   11.2373   51.0389 C   0  0  0  0  0  0  0  0  0  0  0  0
   21.2231   12.2460   52.0007 C   0  0  0  0  0  0  0  0  0  0  0  0
   20.6941   13.8762   51.5869 Cl  0  0  0  0  0  0  0  0  0  0  0  0
   21.6519   11.9574   53.2677 C   0  0  0  0  0  0  0  0  0  0  0  0
   22.0548   10.6763   53.5481 C   0  0  0  0  0  0  0  0  0  0  0  0
   28.4422   12.5314   59.5367 C   0  0  0  0  0  0  0  0  0  0  0  0
   27.5983   12.5115   60.5914 N   0  0  0  0  0  0  0  0  0  0  0  0
   27.6844   13.6568   61.2846 C   0  0  0  0  0  0  0  0  0  0  0  0
   28.6271   14.4529   60.6483 C   0  0  0  0  0  0  0  0  0  0  0  0
   29.0541   13.7265   59.5986 N   0  0  0  0  0  0  0  0  0  0  0  0
   29.7745   14.0738   58.9295 H   0  0  0  0  0  0  0  0  0  0  0  0
   29.0570   15.7955   61.0447 C   0  0  0  0  0  0  0  0  0  0  0  0
   28.1619   16.8220   61.2396 C   0  0  0  0  0  0  0  0  0  0  0  0
   28.5660   18.0910   61.6145 C   0  0  0  0  0  0  0  0  0  0  0  0
   29.8926   18.3572   61.8033 C   0  0  0  0  0  0  0  0  0  0  0  0
   30.8189   17.3320   61.6117 C   0  0  0  0  0  0  0  0  0  0  0  0
   30.3870   16.0632   61.2343 C   0  0  0  0  0  0  0  0  0  0  0  0
  9 10  1  0  0  0
 10 11  2  0  0  0
 11 12  1  0  0  0
 12 13  2  0  0  0
 13 14  1  0  0  0
 14 15  2  0  0  0
 15 16  1  0  0  0
 16 17  2  0  0  0
 17 18  1  0  0  0
 18 19  1  0  0  0
 19 20  1  0  0  0
 20 21  2  0  0  0
 21 22  1  0  0  0
 22 23  2  0  0  0
 23 24  1  0  0  0
 23 25  1  0  0  0
 25 26  2  0  0  0
 13  1  1  0  0  0
  1  2  2  0  0  0
  1  3  1  0  0  0
  3  4  1  0  0  0
  4  5  1  0  0  0
  5  6  1  0  0  0
  6  7  1  0  0  0
  7  8  1  0  0  0
  6 27  1  0  0  0
 27 28  2  0  0  0
 28 29  1  0  0  0
 29 30  2  0  0  0
 30 31  1  0  0  0
 30 33  1  0  0  0
 33 34  2  0  0  0
 34 35  1  0  0  0
 35 36  2  0  0  0
 36 37  1  0  0  0
 37 38  2  0  0  0
 18 10  1  0  0  0
 26 20  1  0  0  0
  8  3  1  0  0  0
 31 27  1  0  0  0
 38 33  1  0  0  0
 17 12  1  0  0  0
 31 32  1  0  0  0
M  END
> <minimizedAffinity>
24.69446

> <CNNscore>
0.5963414311

> <CNNaffinity>
6.7631111145

> <CNN_VS>
4.0331234932

> <CNNaffinity_variance>
0.4120334685

$$$$
[H]c1nc(N2C([H])([H])C([H])([H])N(C(=O)c3c([H])c([H])c([H])c4c3nc(C([H])([H])[H])n4C([H])([H])c3c([H])c([H])c(Cl)c([H])c3[H])C([H])([H])C2([H])[H])n([H])c1-c1c([H])c([H])c([H])c([H])c1[H]


 38 43  0  0  0  0  0  0  0  0999 V2000
   24.3889    9.2515   55.3233 C   0  0  0  0  0  0  0  0  0  0  0  0
   23.9985   10.3978   55.6783 O   0  0  0  0  0  0  0  0  0  0  0  0
   23.4736    8.2470   54.9192 N   0  0  0  0  0  0  0  0  0  0  0  0
   24.0006    6.9579   54.5269 C   0  0  0  0  0  0  0  0  0  0  0  0
   23.2930    6.4974   53.2787 C   0  0  0  0  0  0  0  0  0  0  0  0
   21.8736    6.6511   53.4880 N   0  0  0  0  0  0  0  0  0  0  0  0
   21.3492    7.9725   53.7215 C   0  0  0  0  0  0  0  0  0  0  0  0
   22.0632    8.5568   54.9186 C   0  0  0  0  0  0  0  0  0  0  0  0
   27.2110    9.8106   60.0203 C   0  0  0  0  0  0  0  0  0  0  0  0
   27.2677    9.4747   58.5616 C   0  0  0  0  0  0  0  0  0  0  0  0
   26.1729    9.4914   57.7586 N   0  0  0  0  0  0  0  0  0  0  0  0
   26.5294    9.1399   56.5277 C   0  0  0  0  0  0  0  0  0  0  0  0
   25.8151    8.9893   55.3407 C   0  0  0  0  0  0  0  0  0  0  0  0
   26.4909    8.5944   54.2131 C   0  0  0  0  0  0  0  0  0  0  0  0
   27.8427    8.3399   54.1998 C   0  0  0  0  0  0  0  0  0  0  0  0
   28.5302    8.4927   55.3736 C   0  0  0  0  0  0  0  0  0  0  0  0
   27.8825    8.8923   56.5405 C   0  0  0  0  0  0  0  0  0  0  0  0
   28.3123    9.1080   57.8108 N   0  0  0  0  0  0  0  0  0  0  0  0
   29.6599    8.9489   58.2568 C   0  0  0  0  0  0  0  0  0  0  0  0
   30.0134    9.6178   59.5195 C   0  0  0  0  0  0  0  0  0  0  0  0
   29.8876   10.9761   59.6983 C   0  0  0  0  0  0  0  0  0  0  0  0
   30.2370   11.5547   60.8870 C   0  0  0  0  0  0  0  0  0  0  0  0
   30.7285   10.7976   61.9491 C   0  0  0  0  0  0  0  0  0  0  0  0
   31.1687   11.5777   63.4677 Cl  0  0  0  0  0  0  0  0  0  0  0  0
   30.8652    9.4443   61.8001 C   0  0  0  0  0  0  0  0  0  0  0  0
   30.5110    8.8769   60.6023 C   0  0  0  0  0  0  0  0  0  0  0  0
   20.9985    5.5355   53.4663 C   0  0  0  0  0  0  0  0  0  0  0  0
   21.3610    4.2368   53.3833 N   0  0  0  0  0  0  0  0  0  0  0  0
   20.2782    3.4448   53.3874 C   0  0  0  0  0  0  0  0  0  0  0  0
   19.1653    4.2700   53.4773 C   0  0  0  0  0  0  0  0  0  0  0  0
   19.6556    5.5227   53.5221 N   0  0  0  0  0  0  0  0  0  0  0  0
   19.0440    6.3644   53.5917 H   0  0  0  0  0  0  0  0  0  0  0  0
   17.7618    3.8537   53.5149 C   0  0  0  0  0  0  0  0  0  0  0  0
   17.2948    2.7899   52.7781 C   0  0  0  0  0  0  0  0  0  0  0  0
   15.9693    2.3948   52.8125 C   0  0  0  0  0  0  0  0  0  0  0  0
   15.0763    3.0683   53.5968 C   0  0  0  0  0  0  0  0  0  0  0  0
   15.5266    4.1505   54.3531 C   0  0  0  0  0  0  0  0  0  0  0  0
   16.8658    4.5285   54.3011 C   0  0  0  0  0  0  0  0  0  0  0  0
  9 10  1  0  0  0
 10 11  2  0  0  0
 11 12  1  0  0  0
 12 13  2  0  0  0
 13 14  1  0  0  0
 14 15  2  0  0  0
 15 16  1  0  0  0
 16 17  2  0  0  0
 17 18  1  0  0  0
 18 19  1  0  0  0
 19 20  1  0  0  0
 20 21  2  0  0  0
 21 22  1  0  0  0
 22 23  2  0  0  0
 23 24  1  0  0  0
 23 25  1  0  0  0
 25 26  2  0  0  0
 13  1  1  0  0  0
  1  2  2  0  0  0
  1  3  1  0  0  0
  3  4  1  0  0  0
  4  5  1  0  0  0
  5  6  1  0  0  0
  6  7  1  0  0  0
  7  8  1  0  0  0
  6 27  1  0  0  0
 27 28  2  0  0  0
 28 29  1  0  0  0
 29 30  2  0  0  0
 30 31  1  0  0  0
 30 33  1  0  0  0
 33 34  2  0  0  0
 34 35  1  0  0  0
 35 36  2  0  0  0
 36 37  1  0  0  0
 37 38  2  0  0  0
 18 10  1  0  0  0
 26 20  1  0  0  0
  8  3  1  0  0  0
 31 27  1  0  0  0
 38 33  1  0  0  0
 17 12  1  0  0  0
 31 32  1  0  0  0
M  END
> <minimizedAffinity>
33.58515

> <CNNscore>
0.5496508479

> <CNNaffinity>
6.5409822464

> <CNN_VS>
3.5952563286

> <CNNaffinity_variance>
0.2339728624

$$$$
[H]c1nc(N2C([H])([H])C([H])([H])N(C(=O)c3c([H])c([H])c([H])c4c3nc(C([H])([H])[H])n4C([H])([H])c3c([H])c([H])c(Cl)c([H])c3[H])C([H])([H])C2([H])[H])n([H])c1-c1c([H])c([H])c([H])c([H])c1[H]


 38 43  0  0  0  0  0  0  0  0999 V2000
   27.8533    8.7185   58.1932 C   0  0  0  0  0  0  0  0  0  0  0  0
   27.6095    7.6854   58.8756 O   0  0  0  0  0  0  0  0  0  0  0  0
   28.2876    9.9241   58.7998 N   0  0  0  0  0  0  0  0  0  0  0  0
   28.5459   11.0650   57.9482 C   0  0  0  0  0  0  0  0  0  0  0  0
   29.8300   11.7223   58.3840 C   0  0  0  0  0  0  0  0  0  0  0  0
   29.7763   11.9013   59.8149 N   0  0  0  0  0  0  0  0  0  0  0  0
   29.6773   10.7339   60.6534 C   0  0  0  0  0  0  0  0  0  0  0  0
   28.4509    9.9565   60.2342 C   0  0  0  0  0  0  0  0  0  0  0  0
   22.8413    9.4210   56.0196 C   0  0  0  0  0  0  0  0  0  0  0  0
   24.2880    9.1358   55.7563 C   0  0  0  0  0  0  0  0  0  0  0  0
   25.2149    9.0545   56.7453 N   0  0  0  0  0  0  0  0  0  0  0  0
   26.4045    8.8045   56.2086 C   0  0  0  0  0  0  0  0  0  0  0  0
   27.6747    8.6355   56.7565 C   0  0  0  0  0  0  0  0  0  0  0  0
   28.7278    8.3923   55.9103 C   0  0  0  0  0  0  0  0  0  0  0  0
   28.5879    8.3073   54.5445 C   0  0  0  0  0  0  0  0  0  0  0  0
   27.3339    8.4752   54.0219 C   0  0  0  0  0  0  0  0  0  0  0  0
   26.2380    8.7233   54.8456 C   0  0  0  0  0  0  0  0  0  0  0  0
   24.9195    8.9314   54.5948 N   0  0  0  0  0  0  0  0  0  0  0  0
   24.3252    8.9424   53.2960 C   0  0  0  0  0  0  0  0  0  0  0  0
   23.0843    8.1664   53.1387 C   0  0  0  0  0  0  0  0  0  0  0  0
   21.9636    8.6783   52.5266 C   0  0  0  0  0  0  0  0  0  0  0  0
   20.8299    7.9226   52.4110 C   0  0  0  0  0  0  0  0  0  0  0  0
   20.7690    6.6203   52.9041 C   0  0  0  0  0  0  0  0  0  0  0  0
   19.2903    5.6749   52.7369 Cl  0  0  0  0  0  0  0  0  0  0  0  0
   21.8681    6.0847   53.5185 C   0  0  0  0  0  0  0  0  0  0  0  0
   22.9988    6.8540   53.6278 C   0  0  0  0  0  0  0  0  0  0  0  0
   29.8201   13.1921   60.4002 C   0  0  0  0  0  0  0  0  0  0  0  0
   28.7652   13.8926   60.8705 N   0  0  0  0  0  0  0  0  0  0  0  0
   29.1658   15.0770   61.3568 C   0  0  0  0  0  0  0  0  0  0  0  0
   30.5428   15.1443   61.1930 C   0  0  0  0  0  0  0  0  0  0  0  0
   30.8879   13.9808   60.6108 N   0  0  0  0  0  0  0  0  0  0  0  0
   31.8732   13.7455   60.3636 H   0  0  0  0  0  0  0  0  0  0  0  0
   31.4217   16.2511   61.5766 C   0  0  0  0  0  0  0  0  0  0  0  0
   32.0769   16.2790   62.7860 C   0  0  0  0  0  0  0  0  0  0  0  0
   32.9079   17.3235   63.1502 C   0  0  0  0  0  0  0  0  0  0  0  0
   33.0995   18.3729   62.2967 C   0  0  0  0  0  0  0  0  0  0  0  0
   32.4457   18.3668   61.0646 C   0  0  0  0  0  0  0  0  0  0  0  0
   31.6143   17.3037   60.7214 C   0  0  0  0  0  0  0  0  0  0  0  0
  9 10  1  0  0  0
 10 11  2  0  0  0
 11 12  1  0  0  0
 12 13  2  0  0  0
 13 14  1  0  0  0
 14 15  2  0  0  0
 15 16  1  0  0  0
 16 17  2  0  0  0
 17 18  1  0  0  0
 18 19  1  0  0  0
 19 20  1  0  0  0
 20 21  2  0  0  0
 21 22  1  0  0  0
 22 23  2  0  0  0
 23 24  1  0  0  0
 23 25  1  0  0  0
 25 26  2  0  0  0
 13  1  1  0  0  0
  1  2  2  0  0  0
  1  3  1  0  0  0
  3  4  1  0  0  0
  4  5  1  0  0  0
  5  6  1  0  0  0
  6  7  1  0  0  0
  7  8  1  0  0  0
  6 27  1  0  0  0
 27 28  2  0  0  0
 28 29  1  0  0  0
 29 30  2  0  0  0
 30 31  1  0  0  0
 30 33  1  0  0  0
 33 34  2  0  0  0
 34 35  1  0  0  0
 35 36  2  0  0  0
 36 37  1  0  0  0
 37 38  2  0  0  0
 18 10  1  0  0  0
 26 20  1  0  0  0
  8  3  1  0  0  0
 31 27  1  0  0  0
 38 33  1  0  0  0
 17 12  1  0  0  0
 31 32  1  0  0  0
M  END
> <minimizedAffinity>
19.02685

> <CNNscore>
0.5310658813

> <CNNaffinity>
6.3206925392

> <CNN_VS>
3.3567042351

> <CNNaffinity_variance>
0.2256459892

$$$$
[H]c1nc(N2C([H])([H])C([H])([H])N(C(=O)c3c([H])c([H])c([H])c4c3nc(C([H])([H])[H])n4C([H])([H])c3c([H])c([H])c(Cl)c([H])c3[H])C([H])([H])C2([H])[H])n([H])c1-c1c([H])c([H])c([H])c([H])c1[H]


 38 43  0  0  0  0  0  0  0  0999 V2000
   28.0047    8.2603   56.7025 C   0  0  0  0  0  0  0  0  0  0  0  0
   28.2912    7.0761   57.0313 O   0  0  0  0  0  0  0  0  0  0  0  0
   28.1230    9.3352   57.6195 N   0  0  0  0  0  0  0  0  0  0  0  0
   27.7747   10.6642   57.1656 C   0  0  0  0  0  0  0  0  0  0  0  0
   28.8176   11.6377   57.6506 C   0  0  0  0  0  0  0  0  0  0  0  0
   29.0296   11.4002   59.0580 N   0  0  0  0  0  0  0  0  0  0  0  0
   29.5294   10.1145   59.4736 C   0  0  0  0  0  0  0  0  0  0  0  0
   28.5839    9.0538   58.9587 C   0  0  0  0  0  0  0  0  0  0  0  0
   23.0553    6.4166   55.1397 C   0  0  0  0  0  0  0  0  0  0  0  0
   24.3057    7.1347   54.7342 C   0  0  0  0  0  0  0  0  0  0  0  0
   25.3415    7.3488   55.5856 N   0  0  0  0  0  0  0  0  0  0  0  0
   26.2981    8.0169   54.9496 C   0  0  0  0  0  0  0  0  0  0  0  0
   27.5467    8.4918   55.3463 C   0  0  0  0  0  0  0  0  0  0  0  0
   28.3124    9.1700   54.4309 C   0  0  0  0  0  0  0  0  0  0  0  0
   27.9044    9.4032   53.1381 C   0  0  0  0  0  0  0  0  0  0  0  0
   26.6756    8.9301   52.7638 C   0  0  0  0  0  0  0  0  0  0  0  0
   25.8673    8.2364   53.6618 C   0  0  0  0  0  0  0  0  0  0  0  0
   24.6329    7.6794   53.5570 N   0  0  0  0  0  0  0  0  0  0  0  0
   23.8247    7.6963   52.3794 C   0  0  0  0  0  0  0  0  0  0  0  0
   22.3709    7.5891   52.5831 C   0  0  0  0  0  0  0  0  0  0  0  0
   21.5425    6.9536   51.6871 C   0  0  0  0  0  0  0  0  0  0  0  0
   20.1958    6.8864   51.9144 C   0  0  0  0  0  0  0  0  0  0  0  0
   19.6195    7.4536   53.0496 C   0  0  0  0  0  0  0  0  0  0  0  0
   17.8790    7.3473   53.3102 Cl  0  0  0  0  0  0  0  0  0  0  0  0
   20.4183    8.0929   53.9582 C   0  0  0  0  0  0  0  0  0  0  0  0
   21.7677    8.1530   53.7177 C   0  0  0  0  0  0  0  0  0  0  0  0
   28.7579   12.4009   60.0253 C   0  0  0  0  0  0  0  0  0  0  0  0
   27.9754   12.2647   61.1181 N   0  0  0  0  0  0  0  0  0  0  0  0
   27.9384   13.4098   61.8160 C   0  0  0  0  0  0  0  0  0  0  0  0
   28.7335   14.3276   61.1430 C   0  0  0  0  0  0  0  0  0  0  0  0
   29.2046   13.6678   60.0686 N   0  0  0  0  0  0  0  0  0  0  0  0
   29.8389   14.1109   59.3695 H   0  0  0  0  0  0  0  0  0  0  0  0
   28.9961   15.7153   61.5302 C   0  0  0  0  0  0  0  0  0  0  0  0
   28.0305   16.6920   61.4493 C   0  0  0  0  0  0  0  0  0  0  0  0
   28.2764   18.0035   61.8149 C   0  0  0  0  0  0  0  0  0  0  0  0
   29.5114   18.3642   62.2743 C   0  0  0  0  0  0  0  0  0  0  0  0
   30.5066   17.3910   62.3651 C   0  0  0  0  0  0  0  0  0  0  0  0
   30.2341   16.0777   61.9908 C   0  0  0  0  0  0  0  0  0  0  0  0
  9 10  1  0  0  0
 10 11  2  0  0  0
 11 12  1  0  0  0
 12 13  2  0  0  0
 13 14  1  0  0  0
 14 15  2  0  0  0
 15 16  1  0  0  0
 16 17  2  0  0  0
 17 18  1  0  0  0
 18 19  1  0  0  0
 19 20  1  0  0  0
 20 21  2  0  0  0
 21 22  1  0  0  0
 22 23  2  0  0  0
 23 24  1  0  0  0
 23 25  1  0  0  0
 25 26  2  0  0  0
 13  1  1  0  0  0
  1  2  2  0  0  0
  1  3  1  0  0  0
  3  4  1  0  0  0
  4  5  1  0  0  0
  5  6  1  0  0  0
  6  7  1  0  0  0
  7  8  1  0  0  0
  6 27  1  0  0  0
 27 28  2  0  0  0
 28 29  1  0  0  0
 29 30  2  0  0  0
 30 31  1  0  0  0
 30 33  1  0  0  0
 33 34  2  0  0  0
 34 35  1  0  0  0
 35 36  2  0  0  0
 36 37  1  0  0  0
 37 38  2  0  0  0
 18 10  1  0  0  0
 26 20  1  0  0  0
  8  3  1  0  0  0
 31 27  1  0  0  0
 38 33  1  0  0  0
 17 12  1  0  0  0
 31 32  1  0  0  0
M  END
> <minimizedAffinity>
25.55750

> <CNNscore>
0.5233783722

> <CNNaffinity>
6.3915414810

> <CNN_VS>
3.3451945782

> <CNNaffinity_variance>
0.3648964763

$$$$
[H]c1nc(N2C([H])([H])C([H])([H])N(C(=O)c3c([H])c([H])c([H])c4c3nc(C([H])([H])[H])n4C([H])([H])c3c([H])c([H])c(Cl)c([H])c3[H])C([H])([H])C2([H])[H])n([H])c1-c1c([H])c([H])c([H])c([H])c1[H]


 38 43  0  0  0  0  0  0  0  0999 V2000
   28.1742    8.7458   56.3021 C   0  0  0  0  0  0  0  0  0  0  0  0
   29.1312    8.2893   55.6179 O   0  0  0  0  0  0  0  0  0  0  0  0
   26.8974    8.9783   55.7313 N   0  0  0  0  0  0  0  0  0  0  0  0
   25.8520    9.5037   56.5824 C   0  0  0  0  0  0  0  0  0  0  0  0
   24.5733    8.7547   56.3090 C   0  0  0  0  0  0  0  0  0  0  0  0
   24.3748    8.7174   54.8803 N   0  0  0  0  0  0  0  0  0  0  0  0
   25.3553    8.0477   54.0643 C   0  0  0  0  0  0  0  0  0  0  0  0
   26.7013    8.6808   54.3319 C   0  0  0  0  0  0  0  0  0  0  0  0
   28.0546   13.9506   58.1005 C   0  0  0  0  0  0  0  0  0  0  0  0
   28.2652   12.5109   58.4561 C   0  0  0  0  0  0  0  0  0  0  0  0
   28.1770   11.5066   57.5465 N   0  0  0  0  0  0  0  0  0  0  0  0
   28.3994   10.3463   58.1548 C   0  0  0  0  0  0  0  0  0  0  0  0
   28.4210    9.0283   57.7029 C   0  0  0  0  0  0  0  0  0  0  0  0
   28.6790    8.0282   58.6071 C   0  0  0  0  0  0  0  0  0  0  0  0
   28.9176    8.2665   59.9407 C   0  0  0  0  0  0  0  0  0  0  0  0
   28.8932    9.5664   60.3688 C   0  0  0  0  0  0  0  0  0  0  0  0
   28.6358   10.6111   59.4837 C   0  0  0  0  0  0  0  0  0  0  0  0
   28.5473   11.9574   59.6409 N   0  0  0  0  0  0  0  0  0  0  0  0
   28.7151   12.6495   60.8790 C   0  0  0  0  0  0  0  0  0  0  0  0
   29.7673   13.6782   60.9151 C   0  0  0  0  0  0  0  0  0  0  0  0
   31.1040   13.3671   61.0113 C   0  0  0  0  0  0  0  0  0  0  0  0
   32.0459   14.3576   61.0502 C   0  0  0  0  0  0  0  0  0  0  0  0
   31.6898   15.7040   60.9950 C   0  0  0  0  0  0  0  0  0  0  0  0
   32.9316   16.9545   61.0472 Cl  0  0  0  0  0  0  0  0  0  0  0  0
   30.3677   16.0439   60.8999 C   0  0  0  0  0  0  0  0  0  0  0  0
   29.4333   15.0401   60.8618 C   0  0  0  0  0  0  0  0  0  0  0  0
   23.2433    9.3212   54.2755 C   0  0  0  0  0  0  0  0  0  0  0  0
   22.0445    8.7366   54.0608 N   0  0  0  0  0  0  0  0  0  0  0  0
   21.2015    9.5956   53.4681 C   0  0  0  0  0  0  0  0  0  0  0  0
   21.8874   10.7897   53.2920 C   0  0  0  0  0  0  0  0  0  0  0  0
   23.1159   10.5706   53.7965 N   0  0  0  0  0  0  0  0  0  0  0  0
   23.8605   11.3005   53.8022 H   0  0  0  0  0  0  0  0  0  0  0  0
   21.3727   12.0191   52.6852 C   0  0  0  0  0  0  0  0  0  0  0  0
   20.6120   12.9208   53.3932 C   0  0  0  0  0  0  0  0  0  0  0  0
   20.1250   14.0830   52.8220 C   0  0  0  0  0  0  0  0  0  0  0  0
   20.3957   14.3659   51.5132 C   0  0  0  0  0  0  0  0  0  0  0  0
   21.1652   13.4666   50.7751 C   0  0  0  0  0  0  0  0  0  0  0  0
   21.6437   12.3035   51.3730 C   0  0  0  0  0  0  0  0  0  0  0  0
  9 10  1  0  0  0
 10 11  2  0  0  0
 11 12  1  0  0  0
 12 13  2  0  0  0
 13 14  1  0  0  0
 14 15  2  0  0  0
 15 16  1  0  0  0
 16 17  2  0  0  0
 17 18  1  0  0  0
 18 19  1  0  0  0
 19 20  1  0  0  0
 20 21  2  0  0  0
 21 22  1  0  0  0
 22 23  2  0  0  0
 23 24  1  0  0  0
 23 25  1  0  0  0
 25 26  2  0  0  0
 13  1  1  0  0  0
  1  2  2  0  0  0
  1  3  1  0  0  0
  3  4  1  0  0  0
  4  5  1  0  0  0
  5  6  1  0  0  0
  6  7  1  0  0  0
  7  8  1  0  0  0
  6 27  1  0  0  0
 27 28  2  0  0  0
 28 29  1  0  0  0
 29 30  2  0  0  0
 30 31  1  0  0  0
 30 33  1  0  0  0
 33 34  2  0  0  0
 34 35  1  0  0  0
 35 36  2  0  0  0
 36 37  1  0  0  0
 37 38  2  0  0  0
 18 10  1  0  0  0
 26 20  1  0  0  0
  8  3  1  0  0  0
 31 27  1  0  0  0
 38 33  1  0  0  0
 17 12  1  0  0  0
 31 32  1  0  0  0
M  END
> <minimizedAffinity>
28.07052

> <CNNscore>
0.5071583986

> <CNNaffinity>
6.2584152222

> <CNN_VS>
3.1740078926

> <CNNaffinity_variance>
0.1604699939

$$$$
[H]c1nc(N2C([H])([H])C([H])([H])N(C(=O)c3c([H])c([H])c([H])c4c3nc(C([H])([H])[H])n4C([H])([H])c3c([H])c([H])c(Cl)c([H])c3[H])C([H])([H])C2([H])[H])n([H])c1-c1c([H])c([H])c([H])c([H])c1[H]


 38 43  0  0  0  0  0  0  0  0999 V2000
   26.1328    8.7405   55.9126 C   0  0  0  0  0  0  0  0  0  0  0  0
   26.7341    7.6868   55.5651 O   0  0  0  0  0  0  0  0  0  0  0  0
   26.7108    9.6592   56.8247 N   0  0  0  0  0  0  0  0  0  0  0  0
   25.9573   10.8442   57.1733 C   0  0  0  0  0  0  0  0  0  0  0  0
   26.8806   12.0351   57.1589 C   0  0  0  0  0  0  0  0  0  0  0  0
   28.0601   11.6944   57.9170 N   0  0  0  0  0  0  0  0  0  0  0  0
   28.8846   10.6055   57.4588 C   0  0  0  0  0  0  0  0  0  0  0  0
   28.0199    9.3698   57.3612 C   0  0  0  0  0  0  0  0  0  0  0  0
   24.1152    5.3096   52.1051 C   0  0  0  0  0  0  0  0  0  0  0  0
   23.8889    6.5495   52.9146 C   0  0  0  0  0  0  0  0  0  0  0  0
   24.7969    7.0235   53.8059 N   0  0  0  0  0  0  0  0  0  0  0  0
   24.3153    8.1228   54.3764 C   0  0  0  0  0  0  0  0  0  0  0  0
   24.8208    8.9865   55.3461 C   0  0  0  0  0  0  0  0  0  0  0  0
   24.0533   10.0550   55.7381 C   0  0  0  0  0  0  0  0  0  0  0  0
   22.8065   10.3136   55.2177 C   0  0  0  0  0  0  0  0  0  0  0  0
   22.3243    9.4561   54.2659 C   0  0  0  0  0  0  0  0  0  0  0  0
   23.0713    8.3601   53.8396 C   0  0  0  0  0  0  0  0  0  0  0  0
   22.8341    7.3720   52.9382 N   0  0  0  0  0  0  0  0  0  0  0  0
   21.6415    7.2401   52.1634 C   0  0  0  0  0  0  0  0  0  0  0  0
   20.5657    6.4267   52.7532 C   0  0  0  0  0  0  0  0  0  0  0  0
   19.3617    6.9641   53.1460 C   0  0  0  0  0  0  0  0  0  0  0  0
   18.3945    6.1703   53.6976 C   0  0  0  0  0  0  0  0  0  0  0  0
   18.5914    4.8026   53.8803 C   0  0  0  0  0  0  0  0  0  0  0  0
   17.3216    3.8095   54.5944 Cl  0  0  0  0  0  0  0  0  0  0  0  0
   19.7794    4.2401   53.4997 C   0  0  0  0  0  0  0  0  0  0  0  0
   20.7409    5.0482   52.9479 C   0  0  0  0  0  0  0  0  0  0  0  0
   28.4157   12.4070   59.0903 C   0  0  0  0  0  0  0  0  0  0  0  0
   28.4504   11.9116   60.3466 N   0  0  0  0  0  0  0  0  0  0  0  0
   28.8298   12.8601   61.2162 C   0  0  0  0  0  0  0  0  0  0  0  0
   29.0501   14.0214   60.4879 C   0  0  0  0  0  0  0  0  0  0  0  0
   28.7858   13.6936   59.2094 N   0  0  0  0  0  0  0  0  0  0  0  0
   28.8667   14.3760   58.4251 H   0  0  0  0  0  0  0  0  0  0  0  0
   29.4790   15.3203   61.0110 C   0  0  0  0  0  0  0  0  0  0  0  0
   30.8064   15.6718   61.0963 C   0  0  0  0  0  0  0  0  0  0  0  0
   31.2137   16.8985   61.5898 C   0  0  0  0  0  0  0  0  0  0  0  0
   30.2849   17.8069   62.0123 C   0  0  0  0  0  0  0  0  0  0  0  0
   28.9328   17.4729   61.9354 C   0  0  0  0  0  0  0  0  0  0  0  0
   28.5484   16.2317   61.4348 C   0  0  0  0  0  0  0  0  0  0  0  0
  9 10  1  0  0  0
 10 11  2  0  0  0
 11 12  1  0  0  0
 12 13  2  0  0  0
 13 14  1  0  0  0
 14 15  2  0  0  0
 15 16  1  0  0  0
 16 17  2  0  0  0
 17 18  1  0  0  0
 18 19  1  0  0  0
 19 20  1  0  0  0
 20 21  2  0  0  0
 21 22  1  0  0  0
 22 23  2  0  0  0
 23 24  1  0  0  0
 23 25  1  0  0  0
 25 26  2  0  0  0
 13  1  1  0  0  0
  1  2  2  0  0  0
  1  3  1  0  0  0
  3  4  1  0  0  0
  4  5  1  0  0  0
  5  6  1  0  0  0
  6  7  1  0  0  0
  7  8  1  0  0  0
  6 27  1  0  0  0
 27 28  2  0  0  0
 28 29  1  0  0  0
 29 30  2  0  0  0
 30 31  1  0  0  0
 30 33  1  0  0  0
 33 34  2  0  0  0
 34 35  1  0  0  0
 35 36  2  0  0  0
 36 37  1  0  0  0
 37 38  2  0  0  0
 18 10  1  0  0  0
 26 20  1  0  0  0
  8  3  1  0  0  0
 31 27  1  0  0  0
 38 33  1  0  0  0
 17 12  1  0  0  0
 31 32  1  0  0  0
M  END
> <minimizedAffinity>
27.90466

> <CNNscore>
0.5040093660

> <CNNaffinity>
6.4387884140

> <CNN_VS>
3.2452096939

> <CNNaffinity_variance>
0.3847216666

$$$$
[H]c1nc(N2C([H])([H])C([H])([H])N(C(=O)c3c([H])c([H])c([H])c4c3nc(C([H])([H])[H])n4C([H])([H])c3c([H])c([H])c(Cl)c([H])c3[H])C([H])([H])C2([H])[H])n([H])c1-c1c([H])c([H])c([H])c([H])c1[H]


 38 43  0  0  0  0  0  0  0  0999 V2000
   26.2864    8.3284   54.1199 C   0  0  0  0  0  0  0  0  0  0  0  0
   26.7552    8.6113   52.9829 O   0  0  0  0  0  0  0  0  0  0  0  0
   26.9742    8.6673   55.3124 N   0  0  0  0  0  0  0  0  0  0  0  0
   26.3704    8.3078   56.5772 C   0  0  0  0  0  0  0  0  0  0  0  0
   26.4954    9.4696   57.5288 C   0  0  0  0  0  0  0  0  0  0  0  0
   27.8641    9.9256   57.4989 N   0  0  0  0  0  0  0  0  0  0  0  0
   28.3972   10.4288   56.2586 C   0  0  0  0  0  0  0  0  0  0  0  0
   28.2409    9.3529   55.2088 C   0  0  0  0  0  0  0  0  0  0  0  0
   21.7006   10.9546   52.5667 C   0  0  0  0  0  0  0  0  0  0  0  0
   22.2946    9.6857   53.0966 C   0  0  0  0  0  0  0  0  0  0  0  0
   23.6229    9.5375   53.3357 N   0  0  0  0  0  0  0  0  0  0  0  0
   23.8505    8.3085   53.7867 C   0  0  0  0  0  0  0  0  0  0  0  0
   25.0111    7.6400   54.1714 C   0  0  0  0  0  0  0  0  0  0  0  0
   24.9097    6.3374   54.5924 C   0  0  0  0  0  0  0  0  0  0  0  0
   23.7141    5.6598   54.6526 C   0  0  0  0  0  0  0  0  0  0  0  0
   22.5832    6.3304   54.2717 C   0  0  0  0  0  0  0  0  0  0  0  0
   22.6422    7.6533   53.8386 C   0  0  0  0  0  0  0  0  0  0  0  0
   21.6981    8.5292   53.4069 N   0  0  0  0  0  0  0  0  0  0  0  0
   20.3038    8.2401   53.2944 C   0  0  0  0  0  0  0  0  0  0  0  0
   19.9290    6.8167   53.3017 C   0  0  0  0  0  0  0  0  0  0  0  0
   20.8067    5.8181   52.9480 C   0  0  0  0  0  0  0  0  0  0  0  0
   20.4108    4.5094   52.9616 C   0  0  0  0  0  0  0  0  0  0  0  0
   19.1173    4.1434   53.3299 C   0  0  0  0  0  0  0  0  0  0  0  0
   18.6418    2.4456   53.3362 Cl  0  0  0  0  0  0  0  0  0  0  0  0
   18.2220    5.1151   53.6860 C   0  0  0  0  0  0  0  0  0  0  0  0
   18.6326    6.4240   53.6679 C   0  0  0  0  0  0  0  0  0  0  0  0
   28.6811    9.8873   58.6572 C   0  0  0  0  0  0  0  0  0  0  0  0
   28.8764    8.8205   59.4627 N   0  0  0  0  0  0  0  0  0  0  0  0
   29.7091    9.1348   60.4664 C   0  0  0  0  0  0  0  0  0  0  0  0
   30.0681   10.4657   60.3015 C   0  0  0  0  0  0  0  0  0  0  0  0
   29.4199   10.8732   59.1945 N   0  0  0  0  0  0  0  0  0  0  0  0
   29.4995   11.8434   58.8206 H   0  0  0  0  0  0  0  0  0  0  0  0
   30.9627   11.2484   61.1568 C   0  0  0  0  0  0  0  0  0  0  0  0
   31.2495   12.5693   60.8999 C   0  0  0  0  0  0  0  0  0  0  0  0
   32.0942   13.3106   61.7069 C   0  0  0  0  0  0  0  0  0  0  0  0
   32.6743   12.7331   62.8007 C   0  0  0  0  0  0  0  0  0  0  0  0
   32.3983   11.3949   63.0815 C   0  0  0  0  0  0  0  0  0  0  0  0
   31.5448   10.6702   62.2538 C   0  0  0  0  0  0  0  0  0  0  0  0
  9 10  1  0  0  0
 10 11  2  0  0  0
 11 12  1  0  0  0
 12 13  2  0  0  0
 13 14  1  0  0  0
 14 15  2  0  0  0
 15 16  1  0  0  0
 16 17  2  0  0  0
 17 18  1  0  0  0
 18 19  1  0  0  0
 19 20  1  0  0  0
 20 21  2  0  0  0
 21 22  1  0  0  0
 22 23  2  0  0  0
 23 24  1  0  0  0
 23 25  1  0  0  0
 25 26  2  0  0  0
 13  1  1  0  0  0
  1  2  2  0  0  0
  1  3  1  0  0  0
  3  4  1  0  0  0
  4  5  1  0  0  0
  5  6  1  0  0  0
  6  7  1  0  0  0
  7  8  1  0  0  0
  6 27  1  0  0  0
 27 28  2  0  0  0
 28 29  1  0  0  0
 29 30  2  0  0  0
 30 31  1  0  0  0
 30 33  1  0  0  0
 33 34  2  0  0  0
 34 35  1  0  0  0
 35 36  2  0  0  0
 36 37  1  0  0  0
 37 38  2  0  0  0
 18 10  1  0  0  0
 26 20  1  0  0  0
  8  3  1  0  0  0
 31 27  1  0  0  0
 38 33  1  0  0  0
 17 12  1  0  0  0
 31 32  1  0  0  0
M  END
> <minimizedAffinity>
23.18125

> <CNNscore>
0.4838807285

> <CNNaffinity>
6.4416780472

> <CNN_VS>
3.1170039177

> <CNNaffinity_variance>
0.1393329501

$$$$
[H]c1nc(N2C([H])([H])C([H])([H])N(C(=O)c3c([H])c([H])c([H])c4c3nc(C([H])([H])[H])n4C([H])([H])c3c([H])c([H])c(Cl)c([H])c3[H])C([H])([H])C2([H])[H])n([H])c1-c1c([H])c([H])c([H])c([H])c1[H]


 38 43  0  0  0  0  0  0  0  0999 V2000
   28.0064    8.9463   56.4847 C   0  0  0  0  0  0  0  0  0  0  0  0
   28.9271    8.1190   56.2391 O   0  0  0  0  0  0  0  0  0  0  0  0
   26.7763    8.9197   55.7802 N   0  0  0  0  0  0  0  0  0  0  0  0
   25.7707    9.9028   56.1204 C   0  0  0  0  0  0  0  0  0  0  0  0
   24.4276    9.2243   56.1996 C   0  0  0  0  0  0  0  0  0  0  0  0
   24.2629    8.4208   55.0123 N   0  0  0  0  0  0  0  0  0  0  0  0
   25.1878    7.3419   54.7751 C   0  0  0  0  0  0  0  0  0  0  0  0
   26.5858    7.9159   54.7597 C   0  0  0  0  0  0  0  0  0  0  0  0
   30.3181    7.4149   61.2438 C   0  0  0  0  0  0  0  0  0  0  0  0
   29.7426    8.5402   60.4400 C   0  0  0  0  0  0  0  0  0  0  0  0
   29.2492    8.3731   59.1861 N   0  0  0  0  0  0  0  0  0  0  0  0
   28.8223    9.5442   58.7256 C   0  0  0  0  0  0  0  0  0  0  0  0
   28.2457    9.9346   57.5186 C   0  0  0  0  0  0  0  0  0  0  0  0
   27.9178   11.2562   57.3446 C   0  0  0  0  0  0  0  0  0  0  0  0
   28.1321   12.2149   58.3075 C   0  0  0  0  0  0  0  0  0  0  0  0
   28.6990   11.8153   59.4877 C   0  0  0  0  0  0  0  0  0  0  0  0
   29.0462   10.4837   59.7050 C   0  0  0  0  0  0  0  0  0  0  0  0
   29.6153    9.8345   60.7537 N   0  0  0  0  0  0  0  0  0  0  0  0
   30.0194   10.4518   61.9766 C   0  0  0  0  0  0  0  0  0  0  0  0
   30.6598   11.7722   61.8616 C   0  0  0  0  0  0  0  0  0  0  0  0
   32.0246   11.9294   61.7896 C   0  0  0  0  0  0  0  0  0  0  0  0
   32.5751   13.1773   61.6923 C   0  0  0  0  0  0  0  0  0  0  0  0
   31.7821   14.3231   61.6632 C   0  0  0  0  0  0  0  0  0  0  0  0
   32.5266   15.9163   61.5366 Cl  0  0  0  0  0  0  0  0  0  0  0  0
   30.4213   14.1978   61.7339 C   0  0  0  0  0  0  0  0  0  0  0  0
   29.8824   12.9400   61.8314 C   0  0  0  0  0  0  0  0  0  0  0  0
   23.2173    8.6733   54.0884 C   0  0  0  0  0  0  0  0  0  0  0  0
   22.2210    7.8233   53.7569 N   0  0  0  0  0  0  0  0  0  0  0  0
   21.4047    8.3849   52.8525 C   0  0  0  0  0  0  0  0  0  0  0  0
   21.8965    9.6560   52.5878 C   0  0  0  0  0  0  0  0  0  0  0  0
   22.9920    9.7802   53.3599 N   0  0  0  0  0  0  0  0  0  0  0  0
   23.5774   10.6430   53.3718 H   0  0  0  0  0  0  0  0  0  0  0  0
   21.3337   10.6425   51.6632 C   0  0  0  0  0  0  0  0  0  0  0  0
   20.3891   10.3060   50.7212 C   0  0  0  0  0  0  0  0  0  0  0  0
   19.8560   11.2365   49.8471 C   0  0  0  0  0  0  0  0  0  0  0  0
   20.2658   12.5386   49.9025 C   0  0  0  0  0  0  0  0  0  0  0  0
   21.2227   12.9035   50.8496 C   0  0  0  0  0  0  0  0  0  0  0  0
   21.7441   11.9482   51.7182 C   0  0  0  0  0  0  0  0  0  0  0  0
  9 10  1  0  0  0
 10 11  2  0  0  0
 11 12  1  0  0  0
 12 13  2  0  0  0
 13 14  1  0  0  0
 14 15  2  0  0  0
 15 16  1  0  0  0
 16 17  2  0  0  0
 17 18  1  0  0  0
 18 19  1  0  0  0
 19 20  1  0  0  0
 20 21  2  0  0  0
 21 22  1  0  0  0
 22 23  2  0  0  0
 23 24  1  0  0  0
 23 25  1  0  0  0
 25 26  2  0  0  0
 13  1  1  0  0  0
  1  2  2  0  0  0
  1  3  1  0  0  0
  3  4  1  0  0  0
  4  5  1  0  0  0
  5  6  1  0  0  0
  6  7  1  0  0  0
  7  8  1  0  0  0
  6 27  1  0  0  0
 27 28  2  0  0  0
 28 29  1  0  0  0
 29 30  2  0  0  0
 30 31  1  0  0  0
 30 33  1  0  0  0
 33 34  2  0  0  0
 34 35  1  0  0  0
 35 36  2  0  0  0
 36 37  1  0  0  0
 37 38  2  0  0  0
 18 10  1  0  0  0
 26 20  1  0  0  0
  8  3  1  0  0  0
 31 27  1  0  0  0
 38 33  1  0  0  0
 17 12  1  0  0  0
 31 32  1  0  0  0
M  END
> <minimizedAffinity>
27.45285

> <CNNscore>
0.4632863998

> <CNNaffinity>
6.2393341064

> <CNN_VS>
2.8905985355

> <CNNaffinity_variance>
0.0793408230

$$$$
[H]c1nc(N2C([H])([H])C([H])([H])N(C(=O)c3c([H])c([H])c([H])c4c3nc(C([H])([H])[H])n4C([H])([H])c3c([H])c([H])c(Cl)c([H])c3[H])C([H])([H])C2([H])[H])n([H])c1-c1c([H])c([H])c([H])c([H])c1[H]


 38 43  0  0  0  0  0  0  0  0999 V2000
   24.5442    7.0097   53.5916 C   0  0  0  0  0  0  0  0  0  0  0  0
   24.9169    6.0132   52.9129 O   0  0  0  0  0  0  0  0  0  0  0  0
   25.3630    7.5651   54.6071 N   0  0  0  0  0  0  0  0  0  0  0  0
   24.8636    8.7076   55.3411 C   0  0  0  0  0  0  0  0  0  0  0  0
   25.9699    9.7206   55.4848 C   0  0  0  0  0  0  0  0  0  0  0  0
   27.1469    9.0320   55.9567 N   0  0  0  0  0  0  0  0  0  0  0  0
   27.7207    8.0003   55.1309 C   0  0  0  0  0  0  0  0  0  0  0  0
   26.6523    6.9662   54.8601 C   0  0  0  0  0  0  0  0  0  0  0  0
   23.3455   12.1160   55.2729 C   0  0  0  0  0  0  0  0  0  0  0  0
   22.8606   10.8879   54.5656 C   0  0  0  0  0  0  0  0  0  0  0  0
   23.6273    9.7788   54.4052 N   0  0  0  0  0  0  0  0  0  0  0  0
   22.9362    8.8641   53.7333 C   0  0  0  0  0  0  0  0  0  0  0  0
   23.2413    7.5755   53.2995 C   0  0  0  0  0  0  0  0  0  0  0  0
   22.2888    6.8744   52.6029 C   0  0  0  0  0  0  0  0  0  0  0  0
   21.0449    7.3850   52.3124 C   0  0  0  0  0  0  0  0  0  0  0  0
   20.7605    8.6519   52.7457 C   0  0  0  0  0  0  0  0  0  0  0  0
   21.6988    9.3973   53.4563 C   0  0  0  0  0  0  0  0  0  0  0  0
   21.6801   10.6490   53.9834 N   0  0  0  0  0  0  0  0  0  0  0  0
   20.5774   11.5535   53.9053 C   0  0  0  0  0  0  0  0  0  0  0  0
   20.7179   12.6752   52.9626 C   0  0  0  0  0  0  0  0  0  0  0  0
   21.5565   12.6260   51.8730 C   0  0  0  0  0  0  0  0  0  0  0  0
   21.6608   13.6967   51.0289 C   0  0  0  0  0  0  0  0  0  0  0  0
   20.9295   14.8644   51.2397 C   0  0  0  0  0  0  0  0  0  0  0  0
   21.0890   16.2253   50.1301 Cl  0  0  0  0  0  0  0  0  0  0  0  0
   20.0878   14.9427   52.3157 C   0  0  0  0  0  0  0  0  0  0  0  0
   19.9929   13.8611   53.1544 C   0  0  0  0  0  0  0  0  0  0  0  0
   27.7400    9.3522   57.2043 C   0  0  0  0  0  0  0  0  0  0  0  0
   28.0998    8.4752   58.1668 N   0  0  0  0  0  0  0  0  0  0  0  0
   28.6315    9.1202   59.2161 C   0  0  0  0  0  0  0  0  0  0  0  0
   28.6142   10.4759   58.9175 C   0  0  0  0  0  0  0  0  0  0  0  0
   28.0659   10.5618   57.6912 N   0  0  0  0  0  0  0  0  0  0  0  0
   27.9229   11.4710   57.2010 H   0  0  0  0  0  0  0  0  0  0  0  0
   29.0938   11.5699   59.7647 C   0  0  0  0  0  0  0  0  0  0  0  0
   30.1923   11.4341   60.5819 C   0  0  0  0  0  0  0  0  0  0  0  0
   30.6472   12.4664   61.3828 C   0  0  0  0  0  0  0  0  0  0  0  0
   30.0002   13.6697   61.3787 C   0  0  0  0  0  0  0  0  0  0  0  0
   28.8839   13.8311   60.5580 C   0  0  0  0  0  0  0  0  0  0  0  0
   28.4457   12.7766   59.7612 C   0  0  0  0  0  0  0  0  0  0  0  0
  9 10  1  0  0  0
 10 11  2  0  0  0
 11 12  1  0  0  0
 12 13  2  0  0  0
 13 14  1  0  0  0
 14 15  2  0  0  0
 15 16  1  0  0  0
 16 17  2  0  0  0
 17 18  1  0  0  0
 18 19  1  0  0  0
 19 20  1  0  0  0
 20 21  2  0  0  0
 21 22  1  0  0  0
 22 23  2  0  0  0
 23 24  1  0  0  0
 23 25  1  0  0  0
 25 26  2  0  0  0
 13  1  1  0  0  0
  1  2  2  0  0  0
  1  3  1  0  0  0
  3  4  1  0  0  0
  4  5  1  0  0  0
  5  6  1  0  0  0
  6  7  1  0  0  0
  7  8  1  0  0  0
  6 27  1  0  0  0
 27 28  2  0  0  0
 28 29  1  0  0  0
 29 30  2  0  0  0
 30 31  1  0  0  0
 30 33  1  0  0  0
 33 34  2  0  0  0
 34 35  1  0  0  0
 35 36  2  0  0  0
 36 37  1  0  0  0
 37 38  2  0  0  0
 18 10  1  0  0  0
 26 20  1  0  0  0
  8  3  1  0  0  0
 31 27  1  0  0  0
 38 33  1  0  0  0
 17 12  1  0  0  0
 31 32  1  0  0  0
M  END
> <minimizedAffinity>
29.61986

> <CNNscore>
0.4572510421

> <CNNaffinity>
6.5207381248

> <CNN_VS>
2.9816143513

> <CNNaffinity_variance>
0.3074257672

$$$$
[H]c1nc(N([H])[H])c([H])c(C([H])([H])N([H])C(=O)C([H])([H])N2C([H])([H])c3c([H])c(-c4nnnn4[H])c(F)c([H])c3C([H])([H])C2([H])[H])c1[H]


 32 35  0  0  0  0  0  0  0  0999 V2000
   23.3200    7.5073   54.3656 N   0  0  0  0  0  0  0  0  0  0  0  0
   24.0778    6.9813   53.2897 C   0  0  0  0  0  0  0  0  0  0  0  0
   25.1839    7.8731   52.7739 C   0  0  0  0  0  0  0  0  0  0  0  0
   25.9515    8.3276   53.9647 C   0  0  0  0  0  0  0  0  0  0  0  0
   27.3165    8.3330   54.0542 C   0  0  0  0  0  0  0  0  0  0  0  0
   27.9414    8.7777   55.2103 C   0  0  0  0  0  0  0  0  0  0  0  0
   29.2926    8.7891   55.3156 F   0  0  0  0  0  0  0  0  0  0  0  0
   27.2330    9.2272   56.3043 C   0  0  0  0  0  0  0  0  0  0  0  0
   25.8576    9.2199   56.2091 C   0  0  0  0  0  0  0  0  0  0  0  0
   25.2299    8.7759   55.0549 C   0  0  0  0  0  0  0  0  0  0  0  0
   23.7559    8.7520   54.9149 C   0  0  0  0  0  0  0  0  0  0  0  0
   27.9175    9.6896   57.5070 C   0  0  0  0  0  0  0  0  0  0  0  0
   28.3690   10.9300   57.7629 N   0  0  0  0  0  0  0  0  0  0  0  0
   28.9410   10.9667   58.9685 N   0  0  0  0  0  0  0  0  0  0  0  0
   28.8516    9.7323   59.4859 N   0  0  0  0  0  0  0  0  0  0  0  0
   28.2329    8.9694   58.5969 N   0  0  0  0  0  0  0  0  0  0  0  0
   28.0309    7.9650   58.7407 H   0  0  0  0  0  0  0  0  0  0  0  0
   21.9091    7.3590   54.2658 C   0  0  0  0  0  0  0  0  0  0  0  0
   20.0844    5.7965   53.6019 N   0  0  0  0  0  0  0  0  0  0  0  0
   21.4365    6.0178   53.9691 C   0  0  0  0  0  0  0  0  0  0  0  0
   22.1917    5.0237   54.0254 O   0  0  0  0  0  0  0  0  0  0  0  0
   19.4162    6.6201   53.5505 H   0  0  0  0  0  0  0  0  0  0  0  0
   19.5670    4.4956   53.2978 C   0  0  0  0  0  0  0  0  0  0  0  0
   14.6695    3.9802   53.2590 N   0  0  0  0  0  0  0  0  0  0  0  0
   15.9064    3.8856   53.9440 C   0  0  0  0  0  0  0  0  0  0  0  0
   17.0790    4.2286   53.2813 C   0  0  0  0  0  0  0  0  0  0  0  0
   18.2905    4.1505   53.9113 C   0  0  0  0  0  0  0  0  0  0  0  0
   18.2642    3.7102   55.2397 C   0  0  0  0  0  0  0  0  0  0  0  0
   17.1075    3.3739   55.8868 C   0  0  0  0  0  0  0  0  0  0  0  0
   15.9549    3.4703   55.2210 N   0  0  0  0  0  0  0  0  0  0  0  0
   13.7865    4.0957   53.7789 H   0  0  0  0  0  0  0  0  0  0  0  0
   14.6459    3.9339   52.2282 H   0  0  0  0  0  0  0  0  0  0  0  0
 24 25  1  0  0  0
 25 26  2  0  0  0
 26 27  1  0  0  0
 27 23  1  0  0  0
 23 19  1  0  0  0
 19 20  1  0  0  0
 20 21  2  0  0  0
 20 18  1  0  0  0
 18  1  1  0  0  0
  1  2  1  0  0  0
  2  3  1  0  0  0
  3  4  1  0  0  0
  4  5  2  0  0  0
  5  6  1  0  0  0
  6  7  1  0  0  0
  6  8  2  0  0  0
  8  9  1  0  0  0
  9 10  2  0  0  0
 10 11  1  0  0  0
  8 12  1  0  0  0
 12 13  2  0  0  0
 13 14  1  0  0  0
 14 15  2  0  0  0
 15 16  1  0  0  0
 27 28  2  0  0  0
 28 29  1  0  0  0
 29 30  2  0  0  0
 30 25  1  0  0  0
 11  1  1  0  0  0
 16 12  1  0  0  0
 10  4  1  0  0  0
 24 31  1  0  0  0
 24 32  1  0  0  0
 19 22  1  0  0  0
 16 17  1  0  0  0
M  END
> <minimizedAffinity>
11.74790

> <CNNscore>
0.7363476753

> <CNNaffinity>
6.3418693542

> <CNN_VS>
4.6698207855

> <CNNaffinity_variance>
0.6649879217

$$$$
[H]c1nc(N([H])[H])c([H])c(C([H])([H])N([H])C(=O)C([H])([H])N2C([H])([H])c3c([H])c(-c4nnnn4[H])c(F)c([H])c3C([H])([H])C2([H])[H])c1[H]


 32 35  0  0  0  0  0  0  0  0999 V2000
   23.0741    8.8506   54.8708 N   0  0  0  0  0  0  0  0  0  0  0  0
   23.5926    7.9780   53.8817 C   0  0  0  0  0  0  0  0  0  0  0  0
   24.9319    8.3718   53.3021 C   0  0  0  0  0  0  0  0  0  0  0  0
   25.8224    8.6680   54.4566 C   0  0  0  0  0  0  0  0  0  0  0  0
   27.1070    8.2152   54.5838 C   0  0  0  0  0  0  0  0  0  0  0  0
   27.8598    8.5471   55.7009 C   0  0  0  0  0  0  0  0  0  0  0  0
   29.1337    8.1065   55.8427 F   0  0  0  0  0  0  0  0  0  0  0  0
   27.3617    9.3334   56.7179 C   0  0  0  0  0  0  0  0  0  0  0  0
   26.0666    9.7873   56.5850 C   0  0  0  0  0  0  0  0  0  0  0  0
   25.3114    9.4572   55.4695 C   0  0  0  0  0  0  0  0  0  0  0  0
   23.9175    9.9243   55.2912 C   0  0  0  0  0  0  0  0  0  0  0  0
   28.1771    9.6667   57.8810 C   0  0  0  0  0  0  0  0  0  0  0  0
   28.6974   10.8658   58.1961 N   0  0  0  0  0  0  0  0  0  0  0  0
   29.3853   10.7782   59.3368 N   0  0  0  0  0  0  0  0  0  0  0  0
   29.3008    9.5056   59.7523 N   0  0  0  0  0  0  0  0  0  0  0  0
   28.5702    8.8433   58.8677 N   0  0  0  0  0  0  0  0  0  0  0  0
   28.3459    7.8362   58.9440 H   0  0  0  0  0  0  0  0  0  0  0  0
   21.6972    9.1846   54.7479 C   0  0  0  0  0  0  0  0  0  0  0  0
   19.9405    7.5857   53.9934 N   0  0  0  0  0  0  0  0  0  0  0  0
   20.9767    8.5041   53.6857 C   0  0  0  0  0  0  0  0  0  0  0  0
   21.2388    8.6991   52.4795 O   0  0  0  0  0  0  0  0  0  0  0  0
   19.6977    7.3941   55.0091 H   0  0  0  0  0  0  0  0  0  0  0  0
   19.1978    6.8892   52.9854 C   0  0  0  0  0  0  0  0  0  0  0  0
   20.2584    2.0837   52.7969 N   0  0  0  0  0  0  0  0  0  0  0  0
   19.3850    3.1320   53.1798 C   0  0  0  0  0  0  0  0  0  0  0  0
   19.7345    4.4468   52.8952 C   0  0  0  0  0  0  0  0  0  0  0  0
   18.9156    5.4836   53.2491 C   0  0  0  0  0  0  0  0  0  0  0  0
   17.7290    5.1327   53.9032 C   0  0  0  0  0  0  0  0  0  0  0  0
   17.3902    3.8373   54.1808 C   0  0  0  0  0  0  0  0  0  0  0  0
   18.2289    2.8672   53.8111 N   0  0  0  0  0  0  0  0  0  0  0  0
   19.9017    1.1275   52.6502 H   0  0  0  0  0  0  0  0  0  0  0  0
   21.2639    2.2737   52.6614 H   0  0  0  0  0  0  0  0  0  0  0  0
 24 25  1  0  0  0
 25 26  2  0  0  0
 26 27  1  0  0  0
 27 23  1  0  0  0
 23 19  1  0  0  0
 19 20  1  0  0  0
 20 21  2  0  0  0
 20 18  1  0  0  0
 18  1  1  0  0  0
  1  2  1  0  0  0
  2  3  1  0  0  0
  3  4  1  0  0  0
  4  5  2  0  0  0
  5  6  1  0  0  0
  6  7  1  0  0  0
  6  8  2  0  0  0
  8  9  1  0  0  0
  9 10  2  0  0  0
 10 11  1  0  0  0
  8 12  1  0  0  0
 12 13  2  0  0  0
 13 14  1  0  0  0
 14 15  2  0  0  0
 15 16  1  0  0  0
 27 28  2  0  0  0
 28 29  1  0  0  0
 29 30  2  0  0  0
 30 25  1  0  0  0
 11  1  1  0  0  0
 16 12  1  0  0  0
 10  4  1  0  0  0
 24 31  1  0  0  0
 24 32  1  0  0  0
 19 22  1  0  0  0
 16 17  1  0  0  0
M  END
> <minimizedAffinity>
17.68795

> <CNNscore>
0.6404621601

> <CNNaffinity>
6.3407735825

> <CNN_VS>
4.0610256195

> <CNNaffinity_variance>
0.3352236748

$$$$
[H]c1nc(N([H])[H])c([H])c(C([H])([H])N([H])C(=O)C([H])([H])N2C([H])([H])c3c([H])c(-c4nnnn4[H])c(F)c([H])c3C([H])([H])C2([H])[H])c1[H]


 32 35  0  0  0  0  0  0  0  0999 V2000
   22.2177    7.8142   53.9410 N   0  0  0  0  0  0  0  0  0  0  0  0
   22.3735    6.5861   54.6310 C   0  0  0  0  0  0  0  0  0  0  0  0
   23.5600    5.7486   54.2118 C   0  0  0  0  0  0  0  0  0  0  0  0
   24.7380    6.6575   54.2031 C   0  0  0  0  0  0  0  0  0  0  0  0
   25.9560    6.3568   54.7483 C   0  0  0  0  0  0  0  0  0  0  0  0
   26.9960    7.2731   54.6889 C   0  0  0  0  0  0  0  0  0  0  0  0
   28.2087    6.9913   55.2245 F   0  0  0  0  0  0  0  0  0  0  0  0
   26.8574    8.5071   54.0899 C   0  0  0  0  0  0  0  0  0  0  0  0
   25.6279    8.8054   53.5419 C   0  0  0  0  0  0  0  0  0  0  0  0
   24.5862    7.8916   53.5997 C   0  0  0  0  0  0  0  0  0  0  0  0
   23.2518    8.1754   53.0237 C   0  0  0  0  0  0  0  0  0  0  0  0
   27.9692    9.4507   54.0420 C   0  0  0  0  0  0  0  0  0  0  0  0
   28.4320   10.1123   52.9668 N   0  0  0  0  0  0  0  0  0  0  0  0
   29.4622   10.8858   53.3168 N   0  0  0  0  0  0  0  0  0  0  0  0
   29.6566   10.7132   54.6327 N   0  0  0  0  0  0  0  0  0  0  0  0
   28.7514    9.8459   55.0609 N   0  0  0  0  0  0  0  0  0  0  0  0
   28.6744    9.5310   56.0433 H   0  0  0  0  0  0  0  0  0  0  0  0
   20.8989    8.1228   53.5072 C   0  0  0  0  0  0  0  0  0  0  0  0
   20.1162    5.7569   53.5486 N   0  0  0  0  0  0  0  0  0  0  0  0
   20.1587    7.0237   52.9119 C   0  0  0  0  0  0  0  0  0  0  0  0
   19.5411    7.1508   51.8330 O   0  0  0  0  0  0  0  0  0  0  0  0
   20.6355    5.6153   54.4639 H   0  0  0  0  0  0  0  0  0  0  0  0
   19.4006    4.6406   53.0061 C   0  0  0  0  0  0  0  0  0  0  0  0
   14.5193    4.0696   53.3228 N   0  0  0  0  0  0  0  0  0  0  0  0
   15.8059    3.9655   53.9075 C   0  0  0  0  0  0  0  0  0  0  0  0
   16.9212    4.3453   53.1700 C   0  0  0  0  0  0  0  0  0  0  0  0
   18.1781    4.2592   53.7025 C   0  0  0  0  0  0  0  0  0  0  0  0
   18.2576    3.7722   55.0123 C   0  0  0  0  0  0  0  0  0  0  0  0
   17.1570    3.3998   55.7333 C   0  0  0  0  0  0  0  0  0  0  0  0
   15.9560    3.5061   55.1613 N   0  0  0  0  0  0  0  0  0  0  0  0
   13.6779    4.1564   53.9123 H   0  0  0  0  0  0  0  0  0  0  0  0
   14.4172    4.0593   52.2957 H   0  0  0  0  0  0  0  0  0  0  0  0
 24 25  1  0  0  0
 25 26  2  0  0  0
 26 27  1  0  0  0
 27 23  1  0  0  0
 23 19  1  0  0  0
 19 20  1  0  0  0
 20 21  2  0  0  0
 20 18  1  0  0  0
 18  1  1  0  0  0
  1  2  1  0  0  0
  2  3  1  0  0  0
  3  4  1  0  0  0
  4  5  2  0  0  0
  5  6  1  0  0  0
  6  7  1  0  0  0
  6  8  2  0  0  0
  8  9  1  0  0  0
  9 10  2  0  0  0
 10 11  1  0  0  0
  8 12  1  0  0  0
 12 13  2  0  0  0
 13 14  1  0  0  0
 14 15  2  0  0  0
 15 16  1  0  0  0
 27 28  2  0  0  0
 28 29  1  0  0  0
 29 30  2  0  0  0
 30 25  1  0  0  0
 11  1  1  0  0  0
 16 12  1  0  0  0
 10  4  1  0  0  0
 24 31  1  0  0  0
 24 32  1  0  0  0
 19 22  1  0  0  0
 16 17  1  0  0  0
M  END
> <minimizedAffinity>
27.89777

> <CNNscore>
0.6223823428

> <CNNaffinity>
6.2196588516

> <CNN_VS>
3.8710057735

> <CNNaffinity_variance>
0.7341459394

$$$$
[H]c1nc(N([H])[H])c([H])c(C([H])([H])N([H])C(=O)C([H])([H])N2C([H])([H])c3c([H])c(-c4nnnn4[H])c(F)c([H])c3C([H])([H])C2([H])[H])c1[H]


 32 35  0  0  0  0  0  0  0  0999 V2000
   21.0664    8.1764   52.6961 N   0  0  0  0  0  0  0  0  0  0  0  0
   22.0624    7.2526   52.2919 C   0  0  0  0  0  0  0  0  0  0  0  0
   22.1890    6.0138   53.1488 C   0  0  0  0  0  0  0  0  0  0  0  0
   20.8132    5.4729   53.3172 C   0  0  0  0  0  0  0  0  0  0  0  0
   20.4732    4.1554   53.1764 C   0  0  0  0  0  0  0  0  0  0  0  0
   19.1591    3.7477   53.3547 C   0  0  0  0  0  0  0  0  0  0  0  0
   18.8053    2.4465   53.2184 F   0  0  0  0  0  0  0  0  0  0  0  0
   18.1508    4.6313   53.6760 C   0  0  0  0  0  0  0  0  0  0  0  0
   18.4986    5.9580   53.8169 C   0  0  0  0  0  0  0  0  0  0  0  0
   19.8113    6.3687   53.6392 C   0  0  0  0  0  0  0  0  0  0  0  0
   20.2236    7.7840   53.7809 C   0  0  0  0  0  0  0  0  0  0  0  0
   16.7774    4.1735   53.8581 C   0  0  0  0  0  0  0  0  0  0  0  0
   16.2412    3.6200   54.9599 N   0  0  0  0  0  0  0  0  0  0  0  0
   14.9557    3.3314   54.7449 N   0  0  0  0  0  0  0  0  0  0  0  0
   14.6711    3.7070   53.4891 N   0  0  0  0  0  0  0  0  0  0  0  0
   15.7762    4.2136   52.9625 N   0  0  0  0  0  0  0  0  0  0  0  0
   15.8385    4.5821   51.9978 H   0  0  0  0  0  0  0  0  0  0  0  0
   21.4515    9.5454   52.7029 C   0  0  0  0  0  0  0  0  0  0  0  0
   23.1342    9.1471   54.4978 N   0  0  0  0  0  0  0  0  0  0  0  0
   22.1740    9.9902   53.8822 C   0  0  0  0  0  0  0  0  0  0  0  0
   21.9796   11.1150   54.3908 O   0  0  0  0  0  0  0  0  0  0  0  0
   23.3181    8.1830   54.0928 H   0  0  0  0  0  0  0  0  0  0  0  0
   23.8753    9.5366   55.6605 C   0  0  0  0  0  0  0  0  0  0  0  0
   28.4033    9.6259   57.5948 N   0  0  0  0  0  0  0  0  0  0  0  0
   27.5337    9.2968   56.5254 C   0  0  0  0  0  0  0  0  0  0  0  0
   26.1771    9.5764   56.6411 C   0  0  0  0  0  0  0  0  0  0  0  0
   25.3087    9.2736   55.6287 C   0  0  0  0  0  0  0  0  0  0  0  0
   25.8719    8.6756   54.4954 C   0  0  0  0  0  0  0  0  0  0  0  0
   27.2074    8.4026   54.3870 C   0  0  0  0  0  0  0  0  0  0  0  0
   28.0066    8.7209   55.4073 N   0  0  0  0  0  0  0  0  0  0  0  0
   29.4090    9.7807   57.4279 H   0  0  0  0  0  0  0  0  0  0  0  0
   28.0315    9.7132   58.5538 H   0  0  0  0  0  0  0  0  0  0  0  0
 24 25  1  0  0  0
 25 26  2  0  0  0
 26 27  1  0  0  0
 27 23  1  0  0  0
 23 19  1  0  0  0
 19 20  1  0  0  0
 20 21  2  0  0  0
 20 18  1  0  0  0
 18  1  1  0  0  0
  1  2  1  0  0  0
  2  3  1  0  0  0
  3  4  1  0  0  0
  4  5  2  0  0  0
  5  6  1  0  0  0
  6  7  1  0  0  0
  6  8  2  0  0  0
  8  9  1  0  0  0
  9 10  2  0  0  0
 10 11  1  0  0  0
  8 12  1  0  0  0
 12 13  2  0  0  0
 13 14  1  0  0  0
 14 15  2  0  0  0
 15 16  1  0  0  0
 27 28  2  0  0  0
 28 29  1  0  0  0
 29 30  2  0  0  0
 30 25  1  0  0  0
 11  1  1  0  0  0
 16 12  1  0  0  0
 10  4  1  0  0  0
 24 31  1  0  0  0
 24 32  1  0  0  0
 19 22  1  0  0  0
 16 17  1  0  0  0
M  END
> <minimizedAffinity>
20.26497

> <CNNscore>
0.6219876409

> <CNNaffinity>
6.3602075577

> <CNN_VS>
3.9559705257

> <CNNaffinity_variance>
0.7414203882

$$$$
[H]c1nc(N([H])[H])c([H])c(C([H])([H])N([H])C(=O)C([H])([H])N2C([H])([H])c3c([H])c(-c4nnnn4[H])c(F)c([H])c3C([H])([H])C2([H])[H])c1[H]


 32 35  0  0  0  0  0  0  0  0999 V2000
   24.1302    6.5638   54.4076 N   0  0  0  0  0  0  0  0  0  0  0  0
   24.9699    6.2959   53.2978 C   0  0  0  0  0  0  0  0  0  0  0  0
   25.7745    7.4707   52.7903 C   0  0  0  0  0  0  0  0  0  0  0  0
   26.4244    8.0844   53.9797 C   0  0  0  0  0  0  0  0  0  0  0  0
   27.7381    8.4608   54.0402 C   0  0  0  0  0  0  0  0  0  0  0  0
   28.2525    9.0269   55.1976 C   0  0  0  0  0  0  0  0  0  0  0  0
   29.5517    9.4050   55.2744 F   0  0  0  0  0  0  0  0  0  0  0  0
   27.4817    9.2344   56.3217 C   0  0  0  0  0  0  0  0  0  0  0  0
   26.1583    8.8533   56.2558 C   0  0  0  0  0  0  0  0  0  0  0  0
   25.6411    8.2871   55.1002 C   0  0  0  0  0  0  0  0  0  0  0  0
   24.2260    7.8644   54.9910 C   0  0  0  0  0  0  0  0  0  0  0  0
   28.0499    9.8325   57.5251 C   0  0  0  0  0  0  0  0  0  0  0  0
   28.4318    9.1999   58.6484 N   0  0  0  0  0  0  0  0  0  0  0  0
   28.9037   10.0836   59.5307 N   0  0  0  0  0  0  0  0  0  0  0  0
   28.8206   11.2946   58.9599 N   0  0  0  0  0  0  0  0  0  0  0  0
   28.3044   11.1327   57.7506 N   0  0  0  0  0  0  0  0  0  0  0  0
   28.1301   11.9093   57.0897 H   0  0  0  0  0  0  0  0  0  0  0  0
   22.8110    6.0377   54.3327 C   0  0  0  0  0  0  0  0  0  0  0  0
   21.8824    7.2253   52.3480 N   0  0  0  0  0  0  0  0  0  0  0  0
   21.8186    6.9104   53.7296 C   0  0  0  0  0  0  0  0  0  0  0  0
   20.8856    7.4089   54.3949 O   0  0  0  0  0  0  0  0  0  0  0  0
   22.6665    6.8219   51.7566 H   0  0  0  0  0  0  0  0  0  0  0  0
   20.9293    8.0786   51.7029 C   0  0  0  0  0  0  0  0  0  0  0  0
   21.7335   12.0466   54.5067 N   0  0  0  0  0  0  0  0  0  0  0  0
   21.4881   11.4749   53.2335 C   0  0  0  0  0  0  0  0  0  0  0  0
   21.3414   10.0971   53.1232 C   0  0  0  0  0  0  0  0  0  0  0  0
   21.1028    9.5109   51.9107 C   0  0  0  0  0  0  0  0  0  0  0  0
   21.0195   10.3785   50.8154 C   0  0  0  0  0  0  0  0  0  0  0  0
   21.1647   11.7334   50.9296 C   0  0  0  0  0  0  0  0  0  0  0  0
   21.3959   12.2486   52.1388 N   0  0  0  0  0  0  0  0  0  0  0  0
   21.4899   13.0299   54.6987 H   0  0  0  0  0  0  0  0  0  0  0  0
   22.1603   11.4770   55.2542 H   0  0  0  0  0  0  0  0  0  0  0  0
 24 25  1  0  0  0
 25 26  2  0  0  0
 26 27  1  0  0  0
 27 23  1  0  0  0
 23 19  1  0  0  0
 19 20  1  0  0  0
 20 21  2  0  0  0
 20 18  1  0  0  0
 18  1  1  0  0  0
  1  2  1  0  0  0
  2  3  1  0  0  0
  3  4  1  0  0  0
  4  5  2  0  0  0
  5  6  1  0  0  0
  6  7  1  0  0  0
  6  8  2  0  0  0
  8  9  1  0  0  0
  9 10  2  0  0  0
 10 11  1  0  0  0
  8 12  1  0  0  0
 12 13  2  0  0  0
 13 14  1  0  0  0
 14 15  2  0  0  0
 15 16  1  0  0  0
 27 28  2  0  0  0
 28 29  1  0  0  0
 29 30  2  0  0  0
 30 25  1  0  0  0
 11  1  1  0  0  0
 16 12  1  0  0  0
 10  4  1  0  0  0
 24 31  1  0  0  0
 24 32  1  0  0  0
 19 22  1  0  0  0
 16 17  1  0  0  0
M  END
> <minimizedAffinity>
9.13578

> <CNNscore>
0.5860148668

> <CNNaffinity>
6.3093242645

> <CNN_VS>
3.6973578930

> <CNNaffinity_variance>
0.3453795314

$$$$
[H]c1nc(N([H])[H])c([H])c(C([H])([H])N([H])C(=O)C([H])([H])N2C([H])([H])c3c([H])c(-c4nnnn4[H])c(F)c([H])c3C([H])([H])C2([H])[H])c1[H]


 32 35  0  0  0  0  0  0  0  0999 V2000
   23.7399    8.8619   54.5079 N   0  0  0  0  0  0  0  0  0  0  0  0
   23.4305    7.8688   53.5453 C   0  0  0  0  0  0  0  0  0  0  0  0
   22.0242    7.9118   52.9929 C   0  0  0  0  0  0  0  0  0  0  0  0
   21.7685    9.3225   52.5948 C   0  0  0  0  0  0  0  0  0  0  0  0
   21.2014    9.7054   51.4103 C   0  0  0  0  0  0  0  0  0  0  0  0
   21.0030   11.0497   51.1304 C   0  0  0  0  0  0  0  0  0  0  0  0
   20.4430   11.4462   49.9616 F   0  0  0  0  0  0  0  0  0  0  0  0
   21.3600   12.0466   52.0134 C   0  0  0  0  0  0  0  0  0  0  0  0
   21.9312   11.6555   53.2057 C   0  0  0  0  0  0  0  0  0  0  0  0
   22.1309   10.3124   53.4885 C   0  0  0  0  0  0  0  0  0  0  0  0
   22.7417    9.8532   54.7570 C   0  0  0  0  0  0  0  0  0  0  0  0
   21.1388   13.4525   51.6921 C   0  0  0  0  0  0  0  0  0  0  0  0
   21.8914   14.2367   50.9006 N   0  0  0  0  0  0  0  0  0  0  0  0
   21.3709   15.4649   50.8490 N   0  0  0  0  0  0  0  0  0  0  0  0
   20.2721   15.4609   51.6184 N   0  0  0  0  0  0  0  0  0  0  0  0
   20.1407   14.2428   52.1225 N   0  0  0  0  0  0  0  0  0  0  0  0
   19.3722   13.9608   52.7551 H   0  0  0  0  0  0  0  0  0  0  0  0
   24.4397    8.4147   55.6624 C   0  0  0  0  0  0  0  0  0  0  0  0
   26.9041    8.7634   55.5331 N   0  0  0  0  0  0  0  0  0  0  0  0
   25.6312    9.1704   56.0083 C   0  0  0  0  0  0  0  0  0  0  0  0
   25.5804   10.1918   56.7265 O   0  0  0  0  0  0  0  0  0  0  0  0
   26.9813    7.8963   54.9252 H   0  0  0  0  0  0  0  0  0  0  0  0
   28.1099    9.4726   55.8426 C   0  0  0  0  0  0  0  0  0  0  0  0
   29.1680    7.8005   60.3523 N   0  0  0  0  0  0  0  0  0  0  0  0
   28.9216    8.8848   59.4737 C   0  0  0  0  0  0  0  0  0  0  0  0
   28.6514    8.6276   58.1348 C   0  0  0  0  0  0  0  0  0  0  0  0
   28.4080    9.6492   57.2585 C   0  0  0  0  0  0  0  0  0  0  0  0
   28.4502   10.9412   57.7952 C   0  0  0  0  0  0  0  0  0  0  0  0
   28.7167   11.1885   59.1134 C   0  0  0  0  0  0  0  0  0  0  0  0
   28.9462   10.1514   59.9214 N   0  0  0  0  0  0  0  0  0  0  0  0
   29.0098    7.8975   61.3665 H   0  0  0  0  0  0  0  0  0  0  0  0
   29.5094    6.9011   59.9784 H   0  0  0  0  0  0  0  0  0  0  0  0
 24 25  1  0  0  0
 25 26  2  0  0  0
 26 27  1  0  0  0
 27 23  1  0  0  0
 23 19  1  0  0  0
 19 20  1  0  0  0
 20 21  2  0  0  0
 20 18  1  0  0  0
 18  1  1  0  0  0
  1  2  1  0  0  0
  2  3  1  0  0  0
  3  4  1  0  0  0
  4  5  2  0  0  0
  5  6  1  0  0  0
  6  7  1  0  0  0
  6  8  2  0  0  0
  8  9  1  0  0  0
  9 10  2  0  0  0
 10 11  1  0  0  0
  8 12  1  0  0  0
 12 13  2  0  0  0
 13 14  1  0  0  0
 14 15  2  0  0  0
 15 16  1  0  0  0
 27 28  2  0  0  0
 28 29  1  0  0  0
 29 30  2  0  0  0
 30 25  1  0  0  0
 11  1  1  0  0  0
 16 12  1  0  0  0
 10  4  1  0  0  0
 24 31  1  0  0  0
 24 32  1  0  0  0
 19 22  1  0  0  0
 16 17  1  0  0  0
M  END
> <minimizedAffinity>
15.81525

> <CNNscore>
0.5521279573

> <CNNaffinity>
5.9778723717

> <CNN_VS>
3.3005504608

> <CNNaffinity_variance>
0.1386451721

$$$$
[H]c1nc(N([H])[H])c([H])c(C([H])([H])N([H])C(=O)C([H])([H])N2C([H])([H])c3c([H])c(-c4nnnn4[H])c(F)c([H])c3C([H])([H])C2([H])[H])c1[H]


 32 35  0  0  0  0  0  0  0  0999 V2000
   26.3227    8.8481   55.9070 N   0  0  0  0  0  0  0  0  0  0  0  0
   25.7392    9.5935   56.9617 C   0  0  0  0  0  0  0  0  0  0  0  0
   24.7613   10.6659   56.5390 C   0  0  0  0  0  0  0  0  0  0  0  0
   23.8202   10.0266   55.5801 C   0  0  0  0  0  0  0  0  0  0  0  0
   22.4600   10.1690   55.6138 C   0  0  0  0  0  0  0  0  0  0  0  0
   21.6650    9.5313   54.6726 C   0  0  0  0  0  0  0  0  0  0  0  0
   20.3161    9.6614   54.6921 F   0  0  0  0  0  0  0  0  0  0  0  0
   22.1944    8.7384   53.6767 C   0  0  0  0  0  0  0  0  0  0  0  0
   23.5657    8.5981   53.6470 C   0  0  0  0  0  0  0  0  0  0  0  0
   24.3633    9.2343   54.5865 C   0  0  0  0  0  0  0  0  0  0  0  0
   25.8387    9.1074   54.5881 C   0  0  0  0  0  0  0  0  0  0  0  0
   21.3334    8.0802   52.6998 C   0  0  0  0  0  0  0  0  0  0  0  0
   21.2572    8.3292   51.3807 N   0  0  0  0  0  0  0  0  0  0  0  0
   20.3539    7.5241   50.8168 N   0  0  0  0  0  0  0  0  0  0  0  0
   19.8493    6.7528   51.7912 N   0  0  0  0  0  0  0  0  0  0  0  0
   20.4463    7.0957   52.9231 N   0  0  0  0  0  0  0  0  0  0  0  0
   20.2441    6.6561   53.8375 H   0  0  0  0  0  0  0  0  0  0  0  0
   27.7255    8.6324   55.9976 C   0  0  0  0  0  0  0  0  0  0  0  0
   28.5216    8.0749   58.2925 N   0  0  0  0  0  0  0  0  0  0  0  0
   28.3427    9.0234   57.2531 C   0  0  0  0  0  0  0  0  0  0  0  0
   28.7332   10.1920   57.4617 O   0  0  0  0  0  0  0  0  0  0  0  0
   28.1952    7.0749   58.1483 H   0  0  0  0  0  0  0  0  0  0  0  0
   29.1254    8.4066   59.5488 C   0  0  0  0  0  0  0  0  0  0  0  0
   27.9138   13.1450   58.9724 N   0  0  0  0  0  0  0  0  0  0  0  0
   28.7042   12.1496   59.5989 C   0  0  0  0  0  0  0  0  0  0  0  0
   28.5103   10.8151   59.2619 C   0  0  0  0  0  0  0  0  0  0  0  0
   29.2555    9.8278   59.8456 C   0  0  0  0  0  0  0  0  0  0  0  0
   30.2043   10.2489   60.7846 C   0  0  0  0  0  0  0  0  0  0  0  0
   30.3907   11.5633   61.1125 C   0  0  0  0  0  0  0  0  0  0  0  0
   29.6340   12.4827   60.5099 N   0  0  0  0  0  0  0  0  0  0  0  0
   28.2482   14.1180   58.9043 H   0  0  0  0  0  0  0  0  0  0  0  0
   26.9923   12.8992   58.5778 H   0  0  0  0  0  0  0  0  0  0  0  0
 24 25  1  0  0  0
 25 26  2  0  0  0
 26 27  1  0  0  0
 27 23  1  0  0  0
 23 19  1  0  0  0
 19 20  1  0  0  0
 20 21  2  0  0  0
 20 18  1  0  0  0
 18  1  1  0  0  0
  1  2  1  0  0  0
  2  3  1  0  0  0
  3  4  1  0  0  0
  4  5  2  0  0  0
  5  6  1  0  0  0
  6  7  1  0  0  0
  6  8  2  0  0  0
  8  9  1  0  0  0
  9 10  2  0  0  0
 10 11  1  0  0  0
  8 12  1  0  0  0
 12 13  2  0  0  0
 13 14  1  0  0  0
 14 15  2  0  0  0
 15 16  1  0  0  0
 27 28  2  0  0  0
 28 29  1  0  0  0
 29 30  2  0  0  0
 30 25  1  0  0  0
 11  1  1  0  0  0
 16 12  1  0  0  0
 10  4  1  0  0  0
 24 31  1  0  0  0
 24 32  1  0  0  0
 19 22  1  0  0  0
 16 17  1  0  0  0
M  END
> <minimizedAffinity>
11.90043

> <CNNscore>
0.5321197510

> <CNNaffinity>
6.3073945045

> <CNN_VS>
3.3562891483

> <CNNaffinity_variance>
0.2985531986

$$$$
[H]c1nc(N([H])[H])c([H])c(C([H])([H])N([H])C(=O)C([H])([H])N2C([H])([H])c3c([H])c(-c4nnnn4[H])c(F)c([H])c3C([H])([H])C2([H])[H])c1[H]


 32 35  0  0  0  0  0  0  0  0999 V2000
   21.3361    7.8572   53.0830 N   0  0  0  0  0  0  0  0  0  0  0  0
   20.8936    8.9828   53.8218 C   0  0  0  0  0  0  0  0  0  0  0  0
   21.4550    9.1069   55.2198 C   0  0  0  0  0  0  0  0  0  0  0  0
   22.9275    8.9289   55.1022 C   0  0  0  0  0  0  0  0  0  0  0  0
   23.8581    9.7279   55.7080 C   0  0  0  0  0  0  0  0  0  0  0  0
   25.2124    9.4798   55.5377 C   0  0  0  0  0  0  0  0  0  0  0  0
   26.1473   10.2619   56.1304 F   0  0  0  0  0  0  0  0  0  0  0  0
   25.6790    8.4374   54.7654 C   0  0  0  0  0  0  0  0  0  0  0  0
   24.7373    7.6350   54.1570 C   0  0  0  0  0  0  0  0  0  0  0  0
   23.3826    7.8804   54.3252 C   0  0  0  0  0  0  0  0  0  0  0  0
   22.3415    7.0422   53.6878 C   0  0  0  0  0  0  0  0  0  0  0  0
   27.1097    8.2003   54.6047 C   0  0  0  0  0  0  0  0  0  0  0  0
   28.1194    8.9536   55.0747 N   0  0  0  0  0  0  0  0  0  0  0  0
   29.2899    8.4156   54.7250 N   0  0  0  0  0  0  0  0  0  0  0  0
   29.0202    7.3048   54.0231 N   0  0  0  0  0  0  0  0  0  0  0  0
   27.7027    7.1837   53.9560 N   0  0  0  0  0  0  0  0  0  0  0  0
   27.2192    6.4095   53.4689 H   0  0  0  0  0  0  0  0  0  0  0  0
   20.3311    7.1412   52.3760 C   0  0  0  0  0  0  0  0  0  0  0  0
   19.8547    5.0002   53.5596 N   0  0  0  0  0  0  0  0  0  0  0  0
   19.4595    6.3111   53.1894 C   0  0  0  0  0  0  0  0  0  0  0  0
   18.3457    6.7146   53.5876 O   0  0  0  0  0  0  0  0  0  0  0  0
   20.7930    4.6261   53.2323 H   0  0  0  0  0  0  0  0  0  0  0  0
   19.0350    4.1409   54.3610 C   0  0  0  0  0  0  0  0  0  0  0  0
   14.1945    4.1447   53.4541 N   0  0  0  0  0  0  0  0  0  0  0  0
   15.4786    3.5800   53.2531 C   0  0  0  0  0  0  0  0  0  0  0  0
   16.5766    4.1414   53.8944 C   0  0  0  0  0  0  0  0  0  0  0  0
   17.8305    3.6223   53.7245 C   0  0  0  0  0  0  0  0  0  0  0  0
   17.9254    2.5116   52.8779 C   0  0  0  0  0  0  0  0  0  0  0  0
   16.8417    1.9634   52.2494 C   0  0  0  0  0  0  0  0  0  0  0  0
   15.6427    2.5128   52.4534 N   0  0  0  0  0  0  0  0  0  0  0  0
   13.3429    3.5798   53.3166 H   0  0  0  0  0  0  0  0  0  0  0  0
   14.1044    5.1319   53.7416 H   0  0  0  0  0  0  0  0  0  0  0  0
 24 25  1  0  0  0
 25 26  2  0  0  0
 26 27  1  0  0  0
 27 23  1  0  0  0
 23 19  1  0  0  0
 19 20  1  0  0  0
 20 21  2  0  0  0
 20 18  1  0  0  0
 18  1  1  0  0  0
  1  2  1  0  0  0
  2  3  1  0  0  0
  3  4  1  0  0  0
  4  5  2  0  0  0
  5  6  1  0  0  0
  6  7  1  0  0  0
  6  8  2  0  0  0
  8  9  1  0  0  0
  9 10  2  0  0  0
 10 11  1  0  0  0
  8 12  1  0  0  0
 12 13  2  0  0  0
 13 14  1  0  0  0
 14 15  2  0  0  0
 15 16  1  0  0  0
 27 28  2  0  0  0
 28 29  1  0  0  0
 29 30  2  0  0  0
 30 25  1  0  0  0
 11  1  1  0  0  0
 16 12  1  0  0  0
 10  4  1  0  0  0
 24 31  1  0  0  0
 24 32  1  0  0  0
 19 22  1  0  0  0
 16 17  1  0  0  0
M  END
> <minimizedAffinity>
19.70070

> <CNNscore>
0.5129444003

> <CNNaffinity>
6.4170670509

> <CNN_VS>
3.2915985584

> <CNNaffinity_variance>
0.5380460620

$$$$
[H]c1nc(N([H])[H])c([H])c(C([H])([H])N([H])C(=O)C([H])([H])N2C([H])([H])c3c([H])c(-c4nnnn4[H])c(F)c([H])c3C([H])([H])C2([H])[H])c1[H]


 32 35  0  0  0  0  0  0  0  0999 V2000
   24.4634    8.1782   53.4083 N   0  0  0  0  0  0  0  0  0  0  0  0
   23.7212    7.1824   52.7256 C   0  0  0  0  0  0  0  0  0  0  0  0
   22.2180    7.3218   52.8029 C   0  0  0  0  0  0  0  0  0  0  0  0
   21.9054    8.7347   52.4569 C   0  0  0  0  0  0  0  0  0  0  0  0
   20.9200    9.1234   51.5914 C   0  0  0  0  0  0  0  0  0  0  0  0
   20.7046   10.4694   51.3333 C   0  0  0  0  0  0  0  0  0  0  0  0
   19.7330   10.8715   50.4782 F   0  0  0  0  0  0  0  0  0  0  0  0
   21.4570   11.4624   51.9238 C   0  0  0  0  0  0  0  0  0  0  0  0
   22.4488   11.0655   52.7953 C   0  0  0  0  0  0  0  0  0  0  0  0
   22.6667    9.7207   53.0554 C   0  0  0  0  0  0  0  0  0  0  0  0
   23.7221    9.2552   53.9840 C   0  0  0  0  0  0  0  0  0  0  0  0
   21.2073   12.8703   51.6336 C   0  0  0  0  0  0  0  0  0  0  0  0
   22.0247   13.7304   51.0012 N   0  0  0  0  0  0  0  0  0  0  0  0
   21.4491   14.9324   50.9238 N   0  0  0  0  0  0  0  0  0  0  0  0
   20.2492   14.8345   51.5153 N   0  0  0  0  0  0  0  0  0  0  0  0
   20.1127   13.5872   51.9402 N   0  0  0  0  0  0  0  0  0  0  0  0
   19.2751   13.2354   52.4351 H   0  0  0  0  0  0  0  0  0  0  0  0
   25.5528    7.7137   54.1958 C   0  0  0  0  0  0  0  0  0  0  0  0
   27.0281    8.8297   52.5256 N   0  0  0  0  0  0  0  0  0  0  0  0
   26.8746    8.0949   53.7291 C   0  0  0  0  0  0  0  0  0  0  0  0
   27.9103    7.7945   54.3605 O   0  0  0  0  0  0  0  0  0  0  0  0
   26.1676    9.0955   51.9632 H   0  0  0  0  0  0  0  0  0  0  0  0
   28.3072    9.2322   52.0212 C   0  0  0  0  0  0  0  0  0  0  0  0
   28.3342   12.3857   48.2387 N   0  0  0  0  0  0  0  0  0  0  0  0
   28.3798   11.0558   48.7259 C   0  0  0  0  0  0  0  0  0  0  0  0
   28.3251   10.8311   50.0965 C   0  0  0  0  0  0  0  0  0  0  0  0
   28.3657    9.5610   50.6023 C   0  0  0  0  0  0  0  0  0  0  0  0
   28.4643    8.5288   49.6620 C   0  0  0  0  0  0  0  0  0  0  0  0
   28.5178    8.7556   48.3145 C   0  0  0  0  0  0  0  0  0  0  0  0
   28.4741   10.0165   47.8794 N   0  0  0  0  0  0  0  0  0  0  0  0
   28.0096   12.5852   47.2805 H   0  0  0  0  0  0  0  0  0  0  0  0
   28.6278   13.1675   48.8452 H   0  0  0  0  0  0  0  0  0  0  0  0
 24 25  1  0  0  0
 25 26  2  0  0  0
 26 27  1  0  0  0
 27 23  1  0  0  0
 23 19  1  0  0  0
 19 20  1  0  0  0
 20 21  2  0  0  0
 20 18  1  0  0  0
 18  1  1  0  0  0
  1  2  1  0  0  0
  2  3  1  0  0  0
  3  4  1  0  0  0
  4  5  2  0  0  0
  5  6  1  0  0  0
  6  7  1  0  0  0
  6  8  2  0  0  0
  8  9  1  0  0  0
  9 10  2  0  0  0
 10 11  1  0  0  0
  8 12  1  0  0  0
 12 13  2  0  0  0
 13 14  1  0  0  0
 14 15  2  0  0  0
 15 16  1  0  0  0
 27 28  2  0  0  0
 28 29  1  0  0  0
 29 30  2  0  0  0
 30 25  1  0  0  0
 11  1  1  0  0  0
 16 12  1  0  0  0
 10  4  1  0  0  0
 24 31  1  0  0  0
 24 32  1  0  0  0
 19 22  1  0  0  0
 16 17  1  0  0  0
M  END
> <minimizedAffinity>
27.78684

> <CNNscore>
0.5103356242

> <CNNaffinity>
6.0782766342

> <CNN_VS>
3.1019611359

> <CNNaffinity_variance>
0.3623946607

$$$$
[H]c1nc([H])c(N([H])c2nc([H])c(C([H])([H])C([H])([H])[H])c([H])c2[H])nc1[H]


 16 17  0  0  0  0  0  0  0  0999 V2000
   27.3295    9.2917   56.0870 C   0  0  0  0  0  0  0  0  0  0  0  0
   27.8894    8.7649   54.9400 C   0  0  0  0  0  0  0  0  0  0  0  0
   27.1157    8.2136   53.9461 C   0  0  0  0  0  0  0  0  0  0  0  0
   25.7262    8.1725   54.0743 C   0  0  0  0  0  0  0  0  0  0  0  0
   25.2257    8.6957   55.2050 N   0  0  0  0  0  0  0  0  0  0  0  0
   25.9575    9.2403   56.1915 C   0  0  0  0  0  0  0  0  0  0  0  0
   28.1175    8.9825   58.3682 C   0  0  0  0  0  0  0  0  0  0  0  0
   28.1733    9.8913   57.1676 C   0  0  0  0  0  0  0  0  0  0  0  0
   24.9162    7.6078   53.0587 N   0  0  0  0  0  0  0  0  0  0  0  0
   25.3974    7.1808   52.2268 H   0  0  0  0  0  0  0  0  0  0  0  0
   23.5149    7.6356   53.1933 C   0  0  0  0  0  0  0  0  0  0  0  0
   22.8361    6.5170   53.6228 C   0  0  0  0  0  0  0  0  0  0  0  0
   21.4751    6.5496   53.7518 N   0  0  0  0  0  0  0  0  0  0  0  0
   20.7729    7.6578   53.4672 C   0  0  0  0  0  0  0  0  0  0  0  0
   21.4567    8.7642   53.0411 C   0  0  0  0  0  0  0  0  0  0  0  0
   22.7881    8.7205   52.9187 N   0  0  0  0  0  0  0  0  0  0  0  0
  7  8  1  0  0  0
  8  1  1  0  0  0
  1  2  2  0  0  0
  2  3  1  0  0  0
  3  4  2  0  0  0
  4  9  1  0  0  0
  9 11  1  0  0  0
 11 12  2  0  0  0
 12 13  1  0  0  0
 13 14  2  0  0  0
 14 15  1  0  0  0
 15 16  2  0  0  0
  4  5  1  0  0  0
  5  6  2  0  0  0
  6  1  1  0  0  0
 16 11  1  0  0  0
  9 10  1  0  0  0
M  END
> <minimizedAffinity>
-2.25031

> <CNNscore>
0.5899036527

> <CNNaffinity>
5.0890717506

> <CNN_VS>
3.0020620823

> <CNNaffinity_variance>
0.2616239488

$$$$
[H]c1nc([H])c(N([H])c2nc([H])c(C([H])([H])C([H])([H])[H])c([H])c2[H])nc1[H]


 16 17  0  0  0  0  0  0  0  0999 V2000
   23.5166    8.4499   54.2995 C   0  0  0  0  0  0  0  0  0  0  0  0
   24.5217    7.9136   53.5193 C   0  0  0  0  0  0  0  0  0  0  0  0
   25.8487    8.0707   53.8427 C   0  0  0  0  0  0  0  0  0  0  0  0
   26.2171    8.7862   54.9834 C   0  0  0  0  0  0  0  0  0  0  0  0
   25.2077    9.2895   55.7117 N   0  0  0  0  0  0  0  0  0  0  0  0
   23.9036    9.1513   55.4194 C   0  0  0  0  0  0  0  0  0  0  0  0
   21.8117    9.0154   52.6581 C   0  0  0  0  0  0  0  0  0  0  0  0
   22.0728    8.2778   53.9459 C   0  0  0  0  0  0  0  0  0  0  0  0
   27.5802    8.9563   55.3293 N   0  0  0  0  0  0  0  0  0  0  0  0
   28.3055    8.6829   54.6185 H   0  0  0  0  0  0  0  0  0  0  0  0
   27.9152    9.4778   56.5936 C   0  0  0  0  0  0  0  0  0  0  0  0
   27.9241    8.6605   57.7018 C   0  0  0  0  0  0  0  0  0  0  0  0
   28.2503    9.1721   58.9273 N   0  0  0  0  0  0  0  0  0  0  0  0
   28.5665   10.4678   59.0815 C   0  0  0  0  0  0  0  0  0  0  0  0
   28.5548   11.2718   57.9740 C   0  0  0  0  0  0  0  0  0  0  0  0
   28.2341   10.7600   56.7804 N   0  0  0  0  0  0  0  0  0  0  0  0
  7  8  1  0  0  0
  8  1  1  0  0  0
  1  2  2  0  0  0
  2  3  1  0  0  0
  3  4  2  0  0  0
  4  9  1  0  0  0
  9 11  1  0  0  0
 11 12  2  0  0  0
 12 13  1  0  0  0
 13 14  2  0  0  0
 14 15  1  0  0  0
 15 16  2  0  0  0
  4  5  1  0  0  0
  5  6  2  0  0  0
  6  1  1  0  0  0
 16 11  1  0  0  0
  9 10  1  0  0  0
M  END
> <minimizedAffinity>
0.64711

> <CNNscore>
0.5147786140

> <CNNaffinity>
4.8475565910

> <CNN_VS>
2.4954185486

> <CNNaffinity_variance>
0.3454681039

$$$$
[H]c1nc([H])c(N([H])c2nc([H])c(C([H])([H])C([H])([H])[H])c([H])c2[H])nc1[H]


 16 17  0  0  0  0  0  0  0  0999 V2000
   21.8108   10.1337   53.6074 C   0  0  0  0  0  0  0  0  0  0  0  0
   23.0808   10.1370   53.0655 C   0  0  0  0  0  0  0  0  0  0  0  0
   24.0401    9.2380   53.4678 C   0  0  0  0  0  0  0  0  0  0  0  0
   23.7493    8.2869   54.4474 C   0  0  0  0  0  0  0  0  0  0  0  0
   22.5031    8.3205   54.9460 N   0  0  0  0  0  0  0  0  0  0  0  0
   21.5469    9.1869   54.5716 C   0  0  0  0  0  0  0  0  0  0  0  0
   21.2509   11.7816   51.9069 C   0  0  0  0  0  0  0  0  0  0  0  0
   20.7681   11.1130   53.1681 C   0  0  0  0  0  0  0  0  0  0  0  0
   24.7273    7.3543   54.8720 N   0  0  0  0  0  0  0  0  0  0  0  0
   24.3979    6.4089   55.1938 H   0  0  0  0  0  0  0  0  0  0  0  0
   26.0876    7.7171   54.8500 C   0  0  0  0  0  0  0  0  0  0  0  0
   27.0075    6.9237   54.2015 C   0  0  0  0  0  0  0  0  0  0  0  0
   28.3274    7.2808   54.1830 N   0  0  0  0  0  0  0  0  0  0  0  0
   28.7568    8.3995   54.7886 C   0  0  0  0  0  0  0  0  0  0  0  0
   27.8348    9.1813   55.4303 C   0  0  0  0  0  0  0  0  0  0  0  0
   26.5463    8.8218   55.4416 N   0  0  0  0  0  0  0  0  0  0  0  0
  7  8  1  0  0  0
  8  1  1  0  0  0
  1  2  2  0  0  0
  2  3  1  0  0  0
  3  4  2  0  0  0
  4  9  1  0  0  0
  9 11  1  0  0  0
 11 12  2  0  0  0
 12 13  1  0  0  0
 13 14  2  0  0  0
 14 15  1  0  0  0
 15 16  2  0  0  0
  4  5  1  0  0  0
  5  6  2  0  0  0
  6  1  1  0  0  0
 16 11  1  0  0  0
  9 10  1  0  0  0
M  END
> <minimizedAffinity>
10.95032

> <CNNscore>
0.5040848851

> <CNNaffinity>
4.8165435791

> <CNN_VS>
2.4279468060

> <CNNaffinity_variance>
0.0761779770

$$$$
[H]c1nc([H])c(N([H])c2nc([H])c(C([H])([H])C([H])([H])[H])c([H])c2[H])nc1[H]


 16 17  0  0  0  0  0  0  0  0999 V2000
   22.9918    6.2865   54.2418 C   0  0  0  0  0  0  0  0  0  0  0  0
   21.6229    6.4527   54.1709 C   0  0  0  0  0  0  0  0  0  0  0  0
   21.0468    7.3268   53.2796 C   0  0  0  0  0  0  0  0  0  0  0  0
   21.8428    8.0777   52.4128 C   0  0  0  0  0  0  0  0  0  0  0  0
   23.1673    7.8839   52.5167 N   0  0  0  0  0  0  0  0  0  0  0  0
   23.7567    7.0372   53.3774 C   0  0  0  0  0  0  0  0  0  0  0  0
   22.7275    5.2466   56.4258 C   0  0  0  0  0  0  0  0  0  0  0  0
   23.6170    5.3346   55.2126 C   0  0  0  0  0  0  0  0  0  0  0  0
   21.2635    8.9820   51.4892 N   0  0  0  0  0  0  0  0  0  0  0  0
   20.7548    8.5803   50.6611 H   0  0  0  0  0  0  0  0  0  0  0  0
   21.3854   10.3679   51.7059 C   0  0  0  0  0  0  0  0  0  0  0  0
   21.5251   10.8614   52.9839 C   0  0  0  0  0  0  0  0  0  0  0  0
   21.6431   12.2084   53.1887 N   0  0  0  0  0  0  0  0  0  0  0  0
   21.6263   13.0748   52.1632 C   0  0  0  0  0  0  0  0  0  0  0  0
   21.4870   12.5744   50.8970 C   0  0  0  0  0  0  0  0  0  0  0  0
   21.3724   11.2549   50.7090 N   0  0  0  0  0  0  0  0  0  0  0  0
  7  8  1  0  0  0
  8  1  1  0  0  0
  1  2  2  0  0  0
  2  3  1  0  0  0
  3  4  2  0  0  0
  4  9  1  0  0  0
  9 11  1  0  0  0
 11 12  2  0  0  0
 12 13  1  0  0  0
 13 14  2  0  0  0
 14 15  1  0  0  0
 15 16  2  0  0  0
  4  5  1  0  0  0
  5  6  2  0  0  0
  6  1  1  0  0  0
 16 11  1  0  0  0
  9 10  1  0  0  0
M  END
> <minimizedAffinity>
7.84944

> <CNNscore>
0.4929765761

> <CNNaffinity>
5.0302033424

> <CNN_VS>
2.4797723293

> <CNNaffinity_variance>
0.2350692749

$$$$
[H]c1nc([H])c(N([H])c2nc([H])c(C([H])([H])C([H])([H])[H])c([H])c2[H])nc1[H]


 16 17  0  0  0  0  0  0  0  0999 V2000
   26.7497    8.4224   54.2714 C   0  0  0  0  0  0  0  0  0  0  0  0
   26.0692    8.8462   55.3956 C   0  0  0  0  0  0  0  0  0  0  0  0
   24.7029    8.9992   55.3979 C   0  0  0  0  0  0  0  0  0  0  0  0
   23.9603    8.7260   54.2479 C   0  0  0  0  0  0  0  0  0  0  0  0
   24.6629    8.3170   53.1793 N   0  0  0  0  0  0  0  0  0  0  0  0
   25.9967    8.1589   53.1491 C   0  0  0  0  0  0  0  0  0  0  0  0
   28.7938    8.9928   55.4618 C   0  0  0  0  0  0  0  0  0  0  0  0
   28.2369    8.2564   54.2709 C   0  0  0  0  0  0  0  0  0  0  0  0
   22.5521    8.8790   54.2352 N   0  0  0  0  0  0  0  0  0  0  0  0
   22.1571    9.8159   54.5040 H   0  0  0  0  0  0  0  0  0  0  0  0
   21.7392    7.7893   53.8690 C   0  0  0  0  0  0  0  0  0  0  0  0
   22.1777    6.4988   54.0655 C   0  0  0  0  0  0  0  0  0  0  0  0
   21.3840    5.4441   53.7081 N   0  0  0  0  0  0  0  0  0  0  0  0
   20.1720    5.6353   53.1633 C   0  0  0  0  0  0  0  0  0  0  0  0
   19.7452    6.9215   52.9721 C   0  0  0  0  0  0  0  0  0  0  0  0
   20.5304    7.9453   53.3257 N   0  0  0  0  0  0  0  0  0  0  0  0
  7  8  1  0  0  0
  8  1  1  0  0  0
  1  2  2  0  0  0
  2  3  1  0  0  0
  3  4  2  0  0  0
  4  9  1  0  0  0
  9 11  1  0  0  0
 11 12  2  0  0  0
 12 13  1  0  0  0
 13 14  2  0  0  0
 14 15  1  0  0  0
 15 16  2  0  0  0
  4  5  1  0  0  0
  5  6  2  0  0  0
  6  1  1  0  0  0
 16 11  1  0  0  0
  9 10  1  0  0  0
M  END
> <minimizedAffinity>
2.71087

> <CNNscore>
0.4490392208

> <CNNaffinity>
5.0318827629

> <CNN_VS>
2.2595126629

> <CNNaffinity_variance>
0.0355985388

$$$$
[H]c1nc([H])c(N([H])c2nc([H])c(C([H])([H])C([H])([H])[H])c([H])c2[H])nc1[H]


 16 17  0  0  0  0  0  0  0  0999 V2000
   21.5869   11.6076   52.3866 C   0  0  0  0  0  0  0  0  0  0  0  0
   21.6238   11.2238   53.7125 C   0  0  0  0  0  0  0  0  0  0  0  0
   21.4026    9.9215   54.0938 C   0  0  0  0  0  0  0  0  0  0  0  0
   21.1315    8.9422   53.1365 C   0  0  0  0  0  0  0  0  0  0  0  0
   21.1055    9.3603   51.8608 N   0  0  0  0  0  0  0  0  0  0  0  0
   21.3179   10.6250   51.4604 C   0  0  0  0  0  0  0  0  0  0  0  0
   21.2123   13.2317   50.6139 C   0  0  0  0  0  0  0  0  0  0  0  0
   21.8280   13.0256   51.9737 C   0  0  0  0  0  0  0  0  0  0  0  0
   20.9016    7.5965   53.5142 N   0  0  0  0  0  0  0  0  0  0  0  0
   19.9189    7.2280   53.4464 H   0  0  0  0  0  0  0  0  0  0  0  0
   21.9788    6.8077   53.9614 C   0  0  0  0  0  0  0  0  0  0  0  0
   22.1193    6.5190   55.3004 C   0  0  0  0  0  0  0  0  0  0  0  0
   23.1673    5.7523   55.7293 N   0  0  0  0  0  0  0  0  0  0  0  0
   24.0758    5.2668   54.8682 C   0  0  0  0  0  0  0  0  0  0  0  0
   23.9274    5.5594   53.5395 C   0  0  0  0  0  0  0  0  0  0  0  0
   22.8981    6.3103   53.1318 N   0  0  0  0  0  0  0  0  0  0  0  0
  7  8  1  0  0  0
  8  1  1  0  0  0
  1  2  2  0  0  0
  2  3  1  0  0  0
  3  4  2  0  0  0
  4  9  1  0  0  0
  9 11  1  0  0  0
 11 12  2  0  0  0
 12 13  1  0  0  0
 13 14  2  0  0  0
 14 15  1  0  0  0
 15 16  2  0  0  0
  4  5  1  0  0  0
  5  6  2  0  0  0
  6  1  1  0  0  0
 16 11  1  0  0  0
  9 10  1  0  0  0
M  END
> <minimizedAffinity>
3.32288

> <CNNscore>
0.4333053827

> <CNNaffinity>
4.9594707489

> <CNN_VS>
2.1489653587

> <CNNaffinity_variance>
0.0408586562

$$$$
[H]c1nc([H])c(N([H])c2nc([H])c(C([H])([H])C([H])([H])[H])c([H])c2[H])nc1[H]


 16 17  0  0  0  0  0  0  0  0999 V2000
   24.1398    5.2966   53.2886 C   0  0  0  0  0  0  0  0  0  0  0  0
   23.5452    6.1323   52.3642 C   0  0  0  0  0  0  0  0  0  0  0  0
   22.6028    7.0630   52.7329 C   0  0  0  0  0  0  0  0  0  0  0  0
   22.2190    7.1874   54.0694 C   0  0  0  0  0  0  0  0  0  0  0  0
   22.8227    6.3551   54.9329 N   0  0  0  0  0  0  0  0  0  0  0  0
   23.7458    5.4373   54.6004 C   0  0  0  0  0  0  0  0  0  0  0  0
   24.5427    2.9159   52.9880 C   0  0  0  0  0  0  0  0  0  0  0  0
   25.1653    4.2843   52.8853 C   0  0  0  0  0  0  0  0  0  0  0  0
   21.2495    8.1416   54.4643 N   0  0  0  0  0  0  0  0  0  0  0  0
   20.5009    7.8329   55.1353 H   0  0  0  0  0  0  0  0  0  0  0  0
   21.3179    9.4521   53.9539 C   0  0  0  0  0  0  0  0  0  0  0  0
   21.3186   10.5313   54.8092 C   0  0  0  0  0  0  0  0  0  0  0  0
   21.3852   11.8020   54.3082 N   0  0  0  0  0  0  0  0  0  0  0  0
   21.4509   12.0291   52.9866 C   0  0  0  0  0  0  0  0  0  0  0  0
   21.4497   10.9499   52.1449 C   0  0  0  0  0  0  0  0  0  0  0  0
   21.3841    9.7115   52.6466 N   0  0  0  0  0  0  0  0  0  0  0  0
  7  8  1  0  0  0
  8  1  1  0  0  0
  1  2  2  0  0  0
  2  3  1  0  0  0
  3  4  2  0  0  0
  4  9  1  0  0  0
  9 11  1  0  0  0
 11 12  2  0  0  0
 12 13  1  0  0  0
 13 14  2  0  0  0
 14 15  1  0  0  0
 15 16  2  0  0  0
  4  5  1  0  0  0
  5  6  2  0  0  0
  6  1  1  0  0  0
 16 11  1  0  0  0
  9 10  1  0  0  0
M  END
> <minimizedAffinity>
13.47838

> <CNNscore>
0.4301686287

> <CNNaffinity>
5.0023989677

> <CNN_VS>
2.1518750191

> <CNNaffinity_variance>
0.1424295306

$$$$
[H]c1nc([H])c(N([H])c2nc([H])c(C([H])([H])C([H])([H])[H])c([H])c2[H])nc1[H]


 16 17  0  0  0  0  0  0  0  0999 V2000
   21.5884   10.3787   52.9493 C   0  0  0  0  0  0  0  0  0  0  0  0
   21.9435   10.3872   54.2836 C   0  0  0  0  0  0  0  0  0  0  0  0
   22.8185    9.4633   54.8040 C   0  0  0  0  0  0  0  0  0  0  0  0
   23.3769    8.4805   53.9847 C   0  0  0  0  0  0  0  0  0  0  0  0
   23.0036    8.5102   52.6953 N   0  0  0  0  0  0  0  0  0  0  0  0
   22.1514    9.4006   52.1605 C   0  0  0  0  0  0  0  0  0  0  0  0
   21.3383   12.1309   51.2797 C   0  0  0  0  0  0  0  0  0  0  0  0
   20.6359   11.3853   52.3848 C   0  0  0  0  0  0  0  0  0  0  0  0
   24.2798    7.5220   54.5066 N   0  0  0  0  0  0  0  0  0  0  0  0
   23.9013    6.5713   54.7494 H   0  0  0  0  0  0  0  0  0  0  0  0
   25.6337    7.8671   54.6811 C   0  0  0  0  0  0  0  0  0  0  0  0
   25.9757    9.0174   55.3563 C   0  0  0  0  0  0  0  0  0  0  0  0
   27.2922    9.3478   55.5230 N   0  0  0  0  0  0  0  0  0  0  0  0
   28.2740    8.5703   55.0393 C   0  0  0  0  0  0  0  0  0  0  0  0
   27.9238    7.4291   54.3697 C   0  0  0  0  0  0  0  0  0  0  0  0
   26.6326    7.1163   54.2129 N   0  0  0  0  0  0  0  0  0  0  0  0
  7  8  1  0  0  0
  8  1  1  0  0  0
  1  2  2  0  0  0
  2  3  1  0  0  0
  3  4  2  0  0  0
  4  9  1  0  0  0
  9 11  1  0  0  0
 11 12  2  0  0  0
 12 13  1  0  0  0
 13 14  2  0  0  0
 14 15  1  0  0  0
 15 16  2  0  0  0
  4  5  1  0  0  0
  5  6  2  0  0  0
  6  1  1  0  0  0
 16 11  1  0  0  0
  9 10  1  0  0  0
M  END
> <minimizedAffinity>
4.92118

> <CNNscore>
0.4077086747

> <CNNaffinity>
4.6706061363

> <CNN_VS>
1.9042466879

> <CNNaffinity_variance>
0.1899137795

$$$$
[H]c1nc([H])c(N([H])c2nc([H])c(C([H])([H])C([H])([H])[H])c([H])c2[H])nc1[H]


 16 17  0  0  0  0  0  0  0  0999 V2000
   21.4214    9.6480   53.1572 C   0  0  0  0  0  0  0  0  0  0  0  0
   21.5623    8.8877   54.3012 C   0  0  0  0  0  0  0  0  0  0  0  0
   21.2651    7.5455   54.3174 C   0  0  0  0  0  0  0  0  0  0  0  0
   20.8073    6.9100   53.1619 C   0  0  0  0  0  0  0  0  0  0  0  0
   20.6855    7.6874   52.0739 N   0  0  0  0  0  0  0  0  0  0  0  0
   20.9686    9.0000   52.0298 C   0  0  0  0  0  0  0  0  0  0  0  0
   21.5639   11.6168   51.7344 C   0  0  0  0  0  0  0  0  0  0  0  0
   21.7455   11.1088   53.1414 C   0  0  0  0  0  0  0  0  0  0  0  0
   20.4971    5.5278   53.1634 N   0  0  0  0  0  0  0  0  0  0  0  0
   21.2491    4.8550   52.8671 H   0  0  0  0  0  0  0  0  0  0  0  0
   19.2124    5.1056   53.5555 C   0  0  0  0  0  0  0  0  0  0  0  0
   18.1789    6.0119   53.6390 C   0  0  0  0  0  0  0  0  0  0  0  0
   16.9330    5.5964   54.0202 N   0  0  0  0  0  0  0  0  0  0  0  0
   16.6867    4.3110   54.3195 C   0  0  0  0  0  0  0  0  0  0  0  0
   17.7204    3.4181   54.2334 C   0  0  0  0  0  0  0  0  0  0  0  0
   18.9348    3.8363   53.8594 N   0  0  0  0  0  0  0  0  0  0  0  0
  7  8  1  0  0  0
  8  1  1  0  0  0
  1  2  2  0  0  0
  2  3  1  0  0  0
  3  4  2  0  0  0
  4  9  1  0  0  0
  9 11  1  0  0  0
 11 12  2  0  0  0
 12 13  1  0  0  0
 13 14  2  0  0  0
 14 15  1  0  0  0
 15 16  2  0  0  0
  4  5  1  0  0  0
  5  6  2  0  0  0
  6  1  1  0  0  0
 16 11  1  0  0  0
  9 10  1  0  0  0
M  END
> <minimizedAffinity>
9.02087

> <CNNscore>
0.3980328441

> <CNNaffinity>
5.1031994820

> <CNN_VS>
2.0312409401

> <CNNaffinity_variance>
0.2236673385

$$$$
[H]c1c(C(=O)N2C([H])([H])C([H])([H])C([H])(N([H])C(=O)C3([H])C([H])([H])C3([H])[H])C([H])([H])C2([H])[H])c([H])c(C2([H])C([H])([H])C([H])([H])C2([H])[H])c([H])c1C([H])([H])[H]


 26 29  0  0  0  0  0  0  0  0999 V2000
   25.1233    8.2079   53.2565 C   0  0  0  0  0  0  0  0  0  0  0  0
   25.1587    8.8808   52.1219 O   0  0  0  0  0  0  0  0  0  0  0  0
   23.8643    7.6723   53.6213 N   0  0  0  0  0  0  0  0  0  0  0  0
   22.7646    8.0055   52.7148 C   0  0  0  0  0  0  0  0  0  0  0  0
   21.6965    6.9905   52.5952 C   0  0  0  0  0  0  0  0  0  0  0  0
   21.1982    6.5985   53.9793 C   0  0  0  0  0  0  0  0  0  0  0  0
   22.3669    5.9945   54.6829 C   0  0  0  0  0  0  0  0  0  0  0  0
   23.6044    6.8305   54.7417 C   0  0  0  0  0  0  0  0  0  0  0  0
   29.7533    6.4334   53.7045 C   0  0  0  0  0  0  0  0  0  0  0  0
   28.6604    7.3148   54.2160 C   0  0  0  0  0  0  0  0  0  0  0  0
   28.7792    8.0726   55.3388 C   0  0  0  0  0  0  0  0  0  0  0  0
   27.7648    8.8836   55.8034 C   0  0  0  0  0  0  0  0  0  0  0  0
   26.6047    8.9019   55.0780 C   0  0  0  0  0  0  0  0  0  0  0  0
   26.3964    8.1512   53.9057 C   0  0  0  0  0  0  0  0  0  0  0  0
   27.4471    7.3731   53.5130 C   0  0  0  0  0  0  0  0  0  0  0  0
   27.9860    9.6590   57.0168 C   0  0  0  0  0  0  0  0  0  0  0  0
   29.1286    9.1623   57.9049 C   0  0  0  0  0  0  0  0  0  0  0  0
   28.2593    9.5644   59.0932 C   0  0  0  0  0  0  0  0  0  0  0  0
   27.0583    9.3865   58.1738 C   0  0  0  0  0  0  0  0  0  0  0  0
   20.6398    7.7091   54.6923 N   0  0  0  0  0  0  0  0  0  0  0  0
   20.7712    9.0534   54.2338 C   0  0  0  0  0  0  0  0  0  0  0  0
   21.4056    9.2446   53.1609 O   0  0  0  0  0  0  0  0  0  0  0  0
   20.1103    7.5648   55.5852 H   0  0  0  0  0  0  0  0  0  0  0  0
   20.2066   10.2010   54.9503 C   0  0  0  0  0  0  0  0  0  0  0  0
   20.7083   10.5614   56.3198 C   0  0  0  0  0  0  0  0  0  0  0  0
   20.9869   11.4438   55.0977 C   0  0  0  0  0  0  0  0  0  0  0  0
  9 10  1  0  0  0
 10 11  2  0  0  0
 11 12  1  0  0  0
 12 13  2  0  0  0
 13 14  1  0  0  0
 14 15  2  0  0  0
 14  1  1  0  0  0
  1  2  2  0  0  0
  1  3  1  0  0  0
  3  4  1  0  0  0
  4  5  1  0  0  0
  5  6  1  0  0  0
  6  7  1  0  0  0
  7  8  1  0  0  0
  6 20  1  0  0  0
 20 21  1  0  0  0
 21 22  2  0  0  0
 21 24  1  0  0  0
 24 25  1  0  0  0
 25 26  1  0  0  0
 12 16  1  0  0  0
 16 17  1  0  0  0
 17 18  1  0  0  0
 18 19  1  0  0  0
 15 10  1  0  0  0
  8  3  1  0  0  0
 26 24  1  0  0  0
 19 16  1  0  0  0
 20 23  1  0  0  0
M  END
> <minimizedAffinity>
23.41396

> <CNNscore>
0.6314427853

> <CNNaffinity>
5.7237377167

> <CNN_VS>
3.6142129898

> <CNNaffinity_variance>
0.5890486836

$$$$
[H]c1c(C(=O)N2C([H])([H])C([H])([H])C([H])(N([H])C(=O)C3([H])C([H])([H])C3([H])[H])C([H])([H])C2([H])[H])c([H])c(C2([H])C([H])([H])C([H])([H])C2([H])[H])c([H])c1C([H])([H])[H]


 26 29  0  0  0  0  0  0  0  0999 V2000
   25.2402    7.8350   54.3581 C   0  0  0  0  0  0  0  0  0  0  0  0
   25.5093    6.6710   53.7977 O   0  0  0  0  0  0  0  0  0  0  0  0
   23.8812    8.2323   54.3414 N   0  0  0  0  0  0  0  0  0  0  0  0
   22.9788    7.3194   53.6382 C   0  0  0  0  0  0  0  0  0  0  0  0
   21.5956    7.2531   54.1557 C   0  0  0  0  0  0  0  0  0  0  0  0
   21.0170    8.6569   54.2664 C   0  0  0  0  0  0  0  0  0  0  0  0
   21.8716    9.3787   55.2534 C   0  0  0  0  0  0  0  0  0  0  0  0
   23.3389    9.3913   54.9693 C   0  0  0  0  0  0  0  0  0  0  0  0
   29.7512    9.8754   53.8354 C   0  0  0  0  0  0  0  0  0  0  0  0
   28.6234    9.4625   54.7245 C   0  0  0  0  0  0  0  0  0  0  0  0
   28.6437    9.6205   56.0749 C   0  0  0  0  0  0  0  0  0  0  0  0
   27.5976    9.2365   56.8878 C   0  0  0  0  0  0  0  0  0  0  0  0
   26.5096    8.6772   56.2747 C   0  0  0  0  0  0  0  0  0  0  0  0
   26.4042    8.4773   54.8854 C   0  0  0  0  0  0  0  0  0  0  0  0
   27.4814    8.8822   54.1510 C   0  0  0  0  0  0  0  0  0  0  0  0
   27.7117    9.4464   58.3249 C   0  0  0  0  0  0  0  0  0  0  0  0
   28.5840   10.6329   58.7401 C   0  0  0  0  0  0  0  0  0  0  0  0
   29.0370    9.7722   59.9163 C   0  0  0  0  0  0  0  0  0  0  0  0
   28.6824    8.5608   59.0644 C   0  0  0  0  0  0  0  0  0  0  0  0
   20.9564    9.3229   52.9991 N   0  0  0  0  0  0  0  0  0  0  0  0
   21.2681   10.7068   52.8493 C   0  0  0  0  0  0  0  0  0  0  0  0
   21.6060   11.3442   53.8836 O   0  0  0  0  0  0  0  0  0  0  0  0
   20.6771    8.8056   52.1314 H   0  0  0  0  0  0  0  0  0  0  0  0
   21.2113   11.4040   51.5609 C   0  0  0  0  0  0  0  0  0  0  0  0
   21.0290   12.8945   51.5128 C   0  0  0  0  0  0  0  0  0  0  0  0
   22.3486   12.2271   51.1091 C   0  0  0  0  0  0  0  0  0  0  0  0
  9 10  1  0  0  0
 10 11  2  0  0  0
 11 12  1  0  0  0
 12 13  2  0  0  0
 13 14  1  0  0  0
 14 15  2  0  0  0
 14  1  1  0  0  0
  1  2  2  0  0  0
  1  3  1  0  0  0
  3  4  1  0  0  0
  4  5  1  0  0  0
  5  6  1  0  0  0
  6  7  1  0  0  0
  7  8  1  0  0  0
  6 20  1  0  0  0
 20 21  1  0  0  0
 21 22  2  0  0  0
 21 24  1  0  0  0
 24 25  1  0  0  0
 25 26  1  0  0  0
 12 16  1  0  0  0
 16 17  1  0  0  0
 17 18  1  0  0  0
 18 19  1  0  0  0
 15 10  1  0  0  0
  8  3  1  0  0  0
 26 24  1  0  0  0
 19 16  1  0  0  0
 20 23  1  0  0  0
M  END
> <minimizedAffinity>
11.12080

> <CNNscore>
0.6261888146

> <CNNaffinity>
6.0192103386

> <CNN_VS>
3.7691621780

> <CNNaffinity_variance>
0.2849969566

$$$$
[H]c1c(C(=O)N2C([H])([H])C([H])([H])C([H])(N([H])C(=O)C3([H])C([H])([H])C3([H])[H])C([H])([H])C2([H])[H])c([H])c(C2([H])C([H])([H])C([H])([H])C2([H])[H])c([H])c1C([H])([H])[H]


 26 29  0  0  0  0  0  0  0  0999 V2000
   24.7134    9.3354   55.3258 C   0  0  0  0  0  0  0  0  0  0  0  0
   24.2709   10.4206   55.9323 O   0  0  0  0  0  0  0  0  0  0  0  0
   23.7337    8.5419   54.6809 N   0  0  0  0  0  0  0  0  0  0  0  0
   22.3559    9.0084   54.8425 C   0  0  0  0  0  0  0  0  0  0  0  0
   21.4428    8.7276   53.7143 C   0  0  0  0  0  0  0  0  0  0  0  0
   21.5079    7.2505   53.3516 C   0  0  0  0  0  0  0  0  0  0  0  0
   22.9117    6.9938   52.9168 C   0  0  0  0  0  0  0  0  0  0  0  0
   23.9827    7.3881   53.8819 C   0  0  0  0  0  0  0  0  0  0  0  0
   29.0605    7.4357   53.8160 C   0  0  0  0  0  0  0  0  0  0  0  0
   28.2911    8.2660   54.7914 C   0  0  0  0  0  0  0  0  0  0  0  0
   28.8629    8.8755   55.8641 C   0  0  0  0  0  0  0  0  0  0  0  0
   28.1445    9.6404   56.7594 C   0  0  0  0  0  0  0  0  0  0  0  0
   26.8023    9.7699   56.5263 C   0  0  0  0  0  0  0  0  0  0  0  0
   26.1298    9.1752   55.4423 C   0  0  0  0  0  0  0  0  0  0  0  0
   26.9104    8.4334   54.6032 C   0  0  0  0  0  0  0  0  0  0  0  0
   28.8457   10.2542   57.8791 C   0  0  0  0  0  0  0  0  0  0  0  0
   28.6417    9.5640   59.2294 C   0  0  0  0  0  0  0  0  0  0  0  0
   28.6634   10.9606   59.8445 C   0  0  0  0  0  0  0  0  0  0  0  0
   28.2115   11.4801   58.4862 C   0  0  0  0  0  0  0  0  0  0  0  0
   21.1035    6.4048   54.4355 N   0  0  0  0  0  0  0  0  0  0  0  0
   22.0423    5.8079   55.3282 C   0  0  0  0  0  0  0  0  0  0  0  0
   23.2652    6.0483   55.1354 O   0  0  0  0  0  0  0  0  0  0  0  0
   20.0908    6.1965   54.6074 H   0  0  0  0  0  0  0  0  0  0  0  0
   21.6464    4.9405   56.4418 C   0  0  0  0  0  0  0  0  0  0  0  0
   22.6867    4.3569   57.3552 C   0  0  0  0  0  0  0  0  0  0  0  0
   21.7069    5.4362   57.8295 C   0  0  0  0  0  0  0  0  0  0  0  0
  9 10  1  0  0  0
 10 11  2  0  0  0
 11 12  1  0  0  0
 12 13  2  0  0  0
 13 14  1  0  0  0
 14 15  2  0  0  0
 14  1  1  0  0  0
  1  2  2  0  0  0
  1  3  1  0  0  0
  3  4  1  0  0  0
  4  5  1  0  0  0
  5  6  1  0  0  0
  6  7  1  0  0  0
  7  8  1  0  0  0
  6 20  1  0  0  0
 20 21  1  0  0  0
 21 22  2  0  0  0
 21 24  1  0  0  0
 24 25  1  0  0  0
 25 26  1  0  0  0
 12 16  1  0  0  0
 16 17  1  0  0  0
 17 18  1  0  0  0
 18 19  1  0  0  0
 15 10  1  0  0  0
  8  3  1  0  0  0
 26 24  1  0  0  0
 19 16  1  0  0  0
 20 23  1  0  0  0
M  END
> <minimizedAffinity>
19.31421

> <CNNscore>
0.5859805346

> <CNNaffinity>
5.7334342003

> <CNN_VS>
3.3596808910

> <CNNaffinity_variance>
0.5228751898

$$$$
[H]c1c(C(=O)N2C([H])([H])C([H])([H])C([H])(N([H])C(=O)C3([H])C([H])([H])C3([H])[H])C([H])([H])C2([H])[H])c([H])c(C2([H])C([H])([H])C([H])([H])C2([H])[H])c([H])c1C([H])([H])[H]


 26 29  0  0  0  0  0  0  0  0999 V2000
   24.1369    9.0320   55.3248 C   0  0  0  0  0  0  0  0  0  0  0  0
   23.4666    9.7856   56.1759 O   0  0  0  0  0  0  0  0  0  0  0  0
   23.3644    8.3731   54.3378 N   0  0  0  0  0  0  0  0  0  0  0  0
   21.9186    8.5706   54.4505 C   0  0  0  0  0  0  0  0  0  0  0  0
   21.1645    8.5595   53.1791 C   0  0  0  0  0  0  0  0  0  0  0  0
   21.5107    7.3086   52.3834 C   0  0  0  0  0  0  0  0  0  0  0  0
   22.9691    7.4009   52.0833 C   0  0  0  0  0  0  0  0  0  0  0  0
   23.8725    7.5933   53.2583 C   0  0  0  0  0  0  0  0  0  0  0  0
   28.8424    8.1338   53.9693 C   0  0  0  0  0  0  0  0  0  0  0  0
   27.8702    8.5969   55.0053 C   0  0  0  0  0  0  0  0  0  0  0  0
   28.2434    8.9984   56.2497 C   0  0  0  0  0  0  0  0  0  0  0  0
   27.3387    9.4247   57.1997 C   0  0  0  0  0  0  0  0  0  0  0  0
   26.0186    9.4313   56.8393 C   0  0  0  0  0  0  0  0  0  0  0  0
   25.5451    9.0337   55.5748 C   0  0  0  0  0  0  0  0  0  0  0  0
   26.5024    8.6241   54.6920 C   0  0  0  0  0  0  0  0  0  0  0  0
   27.8343    9.8358   58.5065 C   0  0  0  0  0  0  0  0  0  0  0  0
   28.8356   10.9925   58.4862 C   0  0  0  0  0  0  0  0  0  0  0  0
   29.5431   10.2812   59.6363 C   0  0  0  0  0  0  0  0  0  0  0  0
   28.9255    8.9909   59.1141 C   0  0  0  0  0  0  0  0  0  0  0  0
   21.1672    6.1056   53.0823 N   0  0  0  0  0  0  0  0  0  0  0  0
   19.8153    5.7432   53.3575 C   0  0  0  0  0  0  0  0  0  0  0  0
   18.9092    6.5257   52.9614 O   0  0  0  0  0  0  0  0  0  0  0  0
   21.9099    5.4462   53.4171 H   0  0  0  0  0  0  0  0  0  0  0  0
   19.4459    4.5170   54.0709 C   0  0  0  0  0  0  0  0  0  0  0  0
   18.0251    4.0288   54.0543 C   0  0  0  0  0  0  0  0  0  0  0  0
   19.1461    3.2819   53.3227 C   0  0  0  0  0  0  0  0  0  0  0  0
  9 10  1  0  0  0
 10 11  2  0  0  0
 11 12  1  0  0  0
 12 13  2  0  0  0
 13 14  1  0  0  0
 14 15  2  0  0  0
 14  1  1  0  0  0
  1  2  2  0  0  0
  1  3  1  0  0  0
  3  4  1  0  0  0
  4  5  1  0  0  0
  5  6  1  0  0  0
  6  7  1  0  0  0
  7  8  1  0  0  0
  6 20  1  0  0  0
 20 21  1  0  0  0
 21 22  2  0  0  0
 21 24  1  0  0  0
 24 25  1  0  0  0
 25 26  1  0  0  0
 12 16  1  0  0  0
 16 17  1  0  0  0
 17 18  1  0  0  0
 18 19  1  0  0  0
 15 10  1  0  0  0
  8  3  1  0  0  0
 26 24  1  0  0  0
 19 16  1  0  0  0
 20 23  1  0  0  0
M  END
> <minimizedAffinity>
13.25891

> <CNNscore>
0.5653933287

> <CNNaffinity>
6.0540065765

> <CNN_VS>
3.4228949547

> <CNNaffinity_variance>
0.3345055878

$$$$
[H]c1c(C(=O)N2C([H])([H])C([H])([H])C([H])(N([H])C(=O)C3([H])C([H])([H])C3([H])[H])C([H])([H])C2([H])[H])c([H])c(C2([H])C([H])([H])C([H])([H])C2([H])[H])c([H])c1C([H])([H])[H]


 26 29  0  0  0  0  0  0  0  0999 V2000
   24.8751    6.8546   53.8602 C   0  0  0  0  0  0  0  0  0  0  0  0
   25.2974    5.7181   53.3394 O   0  0  0  0  0  0  0  0  0  0  0  0
   25.8698    7.6788   54.4404 N   0  0  0  0  0  0  0  0  0  0  0  0
   27.2195    7.1129   54.4391 C   0  0  0  0  0  0  0  0  0  0  0  0
   28.3275    8.0862   54.3367 C   0  0  0  0  0  0  0  0  0  0  0  0
   28.1626    9.1704   55.3927 C   0  0  0  0  0  0  0  0  0  0  0  0
   26.8780    9.8607   55.0784 C   0  0  0  0  0  0  0  0  0  0  0  0
   25.6702    8.9870   54.9698 C   0  0  0  0  0  0  0  0  0  0  0  0
   20.2409    5.0786   53.4651 C   0  0  0  0  0  0  0  0  0  0  0  0
   21.1693    6.2490   53.5006 C   0  0  0  0  0  0  0  0  0  0  0  0
   20.7507    7.5356   53.3649 C   0  0  0  0  0  0  0  0  0  0  0  0
   21.6152    8.6099   53.3992 C   0  0  0  0  0  0  0  0  0  0  0  0
   22.9427    8.3314   53.5796 C   0  0  0  0  0  0  0  0  0  0  0  0
   23.4620    7.0318   53.7292 C   0  0  0  0  0  0  0  0  0  0  0  0
   22.5427    6.0237   53.6823 C   0  0  0  0  0  0  0  0  0  0  0  0
   21.0723    9.9529   53.2446 C   0  0  0  0  0  0  0  0  0  0  0  0
   21.5233   10.6940   51.9842 C   0  0  0  0  0  0  0  0  0  0  0  0
   21.5310   11.9581   52.8395 C   0  0  0  0  0  0  0  0  0  0  0  0
   21.7338   11.0476   54.0432 C   0  0  0  0  0  0  0  0  0  0  0  0
   28.1931    8.6429   56.7247 N   0  0  0  0  0  0  0  0  0  0  0  0
   28.2695    9.4820   57.8757 C   0  0  0  0  0  0  0  0  0  0  0  0
   28.3108   10.7283   57.6875 O   0  0  0  0  0  0  0  0  0  0  0  0
   28.1595    7.6094   56.8958 H   0  0  0  0  0  0  0  0  0  0  0  0
   28.3016    8.9596   59.2450 C   0  0  0  0  0  0  0  0  0  0  0  0
   29.3917    8.0181   59.6720 C   0  0  0  0  0  0  0  0  0  0  0  0
   29.3057    9.4522   60.2064 C   0  0  0  0  0  0  0  0  0  0  0  0
  9 10  1  0  0  0
 10 11  2  0  0  0
 11 12  1  0  0  0
 12 13  2  0  0  0
 13 14  1  0  0  0
 14 15  2  0  0  0
 14  1  1  0  0  0
  1  2  2  0  0  0
  1  3  1  0  0  0
  3  4  1  0  0  0
  4  5  1  0  0  0
  5  6  1  0  0  0
  6  7  1  0  0  0
  7  8  1  0  0  0
  6 20  1  0  0  0
 20 21  1  0  0  0
 21 22  2  0  0  0
 21 24  1  0  0  0
 24 25  1  0  0  0
 25 26  1  0  0  0
 12 16  1  0  0  0
 16 17  1  0  0  0
 17 18  1  0  0  0
 18 19  1  0  0  0
 15 10  1  0  0  0
  8  3  1  0  0  0
 26 24  1  0  0  0
 19 16  1  0  0  0
 20 23  1  0  0  0
M  END
> <minimizedAffinity>
8.96028

> <CNNscore>
0.5476683378

> <CNNaffinity>
5.9316082001

> <CNN_VS>
3.2485539913

> <CNNaffinity_variance>
0.3560248911

$$$$
[H]c1c(C(=O)N2C([H])([H])C([H])([H])C([H])(N([H])C(=O)C3([H])C([H])([H])C3([H])[H])C([H])([H])C2([H])[H])c([H])c(C2([H])C([H])([H])C([H])([H])C2([H])[H])c([H])c1C([H])([H])[H]


 26 29  0  0  0  0  0  0  0  0999 V2000
   24.8070    7.6468   53.5710 C   0  0  0  0  0  0  0  0  0  0  0  0
   24.7002    6.5048   52.9184 O   0  0  0  0  0  0  0  0  0  0  0  0
   23.6056    8.1689   54.1087 N   0  0  0  0  0  0  0  0  0  0  0  0
   22.4024    7.3952   53.7995 C   0  0  0  0  0  0  0  0  0  0  0  0
   21.3369    7.4218   54.8240 C   0  0  0  0  0  0  0  0  0  0  0  0
   21.0114    8.8621   55.1944 C   0  0  0  0  0  0  0  0  0  0  0  0
   22.2613    9.4307   55.7775 C   0  0  0  0  0  0  0  0  0  0  0  0
   23.4893    9.3266   54.9320 C   0  0  0  0  0  0  0  0  0  0  0  0
   28.9530    8.9317   56.0095 C   0  0  0  0  0  0  0  0  0  0  0  0
   28.2025    8.8194   54.7222 C   0  0  0  0  0  0  0  0  0  0  0  0
   28.7134    9.2146   53.5256 C   0  0  0  0  0  0  0  0  0  0  0  0
   28.0132    9.1068   52.3422 C   0  0  0  0  0  0  0  0  0  0  0  0
   26.7546    8.5745   52.4132 C   0  0  0  0  0  0  0  0  0  0  0  0
   26.1491    8.1397   53.6072 C   0  0  0  0  0  0  0  0  0  0  0  0
   26.9062    8.2814   54.7343 C   0  0  0  0  0  0  0  0  0  0  0  0
   28.6448    9.5577   51.1093 C   0  0  0  0  0  0  0  0  0  0  0  0
   28.5509   11.0618   50.8445 C   0  0  0  0  0  0  0  0  0  0  0  0
   28.4004   10.7010   49.3691 C   0  0  0  0  0  0  0  0  0  0  0  0
   27.8660    9.3531   49.8345 C   0  0  0  0  0  0  0  0  0  0  0  0
   20.5324    9.6178   54.0751 N   0  0  0  0  0  0  0  0  0  0  0  0
   21.2366   10.7458   53.5589 C   0  0  0  0  0  0  0  0  0  0  0  0
   22.3161   11.0688   54.1252 O   0  0  0  0  0  0  0  0  0  0  0  0
   19.6369    9.3606   53.5949 H   0  0  0  0  0  0  0  0  0  0  0  0
   20.7613   11.5300   52.4152 C   0  0  0  0  0  0  0  0  0  0  0  0
   21.6660   12.5302   51.7532 C   0  0  0  0  0  0  0  0  0  0  0  0
   21.2465   11.2317   51.0548 C   0  0  0  0  0  0  0  0  0  0  0  0
  9 10  1  0  0  0
 10 11  2  0  0  0
 11 12  1  0  0  0
 12 13  2  0  0  0
 13 14  1  0  0  0
 14 15  2  0  0  0
 14  1  1  0  0  0
  1  2  2  0  0  0
  1  3  1  0  0  0
  3  4  1  0  0  0
  4  5  1  0  0  0
  5  6  1  0  0  0
  6  7  1  0  0  0
  7  8  1  0  0  0
  6 20  1  0  0  0
 20 21  1  0  0  0
 21 22  2  0  0  0
 21 24  1  0  0  0
 24 25  1  0  0  0
 25 26  1  0  0  0
 12 16  1  0  0  0
 16 17  1  0  0  0
 17 18  1  0  0  0
 18 19  1  0  0  0
 15 10  1  0  0  0
  8  3  1  0  0  0
 26 24  1  0  0  0
 19 16  1  0  0  0
 20 23  1  0  0  0
M  END
> <minimizedAffinity>
23.00175

> <CNNscore>
0.5410495996

> <CNNaffinity>
5.6122732162

> <CNN_VS>
3.0365180969

> <CNNaffinity_variance>
0.3972671628

$$$$
[H]c1c(C(=O)N2C([H])([H])C([H])([H])C([H])(N([H])C(=O)C3([H])C([H])([H])C3([H])[H])C([H])([H])C2([H])[H])c([H])c(C2([H])C([H])([H])C([H])([H])C2([H])[H])c([H])c1C([H])([H])[H]


 26 29  0  0  0  0  0  0  0  0999 V2000
   25.2413    8.2947   54.3895 C   0  0  0  0  0  0  0  0  0  0  0  0
   25.6376    7.4403   53.4653 O   0  0  0  0  0  0  0  0  0  0  0  0
   26.2500    8.7875   55.2525 N   0  0  0  0  0  0  0  0  0  0  0  0
   27.5811    8.2192   55.0354 C   0  0  0  0  0  0  0  0  0  0  0  0
   28.7208    9.1135   55.3305 C   0  0  0  0  0  0  0  0  0  0  0  0
   28.5699    9.6998   56.7273 C   0  0  0  0  0  0  0  0  0  0  0  0
   27.3137   10.5042   56.7037 C   0  0  0  0  0  0  0  0  0  0  0  0
   26.0814    9.7882   56.2534 C   0  0  0  0  0  0  0  0  0  0  0  0
   21.0853   10.3790   56.1697 C   0  0  0  0  0  0  0  0  0  0  0  0
   21.7543    9.5167   55.1492 C   0  0  0  0  0  0  0  0  0  0  0  0
   21.0824    8.8969   54.1424 C   0  0  0  0  0  0  0  0  0  0  0  0
   21.7086    8.1027   53.2045 C   0  0  0  0  0  0  0  0  0  0  0  0
   23.0639    7.9555   53.3228 C   0  0  0  0  0  0  0  0  0  0  0  0
   23.8371    8.5602   54.3315 C   0  0  0  0  0  0  0  0  0  0  0  0
   23.1433    9.3288   55.2212 C   0  0  0  0  0  0  0  0  0  0  0  0
   20.9037    7.4799   52.1622 C   0  0  0  0  0  0  0  0  0  0  0  0
   21.1546    8.0055   50.7473 C   0  0  0  0  0  0  0  0  0  0  0  0
   19.6572    7.8269   50.5126 C   0  0  0  0  0  0  0  0  0  0  0  0
   19.4843    7.9682   52.0190 C   0  0  0  0  0  0  0  0  0  0  0  0
   28.5584    8.6900   57.7440 N   0  0  0  0  0  0  0  0  0  0  0  0
   28.7290    8.9978   59.1263 C   0  0  0  0  0  0  0  0  0  0  0  0
   28.8941   10.2084   59.4386 O   0  0  0  0  0  0  0  0  0  0  0  0
   28.4222    7.6802   57.4988 H   0  0  0  0  0  0  0  0  0  0  0  0
   28.7201    7.9778   60.1793 C   0  0  0  0  0  0  0  0  0  0  0  0
   28.3023    6.5689   59.8666 C   0  0  0  0  0  0  0  0  0  0  0  0
   29.7538    6.9263   60.2060 C   0  0  0  0  0  0  0  0  0  0  0  0
  9 10  1  0  0  0
 10 11  2  0  0  0
 11 12  1  0  0  0
 12 13  2  0  0  0
 13 14  1  0  0  0
 14 15  2  0  0  0
 14  1  1  0  0  0
  1  2  2  0  0  0
  1  3  1  0  0  0
  3  4  1  0  0  0
  4  5  1  0  0  0
  5  6  1  0  0  0
  6  7  1  0  0  0
  7  8  1  0  0  0
  6 20  1  0  0  0
 20 21  1  0  0  0
 21 22  2  0  0  0
 21 24  1  0  0  0
 24 25  1  0  0  0
 25 26  1  0  0  0
 12 16  1  0  0  0
 16 17  1  0  0  0
 17 18  1  0  0  0
 18 19  1  0  0  0
 15 10  1  0  0  0
  8  3  1  0  0  0
 26 24  1  0  0  0
 19 16  1  0  0  0
 20 23  1  0  0  0
M  END
> <minimizedAffinity>
15.52526

> <CNNscore>
0.5300245881

> <CNNaffinity>
5.8156824112

> <CNN_VS>
3.0824546814

> <CNNaffinity_variance>
0.5077689886

$$$$
[H]c1c(C(=O)N2C([H])([H])C([H])([H])C([H])(N([H])C(=O)C3([H])C([H])([H])C3([H])[H])C([H])([H])C2([H])[H])c([H])c(C2([H])C([H])([H])C([H])([H])C2([H])[H])c([H])c1C([H])([H])[H]


 26 29  0  0  0  0  0  0  0  0999 V2000
   24.9276    8.3444   53.0060 C   0  0  0  0  0  0  0  0  0  0  0  0
   25.0746    9.0876   51.9255 O   0  0  0  0  0  0  0  0  0  0  0  0
   23.6223    7.8511   53.2469 N   0  0  0  0  0  0  0  0  0  0  0  0
   22.6064    8.2989   52.2933 C   0  0  0  0  0  0  0  0  0  0  0  0
   21.5035    7.3499   52.0318 C   0  0  0  0  0  0  0  0  0  0  0  0
   20.8906    6.8939   53.3487 C   0  0  0  0  0  0  0  0  0  0  0  0
   21.9770    6.1859   54.0863 C   0  0  0  0  0  0  0  0  0  0  0  0
   23.2447    6.9519   54.2863 C   0  0  0  0  0  0  0  0  0  0  0  0
   28.0292    9.5418   56.7117 C   0  0  0  0  0  0  0  0  0  0  0  0
   27.7349    8.7228   55.4970 C   0  0  0  0  0  0  0  0  0  0  0  0
   28.6076    7.8169   54.9805 C   0  0  0  0  0  0  0  0  0  0  0  0
   28.3271    7.0650   53.8587 C   0  0  0  0  0  0  0  0  0  0  0  0
   27.1095    7.2651   53.2672 C   0  0  0  0  0  0  0  0  0  0  0  0
   26.1474    8.1801   53.7344 C   0  0  0  0  0  0  0  0  0  0  0  0
   26.5013    8.8863   54.8478 C   0  0  0  0  0  0  0  0  0  0  0  0
   29.3262    6.1190   53.3799 C   0  0  0  0  0  0  0  0  0  0  0  0
   29.5858    6.1569   51.8724 C   0  0  0  0  0  0  0  0  0  0  0  0
   29.7537    4.6422   51.9546 C   0  0  0  0  0  0  0  0  0  0  0  0
   28.8760    4.6915   53.1982 C   0  0  0  0  0  0  0  0  0  0  0  0
   20.3352    7.9823   54.0973 N   0  0  0  0  0  0  0  0  0  0  0  0
   21.0534    8.6328   55.1440 C   0  0  0  0  0  0  0  0  0  0  0  0
   22.2159    8.2166   55.4002 O   0  0  0  0  0  0  0  0  0  0  0  0
   19.3704    8.3384   53.8951 H   0  0  0  0  0  0  0  0  0  0  0  0
   20.5009    9.7473   55.9197 C   0  0  0  0  0  0  0  0  0  0  0  0
   21.3681   10.9169   56.2899 C   0  0  0  0  0  0  0  0  0  0  0  0
   20.2299   11.0438   55.2710 C   0  0  0  0  0  0  0  0  0  0  0  0
  9 10  1  0  0  0
 10 11  2  0  0  0
 11 12  1  0  0  0
 12 13  2  0  0  0
 13 14  1  0  0  0
 14 15  2  0  0  0
 14  1  1  0  0  0
  1  2  2  0  0  0
  1  3  1  0  0  0
  3  4  1  0  0  0
  4  5  1  0  0  0
  5  6  1  0  0  0
  6  7  1  0  0  0
  7  8  1  0  0  0
  6 20  1  0  0  0
 20 21  1  0  0  0
 21 22  2  0  0  0
 21 24  1  0  0  0
 24 25  1  0  0  0
 25 26  1  0  0  0
 12 16  1  0  0  0
 16 17  1  0  0  0
 17 18  1  0  0  0
 18 19  1  0  0  0
 15 10  1  0  0  0
  8  3  1  0  0  0
 26 24  1  0  0  0
 19 16  1  0  0  0
 20 23  1  0  0  0
M  END
> <minimizedAffinity>
35.07829

> <CNNscore>
0.5297479630

> <CNNaffinity>
5.6108989716

> <CNN_VS>
2.9723622799

> <CNNaffinity_variance>
0.6430717111

$$$$
[H]c1c(C(=O)N2C([H])([H])C([H])([H])C([H])(N([H])C(=O)C3([H])C([H])([H])C3([H])[H])C([H])([H])C2([H])[H])c([H])c(C2([H])C([H])([H])C([H])([H])C2([H])[H])c([H])c1C([H])([H])[H]


 26 29  0  0  0  0  0  0  0  0999 V2000
   25.0544    7.2323   53.8377 C   0  0  0  0  0  0  0  0  0  0  0  0
   25.1906    5.9799   53.4447 O   0  0  0  0  0  0  0  0  0  0  0  0
   26.2124    7.8427   54.3775 N   0  0  0  0  0  0  0  0  0  0  0  0
   27.3799    6.9666   54.4852 C   0  0  0  0  0  0  0  0  0  0  0  0
   28.6959    7.6235   54.3366 C   0  0  0  0  0  0  0  0  0  0  0  0
   28.7873    8.8169   55.2775 C   0  0  0  0  0  0  0  0  0  0  0  0
   27.7189    9.7648   54.8468 C   0  0  0  0  0  0  0  0  0  0  0  0
   26.3344    9.2069   54.7719 C   0  0  0  0  0  0  0  0  0  0  0  0
   20.6273    7.1572   51.5614 C   0  0  0  0  0  0  0  0  0  0  0  0
   21.5531    7.7895   52.5492 C   0  0  0  0  0  0  0  0  0  0  0  0
   21.2283    8.8941   53.2728 C   0  0  0  0  0  0  0  0  0  0  0  0
   22.0895    9.4709   54.1828 C   0  0  0  0  0  0  0  0  0  0  0  0
   23.3135    8.8793   54.3385 C   0  0  0  0  0  0  0  0  0  0  0  0
   23.7314    7.7355   53.6325 C   0  0  0  0  0  0  0  0  0  0  0  0
   22.8228    7.2261   52.7502 C   0  0  0  0  0  0  0  0  0  0  0  0
   21.6516   10.6541   54.9112 C   0  0  0  0  0  0  0  0  0  0  0  0
   20.4378   10.4450   55.8189 C   0  0  0  0  0  0  0  0  0  0  0  0
   20.0078   11.8530   55.4166 C   0  0  0  0  0  0  0  0  0  0  0  0
   20.8218   11.6532   54.1452 C   0  0  0  0  0  0  0  0  0  0  0  0
   28.6643    8.4366   56.6537 N   0  0  0  0  0  0  0  0  0  0  0  0
   28.3878    9.3830   57.6845 C   0  0  0  0  0  0  0  0  0  0  0  0
   28.2512   10.5903   57.3469 O   0  0  0  0  0  0  0  0  0  0  0  0
   28.7754    7.4370   56.9484 H   0  0  0  0  0  0  0  0  0  0  0  0
   28.2588    9.0117   59.0968 C   0  0  0  0  0  0  0  0  0  0  0  0
   29.3671    8.2718   59.7906 C   0  0  0  0  0  0  0  0  0  0  0  0
   29.0310    9.7287   60.1286 C   0  0  0  0  0  0  0  0  0  0  0  0
  9 10  1  0  0  0
 10 11  2  0  0  0
 11 12  1  0  0  0
 12 13  2  0  0  0
 13 14  1  0  0  0
 14 15  2  0  0  0
 14  1  1  0  0  0
  1  2  2  0  0  0
  1  3  1  0  0  0
  3  4  1  0  0  0
  4  5  1  0  0  0
  5  6  1  0  0  0
  6  7  1  0  0  0
  7  8  1  0  0  0
  6 20  1  0  0  0
 20 21  1  0  0  0
 21 22  2  0  0  0
 21 24  1  0  0  0
 24 25  1  0  0  0
 25 26  1  0  0  0
 12 16  1  0  0  0
 16 17  1  0  0  0
 17 18  1  0  0  0
 18 19  1  0  0  0
 15 10  1  0  0  0
  8  3  1  0  0  0
 26 24  1  0  0  0
 19 16  1  0  0  0
 20 23  1  0  0  0
M  END
> <minimizedAffinity>
18.08139

> <CNNscore>
0.5238386989

> <CNNaffinity>
5.9056687355

> <CNN_VS>
3.0936179161

> <CNNaffinity_variance>
0.4311295450

$$$$
[H]c1c([H])c([H])c(N2C([H])([H])[C@@]([H])(N(C([H])([H])[H])C([H])([H])[H])[C@]2([H])C([H])([H])[H])c(N([H])C(=O)C2([H])C([H])([H])C([H])([H])C2([H])[H])c1[H]


 22 24  0  0  0  0  0  0  0  0999 V2000
   25.6499    8.1184   54.1174 C   0  0  0  0  0  0  0  0  0  0  0  0
   26.8941    7.5691   53.8954 C   0  0  0  0  0  0  0  0  0  0  0  0
   28.0182    7.9213   54.6343 C   0  0  0  0  0  0  0  0  0  0  0  0
   27.9231    8.8464   55.6281 C   0  0  0  0  0  0  0  0  0  0  0  0
   26.7026    9.4220   55.8832 C   0  0  0  0  0  0  0  0  0  0  0  0
   25.5629    9.0709   55.1396 C   0  0  0  0  0  0  0  0  0  0  0  0
   22.4848    7.3129   53.1762 C   0  0  0  0  0  0  0  0  0  0  0  0
   23.7435    6.4669   53.2864 C   0  0  0  0  0  0  0  0  0  0  0  0
   23.6045    5.5439   54.4522 C   0  0  0  0  0  0  0  0  0  0  0  0
   24.4920    7.6913   53.4185 N   0  0  0  0  0  0  0  0  0  0  0  0
   23.4694    8.2729   52.5436 C   0  0  0  0  0  0  0  0  0  0  0  0
   20.3574    6.2405   52.7143 C   0  0  0  0  0  0  0  0  0  0  0  0
   21.5064    6.9233   52.2261 N   0  0  0  0  0  0  0  0  0  0  0  0
   21.1214    8.0971   51.4692 C   0  0  0  0  0  0  0  0  0  0  0  0
   24.3581    9.7480   55.3278 N   0  0  0  0  0  0  0  0  0  0  0  0
   23.1539    9.1581   55.7297 C   0  0  0  0  0  0  0  0  0  0  0  0
   23.0056    7.9382   55.9605 O   0  0  0  0  0  0  0  0  0  0  0  0
   24.3275   10.7803   55.2114 H   0  0  0  0  0  0  0  0  0  0  0  0
   21.9055    9.9920   55.9184 C   0  0  0  0  0  0  0  0  0  0  0  0
   20.6957    9.3809   55.2425 C   0  0  0  0  0  0  0  0  0  0  0  0
   20.7887   10.3665   54.0915 C   0  0  0  0  0  0  0  0  0  0  0  0
   21.8312   11.1143   54.9113 C   0  0  0  0  0  0  0  0  0  0  0  0
 12 13  1  0  0  0
 13 14  1  0  0  0
 13  7  1  0  0  0
  7  8  1  0  0  0
  8  9  1  0  0  0
  8 10  1  0  0  0
 10 11  1  0  0  0
 10  1  1  0  0  0
  1  2  2  0  0  0
  2  3  1  0  0  0
  3  4  2  0  0  0
  4  5  1  0  0  0
  5  6  2  0  0  0
  6 15  1  0  0  0
 15 16  1  0  0  0
 16 17  2  0  0  0
 16 19  1  0  0  0
 19 20  1  0  0  0
 20 21  1  0  0  0
 21 22  1  0  0  0
 11  7  1  0  0  0
  6  1  1  0  0  0
 22 19  1  0  0  0
 15 18  1  0  0  0
M  END
> <minimizedAffinity>
7.17278

> <CNNscore>
0.6201367378

> <CNNaffinity>
5.7910747528

> <CNN_VS>
3.5912582874

> <CNNaffinity_variance>
0.3662057519

$$$$
[H]c1c([H])c([H])c(N2C([H])([H])[C@@]([H])(N(C([H])([H])[H])C([H])([H])[H])[C@]2([H])C([H])([H])[H])c(N([H])C(=O)C2([H])C([H])([H])C([H])([H])C2([H])[H])c1[H]


 22 24  0  0  0  0  0  0  0  0999 V2000
   25.8947    8.5130   54.2826 C   0  0  0  0  0  0  0  0  0  0  0  0
   26.0902    8.4522   55.6454 C   0  0  0  0  0  0  0  0  0  0  0  0
   27.3274    8.6700   56.2416 C   0  0  0  0  0  0  0  0  0  0  0  0
   28.4158    8.9577   55.4767 C   0  0  0  0  0  0  0  0  0  0  0  0
   28.2682    9.0264   54.1130 C   0  0  0  0  0  0  0  0  0  0  0  0
   27.0207    8.8066   53.5043 C   0  0  0  0  0  0  0  0  0  0  0  0
   22.5692    8.1522   53.6797 C   0  0  0  0  0  0  0  0  0  0  0  0
   23.7576    7.2862   53.2925 C   0  0  0  0  0  0  0  0  0  0  0  0
   23.7221    6.0292   54.0980 C   0  0  0  0  0  0  0  0  0  0  0  0
   24.6140    8.3754   53.6890 N   0  0  0  0  0  0  0  0  0  0  0  0
   23.5213    9.2432   53.2389 C   0  0  0  0  0  0  0  0  0  0  0  0
   21.6253    7.7181   51.4866 C   0  0  0  0  0  0  0  0  0  0  0  0
   21.4303    8.1297   52.8347 N   0  0  0  0  0  0  0  0  0  0  0  0
   20.4111    7.3228   53.4742 C   0  0  0  0  0  0  0  0  0  0  0  0
   26.9088    8.7609   52.1147 N   0  0  0  0  0  0  0  0  0  0  0  0
   27.6887    9.4989   51.2166 C   0  0  0  0  0  0  0  0  0  0  0  0
   28.5823   10.3063   51.5526 O   0  0  0  0  0  0  0  0  0  0  0  0
   26.2324    8.1044   51.6770 H   0  0  0  0  0  0  0  0  0  0  0  0
   27.4928    9.3609   49.7225 C   0  0  0  0  0  0  0  0  0  0  0  0
   28.7178    8.8017   49.0292 C   0  0  0  0  0  0  0  0  0  0  0  0
   29.1112   10.1780   48.5234 C   0  0  0  0  0  0  0  0  0  0  0  0
   27.7520   10.6646   49.0068 C   0  0  0  0  0  0  0  0  0  0  0  0
 12 13  1  0  0  0
 13 14  1  0  0  0
 13  7  1  0  0  0
  7  8  1  0  0  0
  8  9  1  0  0  0
  8 10  1  0  0  0
 10 11  1  0  0  0
 10  1  1  0  0  0
  1  2  2  0  0  0
  2  3  1  0  0  0
  3  4  2  0  0  0
  4  5  1  0  0  0
  5  6  2  0  0  0
  6 15  1  0  0  0
 15 16  1  0  0  0
 16 17  2  0  0  0
 16 19  1  0  0  0
 19 20  1  0  0  0
 20 21  1  0  0  0
 21 22  1  0  0  0
 11  7  1  0  0  0
  6  1  1  0  0  0
 22 19  1  0  0  0
 15 18  1  0  0  0
M  END
> <minimizedAffinity>
16.43662

> <CNNscore>
0.5950735807

> <CNNaffinity>
5.4456954002

> <CNN_VS>
3.2405893803

> <CNNaffinity_variance>
0.2165799439

$$$$
[H]c1c([H])c([H])c(N2C([H])([H])[C@@]([H])(N(C([H])([H])[H])C([H])([H])[H])[C@]2([H])C([H])([H])[H])c(N([H])C(=O)C2([H])C([H])([H])C([H])([H])C2([H])[H])c1[H]


 22 24  0  0  0  0  0  0  0  0999 V2000
   25.6257    8.9623   55.2332 C   0  0  0  0  0  0  0  0  0  0  0  0
   26.5982    9.5123   56.0401 C   0  0  0  0  0  0  0  0  0  0  0  0
   27.9544    9.2564   55.8701 C   0  0  0  0  0  0  0  0  0  0  0  0
   28.3767    8.4310   54.8738 C   0  0  0  0  0  0  0  0  0  0  0  0
   27.4419    7.8585   54.0464 C   0  0  0  0  0  0  0  0  0  0  0  0
   26.0698    8.1124   54.2133 C   0  0  0  0  0  0  0  0  0  0  0  0
   22.2269    8.9570   55.2515 C   0  0  0  0  0  0  0  0  0  0  0  0
   23.2236    9.8244   54.4990 C   0  0  0  0  0  0  0  0  0  0  0  0
   23.1911    9.4536   53.0527 C   0  0  0  0  0  0  0  0  0  0  0  0
   24.2529    9.2958   55.3582 N   0  0  0  0  0  0  0  0  0  0  0  0
   23.2016    9.2259   56.3779 C   0  0  0  0  0  0  0  0  0  0  0  0
   20.7706   10.8982   55.2706 C   0  0  0  0  0  0  0  0  0  0  0  0
   20.9611    9.5180   55.5594 N   0  0  0  0  0  0  0  0  0  0  0  0
   19.9434    8.7144   54.9131 C   0  0  0  0  0  0  0  0  0  0  0  0
   25.1250    7.4328   53.4446 N   0  0  0  0  0  0  0  0  0  0  0  0
   24.2440    6.4566   53.9245 C   0  0  0  0  0  0  0  0  0  0  0  0
   24.2027    6.0614   55.1101 O   0  0  0  0  0  0  0  0  0  0  0  0
   25.0095    7.6777   52.4412 H   0  0  0  0  0  0  0  0  0  0  0  0
   23.2452    5.7911   53.0028 C   0  0  0  0  0  0  0  0  0  0  0  0
   22.4966    6.7902   52.1453 C   0  0  0  0  0  0  0  0  0  0  0  0
   21.2644    6.6858   53.0259 C   0  0  0  0  0  0  0  0  0  0  0  0
   21.9422    5.5067   53.7103 C   0  0  0  0  0  0  0  0  0  0  0  0
 12 13  1  0  0  0
 13 14  1  0  0  0
 13  7  1  0  0  0
  7  8  1  0  0  0
  8  9  1  0  0  0
  8 10  1  0  0  0
 10 11  1  0  0  0
 10  1  1  0  0  0
  1  2  2  0  0  0
  2  3  1  0  0  0
  3  4  2  0  0  0
  4  5  1  0  0  0
  5  6  2  0  0  0
  6 15  1  0  0  0
 15 16  1  0  0  0
 16 17  2  0  0  0
 16 19  1  0  0  0
 19 20  1  0  0  0
 20 21  1  0  0  0
 21 22  1  0  0  0
 11  7  1  0  0  0
  6  1  1  0  0  0
 22 19  1  0  0  0
 15 18  1  0  0  0
M  END
> <minimizedAffinity>
9.95459

> <CNNscore>
0.5731625557

> <CNNaffinity>
5.7607221603

> <CNN_VS>
3.3018302917

> <CNNaffinity_variance>
0.4105746150

$$$$
[H]c1c([H])c([H])c(N2C([H])([H])[C@@]([H])(N(C([H])([H])[H])C([H])([H])[H])[C@]2([H])C([H])([H])[H])c(N([H])C(=O)C2([H])C([H])([H])C([H])([H])C2([H])[H])c1[H]


 22 24  0  0  0  0  0  0  0  0999 V2000
   25.9299    8.8733   55.6419 C   0  0  0  0  0  0  0  0  0  0  0  0
   27.2015    8.5509   56.0640 C   0  0  0  0  0  0  0  0  0  0  0  0
   27.9735    9.3981   56.8514 C   0  0  0  0  0  0  0  0  0  0  0  0
   27.4845   10.6070   57.2409 C   0  0  0  0  0  0  0  0  0  0  0  0
   26.2220   10.9712   56.8416 C   0  0  0  0  0  0  0  0  0  0  0  0
   25.4369   10.1199   56.0452 C   0  0  0  0  0  0  0  0  0  0  0  0
   24.7405    6.3761   53.6666 C   0  0  0  0  0  0  0  0  0  0  0  0
   24.5861    7.8860   53.5750 C   0  0  0  0  0  0  0  0  0  0  0  0
   25.3887    8.3842   52.4183 C   0  0  0  0  0  0  0  0  0  0  0  0
   25.1164    7.9689   54.9125 N   0  0  0  0  0  0  0  0  0  0  0  0
   24.4646    6.6729   55.1250 C   0  0  0  0  0  0  0  0  0  0  0  0
   22.4206    6.1685   52.9851 C   0  0  0  0  0  0  0  0  0  0  0  0
   23.7038    5.5708   53.1295 N   0  0  0  0  0  0  0  0  0  0  0  0
   24.1622    5.0305   51.8658 C   0  0  0  0  0  0  0  0  0  0  0  0
   24.2068   10.5501   55.5479 N   0  0  0  0  0  0  0  0  0  0  0  0
   22.9861    9.8897   55.7299 C   0  0  0  0  0  0  0  0  0  0  0  0
   22.8482    8.8166   56.3567 O   0  0  0  0  0  0  0  0  0  0  0  0
   24.1495   11.4517   55.0342 H   0  0  0  0  0  0  0  0  0  0  0  0
   21.7044   10.4548   55.1574 C   0  0  0  0  0  0  0  0  0  0  0  0
   20.8003    9.3784   54.5938 C   0  0  0  0  0  0  0  0  0  0  0  0
   21.2061    9.7233   53.1722 C   0  0  0  0  0  0  0  0  0  0  0  0
   21.8998   10.9514   53.7452 C   0  0  0  0  0  0  0  0  0  0  0  0
 12 13  1  0  0  0
 13 14  1  0  0  0
 13  7  1  0  0  0
  7  8  1  0  0  0
  8  9  1  0  0  0
  8 10  1  0  0  0
 10 11  1  0  0  0
 10  1  1  0  0  0
  1  2  2  0  0  0
  2  3  1  0  0  0
  3  4  2  0  0  0
  4  5  1  0  0  0
  5  6  2  0  0  0
  6 15  1  0  0  0
 15 16  1  0  0  0
 16 17  2  0  0  0
 16 19  1  0  0  0
 19 20  1  0  0  0
 20 21  1  0  0  0
 21 22  1  0  0  0
 11  7  1  0  0  0
  6  1  1  0  0  0
 22 19  1  0  0  0
 15 18  1  0  0  0
M  END
> <minimizedAffinity>
21.47293

> <CNNscore>
0.4867686927

> <CNNaffinity>
5.4519810677

> <CNN_VS>
2.6538536549

> <CNNaffinity_variance>
0.3691079319

$$$$
[H]c1c([H])c([H])c(N2C([H])([H])[C@@]([H])(N(C([H])([H])[H])C([H])([H])[H])[C@]2([H])C([H])([H])[H])c(N([H])C(=O)C2([H])C([H])([H])C([H])([H])C2([H])[H])c1[H]


 22 24  0  0  0  0  0  0  0  0999 V2000
   24.4639    7.1312   54.1224 C   0  0  0  0  0  0  0  0  0  0  0  0
   25.6188    6.4328   53.8438 C   0  0  0  0  0  0  0  0  0  0  0  0
   26.8854    6.9990   53.9381 C   0  0  0  0  0  0  0  0  0  0  0  0
   27.0291    8.2978   54.3187 C   0  0  0  0  0  0  0  0  0  0  0  0
   25.9048    9.0331   54.6041 C   0  0  0  0  0  0  0  0  0  0  0  0
   24.6220    8.4670   54.5101 C   0  0  0  0  0  0  0  0  0  0  0  0
   21.7436    5.2046   53.4585 C   0  0  0  0  0  0  0  0  0  0  0  0
   21.9451    6.7104   53.3936 C   0  0  0  0  0  0  0  0  0  0  0  0
   21.9629    7.1340   51.9616 C   0  0  0  0  0  0  0  0  0  0  0  0
   23.1827    6.5230   54.1079 N   0  0  0  0  0  0  0  0  0  0  0  0
   22.5027    5.3961   54.7540 C   0  0  0  0  0  0  0  0  0  0  0  0
   19.3493    5.6007   53.4614 C   0  0  0  0  0  0  0  0  0  0  0  0
   20.4370    4.7225   53.7270 N   0  0  0  0  0  0  0  0  0  0  0  0
   20.2663    3.4682   53.0224 C   0  0  0  0  0  0  0  0  0  0  0  0
   23.4850    9.2557   54.6860 N   0  0  0  0  0  0  0  0  0  0  0  0
   22.6284    9.6779   53.6625 C   0  0  0  0  0  0  0  0  0  0  0  0
   22.7845    9.4072   52.4518 O   0  0  0  0  0  0  0  0  0  0  0  0
   23.1978    9.5329   55.6455 H   0  0  0  0  0  0  0  0  0  0  0  0
   21.4101   10.5217   53.9681 C   0  0  0  0  0  0  0  0  0  0  0  0
   21.5683   11.3230   55.2436 C   0  0  0  0  0  0  0  0  0  0  0  0
   20.6882   10.3533   56.0115 C   0  0  0  0  0  0  0  0  0  0  0  0
   20.3421    9.7190   54.6713 C   0  0  0  0  0  0  0  0  0  0  0  0
 12 13  1  0  0  0
 13 14  1  0  0  0
 13  7  1  0  0  0
  7  8  1  0  0  0
  8  9  1  0  0  0
  8 10  1  0  0  0
 10 11  1  0  0  0
 10  1  1  0  0  0
  1  2  2  0  0  0
  2  3  1  0  0  0
  3  4  2  0  0  0
  4  5  1  0  0  0
  5  6  2  0  0  0
  6 15  1  0  0  0
 15 16  1  0  0  0
 16 17  2  0  0  0
 16 19  1  0  0  0
 19 20  1  0  0  0
 20 21  1  0  0  0
 21 22  1  0  0  0
 11  7  1  0  0  0
  6  1  1  0  0  0
 22 19  1  0  0  0
 15 18  1  0  0  0
M  END
> <minimizedAffinity>
19.02586

> <CNNscore>
0.4822553396

> <CNNaffinity>
5.7323627472

> <CNN_VS>
2.7644624710

> <CNNaffinity_variance>
0.6479152441

$$$$
[H]c1c([H])c([H])c(N2C([H])([H])[C@@]([H])(N(C([H])([H])[H])C([H])([H])[H])[C@]2([H])C([H])([H])[H])c(N([H])C(=O)C2([H])C([H])([H])C([H])([H])C2([H])[H])c1[H]


 22 24  0  0  0  0  0  0  0  0999 V2000
   24.3187    6.7150   54.1637 C   0  0  0  0  0  0  0  0  0  0  0  0
   24.5294    5.3966   53.8220 C   0  0  0  0  0  0  0  0  0  0  0  0
   23.5725    4.6214   53.1764 C   0  0  0  0  0  0  0  0  0  0  0  0
   22.3627    5.1545   52.8527 C   0  0  0  0  0  0  0  0  0  0  0  0
   22.1079    6.4647   53.1762 C   0  0  0  0  0  0  0  0  0  0  0  0
   23.0705    7.2533   53.8292 C   0  0  0  0  0  0  0  0  0  0  0  0
   26.7533    9.0077   54.7709 C   0  0  0  0  0  0  0  0  0  0  0  0
   26.7670    7.4888   54.8414 C   0  0  0  0  0  0  0  0  0  0  0  0
   27.5830    6.9601   53.7079 C   0  0  0  0  0  0  0  0  0  0  0  0
   25.3296    7.5234   54.7435 N   0  0  0  0  0  0  0  0  0  0  0  0
   25.4282    8.7929   55.4702 C   0  0  0  0  0  0  0  0  0  0  0  0
   27.6886    9.3299   56.9870 C   0  0  0  0  0  0  0  0  0  0  0  0
   27.6413    9.7179   55.6188 N   0  0  0  0  0  0  0  0  0  0  0  0
   28.9629    9.6707   55.0271 C   0  0  0  0  0  0  0  0  0  0  0  0
   22.7570    8.5430   54.2583 N   0  0  0  0  0  0  0  0  0  0  0  0
   22.0289    9.4848   53.5220 C   0  0  0  0  0  0  0  0  0  0  0  0
   21.5754    9.2886   52.3734 O   0  0  0  0  0  0  0  0  0  0  0  0
   23.0330    8.8459   55.2134 H   0  0  0  0  0  0  0  0  0  0  0  0
   21.7318   10.8548   54.0917 C   0  0  0  0  0  0  0  0  0  0  0  0
   22.4803   11.1179   55.3819 C   0  0  0  0  0  0  0  0  0  0  0  0
   21.2323   10.8608   56.2072 C   0  0  0  0  0  0  0  0  0  0  0  0
   20.4553   10.8549   54.8980 C   0  0  0  0  0  0  0  0  0  0  0  0
 12 13  1  0  0  0
 13 14  1  0  0  0
 13  7  1  0  0  0
  7  8  1  0  0  0
  8  9  1  0  0  0
  8 10  1  0  0  0
 10 11  1  0  0  0
 10  1  1  0  0  0
  1  2  2  0  0  0
  2  3  1  0  0  0
  3  4  2  0  0  0
  4  5  1  0  0  0
  5  6  2  0  0  0
  6 15  1  0  0  0
 15 16  1  0  0  0
 16 17  2  0  0  0
 16 19  1  0  0  0
 19 20  1  0  0  0
 20 21  1  0  0  0
 21 22  1  0  0  0
 11  7  1  0  0  0
  6  1  1  0  0  0
 22 19  1  0  0  0
 15 18  1  0  0  0
M  END
> <minimizedAffinity>
19.81896

> <CNNscore>
0.4816147685

> <CNNaffinity>
5.3459811211

> <CNN_VS>
2.5747034550

> <CNNaffinity_variance>
0.3327324688

$$$$
[H]c1c([H])c([H])c(N2C([H])([H])[C@@]([H])(N(C([H])([H])[H])C([H])([H])[H])[C@]2([H])C([H])([H])[H])c(N([H])C(=O)C2([H])C([H])([H])C([H])([H])C2([H])[H])c1[H]


 22 24  0  0  0  0  0  0  0  0999 V2000
   24.7078    7.2035   53.9237 C   0  0  0  0  0  0  0  0  0  0  0  0
   25.8573    6.4595   54.0793 C   0  0  0  0  0  0  0  0  0  0  0  0
   27.0716    7.0169   54.4646 C   0  0  0  0  0  0  0  0  0  0  0  0
   27.1666    8.3529   54.7067 C   0  0  0  0  0  0  0  0  0  0  0  0
   26.0463    9.1340   54.5619 C   0  0  0  0  0  0  0  0  0  0  0  0
   24.8163    8.5769   54.1722 C   0  0  0  0  0  0  0  0  0  0  0  0
   21.4088    6.5691   53.4070 C   0  0  0  0  0  0  0  0  0  0  0  0
   22.4202    5.9200   54.3387 C   0  0  0  0  0  0  0  0  0  0  0  0
   22.0994    6.3073   55.7450 C   0  0  0  0  0  0  0  0  0  0  0  0
   23.4546    6.6153   53.6152 N   0  0  0  0  0  0  0  0  0  0  0  0
   22.5771    6.4655   52.4502 C   0  0  0  0  0  0  0  0  0  0  0  0
   20.2704    4.4258   53.3963 C   0  0  0  0  0  0  0  0  0  0  0  0
   20.3293    5.7739   52.9445 N   0  0  0  0  0  0  0  0  0  0  0  0
   19.0953    6.4699   53.2477 C   0  0  0  0  0  0  0  0  0  0  0  0
   23.7178    9.3965   53.9131 N   0  0  0  0  0  0  0  0  0  0  0  0
   22.6259    9.5790   54.7699 C   0  0  0  0  0  0  0  0  0  0  0  0
   22.4939    9.0156   55.8783 O   0  0  0  0  0  0  0  0  0  0  0  0
   23.6972    9.9651   53.0434 H   0  0  0  0  0  0  0  0  0  0  0  0
   21.4910   10.5068   54.3949 C   0  0  0  0  0  0  0  0  0  0  0  0
   20.7292   10.0242   53.1780 C   0  0  0  0  0  0  0  0  0  0  0  0
   21.4232   11.0403   52.2888 C   0  0  0  0  0  0  0  0  0  0  0  0
   21.9767   11.6677   53.5608 C   0  0  0  0  0  0  0  0  0  0  0  0
 12 13  1  0  0  0
 13 14  1  0  0  0
 13  7  1  0  0  0
  7  8  1  0  0  0
  8  9  1  0  0  0
  8 10  1  0  0  0
 10 11  1  0  0  0
 10  1  1  0  0  0
  1  2  2  0  0  0
  2  3  1  0  0  0
  3  4  2  0  0  0
  4  5  1  0  0  0
  5  6  2  0  0  0
  6 15  1  0  0  0
 15 16  1  0  0  0
 16 17  2  0  0  0
 16 19  1  0  0  0
 19 20  1  0  0  0
 20 21  1  0  0  0
 21 22  1  0  0  0
 11  7  1  0  0  0
  6  1  1  0  0  0
 22 19  1  0  0  0
 15 18  1  0  0  0
M  END
> <minimizedAffinity>
14.26043

> <CNNscore>
0.4786883295

> <CNNaffinity>
5.7828741074

> <CNN_VS>
2.7681944370

> <CNNaffinity_variance>
0.5382872820

$$$$
[H]c1c([H])c([H])c(N2C([H])([H])[C@@]([H])(N(C([H])([H])[H])C([H])([H])[H])[C@]2([H])C([H])([H])[H])c(N([H])C(=O)C2([H])C([H])([H])C([H])([H])C2([H])[H])c1[H]


 22 24  0  0  0  0  0  0  0  0999 V2000
   23.0677    9.6282   55.2034 C   0  0  0  0  0  0  0  0  0  0  0  0
   22.6591   10.9351   55.3594 C   0  0  0  0  0  0  0  0  0  0  0  0
   21.3340   11.3338   55.2220 C   0  0  0  0  0  0  0  0  0  0  0  0
   20.3711   10.4206   54.9202 C   0  0  0  0  0  0  0  0  0  0  0  0
   20.7330    9.1063   54.7535 C   0  0  0  0  0  0  0  0  0  0  0  0
   22.0705    8.6970   54.8903 C   0  0  0  0  0  0  0  0  0  0  0  0
   26.4521    9.3187   55.2526 C   0  0  0  0  0  0  0  0  0  0  0  0
   25.3663    8.3732   54.7634 C   0  0  0  0  0  0  0  0  0  0  0  0
   25.4086    8.3199   53.2715 C   0  0  0  0  0  0  0  0  0  0  0  0
   24.4055    9.2154   55.4301 N   0  0  0  0  0  0  0  0  0  0  0  0
   25.4759    9.4684   56.3996 C   0  0  0  0  0  0  0  0  0  0  0  0
   28.7273    8.6193   54.7794 C   0  0  0  0  0  0  0  0  0  0  0  0
   27.6653    8.7497   55.7175 N   0  0  0  0  0  0  0  0  0  0  0  0
   28.0977    9.4990   56.8796 C   0  0  0  0  0  0  0  0  0  0  0  0
   22.4426    7.3841   54.6014 N   0  0  0  0  0  0  0  0  0  0  0  0
   22.2041    6.7246   53.3899 C   0  0  0  0  0  0  0  0  0  0  0  0
   21.6123    7.2319   52.4123 O   0  0  0  0  0  0  0  0  0  0  0  0
   22.9801    6.8381   55.3037 H   0  0  0  0  0  0  0  0  0  0  0  0
   22.6659    5.2994   53.1774 C   0  0  0  0  0  0  0  0  0  0  0  0
   23.2982    4.7065   54.4194 C   0  0  0  0  0  0  0  0  0  0  0  0
   24.6931    4.9002   53.8524 C   0  0  0  0  0  0  0  0  0  0  0  0
   24.0279    5.2491   52.5281 C   0  0  0  0  0  0  0  0  0  0  0  0
 12 13  1  0  0  0
 13 14  1  0  0  0
 13  7  1  0  0  0
  7  8  1  0  0  0
  8  9  1  0  0  0
  8 10  1  0  0  0
 10 11  1  0  0  0
 10  1  1  0  0  0
  1  2  2  0  0  0
  2  3  1  0  0  0
  3  4  2  0  0  0
  4  5  1  0  0  0
  5  6  2  0  0  0
  6 15  1  0  0  0
 15 16  1  0  0  0
 16 17  2  0  0  0
 16 19  1  0  0  0
 19 20  1  0  0  0
 20 21  1  0  0  0
 21 22  1  0  0  0
 11  7  1  0  0  0
  6  1  1  0  0  0
 22 19  1  0  0  0
 15 18  1  0  0  0
M  END
> <minimizedAffinity>
18.38832

> <CNNscore>
0.4716579914

> <CNNaffinity>
5.5714049339

> <CNN_VS>
2.6277976036

> <CNNaffinity_variance>
0.3787377179

$$$$
[H]c1c([H])c([H])c(N2C([H])([H])[C@@]([H])(N(C([H])([H])[H])C([H])([H])[H])[C@]2([H])C([H])([H])[H])c(N([H])C(=O)C2([H])C([H])([H])C([H])([H])C2([H])[H])c1[H]


 22 24  0  0  0  0  0  0  0  0999 V2000
   21.8492    6.5686   53.7137 C   0  0  0  0  0  0  0  0  0  0  0  0
   21.7266    5.1965   53.7511 C   0  0  0  0  0  0  0  0  0  0  0  0
   20.5569    4.5327   53.3975 C   0  0  0  0  0  0  0  0  0  0  0  0
   19.4649    5.2367   52.9923 C   0  0  0  0  0  0  0  0  0  0  0  0
   19.5409    6.6070   52.9418 C   0  0  0  0  0  0  0  0  0  0  0  0
   20.7198    7.2839   53.2985 C   0  0  0  0  0  0  0  0  0  0  0  0
   25.0696    7.6551   53.7509 C   0  0  0  0  0  0  0  0  0  0  0  0
   24.2213    6.9975   54.8280 C   0  0  0  0  0  0  0  0  0  0  0  0
   24.7152    5.6055   55.0488 C   0  0  0  0  0  0  0  0  0  0  0  0
   23.0710    7.2328   53.9923 N   0  0  0  0  0  0  0  0  0  0  0  0
   23.7868    8.4324   53.5470 C   0  0  0  0  0  0  0  0  0  0  0  0
   26.1276    8.9129   55.5365 C   0  0  0  0  0  0  0  0  0  0  0  0
   26.1068    8.5287   54.1665 N   0  0  0  0  0  0  0  0  0  0  0  0
   27.3730    7.9397   53.7806 C   0  0  0  0  0  0  0  0  0  0  0  0
   20.7463    8.6772   53.3577 N   0  0  0  0  0  0  0  0  0  0  0  0
   20.8392    9.5313   52.2525 C   0  0  0  0  0  0  0  0  0  0  0  0
   20.9223    9.1468   51.0657 O   0  0  0  0  0  0  0  0  0  0  0  0
   20.6468    9.1524   54.2766 H   0  0  0  0  0  0  0  0  0  0  0  0
   20.8446   11.0339   52.4305 C   0  0  0  0  0  0  0  0  0  0  0  0
   22.0825   11.6800   51.8438 C   0  0  0  0  0  0  0  0  0  0  0  0
   22.7024   11.8399   53.2204 C   0  0  0  0  0  0  0  0  0  0  0  0
   21.3543   11.4285   53.7958 C   0  0  0  0  0  0  0  0  0  0  0  0
 12 13  1  0  0  0
 13 14  1  0  0  0
 13  7  1  0  0  0
  7  8  1  0  0  0
  8  9  1  0  0  0
  8 10  1  0  0  0
 10 11  1  0  0  0
 10  1  1  0  0  0
  1  2  2  0  0  0
  2  3  1  0  0  0
  3  4  2  0  0  0
  4  5  1  0  0  0
  5  6  2  0  0  0
  6 15  1  0  0  0
 15 16  1  0  0  0
 16 17  2  0  0  0
 16 19  1  0  0  0
 19 20  1  0  0  0
 20 21  1  0  0  0
 21 22  1  0  0  0
 11  7  1  0  0  0
  6  1  1  0  0  0
 22 19  1  0  0  0
 15 18  1  0  0  0
M  END
> <minimizedAffinity>
16.77695

> <CNNscore>
0.4500805438

> <CNNaffinity>
5.5535039902

> <CNN_VS>
2.4995241165

> <CNNaffinity_variance>
0.2868720889

$$$$
[H]c1c([H])c([H])c(C([H])([H])N([H])C(=O)Oc2c([H])c([H])c(C(F)(F)F)c([H])c2-c2c([H])c([H])c(N([H])S(=O)(=O)C([H])([H])C([H])([H])[H])c([H])c2[H])c(Cl)c1[H]


 36 38  0  0  0  0  0  0  0  0999 V2000
   21.2909    9.7136   53.2218 C   0  0  0  0  0  0  0  0  0  0  0  0
   21.3179   10.4303   52.0517 C   0  0  0  0  0  0  0  0  0  0  0  0
   21.5419   11.8021   52.0338 C   0  0  0  0  0  0  0  0  0  0  0  0
   21.7346   12.4107   53.2432 C   0  0  0  0  0  0  0  0  0  0  0  0
   21.7195   11.7407   54.4632 C   0  0  0  0  0  0  0  0  0  0  0  0
   21.4896   10.3661   54.4199 C   0  0  0  0  0  0  0  0  0  0  0  0
   20.6506    5.5186   53.1809 C   0  0  0  0  0  0  0  0  0  0  0  0
   19.5488    6.3924   53.2292 C   0  0  0  0  0  0  0  0  0  0  0  0
   19.8195    7.7383   53.2367 C   0  0  0  0  0  0  0  0  0  0  0  0
   21.0819    8.2794   53.1992 C   0  0  0  0  0  0  0  0  0  0  0  0
   22.1613    7.4048   53.1522 C   0  0  0  0  0  0  0  0  0  0  0  0
   21.8938    6.0358   53.1457 C   0  0  0  0  0  0  0  0  0  0  0  0
   20.2853    4.1487   53.1714 N   0  0  0  0  0  0  0  0  0  0  0  0
   20.9912    3.4560   52.7467 H   0  0  0  0  0  0  0  0  0  0  0  0
   18.8464    3.4630   53.7528 S   0  0  0  0  0  0  0  0  0  0  0  0
   18.3713    2.3363   52.8498 O   0  0  0  0  0  0  0  0  0  0  0  0
   19.0746    2.8309   55.1127 O   0  0  0  0  0  0  0  0  0  0  0  0
   16.2456    3.8325   54.3310 C   0  0  0  0  0  0  0  0  0  0  0  0
   17.5006    4.5919   53.9247 C   0  0  0  0  0  0  0  0  0  0  0  0
   21.5762   12.5813   50.7643 C   0  0  0  0  0  0  0  0  0  0  0  0
   20.7384   11.9963   49.8193 F   0  0  0  0  0  0  0  0  0  0  0  0
   21.1480   13.8703   50.9930 F   0  0  0  0  0  0  0  0  0  0  0  0
   22.8608   12.6654   50.2644 F   0  0  0  0  0  0  0  0  0  0  0  0
   21.4651    9.6842   55.5851 O   0  0  0  0  0  0  0  0  0  0  0  0
   22.4117    8.7700   56.1122 C   0  0  0  0  0  0  0  0  0  0  0  0
   21.8825    7.6335   56.3510 O   0  0  0  0  0  0  0  0  0  0  0  0
   23.6871    9.1647   56.3017 N   0  0  0  0  0  0  0  0  0  0  0  0
   23.9960    7.9705   56.8724 H   0  0  0  0  0  0  0  0  0  0  0  0
   25.0003    9.5681   56.4979 C   0  0  0  0  0  0  0  0  0  0  0  0
   25.9368    9.0601   55.4485 C   0  0  0  0  0  0  0  0  0  0  0  0
   25.5334    8.5441   54.2414 C   0  0  0  0  0  0  0  0  0  0  0  0
   26.4325    8.0292   53.3086 C   0  0  0  0  0  0  0  0  0  0  0  0
   27.7817    8.0384   53.6079 C   0  0  0  0  0  0  0  0  0  0  0  0
   28.2462    8.5525   54.8200 C   0  0  0  0  0  0  0  0  0  0  0  0
   27.2968    9.0399   55.6801 C   0  0  0  0  0  0  0  0  0  0  0  0
   27.8154    9.7353   57.2175 Cl  0  0  0  0  0  0  0  0  0  0  0  0
 18 19  1  0  0  0
 19 15  1  0  0  0
 15 16  2  0  0  0
 15 17  2  0  0  0
 15 13  1  0  0  0
 13  7  1  0  0  0
  7  8  2  0  0  0
  8  9  1  0  0  0
  9 10  2  0  0  0
 10 11  1  0  0  0
 11 12  2  0  0  0
 10  1  1  0  0  0
  1  2  2  0  0  0
  2  3  1  0  0  0
  3  4  2  0  0  0
  4  5  1  0  0  0
  5  6  2  0  0  0
  6 24  1  0  0  0
 24 25  1  0  0  0
 25 26  2  0  0  0
 25 27  1  0  0  0
 27 29  1  0  0  0
 29 30  1  0  0  0
 30 31  2  0  0  0
 31 32  1  0  0  0
 32 33  2  0  0  0
 33 34  1  0  0  0
 34 35  2  0  0  0
 35 36  1  0  0  0
  3 20  1  0  0  0
 20 21  1  0  0  0
 20 22  1  0  0  0
 20 23  1  0  0  0
 12  7  1  0  0  0
  6  1  1  0  0  0
 35 30  1  0  0  0
 13 14  1  0  0  0
 27 28  1  0  0  0
M  END
> <minimizedAffinity>
21.92213

> <CNNscore>
0.5483233333

> <CNNaffinity>
6.6635437012

> <CNN_VS>
3.6537764072

> <CNNaffinity_variance>
0.5837832689

$$$$
[H]c1c([H])c([H])c(C([H])([H])N([H])C(=O)Oc2c([H])c([H])c(C(F)(F)F)c([H])c2-c2c([H])c([H])c(N([H])S(=O)(=O)C([H])([H])C([H])([H])[H])c([H])c2[H])c(Cl)c1[H]


 36 38  0  0  0  0  0  0  0  0999 V2000
   21.3088    5.9078   53.5869 C   0  0  0  0  0  0  0  0  0  0  0  0
   21.1813    4.5635   53.3415 C   0  0  0  0  0  0  0  0  0  0  0  0
   19.9402    3.9397   53.2867 C   0  0  0  0  0  0  0  0  0  0  0  0
   18.8436    4.7308   53.4907 C   0  0  0  0  0  0  0  0  0  0  0  0
   18.9061    6.0983   53.7434 C   0  0  0  0  0  0  0  0  0  0  0  0
   20.1773    6.6694   53.7875 C   0  0  0  0  0  0  0  0  0  0  0  0
   25.1426    7.7274   53.6147 C   0  0  0  0  0  0  0  0  0  0  0  0
   24.1657    8.1716   52.7047 C   0  0  0  0  0  0  0  0  0  0  0  0
   22.9440    7.5466   52.7459 C   0  0  0  0  0  0  0  0  0  0  0  0
   22.6185    6.5287   53.6093 C   0  0  0  0  0  0  0  0  0  0  0  0
   23.5929    6.0992   54.5027 C   0  0  0  0  0  0  0  0  0  0  0  0
   24.8371    6.7289   54.4654 C   0  0  0  0  0  0  0  0  0  0  0  0
   26.3716    8.4265   53.5102 N   0  0  0  0  0  0  0  0  0  0  0  0
   26.5906    8.8946   52.5661 H   0  0  0  0  0  0  0  0  0  0  0  0
   27.5562    8.6111   54.7108 S   0  0  0  0  0  0  0  0  0  0  0  0
   28.3954    7.3517   54.8522 O   0  0  0  0  0  0  0  0  0  0  0  0
   28.5279    9.7114   54.3288 O   0  0  0  0  0  0  0  0  0  0  0  0
   28.0717    9.4979   57.1974 C   0  0  0  0  0  0  0  0  0  0  0  0
   26.9342    9.0022   56.3156 C   0  0  0  0  0  0  0  0  0  0  0  0
   19.7994    2.4814   53.0159 C   0  0  0  0  0  0  0  0  0  0  0  0
   18.5462    2.2128   52.4732 F   0  0  0  0  0  0  0  0  0  0  0  0
   20.7627    2.0754   52.1192 F   0  0  0  0  0  0  0  0  0  0  0  0
   19.9810    1.7399   54.1667 F   0  0  0  0  0  0  0  0  0  0  0  0
   20.2759    7.9935   54.0334 O   0  0  0  0  0  0  0  0  0  0  0  0
   21.0674    8.6734   54.9930 C   0  0  0  0  0  0  0  0  0  0  0  0
   21.2998    7.9411   56.0120 O   0  0  0  0  0  0  0  0  0  0  0  0
   21.4643    9.9399   54.7546 N   0  0  0  0  0  0  0  0  0  0  0  0
   22.0285   10.0197   55.9885 H   0  0  0  0  0  0  0  0  0  0  0  0
   21.8742   11.2433   54.5119 C   0  0  0  0  0  0  0  0  0  0  0  0
   21.7194   11.6541   53.0823 C   0  0  0  0  0  0  0  0  0  0  0  0
   21.8942   12.9381   52.6272 C   0  0  0  0  0  0  0  0  0  0  0  0
   21.6884   13.2955   51.2955 C   0  0  0  0  0  0  0  0  0  0  0  0
   21.2944   12.3217   50.3974 C   0  0  0  0  0  0  0  0  0  0  0  0
   21.1037   11.0006   50.8064 C   0  0  0  0  0  0  0  0  0  0  0  0
   21.3282   10.7336   52.1319 C   0  0  0  0  0  0  0  0  0  0  0  0
   21.1380    9.0774   52.7125 Cl  0  0  0  0  0  0  0  0  0  0  0  0
 18 19  1  0  0  0
 19 15  1  0  0  0
 15 16  2  0  0  0
 15 17  2  0  0  0
 15 13  1  0  0  0
 13  7  1  0  0  0
  7  8  2  0  0  0
  8  9  1  0  0  0
  9 10  2  0  0  0
 10 11  1  0  0  0
 11 12  2  0  0  0
 10  1  1  0  0  0
  1  2  2  0  0  0
  2  3  1  0  0  0
  3  4  2  0  0  0
  4  5  1  0  0  0
  5  6  2  0  0  0
  6 24  1  0  0  0
 24 25  1  0  0  0
 25 26  2  0  0  0
 25 27  1  0  0  0
 27 29  1  0  0  0
 29 30  1  0  0  0
 30 31  2  0  0  0
 31 32  1  0  0  0
 32 33  2  0  0  0
 33 34  1  0  0  0
 34 35  2  0  0  0
 35 36  1  0  0  0
  3 20  1  0  0  0
 20 21  1  0  0  0
 20 22  1  0  0  0
 20 23  1  0  0  0
 12  7  1  0  0  0
  6  1  1  0  0  0
 35 30  1  0  0  0
 13 14  1  0  0  0
 27 28  1  0  0  0
M  END
> <minimizedAffinity>
20.90704

> <CNNscore>
0.5382417440

> <CNNaffinity>
6.5376739502

> <CNN_VS>
3.5188491344

> <CNNaffinity_variance>
0.4811306894

$$$$
[H]c1c([H])c([H])c(C([H])([H])N([H])C(=O)Oc2c([H])c([H])c(C(F)(F)F)c([H])c2-c2c([H])c([H])c(N([H])S(=O)(=O)C([H])([H])C([H])([H])[H])c([H])c2[H])c(Cl)c1[H]


 36 38  0  0  0  0  0  0  0  0999 V2000
   21.3568    9.5742   53.2303 C   0  0  0  0  0  0  0  0  0  0  0  0
   21.2129   10.3786   52.1277 C   0  0  0  0  0  0  0  0  0  0  0  0
   21.5455   11.7281   52.1526 C   0  0  0  0  0  0  0  0  0  0  0  0
   22.0252   12.2226   53.3338 C   0  0  0  0  0  0  0  0  0  0  0  0
   22.1947   11.4598   54.4857 C   0  0  0  0  0  0  0  0  0  0  0  0
   21.8440   10.1129   54.4021 C   0  0  0  0  0  0  0  0  0  0  0  0
   20.3633    5.4522   53.0509 C   0  0  0  0  0  0  0  0  0  0  0  0
   19.3629    6.3996   53.3369 C   0  0  0  0  0  0  0  0  0  0  0  0
   19.7449    7.7176   53.3778 C   0  0  0  0  0  0  0  0  0  0  0  0
   21.0254    8.1648   53.1589 C   0  0  0  0  0  0  0  0  0  0  0  0
   22.0039    7.2184   52.8779 C   0  0  0  0  0  0  0  0  0  0  0  0
   21.6232    5.8771   52.8360 C   0  0  0  0  0  0  0  0  0  0  0  0
   19.8859    4.1176   53.0226 N   0  0  0  0  0  0  0  0  0  0  0  0
   20.4614    3.4029   52.4600 H   0  0  0  0  0  0  0  0  0  0  0  0
   18.4941    3.5058   53.7759 S   0  0  0  0  0  0  0  0  0  0  0  0
   17.9424    2.3080   53.0201 O   0  0  0  0  0  0  0  0  0  0  0  0
   18.8265    2.9970   55.1657 O   0  0  0  0  0  0  0  0  0  0  0  0
   15.8780    3.9189   54.2454 C   0  0  0  0  0  0  0  0  0  0  0  0
   17.1725    4.6628   53.9492 C   0  0  0  0  0  0  0  0  0  0  0  0
   21.3942   12.6020   50.9554 C   0  0  0  0  0  0  0  0  0  0  0  0
   20.6534   11.9487   49.9748 F   0  0  0  0  0  0  0  0  0  0  0  0
   20.7382   13.7626   51.3013 F   0  0  0  0  0  0  0  0  0  0  0  0
   22.6244   12.9699   50.4469 F   0  0  0  0  0  0  0  0  0  0  0  0
   21.9923    9.3434   55.5017 O   0  0  0  0  0  0  0  0  0  0  0  0
   22.7040    8.1275   55.6590 C   0  0  0  0  0  0  0  0  0  0  0  0
   22.1034    7.3331   56.4571 O   0  0  0  0  0  0  0  0  0  0  0  0
   23.8668    7.9446   55.0011 N   0  0  0  0  0  0  0  0  0  0  0  0
   24.0554    6.7492   55.6199 H   0  0  0  0  0  0  0  0  0  0  0  0
   25.0636    7.7536   54.3252 C   0  0  0  0  0  0  0  0  0  0  0  0
   26.2374    8.3688   55.0181 C   0  0  0  0  0  0  0  0  0  0  0  0
   26.2355    8.7613   56.3343 C   0  0  0  0  0  0  0  0  0  0  0  0
   27.3312    9.3816   56.9328 C   0  0  0  0  0  0  0  0  0  0  0  0
   28.4638    9.6103   56.1745 C   0  0  0  0  0  0  0  0  0  0  0  0
   28.5199    9.2300   54.8324 C   0  0  0  0  0  0  0  0  0  0  0  0
   27.4006    8.6254   54.3220 C   0  0  0  0  0  0  0  0  0  0  0  0
   27.4130    8.0887   52.6404 Cl  0  0  0  0  0  0  0  0  0  0  0  0
 18 19  1  0  0  0
 19 15  1  0  0  0
 15 16  2  0  0  0
 15 17  2  0  0  0
 15 13  1  0  0  0
 13  7  1  0  0  0
  7  8  2  0  0  0
  8  9  1  0  0  0
  9 10  2  0  0  0
 10 11  1  0  0  0
 11 12  2  0  0  0
 10  1  1  0  0  0
  1  2  2  0  0  0
  2  3  1  0  0  0
  3  4  2  0  0  0
  4  5  1  0  0  0
  5  6  2  0  0  0
  6 24  1  0  0  0
 24 25  1  0  0  0
 25 26  2  0  0  0
 25 27  1  0  0  0
 27 29  1  0  0  0
 29 30  1  0  0  0
 30 31  2  0  0  0
 31 32  1  0  0  0
 32 33  2  0  0  0
 33 34  1  0  0  0
 34 35  2  0  0  0
 35 36  1  0  0  0
  3 20  1  0  0  0
 20 21  1  0  0  0
 20 22  1  0  0  0
 20 23  1  0  0  0
 12  7  1  0  0  0
  6  1  1  0  0  0
 35 30  1  0  0  0
 13 14  1  0  0  0
 27 28  1  0  0  0
M  END
> <minimizedAffinity>
21.57800

> <CNNscore>
0.5266659856

> <CNNaffinity>
6.6813697815

> <CNN_VS>
3.5188500881

> <CNNaffinity_variance>
0.7651805878

$$$$
[H]c1c([H])c([H])c(C([H])([H])N([H])C(=O)Oc2c([H])c([H])c(C(F)(F)F)c([H])c2-c2c([H])c([H])c(N([H])S(=O)(=O)C([H])([H])C([H])([H])[H])c([H])c2[H])c(Cl)c1[H]


 36 38  0  0  0  0  0  0  0  0999 V2000
   20.1159    6.1180   53.4645 C   0  0  0  0  0  0  0  0  0  0  0  0
   18.7892    5.8387   53.6771 C   0  0  0  0  0  0  0  0  0  0  0  0
   18.3333    4.5412   53.8799 C   0  0  0  0  0  0  0  0  0  0  0  0
   19.2726    3.5477   53.8571 C   0  0  0  0  0  0  0  0  0  0  0  0
   20.6314    3.7653   53.6471 C   0  0  0  0  0  0  0  0  0  0  0  0
   21.0306    5.0865   53.4487 C   0  0  0  0  0  0  0  0  0  0  0  0
   21.3858   10.1361   52.9630 C   0  0  0  0  0  0  0  0  0  0  0  0
   21.1100    9.6471   54.2532 C   0  0  0  0  0  0  0  0  0  0  0  0
   20.7065    8.3385   54.3517 C   0  0  0  0  0  0  0  0  0  0  0  0
   20.5581    7.4866   53.2841 C   0  0  0  0  0  0  0  0  0  0  0  0
   20.8334    7.9827   52.0151 C   0  0  0  0  0  0  0  0  0  0  0  0
   21.2426    9.3119   51.9074 C   0  0  0  0  0  0  0  0  0  0  0  0
   21.8002   11.4919   52.9493 N   0  0  0  0  0  0  0  0  0  0  0  0
   22.2160   11.8867   53.8602 H   0  0  0  0  0  0  0  0  0  0  0  0
   21.7128   12.5820   51.6521 S   0  0  0  0  0  0  0  0  0  0  0  0
   23.0930   13.0902   51.2681 O   0  0  0  0  0  0  0  0  0  0  0  0
   21.1717   11.8892   50.4159 O   0  0  0  0  0  0  0  0  0  0  0  0
   20.0495   14.4337   50.6323 C   0  0  0  0  0  0  0  0  0  0  0  0
   20.6999   13.9988   51.9380 C   0  0  0  0  0  0  0  0  0  0  0  0
   16.8940    4.2365   54.1154 C   0  0  0  0  0  0  0  0  0  0  0  0
   16.1156    5.3585   53.8468 F   0  0  0  0  0  0  0  0  0  0  0  0
   16.4895    3.2127   53.2877 F   0  0  0  0  0  0  0  0  0  0  0  0
   16.6784    3.8156   55.4129 F   0  0  0  0  0  0  0  0  0  0  0  0
   22.3412    5.3345   53.2389 O   0  0  0  0  0  0  0  0  0  0  0  0
   23.2867    5.9565   54.0925 C   0  0  0  0  0  0  0  0  0  0  0  0
   23.3108    5.4069   55.2440 O   0  0  0  0  0  0  0  0  0  0  0  0
   24.0124    6.9983   53.6383 N   0  0  0  0  0  0  0  0  0  0  0  0
   24.5761    7.1693   54.8632 H   0  0  0  0  0  0  0  0  0  0  0  0
   24.7607    8.0706   53.1735 C   0  0  0  0  0  0  0  0  0  0  0  0
   25.8911    8.4388   54.0806 C   0  0  0  0  0  0  0  0  0  0  0  0
   27.2153    8.2244   53.7865 C   0  0  0  0  0  0  0  0  0  0  0  0
   28.2406    8.5311   54.6800 C   0  0  0  0  0  0  0  0  0  0  0  0
   27.9138    9.0726   55.9089 C   0  0  0  0  0  0  0  0  0  0  0  0
   26.5836    9.3125   56.2585 C   0  0  0  0  0  0  0  0  0  0  0  0
   25.6377    8.9836   55.3227 C   0  0  0  0  0  0  0  0  0  0  0  0
   23.9373    9.2903   55.6845 Cl  0  0  0  0  0  0  0  0  0  0  0  0
 18 19  1  0  0  0
 19 15  1  0  0  0
 15 16  2  0  0  0
 15 17  2  0  0  0
 15 13  1  0  0  0
 13  7  1  0  0  0
  7  8  2  0  0  0
  8  9  1  0  0  0
  9 10  2  0  0  0
 10 11  1  0  0  0
 11 12  2  0  0  0
 10  1  1  0  0  0
  1  2  2  0  0  0
  2  3  1  0  0  0
  3  4  2  0  0  0
  4  5  1  0  0  0
  5  6  2  0  0  0
  6 24  1  0  0  0
 24 25  1  0  0  0
 25 26  2  0  0  0
 25 27  1  0  0  0
 27 29  1  0  0  0
 29 30  1  0  0  0
 30 31  2  0  0  0
 31 32  1  0  0  0
 32 33  2  0  0  0
 33 34  1  0  0  0
 34 35  2  0  0  0
 35 36  1  0  0  0
  3 20  1  0  0  0
 20 21  1  0  0  0
 20 22  1  0  0  0
 20 23  1  0  0  0
 12  7  1  0  0  0
  6  1  1  0  0  0
 35 30  1  0  0  0
 13 14  1  0  0  0
 27 28  1  0  0  0
M  END
> <minimizedAffinity>
16.51880

> <CNNscore>
0.5102583170

> <CNNaffinity>
6.8891510963

> <CNN_VS>
3.5152466297

> <CNNaffinity_variance>
0.4374506474

$$$$
[H]c1c([H])c([H])c(C([H])([H])N([H])C(=O)Oc2c([H])c([H])c(C(F)(F)F)c([H])c2-c2c([H])c([H])c(N([H])S(=O)(=O)C([H])([H])C([H])([H])[H])c([H])c2[H])c(Cl)c1[H]


 36 38  0  0  0  0  0  0  0  0999 V2000
   20.2002    6.2865   53.4167 C   0  0  0  0  0  0  0  0  0  0  0  0
   18.8838    5.9611   53.6282 C   0  0  0  0  0  0  0  0  0  0  0  0
   18.4763    4.6510   53.8521 C   0  0  0  0  0  0  0  0  0  0  0  0
   19.4525    3.6935   53.8513 C   0  0  0  0  0  0  0  0  0  0  0  0
   20.8031    3.9587   53.6436 C   0  0  0  0  0  0  0  0  0  0  0  0
   21.1532    5.2903   53.4236 C   0  0  0  0  0  0  0  0  0  0  0  0
   21.3218   10.3402   52.8510 C   0  0  0  0  0  0  0  0  0  0  0  0
   21.1302    9.8442   54.1538 C   0  0  0  0  0  0  0  0  0  0  0  0
   20.7715    8.5243   54.2727 C   0  0  0  0  0  0  0  0  0  0  0  0
   20.5913    7.6675   53.2139 C   0  0  0  0  0  0  0  0  0  0  0  0
   20.7834    8.1705   51.9325 C   0  0  0  0  0  0  0  0  0  0  0  0
   21.1466    9.5112   51.8039 C   0  0  0  0  0  0  0  0  0  0  0  0
   21.6945   11.7076   52.8162 N   0  0  0  0  0  0  0  0  0  0  0  0
   22.0567   12.1405   53.7326 H   0  0  0  0  0  0  0  0  0  0  0  0
   21.6320   12.7580   51.4852 S   0  0  0  0  0  0  0  0  0  0  0  0
   23.0075   13.3193   51.1638 O   0  0  0  0  0  0  0  0  0  0  0  0
   21.1932   12.0087   50.2415 O   0  0  0  0  0  0  0  0  0  0  0  0
   20.0217   14.1807   53.1035 C   0  0  0  0  0  0  0  0  0  0  0  0
   20.5422   14.1335   51.6738 C   0  0  0  0  0  0  0  0  0  0  0  0
   17.0483    4.2962   54.0864 C   0  0  0  0  0  0  0  0  0  0  0  0
   16.6802    3.2265   53.2757 F   0  0  0  0  0  0  0  0  0  0  0  0
   16.8646    3.9336   55.4024 F   0  0  0  0  0  0  0  0  0  0  0  0
   16.2197    5.3744   53.8454 F   0  0  0  0  0  0  0  0  0  0  0  0
   22.4546    5.5840   53.2153 O   0  0  0  0  0  0  0  0  0  0  0  0
   23.4165    6.0982   54.1208 C   0  0  0  0  0  0  0  0  0  0  0  0
   23.4583    5.4148   55.1977 O   0  0  0  0  0  0  0  0  0  0  0  0
   24.1381    7.1858   53.7818 N   0  0  0  0  0  0  0  0  0  0  0  0
   24.7229    7.2084   55.0085 H   0  0  0  0  0  0  0  0  0  0  0  0
   24.8820    8.3049   53.4357 C   0  0  0  0  0  0  0  0  0  0  0  0
   26.0040    8.5843   54.3841 C   0  0  0  0  0  0  0  0  0  0  0  0
   25.8460    8.7363   55.7399 C   0  0  0  0  0  0  0  0  0  0  0  0
   26.9075    9.0502   56.5874 C   0  0  0  0  0  0  0  0  0  0  0  0
   28.1678    9.2141   56.0444 C   0  0  0  0  0  0  0  0  0  0  0  0
   28.3846    9.0694   54.6728 C   0  0  0  0  0  0  0  0  0  0  0  0
   27.2881    8.7595   53.9109 C   0  0  0  0  0  0  0  0  0  0  0  0
   27.4946    8.5294   52.1730 Cl  0  0  0  0  0  0  0  0  0  0  0  0
 18 19  1  0  0  0
 19 15  1  0  0  0
 15 16  2  0  0  0
 15 17  2  0  0  0
 15 13  1  0  0  0
 13  7  1  0  0  0
  7  8  2  0  0  0
  8  9  1  0  0  0
  9 10  2  0  0  0
 10 11  1  0  0  0
 11 12  2  0  0  0
 10  1  1  0  0  0
  1  2  2  0  0  0
  2  3  1  0  0  0
  3  4  2  0  0  0
  4  5  1  0  0  0
  5  6  2  0  0  0
  6 24  1  0  0  0
 24 25  1  0  0  0
 25 26  2  0  0  0
 25 27  1  0  0  0
 27 29  1  0  0  0
 29 30  1  0  0  0
 30 31  2  0  0  0
 31 32  1  0  0  0
 32 33  2  0  0  0
 33 34  1  0  0  0
 34 35  2  0  0  0
 35 36  1  0  0  0
  3 20  1  0  0  0
 20 21  1  0  0  0
 20 22  1  0  0  0
 20 23  1  0  0  0
 12  7  1  0  0  0
  6  1  1  0  0  0
 35 30  1  0  0  0
 13 14  1  0  0  0
 27 28  1  0  0  0
M  END
> <minimizedAffinity>
18.64140

> <CNNscore>
0.4995198548

> <CNNaffinity>
6.6295342445

> <CNN_VS>
3.3115839958

> <CNNaffinity_variance>
0.4594825208

$$$$
[H]c1c([H])c([H])c(C([H])([H])N([H])C(=O)Oc2c([H])c([H])c(C(F)(F)F)c([H])c2-c2c([H])c([H])c(N([H])S(=O)(=O)C([H])([H])C([H])([H])[H])c([H])c2[H])c(Cl)c1[H]


 36 38  0  0  0  0  0  0  0  0999 V2000
   24.4339    8.0273   54.7381 C   0  0  0  0  0  0  0  0  0  0  0  0
   25.6451    7.8300   54.1237 C   0  0  0  0  0  0  0  0  0  0  0  0
   26.8092    8.4380   54.5790 C   0  0  0  0  0  0  0  0  0  0  0  0
   26.6931    9.2486   55.6742 C   0  0  0  0  0  0  0  0  0  0  0  0
   25.4953    9.4889   56.3415 C   0  0  0  0  0  0  0  0  0  0  0  0
   24.3605    8.8530   55.8398 C   0  0  0  0  0  0  0  0  0  0  0  0
   20.9602    6.0304   53.3397 C   0  0  0  0  0  0  0  0  0  0  0  0
   21.2168    6.0999   54.7215 C   0  0  0  0  0  0  0  0  0  0  0  0
   22.3541    6.7619   55.1126 C   0  0  0  0  0  0  0  0  0  0  0  0
   23.2458    7.3545   54.2515 C   0  0  0  0  0  0  0  0  0  0  0  0
   22.9805    7.2780   52.8892 C   0  0  0  0  0  0  0  0  0  0  0  0
   21.8273    6.6056   52.4844 C   0  0  0  0  0  0  0  0  0  0  0  0
   19.7662    5.3355   53.0210 N   0  0  0  0  0  0  0  0  0  0  0  0
   19.0634    5.8375   52.3787 H   0  0  0  0  0  0  0  0  0  0  0  0
   19.3050    3.7883   53.5428 S   0  0  0  0  0  0  0  0  0  0  0  0
   20.0942    2.7079   52.8215 O   0  0  0  0  0  0  0  0  0  0  0  0
   19.6198    3.6125   55.0162 O   0  0  0  0  0  0  0  0  0  0  0  0
   16.7873    4.0405   54.4554 C   0  0  0  0  0  0  0  0  0  0  0  0
   17.5943    3.4105   53.3290 C   0  0  0  0  0  0  0  0  0  0  0  0
   28.1259    8.2214   53.9162 C   0  0  0  0  0  0  0  0  0  0  0  0
   29.1477    8.7648   54.6894 F   0  0  0  0  0  0  0  0  0  0  0  0
   28.3591    6.8724   53.7652 F   0  0  0  0  0  0  0  0  0  0  0  0
   28.1467    8.7785   52.6527 F   0  0  0  0  0  0  0  0  0  0  0  0
   23.1804    9.0658   56.4606 O   0  0  0  0  0  0  0  0  0  0  0  0
   22.0862    9.8731   56.0598 C   0  0  0  0  0  0  0  0  0  0  0  0
   21.7653   10.7111   56.9673 O   0  0  0  0  0  0  0  0  0  0  0  0
   21.5272    9.6858   54.8470 N   0  0  0  0  0  0  0  0  0  0  0  0
   20.5682   10.6091   55.1211 H   0  0  0  0  0  0  0  0  0  0  0  0
   20.9501    9.4953   53.5995 C   0  0  0  0  0  0  0  0  0  0  0  0
   21.2387   10.6054   52.6399 C   0  0  0  0  0  0  0  0  0  0  0  0
   21.6564   11.8586   53.0157 C   0  0  0  0  0  0  0  0  0  0  0  0
   21.8639   12.8862   52.0966 C   0  0  0  0  0  0  0  0  0  0  0  0
   21.6422   12.6357   50.7557 C   0  0  0  0  0  0  0  0  0  0  0  0
   21.2185   11.3792   50.3190 C   0  0  0  0  0  0  0  0  0  0  0  0
   21.0394   10.4251   51.2866 C   0  0  0  0  0  0  0  0  0  0  0  0
   20.5361    8.8038   50.8029 Cl  0  0  0  0  0  0  0  0  0  0  0  0
 18 19  1  0  0  0
 19 15  1  0  0  0
 15 16  2  0  0  0
 15 17  2  0  0  0
 15 13  1  0  0  0
 13  7  1  0  0  0
  7  8  2  0  0  0
  8  9  1  0  0  0
  9 10  2  0  0  0
 10 11  1  0  0  0
 11 12  2  0  0  0
 10  1  1  0  0  0
  1  2  2  0  0  0
  2  3  1  0  0  0
  3  4  2  0  0  0
  4  5  1  0  0  0
  5  6  2  0  0  0
  6 24  1  0  0  0
 24 25  1  0  0  0
 25 26  2  0  0  0
 25 27  1  0  0  0
 27 29  1  0  0  0
 29 30  1  0  0  0
 30 31  2  0  0  0
 31 32  1  0  0  0
 32 33  2  0  0  0
 33 34  1  0  0  0
 34 35  2  0  0  0
 35 36  1  0  0  0
  3 20  1  0  0  0
 20 21  1  0  0  0
 20 22  1  0  0  0
 20 23  1  0  0  0
 12  7  1  0  0  0
  6  1  1  0  0  0
 35 30  1  0  0  0
 13 14  1  0  0  0
 27 28  1  0  0  0
M  END
> <minimizedAffinity>
22.42418

> <CNNscore>
0.4979230762

> <CNNaffinity>
6.7494263649

> <CNN_VS>
3.3606951237

> <CNNaffinity_variance>
0.6852959394

$$$$
[H]c1c([H])c([H])c(C([H])([H])N([H])C(=O)Oc2c([H])c([H])c(C(F)(F)F)c([H])c2-c2c([H])c([H])c(N([H])S(=O)(=O)C([H])([H])C([H])([H])[H])c([H])c2[H])c(Cl)c1[H]


 36 38  0  0  0  0  0  0  0  0999 V2000
   24.7196    7.9547   54.9190 C   0  0  0  0  0  0  0  0  0  0  0  0
   25.9905    7.7688   54.4355 C   0  0  0  0  0  0  0  0  0  0  0  0
   27.0634    8.5380   54.8709 C   0  0  0  0  0  0  0  0  0  0  0  0
   26.7943    9.4961   55.8087 C   0  0  0  0  0  0  0  0  0  0  0  0
   25.5290    9.7336   56.3382 C   0  0  0  0  0  0  0  0  0  0  0  0
   24.4912    8.9323   55.8640 C   0  0  0  0  0  0  0  0  0  0  0  0
   21.5263    5.5181   53.5493 C   0  0  0  0  0  0  0  0  0  0  0  0
   22.4627    6.0242   52.6289 C   0  0  0  0  0  0  0  0  0  0  0  0
   23.4747    6.8031   53.1326 C   0  0  0  0  0  0  0  0  0  0  0  0
   23.6302    7.1148   54.4617 C   0  0  0  0  0  0  0  0  0  0  0  0
   22.6980    6.6088   55.3600 C   0  0  0  0  0  0  0  0  0  0  0  0
   21.6661    5.8176   54.8551 C   0  0  0  0  0  0  0  0  0  0  0  0
   20.5186    4.7212   52.9498 N   0  0  0  0  0  0  0  0  0  0  0  0
   20.5244    4.6497   51.8758 H   0  0  0  0  0  0  0  0  0  0  0  0
   19.2850    3.8597   53.7339 S   0  0  0  0  0  0  0  0  0  0  0  0
   18.8707    2.6390   52.9285 O   0  0  0  0  0  0  0  0  0  0  0  0
   19.7783    3.3254   55.0651 O   0  0  0  0  0  0  0  0  0  0  0  0
   16.6322    3.8435   54.1783 C   0  0  0  0  0  0  0  0  0  0  0  0
   17.8196    4.7883   54.0584 C   0  0  0  0  0  0  0  0  0  0  0  0
   28.4447    8.3346   54.3506 C   0  0  0  0  0  0  0  0  0  0  0  0
   28.4386    7.3894   53.3290 F   0  0  0  0  0  0  0  0  0  0  0  0
   28.9368    9.5196   53.8498 F   0  0  0  0  0  0  0  0  0  0  0  0
   29.3030    7.9338   55.3555 F   0  0  0  0  0  0  0  0  0  0  0  0
   23.2495    9.1370   56.3535 O   0  0  0  0  0  0  0  0  0  0  0  0
   22.2863   10.1093   55.9841 C   0  0  0  0  0  0  0  0  0  0  0  0
   21.6995   10.5991   57.0061 O   0  0  0  0  0  0  0  0  0  0  0  0
   22.0939   10.3970   54.6808 N   0  0  0  0  0  0  0  0  0  0  0  0
   21.0686   11.2328   54.9931 H   0  0  0  0  0  0  0  0  0  0  0  0
   21.8937   10.6950   53.3403 C   0  0  0  0  0  0  0  0  0  0  0  0
   21.2465    9.5826   52.5787 C   0  0  0  0  0  0  0  0  0  0  0  0
   21.3386    9.4264   51.2173 C   0  0  0  0  0  0  0  0  0  0  0  0
   20.6768    8.4076   50.5335 C   0  0  0  0  0  0  0  0  0  0  0  0
   19.8986    7.5193   51.2515 C   0  0  0  0  0  0  0  0  0  0  0  0
   19.7716    7.6314   52.6373 C   0  0  0  0  0  0  0  0  0  0  0  0
   20.4556    8.6598   53.2317 C   0  0  0  0  0  0  0  0  0  0  0  0
   20.3669    8.8420   54.9853 Cl  0  0  0  0  0  0  0  0  0  0  0  0
 18 19  1  0  0  0
 19 15  1  0  0  0
 15 16  2  0  0  0
 15 17  2  0  0  0
 15 13  1  0  0  0
 13  7  1  0  0  0
  7  8  2  0  0  0
  8  9  1  0  0  0
  9 10  2  0  0  0
 10 11  1  0  0  0
 11 12  2  0  0  0
 10  1  1  0  0  0
  1  2  2  0  0  0
  2  3  1  0  0  0
  3  4  2  0  0  0
  4  5  1  0  0  0
  5  6  2  0  0  0
  6 24  1  0  0  0
 24 25  1  0  0  0
 25 26  2  0  0  0
 25 27  1  0  0  0
 27 29  1  0  0  0
 29 30  1  0  0  0
 30 31  2  0  0  0
 31 32  1  0  0  0
 32 33  2  0  0  0
 33 34  1  0  0  0
 34 35  2  0  0  0
 35 36  1  0  0  0
  3 20  1  0  0  0
 20 21  1  0  0  0
 20 22  1  0  0  0
 20 23  1  0  0  0
 12  7  1  0  0  0
  6  1  1  0  0  0
 35 30  1  0  0  0
 13 14  1  0  0  0
 27 28  1  0  0  0
M  END
> <minimizedAffinity>
23.16235

> <CNNscore>
0.4832610488

> <CNNaffinity>
6.7338933945

> <CNN_VS>
3.2542283535

> <CNNaffinity_variance>
0.5174666643

$$$$
[H]c1c([H])c([H])c(C([H])([H])N([H])C(=O)Oc2c([H])c([H])c(C(F)(F)F)c([H])c2-c2c([H])c([H])c(N([H])S(=O)(=O)C([H])([H])C([H])([H])[H])c([H])c2[H])c(Cl)c1[H]


 36 38  0  0  0  0  0  0  0  0999 V2000
   20.2129    6.2395   53.5621 C   0  0  0  0  0  0  0  0  0  0  0  0
   18.8945    5.9151   53.7621 C   0  0  0  0  0  0  0  0  0  0  0  0
   18.4646    4.5954   53.8386 C   0  0  0  0  0  0  0  0  0  0  0  0
   19.4209    3.6272   53.7039 C   0  0  0  0  0  0  0  0  0  0  0  0
   20.7724    3.8907   53.4998 C   0  0  0  0  0  0  0  0  0  0  0  0
   21.1453    5.2325   53.4308 C   0  0  0  0  0  0  0  0  0  0  0  0
   21.4543   10.2944   53.3980 C   0  0  0  0  0  0  0  0  0  0  0  0
   21.3537    9.5465   52.2103 C   0  0  0  0  0  0  0  0  0  0  0  0
   20.9437    8.2416   52.3273 C   0  0  0  0  0  0  0  0  0  0  0  0
   20.6282    7.6275   53.5152 C   0  0  0  0  0  0  0  0  0  0  0  0
   20.7324    8.3776   54.6808 C   0  0  0  0  0  0  0  0  0  0  0  0
   21.1497    9.7040   54.5696 C   0  0  0  0  0  0  0  0  0  0  0  0
   21.8785   11.6310   53.1898 N   0  0  0  0  0  0  0  0  0  0  0  0
   22.4167   12.1052   53.9923 H   0  0  0  0  0  0  0  0  0  0  0  0
   21.6310   12.5865   51.8097 S   0  0  0  0  0  0  0  0  0  0  0  0
   20.7364   13.7759   52.1188 O   0  0  0  0  0  0  0  0  0  0  0  0
   22.9451   13.1743   51.3319 O   0  0  0  0  0  0  0  0  0  0  0  0
   20.2907   12.7497   49.4833 C   0  0  0  0  0  0  0  0  0  0  0  0
   20.9120   11.7400   50.4380 C   0  0  0  0  0  0  0  0  0  0  0  0
   17.0345    4.2411   54.0603 C   0  0  0  0  0  0  0  0  0  0  0  0
   16.6578    3.2087   53.2063 F   0  0  0  0  0  0  0  0  0  0  0  0
   16.8499    3.8253   55.3603 F   0  0  0  0  0  0  0  0  0  0  0  0
   16.2132    5.3342   53.8657 F   0  0  0  0  0  0  0  0  0  0  0  0
   22.4482    5.5252   53.2306 O   0  0  0  0  0  0  0  0  0  0  0  0
   23.3994    6.0590   54.1361 C   0  0  0  0  0  0  0  0  0  0  0  0
   23.4286    5.3987   55.2278 O   0  0  0  0  0  0  0  0  0  0  0  0
   24.1247    7.1394   53.7825 N   0  0  0  0  0  0  0  0  0  0  0  0
   24.6952    7.1883   55.0151 H   0  0  0  0  0  0  0  0  0  0  0  0
   24.8725    8.2512   53.4213 C   0  0  0  0  0  0  0  0  0  0  0  0
   25.9796    8.5546   54.3797 C   0  0  0  0  0  0  0  0  0  0  0  0
   25.8010    8.7383   55.7289 C   0  0  0  0  0  0  0  0  0  0  0  0
   26.8492    9.0738   56.5847 C   0  0  0  0  0  0  0  0  0  0  0  0
   28.1174    9.2267   56.0571 C   0  0  0  0  0  0  0  0  0  0  0  0
   28.3550    9.0500   54.6928 C   0  0  0  0  0  0  0  0  0  0  0  0
   27.2706    8.7205   53.9219 C   0  0  0  0  0  0  0  0  0  0  0  0
   27.5037    8.4498   52.1932 Cl  0  0  0  0  0  0  0  0  0  0  0  0
 18 19  1  0  0  0
 19 15  1  0  0  0
 15 16  2  0  0  0
 15 17  2  0  0  0
 15 13  1  0  0  0
 13  7  1  0  0  0
  7  8  2  0  0  0
  8  9  1  0  0  0
  9 10  2  0  0  0
 10 11  1  0  0  0
 11 12  2  0  0  0
 10  1  1  0  0  0
  1  2  2  0  0  0
  2  3  1  0  0  0
  3  4  2  0  0  0
  4  5  1  0  0  0
  5  6  2  0  0  0
  6 24  1  0  0  0
 24 25  1  0  0  0
 25 26  2  0  0  0
 25 27  1  0  0  0
 27 29  1  0  0  0
 29 30  1  0  0  0
 30 31  2  0  0  0
 31 32  1  0  0  0
 32 33  2  0  0  0
 33 34  1  0  0  0
 34 35  2  0  0  0
 35 36  1  0  0  0
  3 20  1  0  0  0
 20 21  1  0  0  0
 20 22  1  0  0  0
 20 23  1  0  0  0
 12  7  1  0  0  0
  6  1  1  0  0  0
 35 30  1  0  0  0
 13 14  1  0  0  0
 27 28  1  0  0  0
M  END
> <minimizedAffinity>
21.83706

> <CNNscore>
0.4773302972

> <CNNaffinity>
6.4659295082

> <CNN_VS>
3.0863840580

> <CNNaffinity_variance>
0.4189924300

$$$$
[H]c1c([H])c([H])c(C([H])([H])N([H])C(=O)Oc2c([H])c([H])c(C(F)(F)F)c([H])c2-c2c([H])c([H])c(N([H])S(=O)(=O)C([H])([H])C([H])([H])[H])c([H])c2[H])c(Cl)c1[H]


 36 38  0  0  0  0  0  0  0  0999 V2000
   21.8295    7.0405   53.8358 C   0  0  0  0  0  0  0  0  0  0  0  0
   20.7078    6.2878   53.5936 C   0  0  0  0  0  0  0  0  0  0  0  0
   20.6835    4.9140   53.8045 C   0  0  0  0  0  0  0  0  0  0  0  0
   21.8360    4.3413   54.2667 C   0  0  0  0  0  0  0  0  0  0  0  0
   23.0051    5.0487   54.5318 C   0  0  0  0  0  0  0  0  0  0  0  0
   22.9711    6.4234   54.3011 C   0  0  0  0  0  0  0  0  0  0  0  0
   21.7907   11.2367   53.2028 C   0  0  0  0  0  0  0  0  0  0  0  0
   21.6765   10.3640   52.1049 C   0  0  0  0  0  0  0  0  0  0  0  0
   21.6919    9.0178   52.3734 C   0  0  0  0  0  0  0  0  0  0  0  0
   21.8090    8.4753   53.6303 C   0  0  0  0  0  0  0  0  0  0  0  0
   21.9215    9.3486   54.7058 C   0  0  0  0  0  0  0  0  0  0  0  0
   21.9079   10.7180   54.4403 C   0  0  0  0  0  0  0  0  0  0  0  0
   21.7613   12.6071   52.8407 N   0  0  0  0  0  0  0  0  0  0  0  0
   21.8347   13.3265   53.6379 H   0  0  0  0  0  0  0  0  0  0  0  0
   21.6173   13.2566   51.2799 S   0  0  0  0  0  0  0  0  0  0  0  0
   22.9068   13.9345   50.8463 O   0  0  0  0  0  0  0  0  0  0  0  0
   21.3738   12.1523   50.2689 O   0  0  0  0  0  0  0  0  0  0  0  0
   19.4372   14.4380   52.3223 C   0  0  0  0  0  0  0  0  0  0  0  0
   20.3196   14.4365   51.0820 C   0  0  0  0  0  0  0  0  0  0  0  0
   19.4653    4.0958   53.5465 C   0  0  0  0  0  0  0  0  0  0  0  0
   19.7007    3.1986   52.5088 F   0  0  0  0  0  0  0  0  0  0  0  0
   19.1309    3.3827   54.6764 F   0  0  0  0  0  0  0  0  0  0  0  0
   18.3824    4.8955   53.2387 F   0  0  0  0  0  0  0  0  0  0  0  0
   24.0887    7.1411   54.5446 O   0  0  0  0  0  0  0  0  0  0  0  0
   24.9550    7.7936   53.6317 C   0  0  0  0  0  0  0  0  0  0  0  0
   24.3439    8.1256   52.5617 O   0  0  0  0  0  0  0  0  0  0  0  0
   26.2501    7.9809   53.9579 N   0  0  0  0  0  0  0  0  0  0  0  0
   26.5076    8.5030   52.7297 H   0  0  0  0  0  0  0  0  0  0  0  0
   27.5831    8.1750   54.2909 C   0  0  0  0  0  0  0  0  0  0  0  0
   27.7687    8.9631   55.5482 C   0  0  0  0  0  0  0  0  0  0  0  0
   27.1526    8.6679   56.7396 C   0  0  0  0  0  0  0  0  0  0  0  0
   27.3066    9.4572   57.8785 C   0  0  0  0  0  0  0  0  0  0  0  0
   28.1104   10.5793   57.8080 C   0  0  0  0  0  0  0  0  0  0  0  0
   28.7614   10.9245   56.6222 C   0  0  0  0  0  0  0  0  0  0  0  0
   28.5575   10.0951   55.5502 C   0  0  0  0  0  0  0  0  0  0  0  0
   29.3757   10.4527   54.0274 Cl  0  0  0  0  0  0  0  0  0  0  0  0
 18 19  1  0  0  0
 19 15  1  0  0  0
 15 16  2  0  0  0
 15 17  2  0  0  0
 15 13  1  0  0  0
 13  7  1  0  0  0
  7  8  2  0  0  0
  8  9  1  0  0  0
  9 10  2  0  0  0
 10 11  1  0  0  0
 11 12  2  0  0  0
 10  1  1  0  0  0
  1  2  2  0  0  0
  2  3  1  0  0  0
  3  4  2  0  0  0
  4  5  1  0  0  0
  5  6  2  0  0  0
  6 24  1  0  0  0
 24 25  1  0  0  0
 25 26  2  0  0  0
 25 27  1  0  0  0
 27 29  1  0  0  0
 29 30  1  0  0  0
 30 31  2  0  0  0
 31 32  1  0  0  0
 32 33  2  0  0  0
 33 34  1  0  0  0
 34 35  2  0  0  0
 35 36  1  0  0  0
  3 20  1  0  0  0
 20 21  1  0  0  0
 20 22  1  0  0  0
 20 23  1  0  0  0
 12  7  1  0  0  0
  6  1  1  0  0  0
 35 30  1  0  0  0
 13 14  1  0  0  0
 27 28  1  0  0  0
M  END
> <minimizedAffinity>
24.12867

> <CNNscore>
0.4772992134

> <CNNaffinity>
6.3667640686

> <CNN_VS>
3.0388514996

> <CNNaffinity_variance>
0.3177071214

$$$$
[H]c1c([H])c(-c2nc([C@]([H])(N([H])C(=O)N([H])c3nc4c([H])c([H])c([H])c([H])c4c(F)c3[H])C([H])([H])[H])no2)c([H])c(C([H])([H])[H])c1Cl


 32 35  0  0  0  0  0  0  0  0999 V2000
   23.0163    7.1898   53.2621 N   0  0  0  0  0  0  0  0  0  0  0  0
   23.9246    8.0023   54.0406 C   0  0  0  0  0  0  0  0  0  0  0  0
   23.4550    8.9796   54.6897 O   0  0  0  0  0  0  0  0  0  0  0  0
   25.2771    7.6821   54.0477 N   0  0  0  0  0  0  0  0  0  0  0  0
   23.4445    6.3924   52.7449 H   0  0  0  0  0  0  0  0  0  0  0  0
   25.5301    6.8143   53.4434 H   0  0  0  0  0  0  0  0  0  0  0  0
   26.3448    8.3293   54.7287 C   0  0  0  0  0  0  0  0  0  0  0  0
   27.4672    8.8420   54.1415 C   0  0  0  0  0  0  0  0  0  0  0  0
   28.4672    9.4579   54.9123 C   0  0  0  0  0  0  0  0  0  0  0  0
   29.5738    9.9588   54.3137 F   0  0  0  0  0  0  0  0  0  0  0  0
   28.3521    9.5668   56.2782 C   0  0  0  0  0  0  0  0  0  0  0  0
   29.3262   10.1689   57.0585 C   0  0  0  0  0  0  0  0  0  0  0  0
   29.2020   10.2716   58.4284 C   0  0  0  0  0  0  0  0  0  0  0  0
   28.0605    9.7467   58.9968 C   0  0  0  0  0  0  0  0  0  0  0  0
   27.0873    9.1464   58.2254 C   0  0  0  0  0  0  0  0  0  0  0  0
   27.2116    9.0418   56.8372 C   0  0  0  0  0  0  0  0  0  0  0  0
   26.2741    8.4611   56.0925 N   0  0  0  0  0  0  0  0  0  0  0  0
   21.6222    7.4989   53.2325 C   0  0  0  0  0  0  0  0  0  0  0  0
   20.9324    7.0629   51.9759 C   0  0  0  0  0  0  0  0  0  0  0  0
   21.2910   11.1297   52.8918 C   0  0  0  0  0  0  0  0  0  0  0  0
   21.5232    9.9146   52.3850 N   0  0  0  0  0  0  0  0  0  0  0  0
   21.4393    8.9903   53.3389 C   0  0  0  0  0  0  0  0  0  0  0  0
   21.1421    9.6758   54.4804 N   0  0  0  0  0  0  0  0  0  0  0  0
   21.0596   10.9373   54.1922 O   0  0  0  0  0  0  0  0  0  0  0  0
   19.3929   15.7139   52.4123 C   0  0  0  0  0  0  0  0  0  0  0  0
   20.3639   14.6681   52.0000 C   0  0  0  0  0  0  0  0  0  0  0  0
   20.3865   13.4175   52.6075 C   0  0  0  0  0  0  0  0  0  0  0  0
   21.2735   12.4348   52.2438 C   0  0  0  0  0  0  0  0  0  0  0  0
   22.1652   12.7212   51.2355 C   0  0  0  0  0  0  0  0  0  0  0  0
   22.1703   13.9642   50.6056 C   0  0  0  0  0  0  0  0  0  0  0  0
   21.2632   14.9196   51.0035 C   0  0  0  0  0  0  0  0  0  0  0  0
   21.2909   16.4937   50.1894 Cl  0  0  0  0  0  0  0  0  0  0  0  0
 25 26  1  0  0  0
 26 27  2  0  0  0
 27 28  1  0  0  0
 28 29  2  0  0  0
 29 30  1  0  0  0
 30 31  2  0  0  0
 31 32  1  0  0  0
 28 20  1  0  0  0
 20 21  2  0  0  0
 21 22  1  0  0  0
 22 23  2  0  0  0
 23 24  1  0  0  0
 22 18  1  0  0  0
 18 19  1  0  0  0
 18  1  1  0  0  0
  1  2  1  0  0  0
  2  3  2  0  0  0
  2  4  1  0  0  0
  4  7  1  0  0  0
  7  8  2  0  0  0
  8  9  1  0  0  0
  9 10  1  0  0  0
  9 11  2  0  0  0
 11 12  1  0  0  0
 12 13  2  0  0  0
 13 14  1  0  0  0
 14 15  2  0  0  0
 15 16  1  0  0  0
 16 17  2  0  0  0
 31 26  1  0  0  0
 24 20  1  0  0  0
 17  7  1  0  0  0
 16 11  1  0  0  0
  1  5  1  0  0  0
  4  6  1  0  0  0
M  END
> <minimizedAffinity>
23.86455

> <CNNscore>
0.5474559665

> <CNNaffinity>
6.2630448341

> <CNN_VS>
3.4287412167

> <CNNaffinity_variance>
0.2171868533

$$$$
[H]c1c([H])c(-c2nc([C@]([H])(N([H])C(=O)N([H])c3nc4c([H])c([H])c([H])c([H])c4c(F)c3[H])C([H])([H])[H])no2)c([H])c(C([H])([H])[H])c1Cl


 32 35  0  0  0  0  0  0  0  0999 V2000
   28.0597    9.6453   53.8945 N   0  0  0  0  0  0  0  0  0  0  0  0
   28.1323    9.3737   52.4760 C   0  0  0  0  0  0  0  0  0  0  0  0
   27.9489    8.1883   52.0783 O   0  0  0  0  0  0  0  0  0  0  0  0
   28.4006   10.4211   51.6026 N   0  0  0  0  0  0  0  0  0  0  0  0
   28.2139   10.6364   54.1790 H   0  0  0  0  0  0  0  0  0  0  0  0
   28.5332   11.3830   52.0918 H   0  0  0  0  0  0  0  0  0  0  0  0
   28.5200   10.3945   50.1857 C   0  0  0  0  0  0  0  0  0  0  0  0
   28.5273   11.4894   49.3680 C   0  0  0  0  0  0  0  0  0  0  0  0
   28.6445   11.3487   47.9752 C   0  0  0  0  0  0  0  0  0  0  0  0
   28.6481   12.4447   47.1800 F   0  0  0  0  0  0  0  0  0  0  0  0
   28.7562   10.1101   47.3884 C   0  0  0  0  0  0  0  0  0  0  0  0
   28.8715    9.9473   46.0171 C   0  0  0  0  0  0  0  0  0  0  0  0
   28.9814    8.7003   45.4380 C   0  0  0  0  0  0  0  0  0  0  0  0
   28.9716    7.6116   46.2843 C   0  0  0  0  0  0  0  0  0  0  0  0
   28.8572    7.7672   47.6500 C   0  0  0  0  0  0  0  0  0  0  0  0
   28.7461    9.0302   48.2383 C   0  0  0  0  0  0  0  0  0  0  0  0
   28.6338    9.1811   49.5556 N   0  0  0  0  0  0  0  0  0  0  0  0
   27.7906    8.5872   54.8152 C   0  0  0  0  0  0  0  0  0  0  0  0
   28.7227    7.4212   54.6861 C   0  0  0  0  0  0  0  0  0  0  0  0
   24.3455    7.7885   53.8659 C   0  0  0  0  0  0  0  0  0  0  0  0
   25.4417    8.5503   53.7932 N   0  0  0  0  0  0  0  0  0  0  0  0
   26.3978    8.0639   54.5810 C   0  0  0  0  0  0  0  0  0  0  0  0
   25.8573    6.9533   55.1606 N   0  0  0  0  0  0  0  0  0  0  0  0
   24.6449    6.8106   54.7236 O   0  0  0  0  0  0  0  0  0  0  0  0
   20.9856   10.5396   51.4184 C   0  0  0  0  0  0  0  0  0  0  0  0
   21.4166    9.2423   51.9995 C   0  0  0  0  0  0  0  0  0  0  0  0
   22.6392    9.1070   52.6480 C   0  0  0  0  0  0  0  0  0  0  0  0
   23.0593    7.9192   53.1933 C   0  0  0  0  0  0  0  0  0  0  0  0
   22.2206    6.8339   53.0824 C   0  0  0  0  0  0  0  0  0  0  0  0
   20.9887    6.9343   52.4386 C   0  0  0  0  0  0  0  0  0  0  0  0
   20.6089    8.1451   51.9061 C   0  0  0  0  0  0  0  0  0  0  0  0
   19.0391    8.2473   51.0898 Cl  0  0  0  0  0  0  0  0  0  0  0  0
 25 26  1  0  0  0
 26 27  2  0  0  0
 27 28  1  0  0  0
 28 29  2  0  0  0
 29 30  1  0  0  0
 30 31  2  0  0  0
 31 32  1  0  0  0
 28 20  1  0  0  0
 20 21  2  0  0  0
 21 22  1  0  0  0
 22 23  2  0  0  0
 23 24  1  0  0  0
 22 18  1  0  0  0
 18 19  1  0  0  0
 18  1  1  0  0  0
  1  2  1  0  0  0
  2  3  2  0  0  0
  2  4  1  0  0  0
  4  7  1  0  0  0
  7  8  2  0  0  0
  8  9  1  0  0  0
  9 10  1  0  0  0
  9 11  2  0  0  0
 11 12  1  0  0  0
 12 13  2  0  0  0
 13 14  1  0  0  0
 14 15  2  0  0  0
 15 16  1  0  0  0
 16 17  2  0  0  0
 31 26  1  0  0  0
 24 20  1  0  0  0
 17  7  1  0  0  0
 16 11  1  0  0  0
  1  5  1  0  0  0
  4  6  1  0  0  0
M  END
> <minimizedAffinity>
26.71938

> <CNNscore>
0.5435489416

> <CNNaffinity>
6.4433441162

> <CNN_VS>
3.5022728443

> <CNNaffinity_variance>
0.3440808654

$$$$
[H]c1c([H])c(-c2nc([C@]([H])(N([H])C(=O)N([H])c3nc4c([H])c([H])c([H])c([H])c4c(F)c3[H])C([H])([H])[H])no2)c([H])c(C([H])([H])[H])c1Cl


 32 35  0  0  0  0  0  0  0  0999 V2000
   27.1148    9.2989   55.9292 N   0  0  0  0  0  0  0  0  0  0  0  0
   28.0062    9.7267   56.9844 C   0  0  0  0  0  0  0  0  0  0  0  0
   29.0818    9.0875   57.1619 O   0  0  0  0  0  0  0  0  0  0  0  0
   27.6508   10.8211   57.7640 N   0  0  0  0  0  0  0  0  0  0  0  0
   26.2407    9.8554   55.8151 H   0  0  0  0  0  0  0  0  0  0  0  0
   26.6981   11.2685   57.4913 H   0  0  0  0  0  0  0  0  0  0  0  0
   28.3581   11.4151   58.8454 C   0  0  0  0  0  0  0  0  0  0  0  0
   29.1386   10.7474   59.7469 C   0  0  0  0  0  0  0  0  0  0  0  0
   29.7901   11.4342   60.7848 C   0  0  0  0  0  0  0  0  0  0  0  0
   30.5581   10.7562   61.6703 F   0  0  0  0  0  0  0  0  0  0  0  0
   29.6667   12.7961   60.9291 C   0  0  0  0  0  0  0  0  0  0  0  0
   30.2990   13.4941   61.9457 C   0  0  0  0  0  0  0  0  0  0  0  0
   30.1675   14.8602   62.0828 C   0  0  0  0  0  0  0  0  0  0  0  0
   29.3749   15.5107   61.1608 C   0  0  0  0  0  0  0  0  0  0  0  0
   28.7431   14.8216   60.1467 C   0  0  0  0  0  0  0  0  0  0  0  0
   28.8756   13.4374   60.0062 C   0  0  0  0  0  0  0  0  0  0  0  0
   28.2650   12.7715   59.0293 N   0  0  0  0  0  0  0  0  0  0  0  0
   27.4523    8.1743   55.1161 C   0  0  0  0  0  0  0  0  0  0  0  0
   28.8962    7.7819   55.1955 C   0  0  0  0  0  0  0  0  0  0  0  0
   27.3545    9.0301   51.5572 C   0  0  0  0  0  0  0  0  0  0  0  0
   28.0135    8.8195   52.7011 N   0  0  0  0  0  0  0  0  0  0  0  0
   27.1638    8.4970   53.6734 C   0  0  0  0  0  0  0  0  0  0  0  0
   25.9290    8.5123   53.0933 N   0  0  0  0  0  0  0  0  0  0  0  0
   26.0663    8.8298   51.8436 O   0  0  0  0  0  0  0  0  0  0  0  0
   28.4746   12.4988   48.1569 C   0  0  0  0  0  0  0  0  0  0  0  0
   28.4019   11.0751   48.5745 C   0  0  0  0  0  0  0  0  0  0  0  0
   27.9266   10.7092   49.8290 C   0  0  0  0  0  0  0  0  0  0  0  0
   27.8494    9.4008   50.2376 C   0  0  0  0  0  0  0  0  0  0  0  0
   28.2634    8.4307   49.3538 C   0  0  0  0  0  0  0  0  0  0  0  0
   28.7455    8.7623   48.0891 C   0  0  0  0  0  0  0  0  0  0  0  0
   28.8057   10.0874   47.7223 C   0  0  0  0  0  0  0  0  0  0  0  0
   29.4250   10.4844   46.1099 Cl  0  0  0  0  0  0  0  0  0  0  0  0
 25 26  1  0  0  0
 26 27  2  0  0  0
 27 28  1  0  0  0
 28 29  2  0  0  0
 29 30  1  0  0  0
 30 31  2  0  0  0
 31 32  1  0  0  0
 28 20  1  0  0  0
 20 21  2  0  0  0
 21 22  1  0  0  0
 22 23  2  0  0  0
 23 24  1  0  0  0
 22 18  1  0  0  0
 18 19  1  0  0  0
 18  1  1  0  0  0
  1  2  1  0  0  0
  2  3  2  0  0  0
  2  4  1  0  0  0
  4  7  1  0  0  0
  7  8  2  0  0  0
  8  9  1  0  0  0
  9 10  1  0  0  0
  9 11  2  0  0  0
 11 12  1  0  0  0
 12 13  2  0  0  0
 13 14  1  0  0  0
 14 15  2  0  0  0
 15 16  1  0  0  0
 16 17  2  0  0  0
 31 26  1  0  0  0
 24 20  1  0  0  0
 17  7  1  0  0  0
 16 11  1  0  0  0
  1  5  1  0  0  0
  4  6  1  0  0  0
M  END
> <minimizedAffinity>
26.42056

> <CNNscore>
0.5003122091

> <CNNaffinity>
5.6729078293

> <CNN_VS>
2.8382251263

> <CNNaffinity_variance>
0.0367137790

$$$$
[H]c1c([H])c(-c2nc([C@]([H])(N([H])C(=O)N([H])c3nc4c([H])c([H])c([H])c([H])c4c(F)c3[H])C([H])([H])[H])no2)c([H])c(C([H])([H])[H])c1Cl


 32 35  0  0  0  0  0  0  0  0999 V2000
   27.8135    9.6127   52.7857 N   0  0  0  0  0  0  0  0  0  0  0  0
   28.0969    8.9274   51.5443 C   0  0  0  0  0  0  0  0  0  0  0  0
   28.2833    7.6778   51.5737 O   0  0  0  0  0  0  0  0  0  0  0  0
   28.1548    9.6633   50.3666 N   0  0  0  0  0  0  0  0  0  0  0  0
   27.6632   10.6420   52.7160 H   0  0  0  0  0  0  0  0  0  0  0  0
   27.9715   10.7268   50.4994 H   0  0  0  0  0  0  0  0  0  0  0  0
   28.4160    9.2125   49.0434 C   0  0  0  0  0  0  0  0  0  0  0  0
   29.6140    8.7390   48.5870 C   0  0  0  0  0  0  0  0  0  0  0  0
   29.7647    8.3240   47.2534 C   0  0  0  0  0  0  0  0  0  0  0  0
   30.9597    7.8593   46.8179 F   0  0  0  0  0  0  0  0  0  0  0  0
   28.7168    8.3785   46.3647 C   0  0  0  0  0  0  0  0  0  0  0  0
   28.8428    7.9758   45.0447 C   0  0  0  0  0  0  0  0  0  0  0  0
   27.7859    8.0359   44.1605 C   0  0  0  0  0  0  0  0  0  0  0  0
   26.5880    8.5171   44.6452 C   0  0  0  0  0  0  0  0  0  0  0  0
   26.4563    8.9193   45.9580 C   0  0  0  0  0  0  0  0  0  0  0  0
   27.5263    8.8587   46.8552 C   0  0  0  0  0  0  0  0  0  0  0  0
   27.4007    9.2482   48.1214 N   0  0  0  0  0  0  0  0  0  0  0  0
   27.7532    8.8823   54.0115 C   0  0  0  0  0  0  0  0  0  0  0  0
   28.3028    7.4918   53.9149 C   0  0  0  0  0  0  0  0  0  0  0  0
   24.1641    8.3571   54.5124 C   0  0  0  0  0  0  0  0  0  0  0  0
   25.2692    8.3069   53.7618 N   0  0  0  0  0  0  0  0  0  0  0  0
   26.3169    8.7573   54.4479 C   0  0  0  0  0  0  0  0  0  0  0  0
   25.8257    9.0979   55.6743 N   0  0  0  0  0  0  0  0  0  0  0  0
   24.5525    8.8531   55.6892 O   0  0  0  0  0  0  0  0  0  0  0  0
   20.7927    4.8984   53.2800 C   0  0  0  0  0  0  0  0  0  0  0  0
   21.1407    6.3058   53.6034 C   0  0  0  0  0  0  0  0  0  0  0  0
   22.4464    6.6822   53.8983 C   0  0  0  0  0  0  0  0  0  0  0  0
   22.7928    7.9760   54.1996 C   0  0  0  0  0  0  0  0  0  0  0  0
   21.7919    8.9204   54.2029 C   0  0  0  0  0  0  0  0  0  0  0  0
   20.4728    8.5777   53.9123 C   0  0  0  0  0  0  0  0  0  0  0  0
   20.1715    7.2678   53.6165 C   0  0  0  0  0  0  0  0  0  0  0  0
   18.4865    6.8559   53.2531 Cl  0  0  0  0  0  0  0  0  0  0  0  0
 25 26  1  0  0  0
 26 27  2  0  0  0
 27 28  1  0  0  0
 28 29  2  0  0  0
 29 30  1  0  0  0
 30 31  2  0  0  0
 31 32  1  0  0  0
 28 20  1  0  0  0
 20 21  2  0  0  0
 21 22  1  0  0  0
 22 23  2  0  0  0
 23 24  1  0  0  0
 22 18  1  0  0  0
 18 19  1  0  0  0
 18  1  1  0  0  0
  1  2  1  0  0  0
  2  3  2  0  0  0
  2  4  1  0  0  0
  4  7  1  0  0  0
  7  8  2  0  0  0
  8  9  1  0  0  0
  9 10  1  0  0  0
  9 11  2  0  0  0
 11 12  1  0  0  0
 12 13  2  0  0  0
 13 14  1  0  0  0
 14 15  2  0  0  0
 15 16  1  0  0  0
 16 17  2  0  0  0
 31 26  1  0  0  0
 24 20  1  0  0  0
 17  7  1  0  0  0
 16 11  1  0  0  0
  1  5  1  0  0  0
  4  6  1  0  0  0
M  END
> <minimizedAffinity>
38.68474

> <CNNscore>
0.4919836521

> <CNNaffinity>
6.1418719292

> <CNN_VS>
3.0217006207

> <CNNaffinity_variance>
0.2323372364

$$$$
[H]c1c([H])c(-c2nc([C@]([H])(N([H])C(=O)N([H])c3nc4c([H])c([H])c([H])c([H])c4c(F)c3[H])C([H])([H])[H])no2)c([H])c(C([H])([H])[H])c1Cl


 32 35  0  0  0  0  0  0  0  0999 V2000
   25.3513   15.1503   48.9247 N   0  0  0  0  0  0  0  0  0  0  0  0
   25.6555   13.7393   48.8369 C   0  0  0  0  0  0  0  0  0  0  0  0
   24.7015   12.9247   48.6841 O   0  0  0  0  0  0  0  0  0  0  0  0
   26.9807   13.3293   48.9236 N   0  0  0  0  0  0  0  0  0  0  0  0
   26.1674   15.7874   49.0472 H   0  0  0  0  0  0  0  0  0  0  0  0
   27.6890   14.1441   49.0523 H   0  0  0  0  0  0  0  0  0  0  0  0
   27.5140   12.0122   48.8660 C   0  0  0  0  0  0  0  0  0  0  0  0
   27.7432   11.1998   49.9407 C   0  0  0  0  0  0  0  0  0  0  0  0
   28.2812    9.9133   49.7707 C   0  0  0  0  0  0  0  0  0  0  0  0
   28.5036    9.1227   50.8472 F   0  0  0  0  0  0  0  0  0  0  0  0
   28.5939    9.4281   48.5226 C   0  0  0  0  0  0  0  0  0  0  0  0
   29.1266    8.1632   48.3312 C   0  0  0  0  0  0  0  0  0  0  0  0
   29.4385    7.6863   47.0751 C   0  0  0  0  0  0  0  0  0  0  0  0
   29.1979    8.5249   46.0071 C   0  0  0  0  0  0  0  0  0  0  0  0
   28.6677    9.7849   46.1913 C   0  0  0  0  0  0  0  0  0  0  0  0
   28.3509   10.2694   47.4634 C   0  0  0  0  0  0  0  0  0  0  0  0
   27.8411   11.4855   47.6421 N   0  0  0  0  0  0  0  0  0  0  0  0
   23.9980   15.5994   48.8438 C   0  0  0  0  0  0  0  0  0  0  0  0
   23.8289   17.0630   49.1160 C   0  0  0  0  0  0  0  0  0  0  0  0
   22.2562   13.3122   51.1117 C   0  0  0  0  0  0  0  0  0  0  0  0
   23.1296   13.5614   50.1308 N   0  0  0  0  0  0  0  0  0  0  0  0
   23.1666   14.8645   49.8624 C   0  0  0  0  0  0  0  0  0  0  0  0
   22.2728   15.4351   50.7209 N   0  0  0  0  0  0  0  0  0  0  0  0
   21.7474   14.4994   51.4486 O   0  0  0  0  0  0  0  0  0  0  0  0
   21.7015   10.4830   55.1781 C   0  0  0  0  0  0  0  0  0  0  0  0
   21.5983   10.6657   53.7076 C   0  0  0  0  0  0  0  0  0  0  0  0
   21.9625   11.8605   53.0964 C   0  0  0  0  0  0  0  0  0  0  0  0
   21.8767   12.0533   51.7399 C   0  0  0  0  0  0  0  0  0  0  0  0
   21.4101   11.0088   50.9751 C   0  0  0  0  0  0  0  0  0  0  0  0
   21.0362    9.7980   51.5549 C   0  0  0  0  0  0  0  0  0  0  0  0
   21.1384    9.6498   52.9193 C   0  0  0  0  0  0  0  0  0  0  0  0
   20.6542    8.1019   53.6338 Cl  0  0  0  0  0  0  0  0  0  0  0  0
 25 26  1  0  0  0
 26 27  2  0  0  0
 27 28  1  0  0  0
 28 29  2  0  0  0
 29 30  1  0  0  0
 30 31  2  0  0  0
 31 32  1  0  0  0
 28 20  1  0  0  0
 20 21  2  0  0  0
 21 22  1  0  0  0
 22 23  2  0  0  0
 23 24  1  0  0  0
 22 18  1  0  0  0
 18 19  1  0  0  0
 18  1  1  0  0  0
  1  2  1  0  0  0
  2  3  2  0  0  0
  2  4  1  0  0  0
  4  7  1  0  0  0
  7  8  2  0  0  0
  8  9  1  0  0  0
  9 10  1  0  0  0
  9 11  2  0  0  0
 11 12  1  0  0  0
 12 13  2  0  0  0
 13 14  1  0  0  0
 14 15  2  0  0  0
 15 16  1  0  0  0
 16 17  2  0  0  0
 31 26  1  0  0  0
 24 20  1  0  0  0
 17  7  1  0  0  0
 16 11  1  0  0  0
  1  5  1  0  0  0
  4  6  1  0  0  0
M  END
> <minimizedAffinity>
40.10438

> <CNNscore>
0.4803492427

> <CNNaffinity>
5.5328841209

> <CNN_VS>
2.6577167511

> <CNNaffinity_variance>
0.2341419756

$$$$
[H]c1c([H])c(-c2nc([C@]([H])(N([H])C(=O)N([H])c3nc4c([H])c([H])c([H])c([H])c4c(F)c3[H])C([H])([H])[H])no2)c([H])c(C([H])([H])[H])c1Cl


 32 35  0  0  0  0  0  0  0  0999 V2000
   24.7412   15.3224   49.6974 N   0  0  0  0  0  0  0  0  0  0  0  0
   25.3058   14.1991   48.9828 C   0  0  0  0  0  0  0  0  0  0  0  0
   24.5554   13.5347   48.2130 O   0  0  0  0  0  0  0  0  0  0  0  0
   26.6482   13.8898   49.1667 N   0  0  0  0  0  0  0  0  0  0  0  0
   25.3953   15.8446   50.3189 H   0  0  0  0  0  0  0  0  0  0  0  0
   27.1648   14.5518   49.8574 H   0  0  0  0  0  0  0  0  0  0  0  0
   27.4125   12.8438   48.5800 C   0  0  0  0  0  0  0  0  0  0  0  0
   28.1926   12.9591   47.4639 C   0  0  0  0  0  0  0  0  0  0  0  0
   28.9037   11.8557   46.9636 C   0  0  0  0  0  0  0  0  0  0  0  0
   29.6703   11.9878   45.8553 F   0  0  0  0  0  0  0  0  0  0  0  0
   28.8407   10.6266   47.5770 C   0  0  0  0  0  0  0  0  0  0  0  0
   29.5323    9.5242   47.1007 C   0  0  0  0  0  0  0  0  0  0  0  0
   29.4613    8.2950   47.7223 C   0  0  0  0  0  0  0  0  0  0  0  0
   28.6678    8.2045   48.8465 C   0  0  0  0  0  0  0  0  0  0  0  0
   27.9771    9.2981   49.3255 C   0  0  0  0  0  0  0  0  0  0  0  0
   28.0483   10.5444   48.6969 C   0  0  0  0  0  0  0  0  0  0  0  0
   27.3809   11.5995   49.1572 N   0  0  0  0  0  0  0  0  0  0  0  0
   23.3634   15.6597   49.5314 C   0  0  0  0  0  0  0  0  0  0  0  0
   23.0304   17.0623   49.9399 C   0  0  0  0  0  0  0  0  0  0  0  0
   21.7757   13.0400   51.5376 C   0  0  0  0  0  0  0  0  0  0  0  0
   22.7894   13.5119   50.8047 N   0  0  0  0  0  0  0  0  0  0  0  0
   22.5196   14.7437   50.3787 C   0  0  0  0  0  0  0  0  0  0  0  0
   21.2830   15.0347   50.8760 N   0  0  0  0  0  0  0  0  0  0  0  0
   20.8634   14.0141   51.5568 O   0  0  0  0  0  0  0  0  0  0  0  0
   20.9501    8.1271   51.3670 C   0  0  0  0  0  0  0  0  0  0  0  0
   21.2163    9.3661   52.1418 C   0  0  0  0  0  0  0  0  0  0  0  0
   21.3676   10.5975   51.5137 C   0  0  0  0  0  0  0  0  0  0  0  0
   21.6136   11.7561   52.2077 C   0  0  0  0  0  0  0  0  0  0  0  0
   21.7093   11.6713   53.5779 C   0  0  0  0  0  0  0  0  0  0  0  0
   21.5634   10.4535   54.2394 C   0  0  0  0  0  0  0  0  0  0  0  0
   21.3183    9.3172   53.5027 C   0  0  0  0  0  0  0  0  0  0  0  0
   21.1393    7.7798   54.3662 Cl  0  0  0  0  0  0  0  0  0  0  0  0
 25 26  1  0  0  0
 26 27  2  0  0  0
 27 28  1  0  0  0
 28 29  2  0  0  0
 29 30  1  0  0  0
 30 31  2  0  0  0
 31 32  1  0  0  0
 28 20  1  0  0  0
 20 21  2  0  0  0
 21 22  1  0  0  0
 22 23  2  0  0  0
 23 24  1  0  0  0
 22 18  1  0  0  0
 18 19  1  0  0  0
 18  1  1  0  0  0
  1  2  1  0  0  0
  2  3  2  0  0  0
  2  4  1  0  0  0
  4  7  1  0  0  0
  7  8  2  0  0  0
  8  9  1  0  0  0
  9 10  1  0  0  0
  9 11  2  0  0  0
 11 12  1  0  0  0
 12 13  2  0  0  0
 13 14  1  0  0  0
 14 15  2  0  0  0
 15 16  1  0  0  0
 16 17  2  0  0  0
 31 26  1  0  0  0
 24 20  1  0  0  0
 17  7  1  0  0  0
 16 11  1  0  0  0
  1  5  1  0  0  0
  4  6  1  0  0  0
M  END
> <minimizedAffinity>
39.05152

> <CNNscore>
0.4796810150

> <CNNaffinity>
5.4789628983

> <CNN_VS>
2.6281545162

> <CNNaffinity_variance>
0.1781223863

$$$$
[H]c1c([H])c(-c2nc([C@]([H])(N([H])C(=O)N([H])c3nc4c([H])c([H])c([H])c([H])c4c(F)c3[H])C([H])([H])[H])no2)c([H])c(C([H])([H])[H])c1Cl


 32 35  0  0  0  0  0  0  0  0999 V2000
   22.5941    8.3241   55.1153 N   0  0  0  0  0  0  0  0  0  0  0  0
   22.2768    9.1898   54.0013 C   0  0  0  0  0  0  0  0  0  0  0  0
   22.2736    8.6985   52.8370 O   0  0  0  0  0  0  0  0  0  0  0  0
   21.9879   10.5267   54.2482 N   0  0  0  0  0  0  0  0  0  0  0  0
   22.5824    8.7689   56.0581 H   0  0  0  0  0  0  0  0  0  0  0  0
   22.0285   10.8019   55.2993 H   0  0  0  0  0  0  0  0  0  0  0  0
   21.6537   11.5541   53.3234 C   0  0  0  0  0  0  0  0  0  0  0  0
   22.0458   11.6043   52.0153 C   0  0  0  0  0  0  0  0  0  0  0  0
   21.6626   12.6729   51.1879 C   0  0  0  0  0  0  0  0  0  0  0  0
   22.0620   12.7073   49.8945 F   0  0  0  0  0  0  0  0  0  0  0  0
   20.8822   13.7009   51.6627 C   0  0  0  0  0  0  0  0  0  0  0  0
   20.4933   14.7654   50.8654 C   0  0  0  0  0  0  0  0  0  0  0  0
   19.7117   15.7926   51.3517 C   0  0  0  0  0  0  0  0  0  0  0  0
   19.3291   15.7188   52.6745 C   0  0  0  0  0  0  0  0  0  0  0  0
   19.7129   14.6617   53.4730 C   0  0  0  0  0  0  0  0  0  0  0  0
   20.5046   13.6200   52.9816 C   0  0  0  0  0  0  0  0  0  0  0  0
   20.8769   12.6007   53.7518 N   0  0  0  0  0  0  0  0  0  0  0  0
   22.9000    6.9473   54.8902 C   0  0  0  0  0  0  0  0  0  0  0  0
   24.1775    6.7263   54.1392 C   0  0  0  0  0  0  0  0  0  0  0  0
   20.0785    5.1253   53.4315 C   0  0  0  0  0  0  0  0  0  0  0  0
   20.8793    5.4332   54.4568 N   0  0  0  0  0  0  0  0  0  0  0  0
   21.7988    6.3177   54.0779 C   0  0  0  0  0  0  0  0  0  0  0  0
   21.5453    6.5593   52.7592 N   0  0  0  0  0  0  0  0  0  0  0  0
   20.5253    5.8441   52.3993 O   0  0  0  0  0  0  0  0  0  0  0  0
   15.3163    4.0428   54.4301 C   0  0  0  0  0  0  0  0  0  0  0  0
   16.6276    3.6753   53.8369 C   0  0  0  0  0  0  0  0  0  0  0  0
   17.7204    4.5328   53.9018 C   0  0  0  0  0  0  0  0  0  0  0  0
   18.9421    4.2157   53.3619 C   0  0  0  0  0  0  0  0  0  0  0  0
   19.0668    2.9956   52.7377 C   0  0  0  0  0  0  0  0  0  0  0  0
   17.9921    2.1124   52.6544 C   0  0  0  0  0  0  0  0  0  0  0  0
   16.7854    2.4727   53.2094 C   0  0  0  0  0  0  0  0  0  0  0  0
   15.4327    1.3340   53.0883 Cl  0  0  0  0  0  0  0  0  0  0  0  0
 25 26  1  0  0  0
 26 27  2  0  0  0
 27 28  1  0  0  0
 28 29  2  0  0  0
 29 30  1  0  0  0
 30 31  2  0  0  0
 31 32  1  0  0  0
 28 20  1  0  0  0
 20 21  2  0  0  0
 21 22  1  0  0  0
 22 23  2  0  0  0
 23 24  1  0  0  0
 22 18  1  0  0  0
 18 19  1  0  0  0
 18  1  1  0  0  0
  1  2  1  0  0  0
  2  3  2  0  0  0
  2  4  1  0  0  0
  4  7  1  0  0  0
  7  8  2  0  0  0
  8  9  1  0  0  0
  9 10  1  0  0  0
  9 11  2  0  0  0
 11 12  1  0  0  0
 12 13  2  0  0  0
 13 14  1  0  0  0
 14 15  2  0  0  0
 15 16  1  0  0  0
 16 17  2  0  0  0
 31 26  1  0  0  0
 24 20  1  0  0  0
 17  7  1  0  0  0
 16 11  1  0  0  0
  1  5  1  0  0  0
  4  6  1  0  0  0
M  END
> <minimizedAffinity>
39.69237

> <CNNscore>
0.4749250412

> <CNNaffinity>
6.1446180344

> <CNN_VS>
2.9182329178

> <CNNaffinity_variance>
0.6023473144

$$$$
[H]c1c([H])c(-c2nc([C@]([H])(N([H])C(=O)N([H])c3nc4c([H])c([H])c([H])c([H])c4c(F)c3[H])C([H])([H])[H])no2)c([H])c(C([H])([H])[H])c1Cl


 32 35  0  0  0  0  0  0  0  0999 V2000
   28.3031   10.0551   53.1760 N   0  0  0  0  0  0  0  0  0  0  0  0
   28.3716    9.2421   51.9820 C   0  0  0  0  0  0  0  0  0  0  0  0
   28.2507    7.9894   52.0971 O   0  0  0  0  0  0  0  0  0  0  0  0
   28.5678    9.8635   50.7544 N   0  0  0  0  0  0  0  0  0  0  0  0
   28.4044   11.0831   53.0358 H   0  0  0  0  0  0  0  0  0  0  0  0
   28.6521   10.9459   50.8142 H   0  0  0  0  0  0  0  0  0  0  0  0
   28.6691    9.2776   49.4625 C   0  0  0  0  0  0  0  0  0  0  0  0
   28.8153    7.9437   49.2040 C   0  0  0  0  0  0  0  0  0  0  0  0
   28.9122    7.4710   47.8847 C   0  0  0  0  0  0  0  0  0  0  0  0
   29.0587    6.1460   47.6472 F   0  0  0  0  0  0  0  0  0  0  0  0
   28.8627    8.3299   46.8119 C   0  0  0  0  0  0  0  0  0  0  0  0
   28.9575    7.8864   45.5024 C   0  0  0  0  0  0  0  0  0  0  0  0
   28.9084    8.7562   44.4331 C   0  0  0  0  0  0  0  0  0  0  0  0
   28.7602   10.0968   44.7202 C   0  0  0  0  0  0  0  0  0  0  0  0
   28.6651   10.5443   46.0214 C   0  0  0  0  0  0  0  0  0  0  0  0
   28.7145    9.6641   47.1059 C   0  0  0  0  0  0  0  0  0  0  0  0
   28.6247   10.0952   48.3617 N   0  0  0  0  0  0  0  0  0  0  0  0
   28.1074    9.4427   54.4513 C   0  0  0  0  0  0  0  0  0  0  0  0
   29.2542    8.5857   54.8933 C   0  0  0  0  0  0  0  0  0  0  0  0
   24.8696    7.7723   54.0849 C   0  0  0  0  0  0  0  0  0  0  0  0
   25.6650    8.8402   53.9662 N   0  0  0  0  0  0  0  0  0  0  0  0
   26.8915    8.5553   54.3976 C   0  0  0  0  0  0  0  0  0  0  0  0
   26.8395    7.2521   54.7979 N   0  0  0  0  0  0  0  0  0  0  0  0
   25.6358    6.8106   54.6041 O   0  0  0  0  0  0  0  0  0  0  0  0
   20.7913    9.2213   51.6120 C   0  0  0  0  0  0  0  0  0  0  0  0
   21.4710    8.2918   52.5503 C   0  0  0  0  0  0  0  0  0  0  0  0
   22.8121    8.4474   52.8833 C   0  0  0  0  0  0  0  0  0  0  0  0
   23.4620    7.6021   53.7479 C   0  0  0  0  0  0  0  0  0  0  0  0
   22.7375    6.5679   54.2949 C   0  0  0  0  0  0  0  0  0  0  0  0
   21.3921    6.3826   53.9826 C   0  0  0  0  0  0  0  0  0  0  0  0
   20.7816    7.2544   53.1101 C   0  0  0  0  0  0  0  0  0  0  0  0
   19.0706    6.9966   52.7262 Cl  0  0  0  0  0  0  0  0  0  0  0  0
 25 26  1  0  0  0
 26 27  2  0  0  0
 27 28  1  0  0  0
 28 29  2  0  0  0
 29 30  1  0  0  0
 30 31  2  0  0  0
 31 32  1  0  0  0
 28 20  1  0  0  0
 20 21  2  0  0  0
 21 22  1  0  0  0
 22 23  2  0  0  0
 23 24  1  0  0  0
 22 18  1  0  0  0
 18 19  1  0  0  0
 18  1  1  0  0  0
  1  2  1  0  0  0
  2  3  2  0  0  0
  2  4  1  0  0  0
  4  7  1  0  0  0
  7  8  2  0  0  0
  8  9  1  0  0  0
  9 10  1  0  0  0
  9 11  2  0  0  0
 11 12  1  0  0  0
 12 13  2  0  0  0
 13 14  1  0  0  0
 14 15  2  0  0  0
 15 16  1  0  0  0
 16 17  2  0  0  0
 31 26  1  0  0  0
 24 20  1  0  0  0
 17  7  1  0  0  0
 16 11  1  0  0  0
  1  5  1  0  0  0
  4  6  1  0  0  0
M  END
> <minimizedAffinity>
36.66207

> <CNNscore>
0.4725216031

> <CNNaffinity>
6.0842876434

> <CNN_VS>
2.8749573231

> <CNNaffinity_variance>
0.1423086226

$$$$
[H]c1c([H])c(-c2nc([C@]([H])(N([H])C(=O)N([H])c3nc4c([H])c([H])c([H])c([H])c4c(F)c3[H])C([H])([H])[H])no2)c([H])c(C([H])([H])[H])c1Cl


 32 35  0  0  0  0  0  0  0  0999 V2000
   22.8787    6.4286   53.8692 N   0  0  0  0  0  0  0  0  0  0  0  0
   21.4826    6.0530   53.8357 C   0  0  0  0  0  0  0  0  0  0  0  0
   20.6210    6.8982   54.2101 O   0  0  0  0  0  0  0  0  0  0  0  0
   21.1380    4.7806   53.3951 N   0  0  0  0  0  0  0  0  0  0  0  0
   23.5554    5.7031   53.5491 H   0  0  0  0  0  0  0  0  0  0  0  0
   21.9874    4.1672   53.1046 H   0  0  0  0  0  0  0  0  0  0  0  0
   19.8474    4.1947   53.2784 C   0  0  0  0  0  0  0  0  0  0  0  0
   19.5634    3.0169   52.6463 C   0  0  0  0  0  0  0  0  0  0  0  0
   18.2468    2.5308   52.5842 C   0  0  0  0  0  0  0  0  0  0  0  0
   17.9835    1.3626   51.9520 F   0  0  0  0  0  0  0  0  0  0  0  0
   17.2025    3.2194   53.1554 C   0  0  0  0  0  0  0  0  0  0  0  0
   15.8962    2.7597   53.1054 C   0  0  0  0  0  0  0  0  0  0  0  0
   14.8553    3.4588   53.6801 C   0  0  0  0  0  0  0  0  0  0  0  0
   15.1677    4.6441   54.3119 C   0  0  0  0  0  0  0  0  0  0  0  0
   16.4660    5.1066   54.3651 C   0  0  0  0  0  0  0  0  0  0  0  0
   17.5218    4.3993   53.7835 C   0  0  0  0  0  0  0  0  0  0  0  0
   18.7744    4.8457   53.8327 N   0  0  0  0  0  0  0  0  0  0  0  0
   23.2618    7.7277   54.3223 C   0  0  0  0  0  0  0  0  0  0  0  0
   22.8806    8.0096   55.7436 C   0  0  0  0  0  0  0  0  0  0  0  0
   21.7045   10.6357   52.7328 C   0  0  0  0  0  0  0  0  0  0  0  0
   22.3101   10.0402   53.7652 N   0  0  0  0  0  0  0  0  0  0  0  0
   22.5877    8.7720   53.4716 C   0  0  0  0  0  0  0  0  0  0  0  0
   22.1289    8.5874   52.2001 N   0  0  0  0  0  0  0  0  0  0  0  0
   21.6114    9.7012   51.7843 O   0  0  0  0  0  0  0  0  0  0  0  0
   21.1170   14.7631   50.0003 C   0  0  0  0  0  0  0  0  0  0  0  0
   20.9206   14.0144   51.2680 C   0  0  0  0  0  0  0  0  0  0  0  0
   21.3859   12.7131   51.4230 C   0  0  0  0  0  0  0  0  0  0  0  0
   21.2171   12.0010   52.5845 C   0  0  0  0  0  0  0  0  0  0  0  0
   20.5595   12.6199   53.6228 C   0  0  0  0  0  0  0  0  0  0  0  0
   20.0800   13.9227   53.5014 C   0  0  0  0  0  0  0  0  0  0  0  0
   20.2714   14.5985   52.3179 C   0  0  0  0  0  0  0  0  0  0  0  0
   19.6501   16.2532   52.1865 Cl  0  0  0  0  0  0  0  0  0  0  0  0
 25 26  1  0  0  0
 26 27  2  0  0  0
 27 28  1  0  0  0
 28 29  2  0  0  0
 29 30  1  0  0  0
 30 31  2  0  0  0
 31 32  1  0  0  0
 28 20  1  0  0  0
 20 21  2  0  0  0
 21 22  1  0  0  0
 22 23  2  0  0  0
 23 24  1  0  0  0
 22 18  1  0  0  0
 18 19  1  0  0  0
 18  1  1  0  0  0
  1  2  1  0  0  0
  2  3  2  0  0  0
  2  4  1  0  0  0
  4  7  1  0  0  0
  7  8  2  0  0  0
  8  9  1  0  0  0
  9 10  1  0  0  0
  9 11  2  0  0  0
 11 12  1  0  0  0
 12 13  2  0  0  0
 13 14  1  0  0  0
 14 15  2  0  0  0
 15 16  1  0  0  0
 16 17  2  0  0  0
 31 26  1  0  0  0
 24 20  1  0  0  0
 17  7  1  0  0  0
 16 11  1  0  0  0
  1  5  1  0  0  0
  4  6  1  0  0  0
M  END
> <minimizedAffinity>
42.61703

> <CNNscore>
0.4620368779

> <CNNaffinity>
6.1361927986

> <CNN_VS>
2.8351473808

> <CNNaffinity_variance>
0.5314599276

$$$$
[H]c1c([H])c(N([H])C(=O)N([H])c2nnc(-c3c([H])c([H])c(C([H])([H])[H])c([H])c3F)o2)c([H])c(C(F)(F)F)c1Cl


 30 32  0  0  0  0  0  0  0  0999 V2000
   27.8490    9.1696   53.8772 N   0  0  0  0  0  0  0  0  0  0  0  0
   28.2983    9.6273   52.6187 C   0  0  0  0  0  0  0  0  0  0  0  0
   29.4375   10.2606   52.6097 O   0  0  0  0  0  0  0  0  0  0  0  0
   27.5843    9.4265   51.4413 N   0  0  0  0  0  0  0  0  0  0  0  0
   28.4661    9.3702   54.7332 H   0  0  0  0  0  0  0  0  0  0  0  0
   26.6516    8.9125   51.4973 H   0  0  0  0  0  0  0  0  0  0  0  0
   28.0315    9.8678   50.1804 C   0  0  0  0  0  0  0  0  0  0  0  0
   28.2979   11.2376   50.0322 C   0  0  0  0  0  0  0  0  0  0  0  0
   28.7056   11.7558   48.8333 C   0  0  0  0  0  0  0  0  0  0  0  0
   28.8583   10.9127   47.7452 C   0  0  0  0  0  0  0  0  0  0  0  0
   29.3767   11.5310   46.1981 Cl  0  0  0  0  0  0  0  0  0  0  0  0
   28.6003    9.5798   47.8827 C   0  0  0  0  0  0  0  0  0  0  0  0
   28.1815    9.0425   49.1094 C   0  0  0  0  0  0  0  0  0  0  0  0
   28.7571    8.6635   46.7366 C   0  0  0  0  0  0  0  0  0  0  0  0
   29.3195    7.4598   47.1191 F   0  0  0  0  0  0  0  0  0  0  0  0
   27.5394    8.4469   46.1396 F   0  0  0  0  0  0  0  0  0  0  0  0
   29.5650    9.2919   45.7787 F   0  0  0  0  0  0  0  0  0  0  0  0
   24.6584    7.7328   54.1707 C   0  0  0  0  0  0  0  0  0  0  0  0
   25.3541    6.9819   55.0126 N   0  0  0  0  0  0  0  0  0  0  0  0
   26.5923    7.4034   55.0144 N   0  0  0  0  0  0  0  0  0  0  0  0
   26.6500    8.4615   54.1307 C   0  0  0  0  0  0  0  0  0  0  0  0
   25.4526    8.6067   53.6584 O   0  0  0  0  0  0  0  0  0  0  0  0
   19.0776    7.0049   53.0195 C   0  0  0  0  0  0  0  0  0  0  0  0
   20.5111    7.2303   53.3350 C   0  0  0  0  0  0  0  0  0  0  0  0
   21.4241    6.2752   52.9707 C   0  0  0  0  0  0  0  0  0  0  0  0
   22.7680    6.4567   53.2512 C   0  0  0  0  0  0  0  0  0  0  0  0
   23.2125    7.5717   53.8868 C   0  0  0  0  0  0  0  0  0  0  0  0
   22.3217    8.5320   54.2567 C   0  0  0  0  0  0  0  0  0  0  0  0
   22.6910    9.6621   54.8894 F   0  0  0  0  0  0  0  0  0  0  0  0
   20.9632    8.3605   53.9793 C   0  0  0  0  0  0  0  0  0  0  0  0
 23 24  1  0  0  0
 24 25  2  0  0  0
 25 26  1  0  0  0
 26 27  2  0  0  0
 27 18  1  0  0  0
 18 19  2  0  0  0
 19 20  1  0  0  0
 20 21  2  0  0  0
 21  1  1  0  0  0
  1  2  1  0  0  0
  2  3  2  0  0  0
  2  4  1  0  0  0
  4  7  1  0  0  0
  7  8  2  0  0  0
  8  9  1  0  0  0
  9 10  2  0  0  0
 10 11  1  0  0  0
 10 12  1  0  0  0
 12 13  2  0  0  0
 12 14  1  0  0  0
 14 15  1  0  0  0
 14 16  1  0  0  0
 14 17  1  0  0  0
 21 22  1  0  0  0
 27 28  1  0  0  0
 28 29  1  0  0  0
 28 30  2  0  0  0
 30 24  1  0  0  0
 22 18  1  0  0  0
 13  7  1  0  0  0
  1  5  1  0  0  0
  4  6  1  0  0  0
M  END
> <minimizedAffinity>
22.07886

> <CNNscore>
0.5474498272

> <CNNaffinity>
6.1377778053

> <CNN_VS>
3.3601253033

> <CNNaffinity_variance>
0.1914419830

$$$$
[H]c1c([H])c(N([H])C(=O)N([H])c2nnc(-c3c([H])c([H])c(C([H])([H])[H])c([H])c3F)o2)c([H])c(C(F)(F)F)c1Cl


 30 32  0  0  0  0  0  0  0  0999 V2000
   20.9227    8.9483   52.5992 N   0  0  0  0  0  0  0  0  0  0  0  0
   19.9896    7.8880   52.5970 C   0  0  0  0  0  0  0  0  0  0  0  0
   19.0428    7.9562   51.7038 O   0  0  0  0  0  0  0  0  0  0  0  0
   20.0553    6.8201   53.4869 N   0  0  0  0  0  0  0  0  0  0  0  0
   20.7936    9.7313   51.8753 H   0  0  0  0  0  0  0  0  0  0  0  0
   20.8409    6.8109   54.2079 H   0  0  0  0  0  0  0  0  0  0  0  0
   19.1368    5.7519   53.4829 C   0  0  0  0  0  0  0  0  0  0  0  0
   17.8481    6.0058   53.9770 C   0  0  0  0  0  0  0  0  0  0  0  0
   16.9040    5.0173   54.0386 C   0  0  0  0  0  0  0  0  0  0  0  0
   17.2262    3.7419   53.6054 C   0  0  0  0  0  0  0  0  0  0  0  0
   16.0529    2.4518   53.6657 Cl  0  0  0  0  0  0  0  0  0  0  0  0
   18.4778    3.4885   53.1244 C   0  0  0  0  0  0  0  0  0  0  0  0
   19.4503    4.4979   53.0590 C   0  0  0  0  0  0  0  0  0  0  0  0
   18.8421    2.1370   52.6569 C   0  0  0  0  0  0  0  0  0  0  0  0
   19.7449    1.5286   53.5092 F   0  0  0  0  0  0  0  0  0  0  0  0
   17.7139    1.3636   52.5343 F   0  0  0  0  0  0  0  0  0  0  0  0
   19.3906    2.2494   51.3718 F   0  0  0  0  0  0  0  0  0  0  0  0
   23.9413    9.0755   54.3886 C   0  0  0  0  0  0  0  0  0  0  0  0
   23.1065    9.6264   55.2583 N   0  0  0  0  0  0  0  0  0  0  0  0
   21.9126    9.6511   54.7249 N   0  0  0  0  0  0  0  0  0  0  0  0
   22.0291    9.0875   53.4708 C   0  0  0  0  0  0  0  0  0  0  0  0
   23.2755    8.7631   53.3322 O   0  0  0  0  0  0  0  0  0  0  0  0
   29.5641    8.2066   55.1823 C   0  0  0  0  0  0  0  0  0  0  0  0
   28.1092    8.4522   55.0139 C   0  0  0  0  0  0  0  0  0  0  0  0
   27.4845    7.9677   53.8943 C   0  0  0  0  0  0  0  0  0  0  0  0
   26.1287    8.1806   53.7089 C   0  0  0  0  0  0  0  0  0  0  0  0
   25.3906    8.8665   54.6196 C   0  0  0  0  0  0  0  0  0  0  0  0
   25.9923    9.3558   55.7380 C   0  0  0  0  0  0  0  0  0  0  0  0
   25.3230   10.0444   56.6823 F   0  0  0  0  0  0  0  0  0  0  0  0
   27.3595    9.1475   55.9365 C   0  0  0  0  0  0  0  0  0  0  0  0
 23 24  1  0  0  0
 24 25  2  0  0  0
 25 26  1  0  0  0
 26 27  2  0  0  0
 27 18  1  0  0  0
 18 19  2  0  0  0
 19 20  1  0  0  0
 20 21  2  0  0  0
 21  1  1  0  0  0
  1  2  1  0  0  0
  2  3  2  0  0  0
  2  4  1  0  0  0
  4  7  1  0  0  0
  7  8  2  0  0  0
  8  9  1  0  0  0
  9 10  2  0  0  0
 10 11  1  0  0  0
 10 12  1  0  0  0
 12 13  2  0  0  0
 12 14  1  0  0  0
 14 15  1  0  0  0
 14 16  1  0  0  0
 14 17  1  0  0  0
 21 22  1  0  0  0
 27 28  1  0  0  0
 28 29  1  0  0  0
 28 30  2  0  0  0
 30 24  1  0  0  0
 22 18  1  0  0  0
 13  7  1  0  0  0
  1  5  1  0  0  0
  4  6  1  0  0  0
M  END
> <minimizedAffinity>
31.18119

> <CNNscore>
0.5228497386

> <CNNaffinity>
6.3674073219

> <CNN_VS>
3.3291971684

> <CNNaffinity_variance>
0.4990513921

$$$$
[H]c1c([H])c(N([H])C(=O)N([H])c2nnc(-c3c([H])c([H])c(C([H])([H])[H])c([H])c3F)o2)c([H])c(C(F)(F)F)c1Cl


 30 32  0  0  0  0  0  0  0  0999 V2000
   21.9534    7.8581   52.4761 N   0  0  0  0  0  0  0  0  0  0  0  0
   20.8862    6.9337   52.5153 C   0  0  0  0  0  0  0  0  0  0  0  0
   19.8187    7.2581   51.8415 O   0  0  0  0  0  0  0  0  0  0  0  0
   20.9460    5.7382   53.2250 N   0  0  0  0  0  0  0  0  0  0  0  0
   21.8183    8.7558   51.9021 H   0  0  0  0  0  0  0  0  0  0  0  0
   21.8354    5.5186   53.7708 H   0  0  0  0  0  0  0  0  0  0  0  0
   19.8916    4.8046   53.2585 C   0  0  0  0  0  0  0  0  0  0  0  0
   20.1223    3.5480   52.6779 C   0  0  0  0  0  0  0  0  0  0  0  0
   19.1426    2.5935   52.6388 C   0  0  0  0  0  0  0  0  0  0  0  0
   17.8998    2.8727   53.1823 C   0  0  0  0  0  0  0  0  0  0  0  0
   16.6221    1.6846   53.1545 Cl  0  0  0  0  0  0  0  0  0  0  0  0
   17.6690    4.0929   53.7478 C   0  0  0  0  0  0  0  0  0  0  0  0
   18.6693    5.0759   53.7906 C   0  0  0  0  0  0  0  0  0  0  0  0
   16.3523    4.4111   54.3332 C   0  0  0  0  0  0  0  0  0  0  0  0
   16.2299    3.9103   55.6161 F   0  0  0  0  0  0  0  0  0  0  0  0
   16.1571    5.7706   54.3368 F   0  0  0  0  0  0  0  0  0  0  0  0
   15.3601    3.8677   53.5054 F   0  0  0  0  0  0  0  0  0  0  0  0
   24.9718    7.9894   54.2656 C   0  0  0  0  0  0  0  0  0  0  0  0
   25.0468    6.7800   53.7286 N   0  0  0  0  0  0  0  0  0  0  0  0
   23.9691    6.5781   53.0155 N   0  0  0  0  0  0  0  0  0  0  0  0
   23.2036    7.7208   53.1253 C   0  0  0  0  0  0  0  0  0  0  0  0
   23.8650    8.5294   53.8913 O   0  0  0  0  0  0  0  0  0  0  0  0
   28.8799   10.3661   57.7411 C   0  0  0  0  0  0  0  0  0  0  0  0
   27.9010    9.7383   56.8176 C   0  0  0  0  0  0  0  0  0  0  0  0
   26.5652    9.8338   57.1091 C   0  0  0  0  0  0  0  0  0  0  0  0
   25.6281    9.2586   56.2672 C   0  0  0  0  0  0  0  0  0  0  0  0
   26.0022    8.5927   55.1441 C   0  0  0  0  0  0  0  0  0  0  0  0
   27.3239    8.4868   54.8370 C   0  0  0  0  0  0  0  0  0  0  0  0
   27.7668    7.8418   53.7408 F   0  0  0  0  0  0  0  0  0  0  0  0
   28.2789    9.0628   55.6785 C   0  0  0  0  0  0  0  0  0  0  0  0
 23 24  1  0  0  0
 24 25  2  0  0  0
 25 26  1  0  0  0
 26 27  2  0  0  0
 27 18  1  0  0  0
 18 19  2  0  0  0
 19 20  1  0  0  0
 20 21  2  0  0  0
 21  1  1  0  0  0
  1  2  1  0  0  0
  2  3  2  0  0  0
  2  4  1  0  0  0
  4  7  1  0  0  0
  7  8  2  0  0  0
  8  9  1  0  0  0
  9 10  2  0  0  0
 10 11  1  0  0  0
 10 12  1  0  0  0
 12 13  2  0  0  0
 12 14  1  0  0  0
 14 15  1  0  0  0
 14 16  1  0  0  0
 14 17  1  0  0  0
 21 22  1  0  0  0
 27 28  1  0  0  0
 28 29  1  0  0  0
 28 30  2  0  0  0
 30 24  1  0  0  0
 22 18  1  0  0  0
 13  7  1  0  0  0
  1  5  1  0  0  0
  4  6  1  0  0  0
M  END
> <minimizedAffinity>
19.90508

> <CNNscore>
0.5171875358

> <CNNaffinity>
6.4963812828

> <CNN_VS>
3.3598475456

> <CNNaffinity_variance>
0.4506743550

$$$$
[H]c1c([H])c(N([H])C(=O)N([H])c2nnc(-c3c([H])c([H])c(C([H])([H])[H])c([H])c3F)o2)c([H])c(C(F)(F)F)c1Cl


 30 32  0  0  0  0  0  0  0  0999 V2000
   21.1400    9.0014   52.5584 N   0  0  0  0  0  0  0  0  0  0  0  0
   20.1831    7.9625   52.5700 C   0  0  0  0  0  0  0  0  0  0  0  0
   19.2958    7.9866   51.6156 O   0  0  0  0  0  0  0  0  0  0  0  0
   20.1671    6.9590   53.5339 N   0  0  0  0  0  0  0  0  0  0  0  0
   21.0755    9.7337   51.7754 H   0  0  0  0  0  0  0  0  0  0  0  0
   20.9058    6.9848   54.3026 H   0  0  0  0  0  0  0  0  0  0  0  0
   19.2247    5.9118   53.5452 C   0  0  0  0  0  0  0  0  0  0  0  0
   17.9157    6.2246   53.9426 C   0  0  0  0  0  0  0  0  0  0  0  0
   16.9459    5.2619   54.0123 C   0  0  0  0  0  0  0  0  0  0  0  0
   17.2619    3.9539   53.6848 C   0  0  0  0  0  0  0  0  0  0  0  0
   16.0561    2.6950   53.7593 Cl  0  0  0  0  0  0  0  0  0  0  0  0
   18.5332    3.6433   53.2981 C   0  0  0  0  0  0  0  0  0  0  0  0
   19.5321    4.6259   53.2250 C   0  0  0  0  0  0  0  0  0  0  0  0
   18.8914    2.2561   52.9440 C   0  0  0  0  0  0  0  0  0  0  0  0
   17.8063    1.5612   52.4428 F   0  0  0  0  0  0  0  0  0  0  0  0
   19.9157    2.2556   52.0291 F   0  0  0  0  0  0  0  0  0  0  0  0
   19.3827    1.6219   54.0935 F   0  0  0  0  0  0  0  0  0  0  0  0
   24.0456    9.2016   54.5201 C   0  0  0  0  0  0  0  0  0  0  0  0
   23.1666    9.8088   55.3045 N   0  0  0  0  0  0  0  0  0  0  0  0
   22.0077    9.8144   54.6981 N   0  0  0  0  0  0  0  0  0  0  0  0
   22.1930    9.1794   53.4872 C   0  0  0  0  0  0  0  0  0  0  0  0
   23.4413    8.8360   53.4439 O   0  0  0  0  0  0  0  0  0  0  0  0
   29.5656    8.4311   55.9114 C   0  0  0  0  0  0  0  0  0  0  0  0
   28.1472    8.6161   55.5128 C   0  0  0  0  0  0  0  0  0  0  0  0
   27.2611    9.1041   56.4375 C   0  0  0  0  0  0  0  0  0  0  0  0
   25.9316    9.2875   56.0958 C   0  0  0  0  0  0  0  0  0  0  0  0
   25.4753    8.9925   54.8510 C   0  0  0  0  0  0  0  0  0  0  0  0
   26.3394    8.5068   53.9184 C   0  0  0  0  0  0  0  0  0  0  0  0
   25.9570    8.1932   52.6656 F   0  0  0  0  0  0  0  0  0  0  0  0
   27.6830    8.3174   54.2509 C   0  0  0  0  0  0  0  0  0  0  0  0
 23 24  1  0  0  0
 24 25  2  0  0  0
 25 26  1  0  0  0
 26 27  2  0  0  0
 27 18  1  0  0  0
 18 19  2  0  0  0
 19 20  1  0  0  0
 20 21  2  0  0  0
 21  1  1  0  0  0
  1  2  1  0  0  0
  2  3  2  0  0  0
  2  4  1  0  0  0
  4  7  1  0  0  0
  7  8  2  0  0  0
  8  9  1  0  0  0
  9 10  2  0  0  0
 10 11  1  0  0  0
 10 12  1  0  0  0
 12 13  2  0  0  0
 12 14  1  0  0  0
 14 15  1  0  0  0
 14 16  1  0  0  0
 14 17  1  0  0  0
 21 22  1  0  0  0
 27 28  1  0  0  0
 28 29  1  0  0  0
 28 30  2  0  0  0
 30 24  1  0  0  0
 22 18  1  0  0  0
 13  7  1  0  0  0
  1  5  1  0  0  0
  4  6  1  0  0  0
M  END
> <minimizedAffinity>
29.85450

> <CNNscore>
0.5102370381

> <CNNaffinity>
6.3862991333

> <CNN_VS>
3.2585263252

> <CNNaffinity_variance>
0.4663925171

$$$$
[H]c1c([H])c(N([H])C(=O)N([H])c2nnc(-c3c([H])c([H])c(C([H])([H])[H])c([H])c3F)o2)c([H])c(C(F)(F)F)c1Cl


 30 32  0  0  0  0  0  0  0  0999 V2000
   20.9496    8.6876   52.7487 N   0  0  0  0  0  0  0  0  0  0  0  0
   20.1561    7.5222   52.6634 C   0  0  0  0  0  0  0  0  0  0  0  0
   19.2008    7.5400   51.7769 O   0  0  0  0  0  0  0  0  0  0  0  0
   20.3620    6.4058   53.4680 N   0  0  0  0  0  0  0  0  0  0  0  0
   20.7178    9.5016   52.0873 H   0  0  0  0  0  0  0  0  0  0  0  0
   21.1487    6.4394   54.1872 H   0  0  0  0  0  0  0  0  0  0  0  0
   19.5840    5.2346   53.3803 C   0  0  0  0  0  0  0  0  0  0  0  0
   20.1651    4.1177   52.7604 C   0  0  0  0  0  0  0  0  0  0  0  0
   19.4689    2.9500   52.6048 C   0  0  0  0  0  0  0  0  0  0  0  0
   18.1662    2.8687   53.0677 C   0  0  0  0  0  0  0  0  0  0  0  0
   17.2423    1.3991   52.8906 Cl  0  0  0  0  0  0  0  0  0  0  0  0
   17.5954    3.9515   53.6709 C   0  0  0  0  0  0  0  0  0  0  0  0
   18.3039    5.1517   53.8330 C   0  0  0  0  0  0  0  0  0  0  0  0
   16.2089    3.8863   54.1721 C   0  0  0  0  0  0  0  0  0  0  0  0
   15.4526    2.9716   53.4629 F   0  0  0  0  0  0  0  0  0  0  0  0
   16.2077    3.5654   55.5074 F   0  0  0  0  0  0  0  0  0  0  0  0
   15.6435    5.1649   54.0684 F   0  0  0  0  0  0  0  0  0  0  0  0
   23.9376    9.0021   54.5661 C   0  0  0  0  0  0  0  0  0  0  0  0
   23.0635    9.5089   55.4239 N   0  0  0  0  0  0  0  0  0  0  0  0
   21.8755    9.4604   54.8789 N   0  0  0  0  0  0  0  0  0  0  0  0
   22.0372    8.8967   53.6299 C   0  0  0  0  0  0  0  0  0  0  0  0
   23.3018    8.6447   53.5056 O   0  0  0  0  0  0  0  0  0  0  0  0
   29.5661    8.5677   55.6300 C   0  0  0  0  0  0  0  0  0  0  0  0
   28.1181    8.6656   55.3158 C   0  0  0  0  0  0  0  0  0  0  0  0
   27.2625    9.1185   56.2860 C   0  0  0  0  0  0  0  0  0  0  0  0
   25.9066    9.2208   56.0232 C   0  0  0  0  0  0  0  0  0  0  0  0
   25.3942    8.8796   54.8125 C   0  0  0  0  0  0  0  0  0  0  0  0
   26.2273    8.4277   53.8357 C   0  0  0  0  0  0  0  0  0  0  0  0
   25.7893    8.0719   52.6128 F   0  0  0  0  0  0  0  0  0  0  0  0
   27.5971    8.3200   54.0886 C   0  0  0  0  0  0  0  0  0  0  0  0
 23 24  1  0  0  0
 24 25  2  0  0  0
 25 26  1  0  0  0
 26 27  2  0  0  0
 27 18  1  0  0  0
 18 19  2  0  0  0
 19 20  1  0  0  0
 20 21  2  0  0  0
 21  1  1  0  0  0
  1  2  1  0  0  0
  2  3  2  0  0  0
  2  4  1  0  0  0
  4  7  1  0  0  0
  7  8  2  0  0  0
  8  9  1  0  0  0
  9 10  2  0  0  0
 10 11  1  0  0  0
 10 12  1  0  0  0
 12 13  2  0  0  0
 12 14  1  0  0  0
 14 15  1  0  0  0
 14 16  1  0  0  0
 14 17  1  0  0  0
 21 22  1  0  0  0
 27 28  1  0  0  0
 28 29  1  0  0  0
 28 30  2  0  0  0
 30 24  1  0  0  0
 22 18  1  0  0  0
 13  7  1  0  0  0
  1  5  1  0  0  0
  4  6  1  0  0  0
M  END
> <minimizedAffinity>
21.82231

> <CNNscore>
0.4919149280

> <CNNaffinity>
6.4566087723

> <CNN_VS>
3.1761021614

> <CNNaffinity_variance>
0.3667178750

$$$$
[H]c1c([H])c(N([H])C(=O)N([H])c2nnc(-c3c([H])c([H])c(C([H])([H])[H])c([H])c3F)o2)c([H])c(C(F)(F)F)c1Cl


 30 32  0  0  0  0  0  0  0  0999 V2000
   23.3300    6.4955   54.2060 N   0  0  0  0  0  0  0  0  0  0  0  0
   22.3626    5.4942   53.9684 C   0  0  0  0  0  0  0  0  0  0  0  0
   22.7929    4.2639   53.9795 O   0  0  0  0  0  0  0  0  0  0  0  0
   21.0209    5.7786   53.7332 N   0  0  0  0  0  0  0  0  0  0  0  0
   24.3432    6.1831   54.3779 H   0  0  0  0  0  0  0  0  0  0  0  0
   20.7152    6.8002   53.7225 H   0  0  0  0  0  0  0  0  0  0  0  0
   20.0471    4.7856   53.5086 C   0  0  0  0  0  0  0  0  0  0  0  0
   20.4174    3.6832   52.7230 C   0  0  0  0  0  0  0  0  0  0  0  0
   19.5245    2.6889   52.4294 C   0  0  0  0  0  0  0  0  0  0  0  0
   18.2307    2.7718   52.9164 C   0  0  0  0  0  0  0  0  0  0  0  0
   17.0599    1.5261   52.5667 Cl  0  0  0  0  0  0  0  0  0  0  0  0
   17.8643    3.8415   53.6804 C   0  0  0  0  0  0  0  0  0  0  0  0
   18.7752    4.8644   53.9847 C   0  0  0  0  0  0  0  0  0  0  0  0
   16.4911    3.9494   54.2100 C   0  0  0  0  0  0  0  0  0  0  0  0
   15.6067    3.1590   53.4995 F   0  0  0  0  0  0  0  0  0  0  0  0
   16.4725    3.6015   55.5385 F   0  0  0  0  0  0  0  0  0  0  0  0
   16.0988    5.2936   54.1440 F   0  0  0  0  0  0  0  0  0  0  0  0
   22.5057    9.8907   53.8544 C   0  0  0  0  0  0  0  0  0  0  0  0
   23.1772    9.9088   54.9970 N   0  0  0  0  0  0  0  0  0  0  0  0
   23.5599    8.6882   55.2697 N   0  0  0  0  0  0  0  0  0  0  0  0
   23.0980    7.8912   54.2423 C   0  0  0  0  0  0  0  0  0  0  0  0
   22.4725    8.6777   53.4249 O   0  0  0  0  0  0  0  0  0  0  0  0
   20.2364   14.4722   51.2352 C   0  0  0  0  0  0  0  0  0  0  0  0
   20.8029   13.2990   51.9478 C   0  0  0  0  0  0  0  0  0  0  0  0
   21.6332   12.4502   51.2633 C   0  0  0  0  0  0  0  0  0  0  0  0
   22.1771   11.3474   51.9005 C   0  0  0  0  0  0  0  0  0  0  0  0
   21.9059   11.0802   53.2043 C   0  0  0  0  0  0  0  0  0  0  0  0
   21.0836   11.9110   53.9015 C   0  0  0  0  0  0  0  0  0  0  0  0
   20.7714   11.7079   55.1958 F   0  0  0  0  0  0  0  0  0  0  0  0
   20.5289   13.0268   53.2698 C   0  0  0  0  0  0  0  0  0  0  0  0
 23 24  1  0  0  0
 24 25  2  0  0  0
 25 26  1  0  0  0
 26 27  2  0  0  0
 27 18  1  0  0  0
 18 19  2  0  0  0
 19 20  1  0  0  0
 20 21  2  0  0  0
 21  1  1  0  0  0
  1  2  1  0  0  0
  2  3  2  0  0  0
  2  4  1  0  0  0
  4  7  1  0  0  0
  7  8  2  0  0  0
  8  9  1  0  0  0
  9 10  2  0  0  0
 10 11  1  0  0  0
 10 12  1  0  0  0
 12 13  2  0  0  0
 12 14  1  0  0  0
 14 15  1  0  0  0
 14 16  1  0  0  0
 14 17  1  0  0  0
 21 22  1  0  0  0
 27 28  1  0  0  0
 28 29  1  0  0  0
 28 30  2  0  0  0
 30 24  1  0  0  0
 22 18  1  0  0  0
 13  7  1  0  0  0
  1  5  1  0  0  0
  4  6  1  0  0  0
M  END
> <minimizedAffinity>
33.96954

> <CNNscore>
0.4854739308

> <CNNaffinity>
6.1375346184

> <CNN_VS>
2.9796130657

> <CNNaffinity_variance>
0.5067341924

$$$$
[H]c1c([H])c(N([H])C(=O)N([H])c2nnc(-c3c([H])c([H])c(C([H])([H])[H])c([H])c3F)o2)c([H])c(C(F)(F)F)c1Cl


 30 32  0  0  0  0  0  0  0  0999 V2000
   22.6083    6.8859   54.3762 N   0  0  0  0  0  0  0  0  0  0  0  0
   21.7654    5.7841   54.1105 C   0  0  0  0  0  0  0  0  0  0  0  0
   22.3084    4.6043   54.2208 O   0  0  0  0  0  0  0  0  0  0  0  0
   20.4287    5.9234   53.7499 N   0  0  0  0  0  0  0  0  0  0  0  0
   23.6275    6.6834   54.6479 H   0  0  0  0  0  0  0  0  0  0  0  0
   20.0292    6.9081   53.6612 H   0  0  0  0  0  0  0  0  0  0  0  0
   19.5776    4.8297   53.4962 C   0  0  0  0  0  0  0  0  0  0  0  0
   20.1114    3.7483   52.7787 C   0  0  0  0  0  0  0  0  0  0  0  0
   19.3456    2.6596   52.4616 C   0  0  0  0  0  0  0  0  0  0  0  0
   18.0185    2.6241   52.8560 C   0  0  0  0  0  0  0  0  0  0  0  0
   17.0061    1.2554   52.4735 Cl  0  0  0  0  0  0  0  0  0  0  0  0
   17.4934    3.6728   53.5536 C   0  0  0  0  0  0  0  0  0  0  0  0
   18.2735    4.7921   53.8814 C   0  0  0  0  0  0  0  0  0  0  0  0
   16.0820    3.6554   53.9842 C   0  0  0  0  0  0  0  0  0  0  0  0
   15.5072    4.9099   53.8992 F   0  0  0  0  0  0  0  0  0  0  0  0
   15.3714    2.7582   53.2251 F   0  0  0  0  0  0  0  0  0  0  0  0
   16.0312    3.1888   55.3051 F   0  0  0  0  0  0  0  0  0  0  0  0
   21.7451   10.2282   53.7326 C   0  0  0  0  0  0  0  0  0  0  0  0
   21.6680   10.1957   55.0553 N   0  0  0  0  0  0  0  0  0  0  0  0
   21.9690    8.9876   55.4562 N   0  0  0  0  0  0  0  0  0  0  0  0
   22.2420    8.2520   54.3213 C   0  0  0  0  0  0  0  0  0  0  0  0
   22.0887    9.0586   53.3193 O   0  0  0  0  0  0  0  0  0  0  0  0
   20.7342   14.7948   50.3972 C   0  0  0  0  0  0  0  0  0  0  0  0
   20.9843   13.6373   51.2932 C   0  0  0  0  0  0  0  0  0  0  0  0
   21.4158   12.4588   50.7423 C   0  0  0  0  0  0  0  0  0  0  0  0
   21.6577   11.3615   51.5519 C   0  0  0  0  0  0  0  0  0  0  0  0
   21.4762   11.4224   52.8965 C   0  0  0  0  0  0  0  0  0  0  0  0
   21.0483   12.5836   53.4629 C   0  0  0  0  0  0  0  0  0  0  0  0
   20.8472   12.7160   54.7880 F   0  0  0  0  0  0  0  0  0  0  0  0
   20.8008   13.6976   52.6568 C   0  0  0  0  0  0  0  0  0  0  0  0
 23 24  1  0  0  0
 24 25  2  0  0  0
 25 26  1  0  0  0
 26 27  2  0  0  0
 27 18  1  0  0  0
 18 19  2  0  0  0
 19 20  1  0  0  0
 20 21  2  0  0  0
 21  1  1  0  0  0
  1  2  1  0  0  0
  2  3  2  0  0  0
  2  4  1  0  0  0
  4  7  1  0  0  0
  7  8  2  0  0  0
  8  9  1  0  0  0
  9 10  2  0  0  0
 10 11  1  0  0  0
 10 12  1  0  0  0
 12 13  2  0  0  0
 12 14  1  0  0  0
 14 15  1  0  0  0
 14 16  1  0  0  0
 14 17  1  0  0  0
 21 22  1  0  0  0
 27 28  1  0  0  0
 28 29  1  0  0  0
 28 30  2  0  0  0
 30 24  1  0  0  0
 22 18  1  0  0  0
 13  7  1  0  0  0
  1  5  1  0  0  0
  4  6  1  0  0  0
M  END
> <minimizedAffinity>
35.73627

> <CNNscore>
0.4796779752

> <CNNaffinity>
6.1904792786

> <CNN_VS>
2.9694366455

> <CNNaffinity_variance>
0.4271287024

$$$$
[H]c1c([H])c(N([H])C(=O)N([H])c2nnc(-c3c([H])c([H])c(C([H])([H])[H])c([H])c3F)o2)c([H])c(C(F)(F)F)c1Cl


 30 32  0  0  0  0  0  0  0  0999 V2000
   20.5898    8.8902   54.5056 N   0  0  0  0  0  0  0  0  0  0  0  0
   20.0530    7.6375   54.1348 C   0  0  0  0  0  0  0  0  0  0  0  0
   18.7752    7.6118   53.8787 O   0  0  0  0  0  0  0  0  0  0  0  0
   20.8228    6.4820   54.0410 N   0  0  0  0  0  0  0  0  0  0  0  0
   19.9201    9.7287   54.5522 H   0  0  0  0  0  0  0  0  0  0  0  0
   21.8622    6.5474   54.2700 H   0  0  0  0  0  0  0  0  0  0  0  0
   20.2981    5.2316   53.6590 C   0  0  0  0  0  0  0  0  0  0  0  0
   18.9018    5.0914   53.6519 C   0  0  0  0  0  0  0  0  0  0  0  0
   18.3095    3.9023   53.3244 C   0  0  0  0  0  0  0  0  0  0  0  0
   19.1027    2.8163   52.9936 C   0  0  0  0  0  0  0  0  0  0  0  0
   18.3893    1.2816   52.5691 Cl  0  0  0  0  0  0  0  0  0  0  0  0
   20.4611    2.9461   52.9991 C   0  0  0  0  0  0  0  0  0  0  0  0
   21.0745    4.1627   53.3345 C   0  0  0  0  0  0  0  0  0  0  0  0
   21.3251    1.8020   52.6493 C   0  0  0  0  0  0  0  0  0  0  0  0
   22.6654    2.1190   52.7707 F   0  0  0  0  0  0  0  0  0  0  0  0
   21.0211    0.7246   53.4449 F   0  0  0  0  0  0  0  0  0  0  0  0
   21.0361    1.4195   51.3320 F   0  0  0  0  0  0  0  0  0  0  0  0
   24.0559    9.1629   54.9971 C   0  0  0  0  0  0  0  0  0  0  0  0
   23.6127   10.1575   55.7528 N   0  0  0  0  0  0  0  0  0  0  0  0
   22.3076   10.1864   55.6723 N   0  0  0  0  0  0  0  0  0  0  0  0
   21.9417    9.1593   54.8267 C   0  0  0  0  0  0  0  0  0  0  0  0
   23.0415    8.5838   54.4563 O   0  0  0  0  0  0  0  0  0  0  0  0
   29.5654    7.7411   54.2069 C   0  0  0  0  0  0  0  0  0  0  0  0
   28.1495    8.1154   54.4521 C   0  0  0  0  0  0  0  0  0  0  0  0
   27.2707    8.0942   53.4005 C   0  0  0  0  0  0  0  0  0  0  0  0
   25.9438    8.4382   53.5976 C   0  0  0  0  0  0  0  0  0  0  0  0
   25.4829    8.8012   54.8226 C   0  0  0  0  0  0  0  0  0  0  0  0
   26.3396    8.8285   55.8797 C   0  0  0  0  0  0  0  0  0  0  0  0
   25.9524    9.1782   57.1214 F   0  0  0  0  0  0  0  0  0  0  0  0
   27.6807    8.4836   55.6936 C   0  0  0  0  0  0  0  0  0  0  0  0
 23 24  1  0  0  0
 24 25  2  0  0  0
 25 26  1  0  0  0
 26 27  2  0  0  0
 27 18  1  0  0  0
 18 19  2  0  0  0
 19 20  1  0  0  0
 20 21  2  0  0  0
 21  1  1  0  0  0
  1  2  1  0  0  0
  2  3  2  0  0  0
  2  4  1  0  0  0
  4  7  1  0  0  0
  7  8  2  0  0  0
  8  9  1  0  0  0
  9 10  2  0  0  0
 10 11  1  0  0  0
 10 12  1  0  0  0
 12 13  2  0  0  0
 12 14  1  0  0  0
 14 15  1  0  0  0
 14 16  1  0  0  0
 14 17  1  0  0  0
 21 22  1  0  0  0
 27 28  1  0  0  0
 28 29  1  0  0  0
 28 30  2  0  0  0
 30 24  1  0  0  0
 22 18  1  0  0  0
 13  7  1  0  0  0
  1  5  1  0  0  0
  4  6  1  0  0  0
M  END
> <minimizedAffinity>
39.79896

> <CNNscore>
0.4512517154

> <CNNaffinity>
5.9921030998

> <CNN_VS>
2.7039468288

> <CNNaffinity_variance>
0.4274967611

$$$$
[H]c1c([H])c(N([H])C(=O)N([H])c2nnc(-c3c([H])c([H])c(C([H])([H])[H])c([H])c3F)o2)c([H])c(C(F)(F)F)c1Cl


 30 32  0  0  0  0  0  0  0  0999 V2000
   23.5493    6.9444   53.9816 N   0  0  0  0  0  0  0  0  0  0  0  0
   23.2144    8.3119   53.8690 C   0  0  0  0  0  0  0  0  0  0  0  0
   24.1916    9.1591   54.0312 O   0  0  0  0  0  0  0  0  0  0  0  0
   21.9229    8.7553   53.6010 N   0  0  0  0  0  0  0  0  0  0  0  0
   24.5727    6.6944   54.1907 H   0  0  0  0  0  0  0  0  0  0  0  0
   21.1523    8.0272   53.4862 H   0  0  0  0  0  0  0  0  0  0  0  0
   21.5828   10.1165   53.4739 C   0  0  0  0  0  0  0  0  0  0  0  0
   21.0406   10.7551   54.5998 C   0  0  0  0  0  0  0  0  0  0  0  0
   20.6536   12.0667   54.5542 C   0  0  0  0  0  0  0  0  0  0  0  0
   20.7996   12.7778   53.3748 C   0  0  0  0  0  0  0  0  0  0  0  0
   20.3198   14.4523   53.2725 Cl  0  0  0  0  0  0  0  0  0  0  0  0
   21.3258   12.1624   52.2763 C   0  0  0  0  0  0  0  0  0  0  0  0
   21.7240   10.8176   52.3166 C   0  0  0  0  0  0  0  0  0  0  0  0
   21.4908   12.9015   51.0097 C   0  0  0  0  0  0  0  0  0  0  0  0
   20.7036   14.0376   50.9758 F   0  0  0  0  0  0  0  0  0  0  0  0
   22.8107   13.2364   50.8311 F   0  0  0  0  0  0  0  0  0  0  0  0
   21.1499   12.0453   49.9535 F   0  0  0  0  0  0  0  0  0  0  0  0
   20.9717    4.5817   53.6591 C   0  0  0  0  0  0  0  0  0  0  0  0
   22.0405    3.7985   53.6260 N   0  0  0  0  0  0  0  0  0  0  0  0
   23.1055    4.5494   53.7378 N   0  0  0  0  0  0  0  0  0  0  0  0
   22.6608    5.8513   53.8441 C   0  0  0  0  0  0  0  0  0  0  0  0
   21.3676    5.7995   53.7896 O   0  0  0  0  0  0  0  0  0  0  0  0
   15.5083    2.8330   53.3529 C   0  0  0  0  0  0  0  0  0  0  0  0
   16.9313    3.2542   53.4051 C   0  0  0  0  0  0  0  0  0  0  0  0
   17.2741    4.3214   54.1939 C   0  0  0  0  0  0  0  0  0  0  0  0
   18.5930    4.7380   54.2633 C   0  0  0  0  0  0  0  0  0  0  0  0
   19.5703    4.1087   53.5607 C   0  0  0  0  0  0  0  0  0  0  0  0
   19.2504    3.0468   52.7716 C   0  0  0  0  0  0  0  0  0  0  0  0
   20.1668    2.3759   52.0479 F   0  0  0  0  0  0  0  0  0  0  0  0
   17.9233    2.6170   52.6933 C   0  0  0  0  0  0  0  0  0  0  0  0
 23 24  1  0  0  0
 24 25  2  0  0  0
 25 26  1  0  0  0
 26 27  2  0  0  0
 27 18  1  0  0  0
 18 19  2  0  0  0
 19 20  1  0  0  0
 20 21  2  0  0  0
 21  1  1  0  0  0
  1  2  1  0  0  0
  2  3  2  0  0  0
  2  4  1  0  0  0
  4  7  1  0  0  0
  7  8  2  0  0  0
  8  9  1  0  0  0
  9 10  2  0  0  0
 10 11  1  0  0  0
 10 12  1  0  0  0
 12 13  2  0  0  0
 12 14  1  0  0  0
 14 15  1  0  0  0
 14 16  1  0  0  0
 14 17  1  0  0  0
 21 22  1  0  0  0
 27 28  1  0  0  0
 28 29  1  0  0  0
 28 30  2  0  0  0
 30 24  1  0  0  0
 22 18  1  0  0  0
 13  7  1  0  0  0
  1  5  1  0  0  0
  4  6  1  0  0  0
M  END
> <minimizedAffinity>
39.31795

> <CNNscore>
0.4210756123

> <CNNaffinity>
5.9698920250

> <CNN_VS>
2.5137758255

> <CNNaffinity_variance>
0.8751887083

$$$$
[H]c1c([H])c(C([H])([H])[H])c([H])c(C([H])([H])C([H])([H])C(=O)N([H])c2c([H])c(F)c([H])c([N+](=O)[O-])c2[H])c1[H]


 23 24  0  0  0  0  0  0  0  0999 V2000
   27.2655    8.9574   52.6055 C   0  0  0  0  0  0  0  0  0  0  0  0
   28.3458    8.3621   52.6746 O   0  0  0  0  0  0  0  0  0  0  0  0
   26.8668    9.7158   51.5100 N   0  0  0  0  0  0  0  0  0  0  0  0
   25.9128   10.1886   51.5471 H   0  0  0  0  0  0  0  0  0  0  0  0
   27.6346    9.9146   50.3419 C   0  0  0  0  0  0  0  0  0  0  0  0
   28.0978   11.1163   49.8733 C   0  0  0  0  0  0  0  0  0  0  0  0
   28.8754   11.2013   48.7111 C   0  0  0  0  0  0  0  0  0  0  0  0
   29.2952   12.4441   48.3176 F   0  0  0  0  0  0  0  0  0  0  0  0
   29.2124   10.0943   47.9837 C   0  0  0  0  0  0  0  0  0  0  0  0
   28.7550    8.8665   48.4370 C   0  0  0  0  0  0  0  0  0  0  0  0
   27.9989    8.7943   49.5699 C   0  0  0  0  0  0  0  0  0  0  0  0
   29.0652    7.6702   47.7320 N   0  0  0  0  0  0  0  0  0  0  0  0
   29.1197    7.6826   46.3708 O   0  0  0  0  0  0  0  0  0  0  0  0
   29.2873    6.6147   48.3411 O   0  0  0  0  0  0  0  0  0  0  0  0
   26.3819    8.8031   53.8235 C   0  0  0  0  0  0  0  0  0  0  0  0
   25.9016    7.4005   53.9905 C   0  0  0  0  0  0  0  0  0  0  0  0
   21.5374    9.2160   52.5274 C   0  0  0  0  0  0  0  0  0  0  0  0
   22.3264    8.1417   53.2030 C   0  0  0  0  0  0  0  0  0  0  0  0
   21.7166    7.0302   53.7507 C   0  0  0  0  0  0  0  0  0  0  0  0
   22.4606    6.0333   54.3790 C   0  0  0  0  0  0  0  0  0  0  0  0
   23.8275    6.1325   54.4693 C   0  0  0  0  0  0  0  0  0  0  0  0
   24.4581    7.2346   53.9290 C   0  0  0  0  0  0  0  0  0  0  0  0
   23.7014    8.2182   53.3067 C   0  0  0  0  0  0  0  0  0  0  0  0
 17 18  1  0  0  0
 18 19  2  0  0  0
 19 20  1  0  0  0
 20 21  2  0  0  0
 21 22  1  0  0  0
 22 16  1  0  0  0
 16 15  1  0  0  0
 15  1  1  0  0  0
  1  2  2  0  0  0
  1  3  1  0  0  0
  3  5  1  0  0  0
  5  6  2  0  0  0
  6  7  1  0  0  0
  7  8  1  0  0  0
  7  9  2  0  0  0
  9 10  1  0  0  0
 10 11  2  0  0  0
 10 12  1  0  0  0
 12 13  1  0  0  0
 12 14  2  0  0  0
 22 23  2  0  0  0
 23 18  1  0  0  0
 11  5  1  0  0  0
  3  4  1  0  0  0
M  CHG 1  12   1
M  CHG 1  13  -1
M  END
> <minimizedAffinity>
16.73220

> <CNNscore>
0.7926215529

> <CNNaffinity>
5.6938238144

> <CNN_VS>
4.5130476952

> <CNNaffinity_variance>
0.0715905204

$$$$
[H]c1c([H])c(C([H])([H])[H])c([H])c(C([H])([H])C([H])([H])C(=O)N([H])c2c([H])c(F)c([H])c([N+](=O)[O-])c2[H])c1[H]


 23 24  0  0  0  0  0  0  0  0999 V2000
   25.9068    7.7728   53.4576 C   0  0  0  0  0  0  0  0  0  0  0  0
   25.9305    8.6720   52.6107 O   0  0  0  0  0  0  0  0  0  0  0  0
   24.7773    7.4297   54.1928 N   0  0  0  0  0  0  0  0  0  0  0  0
   24.8595    6.6358   54.8985 H   0  0  0  0  0  0  0  0  0  0  0  0
   23.5180    8.0584   54.0807 C   0  0  0  0  0  0  0  0  0  0  0  0
   23.0464    9.0717   54.8737 C   0  0  0  0  0  0  0  0  0  0  0  0
   21.7856    9.6446   54.6618 C   0  0  0  0  0  0  0  0  0  0  0  0
   21.3969   10.6529   55.5031 F   0  0  0  0  0  0  0  0  0  0  0  0
   20.9602    9.2249   53.6565 C   0  0  0  0  0  0  0  0  0  0  0  0
   21.4145    8.2000   52.8406 C   0  0  0  0  0  0  0  0  0  0  0  0
   22.6437    7.6492   53.0550 C   0  0  0  0  0  0  0  0  0  0  0  0
   20.6107    7.7101   51.7737 N   0  0  0  0  0  0  0  0  0  0  0  0
   19.7399    6.6867   51.9984 O   0  0  0  0  0  0  0  0  0  0  0  0
   20.6922    8.2032   50.6403 O   0  0  0  0  0  0  0  0  0  0  0  0
   27.2225    7.0507   53.6470 C   0  0  0  0  0  0  0  0  0  0  0  0
   28.2810    7.9521   54.1880 C   0  0  0  0  0  0  0  0  0  0  0  0
   24.7277   10.2282   56.7719 C   0  0  0  0  0  0  0  0  0  0  0  0
   26.1523    9.7962   56.6415 C   0  0  0  0  0  0  0  0  0  0  0  0
   27.0870   10.0765   57.6188 C   0  0  0  0  0  0  0  0  0  0  0  0
   28.4135    9.6697   57.4886 C   0  0  0  0  0  0  0  0  0  0  0  0
   28.8263    8.9752   56.3778 C   0  0  0  0  0  0  0  0  0  0  0  0
   27.9093    8.6839   55.3886 C   0  0  0  0  0  0  0  0  0  0  0  0
   26.5919    9.0970   55.5347 C   0  0  0  0  0  0  0  0  0  0  0  0
 17 18  1  0  0  0
 18 19  2  0  0  0
 19 20  1  0  0  0
 20 21  2  0  0  0
 21 22  1  0  0  0
 22 16  1  0  0  0
 16 15  1  0  0  0
 15  1  1  0  0  0
  1  2  2  0  0  0
  1  3  1  0  0  0
  3  5  1  0  0  0
  5  6  2  0  0  0
  6  7  1  0  0  0
  7  8  1  0  0  0
  7  9  2  0  0  0
  9 10  1  0  0  0
 10 11  2  0  0  0
 10 12  1  0  0  0
 12 13  1  0  0  0
 12 14  2  0  0  0
 22 23  2  0  0  0
 23 18  1  0  0  0
 11  5  1  0  0  0
  3  4  1  0  0  0
M  CHG 1  12   1
M  CHG 1  13  -1
M  END
> <minimizedAffinity>
10.72696

> <CNNscore>
0.6710475683

> <CNNaffinity>
5.8600902557

> <CNN_VS>
3.9323992729

> <CNNaffinity_variance>
0.1718667299

$$$$
[H]c1c([H])c(C([H])([H])[H])c([H])c(C([H])([H])C([H])([H])C(=O)N([H])c2c([H])c(F)c([H])c([N+](=O)[O-])c2[H])c1[H]


 23 24  0  0  0  0  0  0  0  0999 V2000
   23.7113    6.4597   53.6885 C   0  0  0  0  0  0  0  0  0  0  0  0
   24.4754    5.6914   53.0951 O   0  0  0  0  0  0  0  0  0  0  0  0
   24.1153    7.6521   54.2792 N   0  0  0  0  0  0  0  0  0  0  0  0
   23.3773    8.2469   54.7656 H   0  0  0  0  0  0  0  0  0  0  0  0
   25.4399    8.1409   54.2897 C   0  0  0  0  0  0  0  0  0  0  0  0
   26.2501    8.2580   55.3888 C   0  0  0  0  0  0  0  0  0  0  0  0
   27.5634    8.7350   55.2861 C   0  0  0  0  0  0  0  0  0  0  0  0
   28.3007    8.8178   56.4372 F   0  0  0  0  0  0  0  0  0  0  0  0
   28.1055    9.1088   54.0884 C   0  0  0  0  0  0  0  0  0  0  0  0
   27.3052    9.0004   52.9614 C   0  0  0  0  0  0  0  0  0  0  0  0
   26.0281    8.5344   53.0719 C   0  0  0  0  0  0  0  0  0  0  0  0
   27.8006    9.3709   51.6801 N   0  0  0  0  0  0  0  0  0  0  0  0
   28.7127   10.3773   51.5733 O   0  0  0  0  0  0  0  0  0  0  0  0
   27.4126    8.7891   50.6577 O   0  0  0  0  0  0  0  0  0  0  0  0
   22.2690    6.0056   53.7311 C   0  0  0  0  0  0  0  0  0  0  0  0
   21.3723    6.9230   52.9695 C   0  0  0  0  0  0  0  0  0  0  0  0
   21.6497   11.7030   51.7213 C   0  0  0  0  0  0  0  0  0  0  0  0
   21.5351   10.6496   52.7751 C   0  0  0  0  0  0  0  0  0  0  0  0
   21.4559   10.9712   54.1157 C   0  0  0  0  0  0  0  0  0  0  0  0
   21.3493    9.9821   55.0915 C   0  0  0  0  0  0  0  0  0  0  0  0
   21.3201    8.6542   54.7413 C   0  0  0  0  0  0  0  0  0  0  0  0
   21.3979    8.3097   53.4073 C   0  0  0  0  0  0  0  0  0  0  0  0
   21.5038    9.3081   52.4486 C   0  0  0  0  0  0  0  0  0  0  0  0
 17 18  1  0  0  0
 18 19  2  0  0  0
 19 20  1  0  0  0
 20 21  2  0  0  0
 21 22  1  0  0  0
 22 16  1  0  0  0
 16 15  1  0  0  0
 15  1  1  0  0  0
  1  2  2  0  0  0
  1  3  1  0  0  0
  3  5  1  0  0  0
  5  6  2  0  0  0
  6  7  1  0  0  0
  7  8  1  0  0  0
  7  9  2  0  0  0
  9 10  1  0  0  0
 10 11  2  0  0  0
 10 12  1  0  0  0
 12 13  1  0  0  0
 12 14  2  0  0  0
 22 23  2  0  0  0
 23 18  1  0  0  0
 11  5  1  0  0  0
  3  4  1  0  0  0
M  CHG 1  12   1
M  CHG 1  13  -1
M  END
> <minimizedAffinity>
6.10918

> <CNNscore>
0.6672175527

> <CNNaffinity>
5.6142959595

> <CNN_VS>
3.7459568977

> <CNNaffinity_variance>
0.0329120830

$$$$
[H]c1c([H])c(C([H])([H])[H])c([H])c(C([H])([H])C([H])([H])C(=O)N([H])c2c([H])c(F)c([H])c([N+](=O)[O-])c2[H])c1[H]


 23 24  0  0  0  0  0  0  0  0999 V2000
   26.3122    7.9825   54.3077 C   0  0  0  0  0  0  0  0  0  0  0  0
   26.1354    8.2198   55.5071 O   0  0  0  0  0  0  0  0  0  0  0  0
   25.3071    8.0456   53.3485 N   0  0  0  0  0  0  0  0  0  0  0  0
   25.5628    7.8250   52.3380 H   0  0  0  0  0  0  0  0  0  0  0  0
   23.9600    8.3779   53.6097 C   0  0  0  0  0  0  0  0  0  0  0  0
   23.4544    8.8281   54.8013 C   0  0  0  0  0  0  0  0  0  0  0  0
   22.0998    9.1539   54.9486 C   0  0  0  0  0  0  0  0  0  0  0  0
   21.6831    9.5966   56.1758 F   0  0  0  0  0  0  0  0  0  0  0  0
   21.2121    9.0403   53.9156 C   0  0  0  0  0  0  0  0  0  0  0  0
   21.6992    8.5860   52.6996 C   0  0  0  0  0  0  0  0  0  0  0  0
   23.0198    8.2718   52.5663 C   0  0  0  0  0  0  0  0  0  0  0  0
   20.8347    8.4417   51.5788 N   0  0  0  0  0  0  0  0  0  0  0  0
   20.9313    7.3360   50.7887 O   0  0  0  0  0  0  0  0  0  0  0  0
   19.9930    9.3102   51.3113 O   0  0  0  0  0  0  0  0  0  0  0  0
   27.7316    7.6089   53.9417 C   0  0  0  0  0  0  0  0  0  0  0  0
   28.7178    8.1207   54.9373 C   0  0  0  0  0  0  0  0  0  0  0  0
   25.2547   11.3855   56.2904 C   0  0  0  0  0  0  0  0  0  0  0  0
   26.4462   10.5518   56.6347 C   0  0  0  0  0  0  0  0  0  0  0  0
   26.9967   10.5624   57.9012 C   0  0  0  0  0  0  0  0  0  0  0  0
   28.1080    9.7816   58.2131 C   0  0  0  0  0  0  0  0  0  0  0  0
   28.6867    8.9770   57.2621 C   0  0  0  0  0  0  0  0  0  0  0  0
   28.1532    8.9505   55.9898 C   0  0  0  0  0  0  0  0  0  0  0  0
   27.0458    9.7349   55.6965 C   0  0  0  0  0  0  0  0  0  0  0  0
 17 18  1  0  0  0
 18 19  2  0  0  0
 19 20  1  0  0  0
 20 21  2  0  0  0
 21 22  1  0  0  0
 22 16  1  0  0  0
 16 15  1  0  0  0
 15  1  1  0  0  0
  1  2  2  0  0  0
  1  3  1  0  0  0
  3  5  1  0  0  0
  5  6  2  0  0  0
  6  7  1  0  0  0
  7  8  1  0  0  0
  7  9  2  0  0  0
  9 10  1  0  0  0
 10 11  2  0  0  0
 10 12  1  0  0  0
 12 13  1  0  0  0
 12 14  2  0  0  0
 22 23  2  0  0  0
 23 18  1  0  0  0
 11  5  1  0  0  0
  3  4  1  0  0  0
M  CHG 1  12   1
M  CHG 1  13  -1
M  END
> <minimizedAffinity>
15.95353

> <CNNscore>
0.6622543931

> <CNNaffinity>
5.6938438416

> <CNN_VS>
3.7707731724

> <CNNaffinity_variance>
0.1398055553

$$$$
[H]c1c([H])c(C([H])([H])[H])c([H])c(C([H])([H])C([H])([H])C(=O)N([H])c2c([H])c(F)c([H])c([N+](=O)[O-])c2[H])c1[H]


 23 24  0  0  0  0  0  0  0  0999 V2000
   22.6987    9.9049   55.5456 C   0  0  0  0  0  0  0  0  0  0  0  0
   22.8792   10.2176   56.7270 O   0  0  0  0  0  0  0  0  0  0  0  0
   23.6969    9.4098   54.7133 N   0  0  0  0  0  0  0  0  0  0  0  0
   23.4383    9.1665   53.7088 H   0  0  0  0  0  0  0  0  0  0  0  0
   25.0406    9.2054   55.0956 C   0  0  0  0  0  0  0  0  0  0  0  0
   25.5819    9.4765   56.3251 C   0  0  0  0  0  0  0  0  0  0  0  0
   26.9281    9.2129   56.6096 C   0  0  0  0  0  0  0  0  0  0  0  0
   27.3826    9.5154   57.8656 F   0  0  0  0  0  0  0  0  0  0  0  0
   27.7718    8.6735   55.6794 C   0  0  0  0  0  0  0  0  0  0  0  0
   27.2479    8.3910   54.4271 C   0  0  0  0  0  0  0  0  0  0  0  0
   25.9359    8.6510   54.1602 C   0  0  0  0  0  0  0  0  0  0  0  0
   28.0657    7.8288   53.4074 N   0  0  0  0  0  0  0  0  0  0  0  0
   28.0885    8.3970   52.1694 O   0  0  0  0  0  0  0  0  0  0  0  0
   28.7591    6.8270   53.6311 O   0  0  0  0  0  0  0  0  0  0  0  0
   21.2827   10.1013   55.0510 C   0  0  0  0  0  0  0  0  0  0  0  0
   21.1039    9.6007   53.6570 C   0  0  0  0  0  0  0  0  0  0  0  0
   23.9472    5.5576   53.4284 C   0  0  0  0  0  0  0  0  0  0  0  0
   22.5906    6.1838   53.3996 C   0  0  0  0  0  0  0  0  0  0  0  0
   21.4464    5.4273   53.2396 C   0  0  0  0  0  0  0  0  0  0  0  0
   20.1855    6.0201   53.2138 C   0  0  0  0  0  0  0  0  0  0  0  0
   20.0490    7.3802   53.3481 C   0  0  0  0  0  0  0  0  0  0  0  0
   21.1789    8.1559   53.5093 C   0  0  0  0  0  0  0  0  0  0  0  0
   22.4271    7.5487   53.5325 C   0  0  0  0  0  0  0  0  0  0  0  0
 17 18  1  0  0  0
 18 19  2  0  0  0
 19 20  1  0  0  0
 20 21  2  0  0  0
 21 22  1  0  0  0
 22 16  1  0  0  0
 16 15  1  0  0  0
 15  1  1  0  0  0
  1  2  2  0  0  0
  1  3  1  0  0  0
  3  5  1  0  0  0
  5  6  2  0  0  0
  6  7  1  0  0  0
  7  8  1  0  0  0
  7  9  2  0  0  0
  9 10  1  0  0  0
 10 11  2  0  0  0
 10 12  1  0  0  0
 12 13  1  0  0  0
 12 14  2  0  0  0
 22 23  2  0  0  0
 23 18  1  0  0  0
 11  5  1  0  0  0
  3  4  1  0  0  0
M  CHG 1  12   1
M  CHG 1  13  -1
M  END
> <minimizedAffinity>
10.10707

> <CNNscore>
0.6165838838

> <CNNaffinity>
5.4721617699

> <CNN_VS>
3.3740468025

> <CNNaffinity_variance>
0.1394183636

$$$$
[H]c1c([H])c(C([H])([H])[H])c([H])c(C([H])([H])C([H])([H])C(=O)N([H])c2c([H])c(F)c([H])c([N+](=O)[O-])c2[H])c1[H]


 23 24  0  0  0  0  0  0  0  0999 V2000
   24.2988    9.1626   55.4964 C   0  0  0  0  0  0  0  0  0  0  0  0
   23.5617   10.0417   55.9548 O   0  0  0  0  0  0  0  0  0  0  0  0
   24.0771    8.5196   54.2834 N   0  0  0  0  0  0  0  0  0  0  0  0
   24.7745    7.7757   53.9745 H   0  0  0  0  0  0  0  0  0  0  0  0
   22.9882    8.7733   53.4211 C   0  0  0  0  0  0  0  0  0  0  0  0
   22.0878    7.8480   52.9614 C   0  0  0  0  0  0  0  0  0  0  0  0
   21.0242    8.2104   52.1246 C   0  0  0  0  0  0  0  0  0  0  0  0
   20.1729    7.2191   51.7145 F   0  0  0  0  0  0  0  0  0  0  0  0
   20.8281    9.5017   51.7222 C   0  0  0  0  0  0  0  0  0  0  0  0
   21.7264   10.4567   52.1734 C   0  0  0  0  0  0  0  0  0  0  0  0
   22.7583   10.0937   52.9881 C   0  0  0  0  0  0  0  0  0  0  0  0
   21.5866   11.8214   51.7960 N   0  0  0  0  0  0  0  0  0  0  0  0
   22.6960   12.5660   51.5299 O   0  0  0  0  0  0  0  0  0  0  0  0
   20.4666   12.3428   51.7058 O   0  0  0  0  0  0  0  0  0  0  0  0
   25.4898    8.8228   56.3649 C   0  0  0  0  0  0  0  0  0  0  0  0
   26.5627    9.8551   56.2696 C   0  0  0  0  0  0  0  0  0  0  0  0
   28.8969   12.6493   59.6203 C   0  0  0  0  0  0  0  0  0  0  0  0
   28.5977   11.3018   59.0476 C   0  0  0  0  0  0  0  0  0  0  0  0
   29.1485   10.1510   59.5764 C   0  0  0  0  0  0  0  0  0  0  0  0
   28.8638    8.8986   59.0357 C   0  0  0  0  0  0  0  0  0  0  0  0
   28.0228    8.7773   57.9565 C   0  0  0  0  0  0  0  0  0  0  0  0
   27.4610    9.9140   57.4118 C   0  0  0  0  0  0  0  0  0  0  0  0
   27.7556   11.1536   57.9632 C   0  0  0  0  0  0  0  0  0  0  0  0
 17 18  1  0  0  0
 18 19  2  0  0  0
 19 20  1  0  0  0
 20 21  2  0  0  0
 21 22  1  0  0  0
 22 16  1  0  0  0
 16 15  1  0  0  0
 15  1  1  0  0  0
  1  2  2  0  0  0
  1  3  1  0  0  0
  3  5  1  0  0  0
  5  6  2  0  0  0
  6  7  1  0  0  0
  7  8  1  0  0  0
  7  9  2  0  0  0
  9 10  1  0  0  0
 10 11  2  0  0  0
 10 12  1  0  0  0
 12 13  1  0  0  0
 12 14  2  0  0  0
 22 23  2  0  0  0
 23 18  1  0  0  0
 11  5  1  0  0  0
  3  4  1  0  0  0
M  CHG 1  12   1
M  CHG 1  13  -1
M  END
> <minimizedAffinity>
13.57313

> <CNNscore>
0.6129901409

> <CNNaffinity>
5.2479429245

> <CNN_VS>
3.2169373035

> <CNNaffinity_variance>
0.0912722349

$$$$
[H]c1c([H])c(C([H])([H])[H])c([H])c(C([H])([H])C([H])([H])C(=O)N([H])c2c([H])c(F)c([H])c([N+](=O)[O-])c2[H])c1[H]


 23 24  0  0  0  0  0  0  0  0999 V2000
   23.1381    9.2486   55.8047 C   0  0  0  0  0  0  0  0  0  0  0  0
   22.4490    8.2240   55.8421 O   0  0  0  0  0  0  0  0  0  0  0  0
   23.1391   10.1440   54.7405 N   0  0  0  0  0  0  0  0  0  0  0  0
   23.7683   11.0013   54.8061 H   0  0  0  0  0  0  0  0  0  0  0  0
   22.3679   10.0046   53.5660 C   0  0  0  0  0  0  0  0  0  0  0  0
   21.8158    8.8424   53.0942 C   0  0  0  0  0  0  0  0  0  0  0  0
   21.0438    8.8172   51.9254 C   0  0  0  0  0  0  0  0  0  0  0  0
   20.5311    7.6108   51.5290 F   0  0  0  0  0  0  0  0  0  0  0  0
   20.8009    9.9464   51.1945 C   0  0  0  0  0  0  0  0  0  0  0  0
   21.3495   11.1351   51.6510 C   0  0  0  0  0  0  0  0  0  0  0  0
   22.0993   11.1491   52.7903 C   0  0  0  0  0  0  0  0  0  0  0  0
   21.1401   12.3512   50.9427 N   0  0  0  0  0  0  0  0  0  0  0  0
   21.0528   13.5257   51.6274 O   0  0  0  0  0  0  0  0  0  0  0  0
   21.0360   12.3561   49.7084 O   0  0  0  0  0  0  0  0  0  0  0  0
   24.0038    9.4707   57.0251 C   0  0  0  0  0  0  0  0  0  0  0  0
   25.4485    9.2379   56.7345 C   0  0  0  0  0  0  0  0  0  0  0  0
   24.0470    6.3805   52.9458 C   0  0  0  0  0  0  0  0  0  0  0  0
   25.0287    7.3316   53.5499 C   0  0  0  0  0  0  0  0  0  0  0  0
   26.1653    7.7272   52.8728 C   0  0  0  0  0  0  0  0  0  0  0  0
   27.0754    8.6145   53.4442 C   0  0  0  0  0  0  0  0  0  0  0  0
   26.8625    9.1206   54.7033 C   0  0  0  0  0  0  0  0  0  0  0  0
   25.7332    8.7390   55.3984 C   0  0  0  0  0  0  0  0  0  0  0  0
   24.8372    7.8541   54.8138 C   0  0  0  0  0  0  0  0  0  0  0  0
 17 18  1  0  0  0
 18 19  2  0  0  0
 19 20  1  0  0  0
 20 21  2  0  0  0
 21 22  1  0  0  0
 22 16  1  0  0  0
 16 15  1  0  0  0
 15  1  1  0  0  0
  1  2  2  0  0  0
  1  3  1  0  0  0
  3  5  1  0  0  0
  5  6  2  0  0  0
  6  7  1  0  0  0
  7  8  1  0  0  0
  7  9  2  0  0  0
  9 10  1  0  0  0
 10 11  2  0  0  0
 10 12  1  0  0  0
 12 13  1  0  0  0
 12 14  2  0  0  0
 22 23  2  0  0  0
 23 18  1  0  0  0
 11  5  1  0  0  0
  3  4  1  0  0  0
M  CHG 1  12   1
M  CHG 1  13  -1
M  END
> <minimizedAffinity>
16.54517

> <CNNscore>
0.6049751043

> <CNNaffinity>
5.4828119278

> <CNN_VS>
3.3169646263

> <CNNaffinity_variance>
0.0779905170

$$$$
[H]c1c([H])c(C([H])([H])[H])c([H])c(C([H])([H])C([H])([H])C(=O)N([H])c2c([H])c(F)c([H])c([N+](=O)[O-])c2[H])c1[H]


 23 24  0  0  0  0  0  0  0  0999 V2000
   25.8908    7.4297   53.2421 C   0  0  0  0  0  0  0  0  0  0  0  0
   25.7547    8.4872   52.6179 O   0  0  0  0  0  0  0  0  0  0  0  0
   24.8286    6.6537   53.6936 N   0  0  0  0  0  0  0  0  0  0  0  0
   25.0518    5.7554   54.2212 H   0  0  0  0  0  0  0  0  0  0  0  0
   23.4640    6.9663   53.5106 C   0  0  0  0  0  0  0  0  0  0  0  0
   22.4181    6.0821   53.5599 C   0  0  0  0  0  0  0  0  0  0  0  0
   21.0925    6.5016   53.3875 C   0  0  0  0  0  0  0  0  0  0  0  0
   20.1113    5.5485   53.4534 F   0  0  0  0  0  0  0  0  0  0  0  0
   20.7718    7.8108   53.1610 C   0  0  0  0  0  0  0  0  0  0  0  0
   21.8129    8.7249   53.1059 C   0  0  0  0  0  0  0  0  0  0  0  0
   23.0999    8.3064   53.2754 C   0  0  0  0  0  0  0  0  0  0  0  0
   21.5564   10.1049   52.8733 N   0  0  0  0  0  0  0  0  0  0  0  0
   21.4715   10.9636   53.9276 O   0  0  0  0  0  0  0  0  0  0  0  0
   21.4092   10.5372   51.7219 O   0  0  0  0  0  0  0  0  0  0  0  0
   27.3270    7.0242   53.4893 C   0  0  0  0  0  0  0  0  0  0  0  0
   28.1316    8.1418   54.0631 C   0  0  0  0  0  0  0  0  0  0  0  0
   24.0396    9.8360   56.2697 C   0  0  0  0  0  0  0  0  0  0  0  0
   25.5184    9.6211   56.2846 C   0  0  0  0  0  0  0  0  0  0  0  0
   26.2988   10.0248   57.3500 C   0  0  0  0  0  0  0  0  0  0  0  0
   27.6772    9.8203   57.3551 C   0  0  0  0  0  0  0  0  0  0  0  0
   28.2975    9.2079   56.2936 C   0  0  0  0  0  0  0  0  0  0  0  0
   27.5373    8.7961   55.2180 C   0  0  0  0  0  0  0  0  0  0  0  0
   26.1653    9.0080   55.2297 C   0  0  0  0  0  0  0  0  0  0  0  0
 17 18  1  0  0  0
 18 19  2  0  0  0
 19 20  1  0  0  0
 20 21  2  0  0  0
 21 22  1  0  0  0
 22 16  1  0  0  0
 16 15  1  0  0  0
 15  1  1  0  0  0
  1  2  2  0  0  0
  1  3  1  0  0  0
  3  5  1  0  0  0
  5  6  2  0  0  0
  6  7  1  0  0  0
  7  8  1  0  0  0
  7  9  2  0  0  0
  9 10  1  0  0  0
 10 11  2  0  0  0
 10 12  1  0  0  0
 12 13  1  0  0  0
 12 14  2  0  0  0
 22 23  2  0  0  0
 23 18  1  0  0  0
 11  5  1  0  0  0
  3  4  1  0  0  0
M  CHG 1  12   1
M  CHG 1  13  -1
M  END
> <minimizedAffinity>
9.58710

> <CNNscore>
0.6024553776

> <CNNaffinity>
5.5112571716

> <CNN_VS>
3.3202865124

> <CNNaffinity_variance>
0.0288621094

$$$$
[H]c1c([H])c(C([H])([H])[H])c([H])c(C([H])([H])C([H])([H])C(=O)N([H])c2c([H])c(F)c([H])c([N+](=O)[O-])c2[H])c1[H]


 23 24  0  0  0  0  0  0  0  0999 V2000
   23.3187   10.0161   55.6127 C   0  0  0  0  0  0  0  0  0  0  0  0
   23.8470   11.0970   55.8935 O   0  0  0  0  0  0  0  0  0  0  0  0
   24.0309    8.8601   55.3114 N   0  0  0  0  0  0  0  0  0  0  0  0
   23.4809    7.9762   55.0848 H   0  0  0  0  0  0  0  0  0  0  0  0
   25.4391    8.7640   55.2774 C   0  0  0  0  0  0  0  0  0  0  0  0
   26.1902    8.2509   54.2523 C   0  0  0  0  0  0  0  0  0  0  0  0
   27.5898    8.2239   54.3090 C   0  0  0  0  0  0  0  0  0  0  0  0
   28.2585    7.6932   53.2381 F   0  0  0  0  0  0  0  0  0  0  0  0
   28.2795    8.7054   55.3863 C   0  0  0  0  0  0  0  0  0  0  0  0
   27.5418    9.2291   56.4370 C   0  0  0  0  0  0  0  0  0  0  0  0
   26.1796    9.2512   56.3719 C   0  0  0  0  0  0  0  0  0  0  0  0
   28.1902    9.7485   57.5921 N   0  0  0  0  0  0  0  0  0  0  0  0
   28.4768   11.0783   57.6658 O   0  0  0  0  0  0  0  0  0  0  0  0
   28.4982    9.0056   58.5342 O   0  0  0  0  0  0  0  0  0  0  0  0
   21.8062   10.0336   55.6183 C   0  0  0  0  0  0  0  0  0  0  0  0
   21.2479   10.4523   54.2997 C   0  0  0  0  0  0  0  0  0  0  0  0
   20.5999    5.6250   53.4276 C   0  0  0  0  0  0  0  0  0  0  0  0
   20.8024    7.0130   52.9123 C   0  0  0  0  0  0  0  0  0  0  0  0
   20.8679    7.2814   51.5593 C   0  0  0  0  0  0  0  0  0  0  0  0
   21.0572    8.5791   51.0878 C   0  0  0  0  0  0  0  0  0  0  0  0
   21.1838    9.6299   51.9634 C   0  0  0  0  0  0  0  0  0  0  0  0
   21.1213    9.3850   53.3200 C   0  0  0  0  0  0  0  0  0  0  0  0
   20.9324    8.0860   53.7720 C   0  0  0  0  0  0  0  0  0  0  0  0
 17 18  1  0  0  0
 18 19  2  0  0  0
 19 20  1  0  0  0
 20 21  2  0  0  0
 21 22  1  0  0  0
 22 16  1  0  0  0
 16 15  1  0  0  0
 15  1  1  0  0  0
  1  2  2  0  0  0
  1  3  1  0  0  0
  3  5  1  0  0  0
  5  6  2  0  0  0
  6  7  1  0  0  0
  7  8  1  0  0  0
  7  9  2  0  0  0
  9 10  1  0  0  0
 10 11  2  0  0  0
 10 12  1  0  0  0
 12 13  1  0  0  0
 12 14  2  0  0  0
 22 23  2  0  0  0
 23 18  1  0  0  0
 11  5  1  0  0  0
  3  4  1  0  0  0
M  CHG 1  12   1
M  CHG 1  13  -1
M  END
> <minimizedAffinity>
2.96263

> <CNNscore>
0.5958663821

> <CNNaffinity>
5.4670877457

> <CNN_VS>
3.2576537132

> <CNNaffinity_variance>
0.1130331010

$$$$
[H]c1nc2c(C([H])([H])C([H])([H])N([H])C([H])([H])C([H])([H])c3nc(OC([H])([H])[H])c([H])c([H])c3[H])c(C([H])([H])[H])nn([H])c-2c1C([H])([H])C([H])([H])N1C([H])([H])C([H])([H])OC([H])([H])C1([H])[H]


 33 36  0  0  0  0  0  0  0  0999 V2000
   24.9669    7.8733   54.5555 C   0  0  0  0  0  0  0  0  0  0  0  0
   23.8960    8.3970   55.2581 C   0  0  0  0  0  0  0  0  0  0  0  0
   22.4817    8.0015   54.9843 C   0  0  0  0  0  0  0  0  0  0  0  0
   24.1681    9.2838   56.2100 N   0  0  0  0  0  0  0  0  0  0  0  0
   25.3688    9.7166   56.5527 N   0  0  0  0  0  0  0  0  0  0  0  0
   26.4620    9.2735   55.9351 C   0  0  0  0  0  0  0  0  0  0  0  0
   27.8072    9.5245   56.0661 C   0  0  0  0  0  0  0  0  0  0  0  0
   28.3977    8.6959   55.0868 C   0  0  0  0  0  0  0  0  0  0  0  0
   27.4789    8.0040   54.4218 N   0  0  0  0  0  0  0  0  0  0  0  0
   26.2439    8.2862   54.8672 C   0  0  0  0  0  0  0  0  0  0  0  0
   25.5173   10.4063   57.3177 H   0  0  0  0  0  0  0  0  0  0  0  0
   24.7447    6.8832   53.4839 C   0  0  0  0  0  0  0  0  0  0  0  0
   23.3429    6.3535   53.5424 C   0  0  0  0  0  0  0  0  0  0  0  0
   22.6441    6.3792   52.2946 N   0  0  0  0  0  0  0  0  0  0  0  0
   23.0707    6.9885   51.5789 H   0  0  0  0  0  0  0  0  0  0  0  0
   21.2625    6.6962   52.4651 C   0  0  0  0  0  0  0  0  0  0  0  0
   20.8671    7.8482   51.5799 C   0  0  0  0  0  0  0  0  0  0  0  0
   21.5416   11.4834   52.1893 C   0  0  0  0  0  0  0  0  0  0  0  0
   21.5174   11.5283   53.5845 C   0  0  0  0  0  0  0  0  0  0  0  0
   21.2844   10.3951   54.2890 C   0  0  0  0  0  0  0  0  0  0  0  0
   21.0746    9.2167   53.6493 C   0  0  0  0  0  0  0  0  0  0  0  0
   21.0959    9.1595   52.2729 C   0  0  0  0  0  0  0  0  0  0  0  0
   21.3253   10.2782   51.5999 N   0  0  0  0  0  0  0  0  0  0  0  0
   22.0389   13.6045   50.8008 C   0  0  0  0  0  0  0  0  0  0  0  0
   21.7608   12.5416   51.4891 O   0  0  0  0  0  0  0  0  0  0  0  0
   28.5465   10.4487   56.9627 C   0  0  0  0  0  0  0  0  0  0  0  0
   28.9137    9.9188   58.2838 C   0  0  0  0  0  0  0  0  0  0  0  0
   28.1783   10.2218   59.4351 N   0  0  0  0  0  0  0  0  0  0  0  0
   28.2590   11.6950   59.6083 C   0  0  0  0  0  0  0  0  0  0  0  0
   29.3342   12.1208   60.5405 C   0  0  0  0  0  0  0  0  0  0  0  0
   30.4983   11.3707   60.4968 O   0  0  0  0  0  0  0  0  0  0  0  0
   30.2124   10.0544   60.8370 C   0  0  0  0  0  0  0  0  0  0  0  0
   28.7381    9.7284   60.6835 C   0  0  0  0  0  0  0  0  0  0  0  0
 24 25  1  0  0  0
 25 18  1  0  0  0
 18 19  2  0  0  0
 19 20  1  0  0  0
 20 21  2  0  0  0
 21 22  1  0  0  0
 22 17  1  0  0  0
 17 16  1  0  0  0
 16 14  1  0  0  0
 14 13  1  0  0  0
 13 12  1  0  0  0
 12  1  1  0  0  0
  1  2  1  0  0  0
  2  3  1  0  0  0
  2  4  2  0  0  0
  4  5  1  0  0  0
  5  6  1  0  0  0
  6  7  2  0  0  0
  7 26  1  0  0  0
 26 27  1  0  0  0
 27 28  1  0  0  0
 28 29  1  0  0  0
 29 30  1  0  0  0
 30 31  1  0  0  0
 31 32  1  0  0  0
 32 33  1  0  0  0
  7  8  1  0  0  0
  8  9  2  0  0  0
  9 10  1  0  0  0
 22 23  2  0  0  0
 23 18  1  0  0  0
 10  1  2  0  0  0
 10  6  1  0  0  0
 33 28  1  0  0  0
 14 15  1  0  0  0
  5 11  1  0  0  0
M  END
> <minimizedAffinity>
6.07098

> <CNNscore>
0.6959925890

> <CNNaffinity>
6.7968130112

> <CNN_VS>
4.7305316925

> <CNNaffinity_variance>
0.7267407179

$$$$
[H]c1nc2c(C([H])([H])C([H])([H])N([H])C([H])([H])C([H])([H])c3nc(OC([H])([H])[H])c([H])c([H])c3[H])c(C([H])([H])[H])nn([H])c-2c1C([H])([H])C([H])([H])N1C([H])([H])C([H])([H])OC([H])([H])C1([H])[H]


 33 36  0  0  0  0  0  0  0  0999 V2000
   24.7325    7.6591   54.3194 C   0  0  0  0  0  0  0  0  0  0  0  0
   23.6905    8.1510   55.0856 C   0  0  0  0  0  0  0  0  0  0  0  0
   22.2680    7.7547   54.8606 C   0  0  0  0  0  0  0  0  0  0  0  0
   23.9991    9.0069   56.0544 N   0  0  0  0  0  0  0  0  0  0  0  0
   25.2112    9.4366   56.3589 N   0  0  0  0  0  0  0  0  0  0  0  0
   26.2788    9.0226   55.6793 C   0  0  0  0  0  0  0  0  0  0  0  0
   27.6269    9.2788   55.7599 C   0  0  0  0  0  0  0  0  0  0  0  0
   28.1786    8.4881   54.7279 C   0  0  0  0  0  0  0  0  0  0  0  0
   27.2355    7.8125   54.0805 N   0  0  0  0  0  0  0  0  0  0  0  0
   26.0196    8.0704   54.5888 C   0  0  0  0  0  0  0  0  0  0  0  0
   25.3892   10.1011   57.1398 H   0  0  0  0  0  0  0  0  0  0  0  0
   24.4692    6.7043   53.2254 C   0  0  0  0  0  0  0  0  0  0  0  0
   23.0096    6.3647   53.1664 C   0  0  0  0  0  0  0  0  0  0  0  0
   22.3935    6.6039   51.8979 N   0  0  0  0  0  0  0  0  0  0  0  0
   22.8987    7.2745   51.2975 H   0  0  0  0  0  0  0  0  0  0  0  0
   21.0245    6.9853   52.0350 C   0  0  0  0  0  0  0  0  0  0  0  0
   20.7127    8.1733   51.1641 C   0  0  0  0  0  0  0  0  0  0  0  0
   21.4083   10.6813   53.8598 C   0  0  0  0  0  0  0  0  0  0  0  0
   21.6691   11.8232   53.1000 C   0  0  0  0  0  0  0  0  0  0  0  0
   21.6165   11.7569   51.7482 C   0  0  0  0  0  0  0  0  0  0  0  0
   21.3121   10.5894   51.1267 C   0  0  0  0  0  0  0  0  0  0  0  0
   21.0528    9.4557   51.8654 C   0  0  0  0  0  0  0  0  0  0  0  0
   21.1089    9.5392   53.1870 N   0  0  0  0  0  0  0  0  0  0  0  0
   21.4436   10.7006   56.4429 C   0  0  0  0  0  0  0  0  0  0  0  0
   21.4492   10.7095   55.1466 O   0  0  0  0  0  0  0  0  0  0  0  0
   28.3996   10.1775   56.6543 C   0  0  0  0  0  0  0  0  0  0  0  0
   28.6109    9.7024   58.0293 C   0  0  0  0  0  0  0  0  0  0  0  0
   27.9757   10.2969   59.1253 N   0  0  0  0  0  0  0  0  0  0  0  0
   28.5383   11.6668   59.2434 C   0  0  0  0  0  0  0  0  0  0  0  0
   29.6573   11.7626   60.2154 C   0  0  0  0  0  0  0  0  0  0  0  0
   30.5040   10.6670   60.2659 O   0  0  0  0  0  0  0  0  0  0  0  0
   29.7810    9.5419   60.6425 C   0  0  0  0  0  0  0  0  0  0  0  0
   28.2897    9.7165   60.4215 C   0  0  0  0  0  0  0  0  0  0  0  0
 24 25  1  0  0  0
 25 18  1  0  0  0
 18 19  2  0  0  0
 19 20  1  0  0  0
 20 21  2  0  0  0
 21 22  1  0  0  0
 22 17  1  0  0  0
 17 16  1  0  0  0
 16 14  1  0  0  0
 14 13  1  0  0  0
 13 12  1  0  0  0
 12  1  1  0  0  0
  1  2  1  0  0  0
  2  3  1  0  0  0
  2  4  2  0  0  0
  4  5  1  0  0  0
  5  6  1  0  0  0
  6  7  2  0  0  0
  7 26  1  0  0  0
 26 27  1  0  0  0
 27 28  1  0  0  0
 28 29  1  0  0  0
 29 30  1  0  0  0
 30 31  1  0  0  0
 31 32  1  0  0  0
 32 33  1  0  0  0
  7  8  1  0  0  0
  8  9  2  0  0  0
  9 10  1  0  0  0
 22 23  2  0  0  0
 23 18  1  0  0  0
 10  1  2  0  0  0
 10  6  1  0  0  0
 33 28  1  0  0  0
 14 15  1  0  0  0
  5 11  1  0  0  0
M  END
> <minimizedAffinity>
8.20800

> <CNNscore>
0.6352893710

> <CNNaffinity>
6.5980978012

> <CNN_VS>
4.1917014122

> <CNNaffinity_variance>
0.4848350585

$$$$
[H]c1nc2c(C([H])([H])C([H])([H])N([H])C([H])([H])C([H])([H])c3nc(OC([H])([H])[H])c([H])c([H])c3[H])c(C([H])([H])[H])nn([H])c-2c1C([H])([H])C([H])([H])N1C([H])([H])C([H])([H])OC([H])([H])C1([H])[H]


 33 36  0  0  0  0  0  0  0  0999 V2000
   24.9573    8.1453   53.5637 C   0  0  0  0  0  0  0  0  0  0  0  0
   23.9435    9.0812   53.6682 C   0  0  0  0  0  0  0  0  0  0  0  0
   22.7105    9.0309   52.8264 C   0  0  0  0  0  0  0  0  0  0  0  0
   24.1004   10.0506   54.5638 N   0  0  0  0  0  0  0  0  0  0  0  0
   25.1365   10.2087   55.3687 N   0  0  0  0  0  0  0  0  0  0  0  0
   26.1632    9.3613   55.3432 C   0  0  0  0  0  0  0  0  0  0  0  0
   27.3446    9.2630   56.0390 C   0  0  0  0  0  0  0  0  0  0  0  0
   27.9544    8.1094   55.4990 C   0  0  0  0  0  0  0  0  0  0  0  0
   27.1984    7.5608   54.5543 N   0  0  0  0  0  0  0  0  0  0  0  0
   26.0641    8.2573   54.3766 C   0  0  0  0  0  0  0  0  0  0  0  0
   25.1950   10.9853   56.0591 H   0  0  0  0  0  0  0  0  0  0  0  0
   24.8553    7.0389   52.5924 C   0  0  0  0  0  0  0  0  0  0  0  0
   23.9376    5.9711   53.1091 C   0  0  0  0  0  0  0  0  0  0  0  0
   22.7454    5.7875   52.3404 N   0  0  0  0  0  0  0  0  0  0  0  0
   22.5808    6.5155   51.6273 H   0  0  0  0  0  0  0  0  0  0  0  0
   21.5954    5.6301   53.1719 C   0  0  0  0  0  0  0  0  0  0  0  0
   20.6397    6.7780   52.9822 C   0  0  0  0  0  0  0  0  0  0  0  0
   21.0102   10.1521   54.5694 C   0  0  0  0  0  0  0  0  0  0  0  0
   21.3771    9.7962   55.8686 C   0  0  0  0  0  0  0  0  0  0  0  0
   21.4934    8.4879   56.1990 C   0  0  0  0  0  0  0  0  0  0  0  0
   21.2564    7.5204   55.2771 C   0  0  0  0  0  0  0  0  0  0  0  0
   20.8937    7.8589   53.9918 C   0  0  0  0  0  0  0  0  0  0  0  0
   20.7846    9.1440   53.6864 N   0  0  0  0  0  0  0  0  0  0  0  0
   20.7544   12.6415   53.9277 C   0  0  0  0  0  0  0  0  0  0  0  0
   20.8910   11.3862   54.2216 O   0  0  0  0  0  0  0  0  0  0  0  0
   27.9348   10.1293   57.0906 C   0  0  0  0  0  0  0  0  0  0  0  0
   28.3457    9.4577   58.3320 C   0  0  0  0  0  0  0  0  0  0  0  0
   28.0111    9.9617   59.5938 N   0  0  0  0  0  0  0  0  0  0  0  0
   28.0784   11.4418   59.4852 C   0  0  0  0  0  0  0  0  0  0  0  0
   29.3779   12.0069   59.9303 C   0  0  0  0  0  0  0  0  0  0  0  0
   30.4969   11.2460   59.6325 O   0  0  0  0  0  0  0  0  0  0  0  0
   30.3953   10.0106   60.2601 C   0  0  0  0  0  0  0  0  0  0  0  0
   28.9669    9.6816   60.6536 C   0  0  0  0  0  0  0  0  0  0  0  0
 24 25  1  0  0  0
 25 18  1  0  0  0
 18 19  2  0  0  0
 19 20  1  0  0  0
 20 21  2  0  0  0
 21 22  1  0  0  0
 22 17  1  0  0  0
 17 16  1  0  0  0
 16 14  1  0  0  0
 14 13  1  0  0  0
 13 12  1  0  0  0
 12  1  1  0  0  0
  1  2  1  0  0  0
  2  3  1  0  0  0
  2  4  2  0  0  0
  4  5  1  0  0  0
  5  6  1  0  0  0
  6  7  2  0  0  0
  7 26  1  0  0  0
 26 27  1  0  0  0
 27 28  1  0  0  0
 28 29  1  0  0  0
 29 30  1  0  0  0
 30 31  1  0  0  0
 31 32  1  0  0  0
 32 33  1  0  0  0
  7  8  1  0  0  0
  8  9  2  0  0  0
  9 10  1  0  0  0
 22 23  2  0  0  0
 23 18  1  0  0  0
 10  1  2  0  0  0
 10  6  1  0  0  0
 33 28  1  0  0  0
 14 15  1  0  0  0
  5 11  1  0  0  0
M  END
> <minimizedAffinity>
18.34793

> <CNNscore>
0.6202459931

> <CNNaffinity>
6.2825570107

> <CNN_VS>
3.8967308998

> <CNNaffinity_variance>
0.6777465343

$$$$
[H]c1nc2c(C([H])([H])C([H])([H])N([H])C([H])([H])C([H])([H])c3nc(OC([H])([H])[H])c([H])c([H])c3[H])c(C([H])([H])[H])nn([H])c-2c1C([H])([H])C([H])([H])N1C([H])([H])C([H])([H])OC([H])([H])C1([H])[H]


 33 36  0  0  0  0  0  0  0  0999 V2000
   22.1871    8.6665   54.5171 C   0  0  0  0  0  0  0  0  0  0  0  0
   22.1442    9.8589   55.2180 C   0  0  0  0  0  0  0  0  0  0  0  0
   20.8669   10.5759   55.5110 C   0  0  0  0  0  0  0  0  0  0  0  0
   23.3017   10.3606   55.6363 N   0  0  0  0  0  0  0  0  0  0  0  0
   24.4965    9.8287   55.4466 N   0  0  0  0  0  0  0  0  0  0  0  0
   24.6424    8.6836   54.7831 C   0  0  0  0  0  0  0  0  0  0  0  0
   25.7210    7.9037   54.4394 C   0  0  0  0  0  0  0  0  0  0  0  0
   25.1407    6.8208   53.7430 C   0  0  0  0  0  0  0  0  0  0  0  0
   23.8195    6.9430   53.6745 N   0  0  0  0  0  0  0  0  0  0  0  0
   23.4044    8.0633   54.2875 C   0  0  0  0  0  0  0  0  0  0  0  0
   25.3677   10.2665   55.8106 H   0  0  0  0  0  0  0  0  0  0  0  0
   20.9432    8.0469   54.0205 C   0  0  0  0  0  0  0  0  0  0  0  0
   21.2468    7.0656   52.9277 C   0  0  0  0  0  0  0  0  0  0  0  0
   21.2204    5.6946   53.3344 N   0  0  0  0  0  0  0  0  0  0  0  0
   22.0526    5.1507   53.0568 H   0  0  0  0  0  0  0  0  0  0  0  0
   20.0263    5.0368   52.9101 C   0  0  0  0  0  0  0  0  0  0  0  0
   19.7362    3.8444   53.7825 C   0  0  0  0  0  0  0  0  0  0  0  0
   16.4376    3.5342   55.5328 C   0  0  0  0  0  0  0  0  0  0  0  0
   15.5654    3.4583   54.4453 C   0  0  0  0  0  0  0  0  0  0  0  0
   16.0578    3.5104   53.1846 C   0  0  0  0  0  0  0  0  0  0  0  0
   17.3921    3.6354   52.9704 C   0  0  0  0  0  0  0  0  0  0  0  0
   18.2630    3.7113   54.0353 C   0  0  0  0  0  0  0  0  0  0  0  0
   17.7634    3.6588   55.2618 N   0  0  0  0  0  0  0  0  0  0  0  0
   15.5860    3.3838   57.9672 C   0  0  0  0  0  0  0  0  0  0  0  0
   16.0031    3.4872   56.7441 O   0  0  0  0  0  0  0  0  0  0  0  0
   27.1758    8.0913   54.6690 C   0  0  0  0  0  0  0  0  0  0  0  0
   27.5546    9.1634   55.6008 C   0  0  0  0  0  0  0  0  0  0  0  0
   26.7330    9.5436   56.6677 N   0  0  0  0  0  0  0  0  0  0  0  0
   26.9334   11.0041   56.8513 C   0  0  0  0  0  0  0  0  0  0  0  0
   27.9387   11.3346   57.8935 C   0  0  0  0  0  0  0  0  0  0  0  0
   29.0250   10.4781   57.9727 O   0  0  0  0  0  0  0  0  0  0  0  0
   28.5817    9.1973   58.2780 C   0  0  0  0  0  0  0  0  0  0  0  0
   27.1079    9.0100   57.9678 C   0  0  0  0  0  0  0  0  0  0  0  0
 24 25  1  0  0  0
 25 18  1  0  0  0
 18 19  2  0  0  0
 19 20  1  0  0  0
 20 21  2  0  0  0
 21 22  1  0  0  0
 22 17  1  0  0  0
 17 16  1  0  0  0
 16 14  1  0  0  0
 14 13  1  0  0  0
 13 12  1  0  0  0
 12  1  1  0  0  0
  1  2  1  0  0  0
  2  3  1  0  0  0
  2  4  2  0  0  0
  4  5  1  0  0  0
  5  6  1  0  0  0
  6  7  2  0  0  0
  7 26  1  0  0  0
 26 27  1  0  0  0
 27 28  1  0  0  0
 28 29  1  0  0  0
 29 30  1  0  0  0
 30 31  1  0  0  0
 31 32  1  0  0  0
 32 33  1  0  0  0
  7  8  1  0  0  0
  8  9  2  0  0  0
  9 10  1  0  0  0
 22 23  2  0  0  0
 23 18  1  0  0  0
 10  1  2  0  0  0
 10  6  1  0  0  0
 33 28  1  0  0  0
 14 15  1  0  0  0
  5 11  1  0  0  0
M  END
> <minimizedAffinity>
18.73321

> <CNNscore>
0.5994346738

> <CNNaffinity>
6.8465032578

> <CNN_VS>
4.1040315628

> <CNNaffinity_variance>
0.6790736318

$$$$
[H]c1nc2c(C([H])([H])C([H])([H])N([H])C([H])([H])C([H])([H])c3nc(OC([H])([H])[H])c([H])c([H])c3[H])c(C([H])([H])[H])nn([H])c-2c1C([H])([H])C([H])([H])N1C([H])([H])C([H])([H])OC([H])([H])C1([H])[H]


 33 36  0  0  0  0  0  0  0  0999 V2000
   24.5923    8.6700   54.2746 C   0  0  0  0  0  0  0  0  0  0  0  0
   23.6068    9.2768   55.0331 C   0  0  0  0  0  0  0  0  0  0  0  0
   22.1829    9.3570   54.5888 C   0  0  0  0  0  0  0  0  0  0  0  0
   23.9718    9.7981   56.1999 N   0  0  0  0  0  0  0  0  0  0  0  0
   25.1913    9.7936   56.7091 N   0  0  0  0  0  0  0  0  0  0  0  0
   26.2078    9.2353   56.0550 C   0  0  0  0  0  0  0  0  0  0  0  0
   27.5470    9.0738   56.3197 C   0  0  0  0  0  0  0  0  0  0  0  0
   28.0291    8.3800   55.1880 C   0  0  0  0  0  0  0  0  0  0  0  0
   27.0558    8.1453   54.3147 N   0  0  0  0  0  0  0  0  0  0  0  0
   25.8841    8.6338   54.7526 C   0  0  0  0  0  0  0  0  0  0  0  0
   25.4114   10.2103   57.6370 H   0  0  0  0  0  0  0  0  0  0  0  0
   24.2645    8.0679   52.9677 C   0  0  0  0  0  0  0  0  0  0  0  0
   23.8441    6.6386   53.1401 C   0  0  0  0  0  0  0  0  0  0  0  0
   22.4502    6.4557   53.4037 N   0  0  0  0  0  0  0  0  0  0  0  0
   22.1174    5.4855   53.2875 H   0  0  0  0  0  0  0  0  0  0  0  0
   21.6428    7.3575   52.6466 C   0  0  0  0  0  0  0  0  0  0  0  0
   20.2169    7.3297   53.1295 C   0  0  0  0  0  0  0  0  0  0  0  0
   18.0168    4.3775   53.8257 C   0  0  0  0  0  0  0  0  0  0  0  0
   18.8922    3.3238   53.5561 C   0  0  0  0  0  0  0  0  0  0  0  0
   20.1594    3.5886   53.1580 C   0  0  0  0  0  0  0  0  0  0  0  0
   20.5849    4.8699   53.0194 C   0  0  0  0  0  0  0  0  0  0  0  0
   19.7305    5.9183   53.2824 C   0  0  0  0  0  0  0  0  0  0  0  0
   18.4941    5.6404   53.6708 N   0  0  0  0  0  0  0  0  0  0  0  0
   15.5692    3.9891   54.5555 C   0  0  0  0  0  0  0  0  0  0  0  0
   16.8059    4.1612   54.2065 O   0  0  0  0  0  0  0  0  0  0  0  0
   28.3770    9.5173   57.4682 C   0  0  0  0  0  0  0  0  0  0  0  0
   28.1788   10.9027   57.9178 C   0  0  0  0  0  0  0  0  0  0  0  0
   29.1343   11.5772   58.6861 N   0  0  0  0  0  0  0  0  0  0  0  0
   29.8952   10.5331   59.4196 C   0  0  0  0  0  0  0  0  0  0  0  0
   29.3896   10.2925   60.7953 C   0  0  0  0  0  0  0  0  0  0  0  0
   28.0157   10.3779   60.9534 O   0  0  0  0  0  0  0  0  0  0  0  0
   27.5916   11.6585   60.6211 C   0  0  0  0  0  0  0  0  0  0  0  0
   28.6054   12.3959   59.7656 C   0  0  0  0  0  0  0  0  0  0  0  0
 24 25  1  0  0  0
 25 18  1  0  0  0
 18 19  2  0  0  0
 19 20  1  0  0  0
 20 21  2  0  0  0
 21 22  1  0  0  0
 22 17  1  0  0  0
 17 16  1  0  0  0
 16 14  1  0  0  0
 14 13  1  0  0  0
 13 12  1  0  0  0
 12  1  1  0  0  0
  1  2  1  0  0  0
  2  3  1  0  0  0
  2  4  2  0  0  0
  4  5  1  0  0  0
  5  6  1  0  0  0
  6  7  2  0  0  0
  7 26  1  0  0  0
 26 27  1  0  0  0
 27 28  1  0  0  0
 28 29  1  0  0  0
 29 30  1  0  0  0
 30 31  1  0  0  0
 31 32  1  0  0  0
 32 33  1  0  0  0
  7  8  1  0  0  0
  8  9  2  0  0  0
  9 10  1  0  0  0
 22 23  2  0  0  0
 23 18  1  0  0  0
 10  1  2  0  0  0
 10  6  1  0  0  0
 33 28  1  0  0  0
 14 15  1  0  0  0
  5 11  1  0  0  0
M  END
> <minimizedAffinity>
13.88146

> <CNNscore>
0.5955936909

> <CNNaffinity>
6.6878752708

> <CNN_VS>
3.9832563400

> <CNNaffinity_variance>
0.3934521973

$$$$
[H]c1nc2c(C([H])([H])C([H])([H])N([H])C([H])([H])C([H])([H])c3nc(OC([H])([H])[H])c([H])c([H])c3[H])c(C([H])([H])[H])nn([H])c-2c1C([H])([H])C([H])([H])N1C([H])([H])C([H])([H])OC([H])([H])C1([H])[H]


 33 36  0  0  0  0  0  0  0  0999 V2000
   22.7140    7.1268   54.6671 C   0  0  0  0  0  0  0  0  0  0  0  0
   23.0338    6.0200   53.9007 C   0  0  0  0  0  0  0  0  0  0  0  0
   22.0106    5.0296   53.4493 C   0  0  0  0  0  0  0  0  0  0  0  0
   24.3102    5.8595   53.5666 N   0  0  0  0  0  0  0  0  0  0  0  0
   25.3094    6.6586   53.8972 N   0  0  0  0  0  0  0  0  0  0  0  0
   25.1039    7.7486   54.6337 C   0  0  0  0  0  0  0  0  0  0  0  0
   25.9155    8.7458   55.1201 C   0  0  0  0  0  0  0  0  0  0  0  0
   25.0241    9.5906   55.8172 C   0  0  0  0  0  0  0  0  0  0  0  0
   23.7777    9.1351   55.7538 N   0  0  0  0  0  0  0  0  0  0  0  0
   23.7136    7.9972   55.0435 C   0  0  0  0  0  0  0  0  0  0  0  0
   26.2894    6.4836   53.5936 H   0  0  0  0  0  0  0  0  0  0  0  0
   21.3180    7.3732   55.0774 C   0  0  0  0  0  0  0  0  0  0  0  0
   20.5529    8.0271   53.9655 C   0  0  0  0  0  0  0  0  0  0  0  0
   20.4049    7.2234   52.7916 N   0  0  0  0  0  0  0  0  0  0  0  0
   20.4285    6.2061   52.9648 H   0  0  0  0  0  0  0  0  0  0  0  0
   21.3456    7.5823   51.7793 C   0  0  0  0  0  0  0  0  0  0  0  0
   20.8670    8.7845   51.0094 C   0  0  0  0  0  0  0  0  0  0  0  0
   21.3457   12.4143   51.8069 C   0  0  0  0  0  0  0  0  0  0  0  0
   21.7785   12.3407   53.1322 C   0  0  0  0  0  0  0  0  0  0  0  0
   21.9027   11.1327   53.7321 C   0  0  0  0  0  0  0  0  0  0  0  0
   21.6101    9.9935   53.0549 C   0  0  0  0  0  0  0  0  0  0  0  0
   21.1821   10.0530   51.7467 C   0  0  0  0  0  0  0  0  0  0  0  0
   21.0662   11.2436   51.1759 N   0  0  0  0  0  0  0  0  0  0  0  0
   21.0878   14.7125   50.6554 C   0  0  0  0  0  0  0  0  0  0  0  0
   21.2171   13.5461   51.2064 O   0  0  0  0  0  0  0  0  0  0  0  0
   27.3829    8.9486   55.0190 C   0  0  0  0  0  0  0  0  0  0  0  0
   28.0708    9.3515   56.2540 C   0  0  0  0  0  0  0  0  0  0  0  0
   27.3835    9.9098   57.3376 N   0  0  0  0  0  0  0  0  0  0  0  0
   28.1544   11.1114   57.7487 C   0  0  0  0  0  0  0  0  0  0  0  0
   29.1012   10.8513   58.8631 C   0  0  0  0  0  0  0  0  0  0  0  0
   29.7201    9.6117   58.8480 O   0  0  0  0  0  0  0  0  0  0  0  0
   28.7575    8.6141   58.9389 C   0  0  0  0  0  0  0  0  0  0  0  0
   27.3764    9.1112   58.5531 C   0  0  0  0  0  0  0  0  0  0  0  0
 24 25  1  0  0  0
 25 18  1  0  0  0
 18 19  2  0  0  0
 19 20  1  0  0  0
 20 21  2  0  0  0
 21 22  1  0  0  0
 22 17  1  0  0  0
 17 16  1  0  0  0
 16 14  1  0  0  0
 14 13  1  0  0  0
 13 12  1  0  0  0
 12  1  1  0  0  0
  1  2  1  0  0  0
  2  3  1  0  0  0
  2  4  2  0  0  0
  4  5  1  0  0  0
  5  6  1  0  0  0
  6  7  2  0  0  0
  7 26  1  0  0  0
 26 27  1  0  0  0
 27 28  1  0  0  0
 28 29  1  0  0  0
 29 30  1  0  0  0
 30 31  1  0  0  0
 31 32  1  0  0  0
 32 33  1  0  0  0
  7  8  1  0  0  0
  8  9  2  0  0  0
  9 10  1  0  0  0
 22 23  2  0  0  0
 23 18  1  0  0  0
 10  1  2  0  0  0
 10  6  1  0  0  0
 33 28  1  0  0  0
 14 15  1  0  0  0
  5 11  1  0  0  0
M  END
> <minimizedAffinity>
11.42548

> <CNNscore>
0.5852620602

> <CNNaffinity>
6.6175332069

> <CNN_VS>
3.8729910851

> <CNNaffinity_variance>
1.1690784693

$$$$
[H]c1nc2c(C([H])([H])C([H])([H])N([H])C([H])([H])C([H])([H])c3nc(OC([H])([H])[H])c([H])c([H])c3[H])c(C([H])([H])[H])nn([H])c-2c1C([H])([H])C([H])([H])N1C([H])([H])C([H])([H])OC([H])([H])C1([H])[H]


 33 36  0  0  0  0  0  0  0  0999 V2000
   22.4264    6.7751   54.4556 C   0  0  0  0  0  0  0  0  0  0  0  0
   22.6263    5.6013   53.7506 C   0  0  0  0  0  0  0  0  0  0  0  0
   21.5343    4.6117   53.5070 C   0  0  0  0  0  0  0  0  0  0  0  0
   23.8491    5.3740   53.2819 N   0  0  0  0  0  0  0  0  0  0  0  0
   24.8986    6.1643   53.4246 N   0  0  0  0  0  0  0  0  0  0  0  0
   24.8080    7.3153   54.0878 C   0  0  0  0  0  0  0  0  0  0  0  0
   25.6945    8.3214   54.3907 C   0  0  0  0  0  0  0  0  0  0  0  0
   24.9129    9.2469   55.1166 C   0  0  0  0  0  0  0  0  0  0  0  0
   23.6581    8.8279   55.2392 N   0  0  0  0  0  0  0  0  0  0  0  0
   23.4832    7.6401   54.6378 C   0  0  0  0  0  0  0  0  0  0  0  0
   25.8305    5.9345   53.0224 H   0  0  0  0  0  0  0  0  0  0  0  0
   21.0960    7.0979   55.0069 C   0  0  0  0  0  0  0  0  0  0  0  0
   20.3037    7.9069   54.0236 C   0  0  0  0  0  0  0  0  0  0  0  0
   19.9102    7.1952   52.8469 N   0  0  0  0  0  0  0  0  0  0  0  0
   19.6248    6.2176   53.0147 H   0  0  0  0  0  0  0  0  0  0  0  0
   20.9083    7.2591   51.8280 C   0  0  0  0  0  0  0  0  0  0  0  0
   20.7166    8.4817   50.9704 C   0  0  0  0  0  0  0  0  0  0  0  0
   21.5288   10.8476   53.7602 C   0  0  0  0  0  0  0  0  0  0  0  0
   21.7550   12.0285   53.0504 C   0  0  0  0  0  0  0  0  0  0  0  0
   21.6427   12.0327   51.7007 C   0  0  0  0  0  0  0  0  0  0  0  0
   21.3119   10.8983   51.0330 C   0  0  0  0  0  0  0  0  0  0  0  0
   21.0864    9.7268   51.7221 C   0  0  0  0  0  0  0  0  0  0  0  0
   21.2008    9.7413   53.0425 N   0  0  0  0  0  0  0  0  0  0  0  0
   21.7155   10.7106   56.3333 C   0  0  0  0  0  0  0  0  0  0  0  0
   21.6266   10.8088   55.0436 O   0  0  0  0  0  0  0  0  0  0  0  0
   27.1431    8.4683   54.0998 C   0  0  0  0  0  0  0  0  0  0  0  0
   28.0517    8.3652   55.2508 C   0  0  0  0  0  0  0  0  0  0  0  0
   28.5188    9.4955   55.9307 N   0  0  0  0  0  0  0  0  0  0  0  0
   29.2066    8.9969   57.1495 C   0  0  0  0  0  0  0  0  0  0  0  0
   28.3399    8.9937   58.3557 C   0  0  0  0  0  0  0  0  0  0  0  0
   27.0101    8.6709   58.1384 O   0  0  0  0  0  0  0  0  0  0  0  0
   26.4437    9.6026   57.2774 C   0  0  0  0  0  0  0  0  0  0  0  0
   27.4906   10.3628   56.4839 C   0  0  0  0  0  0  0  0  0  0  0  0
 24 25  1  0  0  0
 25 18  1  0  0  0
 18 19  2  0  0  0
 19 20  1  0  0  0
 20 21  2  0  0  0
 21 22  1  0  0  0
 22 17  1  0  0  0
 17 16  1  0  0  0
 16 14  1  0  0  0
 14 13  1  0  0  0
 13 12  1  0  0  0
 12  1  1  0  0  0
  1  2  1  0  0  0
  2  3  1  0  0  0
  2  4  2  0  0  0
  4  5  1  0  0  0
  5  6  1  0  0  0
  6  7  2  0  0  0
  7 26  1  0  0  0
 26 27  1  0  0  0
 27 28  1  0  0  0
 28 29  1  0  0  0
 29 30  1  0  0  0
 30 31  1  0  0  0
 31 32  1  0  0  0
 32 33  1  0  0  0
  7  8  1  0  0  0
  8  9  2  0  0  0
  9 10  1  0  0  0
 22 23  2  0  0  0
 23 18  1  0  0  0
 10  1  2  0  0  0
 10  6  1  0  0  0
 33 28  1  0  0  0
 14 15  1  0  0  0
  5 11  1  0  0  0
M  END
> <minimizedAffinity>
14.32701

> <CNNscore>
0.5703393817

> <CNNaffinity>
6.6303772926

> <CNN_VS>
3.7815651894

> <CNNaffinity_variance>
0.5882792473

$$$$
[H]c1nc2c(C([H])([H])C([H])([H])N([H])C([H])([H])C([H])([H])c3nc(OC([H])([H])[H])c([H])c([H])c3[H])c(C([H])([H])[H])nn([H])c-2c1C([H])([H])C([H])([H])N1C([H])([H])C([H])([H])OC([H])([H])C1([H])[H]


 33 36  0  0  0  0  0  0  0  0999 V2000
   22.8829    7.1935   54.6275 C   0  0  0  0  0  0  0  0  0  0  0  0
   21.9760    8.0989   55.1494 C   0  0  0  0  0  0  0  0  0  0  0  0
   20.4981    7.8972   55.0674 C   0  0  0  0  0  0  0  0  0  0  0  0
   22.4695    9.1806   55.7434 N   0  0  0  0  0  0  0  0  0  0  0  0
   23.7494    9.4775   55.8847 N   0  0  0  0  0  0  0  0  0  0  0  0
   24.6988    8.6704   55.4154 C   0  0  0  0  0  0  0  0  0  0  0  0
   26.0730    8.7042   55.4130 C   0  0  0  0  0  0  0  0  0  0  0  0
   26.4345    7.5127   54.7467 C   0  0  0  0  0  0  0  0  0  0  0  0
   25.3617    6.8206   54.3787 N   0  0  0  0  0  0  0  0  0  0  0  0
   24.2320    7.4481   54.7437 C   0  0  0  0  0  0  0  0  0  0  0  0
   24.0734   10.3381   56.3719 H   0  0  0  0  0  0  0  0  0  0  0  0
   22.4115    5.9682   53.9534 C   0  0  0  0  0  0  0  0  0  0  0  0
   21.3204    6.2941   52.9774 C   0  0  0  0  0  0  0  0  0  0  0  0
   21.7185    7.1507   51.9034 N   0  0  0  0  0  0  0  0  0  0  0  0
   22.6023    7.6582   52.0671 H   0  0  0  0  0  0  0  0  0  0  0  0
   20.6798    8.0578   51.5335 C   0  0  0  0  0  0  0  0  0  0  0  0
   21.2369    9.2117   50.7427 C   0  0  0  0  0  0  0  0  0  0  0  0
   21.2661   12.7997   51.8226 C   0  0  0  0  0  0  0  0  0  0  0  0
   21.5423   12.6655   53.1846 C   0  0  0  0  0  0  0  0  0  0  0  0
   21.7092   11.4315   53.7175 C   0  0  0  0  0  0  0  0  0  0  0  0
   21.6104   10.3249   52.9380 C   0  0  0  0  0  0  0  0  0  0  0  0
   21.3383   10.4443   51.5927 C   0  0  0  0  0  0  0  0  0  0  0  0
   21.1778   11.6595   51.0885 N   0  0  0  0  0  0  0  0  0  0  0  0
   20.9892   15.1157   50.7119 C   0  0  0  0  0  0  0  0  0  0  0  0
   21.1024   13.9577   51.2836 O   0  0  0  0  0  0  0  0  0  0  0  0
   27.0269    9.7190   55.9277 C   0  0  0  0  0  0  0  0  0  0  0  0
   27.3871    9.6118   57.3489 C   0  0  0  0  0  0  0  0  0  0  0  0
   28.7193    9.5750   57.7757 N   0  0  0  0  0  0  0  0  0  0  0  0
   28.7452    8.7277   58.9957 C   0  0  0  0  0  0  0  0  0  0  0  0
   28.6716    9.5085   60.2571 C   0  0  0  0  0  0  0  0  0  0  0  0
   27.8634   10.6333   60.2205 O   0  0  0  0  0  0  0  0  0  0  0  0
   28.3466   11.5180   59.2645 C   0  0  0  0  0  0  0  0  0  0  0  0
   29.2570   10.8369   58.2591 C   0  0  0  0  0  0  0  0  0  0  0  0
 24 25  1  0  0  0
 25 18  1  0  0  0
 18 19  2  0  0  0
 19 20  1  0  0  0
 20 21  2  0  0  0
 21 22  1  0  0  0
 22 17  1  0  0  0
 17 16  1  0  0  0
 16 14  1  0  0  0
 14 13  1  0  0  0
 13 12  1  0  0  0
 12  1  1  0  0  0
  1  2  1  0  0  0
  2  3  1  0  0  0
  2  4  2  0  0  0
  4  5  1  0  0  0
  5  6  1  0  0  0
  6  7  2  0  0  0
  7 26  1  0  0  0
 26 27  1  0  0  0
 27 28  1  0  0  0
 28 29  1  0  0  0
 29 30  1  0  0  0
 30 31  1  0  0  0
 31 32  1  0  0  0
 32 33  1  0  0  0
  7  8  1  0  0  0
  8  9  2  0  0  0
  9 10  1  0  0  0
 22 23  2  0  0  0
 23 18  1  0  0  0
 10  1  2  0  0  0
 10  6  1  0  0  0
 33 28  1  0  0  0
 14 15  1  0  0  0
  5 11  1  0  0  0
M  END
> <minimizedAffinity>
13.27770

> <CNNscore>
0.5694785118

> <CNNaffinity>
6.6335229874

> <CNN_VS>
3.7776486874

> <CNNaffinity_variance>
0.7886334658

$$$$
[H]c1nc2c(C([H])([H])C([H])([H])N([H])C([H])([H])C([H])([H])c3nc(OC([H])([H])[H])c([H])c([H])c3[H])c(C([H])([H])[H])nn([H])c-2c1C([H])([H])C([H])([H])N1C([H])([H])C([H])([H])OC([H])([H])C1([H])[H]


 33 36  0  0  0  0  0  0  0  0999 V2000
   22.7045    9.5489   53.8940 C   0  0  0  0  0  0  0  0  0  0  0  0
   22.2869    9.9820   55.1401 C   0  0  0  0  0  0  0  0  0  0  0  0
   20.9189   10.5290   55.3864 C   0  0  0  0  0  0  0  0  0  0  0  0
   23.1594    9.8933   56.1389 N   0  0  0  0  0  0  0  0  0  0  0  0
   24.3941    9.4294   56.0571 N   0  0  0  0  0  0  0  0  0  0  0  0
   24.8890    8.9902   54.9016 C   0  0  0  0  0  0  0  0  0  0  0  0
   26.0973    8.4619   54.5135 C   0  0  0  0  0  0  0  0  0  0  0  0
   25.9226    8.2080   53.1353 C   0  0  0  0  0  0  0  0  0  0  0  0
   24.7064    8.5573   52.7302 N   0  0  0  0  0  0  0  0  0  0  0  0
   23.9820    9.0546   53.7457 C   0  0  0  0  0  0  0  0  0  0  0  0
   25.0269    9.3751   56.8816 H   0  0  0  0  0  0  0  0  0  0  0  0
   21.7923    9.6154   52.7358 C   0  0  0  0  0  0  0  0  0  0  0  0
   22.1717    8.5886   51.7106 C   0  0  0  0  0  0  0  0  0  0  0  0
   21.1898    7.5711   51.4953 N   0  0  0  0  0  0  0  0  0  0  0  0
   20.9929    7.3711   50.5020 H   0  0  0  0  0  0  0  0  0  0  0  0
   19.9794    7.8418   52.2025 C   0  0  0  0  0  0  0  0  0  0  0  0
   19.7987    6.8718   53.3399 C   0  0  0  0  0  0  0  0  0  0  0  0
   23.3140    5.6443   53.7600 C   0  0  0  0  0  0  0  0  0  0  0  0
   23.5132    5.8690   55.1235 C   0  0  0  0  0  0  0  0  0  0  0  0
   22.5182    6.4080   55.8677 C   0  0  0  0  0  0  0  0  0  0  0  0
   21.3292    6.7310   55.2985 C   0  0  0  0  0  0  0  0  0  0  0  0
   21.1205    6.5141   53.9540 C   0  0  0  0  0  0  0  0  0  0  0  0
   22.1054    5.9860   53.2414 N   0  0  0  0  0  0  0  0  0  0  0  0
   25.1332    4.5716   52.2720 C   0  0  0  0  0  0  0  0  0  0  0  0
   24.2385    5.1330   53.0237 O   0  0  0  0  0  0  0  0  0  0  0  0
   27.3469    8.2154   55.2765 C   0  0  0  0  0  0  0  0  0  0  0  0
   27.8691    9.3487   56.0536 C   0  0  0  0  0  0  0  0  0  0  0  0
   27.1369    9.9372   57.0907 N   0  0  0  0  0  0  0  0  0  0  0  0
   27.8866   11.1544   57.4947 C   0  0  0  0  0  0  0  0  0  0  0  0
   28.7886   10.9334   58.6539 C   0  0  0  0  0  0  0  0  0  0  0  0
   29.4117    9.6968   58.7024 O   0  0  0  0  0  0  0  0  0  0  0  0
   28.4495    8.6981   58.7855 C   0  0  0  0  0  0  0  0  0  0  0  0
   27.0834    9.1767   58.3293 C   0  0  0  0  0  0  0  0  0  0  0  0
 24 25  1  0  0  0
 25 18  1  0  0  0
 18 19  2  0  0  0
 19 20  1  0  0  0
 20 21  2  0  0  0
 21 22  1  0  0  0
 22 17  1  0  0  0
 17 16  1  0  0  0
 16 14  1  0  0  0
 14 13  1  0  0  0
 13 12  1  0  0  0
 12  1  1  0  0  0
  1  2  1  0  0  0
  2  3  1  0  0  0
  2  4  2  0  0  0
  4  5  1  0  0  0
  5  6  1  0  0  0
  6  7  2  0  0  0
  7 26  1  0  0  0
 26 27  1  0  0  0
 27 28  1  0  0  0
 28 29  1  0  0  0
 29 30  1  0  0  0
 30 31  1  0  0  0
 31 32  1  0  0  0
 32 33  1  0  0  0
  7  8  1  0  0  0
  8  9  2  0  0  0
  9 10  1  0  0  0
 22 23  2  0  0  0
 23 18  1  0  0  0
 10  1  2  0  0  0
 10  6  1  0  0  0
 33 28  1  0  0  0
 14 15  1  0  0  0
  5 11  1  0  0  0
M  END
> <minimizedAffinity>
13.45196

> <CNNscore>
0.5592931509

> <CNNaffinity>
6.6690855026

> <CNN_VS>
3.7299737930

> <CNNaffinity_variance>
1.1861060858

$$$$
[H]c1c([H])c([H])c(C([H])([H])c2c(C([H])([H])C([H])([H])[H])nn(C([H])([H])[H])c2C([H])([H])[H])c([H])c1[H]


 16 17  0  0  0  0  0  0  0  0999 V2000
   21.9728    8.4755   52.9761 C   0  0  0  0  0  0  0  0  0  0  0  0
   21.1309    9.4946   53.2911 N   0  0  0  0  0  0  0  0  0  0  0  0
   21.5079   10.0096   54.4421 N   0  0  0  0  0  0  0  0  0  0  0  0
   20.8564   11.1312   55.1293 C   0  0  0  0  0  0  0  0  0  0  0  0
   22.5818    9.3740   54.9241 C   0  0  0  0  0  0  0  0  0  0  0  0
   23.3094    9.6576   56.1966 C   0  0  0  0  0  0  0  0  0  0  0  0
   22.8829    8.3796   53.9743 C   0  0  0  0  0  0  0  0  0  0  0  0
   20.4863    7.8782   51.0782 C   0  0  0  0  0  0  0  0  0  0  0  0
   21.8382    7.6983   51.7472 C   0  0  0  0  0  0  0  0  0  0  0  0
   23.9876    7.4426   54.1142 C   0  0  0  0  0  0  0  0  0  0  0  0
   25.3370    7.9694   54.1861 C   0  0  0  0  0  0  0  0  0  0  0  0
   26.1349    8.2092   53.0665 C   0  0  0  0  0  0  0  0  0  0  0  0
   27.4190    8.6849   53.1660 C   0  0  0  0  0  0  0  0  0  0  0  0
   27.9642    8.9445   54.4279 C   0  0  0  0  0  0  0  0  0  0  0  0
   27.1928    8.7145   55.5480 C   0  0  0  0  0  0  0  0  0  0  0  0
   25.9237    8.2416   55.3926 C   0  0  0  0  0  0  0  0  0  0  0  0
  8  9  1  0  0  0
  9  1  1  0  0  0
  1  2  2  0  0  0
  2  3  1  0  0  0
  3  4  1  0  0  0
  3  5  1  0  0  0
  5  6  1  0  0  0
  5  7  2  0  0  0
  7 10  1  0  0  0
 10 11  1  0  0  0
 11 12  2  0  0  0
 12 13  1  0  0  0
 13 14  2  0  0  0
 14 15  1  0  0  0
 15 16  2  0  0  0
  7  1  1  0  0  0
 16 11  1  0  0  0
M  END
> <minimizedAffinity>
1.41863

> <CNNscore>
0.6507014632

> <CNNaffinity>
4.9113349915

> <CNN_VS>
3.1958129406

> <CNNaffinity_variance>
0.1431495100

$$$$
[H]c1c([H])c([H])c(C([H])([H])c2c(C([H])([H])C([H])([H])[H])nn(C([H])([H])[H])c2C([H])([H])[H])c([H])c1[H]


 16 17  0  0  0  0  0  0  0  0999 V2000
   21.9925    9.5030   53.9947 C   0  0  0  0  0  0  0  0  0  0  0  0
   21.2157    9.3452   52.8910 N   0  0  0  0  0  0  0  0  0  0  0  0
   21.4922    8.1793   52.3466 N   0  0  0  0  0  0  0  0  0  0  0  0
   20.8668    7.6330   51.1361 C   0  0  0  0  0  0  0  0  0  0  0  0
   22.4344    7.5347   53.0439 C   0  0  0  0  0  0  0  0  0  0  0  0
   23.0180    6.1912   52.7552 C   0  0  0  0  0  0  0  0  0  0  0  0
   22.7589    8.3927   54.1118 C   0  0  0  0  0  0  0  0  0  0  0  0
   20.8000   10.6234   55.8630 C   0  0  0  0  0  0  0  0  0  0  0  0
   21.9214   10.6911   54.8406 C   0  0  0  0  0  0  0  0  0  0  0  0
   23.7605    8.0781   55.1196 C   0  0  0  0  0  0  0  0  0  0  0  0
   25.1572    8.3073   54.8026 C   0  0  0  0  0  0  0  0  0  0  0  0
   26.1093    8.7037   55.7428 C   0  0  0  0  0  0  0  0  0  0  0  0
   27.4203    8.9379   55.4090 C   0  0  0  0  0  0  0  0  0  0  0  0
   27.8350    8.7785   54.0825 C   0  0  0  0  0  0  0  0  0  0  0  0
   26.9102    8.3872   53.1369 C   0  0  0  0  0  0  0  0  0  0  0  0
   25.6210    8.1678   53.5223 C   0  0  0  0  0  0  0  0  0  0  0  0
  8  9  1  0  0  0
  9  1  1  0  0  0
  1  2  2  0  0  0
  2  3  1  0  0  0
  3  4  1  0  0  0
  3  5  1  0  0  0
  5  6  1  0  0  0
  5  7  2  0  0  0
  7 10  1  0  0  0
 10 11  1  0  0  0
 11 12  2  0  0  0
 12 13  1  0  0  0
 13 14  2  0  0  0
 14 15  1  0  0  0
 15 16  2  0  0  0
  7  1  1  0  0  0
 16 11  1  0  0  0
M  END
> <minimizedAffinity>
0.48015

> <CNNscore>
0.6392415166

> <CNNaffinity>
5.0409836769

> <CNN_VS>
3.2224061489

> <CNNaffinity_variance>
0.3409367502

$$$$
[H]c1c([H])c([H])c(C([H])([H])c2c(C([H])([H])C([H])([H])[H])nn(C([H])([H])[H])c2C([H])([H])[H])c([H])c1[H]


 16 17  0  0  0  0  0  0  0  0999 V2000
   23.1199    6.5186   54.0597 C   0  0  0  0  0  0  0  0  0  0  0  0
   21.7676    6.4269   54.1557 N   0  0  0  0  0  0  0  0  0  0  0  0
   21.2318    7.4474   53.5202 N   0  0  0  0  0  0  0  0  0  0  0  0
   19.7939    7.7127   53.3912 C   0  0  0  0  0  0  0  0  0  0  0  0
   22.1762    8.2343   52.9926 C   0  0  0  0  0  0  0  0  0  0  0  0
   21.9782    9.4837   52.1995 C   0  0  0  0  0  0  0  0  0  0  0  0
   23.3999    7.6326   53.3425 C   0  0  0  0  0  0  0  0  0  0  0  0
   23.5049    4.9776   55.9690 C   0  0  0  0  0  0  0  0  0  0  0  0
   24.0170    5.5287   54.6494 C   0  0  0  0  0  0  0  0  0  0  0  0
   24.6978    8.1764   52.9719 C   0  0  0  0  0  0  0  0  0  0  0  0
   25.6554    8.4600   54.0237 C   0  0  0  0  0  0  0  0  0  0  0  0
   25.2989    8.9268   55.2896 C   0  0  0  0  0  0  0  0  0  0  0  0
   26.2294    9.2111   56.2584 C   0  0  0  0  0  0  0  0  0  0  0  0
   27.5895    9.0321   55.9841 C   0  0  0  0  0  0  0  0  0  0  0  0
   27.9640    8.5715   54.7391 C   0  0  0  0  0  0  0  0  0  0  0  0
   26.9992    8.3046   53.8138 C   0  0  0  0  0  0  0  0  0  0  0  0
  8  9  1  0  0  0
  9  1  1  0  0  0
  1  2  2  0  0  0
  2  3  1  0  0  0
  3  4  1  0  0  0
  3  5  1  0  0  0
  5  6  1  0  0  0
  5  7  2  0  0  0
  7 10  1  0  0  0
 10 11  1  0  0  0
 11 12  2  0  0  0
 12 13  1  0  0  0
 13 14  2  0  0  0
 14 15  1  0  0  0
 15 16  2  0  0  0
  7  1  1  0  0  0
 16 11  1  0  0  0
M  END
> <minimizedAffinity>
2.23777

> <CNNscore>
0.6391605735

> <CNNaffinity>
5.1006040573

> <CNN_VS>
3.2601051331

> <CNNaffinity_variance>
0.1381940395

$$$$
[H]c1c([H])c([H])c(C([H])([H])c2c(C([H])([H])C([H])([H])[H])nn(C([H])([H])[H])c2C([H])([H])[H])c([H])c1[H]


 16 17  0  0  0  0  0  0  0  0999 V2000
   26.6939    9.1987   56.0470 C   0  0  0  0  0  0  0  0  0  0  0  0
   27.7364    8.7497   55.3000 N   0  0  0  0  0  0  0  0  0  0  0  0
   27.2632    8.2414   54.1820 N   0  0  0  0  0  0  0  0  0  0  0  0
   28.0675    7.6504   53.1057 C   0  0  0  0  0  0  0  0  0  0  0  0
   25.9289    8.3289   54.1413 C   0  0  0  0  0  0  0  0  0  0  0  0
   25.0218    7.8698   53.0480 C   0  0  0  0  0  0  0  0  0  0  0  0
   25.5599    8.9489   55.3501 C   0  0  0  0  0  0  0  0  0  0  0  0
   28.1108    9.3360   58.0821 C   0  0  0  0  0  0  0  0  0  0  0  0
   26.8781    9.8352   57.3483 C   0  0  0  0  0  0  0  0  0  0  0  0
   24.1811    9.2300   55.7210 C   0  0  0  0  0  0  0  0  0  0  0  0
   23.1182    8.6900   54.8949 C   0  0  0  0  0  0  0  0  0  0  0  0
   22.8448    7.3265   54.7792 C   0  0  0  0  0  0  0  0  0  0  0  0
   21.8476    6.8418   53.9693 C   0  0  0  0  0  0  0  0  0  0  0  0
   21.0669    7.7329   53.2254 C   0  0  0  0  0  0  0  0  0  0  0  0
   21.3202    9.0851   53.3249 C   0  0  0  0  0  0  0  0  0  0  0  0
   22.3225    9.5128   54.1441 C   0  0  0  0  0  0  0  0  0  0  0  0
  8  9  1  0  0  0
  9  1  1  0  0  0
  1  2  2  0  0  0
  2  3  1  0  0  0
  3  4  1  0  0  0
  3  5  1  0  0  0
  5  6  1  0  0  0
  5  7  2  0  0  0
  7 10  1  0  0  0
 10 11  1  0  0  0
 11 12  2  0  0  0
 12 13  1  0  0  0
 13 14  2  0  0  0
 14 15  1  0  0  0
 15 16  2  0  0  0
  7  1  1  0  0  0
 16 11  1  0  0  0
M  END
> <minimizedAffinity>
4.12851

> <CNNscore>
0.6251288056

> <CNNaffinity>
4.7224969864

> <CNN_VS>
2.9521689415

> <CNNaffinity_variance>
0.5346723795

$$$$
[H]c1c([H])c([H])c(C([H])([H])c2c(C([H])([H])C([H])([H])[H])nn(C([H])([H])[H])c2C([H])([H])[H])c([H])c1[H]


 16 17  0  0  0  0  0  0  0  0999 V2000
   22.8555    6.9758   53.4714 C   0  0  0  0  0  0  0  0  0  0  0  0
   21.9537    6.9159   52.4567 N   0  0  0  0  0  0  0  0  0  0  0  0
   21.4431    8.1157   52.2780 N   0  0  0  0  0  0  0  0  0  0  0  0
   20.4314    8.4719   51.2758 C   0  0  0  0  0  0  0  0  0  0  0  0
   21.9679    8.9945   53.1393 C   0  0  0  0  0  0  0  0  0  0  0  0
   21.6539   10.4494   53.2564 C   0  0  0  0  0  0  0  0  0  0  0  0
   22.8830    8.2557   53.9130 C   0  0  0  0  0  0  0  0  0  0  0  0
   23.3889    5.4794   55.3805 C   0  0  0  0  0  0  0  0  0  0  0  0
   23.6153    5.8105   53.9153 C   0  0  0  0  0  0  0  0  0  0  0  0
   23.6757    8.8325   54.9885 C   0  0  0  0  0  0  0  0  0  0  0  0
   25.1217    8.7755   54.8898 C   0  0  0  0  0  0  0  0  0  0  0  0
   25.8032    8.3365   53.7539 C   0  0  0  0  0  0  0  0  0  0  0  0
   27.1734    8.2692   53.6976 C   0  0  0  0  0  0  0  0  0  0  0  0
   27.9305    8.6509   54.8103 C   0  0  0  0  0  0  0  0  0  0  0  0
   27.2771    9.0881   55.9436 C   0  0  0  0  0  0  0  0  0  0  0  0
   25.9146    9.1353   55.9461 C   0  0  0  0  0  0  0  0  0  0  0  0
  8  9  1  0  0  0
  9  1  1  0  0  0
  1  2  2  0  0  0
  2  3  1  0  0  0
  3  4  1  0  0  0
  3  5  1  0  0  0
  5  6  1  0  0  0
  5  7  2  0  0  0
  7 10  1  0  0  0
 10 11  1  0  0  0
 11 12  2  0  0  0
 12 13  1  0  0  0
 13 14  2  0  0  0
 14 15  1  0  0  0
 15 16  2  0  0  0
  7  1  1  0  0  0
 16 11  1  0  0  0
M  END
> <minimizedAffinity>
-1.08270

> <CNNscore>
0.6216826439

> <CNNaffinity>
5.1975965500

> <CNN_VS>
3.2312555313

> <CNNaffinity_variance>
0.2445542067

$$$$
[H]c1c([H])c([H])c(C([H])([H])c2c(C([H])([H])C([H])([H])[H])nn(C([H])([H])[H])c2C([H])([H])[H])c([H])c1[H]


 16 17  0  0  0  0  0  0  0  0999 V2000
   21.7332    9.1873   53.8504 C   0  0  0  0  0  0  0  0  0  0  0  0
   20.9203    8.2983   53.2217 N   0  0  0  0  0  0  0  0  0  0  0  0
   21.3163    7.0804   53.5251 N   0  0  0  0  0  0  0  0  0  0  0  0
   20.6985    5.8380   53.0459 C   0  0  0  0  0  0  0  0  0  0  0  0
   22.3753    7.1089   54.3420 C   0  0  0  0  0  0  0  0  0  0  0  0
   23.1138    5.9434   54.9122 C   0  0  0  0  0  0  0  0  0  0  0  0
   22.6458    8.4744   54.5526 C   0  0  0  0  0  0  0  0  0  0  0  0
   21.6089   11.1200   52.2957 C   0  0  0  0  0  0  0  0  0  0  0  0
   21.5553   10.6319   53.7332 C   0  0  0  0  0  0  0  0  0  0  0  0
   23.7380    8.9585   55.3834 C   0  0  0  0  0  0  0  0  0  0  0  0
   25.0980    8.7805   54.9116 C   0  0  0  0  0  0  0  0  0  0  0  0
   25.4215    8.4001   53.6085 C   0  0  0  0  0  0  0  0  0  0  0  0
   26.7179    8.2146   53.1962 C   0  0  0  0  0  0  0  0  0  0  0  0
   27.7660    8.4095   54.1021 C   0  0  0  0  0  0  0  0  0  0  0  0
   27.4686    8.7858   55.3954 C   0  0  0  0  0  0  0  0  0  0  0  0
   26.1640    8.9563   55.7522 C   0  0  0  0  0  0  0  0  0  0  0  0
  8  9  1  0  0  0
  9  1  1  0  0  0
  1  2  2  0  0  0
  2  3  1  0  0  0
  3  4  1  0  0  0
  3  5  1  0  0  0
  5  6  1  0  0  0
  5  7  2  0  0  0
  7 10  1  0  0  0
 10 11  1  0  0  0
 11 12  2  0  0  0
 12 13  1  0  0  0
 13 14  2  0  0  0
 14 15  1  0  0  0
 15 16  2  0  0  0
  7  1  1  0  0  0
 16 11  1  0  0  0
M  END
> <minimizedAffinity>
-0.95797

> <CNNscore>
0.6180328727

> <CNNaffinity>
5.1537275314

> <CNN_VS>
3.1851730347

> <CNNaffinity_variance>
0.1554139256

$$$$
[H]c1c([H])c([H])c(C([H])([H])c2c(C([H])([H])C([H])([H])[H])nn(C([H])([H])[H])c2C([H])([H])[H])c([H])c1[H]


 16 17  0  0  0  0  0  0  0  0999 V2000
   22.8547    6.9845   53.4780 C   0  0  0  0  0  0  0  0  0  0  0  0
   21.9620    6.9220   52.4555 N   0  0  0  0  0  0  0  0  0  0  0  0
   21.4523    8.1211   52.2697 N   0  0  0  0  0  0  0  0  0  0  0  0
   20.4493    8.4746   51.2578 C   0  0  0  0  0  0  0  0  0  0  0  0
   21.9689    9.0019   53.1338 C   0  0  0  0  0  0  0  0  0  0  0  0
   21.6530   10.4569   53.2452 C   0  0  0  0  0  0  0  0  0  0  0  0
   22.8775    8.2653   53.9172 C   0  0  0  0  0  0  0  0  0  0  0  0
   23.3678    5.4890   55.3933 C   0  0  0  0  0  0  0  0  0  0  0  0
   23.6112    5.8205   53.9310 C   0  0  0  0  0  0  0  0  0  0  0  0
   23.6604    8.8448   54.9984 C   0  0  0  0  0  0  0  0  0  0  0  0
   25.1068    8.7661   54.9250 C   0  0  0  0  0  0  0  0  0  0  0  0
   25.9555    9.1212   55.9744 C   0  0  0  0  0  0  0  0  0  0  0  0
   27.3230    9.0603   55.8679 C   0  0  0  0  0  0  0  0  0  0  0  0
   27.9046    8.6289   54.6710 C   0  0  0  0  0  0  0  0  0  0  0  0
   27.0842    8.2729   53.6209 C   0  0  0  0  0  0  0  0  0  0  0  0
   25.7325    8.3521   53.7800 C   0  0  0  0  0  0  0  0  0  0  0  0
  8  9  1  0  0  0
  9  1  1  0  0  0
  1  2  2  0  0  0
  2  3  1  0  0  0
  3  4  1  0  0  0
  3  5  1  0  0  0
  5  6  1  0  0  0
  5  7  2  0  0  0
  7 10  1  0  0  0
 10 11  1  0  0  0
 11 12  2  0  0  0
 12 13  1  0  0  0
 13 14  2  0  0  0
 14 15  1  0  0  0
 15 16  2  0  0  0
  7  1  1  0  0  0
 16 11  1  0  0  0
M  END
> <minimizedAffinity>
-1.11165

> <CNNscore>
0.6168259382

> <CNNaffinity>
5.1915540695

> <CNN_VS>
3.2022852898

> <CNNaffinity_variance>
0.2477633059

$$$$
[H]c1c([H])c([H])c(C([H])([H])c2c(C([H])([H])C([H])([H])[H])nn(C([H])([H])[H])c2C([H])([H])[H])c([H])c1[H]


 16 17  0  0  0  0  0  0  0  0999 V2000
   25.0337    7.3935   54.6545 C   0  0  0  0  0  0  0  0  0  0  0  0
   26.2631    7.3696   55.2326 N   0  0  0  0  0  0  0  0  0  0  0  0
   27.1108    7.9927   54.4418 N   0  0  0  0  0  0  0  0  0  0  0  0
   28.5419    8.1841   54.7065 C   0  0  0  0  0  0  0  0  0  0  0  0
   26.4989    8.4420   53.3404 C   0  0  0  0  0  0  0  0  0  0  0  0
   27.1098    9.1967   52.2062 C   0  0  0  0  0  0  0  0  0  0  0  0
   25.1528    8.0534   53.4779 C   0  0  0  0  0  0  0  0  0  0  0  0
   23.3974    5.5262   54.5912 C   0  0  0  0  0  0  0  0  0  0  0  0
   23.8590    6.7968   55.2841 C   0  0  0  0  0  0  0  0  0  0  0  0
   24.1288    8.3373   52.4838 C   0  0  0  0  0  0  0  0  0  0  0  0
   22.7370    8.2809   52.8881 C   0  0  0  0  0  0  0  0  0  0  0  0
   21.7870    7.4593   52.2798 C   0  0  0  0  0  0  0  0  0  0  0  0
   20.4699    7.4451   52.6672 C   0  0  0  0  0  0  0  0  0  0  0  0
   20.0465    8.2781   53.7083 C   0  0  0  0  0  0  0  0  0  0  0  0
   20.9692    9.0983   54.3236 C   0  0  0  0  0  0  0  0  0  0  0  0
   22.2646    9.0731   53.8996 C   0  0  0  0  0  0  0  0  0  0  0  0
  8  9  1  0  0  0
  9  1  1  0  0  0
  1  2  2  0  0  0
  2  3  1  0  0  0
  3  4  1  0  0  0
  3  5  1  0  0  0
  5  6  1  0  0  0
  5  7  2  0  0  0
  7 10  1  0  0  0
 10 11  1  0  0  0
 11 12  2  0  0  0
 12 13  1  0  0  0
 13 14  2  0  0  0
 14 15  1  0  0  0
 15 16  2  0  0  0
  7  1  1  0  0  0
 16 11  1  0  0  0
M  END
> <minimizedAffinity>
4.65037

> <CNNscore>
0.5660277605

> <CNNaffinity>
4.9556193352

> <CNN_VS>
2.8050181866

> <CNNaffinity_variance>
0.1048118025

$$$$
[H]c1c([H])c([H])c(C([H])([H])c2c(C([H])([H])C([H])([H])[H])nn(C([H])([H])[H])c2C([H])([H])[H])c([H])c1[H]


 16 17  0  0  0  0  0  0  0  0999 V2000
   21.7950   10.5363   54.0298 C   0  0  0  0  0  0  0  0  0  0  0  0
   21.8749   11.8661   53.7623 N   0  0  0  0  0  0  0  0  0  0  0  0
   21.6177   12.0532   52.4851 N   0  0  0  0  0  0  0  0  0  0  0  0
   21.6037   13.3507   51.7987 C   0  0  0  0  0  0  0  0  0  0  0  0
   21.3645   10.8922   51.8708 C   0  0  0  0  0  0  0  0  0  0  0  0
   21.0290   10.6808   50.4314 C   0  0  0  0  0  0  0  0  0  0  0  0
   21.4798    9.9090   52.8717 C   0  0  0  0  0  0  0  0  0  0  0  0
   20.7413    9.4601   56.0046 C   0  0  0  0  0  0  0  0  0  0  0  0
   22.0137    9.9906   55.3665 C   0  0  0  0  0  0  0  0  0  0  0  0
   21.2899    8.4871   52.6273 C   0  0  0  0  0  0  0  0  0  0  0  0
   22.1459    7.5448   53.3223 C   0  0  0  0  0  0  0  0  0  0  0  0
   21.7099    6.7270   54.3657 C   0  0  0  0  0  0  0  0  0  0  0  0
   22.5493    5.8617   55.0228 C   0  0  0  0  0  0  0  0  0  0  0  0
   23.8943    5.7836   54.6462 C   0  0  0  0  0  0  0  0  0  0  0  0
   24.3464    6.5832   53.6172 C   0  0  0  0  0  0  0  0  0  0  0  0
   23.4705    7.4248   52.9984 C   0  0  0  0  0  0  0  0  0  0  0  0
  8  9  1  0  0  0
  9  1  1  0  0  0
  1  2  2  0  0  0
  2  3  1  0  0  0
  3  4  1  0  0  0
  3  5  1  0  0  0
  5  6  1  0  0  0
  5  7  2  0  0  0
  7 10  1  0  0  0
 10 11  1  0  0  0
 11 12  2  0  0  0
 12 13  1  0  0  0
 13 14  2  0  0  0
 14 15  1  0  0  0
 15 16  2  0  0  0
  7  1  1  0  0  0
 16 11  1  0  0  0
M  END
> <minimizedAffinity>
7.41174

> <CNNscore>
0.5293208957

> <CNNaffinity>
5.0022268295

> <CNN_VS>
2.6477832794

> <CNNaffinity_variance>
0.0816019028

$$$$
[H]OC([H])(c1c([H])nc(C2([H])C([H])([H])C([H])([H])C([H])([H])C2([H])[H])n1C([H])([H])c1c([H])c([H])c(OC([H])([H])c2c([H])c([H])c([H])c([H])c2[H])c(C([H])([H])[H])c1[H])C([H])([H])C1([H])C([H])([H])C([H])([H])C1([H])[H]


 34 38  0  0  0  0  0  0  0  0999 V2000
   22.1659    8.0503   52.6052 N   0  0  0  0  0  0  0  0  0  0  0  0
   21.1877    8.9332   52.4985 C   0  0  0  0  0  0  0  0  0  0  0  0
   20.0045    8.2685   52.8608 C   0  0  0  0  0  0  0  0  0  0  0  0
   20.3246    7.0240   53.1656 N   0  0  0  0  0  0  0  0  0  0  0  0
   21.6452    6.8794   53.0112 C   0  0  0  0  0  0  0  0  0  0  0  0
   22.3582    5.5794   53.2253 C   0  0  0  0  0  0  0  0  0  0  0  0
   22.1740    5.0882   54.6441 C   0  0  0  0  0  0  0  0  0  0  0  0
   23.4092    5.4557   55.4086 C   0  0  0  0  0  0  0  0  0  0  0  0
   24.4892    5.6580   54.3998 C   0  0  0  0  0  0  0  0  0  0  0  0
   23.8386    5.8427   53.0696 C   0  0  0  0  0  0  0  0  0  0  0  0
   21.1265   10.3717   52.1016 C   0  0  0  0  0  0  0  0  0  0  0  0
   21.3247   10.6044   50.7530 O   0  0  0  0  0  0  0  0  0  0  0  0
   21.7097   11.5057   50.6302 H   0  0  0  0  0  0  0  0  0  0  0  0
   21.8990   11.1988   53.0465 C   0  0  0  0  0  0  0  0  0  0  0  0
   21.4640   11.2285   54.4572 C   0  0  0  0  0  0  0  0  0  0  0  0
   20.6736   10.1608   55.0550 C   0  0  0  0  0  0  0  0  0  0  0  0
   21.8419    9.6891   55.9284 C   0  0  0  0  0  0  0  0  0  0  0  0
   22.6091   10.8845   55.4011 C   0  0  0  0  0  0  0  0  0  0  0  0
   23.5597    8.2833   52.3067 C   0  0  0  0  0  0  0  0  0  0  0  0
   28.2219    8.1617   54.1034 C   0  0  0  0  0  0  0  0  0  0  0  0
   26.7664    8.3806   54.3087 C   0  0  0  0  0  0  0  0  0  0  0  0
   25.8639    8.2496   53.2745 C   0  0  0  0  0  0  0  0  0  0  0  0
   24.4916    8.4451   53.4191 C   0  0  0  0  0  0  0  0  0  0  0  0
   24.0988    8.7837   54.6949 C   0  0  0  0  0  0  0  0  0  0  0  0
   25.0046    8.9202   55.7544 C   0  0  0  0  0  0  0  0  0  0  0  0
   26.3369    8.7204   55.5678 C   0  0  0  0  0  0  0  0  0  0  0  0
   27.2495    8.8579   56.6343 O   0  0  0  0  0  0  0  0  0  0  0  0
   28.4346    9.5801   56.5142 C   0  0  0  0  0  0  0  0  0  0  0  0
   28.5319   10.5435   57.6160 C   0  0  0  0  0  0  0  0  0  0  0  0
   29.2043   10.2419   58.7750 C   0  0  0  0  0  0  0  0  0  0  0  0
   29.2944   11.1618   59.8216 C   0  0  0  0  0  0  0  0  0  0  0  0
   28.6983   12.3902   59.6860 C   0  0  0  0  0  0  0  0  0  0  0  0
   28.0270   12.7121   58.5481 C   0  0  0  0  0  0  0  0  0  0  0  0
   27.9495   11.7838   57.5209 C   0  0  0  0  0  0  0  0  0  0  0  0
 20 21  1  0  0  0
 21 22  2  0  0  0
 22 23  1  0  0  0
 23 19  1  0  0  0
 19  1  1  0  0  0
  1  2  1  0  0  0
  2  3  2  0  0  0
  3  4  1  0  0  0
  4  5  2  0  0  0
  5  6  1  0  0  0
  6  7  1  0  0  0
  7  8  1  0  0  0
  8  9  1  0  0  0
  9 10  1  0  0  0
  2 11  1  0  0  0
 11 12  1  0  0  0
 11 14  1  0  0  0
 14 15  1  0  0  0
 15 16  1  0  0  0
 16 17  1  0  0  0
 17 18  1  0  0  0
 23 24  2  0  0  0
 24 25  1  0  0  0
 25 26  2  0  0  0
 26 27  1  0  0  0
 27 28  1  0  0  0
 28 29  1  0  0  0
 29 30  2  0  0  0
 30 31  1  0  0  0
 31 32  2  0  0  0
 32 33  1  0  0  0
 33 34  2  0  0  0
 26 21  1  0  0  0
 34 29  1  0  0  0
  5  1  1  0  0  0
 10  6  1  0  0  0
 18 15  1  0  0  0
 12 13  1  0  0  0
M  END
> <minimizedAffinity>
14.37887

> <CNNscore>
0.6050306559

> <CNNaffinity>
7.1673650742

> <CNN_VS>
4.3364753723

> <CNNaffinity_variance>
0.4894853532

$$$$
[H]OC([H])(c1c([H])nc(C2([H])C([H])([H])C([H])([H])C([H])([H])C2([H])[H])n1C([H])([H])c1c([H])c([H])c(OC([H])([H])c2c([H])c([H])c([H])c([H])c2[H])c(C([H])([H])[H])c1[H])C([H])([H])C1([H])C([H])([H])C([H])([H])C1([H])[H]


 34 38  0  0  0  0  0  0  0  0999 V2000
   21.3566    6.5063   53.0774 N   0  0  0  0  0  0  0  0  0  0  0  0
   21.0481    7.6530   52.4963 C   0  0  0  0  0  0  0  0  0  0  0  0
   19.6467    7.6966   52.4110 C   0  0  0  0  0  0  0  0  0  0  0  0
   19.1808    6.5801   52.9407 N   0  0  0  0  0  0  0  0  0  0  0  0
   20.2193    5.8437   53.3505 C   0  0  0  0  0  0  0  0  0  0  0  0
   20.0698    4.4846   53.9628 C   0  0  0  0  0  0  0  0  0  0  0  0
   20.4233    3.4010   52.9683 C   0  0  0  0  0  0  0  0  0  0  0  0
   19.1385    2.8724   52.4070 C   0  0  0  0  0  0  0  0  0  0  0  0
   18.0710    3.2185   53.3898 C   0  0  0  0  0  0  0  0  0  0  0  0
   18.6052    4.2890   54.2816 C   0  0  0  0  0  0  0  0  0  0  0  0
   21.8491    8.7979   51.9688 C   0  0  0  0  0  0  0  0  0  0  0  0
   23.2113    8.5675   51.9111 O   0  0  0  0  0  0  0  0  0  0  0  0
   23.6918    9.4261   51.9985 H   0  0  0  0  0  0  0  0  0  0  0  0
   21.4072   10.0618   52.5861 C   0  0  0  0  0  0  0  0  0  0  0  0
   21.8724   10.3645   53.9543 C   0  0  0  0  0  0  0  0  0  0  0  0
   21.3454   11.4781   54.7315 C   0  0  0  0  0  0  0  0  0  0  0  0
   20.6157   10.5452   55.7050 C   0  0  0  0  0  0  0  0  0  0  0  0
   21.2798    9.3977   54.9714 C   0  0  0  0  0  0  0  0  0  0  0  0
   22.6894    6.0205   53.3487 C   0  0  0  0  0  0  0  0  0  0  0  0
   27.2167    8.1219   53.6059 C   0  0  0  0  0  0  0  0  0  0  0  0
   25.8467    7.9406   54.1522 C   0  0  0  0  0  0  0  0  0  0  0  0
   24.9284    7.1149   53.5386 C   0  0  0  0  0  0  0  0  0  0  0  0
   23.6335    6.9144   54.0134 C   0  0  0  0  0  0  0  0  0  0  0  0
   23.3361    7.6142   55.1615 C   0  0  0  0  0  0  0  0  0  0  0  0
   24.2590    8.4561   55.7950 C   0  0  0  0  0  0  0  0  0  0  0  0
   25.5131    8.6230   55.2960 C   0  0  0  0  0  0  0  0  0  0  0  0
   26.4427    9.4709   55.9333 O   0  0  0  0  0  0  0  0  0  0  0  0
   27.7120    9.0377   56.3100 C   0  0  0  0  0  0  0  0  0  0  0  0
   28.1307    9.7510   57.5214 C   0  0  0  0  0  0  0  0  0  0  0  0
   28.0888   11.1218   57.5970 C   0  0  0  0  0  0  0  0  0  0  0  0
   28.4884   11.7970   58.7520 C   0  0  0  0  0  0  0  0  0  0  0  0
   28.9312   11.0737   59.8306 C   0  0  0  0  0  0  0  0  0  0  0  0
   28.9818    9.7157   59.7799 C   0  0  0  0  0  0  0  0  0  0  0  0
   28.5803    9.0649   58.6231 C   0  0  0  0  0  0  0  0  0  0  0  0
 20 21  1  0  0  0
 21 22  2  0  0  0
 22 23  1  0  0  0
 23 19  1  0  0  0
 19  1  1  0  0  0
  1  2  1  0  0  0
  2  3  2  0  0  0
  3  4  1  0  0  0
  4  5  2  0  0  0
  5  6  1  0  0  0
  6  7  1  0  0  0
  7  8  1  0  0  0
  8  9  1  0  0  0
  9 10  1  0  0  0
  2 11  1  0  0  0
 11 12  1  0  0  0
 11 14  1  0  0  0
 14 15  1  0  0  0
 15 16  1  0  0  0
 16 17  1  0  0  0
 17 18  1  0  0  0
 23 24  2  0  0  0
 24 25  1  0  0  0
 25 26  2  0  0  0
 26 27  1  0  0  0
 27 28  1  0  0  0
 28 29  1  0  0  0
 29 30  2  0  0  0
 30 31  1  0  0  0
 31 32  2  0  0  0
 32 33  1  0  0  0
 33 34  2  0  0  0
 26 21  1  0  0  0
 34 29  1  0  0  0
  5  1  1  0  0  0
 10  6  1  0  0  0
 18 15  1  0  0  0
 12 13  1  0  0  0
M  END
> <minimizedAffinity>
16.21975

> <CNNscore>
0.5706604719

> <CNNaffinity>
6.6321396828

> <CNN_VS>
3.7846999168

> <CNNaffinity_variance>
0.1549827754

$$$$
[H]OC([H])(c1c([H])nc(C2([H])C([H])([H])C([H])([H])C([H])([H])C2([H])[H])n1C([H])([H])c1c([H])c([H])c(OC([H])([H])c2c([H])c([H])c([H])c([H])c2[H])c(C([H])([H])[H])c1[H])C([H])([H])C1([H])C([H])([H])C([H])([H])C1([H])[H]


 34 38  0  0  0  0  0  0  0  0999 V2000
   21.3297    6.6182   53.2024 N   0  0  0  0  0  0  0  0  0  0  0  0
   21.0130    7.7894   52.6773 C   0  0  0  0  0  0  0  0  0  0  0  0
   19.6120    7.8219   52.5817 C   0  0  0  0  0  0  0  0  0  0  0  0
   19.1544    6.6750   53.0500 N   0  0  0  0  0  0  0  0  0  0  0  0
   20.1977    5.9301   53.4314 C   0  0  0  0  0  0  0  0  0  0  0  0
   20.0585    4.5402   53.9728 C   0  0  0  0  0  0  0  0  0  0  0  0
   20.4640    3.5134   52.9386 C   0  0  0  0  0  0  0  0  0  0  0  0
   19.2077    2.9879   52.3135 C   0  0  0  0  0  0  0  0  0  0  0  0
   18.1046    3.2649   53.2785 C   0  0  0  0  0  0  0  0  0  0  0  0
   18.5895    4.3009   54.2367 C   0  0  0  0  0  0  0  0  0  0  0  0
   21.8053    8.9682   52.2156 C   0  0  0  0  0  0  0  0  0  0  0  0
   23.0616    8.6601   51.7267 O   0  0  0  0  0  0  0  0  0  0  0  0
   23.6640    9.4306   51.8650 H   0  0  0  0  0  0  0  0  0  0  0  0
   21.7173   10.0634   53.1987 C   0  0  0  0  0  0  0  0  0  0  0  0
   21.2101   11.3706   52.7360 C   0  0  0  0  0  0  0  0  0  0  0  0
   22.0812   12.5203   52.5322 C   0  0  0  0  0  0  0  0  0  0  0  0
   21.9197   12.4615   51.0088 C   0  0  0  0  0  0  0  0  0  0  0  0
   20.9107   11.3556   51.2425 C   0  0  0  0  0  0  0  0  0  0  0  0
   22.6656    6.1338   53.4608 C   0  0  0  0  0  0  0  0  0  0  0  0
   27.2154    8.1807   53.7577 C   0  0  0  0  0  0  0  0  0  0  0  0
   25.8353    8.0241   54.2858 C   0  0  0  0  0  0  0  0  0  0  0  0
   24.9155    7.2021   53.6695 C   0  0  0  0  0  0  0  0  0  0  0  0
   23.6113    7.0244   54.1276 C   0  0  0  0  0  0  0  0  0  0  0  0
   23.3062    7.7431   55.2620 C   0  0  0  0  0  0  0  0  0  0  0  0
   24.2304    8.5815   55.8980 C   0  0  0  0  0  0  0  0  0  0  0  0
   25.4938    8.7259   55.4155 C   0  0  0  0  0  0  0  0  0  0  0  0
   26.4248    9.5702   56.0555 O   0  0  0  0  0  0  0  0  0  0  0  0
   27.6650    9.1146   56.4973 C   0  0  0  0  0  0  0  0  0  0  0  0
   28.1015    9.9224   57.6413 C   0  0  0  0  0  0  0  0  0  0  0  0
   28.6914    9.3486   58.7408 C   0  0  0  0  0  0  0  0  0  0  0  0
   29.1054   10.1212   59.8278 C   0  0  0  0  0  0  0  0  0  0  0  0
   28.9175   11.4799   59.7932 C   0  0  0  0  0  0  0  0  0  0  0  0
   28.3356   12.0712   58.7157 C   0  0  0  0  0  0  0  0  0  0  0  0
   27.9319   11.2854   57.6468 C   0  0  0  0  0  0  0  0  0  0  0  0
 20 21  1  0  0  0
 21 22  2  0  0  0
 22 23  1  0  0  0
 23 19  1  0  0  0
 19  1  1  0  0  0
  1  2  1  0  0  0
  2  3  2  0  0  0
  3  4  1  0  0  0
  4  5  2  0  0  0
  5  6  1  0  0  0
  6  7  1  0  0  0
  7  8  1  0  0  0
  8  9  1  0  0  0
  9 10  1  0  0  0
  2 11  1  0  0  0
 11 12  1  0  0  0
 11 14  1  0  0  0
 14 15  1  0  0  0
 15 16  1  0  0  0
 16 17  1  0  0  0
 17 18  1  0  0  0
 23 24  2  0  0  0
 24 25  1  0  0  0
 25 26  2  0  0  0
 26 27  1  0  0  0
 27 28  1  0  0  0
 28 29  1  0  0  0
 29 30  2  0  0  0
 30 31  1  0  0  0
 31 32  2  0  0  0
 32 33  1  0  0  0
 33 34  2  0  0  0
 26 21  1  0  0  0
 34 29  1  0  0  0
  5  1  1  0  0  0
 10  6  1  0  0  0
 18 15  1  0  0  0
 12 13  1  0  0  0
M  END
> <minimizedAffinity>
19.49710

> <CNNscore>
0.5591419935

> <CNNaffinity>
6.4360570908

> <CNN_VS>
3.5986697674

> <CNNaffinity_variance>
0.1005832925

$$$$
[H]OC([H])(c1c([H])nc(C2([H])C([H])([H])C([H])([H])C([H])([H])C2([H])[H])n1C([H])([H])c1c([H])c([H])c(OC([H])([H])c2c([H])c([H])c([H])c([H])c2[H])c(C([H])([H])[H])c1[H])C([H])([H])C1([H])C([H])([H])C([H])([H])C1([H])[H]


 34 38  0  0  0  0  0  0  0  0999 V2000
   21.8320    7.2044   54.5740 N   0  0  0  0  0  0  0  0  0  0  0  0
   21.3960    8.4286   54.8167 C   0  0  0  0  0  0  0  0  0  0  0  0
   20.0569    8.4699   54.3944 C   0  0  0  0  0  0  0  0  0  0  0  0
   19.7524    7.2758   53.9194 N   0  0  0  0  0  0  0  0  0  0  0  0
   20.8325    6.4938   54.0234 C   0  0  0  0  0  0  0  0  0  0  0  0
   20.8686    5.0770   53.5382 C   0  0  0  0  0  0  0  0  0  0  0  0
   19.7809    4.8265   52.5172 C   0  0  0  0  0  0  0  0  0  0  0  0
   18.6462    4.1541   53.2282 C   0  0  0  0  0  0  0  0  0  0  0  0
   19.2204    3.5412   54.4610 C   0  0  0  0  0  0  0  0  0  0  0  0
   20.5421    4.1859   54.7148 C   0  0  0  0  0  0  0  0  0  0  0  0
   22.0156    9.6536   55.4048 C   0  0  0  0  0  0  0  0  0  0  0  0
   21.3303   10.1829   56.4830 O   0  0  0  0  0  0  0  0  0  0  0  0
   21.4961   11.1556   56.5297 H   0  0  0  0  0  0  0  0  0  0  0  0
   22.4161   10.5895   54.3384 C   0  0  0  0  0  0  0  0  0  0  0  0
   21.3843   11.0269   53.3770 C   0  0  0  0  0  0  0  0  0  0  0  0
   21.5156   12.2447   52.5884 C   0  0  0  0  0  0  0  0  0  0  0  0
   21.7114   11.4630   51.2842 C   0  0  0  0  0  0  0  0  0  0  0  0
   21.4378   10.2107   52.0920 C   0  0  0  0  0  0  0  0  0  0  0  0
   23.1660    6.7103   54.8235 C   0  0  0  0  0  0  0  0  0  0  0  0
   27.8308    8.5033   54.8886 C   0  0  0  0  0  0  0  0  0  0  0  0
   26.5615    8.2385   54.1627 C   0  0  0  0  0  0  0  0  0  0  0  0
   25.4931    7.6211   54.7783 C   0  0  0  0  0  0  0  0  0  0  0  0
   24.2846    7.3519   54.1385 C   0  0  0  0  0  0  0  0  0  0  0  0
   24.2373    7.7570   52.8231 C   0  0  0  0  0  0  0  0  0  0  0  0
   25.3147    8.3850   52.1855 C   0  0  0  0  0  0  0  0  0  0  0  0
   26.4770    8.6278   52.8487 C   0  0  0  0  0  0  0  0  0  0  0  0
   27.5623    9.2599   52.2070 O   0  0  0  0  0  0  0  0  0  0  0  0
   28.3129    8.6307   51.2164 C   0  0  0  0  0  0  0  0  0  0  0  0
   28.3747    9.4923   50.0308 C   0  0  0  0  0  0  0  0  0  0  0  0
   28.4219    8.9656   48.7632 C   0  0  0  0  0  0  0  0  0  0  0  0
   28.4808    9.7893   47.6373 C   0  0  0  0  0  0  0  0  0  0  0  0
   28.4917   11.1512   47.8043 C   0  0  0  0  0  0  0  0  0  0  0  0
   28.4458   11.6964   49.0493 C   0  0  0  0  0  0  0  0  0  0  0  0
   28.3876   10.8602   50.1540 C   0  0  0  0  0  0  0  0  0  0  0  0
 20 21  1  0  0  0
 21 22  2  0  0  0
 22 23  1  0  0  0
 23 19  1  0  0  0
 19  1  1  0  0  0
  1  2  1  0  0  0
  2  3  2  0  0  0
  3  4  1  0  0  0
  4  5  2  0  0  0
  5  6  1  0  0  0
  6  7  1  0  0  0
  7  8  1  0  0  0
  8  9  1  0  0  0
  9 10  1  0  0  0
  2 11  1  0  0  0
 11 12  1  0  0  0
 11 14  1  0  0  0
 14 15  1  0  0  0
 15 16  1  0  0  0
 16 17  1  0  0  0
 17 18  1  0  0  0
 23 24  2  0  0  0
 24 25  1  0  0  0
 25 26  2  0  0  0
 26 27  1  0  0  0
 27 28  1  0  0  0
 28 29  1  0  0  0
 29 30  2  0  0  0
 30 31  1  0  0  0
 31 32  2  0  0  0
 32 33  1  0  0  0
 33 34  2  0  0  0
 26 21  1  0  0  0
 34 29  1  0  0  0
  5  1  1  0  0  0
 10  6  1  0  0  0
 18 15  1  0  0  0
 12 13  1  0  0  0
M  END
> <minimizedAffinity>
30.00947

> <CNNscore>
0.5529634953

> <CNNaffinity>
6.4135017395

> <CNN_VS>
3.5464322567

> <CNNaffinity_variance>
0.3013886213

$$$$
[H]OC([H])(c1c([H])nc(C2([H])C([H])([H])C([H])([H])C([H])([H])C2([H])[H])n1C([H])([H])c1c([H])c([H])c(OC([H])([H])c2c([H])c([H])c([H])c([H])c2[H])c(C([H])([H])[H])c1[H])C([H])([H])C1([H])C([H])([H])C([H])([H])C1([H])[H]


 34 38  0  0  0  0  0  0  0  0999 V2000
   21.7710    8.0462   53.3900 N   0  0  0  0  0  0  0  0  0  0  0  0
   21.1224    8.9140   52.6325 C   0  0  0  0  0  0  0  0  0  0  0  0
   20.1852    8.1776   51.8892 C   0  0  0  0  0  0  0  0  0  0  0  0
   20.3141    6.9087   52.2318 N   0  0  0  0  0  0  0  0  0  0  0  0
   21.2832    6.8169   53.1490 C   0  0  0  0  0  0  0  0  0  0  0  0
   21.7363    5.5151   53.7355 C   0  0  0  0  0  0  0  0  0  0  0  0
   21.7797    5.5878   55.2459 C   0  0  0  0  0  0  0  0  0  0  0  0
   23.2051    5.8267   55.6414 C   0  0  0  0  0  0  0  0  0  0  0  0
   24.0457    5.3786   54.4936 C   0  0  0  0  0  0  0  0  0  0  0  0
   23.1640    5.2903   53.2929 C   0  0  0  0  0  0  0  0  0  0  0  0
   21.2021   10.3939   52.4483 C   0  0  0  0  0  0  0  0  0  0  0  0
   21.4658   10.7981   51.1524 O   0  0  0  0  0  0  0  0  0  0  0  0
   21.9330   11.6682   51.1703 H   0  0  0  0  0  0  0  0  0  0  0  0
   22.0120   11.0022   53.5195 C   0  0  0  0  0  0  0  0  0  0  0  0
   21.4843   10.9570   54.8978 C   0  0  0  0  0  0  0  0  0  0  0  0
   20.6291    9.8777   55.3732 C   0  0  0  0  0  0  0  0  0  0  0  0
   21.7241    9.3188   56.2892 C   0  0  0  0  0  0  0  0  0  0  0  0
   22.5546   10.5218   55.8906 C   0  0  0  0  0  0  0  0  0  0  0  0
   22.8478    8.3507   54.3031 C   0  0  0  0  0  0  0  0  0  0  0  0
   27.7817    8.6545   55.0403 C   0  0  0  0  0  0  0  0  0  0  0  0
   26.6157    8.6165   54.1198 C   0  0  0  0  0  0  0  0  0  0  0  0
   25.3259    8.4996   54.5933 C   0  0  0  0  0  0  0  0  0  0  0  0
   24.2026    8.4594   53.7693 C   0  0  0  0  0  0  0  0  0  0  0  0
   24.4832    8.5478   52.4240 C   0  0  0  0  0  0  0  0  0  0  0  0
   25.7881    8.6669   51.9295 C   0  0  0  0  0  0  0  0  0  0  0  0
   26.8562    8.7016   52.7707 C   0  0  0  0  0  0  0  0  0  0  0  0
   28.1705    8.8212   52.2732 O   0  0  0  0  0  0  0  0  0  0  0  0
   28.5642    8.2571   51.0618 C   0  0  0  0  0  0  0  0  0  0  0  0
   28.5076    9.2764   50.0085 C   0  0  0  0  0  0  0  0  0  0  0  0
   28.5035    8.9337   48.6784 C   0  0  0  0  0  0  0  0  0  0  0  0
   28.4497    9.9071   47.6788 C   0  0  0  0  0  0  0  0  0  0  0  0
   28.4001   11.2310   48.0360 C   0  0  0  0  0  0  0  0  0  0  0  0
   28.4031   11.5952   49.3461 C   0  0  0  0  0  0  0  0  0  0  0  0
   28.4570   10.6124   50.3230 C   0  0  0  0  0  0  0  0  0  0  0  0
 20 21  1  0  0  0
 21 22  2  0  0  0
 22 23  1  0  0  0
 23 19  1  0  0  0
 19  1  1  0  0  0
  1  2  1  0  0  0
  2  3  2  0  0  0
  3  4  1  0  0  0
  4  5  2  0  0  0
  5  6  1  0  0  0
  6  7  1  0  0  0
  7  8  1  0  0  0
  8  9  1  0  0  0
  9 10  1  0  0  0
  2 11  1  0  0  0
 11 12  1  0  0  0
 11 14  1  0  0  0
 14 15  1  0  0  0
 15 16  1  0  0  0
 16 17  1  0  0  0
 17 18  1  0  0  0
 23 24  2  0  0  0
 24 25  1  0  0  0
 25 26  2  0  0  0
 26 27  1  0  0  0
 27 28  1  0  0  0
 28 29  1  0  0  0
 29 30  2  0  0  0
 30 31  1  0  0  0
 31 32  2  0  0  0
 32 33  1  0  0  0
 33 34  2  0  0  0
 26 21  1  0  0  0
 34 29  1  0  0  0
  5  1  1  0  0  0
 10  6  1  0  0  0
 18 15  1  0  0  0
 12 13  1  0  0  0
M  END
> <minimizedAffinity>
27.37772

> <CNNscore>
0.5525093079

> <CNNaffinity>
7.0082650185

> <CNN_VS>
3.8721315861

> <CNNaffinity_variance>
0.4890873432

$$$$
[H]OC([H])(c1c([H])nc(C2([H])C([H])([H])C([H])([H])C([H])([H])C2([H])[H])n1C([H])([H])c1c([H])c([H])c(OC([H])([H])c2c([H])c([H])c([H])c([H])c2[H])c(C([H])([H])[H])c1[H])C([H])([H])C1([H])C([H])([H])C([H])([H])C1([H])[H]


 34 38  0  0  0  0  0  0  0  0999 V2000
   22.0782    8.1114   54.8258 N   0  0  0  0  0  0  0  0  0  0  0  0
   21.3034    9.1770   54.7168 C   0  0  0  0  0  0  0  0  0  0  0  0
   20.1317    8.7576   54.0654 C   0  0  0  0  0  0  0  0  0  0  0  0
   20.2564    7.4671   53.8138 N   0  0  0  0  0  0  0  0  0  0  0  0
   21.4450    7.0618   54.2740 C   0  0  0  0  0  0  0  0  0  0  0  0
   21.9484    5.6591   54.1211 C   0  0  0  0  0  0  0  0  0  0  0  0
   22.9486    5.3219   55.2047 C   0  0  0  0  0  0  0  0  0  0  0  0
   24.3170    5.4734   54.6132 C   0  0  0  0  0  0  0  0  0  0  0  0
   24.1548    5.3689   53.1341 C   0  0  0  0  0  0  0  0  0  0  0  0
   22.7132    5.5908   52.8190 C   0  0  0  0  0  0  0  0  0  0  0  0
   21.4411   10.6067   55.1261 C   0  0  0  0  0  0  0  0  0  0  0  0
   20.8141   10.9263   56.3164 O   0  0  0  0  0  0  0  0  0  0  0  0
   20.5550   11.8795   56.3035 H   0  0  0  0  0  0  0  0  0  0  0  0
   21.1938   11.4963   53.9767 C   0  0  0  0  0  0  0  0  0  0  0  0
   21.9175   11.2213   52.7194 C   0  0  0  0  0  0  0  0  0  0  0  0
   21.3470   10.4153   51.6484 C   0  0  0  0  0  0  0  0  0  0  0  0
   21.1858   11.6289   50.7255 C   0  0  0  0  0  0  0  0  0  0  0  0
   21.9039   12.4300   51.7924 C   0  0  0  0  0  0  0  0  0  0  0  0
   23.3993    8.0750   55.4083 C   0  0  0  0  0  0  0  0  0  0  0  0
   28.3196    8.7225   54.8166 C   0  0  0  0  0  0  0  0  0  0  0  0
   26.9524    8.6353   54.2410 C   0  0  0  0  0  0  0  0  0  0  0  0
   25.8490    8.4000   55.0340 C   0  0  0  0  0  0  0  0  0  0  0  0
   24.5491    8.3097   54.5395 C   0  0  0  0  0  0  0  0  0  0  0  0
   24.4485    8.4772   53.1763 C   0  0  0  0  0  0  0  0  0  0  0  0
   25.5605    8.7168   52.3592 C   0  0  0  0  0  0  0  0  0  0  0  0
   26.8124    8.7966   52.8847 C   0  0  0  0  0  0  0  0  0  0  0  0
   27.9326    9.0376   52.0623 O   0  0  0  0  0  0  0  0  0  0  0  0
   28.1076    8.4027   50.8347 C   0  0  0  0  0  0  0  0  0  0  0  0
   28.3165    9.4111   49.7901 C   0  0  0  0  0  0  0  0  0  0  0  0
   28.3841   10.7499   50.0890 C   0  0  0  0  0  0  0  0  0  0  0  0
   28.5830   11.7066   49.0917 C   0  0  0  0  0  0  0  0  0  0  0  0
   28.7129   11.2976   47.7884 C   0  0  0  0  0  0  0  0  0  0  0  0
   28.6494    9.9776   47.4674 C   0  0  0  0  0  0  0  0  0  0  0  0
   28.4513    9.0440   48.4734 C   0  0  0  0  0  0  0  0  0  0  0  0
 20 21  1  0  0  0
 21 22  2  0  0  0
 22 23  1  0  0  0
 23 19  1  0  0  0
 19  1  1  0  0  0
  1  2  1  0  0  0
  2  3  2  0  0  0
  3  4  1  0  0  0
  4  5  2  0  0  0
  5  6  1  0  0  0
  6  7  1  0  0  0
  7  8  1  0  0  0
  8  9  1  0  0  0
  9 10  1  0  0  0
  2 11  1  0  0  0
 11 12  1  0  0  0
 11 14  1  0  0  0
 14 15  1  0  0  0
 15 16  1  0  0  0
 16 17  1  0  0  0
 17 18  1  0  0  0
 23 24  2  0  0  0
 24 25  1  0  0  0
 25 26  2  0  0  0
 26 27  1  0  0  0
 27 28  1  0  0  0
 28 29  1  0  0  0
 29 30  2  0  0  0
 30 31  1  0  0  0
 31 32  2  0  0  0
 32 33  1  0  0  0
 33 34  2  0  0  0
 26 21  1  0  0  0
 34 29  1  0  0  0
  5  1  1  0  0  0
 10  6  1  0  0  0
 18 15  1  0  0  0
 12 13  1  0  0  0
M  END
> <minimizedAffinity>
24.35729

> <CNNscore>
0.5519618988

> <CNNaffinity>
6.5981202126

> <CNN_VS>
3.6419110298

> <CNNaffinity_variance>
0.2502913475

$$$$
[H]OC([H])(c1c([H])nc(C2([H])C([H])([H])C([H])([H])C([H])([H])C2([H])[H])n1C([H])([H])c1c([H])c([H])c(OC([H])([H])c2c([H])c([H])c([H])c([H])c2[H])c(C([H])([H])[H])c1[H])C([H])([H])C1([H])C([H])([H])C([H])([H])C1([H])[H]


 34 38  0  0  0  0  0  0  0  0999 V2000
   22.3529    8.4283   53.9773 N   0  0  0  0  0  0  0  0  0  0  0  0
   21.5821    9.3370   54.5498 C   0  0  0  0  0  0  0  0  0  0  0  0
   20.4433    8.6611   55.0183 C   0  0  0  0  0  0  0  0  0  0  0  0
   20.5814    7.3853   54.7065 N   0  0  0  0  0  0  0  0  0  0  0  0
   21.7464    7.2320   54.0677 C   0  0  0  0  0  0  0  0  0  0  0  0
   22.2159    5.9180   53.5226 C   0  0  0  0  0  0  0  0  0  0  0  0
   22.9529    5.1257   54.5796 C   0  0  0  0  0  0  0  0  0  0  0  0
   24.4197    5.3175   54.3408 C   0  0  0  0  0  0  0  0  0  0  0  0
   24.5671    5.7392   52.9176 C   0  0  0  0  0  0  0  0  0  0  0  0
   23.2333    6.2116   52.4439 C   0  0  0  0  0  0  0  0  0  0  0  0
   21.6992   10.8101   54.7662 C   0  0  0  0  0  0  0  0  0  0  0  0
   21.3268   11.2367   56.0277 O   0  0  0  0  0  0  0  0  0  0  0  0
   21.0009   12.1677   55.9747 H   0  0  0  0  0  0  0  0  0  0  0  0
   21.1399   11.5443   53.6165 C   0  0  0  0  0  0  0  0  0  0  0  0
   21.8534   11.4594   52.3266 C   0  0  0  0  0  0  0  0  0  0  0  0
   21.2467   10.8852   51.1331 C   0  0  0  0  0  0  0  0  0  0  0  0
   21.1509   12.2493   50.4399 C   0  0  0  0  0  0  0  0  0  0  0  0
   21.9047   12.8119   51.6277 C   0  0  0  0  0  0  0  0  0  0  0  0
   23.6209    8.6725   53.3303 C   0  0  0  0  0  0  0  0  0  0  0  0
   28.5823    8.2863   53.7933 C   0  0  0  0  0  0  0  0  0  0  0  0
   27.2471    8.5388   54.3949 C   0  0  0  0  0  0  0  0  0  0  0  0
   26.0956    8.5029   53.6372 C   0  0  0  0  0  0  0  0  0  0  0  0
   24.8231    8.7333   54.1569 C   0  0  0  0  0  0  0  0  0  0  0  0
   24.8027    9.0030   55.5072 C   0  0  0  0  0  0  0  0  0  0  0  0
   25.9644    9.0426   56.2885 C   0  0  0  0  0  0  0  0  0  0  0  0
   27.1870    8.8119   55.7392 C   0  0  0  0  0  0  0  0  0  0  0  0
   28.3571    8.8520   56.5256 O   0  0  0  0  0  0  0  0  0  0  0  0
   28.3200    8.9627   57.9137 C   0  0  0  0  0  0  0  0  0  0  0  0
   28.3859   10.3786   58.2914 C   0  0  0  0  0  0  0  0  0  0  0  0
   28.9583   10.7794   59.4739 C   0  0  0  0  0  0  0  0  0  0  0  0
   29.0189   12.1282   59.8297 C   0  0  0  0  0  0  0  0  0  0  0  0
   28.4954   13.0690   58.9790 C   0  0  0  0  0  0  0  0  0  0  0  0
   27.9235   12.6968   57.8027 C   0  0  0  0  0  0  0  0  0  0  0  0
   27.8738   11.3518   57.4686 C   0  0  0  0  0  0  0  0  0  0  0  0
 20 21  1  0  0  0
 21 22  2  0  0  0
 22 23  1  0  0  0
 23 19  1  0  0  0
 19  1  1  0  0  0
  1  2  1  0  0  0
  2  3  2  0  0  0
  3  4  1  0  0  0
  4  5  2  0  0  0
  5  6  1  0  0  0
  6  7  1  0  0  0
  7  8  1  0  0  0
  8  9  1  0  0  0
  9 10  1  0  0  0
  2 11  1  0  0  0
 11 12  1  0  0  0
 11 14  1  0  0  0
 14 15  1  0  0  0
 15 16  1  0  0  0
 16 17  1  0  0  0
 17 18  1  0  0  0
 23 24  2  0  0  0
 24 25  1  0  0  0
 25 26  2  0  0  0
 26 27  1  0  0  0
 27 28  1  0  0  0
 28 29  1  0  0  0
 29 30  2  0  0  0
 30 31  1  0  0  0
 31 32  2  0  0  0
 32 33  1  0  0  0
 33 34  2  0  0  0
 26 21  1  0  0  0
 34 29  1  0  0  0
  5  1  1  0  0  0
 10  6  1  0  0  0
 18 15  1  0  0  0
 12 13  1  0  0  0
M  END
> <minimizedAffinity>
17.12373

> <CNNscore>
0.5301382542

> <CNNaffinity>
6.7240509987

> <CNN_VS>
3.5646767616

> <CNNaffinity_variance>
0.3125713766

$$$$
[H]OC([H])(c1c([H])nc(C2([H])C([H])([H])C([H])([H])C([H])([H])C2([H])[H])n1C([H])([H])c1c([H])c([H])c(OC([H])([H])c2c([H])c([H])c([H])c([H])c2[H])c(C([H])([H])[H])c1[H])C([H])([H])C1([H])C([H])([H])C([H])([H])C1([H])[H]


 34 38  0  0  0  0  0  0  0  0999 V2000
   20.0800    6.4213   52.9261 N   0  0  0  0  0  0  0  0  0  0  0  0
   19.8308    7.4092   52.0837 C   0  0  0  0  0  0  0  0  0  0  0  0
   18.4336    7.4981   51.9699 C   0  0  0  0  0  0  0  0  0  0  0  0
   17.9110    6.5643   52.7439 N   0  0  0  0  0  0  0  0  0  0  0  0
   18.9103    5.8984   53.3328 C   0  0  0  0  0  0  0  0  0  0  0  0
   18.6913    4.7339   54.2495 C   0  0  0  0  0  0  0  0  0  0  0  0
   19.2863    3.4696   53.6702 C   0  0  0  0  0  0  0  0  0  0  0  0
   18.1679    2.6969   53.0399 C   0  0  0  0  0  0  0  0  0  0  0  0
   16.9069    3.1818   53.6721 C   0  0  0  0  0  0  0  0  0  0  0  0
   17.2014    4.4904   54.3261 C   0  0  0  0  0  0  0  0  0  0  0  0
   20.6895    8.3550   51.3099 C   0  0  0  0  0  0  0  0  0  0  0  0
   21.4066    7.7703   50.2823 O   0  0  0  0  0  0  0  0  0  0  0  0
   22.2325    8.2886   50.1241 H   0  0  0  0  0  0  0  0  0  0  0  0
   21.4297    9.2430   52.2250 C   0  0  0  0  0  0  0  0  0  0  0  0
   20.9661   10.6380   52.3625 C   0  0  0  0  0  0  0  0  0  0  0  0
   21.7531   11.6612   53.0376 C   0  0  0  0  0  0  0  0  0  0  0  0
   22.0501   12.3980   51.7263 C   0  0  0  0  0  0  0  0  0  0  0  0
   21.1191   11.4076   51.0568 C   0  0  0  0  0  0  0  0  0  0  0  0
   21.3861    5.9512   53.3251 C   0  0  0  0  0  0  0  0  0  0  0  0
   22.1761   10.0315   56.1010 C   0  0  0  0  0  0  0  0  0  0  0  0
   22.7017    8.8969   55.2980 C   0  0  0  0  0  0  0  0  0  0  0  0
   21.8590    7.9778   54.7093 C   0  0  0  0  0  0  0  0  0  0  0  0
   22.3056    6.8987   53.9487 C   0  0  0  0  0  0  0  0  0  0  0  0
   23.6750    6.8193   53.8269 C   0  0  0  0  0  0  0  0  0  0  0  0
   24.5423    7.7457   54.4195 C   0  0  0  0  0  0  0  0  0  0  0  0
   24.0626    8.7844   55.1548 C   0  0  0  0  0  0  0  0  0  0  0  0
   24.9356    9.7174   55.7519 O   0  0  0  0  0  0  0  0  0  0  0  0
   26.0275    9.3292   56.5251 C   0  0  0  0  0  0  0  0  0  0  0  0
   27.1361    8.9452   55.6445 C   0  0  0  0  0  0  0  0  0  0  0  0
   27.0370    7.8719   54.7932 C   0  0  0  0  0  0  0  0  0  0  0  0
   28.0946    7.5096   53.9568 C   0  0  0  0  0  0  0  0  0  0  0  0
   29.2543    8.2425   53.9886 C   0  0  0  0  0  0  0  0  0  0  0  0
   29.3764    9.3093   54.8230 C   0  0  0  0  0  0  0  0  0  0  0  0
   28.3138    9.6520   55.6454 C   0  0  0  0  0  0  0  0  0  0  0  0
 20 21  1  0  0  0
 21 22  2  0  0  0
 22 23  1  0  0  0
 23 19  1  0  0  0
 19  1  1  0  0  0
  1  2  1  0  0  0
  2  3  2  0  0  0
  3  4  1  0  0  0
  4  5  2  0  0  0
  5  6  1  0  0  0
  6  7  1  0  0  0
  7  8  1  0  0  0
  8  9  1  0  0  0
  9 10  1  0  0  0
  2 11  1  0  0  0
 11 12  1  0  0  0
 11 14  1  0  0  0
 14 15  1  0  0  0
 15 16  1  0  0  0
 16 17  1  0  0  0
 17 18  1  0  0  0
 23 24  2  0  0  0
 24 25  1  0  0  0
 25 26  2  0  0  0
 26 27  1  0  0  0
 27 28  1  0  0  0
 28 29  1  0  0  0
 29 30  2  0  0  0
 30 31  1  0  0  0
 31 32  2  0  0  0
 32 33  1  0  0  0
 33 34  2  0  0  0
 26 21  1  0  0  0
 34 29  1  0  0  0
  5  1  1  0  0  0
 10  6  1  0  0  0
 18 15  1  0  0  0
 12 13  1  0  0  0
M  END
> <minimizedAffinity>
29.73536

> <CNNscore>
0.5275510550

> <CNNaffinity>
6.8088669777

> <CNN_VS>
3.5920250416

> <CNNaffinity_variance>
0.5164121389

$$$$
[H]OC([H])(c1c([H])nc(C2([H])C([H])([H])C([H])([H])C([H])([H])C2([H])[H])n1C([H])([H])c1c([H])c([H])c(OC([H])([H])c2c([H])c([H])c([H])c([H])c2[H])c(C([H])([H])[H])c1[H])C([H])([H])C1([H])C([H])([H])C([H])([H])C1([H])[H]


 34 38  0  0  0  0  0  0  0  0999 V2000
   21.3183   10.0252   52.9050 N   0  0  0  0  0  0  0  0  0  0  0  0
   20.8888    8.9881   52.2065 C   0  0  0  0  0  0  0  0  0  0  0  0
   20.7168    9.4357   50.8862 C   0  0  0  0  0  0  0  0  0  0  0  0
   21.0479   10.7138   50.8530 N   0  0  0  0  0  0  0  0  0  0  0  0
   21.4163   11.0851   52.0840 C   0  0  0  0  0  0  0  0  0  0  0  0
   21.8152   12.4863   52.4328 C   0  0  0  0  0  0  0  0  0  0  0  0
   20.6537   13.2459   53.0344 C   0  0  0  0  0  0  0  0  0  0  0  0
   20.0603   14.0899   51.9478 C   0  0  0  0  0  0  0  0  0  0  0  0
   21.1196   14.2542   50.9106 C   0  0  0  0  0  0  0  0  0  0  0  0
   22.1483   13.1981   51.1416 C   0  0  0  0  0  0  0  0  0  0  0  0
   20.5865    7.5645   52.5416 C   0  0  0  0  0  0  0  0  0  0  0  0
   19.7621    7.3952   53.6389 O   0  0  0  0  0  0  0  0  0  0  0  0
   19.9581    6.5251   54.0635 H   0  0  0  0  0  0  0  0  0  0  0  0
   21.8165    6.7530   52.4940 C   0  0  0  0  0  0  0  0  0  0  0  0
   22.0583    5.7964   53.5924 C   0  0  0  0  0  0  0  0  0  0  0  0
   23.3950    5.3491   53.9604 C   0  0  0  0  0  0  0  0  0  0  0  0
   23.3648    6.1203   55.2851 C   0  0  0  0  0  0  0  0  0  0  0  0
   21.9273    6.4662   54.9542 C   0  0  0  0  0  0  0  0  0  0  0  0
   21.6057   10.0386   54.3204 C   0  0  0  0  0  0  0  0  0  0  0  0
   26.0617    7.9842   53.3703 C   0  0  0  0  0  0  0  0  0  0  0  0
   25.1256    8.6560   54.3087 C   0  0  0  0  0  0  0  0  0  0  0  0
   23.8583    9.0334   53.9173 C   0  0  0  0  0  0  0  0  0  0  0  0
   22.9469    9.6656   54.7612 C   0  0  0  0  0  0  0  0  0  0  0  0
   23.4154    9.8875   56.0369 C   0  0  0  0  0  0  0  0  0  0  0  0
   24.7000    9.5096   56.4477 C   0  0  0  0  0  0  0  0  0  0  0  0
   25.5578    8.8948   55.5898 C   0  0  0  0  0  0  0  0  0  0  0  0
   26.8515    8.5143   56.0029 O   0  0  0  0  0  0  0  0  0  0  0  0
   27.9416    9.3789   55.9338 C   0  0  0  0  0  0  0  0  0  0  0  0
   28.2852    9.8387   57.2837 C   0  0  0  0  0  0  0  0  0  0  0  0
   28.5978    8.9524   58.2852 C   0  0  0  0  0  0  0  0  0  0  0  0
   28.9242    9.3942   59.5689 C   0  0  0  0  0  0  0  0  0  0  0  0
   28.9317   10.7410   59.8313 C   0  0  0  0  0  0  0  0  0  0  0  0
   28.6257   11.6381   58.8562 C   0  0  0  0  0  0  0  0  0  0  0  0
   28.3044   11.1779   57.5881 C   0  0  0  0  0  0  0  0  0  0  0  0
 20 21  1  0  0  0
 21 22  2  0  0  0
 22 23  1  0  0  0
 23 19  1  0  0  0
 19  1  1  0  0  0
  1  2  1  0  0  0
  2  3  2  0  0  0
  3  4  1  0  0  0
  4  5  2  0  0  0
  5  6  1  0  0  0
  6  7  1  0  0  0
  7  8  1  0  0  0
  8  9  1  0  0  0
  9 10  1  0  0  0
  2 11  1  0  0  0
 11 12  1  0  0  0
 11 14  1  0  0  0
 14 15  1  0  0  0
 15 16  1  0  0  0
 16 17  1  0  0  0
 17 18  1  0  0  0
 23 24  2  0  0  0
 24 25  1  0  0  0
 25 26  2  0  0  0
 26 27  1  0  0  0
 27 28  1  0  0  0
 28 29  1  0  0  0
 29 30  2  0  0  0
 30 31  1  0  0  0
 31 32  2  0  0  0
 32 33  1  0  0  0
 33 34  2  0  0  0
 26 21  1  0  0  0
 34 29  1  0  0  0
  5  1  1  0  0  0
 10  6  1  0  0  0
 18 15  1  0  0  0
 12 13  1  0  0  0
M  END
> <minimizedAffinity>
18.56172

> <CNNscore>
0.5174716115

> <CNNaffinity>
6.5224637985

> <CNN_VS>
3.3751897812

> <CNNaffinity_variance>
0.2809060812

$$$$
